# generated using pymatgen
data_CaNi5
_symmetry_space_group_name_H-M   'P 1'
_cell_length_a   28.24164741
_cell_length_b   34.65841095
_cell_length_c   27.47519880
_cell_angle_alpha   86.01484627
_cell_angle_beta   84.90752068
_cell_angle_gamma   87.09334670
_symmetry_Int_Tables_number   1
_chemical_formula_structural   CaNi5
_chemical_formula_sum   'Ca144 Ni720'
_cell_volume   26695.23462422
_cell_formula_units_Z   144
loop_
 _symmetry_equiv_pos_site_id
 _symmetry_equiv_pos_as_xyz
  1  'x, y, z'
loop_
 _atom_site_type_symbol
 _atom_site_label
 _atom_site_symmetry_multiplicity
 _atom_site_fract_x
 _atom_site_fract_y
 _atom_site_fract_z
 _atom_site_occupancy
  Ca  Ca0  1  0.18445606  0.29166667  0.03171664  1.0
  Ca  Ca1  1  0.18445606  0.62500000  0.03171664  1.0
  Ca  Ca2  1  0.18445606  0.95833333  0.03171664  1.0
  Ca  Ca3  1  0.51778940  0.29166667  0.03171664  1.0
  Ca  Ca4  1  0.51778940  0.62500000  0.03171664  1.0
  Ca  Ca5  1  0.51778940  0.95833333  0.03171664  1.0
  Ca  Ca6  1  0.85112273  0.29166667  0.03171664  1.0
  Ca  Ca7  1  0.85112273  0.62500000  0.03171664  1.0
  Ca  Ca8  1  0.85112273  0.95833333  0.03171664  1.0
  Ca  Ca9  1  0.11038199  0.12500000  0.08727219  1.0
  Ca  Ca10  1  0.11038199  0.45833333  0.08727219  1.0
  Ca  Ca11  1  0.11038199  0.79166667  0.08727219  1.0
  Ca  Ca12  1  0.44371532  0.12500000  0.08727219  1.0
  Ca  Ca13  1  0.44371532  0.45833333  0.08727219  1.0
  Ca  Ca14  1  0.44371532  0.79166667  0.08727219  1.0
  Ca  Ca15  1  0.77704866  0.12500000  0.08727219  1.0
  Ca  Ca16  1  0.77704866  0.45833333  0.08727219  1.0
  Ca  Ca17  1  0.77704866  0.79166667  0.08727219  1.0
  Ca  Ca18  1  0.30822347  0.04166667  0.06389108  1.0
  Ca  Ca19  1  0.30822347  0.37500000  0.06389108  1.0
  Ca  Ca20  1  0.30822347  0.70833333  0.06389108  1.0
  Ca  Ca21  1  0.64155681  0.04166667  0.06389108  1.0
  Ca  Ca22  1  0.64155681  0.37500000  0.06389108  1.0
  Ca  Ca23  1  0.64155681  0.70833333  0.06389108  1.0
  Ca  Ca24  1  0.97489014  0.04166667  0.06389108  1.0
  Ca  Ca25  1  0.97489014  0.37500000  0.06389108  1.0
  Ca  Ca26  1  0.97489014  0.70833333  0.06389108  1.0
  Ca  Ca27  1  0.04896421  0.20833333  0.00833553  1.0
  Ca  Ca28  1  0.04896421  0.54166667  0.00833553  1.0
  Ca  Ca29  1  0.04896421  0.87500000  0.00833553  1.0
  Ca  Ca30  1  0.38229755  0.20833333  0.00833553  1.0
  Ca  Ca31  1  0.38229755  0.54166667  0.00833553  1.0
  Ca  Ca32  1  0.38229755  0.87500000  0.00833553  1.0
  Ca  Ca33  1  0.71563088  0.20833333  0.00833553  1.0
  Ca  Ca34  1  0.71563088  0.54166667  0.00833553  1.0
  Ca  Ca35  1  0.71563088  0.87500000  0.00833553  1.0
  Ca  Ca36  1  0.03630792  0.29166667  0.14282775  1.0
  Ca  Ca37  1  0.03630792  0.62500000  0.14282775  1.0
  Ca  Ca38  1  0.03630792  0.95833333  0.14282775  1.0
  Ca  Ca39  1  0.36964125  0.29166667  0.14282775  1.0
  Ca  Ca40  1  0.36964125  0.62500000  0.14282775  1.0
  Ca  Ca41  1  0.36964125  0.95833333  0.14282775  1.0
  Ca  Ca42  1  0.70297458  0.29166667  0.14282775  1.0
  Ca  Ca43  1  0.70297458  0.62500000  0.14282775  1.0
  Ca  Ca44  1  0.70297458  0.95833333  0.14282775  1.0
  Ca  Ca45  1  0.29556718  0.12500000  0.19838331  1.0
  Ca  Ca46  1  0.29556718  0.45833333  0.19838331  1.0
  Ca  Ca47  1  0.29556718  0.79166667  0.19838331  1.0
  Ca  Ca48  1  0.62890051  0.12500000  0.19838331  1.0
  Ca  Ca49  1  0.62890051  0.45833333  0.19838331  1.0
  Ca  Ca50  1  0.62890051  0.79166667  0.19838331  1.0
  Ca  Ca51  1  0.96223384  0.12500000  0.19838331  1.0
  Ca  Ca52  1  0.96223384  0.45833333  0.19838331  1.0
  Ca  Ca53  1  0.96223384  0.79166667  0.19838331  1.0
  Ca  Ca54  1  0.16007532  0.04166667  0.17500219  1.0
  Ca  Ca55  1  0.16007532  0.37500000  0.17500219  1.0
  Ca  Ca56  1  0.16007532  0.70833333  0.17500219  1.0
  Ca  Ca57  1  0.49340866  0.04166667  0.17500219  1.0
  Ca  Ca58  1  0.49340866  0.37500000  0.17500219  1.0
  Ca  Ca59  1  0.49340866  0.70833333  0.17500219  1.0
  Ca  Ca60  1  0.82674199  0.04166667  0.17500219  1.0
  Ca  Ca61  1  0.82674199  0.37500000  0.17500219  1.0
  Ca  Ca62  1  0.82674199  0.70833333  0.17500219  1.0
  Ca  Ca63  1  0.23414940  0.20833333  0.11944664  1.0
  Ca  Ca64  1  0.23414940  0.54166667  0.11944664  1.0
  Ca  Ca65  1  0.23414940  0.87500000  0.11944664  1.0
  Ca  Ca66  1  0.56748273  0.20833333  0.11944664  1.0
  Ca  Ca67  1  0.56748273  0.54166667  0.11944664  1.0
  Ca  Ca68  1  0.56748273  0.87500000  0.11944664  1.0
  Ca  Ca69  1  0.90081606  0.20833333  0.11944664  1.0
  Ca  Ca70  1  0.90081606  0.54166667  0.11944664  1.0
  Ca  Ca71  1  0.90081606  0.87500000  0.11944664  1.0
  Ca  Ca72  1  0.22149310  0.29166667  0.25393886  1.0
  Ca  Ca73  1  0.22149310  0.62500000  0.25393886  1.0
  Ca  Ca74  1  0.22149310  0.95833333  0.25393886  1.0
  Ca  Ca75  1  0.55482644  0.29166667  0.25393886  1.0
  Ca  Ca76  1  0.55482644  0.62500000  0.25393886  1.0
  Ca  Ca77  1  0.55482644  0.95833333  0.25393886  1.0
  Ca  Ca78  1  0.88815977  0.29166667  0.25393886  1.0
  Ca  Ca79  1  0.88815977  0.62500000  0.25393886  1.0
  Ca  Ca80  1  0.88815977  0.95833333  0.25393886  1.0
  Ca  Ca81  1  0.14741903  0.12500000  0.30949442  1.0
  Ca  Ca82  1  0.14741903  0.45833333  0.30949442  1.0
  Ca  Ca83  1  0.14741903  0.79166667  0.30949442  1.0
  Ca  Ca84  1  0.48075236  0.12500000  0.30949442  1.0
  Ca  Ca85  1  0.48075236  0.45833333  0.30949442  1.0
  Ca  Ca86  1  0.48075236  0.79166667  0.30949442  1.0
  Ca  Ca87  1  0.81408569  0.12500000  0.30949442  1.0
  Ca  Ca88  1  0.81408569  0.45833333  0.30949442  1.0
  Ca  Ca89  1  0.81408569  0.79166667  0.30949442  1.0
  Ca  Ca90  1  0.01192718  0.04166667  0.28611331  1.0
  Ca  Ca91  1  0.01192718  0.37500000  0.28611331  1.0
  Ca  Ca92  1  0.01192718  0.70833333  0.28611331  1.0
  Ca  Ca93  1  0.34526051  0.04166667  0.28611331  1.0
  Ca  Ca94  1  0.34526051  0.37500000  0.28611331  1.0
  Ca  Ca95  1  0.34526051  0.70833333  0.28611331  1.0
  Ca  Ca96  1  0.67859384  0.04166667  0.28611331  1.0
  Ca  Ca97  1  0.67859384  0.37500000  0.28611331  1.0
  Ca  Ca98  1  0.67859384  0.70833333  0.28611331  1.0
  Ca  Ca99  1  0.08600125  0.20833333  0.23055775  1.0
  Ca  Ca100  1  0.08600125  0.54166667  0.23055775  1.0
  Ca  Ca101  1  0.08600125  0.87500000  0.23055775  1.0
  Ca  Ca102  1  0.41933458  0.20833333  0.23055775  1.0
  Ca  Ca103  1  0.41933458  0.54166667  0.23055775  1.0
  Ca  Ca104  1  0.41933458  0.87500000  0.23055775  1.0
  Ca  Ca105  1  0.75266792  0.20833333  0.23055775  1.0
  Ca  Ca106  1  0.75266792  0.54166667  0.23055775  1.0
  Ca  Ca107  1  0.75266792  0.87500000  0.23055775  1.0
  Ca  Ca108  1  0.07334495  0.29166667  0.36504997  1.0
  Ca  Ca109  1  0.07334495  0.62500000  0.36504997  1.0
  Ca  Ca110  1  0.07334495  0.95833333  0.36504997  1.0
  Ca  Ca111  1  0.40667829  0.29166667  0.36504997  1.0
  Ca  Ca112  1  0.40667829  0.62500000  0.36504997  1.0
  Ca  Ca113  1  0.40667829  0.95833333  0.36504997  1.0
  Ca  Ca114  1  0.74001162  0.29166667  0.36504997  1.0
  Ca  Ca115  1  0.74001162  0.62500000  0.36504997  1.0
  Ca  Ca116  1  0.74001162  0.95833333  0.36504997  1.0
  Ca  Ca117  1  0.33260421  0.12500000  0.42060553  1.0
  Ca  Ca118  1  0.33260421  0.45833333  0.42060553  1.0
  Ca  Ca119  1  0.33260421  0.79166667  0.42060553  1.0
  Ca  Ca120  1  0.66593755  0.12500000  0.42060553  1.0
  Ca  Ca121  1  0.66593755  0.45833333  0.42060553  1.0
  Ca  Ca122  1  0.66593755  0.79166667  0.42060553  1.0
  Ca  Ca123  1  0.99927088  0.12500000  0.42060553  1.0
  Ca  Ca124  1  0.99927088  0.45833333  0.42060553  1.0
  Ca  Ca125  1  0.99927088  0.79166667  0.42060553  1.0
  Ca  Ca126  1  0.19711236  0.04166667  0.39722442  1.0
  Ca  Ca127  1  0.19711236  0.37500000  0.39722442  1.0
  Ca  Ca128  1  0.19711236  0.70833333  0.39722442  1.0
  Ca  Ca129  1  0.53044569  0.04166667  0.39722442  1.0
  Ca  Ca130  1  0.53044569  0.37500000  0.39722442  1.0
  Ca  Ca131  1  0.53044569  0.70833333  0.39722442  1.0
  Ca  Ca132  1  0.86377903  0.04166667  0.39722442  1.0
  Ca  Ca133  1  0.86377903  0.37500000  0.39722442  1.0
  Ca  Ca134  1  0.86377903  0.70833333  0.39722442  1.0
  Ca  Ca135  1  0.27118644  0.20833333  0.34166886  1.0
  Ca  Ca136  1  0.27118644  0.54166667  0.34166886  1.0
  Ca  Ca137  1  0.27118644  0.87500000  0.34166886  1.0
  Ca  Ca138  1  0.60451977  0.20833333  0.34166886  1.0
  Ca  Ca139  1  0.60451977  0.54166667  0.34166886  1.0
  Ca  Ca140  1  0.60451977  0.87500000  0.34166886  1.0
  Ca  Ca141  1  0.93785310  0.20833333  0.34166886  1.0
  Ca  Ca142  1  0.93785310  0.54166667  0.34166886  1.0
  Ca  Ca143  1  0.93785310  0.87500000  0.34166886  1.0
  Ni  Ni144  1  0.21418525  0.01385733  0.09270575  1.0
  Ni  Ni145  1  0.21418525  0.34719067  0.09270575  1.0
  Ni  Ni146  1  0.21418525  0.68052400  0.09270575  1.0
  Ni  Ni147  1  0.54751858  0.01385733  0.09270575  1.0
  Ni  Ni148  1  0.54751858  0.34719067  0.09270575  1.0
  Ni  Ni149  1  0.54751858  0.68052400  0.09270575  1.0
  Ni  Ni150  1  0.88085192  0.01385733  0.09270575  1.0
  Ni  Ni151  1  0.88085192  0.34719067  0.09270575  1.0
  Ni  Ni152  1  0.88085192  0.68052400  0.09270575  1.0
  Ni  Ni153  1  0.28825932  0.18052400  0.03715019  1.0
  Ni  Ni154  1  0.28825932  0.51385733  0.03715019  1.0
  Ni  Ni155  1  0.28825932  0.84719067  0.03715019  1.0
  Ni  Ni156  1  0.62159266  0.18052400  0.03715019  1.0
  Ni  Ni157  1  0.62159266  0.51385733  0.03715019  1.0
  Ni  Ni158  1  0.62159266  0.84719067  0.03715019  1.0
  Ni  Ni159  1  0.95492599  0.18052400  0.03715019  1.0
  Ni  Ni160  1  0.95492599  0.51385733  0.03715019  1.0
  Ni  Ni161  1  0.95492599  0.84719067  0.03715019  1.0
  Ni  Ni162  1  0.32533844  0.23614267  0.09276886  1.0
  Ni  Ni163  1  0.32533844  0.56947600  0.09276886  1.0
  Ni  Ni164  1  0.32533844  0.90280933  0.09276886  1.0
  Ni  Ni165  1  0.65867177  0.23614267  0.09276886  1.0
  Ni  Ni166  1  0.65867177  0.56947600  0.09276886  1.0
  Ni  Ni167  1  0.65867177  0.90280933  0.09276886  1.0
  Ni  Ni168  1  0.99200510  0.23614267  0.09276886  1.0
  Ni  Ni169  1  0.99200510  0.56947600  0.09276886  1.0
  Ni  Ni170  1  0.99200510  0.90280933  0.09276886  1.0
  Ni  Ni171  1  0.06607918  0.06947600  0.03721331  1.0
  Ni  Ni172  1  0.06607918  0.40280933  0.03721331  1.0
  Ni  Ni173  1  0.06607918  0.73614267  0.03721331  1.0
  Ni  Ni174  1  0.39941251  0.06947600  0.03721331  1.0
  Ni  Ni175  1  0.39941251  0.40280933  0.03721331  1.0
  Ni  Ni176  1  0.39941251  0.73614267  0.03721331  1.0
  Ni  Ni177  1  0.73274584  0.06947600  0.03721331  1.0
  Ni  Ni178  1  0.73274584  0.40280933  0.03721331  1.0
  Ni  Ni179  1  0.73274584  0.73614267  0.03721331  1.0
  Ni  Ni180  1  0.16734110  0.09719067  0.00283886  1.0
  Ni  Ni181  1  0.16734110  0.43052400  0.00283886  1.0
  Ni  Ni182  1  0.16734110  0.76385733  0.00283886  1.0
  Ni  Ni183  1  0.50067444  0.09719067  0.00283886  1.0
  Ni  Ni184  1  0.50067444  0.43052400  0.00283886  1.0
  Ni  Ni185  1  0.50067444  0.76385733  0.00283886  1.0
  Ni  Ni186  1  0.83400777  0.09719067  0.00283886  1.0
  Ni  Ni187  1  0.83400777  0.43052400  0.00283886  1.0
  Ni  Ni188  1  0.83400777  0.76385733  0.00283886  1.0
  Ni  Ni189  1  0.09326703  0.26385733  0.05839442  1.0
  Ni  Ni190  1  0.09326703  0.59719067  0.05839442  1.0
  Ni  Ni191  1  0.09326703  0.93052400  0.05839442  1.0
  Ni  Ni192  1  0.42660036  0.26385733  0.05839442  1.0
  Ni  Ni193  1  0.42660036  0.59719067  0.05839442  1.0
  Ni  Ni194  1  0.42660036  0.93052400  0.05839442  1.0
  Ni  Ni195  1  0.75993369  0.26385733  0.05839442  1.0
  Ni  Ni196  1  0.75993369  0.59719067  0.05839442  1.0
  Ni  Ni197  1  0.75993369  0.93052400  0.05839442  1.0
  Ni  Ni198  1  0.27849429  0.31947600  0.00290197  1.0
  Ni  Ni199  1  0.27849429  0.65280933  0.00290197  1.0
  Ni  Ni200  1  0.27849429  0.98614267  0.00290197  1.0
  Ni  Ni201  1  0.61182762  0.31947600  0.00290197  1.0
  Ni  Ni202  1  0.61182762  0.65280933  0.00290197  1.0
  Ni  Ni203  1  0.61182762  0.98614267  0.00290197  1.0
  Ni  Ni204  1  0.94516095  0.31947600  0.00290197  1.0
  Ni  Ni205  1  0.94516095  0.65280933  0.00290197  1.0
  Ni  Ni206  1  0.94516095  0.98614267  0.00290197  1.0
  Ni  Ni207  1  0.20442021  0.15280933  0.05845753  1.0
  Ni  Ni208  1  0.20442021  0.48614267  0.05845753  1.0
  Ni  Ni209  1  0.20442021  0.81947600  0.05845753  1.0
  Ni  Ni210  1  0.53775355  0.15280933  0.05845753  1.0
  Ni  Ni211  1  0.53775355  0.48614267  0.05845753  1.0
  Ni  Ni212  1  0.53775355  0.81947600  0.05845753  1.0
  Ni  Ni213  1  0.87108688  0.15280933  0.05845753  1.0
  Ni  Ni214  1  0.87108688  0.48614267  0.05845753  1.0
  Ni  Ni215  1  0.87108688  0.81947600  0.05845753  1.0
  Ni  Ni216  1  0.28337681  0.25000000  0.02002608  1.0
  Ni  Ni217  1  0.28337681  0.58333333  0.02002608  1.0
  Ni  Ni218  1  0.28337681  0.91666667  0.02002608  1.0
  Ni  Ni219  1  0.61671014  0.25000000  0.02002608  1.0
  Ni  Ni220  1  0.61671014  0.58333333  0.02002608  1.0
  Ni  Ni221  1  0.61671014  0.91666667  0.02002608  1.0
  Ni  Ni222  1  0.95004347  0.25000000  0.02002608  1.0
  Ni  Ni223  1  0.95004347  0.58333333  0.02002608  1.0
  Ni  Ni224  1  0.95004347  0.91666667  0.02002608  1.0
  Ni  Ni225  1  0.20930273  0.08333333  0.07558164  1.0
  Ni  Ni226  1  0.20930273  0.41666667  0.07558164  1.0
  Ni  Ni227  1  0.20930273  0.75000000  0.07558164  1.0
  Ni  Ni228  1  0.54263606  0.08333333  0.07558164  1.0
  Ni  Ni229  1  0.54263606  0.41666667  0.07558164  1.0
  Ni  Ni230  1  0.54263606  0.75000000  0.07558164  1.0
  Ni  Ni231  1  0.87596940  0.08333333  0.07558164  1.0
  Ni  Ni232  1  0.87596940  0.41666667  0.07558164  1.0
  Ni  Ni233  1  0.87596940  0.75000000  0.07558164  1.0
  Ni  Ni234  1  0.07967310  0.00000000  0.04780386  1.0
  Ni  Ni235  1  0.07967310  0.33333333  0.04780386  1.0
  Ni  Ni236  1  0.07967310  0.66666667  0.04780386  1.0
  Ni  Ni237  1  0.41300644  0.00000000  0.04780386  1.0
  Ni  Ni238  1  0.41300644  0.33333333  0.04780386  1.0
  Ni  Ni239  1  0.41300644  0.66666667  0.04780386  1.0
  Ni  Ni240  1  0.74633977  0.00000000  0.04780386  1.0
  Ni  Ni241  1  0.74633977  0.33333333  0.04780386  1.0
  Ni  Ni242  1  0.74633977  0.66666667  0.04780386  1.0
  Ni  Ni243  1  0.00559903  0.16666667  0.10335942  1.0
  Ni  Ni244  1  0.00559903  0.50000000  0.10335942  1.0
  Ni  Ni245  1  0.00559903  0.83333333  0.10335942  1.0
  Ni  Ni246  1  0.33893236  0.16666667  0.10335942  1.0
  Ni  Ni247  1  0.33893236  0.50000000  0.10335942  1.0
  Ni  Ni248  1  0.33893236  0.83333333  0.10335942  1.0
  Ni  Ni249  1  0.67226569  0.16666667  0.10335942  1.0
  Ni  Ni250  1  0.67226569  0.50000000  0.10335942  1.0
  Ni  Ni251  1  0.67226569  0.83333333  0.10335942  1.0
  Ni  Ni252  1  0.21748566  0.20994783  0.00452269  1.0
  Ni  Ni253  1  0.21748566  0.54328117  0.00452269  1.0
  Ni  Ni254  1  0.21748566  0.87661450  0.00452269  1.0
  Ni  Ni255  1  0.55081899  0.20994783  0.00452269  1.0
  Ni  Ni256  1  0.55081899  0.54328117  0.00452269  1.0
  Ni  Ni257  1  0.55081899  0.87661450  0.00452269  1.0
  Ni  Ni258  1  0.88415232  0.20994783  0.00452269  1.0
  Ni  Ni259  1  0.88415232  0.54328117  0.00452269  1.0
  Ni  Ni260  1  0.88415232  0.87661450  0.00452269  1.0
  Ni  Ni261  1  0.14341158  0.04328117  0.06007825  1.0
  Ni  Ni262  1  0.14341158  0.37661450  0.06007825  1.0
  Ni  Ni263  1  0.14341158  0.70994783  0.06007825  1.0
  Ni  Ni264  1  0.47674492  0.04328117  0.06007825  1.0
  Ni  Ni265  1  0.47674492  0.37661450  0.06007825  1.0
  Ni  Ni266  1  0.47674492  0.70994783  0.06007825  1.0
  Ni  Ni267  1  0.81007825  0.04328117  0.06007825  1.0
  Ni  Ni268  1  0.81007825  0.37661450  0.06007825  1.0
  Ni  Ni269  1  0.81007825  0.70994783  0.06007825  1.0
  Ni  Ni270  1  0.21963832  0.04005217  0.00775169  1.0
  Ni  Ni271  1  0.21963832  0.37338550  0.00775169  1.0
  Ni  Ni272  1  0.21963832  0.70671883  0.00775169  1.0
  Ni  Ni273  1  0.55297166  0.04005217  0.00775169  1.0
  Ni  Ni274  1  0.55297166  0.37338550  0.00775169  1.0
  Ni  Ni275  1  0.55297166  0.70671883  0.00775169  1.0
  Ni  Ni276  1  0.88630499  0.04005217  0.00775169  1.0
  Ni  Ni277  1  0.88630499  0.37338550  0.00775169  1.0
  Ni  Ni278  1  0.88630499  0.70671883  0.00775169  1.0
  Ni  Ni279  1  0.14556425  0.20671883  0.06330725  1.0
  Ni  Ni280  1  0.14556425  0.54005217  0.06330725  1.0
  Ni  Ni281  1  0.14556425  0.87338550  0.06330725  1.0
  Ni  Ni282  1  0.47889758  0.20671883  0.06330725  1.0
  Ni  Ni283  1  0.47889758  0.54005217  0.06330725  1.0
  Ni  Ni284  1  0.47889758  0.87338550  0.06330725  1.0
  Ni  Ni285  1  0.81223092  0.20671883  0.06330725  1.0
  Ni  Ni286  1  0.81223092  0.54005217  0.06330725  1.0
  Ni  Ni287  1  0.81223092  0.87338550  0.06330725  1.0
  Ni  Ni288  1  0.27304121  0.29328117  0.08785603  1.0
  Ni  Ni289  1  0.27304121  0.62661450  0.08785603  1.0
  Ni  Ni290  1  0.27304121  0.95994783  0.08785603  1.0
  Ni  Ni291  1  0.60637455  0.29328117  0.08785603  1.0
  Ni  Ni292  1  0.60637455  0.62661450  0.08785603  1.0
  Ni  Ni293  1  0.60637455  0.95994783  0.08785603  1.0
  Ni  Ni294  1  0.93970788  0.29328117  0.08785603  1.0
  Ni  Ni295  1  0.93970788  0.62661450  0.08785603  1.0
  Ni  Ni296  1  0.93970788  0.95994783  0.08785603  1.0
  Ni  Ni297  1  0.01378195  0.12661450  0.03230047  1.0
  Ni  Ni298  1  0.01378195  0.45994783  0.03230047  1.0
  Ni  Ni299  1  0.01378195  0.79328117  0.03230047  1.0
  Ni  Ni300  1  0.34711529  0.12661450  0.03230047  1.0
  Ni  Ni301  1  0.34711529  0.45994783  0.03230047  1.0
  Ni  Ni302  1  0.34711529  0.79328117  0.03230047  1.0
  Ni  Ni303  1  0.68044862  0.12661450  0.03230047  1.0
  Ni  Ni304  1  0.68044862  0.45994783  0.03230047  1.0
  Ni  Ni305  1  0.68044862  0.79328117  0.03230047  1.0
  Ni  Ni306  1  0.01593462  0.29005217  0.03552947  1.0
  Ni  Ni307  1  0.01593462  0.62338550  0.03552947  1.0
  Ni  Ni308  1  0.01593462  0.95671883  0.03552947  1.0
  Ni  Ni309  1  0.34926795  0.29005217  0.03552947  1.0
  Ni  Ni310  1  0.34926795  0.62338550  0.03552947  1.0
  Ni  Ni311  1  0.34926795  0.95671883  0.03552947  1.0
  Ni  Ni312  1  0.68260129  0.29005217  0.03552947  1.0
  Ni  Ni313  1  0.68260129  0.62338550  0.03552947  1.0
  Ni  Ni314  1  0.68260129  0.95671883  0.03552947  1.0
  Ni  Ni315  1  0.27519388  0.12338550  0.09108503  1.0
  Ni  Ni316  1  0.27519388  0.45671883  0.09108503  1.0
  Ni  Ni317  1  0.27519388  0.79005217  0.09108503  1.0
  Ni  Ni318  1  0.60852721  0.12338550  0.09108503  1.0
  Ni  Ni319  1  0.60852721  0.45671883  0.09108503  1.0
  Ni  Ni320  1  0.60852721  0.79005217  0.09108503  1.0
  Ni  Ni321  1  0.94186055  0.12338550  0.09108503  1.0
  Ni  Ni322  1  0.94186055  0.45671883  0.09108503  1.0
  Ni  Ni323  1  0.94186055  0.79005217  0.09108503  1.0
  Ni  Ni324  1  0.06603710  0.01385733  0.20381686  1.0
  Ni  Ni325  1  0.06603710  0.34719067  0.20381686  1.0
  Ni  Ni326  1  0.06603710  0.68052400  0.20381686  1.0
  Ni  Ni327  1  0.39937044  0.01385733  0.20381686  1.0
  Ni  Ni328  1  0.39937044  0.34719067  0.20381686  1.0
  Ni  Ni329  1  0.39937044  0.68052400  0.20381686  1.0
  Ni  Ni330  1  0.73270377  0.01385733  0.20381686  1.0
  Ni  Ni331  1  0.73270377  0.34719067  0.20381686  1.0
  Ni  Ni332  1  0.73270377  0.68052400  0.20381686  1.0
  Ni  Ni333  1  0.14011118  0.18052400  0.14826131  1.0
  Ni  Ni334  1  0.14011118  0.51385733  0.14826131  1.0
  Ni  Ni335  1  0.14011118  0.84719067  0.14826131  1.0
  Ni  Ni336  1  0.47344451  0.18052400  0.14826131  1.0
  Ni  Ni337  1  0.47344451  0.51385733  0.14826131  1.0
  Ni  Ni338  1  0.47344451  0.84719067  0.14826131  1.0
  Ni  Ni339  1  0.80677784  0.18052400  0.14826131  1.0
  Ni  Ni340  1  0.80677784  0.51385733  0.14826131  1.0
  Ni  Ni341  1  0.80677784  0.84719067  0.14826131  1.0
  Ni  Ni342  1  0.17719029  0.23614267  0.20387997  1.0
  Ni  Ni343  1  0.17719029  0.56947600  0.20387997  1.0
  Ni  Ni344  1  0.17719029  0.90280933  0.20387997  1.0
  Ni  Ni345  1  0.51052362  0.23614267  0.20387997  1.0
  Ni  Ni346  1  0.51052362  0.56947600  0.20387997  1.0
  Ni  Ni347  1  0.51052362  0.90280933  0.20387997  1.0
  Ni  Ni348  1  0.84385695  0.23614267  0.20387997  1.0
  Ni  Ni349  1  0.84385695  0.56947600  0.20387997  1.0
  Ni  Ni350  1  0.84385695  0.90280933  0.20387997  1.0
  Ni  Ni351  1  0.25126436  0.06947600  0.14832442  1.0
  Ni  Ni352  1  0.25126436  0.40280933  0.14832442  1.0
  Ni  Ni353  1  0.25126436  0.73614267  0.14832442  1.0
  Ni  Ni354  1  0.58459769  0.06947600  0.14832442  1.0
  Ni  Ni355  1  0.58459769  0.40280933  0.14832442  1.0
  Ni  Ni356  1  0.58459769  0.73614267  0.14832442  1.0
  Ni  Ni357  1  0.91793103  0.06947600  0.14832442  1.0
  Ni  Ni358  1  0.91793103  0.40280933  0.14832442  1.0
  Ni  Ni359  1  0.91793103  0.73614267  0.14832442  1.0
  Ni  Ni360  1  0.01919295  0.09719067  0.11394997  1.0
  Ni  Ni361  1  0.01919295  0.43052400  0.11394997  1.0
  Ni  Ni362  1  0.01919295  0.76385733  0.11394997  1.0
  Ni  Ni363  1  0.35252629  0.09719067  0.11394997  1.0
  Ni  Ni364  1  0.35252629  0.43052400  0.11394997  1.0
  Ni  Ni365  1  0.35252629  0.76385733  0.11394997  1.0
  Ni  Ni366  1  0.68585962  0.09719067  0.11394997  1.0
  Ni  Ni367  1  0.68585962  0.43052400  0.11394997  1.0
  Ni  Ni368  1  0.68585962  0.76385733  0.11394997  1.0
  Ni  Ni369  1  0.27845221  0.26385733  0.16950553  1.0
  Ni  Ni370  1  0.27845221  0.59719067  0.16950553  1.0
  Ni  Ni371  1  0.27845221  0.93052400  0.16950553  1.0
  Ni  Ni372  1  0.61178555  0.26385733  0.16950553  1.0
  Ni  Ni373  1  0.61178555  0.59719067  0.16950553  1.0
  Ni  Ni374  1  0.61178555  0.93052400  0.16950553  1.0
  Ni  Ni375  1  0.94511888  0.26385733  0.16950553  1.0
  Ni  Ni376  1  0.94511888  0.59719067  0.16950553  1.0
  Ni  Ni377  1  0.94511888  0.93052400  0.16950553  1.0
  Ni  Ni378  1  0.13034614  0.31947600  0.11401308  1.0
  Ni  Ni379  1  0.13034614  0.65280933  0.11401308  1.0
  Ni  Ni380  1  0.13034614  0.98614267  0.11401308  1.0
  Ni  Ni381  1  0.46367947  0.31947600  0.11401308  1.0
  Ni  Ni382  1  0.46367947  0.65280933  0.11401308  1.0
  Ni  Ni383  1  0.46367947  0.98614267  0.11401308  1.0
  Ni  Ni384  1  0.79701281  0.31947600  0.11401308  1.0
  Ni  Ni385  1  0.79701281  0.65280933  0.11401308  1.0
  Ni  Ni386  1  0.79701281  0.98614267  0.11401308  1.0
  Ni  Ni387  1  0.05627206  0.15280933  0.16956864  1.0
  Ni  Ni388  1  0.05627206  0.48614267  0.16956864  1.0
  Ni  Ni389  1  0.05627206  0.81947600  0.16956864  1.0
  Ni  Ni390  1  0.38960540  0.15280933  0.16956864  1.0
  Ni  Ni391  1  0.38960540  0.48614267  0.16956864  1.0
  Ni  Ni392  1  0.38960540  0.81947600  0.16956864  1.0
  Ni  Ni393  1  0.72293873  0.15280933  0.16956864  1.0
  Ni  Ni394  1  0.72293873  0.48614267  0.16956864  1.0
  Ni  Ni395  1  0.72293873  0.81947600  0.16956864  1.0
  Ni  Ni396  1  0.13522866  0.25000000  0.13113719  1.0
  Ni  Ni397  1  0.13522866  0.58333333  0.13113719  1.0
  Ni  Ni398  1  0.13522866  0.91666667  0.13113719  1.0
  Ni  Ni399  1  0.46856199  0.25000000  0.13113719  1.0
  Ni  Ni400  1  0.46856199  0.58333333  0.13113719  1.0
  Ni  Ni401  1  0.46856199  0.91666667  0.13113719  1.0
  Ni  Ni402  1  0.80189532  0.25000000  0.13113719  1.0
  Ni  Ni403  1  0.80189532  0.58333333  0.13113719  1.0
  Ni  Ni404  1  0.80189532  0.91666667  0.13113719  1.0
  Ni  Ni405  1  0.06115458  0.08333333  0.18669275  1.0
  Ni  Ni406  1  0.06115458  0.41666667  0.18669275  1.0
  Ni  Ni407  1  0.06115458  0.75000000  0.18669275  1.0
  Ni  Ni408  1  0.39448792  0.08333333  0.18669275  1.0
  Ni  Ni409  1  0.39448792  0.41666667  0.18669275  1.0
  Ni  Ni410  1  0.39448792  0.75000000  0.18669275  1.0
  Ni  Ni411  1  0.72782125  0.08333333  0.18669275  1.0
  Ni  Ni412  1  0.72782125  0.41666667  0.18669275  1.0
  Ni  Ni413  1  0.72782125  0.75000000  0.18669275  1.0
  Ni  Ni414  1  0.26485829  0.00000000  0.15891497  1.0
  Ni  Ni415  1  0.26485829  0.33333333  0.15891497  1.0
  Ni  Ni416  1  0.26485829  0.66666667  0.15891497  1.0
  Ni  Ni417  1  0.59819162  0.00000000  0.15891497  1.0
  Ni  Ni418  1  0.59819162  0.33333333  0.15891497  1.0
  Ni  Ni419  1  0.59819162  0.66666667  0.15891497  1.0
  Ni  Ni420  1  0.93152495  0.00000000  0.15891497  1.0
  Ni  Ni421  1  0.93152495  0.33333333  0.15891497  1.0
  Ni  Ni422  1  0.93152495  0.66666667  0.15891497  1.0
  Ni  Ni423  1  0.19078421  0.16666667  0.21447053  1.0
  Ni  Ni424  1  0.19078421  0.50000000  0.21447053  1.0
  Ni  Ni425  1  0.19078421  0.83333333  0.21447053  1.0
  Ni  Ni426  1  0.52411755  0.16666667  0.21447053  1.0
  Ni  Ni427  1  0.52411755  0.50000000  0.21447053  1.0
  Ni  Ni428  1  0.52411755  0.83333333  0.21447053  1.0
  Ni  Ni429  1  0.85745088  0.16666667  0.21447053  1.0
  Ni  Ni430  1  0.85745088  0.50000000  0.21447053  1.0
  Ni  Ni431  1  0.85745088  0.83333333  0.21447053  1.0
  Ni  Ni432  1  0.06933751  0.20994783  0.11563381  1.0
  Ni  Ni433  1  0.06933751  0.54328117  0.11563381  1.0
  Ni  Ni434  1  0.06933751  0.87661450  0.11563381  1.0
  Ni  Ni435  1  0.40267084  0.20994783  0.11563381  1.0
  Ni  Ni436  1  0.40267084  0.54328117  0.11563381  1.0
  Ni  Ni437  1  0.40267084  0.87661450  0.11563381  1.0
  Ni  Ni438  1  0.73600418  0.20994783  0.11563381  1.0
  Ni  Ni439  1  0.73600418  0.54328117  0.11563381  1.0
  Ni  Ni440  1  0.73600418  0.87661450  0.11563381  1.0
  Ni  Ni441  1  0.32859677  0.04328117  0.17118936  1.0
  Ni  Ni442  1  0.32859677  0.37661450  0.17118936  1.0
  Ni  Ni443  1  0.32859677  0.70994783  0.17118936  1.0
  Ni  Ni444  1  0.66193010  0.04328117  0.17118936  1.0
  Ni  Ni445  1  0.66193010  0.37661450  0.17118936  1.0
  Ni  Ni446  1  0.66193010  0.70994783  0.17118936  1.0
  Ni  Ni447  1  0.99526344  0.04328117  0.17118936  1.0
  Ni  Ni448  1  0.99526344  0.37661450  0.17118936  1.0
  Ni  Ni449  1  0.99526344  0.70994783  0.17118936  1.0
  Ni  Ni450  1  0.07149018  0.04005217  0.11886281  1.0
  Ni  Ni451  1  0.07149018  0.37338550  0.11886281  1.0
  Ni  Ni452  1  0.07149018  0.70671883  0.11886281  1.0
  Ni  Ni453  1  0.40482351  0.04005217  0.11886281  1.0
  Ni  Ni454  1  0.40482351  0.37338550  0.11886281  1.0
  Ni  Ni455  1  0.40482351  0.70671883  0.11886281  1.0
  Ni  Ni456  1  0.73815684  0.04005217  0.11886281  1.0
  Ni  Ni457  1  0.73815684  0.37338550  0.11886281  1.0
  Ni  Ni458  1  0.73815684  0.70671883  0.11886281  1.0
  Ni  Ni459  1  0.33074944  0.20671883  0.17441836  1.0
  Ni  Ni460  1  0.33074944  0.54005217  0.17441836  1.0
  Ni  Ni461  1  0.33074944  0.87338550  0.17441836  1.0
  Ni  Ni462  1  0.66408277  0.20671883  0.17441836  1.0
  Ni  Ni463  1  0.66408277  0.54005217  0.17441836  1.0
  Ni  Ni464  1  0.66408277  0.87338550  0.17441836  1.0
  Ni  Ni465  1  0.99741610  0.20671883  0.17441836  1.0
  Ni  Ni466  1  0.99741610  0.54005217  0.17441836  1.0
  Ni  Ni467  1  0.99741610  0.87338550  0.17441836  1.0
  Ni  Ni468  1  0.12489306  0.29328117  0.19896714  1.0
  Ni  Ni469  1  0.12489306  0.62661450  0.19896714  1.0
  Ni  Ni470  1  0.12489306  0.95994783  0.19896714  1.0
  Ni  Ni471  1  0.45822640  0.29328117  0.19896714  1.0
  Ni  Ni472  1  0.45822640  0.62661450  0.19896714  1.0
  Ni  Ni473  1  0.45822640  0.95994783  0.19896714  1.0
  Ni  Ni474  1  0.79155973  0.29328117  0.19896714  1.0
  Ni  Ni475  1  0.79155973  0.62661450  0.19896714  1.0
  Ni  Ni476  1  0.79155973  0.95994783  0.19896714  1.0
  Ni  Ni477  1  0.19896714  0.12661450  0.14341158  1.0
  Ni  Ni478  1  0.19896714  0.45994783  0.14341158  1.0
  Ni  Ni479  1  0.19896714  0.79328117  0.14341158  1.0
  Ni  Ni480  1  0.53230047  0.12661450  0.14341158  1.0
  Ni  Ni481  1  0.53230047  0.45994783  0.14341158  1.0
  Ni  Ni482  1  0.53230047  0.79328117  0.14341158  1.0
  Ni  Ni483  1  0.86563381  0.12661450  0.14341158  1.0
  Ni  Ni484  1  0.86563381  0.45994783  0.14341158  1.0
  Ni  Ni485  1  0.86563381  0.79328117  0.14341158  1.0
  Ni  Ni486  1  0.20111981  0.29005217  0.14664058  1.0
  Ni  Ni487  1  0.20111981  0.62338550  0.14664058  1.0
  Ni  Ni488  1  0.20111981  0.95671883  0.14664058  1.0
  Ni  Ni489  1  0.53445314  0.29005217  0.14664058  1.0
  Ni  Ni490  1  0.53445314  0.62338550  0.14664058  1.0
  Ni  Ni491  1  0.53445314  0.95671883  0.14664058  1.0
  Ni  Ni492  1  0.86778647  0.29005217  0.14664058  1.0
  Ni  Ni493  1  0.86778647  0.62338550  0.14664058  1.0
  Ni  Ni494  1  0.86778647  0.95671883  0.14664058  1.0
  Ni  Ni495  1  0.12704573  0.12338550  0.20219614  1.0
  Ni  Ni496  1  0.12704573  0.45671883  0.20219614  1.0
  Ni  Ni497  1  0.12704573  0.79005217  0.20219614  1.0
  Ni  Ni498  1  0.46037906  0.12338550  0.20219614  1.0
  Ni  Ni499  1  0.46037906  0.45671883  0.20219614  1.0
  Ni  Ni500  1  0.46037906  0.79005217  0.20219614  1.0
  Ni  Ni501  1  0.79371240  0.12338550  0.20219614  1.0
  Ni  Ni502  1  0.79371240  0.45671883  0.20219614  1.0
  Ni  Ni503  1  0.79371240  0.79005217  0.20219614  1.0
  Ni  Ni504  1  0.25122229  0.01385733  0.31492797  1.0
  Ni  Ni505  1  0.25122229  0.34719067  0.31492797  1.0
  Ni  Ni506  1  0.25122229  0.68052400  0.31492797  1.0
  Ni  Ni507  1  0.58455562  0.01385733  0.31492797  1.0
  Ni  Ni508  1  0.58455562  0.34719067  0.31492797  1.0
  Ni  Ni509  1  0.58455562  0.68052400  0.31492797  1.0
  Ni  Ni510  1  0.91788895  0.01385733  0.31492797  1.0
  Ni  Ni511  1  0.91788895  0.34719067  0.31492797  1.0
  Ni  Ni512  1  0.91788895  0.68052400  0.31492797  1.0
  Ni  Ni513  1  0.32529636  0.18052400  0.25937242  1.0
  Ni  Ni514  1  0.32529636  0.51385733  0.25937242  1.0
  Ni  Ni515  1  0.32529636  0.84719067  0.25937242  1.0
  Ni  Ni516  1  0.65862969  0.18052400  0.25937242  1.0
  Ni  Ni517  1  0.65862969  0.51385733  0.25937242  1.0
  Ni  Ni518  1  0.65862969  0.84719067  0.25937242  1.0
  Ni  Ni519  1  0.99196303  0.18052400  0.25937242  1.0
  Ni  Ni520  1  0.99196303  0.51385733  0.25937242  1.0
  Ni  Ni521  1  0.99196303  0.84719067  0.25937242  1.0
  Ni  Ni522  1  0.02904214  0.23614267  0.31499108  1.0
  Ni  Ni523  1  0.02904214  0.56947600  0.31499108  1.0
  Ni  Ni524  1  0.02904214  0.90280933  0.31499108  1.0
  Ni  Ni525  1  0.36237547  0.23614267  0.31499108  1.0
  Ni  Ni526  1  0.36237547  0.56947600  0.31499108  1.0
  Ni  Ni527  1  0.36237547  0.90280933  0.31499108  1.0
  Ni  Ni528  1  0.69570881  0.23614267  0.31499108  1.0
  Ni  Ni529  1  0.69570881  0.56947600  0.31499108  1.0
  Ni  Ni530  1  0.69570881  0.90280933  0.31499108  1.0
  Ni  Ni531  1  0.10311621  0.06947600  0.25943553  1.0
  Ni  Ni532  1  0.10311621  0.40280933  0.25943553  1.0
  Ni  Ni533  1  0.10311621  0.73614267  0.25943553  1.0
  Ni  Ni534  1  0.43644955  0.06947600  0.25943553  1.0
  Ni  Ni535  1  0.43644955  0.40280933  0.25943553  1.0
  Ni  Ni536  1  0.43644955  0.73614267  0.25943553  1.0
  Ni  Ni537  1  0.76978288  0.06947600  0.25943553  1.0
  Ni  Ni538  1  0.76978288  0.40280933  0.25943553  1.0
  Ni  Ni539  1  0.76978288  0.73614267  0.25943553  1.0
  Ni  Ni540  1  0.20437814  0.09719067  0.22506108  1.0
  Ni  Ni541  1  0.20437814  0.43052400  0.22506108  1.0
  Ni  Ni542  1  0.20437814  0.76385733  0.22506108  1.0
  Ni  Ni543  1  0.53771147  0.09719067  0.22506108  1.0
  Ni  Ni544  1  0.53771147  0.43052400  0.22506108  1.0
  Ni  Ni545  1  0.53771147  0.76385733  0.22506108  1.0
  Ni  Ni546  1  0.87104481  0.09719067  0.22506108  1.0
  Ni  Ni547  1  0.87104481  0.43052400  0.22506108  1.0
  Ni  Ni548  1  0.87104481  0.76385733  0.22506108  1.0
  Ni  Ni549  1  0.13030406  0.26385733  0.28061664  1.0
  Ni  Ni550  1  0.13030406  0.59719067  0.28061664  1.0
  Ni  Ni551  1  0.13030406  0.93052400  0.28061664  1.0
  Ni  Ni552  1  0.46363740  0.26385733  0.28061664  1.0
  Ni  Ni553  1  0.46363740  0.59719067  0.28061664  1.0
  Ni  Ni554  1  0.46363740  0.93052400  0.28061664  1.0
  Ni  Ni555  1  0.79697073  0.26385733  0.28061664  1.0
  Ni  Ni556  1  0.79697073  0.59719067  0.28061664  1.0
  Ni  Ni557  1  0.79697073  0.93052400  0.28061664  1.0
  Ni  Ni558  1  0.31553132  0.31947600  0.22512419  1.0
  Ni  Ni559  1  0.31553132  0.65280933  0.22512419  1.0
  Ni  Ni560  1  0.31553132  0.98614267  0.22512419  1.0
  Ni  Ni561  1  0.64886466  0.31947600  0.22512419  1.0
  Ni  Ni562  1  0.64886466  0.65280933  0.22512419  1.0
  Ni  Ni563  1  0.64886466  0.98614267  0.22512419  1.0
  Ni  Ni564  1  0.98219799  0.31947600  0.22512419  1.0
  Ni  Ni565  1  0.98219799  0.65280933  0.22512419  1.0
  Ni  Ni566  1  0.98219799  0.98614267  0.22512419  1.0
  Ni  Ni567  1  0.24145725  0.15280933  0.28067975  1.0
  Ni  Ni568  1  0.24145725  0.48614267  0.28067975  1.0
  Ni  Ni569  1  0.24145725  0.81947600  0.28067975  1.0
  Ni  Ni570  1  0.57479058  0.15280933  0.28067975  1.0
  Ni  Ni571  1  0.57479058  0.48614267  0.28067975  1.0
  Ni  Ni572  1  0.57479058  0.81947600  0.28067975  1.0
  Ni  Ni573  1  0.90812392  0.15280933  0.28067975  1.0
  Ni  Ni574  1  0.90812392  0.48614267  0.28067975  1.0
  Ni  Ni575  1  0.90812392  0.81947600  0.28067975  1.0
  Ni  Ni576  1  0.32041384  0.25000000  0.24224831  1.0
  Ni  Ni577  1  0.32041384  0.58333333  0.24224831  1.0
  Ni  Ni578  1  0.32041384  0.91666667  0.24224831  1.0
  Ni  Ni579  1  0.65374718  0.25000000  0.24224831  1.0
  Ni  Ni580  1  0.65374718  0.58333333  0.24224831  1.0
  Ni  Ni581  1  0.65374718  0.91666667  0.24224831  1.0
  Ni  Ni582  1  0.98708051  0.25000000  0.24224831  1.0
  Ni  Ni583  1  0.98708051  0.58333333  0.24224831  1.0
  Ni  Ni584  1  0.98708051  0.91666667  0.24224831  1.0
  Ni  Ni585  1  0.24633977  0.08333333  0.29780386  1.0
  Ni  Ni586  1  0.24633977  0.41666667  0.29780386  1.0
  Ni  Ni587  1  0.24633977  0.75000000  0.29780386  1.0
  Ni  Ni588  1  0.57967310  0.08333333  0.29780386  1.0
  Ni  Ni589  1  0.57967310  0.41666667  0.29780386  1.0
  Ni  Ni590  1  0.57967310  0.75000000  0.29780386  1.0
  Ni  Ni591  1  0.91300644  0.08333333  0.29780386  1.0
  Ni  Ni592  1  0.91300644  0.41666667  0.29780386  1.0
  Ni  Ni593  1  0.91300644  0.75000000  0.29780386  1.0
  Ni  Ni594  1  0.11671014  0.00000000  0.27002608  1.0
  Ni  Ni595  1  0.11671014  0.33333333  0.27002608  1.0
  Ni  Ni596  1  0.11671014  0.66666667  0.27002608  1.0
  Ni  Ni597  1  0.45004347  0.00000000  0.27002608  1.0
  Ni  Ni598  1  0.45004347  0.33333333  0.27002608  1.0
  Ni  Ni599  1  0.45004347  0.66666667  0.27002608  1.0
  Ni  Ni600  1  0.78337681  0.00000000  0.27002608  1.0
  Ni  Ni601  1  0.78337681  0.33333333  0.27002608  1.0
  Ni  Ni602  1  0.78337681  0.66666667  0.27002608  1.0
  Ni  Ni603  1  0.04263606  0.16666667  0.32558164  1.0
  Ni  Ni604  1  0.04263606  0.50000000  0.32558164  1.0
  Ni  Ni605  1  0.04263606  0.83333333  0.32558164  1.0
  Ni  Ni606  1  0.37596940  0.16666667  0.32558164  1.0
  Ni  Ni607  1  0.37596940  0.50000000  0.32558164  1.0
  Ni  Ni608  1  0.37596940  0.83333333  0.32558164  1.0
  Ni  Ni609  1  0.70930273  0.16666667  0.32558164  1.0
  Ni  Ni610  1  0.70930273  0.50000000  0.32558164  1.0
  Ni  Ni611  1  0.70930273  0.83333333  0.32558164  1.0
  Ni  Ni612  1  0.25452269  0.20994783  0.22674492  1.0
  Ni  Ni613  1  0.25452269  0.54328117  0.22674492  1.0
  Ni  Ni614  1  0.25452269  0.87661450  0.22674492  1.0
  Ni  Ni615  1  0.58785603  0.20994783  0.22674492  1.0
  Ni  Ni616  1  0.58785603  0.54328117  0.22674492  1.0
  Ni  Ni617  1  0.58785603  0.87661450  0.22674492  1.0
  Ni  Ni618  1  0.92118936  0.20994783  0.22674492  1.0
  Ni  Ni619  1  0.92118936  0.54328117  0.22674492  1.0
  Ni  Ni620  1  0.92118936  0.87661450  0.22674492  1.0
  Ni  Ni621  1  0.18044862  0.04328117  0.28230047  1.0
  Ni  Ni622  1  0.18044862  0.37661450  0.28230047  1.0
  Ni  Ni623  1  0.18044862  0.70994783  0.28230047  1.0
  Ni  Ni624  1  0.51378195  0.04328117  0.28230047  1.0
  Ni  Ni625  1  0.51378195  0.37661450  0.28230047  1.0
  Ni  Ni626  1  0.51378195  0.70994783  0.28230047  1.0
  Ni  Ni627  1  0.84711529  0.04328117  0.28230047  1.0
  Ni  Ni628  1  0.84711529  0.37661450  0.28230047  1.0
  Ni  Ni629  1  0.84711529  0.70994783  0.28230047  1.0
  Ni  Ni630  1  0.25667536  0.04005217  0.22997392  1.0
  Ni  Ni631  1  0.25667536  0.37338550  0.22997392  1.0
  Ni  Ni632  1  0.25667536  0.70671883  0.22997392  1.0
  Ni  Ni633  1  0.59000869  0.04005217  0.22997392  1.0
  Ni  Ni634  1  0.59000869  0.37338550  0.22997392  1.0
  Ni  Ni635  1  0.59000869  0.70671883  0.22997392  1.0
  Ni  Ni636  1  0.92334203  0.04005217  0.22997392  1.0
  Ni  Ni637  1  0.92334203  0.37338550  0.22997392  1.0
  Ni  Ni638  1  0.92334203  0.70671883  0.22997392  1.0
  Ni  Ni639  1  0.18260129  0.20671883  0.28552947  1.0
  Ni  Ni640  1  0.18260129  0.54005217  0.28552947  1.0
  Ni  Ni641  1  0.18260129  0.87338550  0.28552947  1.0
  Ni  Ni642  1  0.51593462  0.20671883  0.28552947  1.0
  Ni  Ni643  1  0.51593462  0.54005217  0.28552947  1.0
  Ni  Ni644  1  0.51593462  0.87338550  0.28552947  1.0
  Ni  Ni645  1  0.84926795  0.20671883  0.28552947  1.0
  Ni  Ni646  1  0.84926795  0.54005217  0.28552947  1.0
  Ni  Ni647  1  0.84926795  0.87338550  0.28552947  1.0
  Ni  Ni648  1  0.31007825  0.29328117  0.31007825  1.0
  Ni  Ni649  1  0.31007825  0.62661450  0.31007825  1.0
  Ni  Ni650  1  0.31007825  0.95994783  0.31007825  1.0
  Ni  Ni651  1  0.64341158  0.29328117  0.31007825  1.0
  Ni  Ni652  1  0.64341158  0.62661450  0.31007825  1.0
  Ni  Ni653  1  0.64341158  0.95994783  0.31007825  1.0
  Ni  Ni654  1  0.97674492  0.29328117  0.31007825  1.0
  Ni  Ni655  1  0.97674492  0.62661450  0.31007825  1.0
  Ni  Ni656  1  0.97674492  0.95994783  0.31007825  1.0
  Ni  Ni657  1  0.05081899  0.12661450  0.25452269  1.0
  Ni  Ni658  1  0.05081899  0.45994783  0.25452269  1.0
  Ni  Ni659  1  0.05081899  0.79328117  0.25452269  1.0
  Ni  Ni660  1  0.38415232  0.12661450  0.25452269  1.0
  Ni  Ni661  1  0.38415232  0.45994783  0.25452269  1.0
  Ni  Ni662  1  0.38415232  0.79328117  0.25452269  1.0
  Ni  Ni663  1  0.71748566  0.12661450  0.25452269  1.0
  Ni  Ni664  1  0.71748566  0.45994783  0.25452269  1.0
  Ni  Ni665  1  0.71748566  0.79328117  0.25452269  1.0
  Ni  Ni666  1  0.05297166  0.29005217  0.25775169  1.0
  Ni  Ni667  1  0.05297166  0.62338550  0.25775169  1.0
  Ni  Ni668  1  0.05297166  0.95671883  0.25775169  1.0
  Ni  Ni669  1  0.38630499  0.29005217  0.25775169  1.0
  Ni  Ni670  1  0.38630499  0.62338550  0.25775169  1.0
  Ni  Ni671  1  0.38630499  0.95671883  0.25775169  1.0
  Ni  Ni672  1  0.71963832  0.29005217  0.25775169  1.0
  Ni  Ni673  1  0.71963832  0.62338550  0.25775169  1.0
  Ni  Ni674  1  0.71963832  0.95671883  0.25775169  1.0
  Ni  Ni675  1  0.31223092  0.12338550  0.31330725  1.0
  Ni  Ni676  1  0.31223092  0.45671883  0.31330725  1.0
  Ni  Ni677  1  0.31223092  0.79005217  0.31330725  1.0
  Ni  Ni678  1  0.64556425  0.12338550  0.31330725  1.0
  Ni  Ni679  1  0.64556425  0.45671883  0.31330725  1.0
  Ni  Ni680  1  0.64556425  0.79005217  0.31330725  1.0
  Ni  Ni681  1  0.97889758  0.12338550  0.31330725  1.0
  Ni  Ni682  1  0.97889758  0.45671883  0.31330725  1.0
  Ni  Ni683  1  0.97889758  0.79005217  0.31330725  1.0
  Ni  Ni684  1  0.10307414  0.01385733  0.42603908  1.0
  Ni  Ni685  1  0.10307414  0.34719067  0.42603908  1.0
  Ni  Ni686  1  0.10307414  0.68052400  0.42603908  1.0
  Ni  Ni687  1  0.43640747  0.01385733  0.42603908  1.0
  Ni  Ni688  1  0.43640747  0.34719067  0.42603908  1.0
  Ni  Ni689  1  0.43640747  0.68052400  0.42603908  1.0
  Ni  Ni690  1  0.76974081  0.01385733  0.42603908  1.0
  Ni  Ni691  1  0.76974081  0.34719067  0.42603908  1.0
  Ni  Ni692  1  0.76974081  0.68052400  0.42603908  1.0
  Ni  Ni693  1  0.17714821  0.18052400  0.37048353  1.0
  Ni  Ni694  1  0.17714821  0.51385733  0.37048353  1.0
  Ni  Ni695  1  0.17714821  0.84719067  0.37048353  1.0
  Ni  Ni696  1  0.51048155  0.18052400  0.37048353  1.0
  Ni  Ni697  1  0.51048155  0.51385733  0.37048353  1.0
  Ni  Ni698  1  0.51048155  0.84719067  0.37048353  1.0
  Ni  Ni699  1  0.84381488  0.18052400  0.37048353  1.0
  Ni  Ni700  1  0.84381488  0.51385733  0.37048353  1.0
  Ni  Ni701  1  0.84381488  0.84719067  0.37048353  1.0
  Ni  Ni702  1  0.21422732  0.23614267  0.42610219  1.0
  Ni  Ni703  1  0.21422732  0.56947600  0.42610219  1.0
  Ni  Ni704  1  0.21422732  0.90280933  0.42610219  1.0
  Ni  Ni705  1  0.54756066  0.23614267  0.42610219  1.0
  Ni  Ni706  1  0.54756066  0.56947600  0.42610219  1.0
  Ni  Ni707  1  0.54756066  0.90280933  0.42610219  1.0
  Ni  Ni708  1  0.88089399  0.23614267  0.42610219  1.0
  Ni  Ni709  1  0.88089399  0.56947600  0.42610219  1.0
  Ni  Ni710  1  0.88089399  0.90280933  0.42610219  1.0
  Ni  Ni711  1  0.28830140  0.06947600  0.37054664  1.0
  Ni  Ni712  1  0.28830140  0.40280933  0.37054664  1.0
  Ni  Ni713  1  0.28830140  0.73614267  0.37054664  1.0
  Ni  Ni714  1  0.62163473  0.06947600  0.37054664  1.0
  Ni  Ni715  1  0.62163473  0.40280933  0.37054664  1.0
  Ni  Ni716  1  0.62163473  0.73614267  0.37054664  1.0
  Ni  Ni717  1  0.95496806  0.06947600  0.37054664  1.0
  Ni  Ni718  1  0.95496806  0.40280933  0.37054664  1.0
  Ni  Ni719  1  0.95496806  0.73614267  0.37054664  1.0
  Ni  Ni720  1  0.05622999  0.09719067  0.33617219  1.0
  Ni  Ni721  1  0.05622999  0.43052400  0.33617219  1.0
  Ni  Ni722  1  0.05622999  0.76385733  0.33617219  1.0
  Ni  Ni723  1  0.38956332  0.09719067  0.33617219  1.0
  Ni  Ni724  1  0.38956332  0.43052400  0.33617219  1.0
  Ni  Ni725  1  0.38956332  0.76385733  0.33617219  1.0
  Ni  Ni726  1  0.72289666  0.09719067  0.33617219  1.0
  Ni  Ni727  1  0.72289666  0.43052400  0.33617219  1.0
  Ni  Ni728  1  0.72289666  0.76385733  0.33617219  1.0
  Ni  Ni729  1  0.31548925  0.26385733  0.39172775  1.0
  Ni  Ni730  1  0.31548925  0.59719067  0.39172775  1.0
  Ni  Ni731  1  0.31548925  0.93052400  0.39172775  1.0
  Ni  Ni732  1  0.64882258  0.26385733  0.39172775  1.0
  Ni  Ni733  1  0.64882258  0.59719067  0.39172775  1.0
  Ni  Ni734  1  0.64882258  0.93052400  0.39172775  1.0
  Ni  Ni735  1  0.98215592  0.26385733  0.39172775  1.0
  Ni  Ni736  1  0.98215592  0.59719067  0.39172775  1.0
  Ni  Ni737  1  0.98215592  0.93052400  0.39172775  1.0
  Ni  Ni738  1  0.16738318  0.31947600  0.33623531  1.0
  Ni  Ni739  1  0.16738318  0.65280933  0.33623531  1.0
  Ni  Ni740  1  0.16738318  0.98614267  0.33623531  1.0
  Ni  Ni741  1  0.50071651  0.31947600  0.33623531  1.0
  Ni  Ni742  1  0.50071651  0.65280933  0.33623531  1.0
  Ni  Ni743  1  0.50071651  0.98614267  0.33623531  1.0
  Ni  Ni744  1  0.83404984  0.31947600  0.33623531  1.0
  Ni  Ni745  1  0.83404984  0.65280933  0.33623531  1.0
  Ni  Ni746  1  0.83404984  0.98614267  0.33623531  1.0
  Ni  Ni747  1  0.09330910  0.15280933  0.39179086  1.0
  Ni  Ni748  1  0.09330910  0.48614267  0.39179086  1.0
  Ni  Ni749  1  0.09330910  0.81947600  0.39179086  1.0
  Ni  Ni750  1  0.42664244  0.15280933  0.39179086  1.0
  Ni  Ni751  1  0.42664244  0.48614267  0.39179086  1.0
  Ni  Ni752  1  0.42664244  0.81947600  0.39179086  1.0
  Ni  Ni753  1  0.75997577  0.15280933  0.39179086  1.0
  Ni  Ni754  1  0.75997577  0.48614267  0.39179086  1.0
  Ni  Ni755  1  0.75997577  0.81947600  0.39179086  1.0
  Ni  Ni756  1  0.17226569  0.25000000  0.35335942  1.0
  Ni  Ni757  1  0.17226569  0.58333333  0.35335942  1.0
  Ni  Ni758  1  0.17226569  0.91666667  0.35335942  1.0
  Ni  Ni759  1  0.50559903  0.25000000  0.35335942  1.0
  Ni  Ni760  1  0.50559903  0.58333333  0.35335942  1.0
  Ni  Ni761  1  0.50559903  0.91666667  0.35335942  1.0
  Ni  Ni762  1  0.83893236  0.25000000  0.35335942  1.0
  Ni  Ni763  1  0.83893236  0.58333333  0.35335942  1.0
  Ni  Ni764  1  0.83893236  0.91666667  0.35335942  1.0
  Ni  Ni765  1  0.09819162  0.08333333  0.40891497  1.0
  Ni  Ni766  1  0.09819162  0.41666667  0.40891497  1.0
  Ni  Ni767  1  0.09819162  0.75000000  0.40891497  1.0
  Ni  Ni768  1  0.43152495  0.08333333  0.40891497  1.0
  Ni  Ni769  1  0.43152495  0.41666667  0.40891497  1.0
  Ni  Ni770  1  0.43152495  0.75000000  0.40891497  1.0
  Ni  Ni771  1  0.76485829  0.08333333  0.40891497  1.0
  Ni  Ni772  1  0.76485829  0.41666667  0.40891497  1.0
  Ni  Ni773  1  0.76485829  0.75000000  0.40891497  1.0
  Ni  Ni774  1  0.30189532  0.00000000  0.38113719  1.0
  Ni  Ni775  1  0.30189532  0.33333333  0.38113719  1.0
  Ni  Ni776  1  0.30189532  0.66666667  0.38113719  1.0
  Ni  Ni777  1  0.63522866  0.00000000  0.38113719  1.0
  Ni  Ni778  1  0.63522866  0.33333333  0.38113719  1.0
  Ni  Ni779  1  0.63522866  0.66666667  0.38113719  1.0
  Ni  Ni780  1  0.96856199  0.00000000  0.38113719  1.0
  Ni  Ni781  1  0.96856199  0.33333333  0.38113719  1.0
  Ni  Ni782  1  0.96856199  0.66666667  0.38113719  1.0
  Ni  Ni783  1  0.22782125  0.16666667  0.43669275  1.0
  Ni  Ni784  1  0.22782125  0.50000000  0.43669275  1.0
  Ni  Ni785  1  0.22782125  0.83333333  0.43669275  1.0
  Ni  Ni786  1  0.56115458  0.16666667  0.43669275  1.0
  Ni  Ni787  1  0.56115458  0.50000000  0.43669275  1.0
  Ni  Ni788  1  0.56115458  0.83333333  0.43669275  1.0
  Ni  Ni789  1  0.89448792  0.16666667  0.43669275  1.0
  Ni  Ni790  1  0.89448792  0.50000000  0.43669275  1.0
  Ni  Ni791  1  0.89448792  0.83333333  0.43669275  1.0
  Ni  Ni792  1  0.10637455  0.20994783  0.33785603  1.0
  Ni  Ni793  1  0.10637455  0.54328117  0.33785603  1.0
  Ni  Ni794  1  0.10637455  0.87661450  0.33785603  1.0
  Ni  Ni795  1  0.43970788  0.20994783  0.33785603  1.0
  Ni  Ni796  1  0.43970788  0.54328117  0.33785603  1.0
  Ni  Ni797  1  0.43970788  0.87661450  0.33785603  1.0
  Ni  Ni798  1  0.77304121  0.20994783  0.33785603  1.0
  Ni  Ni799  1  0.77304121  0.54328117  0.33785603  1.0
  Ni  Ni800  1  0.77304121  0.87661450  0.33785603  1.0
  Ni  Ni801  1  0.03230047  0.04328117  0.39341158  1.0
  Ni  Ni802  1  0.03230047  0.37661450  0.39341158  1.0
  Ni  Ni803  1  0.03230047  0.70994783  0.39341158  1.0
  Ni  Ni804  1  0.36563381  0.04328117  0.39341158  1.0
  Ni  Ni805  1  0.36563381  0.37661450  0.39341158  1.0
  Ni  Ni806  1  0.36563381  0.70994783  0.39341158  1.0
  Ni  Ni807  1  0.69896714  0.04328117  0.39341158  1.0
  Ni  Ni808  1  0.69896714  0.37661450  0.39341158  1.0
  Ni  Ni809  1  0.69896714  0.70994783  0.39341158  1.0
  Ni  Ni810  1  0.10852721  0.04005217  0.34108503  1.0
  Ni  Ni811  1  0.10852721  0.37338550  0.34108503  1.0
  Ni  Ni812  1  0.10852721  0.70671883  0.34108503  1.0
  Ni  Ni813  1  0.44186055  0.04005217  0.34108503  1.0
  Ni  Ni814  1  0.44186055  0.37338550  0.34108503  1.0
  Ni  Ni815  1  0.44186055  0.70671883  0.34108503  1.0
  Ni  Ni816  1  0.77519388  0.04005217  0.34108503  1.0
  Ni  Ni817  1  0.77519388  0.37338550  0.34108503  1.0
  Ni  Ni818  1  0.77519388  0.70671883  0.34108503  1.0
  Ni  Ni819  1  0.03445314  0.20671883  0.39664058  1.0
  Ni  Ni820  1  0.03445314  0.54005217  0.39664058  1.0
  Ni  Ni821  1  0.03445314  0.87338550  0.39664058  1.0
  Ni  Ni822  1  0.36778647  0.20671883  0.39664058  1.0
  Ni  Ni823  1  0.36778647  0.54005217  0.39664058  1.0
  Ni  Ni824  1  0.36778647  0.87338550  0.39664058  1.0
  Ni  Ni825  1  0.70111981  0.20671883  0.39664058  1.0
  Ni  Ni826  1  0.70111981  0.54005217  0.39664058  1.0
  Ni  Ni827  1  0.70111981  0.87338550  0.39664058  1.0
  Ni  Ni828  1  0.16193010  0.29328117  0.42118936  1.0
  Ni  Ni829  1  0.16193010  0.62661450  0.42118936  1.0
  Ni  Ni830  1  0.16193010  0.95994783  0.42118936  1.0
  Ni  Ni831  1  0.49526344  0.29328117  0.42118936  1.0
  Ni  Ni832  1  0.49526344  0.62661450  0.42118936  1.0
  Ni  Ni833  1  0.49526344  0.95994783  0.42118936  1.0
  Ni  Ni834  1  0.82859677  0.29328117  0.42118936  1.0
  Ni  Ni835  1  0.82859677  0.62661450  0.42118936  1.0
  Ni  Ni836  1  0.82859677  0.95994783  0.42118936  1.0
  Ni  Ni837  1  0.23600418  0.12661450  0.36563381  1.0
  Ni  Ni838  1  0.23600418  0.45994783  0.36563381  1.0
  Ni  Ni839  1  0.23600418  0.79328117  0.36563381  1.0
  Ni  Ni840  1  0.56933751  0.12661450  0.36563381  1.0
  Ni  Ni841  1  0.56933751  0.45994783  0.36563381  1.0
  Ni  Ni842  1  0.56933751  0.79328117  0.36563381  1.0
  Ni  Ni843  1  0.90267084  0.12661450  0.36563381  1.0
  Ni  Ni844  1  0.90267084  0.45994783  0.36563381  1.0
  Ni  Ni845  1  0.90267084  0.79328117  0.36563381  1.0
  Ni  Ni846  1  0.23815684  0.29005217  0.36886281  1.0
  Ni  Ni847  1  0.23815684  0.62338550  0.36886281  1.0
  Ni  Ni848  1  0.23815684  0.95671883  0.36886281  1.0
  Ni  Ni849  1  0.57149018  0.29005217  0.36886281  1.0
  Ni  Ni850  1  0.57149018  0.62338550  0.36886281  1.0
  Ni  Ni851  1  0.57149018  0.95671883  0.36886281  1.0
  Ni  Ni852  1  0.90482351  0.29005217  0.36886281  1.0
  Ni  Ni853  1  0.90482351  0.62338550  0.36886281  1.0
  Ni  Ni854  1  0.90482351  0.95671883  0.36886281  1.0
  Ni  Ni855  1  0.16408277  0.12338550  0.42441836  1.0
  Ni  Ni856  1  0.16408277  0.45671883  0.42441836  1.0
  Ni  Ni857  1  0.16408277  0.79005217  0.42441836  1.0
  Ni  Ni858  1  0.49741610  0.12338550  0.42441836  1.0
  Ni  Ni859  1  0.49741610  0.45671883  0.42441836  1.0
  Ni  Ni860  1  0.49741610  0.79005217  0.42441836  1.0
  Ni  Ni861  1  0.83074944  0.12338550  0.42441836  1.0
  Ni  Ni862  1  0.83074944  0.45671883  0.42441836  1.0
  Ni  Ni863  1  0.83074944  0.79005217  0.42441836  1.0
