# generated using pymatgen
data_CaNi5
_symmetry_space_group_name_H-M   'P 1'
_cell_length_a   27.78463177
_cell_length_b   45.80463888
_cell_length_c   75.42474156
_cell_angle_alpha   122.15385216
_cell_angle_beta   42.54460790
_cell_angle_gamma   87.47615365
_symmetry_Int_Tables_number   1
_chemical_formula_structural   CaNi5
_chemical_formula_sum   'Ca180 Ni900'
_cell_volume   35593.64616563
_cell_formula_units_Z   180
loop_
 _symmetry_equiv_pos_site_id
 _symmetry_equiv_pos_as_xyz
  1  'x, y, z'
loop_
 _atom_site_type_symbol
 _atom_site_label
 _atom_site_symmetry_multiplicity
 _atom_site_fract_x
 _atom_site_fract_y
 _atom_site_fract_z
 _atom_site_occupancy
  Ca  Ca0  1  0.12829750  0.28836917  0.00334065  1.0
  Ca  Ca1  1  0.12829750  0.62170250  0.00334065  1.0
  Ca  Ca2  1  0.12829750  0.95503583  0.00334065  1.0
  Ca  Ca3  1  0.46163083  0.28836917  0.00334065  1.0
  Ca  Ca4  1  0.46163083  0.62170250  0.00334065  1.0
  Ca  Ca5  1  0.46163083  0.95503583  0.00334065  1.0
  Ca  Ca6  1  0.79496417  0.28836917  0.00334065  1.0
  Ca  Ca7  1  0.79496417  0.62170250  0.00334065  1.0
  Ca  Ca8  1  0.79496417  0.95503583  0.00334065  1.0
  Ca  Ca9  1  0.29496417  0.12170250  0.04500731  1.0
  Ca  Ca10  1  0.29496417  0.45503583  0.04500731  1.0
  Ca  Ca11  1  0.29496417  0.78836917  0.04500731  1.0
  Ca  Ca12  1  0.62829750  0.12170250  0.04500731  1.0
  Ca  Ca13  1  0.62829750  0.45503583  0.04500731  1.0
  Ca  Ca14  1  0.62829750  0.78836917  0.04500731  1.0
  Ca  Ca15  1  0.96163083  0.12170250  0.04500731  1.0
  Ca  Ca16  1  0.96163083  0.45503583  0.04500731  1.0
  Ca  Ca17  1  0.96163083  0.78836917  0.04500731  1.0
  Ca  Ca18  1  0.03836917  0.21163083  0.02912023  1.0
  Ca  Ca19  1  0.03836917  0.54496417  0.02912023  1.0
  Ca  Ca20  1  0.03836917  0.87829750  0.02912023  1.0
  Ca  Ca21  1  0.37170250  0.21163083  0.02912023  1.0
  Ca  Ca22  1  0.37170250  0.54496417  0.02912023  1.0
  Ca  Ca23  1  0.37170250  0.87829750  0.02912023  1.0
  Ca  Ca24  1  0.70503583  0.21163083  0.02912023  1.0
  Ca  Ca25  1  0.70503583  0.54496417  0.02912023  1.0
  Ca  Ca26  1  0.70503583  0.87829750  0.02912023  1.0
  Ca  Ca27  1  0.20503583  0.04496417  0.07078690  1.0
  Ca  Ca28  1  0.20503583  0.37829750  0.07078690  1.0
  Ca  Ca29  1  0.20503583  0.71163083  0.07078690  1.0
  Ca  Ca30  1  0.53836917  0.04496417  0.07078690  1.0
  Ca  Ca31  1  0.53836917  0.37829750  0.07078690  1.0
  Ca  Ca32  1  0.53836917  0.71163083  0.07078690  1.0
  Ca  Ca33  1  0.87170250  0.04496417  0.07078690  1.0
  Ca  Ca34  1  0.87170250  0.37829750  0.07078690  1.0
  Ca  Ca35  1  0.87170250  0.71163083  0.07078690  1.0
  Ni  Ni36  1  0.00905183  0.29656683  0.06501290  1.0
  Ni  Ni37  1  0.00905183  0.62990017  0.06501290  1.0
  Ni  Ni38  1  0.00905183  0.96323350  0.06501290  1.0
  Ni  Ni39  1  0.34238517  0.29656683  0.06501290  1.0
  Ni  Ni40  1  0.34238517  0.62990017  0.06501290  1.0
  Ni  Ni41  1  0.34238517  0.96323350  0.06501290  1.0
  Ni  Ni42  1  0.67571850  0.29656683  0.06501290  1.0
  Ni  Ni43  1  0.67571850  0.62990017  0.06501290  1.0
  Ni  Ni44  1  0.67571850  0.96323350  0.06501290  1.0
  Ni  Ni45  1  0.17571850  0.12990017  0.02334623  1.0
  Ni  Ni46  1  0.17571850  0.46323350  0.02334623  1.0
  Ni  Ni47  1  0.17571850  0.79656683  0.02334623  1.0
  Ni  Ni48  1  0.50905183  0.12990017  0.02334623  1.0
  Ni  Ni49  1  0.50905183  0.46323350  0.02334623  1.0
  Ni  Ni50  1  0.50905183  0.79656683  0.02334623  1.0
  Ni  Ni51  1  0.84238517  0.12990017  0.02334623  1.0
  Ni  Ni52  1  0.84238517  0.46323350  0.02334623  1.0
  Ni  Ni53  1  0.84238517  0.79656683  0.02334623  1.0
  Ni  Ni54  1  0.23114783  0.29656683  0.03729823  1.0
  Ni  Ni55  1  0.23114783  0.62990017  0.03729823  1.0
  Ni  Ni56  1  0.23114783  0.96323350  0.03729823  1.0
  Ni  Ni57  1  0.56448117  0.29656683  0.03729823  1.0
  Ni  Ni58  1  0.56448117  0.62990017  0.03729823  1.0
  Ni  Ni59  1  0.56448117  0.96323350  0.03729823  1.0
  Ni  Ni60  1  0.89781450  0.29656683  0.03729823  1.0
  Ni  Ni61  1  0.89781450  0.62990017  0.03729823  1.0
  Ni  Ni62  1  0.89781450  0.96323350  0.03729823  1.0
  Ni  Ni63  1  0.06448117  0.12990017  0.07896490  1.0
  Ni  Ni64  1  0.06448117  0.46323350  0.07896490  1.0
  Ni  Ni65  1  0.06448117  0.79656683  0.07896490  1.0
  Ni  Ni66  1  0.39781450  0.12990017  0.07896490  1.0
  Ni  Ni67  1  0.39781450  0.46323350  0.07896490  1.0
  Ni  Ni68  1  0.39781450  0.79656683  0.07896490  1.0
  Ni  Ni69  1  0.73114783  0.12990017  0.07896490  1.0
  Ni  Ni70  1  0.73114783  0.46323350  0.07896490  1.0
  Ni  Ni71  1  0.73114783  0.79656683  0.07896490  1.0
  Ni  Ni72  1  0.26885217  0.20343317  0.07849598  1.0
  Ni  Ni73  1  0.26885217  0.53676650  0.07849598  1.0
  Ni  Ni74  1  0.26885217  0.87009983  0.07849598  1.0
  Ni  Ni75  1  0.60218550  0.20343317  0.07849598  1.0
  Ni  Ni76  1  0.60218550  0.53676650  0.07849598  1.0
  Ni  Ni77  1  0.60218550  0.87009983  0.07849598  1.0
  Ni  Ni78  1  0.93551883  0.20343317  0.07849598  1.0
  Ni  Ni79  1  0.93551883  0.53676650  0.07849598  1.0
  Ni  Ni80  1  0.93551883  0.87009983  0.07849598  1.0
  Ni  Ni81  1  0.10218550  0.03676650  0.03682931  1.0
  Ni  Ni82  1  0.10218550  0.37009983  0.03682931  1.0
  Ni  Ni83  1  0.10218550  0.70343317  0.03682931  1.0
  Ni  Ni84  1  0.43551883  0.03676650  0.03682931  1.0
  Ni  Ni85  1  0.43551883  0.37009983  0.03682931  1.0
  Ni  Ni86  1  0.43551883  0.70343317  0.03682931  1.0
  Ni  Ni87  1  0.76885217  0.03676650  0.03682931  1.0
  Ni  Ni88  1  0.76885217  0.37009983  0.03682931  1.0
  Ni  Ni89  1  0.76885217  0.70343317  0.03682931  1.0
  Ni  Ni90  1  0.15761483  0.20343317  0.05078131  1.0
  Ni  Ni91  1  0.15761483  0.53676650  0.05078131  1.0
  Ni  Ni92  1  0.15761483  0.87009983  0.05078131  1.0
  Ni  Ni93  1  0.49094817  0.20343317  0.05078131  1.0
  Ni  Ni94  1  0.49094817  0.53676650  0.05078131  1.0
  Ni  Ni95  1  0.49094817  0.87009983  0.05078131  1.0
  Ni  Ni96  1  0.82428150  0.20343317  0.05078131  1.0
  Ni  Ni97  1  0.82428150  0.53676650  0.05078131  1.0
  Ni  Ni98  1  0.82428150  0.87009983  0.05078131  1.0
  Ni  Ni99  1  0.32428150  0.03676650  0.00911465  1.0
  Ni  Ni100  1  0.32428150  0.37009983  0.00911465  1.0
  Ni  Ni101  1  0.32428150  0.70343317  0.00911465  1.0
  Ni  Ni102  1  0.65761483  0.03676650  0.00911465  1.0
  Ni  Ni103  1  0.65761483  0.37009983  0.00911465  1.0
  Ni  Ni104  1  0.65761483  0.70343317  0.00911465  1.0
  Ni  Ni105  1  0.99094817  0.03676650  0.00911465  1.0
  Ni  Ni106  1  0.99094817  0.37009983  0.00911465  1.0
  Ni  Ni107  1  0.99094817  0.70343317  0.00911465  1.0
  Ni  Ni108  1  0.08333333  0.25000000  0.05789710  1.0
  Ni  Ni109  1  0.08333333  0.58333333  0.05789710  1.0
  Ni  Ni110  1  0.08333333  0.91666667  0.05789710  1.0
  Ni  Ni111  1  0.41666667  0.25000000  0.05789710  1.0
  Ni  Ni112  1  0.41666667  0.58333333  0.05789710  1.0
  Ni  Ni113  1  0.41666667  0.91666667  0.05789710  1.0
  Ni  Ni114  1  0.75000000  0.25000000  0.05789710  1.0
  Ni  Ni115  1  0.75000000  0.58333333  0.05789710  1.0
  Ni  Ni116  1  0.75000000  0.91666667  0.05789710  1.0
  Ni  Ni117  1  0.25000000  0.08333333  0.01623044  1.0
  Ni  Ni118  1  0.25000000  0.41666667  0.01623044  1.0
  Ni  Ni119  1  0.25000000  0.75000000  0.01623044  1.0
  Ni  Ni120  1  0.58333333  0.08333333  0.01623044  1.0
  Ni  Ni121  1  0.58333333  0.41666667  0.01623044  1.0
  Ni  Ni122  1  0.58333333  0.75000000  0.01623044  1.0
  Ni  Ni123  1  0.91666667  0.08333333  0.01623044  1.0
  Ni  Ni124  1  0.91666667  0.41666667  0.01623044  1.0
  Ni  Ni125  1  0.91666667  0.75000000  0.01623044  1.0
  Ni  Ni126  1  0.33333333  0.16666667  0.07873044  1.0
  Ni  Ni127  1  0.33333333  0.50000000  0.07873044  1.0
  Ni  Ni128  1  0.33333333  0.83333333  0.07873044  1.0
  Ni  Ni129  1  0.66666667  0.16666667  0.07873044  1.0
  Ni  Ni130  1  0.66666667  0.50000000  0.07873044  1.0
  Ni  Ni131  1  0.66666667  0.83333333  0.07873044  1.0
  Ni  Ni132  1  1.00000000  0.16666667  0.07873044  1.0
  Ni  Ni133  1  0.00000000  0.50000000  0.07873044  1.0
  Ni  Ni134  1  1.00000000  0.83333333  0.07873044  1.0
  Ni  Ni135  1  0.16666667  0.00000000  0.03706377  1.0
  Ni  Ni136  1  0.16666667  0.33333333  0.03706377  1.0
  Ni  Ni137  1  0.16666667  0.66666667  0.03706377  1.0
  Ni  Ni138  1  0.50000000  0.00000000  0.03706377  1.0
  Ni  Ni139  1  0.50000000  0.33333333  0.03706377  1.0
  Ni  Ni140  1  0.50000000  0.66666667  0.03706377  1.0
  Ni  Ni141  1  0.83333333  0.00000000  0.03706377  1.0
  Ni  Ni142  1  0.83333333  0.33333333  0.03706377  1.0
  Ni  Ni143  1  0.83333333  0.66666667  0.03706377  1.0
  Ni  Ni144  1  0.12984350  0.29005217  0.04626956  1.0
  Ni  Ni145  1  0.12984350  0.62338550  0.04626956  1.0
  Ni  Ni146  1  0.12984350  0.95671883  0.04626956  1.0
  Ni  Ni147  1  0.46317683  0.29005217  0.04626956  1.0
  Ni  Ni148  1  0.46317683  0.62338550  0.04626956  1.0
  Ni  Ni149  1  0.46317683  0.95671883  0.04626956  1.0
  Ni  Ni150  1  0.79651017  0.29005217  0.04626956  1.0
  Ni  Ni151  1  0.79651017  0.62338550  0.04626956  1.0
  Ni  Ni152  1  0.79651017  0.95671883  0.04626956  1.0
  Ni  Ni153  1  0.29651017  0.12338550  0.00460290  1.0
  Ni  Ni154  1  0.29651017  0.45671883  0.00460290  1.0
  Ni  Ni155  1  0.29651017  0.79005217  0.00460290  1.0
  Ni  Ni156  1  0.62984350  0.12338550  0.00460290  1.0
  Ni  Ni157  1  0.62984350  0.45671883  0.00460290  1.0
  Ni  Ni158  1  0.62984350  0.79005217  0.00460290  1.0
  Ni  Ni159  1  0.96317683  0.12338550  0.00460290  1.0
  Ni  Ni160  1  0.96317683  0.45671883  0.00460290  1.0
  Ni  Ni161  1  0.96317683  0.79005217  0.00460290  1.0
  Ni  Ni162  1  0.20348983  0.20994783  0.06952465  1.0
  Ni  Ni163  1  0.20348983  0.54328117  0.06952465  1.0
  Ni  Ni164  1  0.20348983  0.87661450  0.06952465  1.0
  Ni  Ni165  1  0.53682317  0.20994783  0.06952465  1.0
  Ni  Ni166  1  0.53682317  0.54328117  0.06952465  1.0
  Ni  Ni167  1  0.53682317  0.87661450  0.06952465  1.0
  Ni  Ni168  1  0.87015650  0.20994783  0.06952465  1.0
  Ni  Ni169  1  0.87015650  0.54328117  0.06952465  1.0
  Ni  Ni170  1  0.87015650  0.87661450  0.06952465  1.0
  Ni  Ni171  1  0.03682317  0.04328117  0.02785798  1.0
  Ni  Ni172  1  0.03682317  0.37661450  0.02785798  1.0
  Ni  Ni173  1  0.03682317  0.70994783  0.02785798  1.0
  Ni  Ni174  1  0.37015650  0.04328117  0.02785798  1.0
  Ni  Ni175  1  0.37015650  0.37661450  0.02785798  1.0
  Ni  Ni176  1  0.37015650  0.70994783  0.02785798  1.0
  Ni  Ni177  1  0.70348983  0.04328117  0.02785798  1.0
  Ni  Ni178  1  0.70348983  0.37661450  0.02785798  1.0
  Ni  Ni179  1  0.70348983  0.70994783  0.02785798  1.0
  Ni  Ni180  1  0.29651017  0.29005217  0.04626956  1.0
  Ni  Ni181  1  0.29651017  0.62338550  0.04626956  1.0
  Ni  Ni182  1  0.29651017  0.95671883  0.04626956  1.0
  Ni  Ni183  1  0.62984350  0.29005217  0.04626956  1.0
  Ni  Ni184  1  0.62984350  0.62338550  0.04626956  1.0
  Ni  Ni185  1  0.62984350  0.95671883  0.04626956  1.0
  Ni  Ni186  1  0.96317683  0.29005217  0.04626956  1.0
  Ni  Ni187  1  0.96317683  0.62338550  0.04626956  1.0
  Ni  Ni188  1  0.96317683  0.95671883  0.04626956  1.0
  Ni  Ni189  1  0.12984350  0.12338550  0.00460290  1.0
  Ni  Ni190  1  0.12984350  0.45671883  0.00460290  1.0
  Ni  Ni191  1  0.12984350  0.79005217  0.00460290  1.0
  Ni  Ni192  1  0.46317683  0.12338550  0.00460290  1.0
  Ni  Ni193  1  0.46317683  0.45671883  0.00460290  1.0
  Ni  Ni194  1  0.46317683  0.79005217  0.00460290  1.0
  Ni  Ni195  1  0.79651017  0.12338550  0.00460290  1.0
  Ni  Ni196  1  0.79651017  0.45671883  0.00460290  1.0
  Ni  Ni197  1  0.79651017  0.79005217  0.00460290  1.0
  Ni  Ni198  1  0.03682317  0.20994783  0.06952465  1.0
  Ni  Ni199  1  0.03682317  0.54328117  0.06952465  1.0
  Ni  Ni200  1  0.03682317  0.87661450  0.06952465  1.0
  Ni  Ni201  1  0.37015650  0.20994783  0.06952465  1.0
  Ni  Ni202  1  0.37015650  0.54328117  0.06952465  1.0
  Ni  Ni203  1  0.37015650  0.87661450  0.06952465  1.0
  Ni  Ni204  1  0.70348983  0.20994783  0.06952465  1.0
  Ni  Ni205  1  0.70348983  0.54328117  0.06952465  1.0
  Ni  Ni206  1  0.70348983  0.87661450  0.06952465  1.0
  Ni  Ni207  1  0.20348983  0.04328117  0.02785798  1.0
  Ni  Ni208  1  0.20348983  0.37661450  0.02785798  1.0
  Ni  Ni209  1  0.20348983  0.70994783  0.02785798  1.0
  Ni  Ni210  1  0.53682317  0.04328117  0.02785798  1.0
  Ni  Ni211  1  0.53682317  0.37661450  0.02785798  1.0
  Ni  Ni212  1  0.53682317  0.70994783  0.02785798  1.0
  Ni  Ni213  1  0.87015650  0.04328117  0.02785798  1.0
  Ni  Ni214  1  0.87015650  0.37661450  0.02785798  1.0
  Ni  Ni215  1  0.87015650  0.70994783  0.02785798  1.0
  Ca  Ca216  1  0.12829750  0.28836917  0.08667398  1.0
  Ca  Ca217  1  0.12829750  0.62170250  0.08667398  1.0
  Ca  Ca218  1  0.12829750  0.95503583  0.08667398  1.0
  Ca  Ca219  1  0.46163083  0.28836917  0.08667398  1.0
  Ca  Ca220  1  0.46163083  0.62170250  0.08667398  1.0
  Ca  Ca221  1  0.46163083  0.95503583  0.08667398  1.0
  Ca  Ca222  1  0.79496417  0.28836917  0.08667398  1.0
  Ca  Ca223  1  0.79496417  0.62170250  0.08667398  1.0
  Ca  Ca224  1  0.79496417  0.95503583  0.08667398  1.0
  Ca  Ca225  1  0.29496417  0.12170250  0.12834065  1.0
  Ca  Ca226  1  0.29496417  0.45503583  0.12834065  1.0
  Ca  Ca227  1  0.29496417  0.78836917  0.12834065  1.0
  Ca  Ca228  1  0.62829750  0.12170250  0.12834065  1.0
  Ca  Ca229  1  0.62829750  0.45503583  0.12834065  1.0
  Ca  Ca230  1  0.62829750  0.78836917  0.12834065  1.0
  Ca  Ca231  1  0.96163083  0.12170250  0.12834065  1.0
  Ca  Ca232  1  0.96163083  0.45503583  0.12834065  1.0
  Ca  Ca233  1  0.96163083  0.78836917  0.12834065  1.0
  Ca  Ca234  1  0.03836917  0.21163083  0.11245356  1.0
  Ca  Ca235  1  0.03836917  0.54496417  0.11245356  1.0
  Ca  Ca236  1  0.03836917  0.87829750  0.11245356  1.0
  Ca  Ca237  1  0.37170250  0.21163083  0.11245356  1.0
  Ca  Ca238  1  0.37170250  0.54496417  0.11245356  1.0
  Ca  Ca239  1  0.37170250  0.87829750  0.11245356  1.0
  Ca  Ca240  1  0.70503583  0.21163083  0.11245356  1.0
  Ca  Ca241  1  0.70503583  0.54496417  0.11245356  1.0
  Ca  Ca242  1  0.70503583  0.87829750  0.11245356  1.0
  Ca  Ca243  1  0.20503583  0.04496417  0.15412023  1.0
  Ca  Ca244  1  0.20503583  0.37829750  0.15412023  1.0
  Ca  Ca245  1  0.20503583  0.71163083  0.15412023  1.0
  Ca  Ca246  1  0.53836917  0.04496417  0.15412023  1.0
  Ca  Ca247  1  0.53836917  0.37829750  0.15412023  1.0
  Ca  Ca248  1  0.53836917  0.71163083  0.15412023  1.0
  Ca  Ca249  1  0.87170250  0.04496417  0.15412023  1.0
  Ca  Ca250  1  0.87170250  0.37829750  0.15412023  1.0
  Ca  Ca251  1  0.87170250  0.71163083  0.15412023  1.0
  Ni  Ni252  1  0.00905183  0.29656683  0.14834623  1.0
  Ni  Ni253  1  0.00905183  0.62990017  0.14834623  1.0
  Ni  Ni254  1  0.00905183  0.96323350  0.14834623  1.0
  Ni  Ni255  1  0.34238517  0.29656683  0.14834623  1.0
  Ni  Ni256  1  0.34238517  0.62990017  0.14834623  1.0
  Ni  Ni257  1  0.34238517  0.96323350  0.14834623  1.0
  Ni  Ni258  1  0.67571850  0.29656683  0.14834623  1.0
  Ni  Ni259  1  0.67571850  0.62990017  0.14834623  1.0
  Ni  Ni260  1  0.67571850  0.96323350  0.14834623  1.0
  Ni  Ni261  1  0.17571850  0.12990017  0.10667956  1.0
  Ni  Ni262  1  0.17571850  0.46323350  0.10667956  1.0
  Ni  Ni263  1  0.17571850  0.79656683  0.10667956  1.0
  Ni  Ni264  1  0.50905183  0.12990017  0.10667956  1.0
  Ni  Ni265  1  0.50905183  0.46323350  0.10667956  1.0
  Ni  Ni266  1  0.50905183  0.79656683  0.10667956  1.0
  Ni  Ni267  1  0.84238517  0.12990017  0.10667956  1.0
  Ni  Ni268  1  0.84238517  0.46323350  0.10667956  1.0
  Ni  Ni269  1  0.84238517  0.79656683  0.10667956  1.0
  Ni  Ni270  1  0.23114783  0.29656683  0.12063156  1.0
  Ni  Ni271  1  0.23114783  0.62990017  0.12063156  1.0
  Ni  Ni272  1  0.23114783  0.96323350  0.12063156  1.0
  Ni  Ni273  1  0.56448117  0.29656683  0.12063156  1.0
  Ni  Ni274  1  0.56448117  0.62990017  0.12063156  1.0
  Ni  Ni275  1  0.56448117  0.96323350  0.12063156  1.0
  Ni  Ni276  1  0.89781450  0.29656683  0.12063156  1.0
  Ni  Ni277  1  0.89781450  0.62990017  0.12063156  1.0
  Ni  Ni278  1  0.89781450  0.96323350  0.12063156  1.0
  Ni  Ni279  1  0.06448117  0.12990017  0.16229823  1.0
  Ni  Ni280  1  0.06448117  0.46323350  0.16229823  1.0
  Ni  Ni281  1  0.06448117  0.79656683  0.16229823  1.0
  Ni  Ni282  1  0.39781450  0.12990017  0.16229823  1.0
  Ni  Ni283  1  0.39781450  0.46323350  0.16229823  1.0
  Ni  Ni284  1  0.39781450  0.79656683  0.16229823  1.0
  Ni  Ni285  1  0.73114783  0.12990017  0.16229823  1.0
  Ni  Ni286  1  0.73114783  0.46323350  0.16229823  1.0
  Ni  Ni287  1  0.73114783  0.79656683  0.16229823  1.0
  Ni  Ni288  1  0.26885217  0.20343317  0.16182931  1.0
  Ni  Ni289  1  0.26885217  0.53676650  0.16182931  1.0
  Ni  Ni290  1  0.26885217  0.87009983  0.16182931  1.0
  Ni  Ni291  1  0.60218550  0.20343317  0.16182931  1.0
  Ni  Ni292  1  0.60218550  0.53676650  0.16182931  1.0
  Ni  Ni293  1  0.60218550  0.87009983  0.16182931  1.0
  Ni  Ni294  1  0.93551883  0.20343317  0.16182931  1.0
  Ni  Ni295  1  0.93551883  0.53676650  0.16182931  1.0
  Ni  Ni296  1  0.93551883  0.87009983  0.16182931  1.0
  Ni  Ni297  1  0.10218550  0.03676650  0.12016265  1.0
  Ni  Ni298  1  0.10218550  0.37009983  0.12016265  1.0
  Ni  Ni299  1  0.10218550  0.70343317  0.12016265  1.0
  Ni  Ni300  1  0.43551883  0.03676650  0.12016265  1.0
  Ni  Ni301  1  0.43551883  0.37009983  0.12016265  1.0
  Ni  Ni302  1  0.43551883  0.70343317  0.12016265  1.0
  Ni  Ni303  1  0.76885217  0.03676650  0.12016265  1.0
  Ni  Ni304  1  0.76885217  0.37009983  0.12016265  1.0
  Ni  Ni305  1  0.76885217  0.70343317  0.12016265  1.0
  Ni  Ni306  1  0.15761483  0.20343317  0.13411465  1.0
  Ni  Ni307  1  0.15761483  0.53676650  0.13411465  1.0
  Ni  Ni308  1  0.15761483  0.87009983  0.13411465  1.0
  Ni  Ni309  1  0.49094817  0.20343317  0.13411465  1.0
  Ni  Ni310  1  0.49094817  0.53676650  0.13411465  1.0
  Ni  Ni311  1  0.49094817  0.87009983  0.13411465  1.0
  Ni  Ni312  1  0.82428150  0.20343317  0.13411465  1.0
  Ni  Ni313  1  0.82428150  0.53676650  0.13411465  1.0
  Ni  Ni314  1  0.82428150  0.87009983  0.13411465  1.0
  Ni  Ni315  1  0.32428150  0.03676650  0.09244798  1.0
  Ni  Ni316  1  0.32428150  0.37009983  0.09244798  1.0
  Ni  Ni317  1  0.32428150  0.70343317  0.09244798  1.0
  Ni  Ni318  1  0.65761483  0.03676650  0.09244798  1.0
  Ni  Ni319  1  0.65761483  0.37009983  0.09244798  1.0
  Ni  Ni320  1  0.65761483  0.70343317  0.09244798  1.0
  Ni  Ni321  1  0.99094817  0.03676650  0.09244798  1.0
  Ni  Ni322  1  0.99094817  0.37009983  0.09244798  1.0
  Ni  Ni323  1  0.99094817  0.70343317  0.09244798  1.0
  Ni  Ni324  1  0.08333333  0.25000000  0.14123044  1.0
  Ni  Ni325  1  0.08333333  0.58333333  0.14123044  1.0
  Ni  Ni326  1  0.08333333  0.91666667  0.14123044  1.0
  Ni  Ni327  1  0.41666667  0.25000000  0.14123044  1.0
  Ni  Ni328  1  0.41666667  0.58333333  0.14123044  1.0
  Ni  Ni329  1  0.41666667  0.91666667  0.14123044  1.0
  Ni  Ni330  1  0.75000000  0.25000000  0.14123044  1.0
  Ni  Ni331  1  0.75000000  0.58333333  0.14123044  1.0
  Ni  Ni332  1  0.75000000  0.91666667  0.14123044  1.0
  Ni  Ni333  1  0.25000000  0.08333333  0.09956377  1.0
  Ni  Ni334  1  0.25000000  0.41666667  0.09956377  1.0
  Ni  Ni335  1  0.25000000  0.75000000  0.09956377  1.0
  Ni  Ni336  1  0.58333333  0.08333333  0.09956377  1.0
  Ni  Ni337  1  0.58333333  0.41666667  0.09956377  1.0
  Ni  Ni338  1  0.58333333  0.75000000  0.09956377  1.0
  Ni  Ni339  1  0.91666667  0.08333333  0.09956377  1.0
  Ni  Ni340  1  0.91666667  0.41666667  0.09956377  1.0
  Ni  Ni341  1  0.91666667  0.75000000  0.09956377  1.0
  Ni  Ni342  1  0.33333333  0.16666667  0.16206377  1.0
  Ni  Ni343  1  0.33333333  0.50000000  0.16206377  1.0
  Ni  Ni344  1  0.33333333  0.83333333  0.16206377  1.0
  Ni  Ni345  1  0.66666667  0.16666667  0.16206377  1.0
  Ni  Ni346  1  0.66666667  0.50000000  0.16206377  1.0
  Ni  Ni347  1  0.66666667  0.83333333  0.16206377  1.0
  Ni  Ni348  1  1.00000000  0.16666667  0.16206377  1.0
  Ni  Ni349  1  0.00000000  0.50000000  0.16206377  1.0
  Ni  Ni350  1  1.00000000  0.83333333  0.16206377  1.0
  Ni  Ni351  1  0.16666667  0.00000000  0.12039710  1.0
  Ni  Ni352  1  0.16666667  0.33333333  0.12039710  1.0
  Ni  Ni353  1  0.16666667  0.66666667  0.12039710  1.0
  Ni  Ni354  1  0.50000000  0.00000000  0.12039710  1.0
  Ni  Ni355  1  0.50000000  0.33333333  0.12039710  1.0
  Ni  Ni356  1  0.50000000  0.66666667  0.12039710  1.0
  Ni  Ni357  1  0.83333333  0.00000000  0.12039710  1.0
  Ni  Ni358  1  0.83333333  0.33333333  0.12039710  1.0
  Ni  Ni359  1  0.83333333  0.66666667  0.12039710  1.0
  Ni  Ni360  1  0.12984350  0.29005217  0.12960290  1.0
  Ni  Ni361  1  0.12984350  0.62338550  0.12960290  1.0
  Ni  Ni362  1  0.12984350  0.95671883  0.12960290  1.0
  Ni  Ni363  1  0.46317683  0.29005217  0.12960290  1.0
  Ni  Ni364  1  0.46317683  0.62338550  0.12960290  1.0
  Ni  Ni365  1  0.46317683  0.95671883  0.12960290  1.0
  Ni  Ni366  1  0.79651017  0.29005217  0.12960290  1.0
  Ni  Ni367  1  0.79651017  0.62338550  0.12960290  1.0
  Ni  Ni368  1  0.79651017  0.95671883  0.12960290  1.0
  Ni  Ni369  1  0.29651017  0.12338550  0.08793623  1.0
  Ni  Ni370  1  0.29651017  0.45671883  0.08793623  1.0
  Ni  Ni371  1  0.29651017  0.79005217  0.08793623  1.0
  Ni  Ni372  1  0.62984350  0.12338550  0.08793623  1.0
  Ni  Ni373  1  0.62984350  0.45671883  0.08793623  1.0
  Ni  Ni374  1  0.62984350  0.79005217  0.08793623  1.0
  Ni  Ni375  1  0.96317683  0.12338550  0.08793623  1.0
  Ni  Ni376  1  0.96317683  0.45671883  0.08793623  1.0
  Ni  Ni377  1  0.96317683  0.79005217  0.08793623  1.0
  Ni  Ni378  1  0.20348983  0.20994783  0.15285798  1.0
  Ni  Ni379  1  0.20348983  0.54328117  0.15285798  1.0
  Ni  Ni380  1  0.20348983  0.87661450  0.15285798  1.0
  Ni  Ni381  1  0.53682317  0.20994783  0.15285798  1.0
  Ni  Ni382  1  0.53682317  0.54328117  0.15285798  1.0
  Ni  Ni383  1  0.53682317  0.87661450  0.15285798  1.0
  Ni  Ni384  1  0.87015650  0.20994783  0.15285798  1.0
  Ni  Ni385  1  0.87015650  0.54328117  0.15285798  1.0
  Ni  Ni386  1  0.87015650  0.87661450  0.15285798  1.0
  Ni  Ni387  1  0.03682317  0.04328117  0.11119131  1.0
  Ni  Ni388  1  0.03682317  0.37661450  0.11119131  1.0
  Ni  Ni389  1  0.03682317  0.70994783  0.11119131  1.0
  Ni  Ni390  1  0.37015650  0.04328117  0.11119131  1.0
  Ni  Ni391  1  0.37015650  0.37661450  0.11119131  1.0
  Ni  Ni392  1  0.37015650  0.70994783  0.11119131  1.0
  Ni  Ni393  1  0.70348983  0.04328117  0.11119131  1.0
  Ni  Ni394  1  0.70348983  0.37661450  0.11119131  1.0
  Ni  Ni395  1  0.70348983  0.70994783  0.11119131  1.0
  Ni  Ni396  1  0.29651017  0.29005217  0.12960290  1.0
  Ni  Ni397  1  0.29651017  0.62338550  0.12960290  1.0
  Ni  Ni398  1  0.29651017  0.95671883  0.12960290  1.0
  Ni  Ni399  1  0.62984350  0.29005217  0.12960290  1.0
  Ni  Ni400  1  0.62984350  0.62338550  0.12960290  1.0
  Ni  Ni401  1  0.62984350  0.95671883  0.12960290  1.0
  Ni  Ni402  1  0.96317683  0.29005217  0.12960290  1.0
  Ni  Ni403  1  0.96317683  0.62338550  0.12960290  1.0
  Ni  Ni404  1  0.96317683  0.95671883  0.12960290  1.0
  Ni  Ni405  1  0.12984350  0.12338550  0.08793623  1.0
  Ni  Ni406  1  0.12984350  0.45671883  0.08793623  1.0
  Ni  Ni407  1  0.12984350  0.79005217  0.08793623  1.0
  Ni  Ni408  1  0.46317683  0.12338550  0.08793623  1.0
  Ni  Ni409  1  0.46317683  0.45671883  0.08793623  1.0
  Ni  Ni410  1  0.46317683  0.79005217  0.08793623  1.0
  Ni  Ni411  1  0.79651017  0.12338550  0.08793623  1.0
  Ni  Ni412  1  0.79651017  0.45671883  0.08793623  1.0
  Ni  Ni413  1  0.79651017  0.79005217  0.08793623  1.0
  Ni  Ni414  1  0.03682317  0.20994783  0.15285798  1.0
  Ni  Ni415  1  0.03682317  0.54328117  0.15285798  1.0
  Ni  Ni416  1  0.03682317  0.87661450  0.15285798  1.0
  Ni  Ni417  1  0.37015650  0.20994783  0.15285798  1.0
  Ni  Ni418  1  0.37015650  0.54328117  0.15285798  1.0
  Ni  Ni419  1  0.37015650  0.87661450  0.15285798  1.0
  Ni  Ni420  1  0.70348983  0.20994783  0.15285798  1.0
  Ni  Ni421  1  0.70348983  0.54328117  0.15285798  1.0
  Ni  Ni422  1  0.70348983  0.87661450  0.15285798  1.0
  Ni  Ni423  1  0.20348983  0.04328117  0.11119131  1.0
  Ni  Ni424  1  0.20348983  0.37661450  0.11119131  1.0
  Ni  Ni425  1  0.20348983  0.70994783  0.11119131  1.0
  Ni  Ni426  1  0.53682317  0.04328117  0.11119131  1.0
  Ni  Ni427  1  0.53682317  0.37661450  0.11119131  1.0
  Ni  Ni428  1  0.53682317  0.70994783  0.11119131  1.0
  Ni  Ni429  1  0.87015650  0.04328117  0.11119131  1.0
  Ni  Ni430  1  0.87015650  0.37661450  0.11119131  1.0
  Ni  Ni431  1  0.87015650  0.70994783  0.11119131  1.0
  Ca  Ca432  1  0.12829750  0.28836917  0.17000731  1.0
  Ca  Ca433  1  0.12829750  0.62170250  0.17000731  1.0
  Ca  Ca434  1  0.12829750  0.95503583  0.17000731  1.0
  Ca  Ca435  1  0.46163083  0.28836917  0.17000731  1.0
  Ca  Ca436  1  0.46163083  0.62170250  0.17000731  1.0
  Ca  Ca437  1  0.46163083  0.95503583  0.17000731  1.0
  Ca  Ca438  1  0.79496417  0.28836917  0.17000731  1.0
  Ca  Ca439  1  0.79496417  0.62170250  0.17000731  1.0
  Ca  Ca440  1  0.79496417  0.95503583  0.17000731  1.0
  Ca  Ca441  1  0.29496417  0.12170250  0.21167398  1.0
  Ca  Ca442  1  0.29496417  0.45503583  0.21167398  1.0
  Ca  Ca443  1  0.29496417  0.78836917  0.21167398  1.0
  Ca  Ca444  1  0.62829750  0.12170250  0.21167398  1.0
  Ca  Ca445  1  0.62829750  0.45503583  0.21167398  1.0
  Ca  Ca446  1  0.62829750  0.78836917  0.21167398  1.0
  Ca  Ca447  1  0.96163083  0.12170250  0.21167398  1.0
  Ca  Ca448  1  0.96163083  0.45503583  0.21167398  1.0
  Ca  Ca449  1  0.96163083  0.78836917  0.21167398  1.0
  Ca  Ca450  1  0.03836917  0.21163083  0.19578690  1.0
  Ca  Ca451  1  0.03836917  0.54496417  0.19578690  1.0
  Ca  Ca452  1  0.03836917  0.87829750  0.19578690  1.0
  Ca  Ca453  1  0.37170250  0.21163083  0.19578690  1.0
  Ca  Ca454  1  0.37170250  0.54496417  0.19578690  1.0
  Ca  Ca455  1  0.37170250  0.87829750  0.19578690  1.0
  Ca  Ca456  1  0.70503583  0.21163083  0.19578690  1.0
  Ca  Ca457  1  0.70503583  0.54496417  0.19578690  1.0
  Ca  Ca458  1  0.70503583  0.87829750  0.19578690  1.0
  Ca  Ca459  1  0.20503583  0.04496417  0.23745356  1.0
  Ca  Ca460  1  0.20503583  0.37829750  0.23745356  1.0
  Ca  Ca461  1  0.20503583  0.71163083  0.23745356  1.0
  Ca  Ca462  1  0.53836917  0.04496417  0.23745356  1.0
  Ca  Ca463  1  0.53836917  0.37829750  0.23745356  1.0
  Ca  Ca464  1  0.53836917  0.71163083  0.23745356  1.0
  Ca  Ca465  1  0.87170250  0.04496417  0.23745356  1.0
  Ca  Ca466  1  0.87170250  0.37829750  0.23745356  1.0
  Ca  Ca467  1  0.87170250  0.71163083  0.23745356  1.0
  Ni  Ni468  1  0.00905183  0.29656683  0.23167956  1.0
  Ni  Ni469  1  0.00905183  0.62990017  0.23167956  1.0
  Ni  Ni470  1  0.00905183  0.96323350  0.23167956  1.0
  Ni  Ni471  1  0.34238517  0.29656683  0.23167956  1.0
  Ni  Ni472  1  0.34238517  0.62990017  0.23167956  1.0
  Ni  Ni473  1  0.34238517  0.96323350  0.23167956  1.0
  Ni  Ni474  1  0.67571850  0.29656683  0.23167956  1.0
  Ni  Ni475  1  0.67571850  0.62990017  0.23167956  1.0
  Ni  Ni476  1  0.67571850  0.96323350  0.23167956  1.0
  Ni  Ni477  1  0.17571850  0.12990017  0.19001290  1.0
  Ni  Ni478  1  0.17571850  0.46323350  0.19001290  1.0
  Ni  Ni479  1  0.17571850  0.79656683  0.19001290  1.0
  Ni  Ni480  1  0.50905183  0.12990017  0.19001290  1.0
  Ni  Ni481  1  0.50905183  0.46323350  0.19001290  1.0
  Ni  Ni482  1  0.50905183  0.79656683  0.19001290  1.0
  Ni  Ni483  1  0.84238517  0.12990017  0.19001290  1.0
  Ni  Ni484  1  0.84238517  0.46323350  0.19001290  1.0
  Ni  Ni485  1  0.84238517  0.79656683  0.19001290  1.0
  Ni  Ni486  1  0.23114783  0.29656683  0.20396490  1.0
  Ni  Ni487  1  0.23114783  0.62990017  0.20396490  1.0
  Ni  Ni488  1  0.23114783  0.96323350  0.20396490  1.0
  Ni  Ni489  1  0.56448117  0.29656683  0.20396490  1.0
  Ni  Ni490  1  0.56448117  0.62990017  0.20396490  1.0
  Ni  Ni491  1  0.56448117  0.96323350  0.20396490  1.0
  Ni  Ni492  1  0.89781450  0.29656683  0.20396490  1.0
  Ni  Ni493  1  0.89781450  0.62990017  0.20396490  1.0
  Ni  Ni494  1  0.89781450  0.96323350  0.20396490  1.0
  Ni  Ni495  1  0.06448117  0.12990017  0.24563156  1.0
  Ni  Ni496  1  0.06448117  0.46323350  0.24563156  1.0
  Ni  Ni497  1  0.06448117  0.79656683  0.24563156  1.0
  Ni  Ni498  1  0.39781450  0.12990017  0.24563156  1.0
  Ni  Ni499  1  0.39781450  0.46323350  0.24563156  1.0
  Ni  Ni500  1  0.39781450  0.79656683  0.24563156  1.0
  Ni  Ni501  1  0.73114783  0.12990017  0.24563156  1.0
  Ni  Ni502  1  0.73114783  0.46323350  0.24563156  1.0
  Ni  Ni503  1  0.73114783  0.79656683  0.24563156  1.0
  Ni  Ni504  1  0.26885217  0.20343317  0.24516265  1.0
  Ni  Ni505  1  0.26885217  0.53676650  0.24516265  1.0
  Ni  Ni506  1  0.26885217  0.87009983  0.24516265  1.0
  Ni  Ni507  1  0.60218550  0.20343317  0.24516265  1.0
  Ni  Ni508  1  0.60218550  0.53676650  0.24516265  1.0
  Ni  Ni509  1  0.60218550  0.87009983  0.24516265  1.0
  Ni  Ni510  1  0.93551883  0.20343317  0.24516265  1.0
  Ni  Ni511  1  0.93551883  0.53676650  0.24516265  1.0
  Ni  Ni512  1  0.93551883  0.87009983  0.24516265  1.0
  Ni  Ni513  1  0.10218550  0.03676650  0.20349598  1.0
  Ni  Ni514  1  0.10218550  0.37009983  0.20349598  1.0
  Ni  Ni515  1  0.10218550  0.70343317  0.20349598  1.0
  Ni  Ni516  1  0.43551883  0.03676650  0.20349598  1.0
  Ni  Ni517  1  0.43551883  0.37009983  0.20349598  1.0
  Ni  Ni518  1  0.43551883  0.70343317  0.20349598  1.0
  Ni  Ni519  1  0.76885217  0.03676650  0.20349598  1.0
  Ni  Ni520  1  0.76885217  0.37009983  0.20349598  1.0
  Ni  Ni521  1  0.76885217  0.70343317  0.20349598  1.0
  Ni  Ni522  1  0.15761483  0.20343317  0.21744798  1.0
  Ni  Ni523  1  0.15761483  0.53676650  0.21744798  1.0
  Ni  Ni524  1  0.15761483  0.87009983  0.21744798  1.0
  Ni  Ni525  1  0.49094817  0.20343317  0.21744798  1.0
  Ni  Ni526  1  0.49094817  0.53676650  0.21744798  1.0
  Ni  Ni527  1  0.49094817  0.87009983  0.21744798  1.0
  Ni  Ni528  1  0.82428150  0.20343317  0.21744798  1.0
  Ni  Ni529  1  0.82428150  0.53676650  0.21744798  1.0
  Ni  Ni530  1  0.82428150  0.87009983  0.21744798  1.0
  Ni  Ni531  1  0.32428150  0.03676650  0.17578131  1.0
  Ni  Ni532  1  0.32428150  0.37009983  0.17578131  1.0
  Ni  Ni533  1  0.32428150  0.70343317  0.17578131  1.0
  Ni  Ni534  1  0.65761483  0.03676650  0.17578131  1.0
  Ni  Ni535  1  0.65761483  0.37009983  0.17578131  1.0
  Ni  Ni536  1  0.65761483  0.70343317  0.17578131  1.0
  Ni  Ni537  1  0.99094817  0.03676650  0.17578131  1.0
  Ni  Ni538  1  0.99094817  0.37009983  0.17578131  1.0
  Ni  Ni539  1  0.99094817  0.70343317  0.17578131  1.0
  Ni  Ni540  1  0.08333333  0.25000000  0.22456377  1.0
  Ni  Ni541  1  0.08333333  0.58333333  0.22456377  1.0
  Ni  Ni542  1  0.08333333  0.91666667  0.22456377  1.0
  Ni  Ni543  1  0.41666667  0.25000000  0.22456377  1.0
  Ni  Ni544  1  0.41666667  0.58333333  0.22456377  1.0
  Ni  Ni545  1  0.41666667  0.91666667  0.22456377  1.0
  Ni  Ni546  1  0.75000000  0.25000000  0.22456377  1.0
  Ni  Ni547  1  0.75000000  0.58333333  0.22456377  1.0
  Ni  Ni548  1  0.75000000  0.91666667  0.22456377  1.0
  Ni  Ni549  1  0.25000000  0.08333333  0.18289710  1.0
  Ni  Ni550  1  0.25000000  0.41666667  0.18289710  1.0
  Ni  Ni551  1  0.25000000  0.75000000  0.18289710  1.0
  Ni  Ni552  1  0.58333333  0.08333333  0.18289710  1.0
  Ni  Ni553  1  0.58333333  0.41666667  0.18289710  1.0
  Ni  Ni554  1  0.58333333  0.75000000  0.18289710  1.0
  Ni  Ni555  1  0.91666667  0.08333333  0.18289710  1.0
  Ni  Ni556  1  0.91666667  0.41666667  0.18289710  1.0
  Ni  Ni557  1  0.91666667  0.75000000  0.18289710  1.0
  Ni  Ni558  1  0.33333333  0.16666667  0.24539710  1.0
  Ni  Ni559  1  0.33333333  0.50000000  0.24539710  1.0
  Ni  Ni560  1  0.33333333  0.83333333  0.24539710  1.0
  Ni  Ni561  1  0.66666667  0.16666667  0.24539710  1.0
  Ni  Ni562  1  0.66666667  0.50000000  0.24539710  1.0
  Ni  Ni563  1  0.66666667  0.83333333  0.24539710  1.0
  Ni  Ni564  1  1.00000000  0.16666667  0.24539710  1.0
  Ni  Ni565  1  0.00000000  0.50000000  0.24539710  1.0
  Ni  Ni566  1  1.00000000  0.83333333  0.24539710  1.0
  Ni  Ni567  1  0.16666667  0.00000000  0.20373044  1.0
  Ni  Ni568  1  0.16666667  0.33333333  0.20373044  1.0
  Ni  Ni569  1  0.16666667  0.66666667  0.20373044  1.0
  Ni  Ni570  1  0.50000000  0.00000000  0.20373044  1.0
  Ni  Ni571  1  0.50000000  0.33333333  0.20373044  1.0
  Ni  Ni572  1  0.50000000  0.66666667  0.20373044  1.0
  Ni  Ni573  1  0.83333333  0.00000000  0.20373044  1.0
  Ni  Ni574  1  0.83333333  0.33333333  0.20373044  1.0
  Ni  Ni575  1  0.83333333  0.66666667  0.20373044  1.0
  Ni  Ni576  1  0.12984350  0.29005217  0.21293623  1.0
  Ni  Ni577  1  0.12984350  0.62338550  0.21293623  1.0
  Ni  Ni578  1  0.12984350  0.95671883  0.21293623  1.0
  Ni  Ni579  1  0.46317683  0.29005217  0.21293623  1.0
  Ni  Ni580  1  0.46317683  0.62338550  0.21293623  1.0
  Ni  Ni581  1  0.46317683  0.95671883  0.21293623  1.0
  Ni  Ni582  1  0.79651017  0.29005217  0.21293623  1.0
  Ni  Ni583  1  0.79651017  0.62338550  0.21293623  1.0
  Ni  Ni584  1  0.79651017  0.95671883  0.21293623  1.0
  Ni  Ni585  1  0.29651017  0.12338550  0.17126956  1.0
  Ni  Ni586  1  0.29651017  0.45671883  0.17126956  1.0
  Ni  Ni587  1  0.29651017  0.79005217  0.17126956  1.0
  Ni  Ni588  1  0.62984350  0.12338550  0.17126956  1.0
  Ni  Ni589  1  0.62984350  0.45671883  0.17126956  1.0
  Ni  Ni590  1  0.62984350  0.79005217  0.17126956  1.0
  Ni  Ni591  1  0.96317683  0.12338550  0.17126956  1.0
  Ni  Ni592  1  0.96317683  0.45671883  0.17126956  1.0
  Ni  Ni593  1  0.96317683  0.79005217  0.17126956  1.0
  Ni  Ni594  1  0.20348983  0.20994783  0.23619131  1.0
  Ni  Ni595  1  0.20348983  0.54328117  0.23619131  1.0
  Ni  Ni596  1  0.20348983  0.87661450  0.23619131  1.0
  Ni  Ni597  1  0.53682317  0.20994783  0.23619131  1.0
  Ni  Ni598  1  0.53682317  0.54328117  0.23619131  1.0
  Ni  Ni599  1  0.53682317  0.87661450  0.23619131  1.0
  Ni  Ni600  1  0.87015650  0.20994783  0.23619131  1.0
  Ni  Ni601  1  0.87015650  0.54328117  0.23619131  1.0
  Ni  Ni602  1  0.87015650  0.87661450  0.23619131  1.0
  Ni  Ni603  1  0.03682317  0.04328117  0.19452465  1.0
  Ni  Ni604  1  0.03682317  0.37661450  0.19452465  1.0
  Ni  Ni605  1  0.03682317  0.70994783  0.19452465  1.0
  Ni  Ni606  1  0.37015650  0.04328117  0.19452465  1.0
  Ni  Ni607  1  0.37015650  0.37661450  0.19452465  1.0
  Ni  Ni608  1  0.37015650  0.70994783  0.19452465  1.0
  Ni  Ni609  1  0.70348983  0.04328117  0.19452465  1.0
  Ni  Ni610  1  0.70348983  0.37661450  0.19452465  1.0
  Ni  Ni611  1  0.70348983  0.70994783  0.19452465  1.0
  Ni  Ni612  1  0.29651017  0.29005217  0.21293623  1.0
  Ni  Ni613  1  0.29651017  0.62338550  0.21293623  1.0
  Ni  Ni614  1  0.29651017  0.95671883  0.21293623  1.0
  Ni  Ni615  1  0.62984350  0.29005217  0.21293623  1.0
  Ni  Ni616  1  0.62984350  0.62338550  0.21293623  1.0
  Ni  Ni617  1  0.62984350  0.95671883  0.21293623  1.0
  Ni  Ni618  1  0.96317683  0.29005217  0.21293623  1.0
  Ni  Ni619  1  0.96317683  0.62338550  0.21293623  1.0
  Ni  Ni620  1  0.96317683  0.95671883  0.21293623  1.0
  Ni  Ni621  1  0.12984350  0.12338550  0.17126956  1.0
  Ni  Ni622  1  0.12984350  0.45671883  0.17126956  1.0
  Ni  Ni623  1  0.12984350  0.79005217  0.17126956  1.0
  Ni  Ni624  1  0.46317683  0.12338550  0.17126956  1.0
  Ni  Ni625  1  0.46317683  0.45671883  0.17126956  1.0
  Ni  Ni626  1  0.46317683  0.79005217  0.17126956  1.0
  Ni  Ni627  1  0.79651017  0.12338550  0.17126956  1.0
  Ni  Ni628  1  0.79651017  0.45671883  0.17126956  1.0
  Ni  Ni629  1  0.79651017  0.79005217  0.17126956  1.0
  Ni  Ni630  1  0.03682317  0.20994783  0.23619131  1.0
  Ni  Ni631  1  0.03682317  0.54328117  0.23619131  1.0
  Ni  Ni632  1  0.03682317  0.87661450  0.23619131  1.0
  Ni  Ni633  1  0.37015650  0.20994783  0.23619131  1.0
  Ni  Ni634  1  0.37015650  0.54328117  0.23619131  1.0
  Ni  Ni635  1  0.37015650  0.87661450  0.23619131  1.0
  Ni  Ni636  1  0.70348983  0.20994783  0.23619131  1.0
  Ni  Ni637  1  0.70348983  0.54328117  0.23619131  1.0
  Ni  Ni638  1  0.70348983  0.87661450  0.23619131  1.0
  Ni  Ni639  1  0.20348983  0.04328117  0.19452465  1.0
  Ni  Ni640  1  0.20348983  0.37661450  0.19452465  1.0
  Ni  Ni641  1  0.20348983  0.70994783  0.19452465  1.0
  Ni  Ni642  1  0.53682317  0.04328117  0.19452465  1.0
  Ni  Ni643  1  0.53682317  0.37661450  0.19452465  1.0
  Ni  Ni644  1  0.53682317  0.70994783  0.19452465  1.0
  Ni  Ni645  1  0.87015650  0.04328117  0.19452465  1.0
  Ni  Ni646  1  0.87015650  0.37661450  0.19452465  1.0
  Ni  Ni647  1  0.87015650  0.70994783  0.19452465  1.0
  Ca  Ca648  1  0.12829750  0.28836917  0.25334065  1.0
  Ca  Ca649  1  0.12829750  0.62170250  0.25334065  1.0
  Ca  Ca650  1  0.12829750  0.95503583  0.25334065  1.0
  Ca  Ca651  1  0.46163083  0.28836917  0.25334065  1.0
  Ca  Ca652  1  0.46163083  0.62170250  0.25334065  1.0
  Ca  Ca653  1  0.46163083  0.95503583  0.25334065  1.0
  Ca  Ca654  1  0.79496417  0.28836917  0.25334065  1.0
  Ca  Ca655  1  0.79496417  0.62170250  0.25334065  1.0
  Ca  Ca656  1  0.79496417  0.95503583  0.25334065  1.0
  Ca  Ca657  1  0.29496417  0.12170250  0.29500731  1.0
  Ca  Ca658  1  0.29496417  0.45503583  0.29500731  1.0
  Ca  Ca659  1  0.29496417  0.78836917  0.29500731  1.0
  Ca  Ca660  1  0.62829750  0.12170250  0.29500731  1.0
  Ca  Ca661  1  0.62829750  0.45503583  0.29500731  1.0
  Ca  Ca662  1  0.62829750  0.78836917  0.29500731  1.0
  Ca  Ca663  1  0.96163083  0.12170250  0.29500731  1.0
  Ca  Ca664  1  0.96163083  0.45503583  0.29500731  1.0
  Ca  Ca665  1  0.96163083  0.78836917  0.29500731  1.0
  Ca  Ca666  1  0.03836917  0.21163083  0.27912023  1.0
  Ca  Ca667  1  0.03836917  0.54496417  0.27912023  1.0
  Ca  Ca668  1  0.03836917  0.87829750  0.27912023  1.0
  Ca  Ca669  1  0.37170250  0.21163083  0.27912023  1.0
  Ca  Ca670  1  0.37170250  0.54496417  0.27912023  1.0
  Ca  Ca671  1  0.37170250  0.87829750  0.27912023  1.0
  Ca  Ca672  1  0.70503583  0.21163083  0.27912023  1.0
  Ca  Ca673  1  0.70503583  0.54496417  0.27912023  1.0
  Ca  Ca674  1  0.70503583  0.87829750  0.27912023  1.0
  Ca  Ca675  1  0.20503583  0.04496417  0.32078690  1.0
  Ca  Ca676  1  0.20503583  0.37829750  0.32078690  1.0
  Ca  Ca677  1  0.20503583  0.71163083  0.32078690  1.0
  Ca  Ca678  1  0.53836917  0.04496417  0.32078690  1.0
  Ca  Ca679  1  0.53836917  0.37829750  0.32078690  1.0
  Ca  Ca680  1  0.53836917  0.71163083  0.32078690  1.0
  Ca  Ca681  1  0.87170250  0.04496417  0.32078690  1.0
  Ca  Ca682  1  0.87170250  0.37829750  0.32078690  1.0
  Ca  Ca683  1  0.87170250  0.71163083  0.32078690  1.0
  Ni  Ni684  1  0.00905183  0.29656683  0.31501290  1.0
  Ni  Ni685  1  0.00905183  0.62990017  0.31501290  1.0
  Ni  Ni686  1  0.00905183  0.96323350  0.31501290  1.0
  Ni  Ni687  1  0.34238517  0.29656683  0.31501290  1.0
  Ni  Ni688  1  0.34238517  0.62990017  0.31501290  1.0
  Ni  Ni689  1  0.34238517  0.96323350  0.31501290  1.0
  Ni  Ni690  1  0.67571850  0.29656683  0.31501290  1.0
  Ni  Ni691  1  0.67571850  0.62990017  0.31501290  1.0
  Ni  Ni692  1  0.67571850  0.96323350  0.31501290  1.0
  Ni  Ni693  1  0.17571850  0.12990017  0.27334623  1.0
  Ni  Ni694  1  0.17571850  0.46323350  0.27334623  1.0
  Ni  Ni695  1  0.17571850  0.79656683  0.27334623  1.0
  Ni  Ni696  1  0.50905183  0.12990017  0.27334623  1.0
  Ni  Ni697  1  0.50905183  0.46323350  0.27334623  1.0
  Ni  Ni698  1  0.50905183  0.79656683  0.27334623  1.0
  Ni  Ni699  1  0.84238517  0.12990017  0.27334623  1.0
  Ni  Ni700  1  0.84238517  0.46323350  0.27334623  1.0
  Ni  Ni701  1  0.84238517  0.79656683  0.27334623  1.0
  Ni  Ni702  1  0.23114783  0.29656683  0.28729823  1.0
  Ni  Ni703  1  0.23114783  0.62990017  0.28729823  1.0
  Ni  Ni704  1  0.23114783  0.96323350  0.28729823  1.0
  Ni  Ni705  1  0.56448117  0.29656683  0.28729823  1.0
  Ni  Ni706  1  0.56448117  0.62990017  0.28729823  1.0
  Ni  Ni707  1  0.56448117  0.96323350  0.28729823  1.0
  Ni  Ni708  1  0.89781450  0.29656683  0.28729823  1.0
  Ni  Ni709  1  0.89781450  0.62990017  0.28729823  1.0
  Ni  Ni710  1  0.89781450  0.96323350  0.28729823  1.0
  Ni  Ni711  1  0.06448117  0.12990017  0.32896490  1.0
  Ni  Ni712  1  0.06448117  0.46323350  0.32896490  1.0
  Ni  Ni713  1  0.06448117  0.79656683  0.32896490  1.0
  Ni  Ni714  1  0.39781450  0.12990017  0.32896490  1.0
  Ni  Ni715  1  0.39781450  0.46323350  0.32896490  1.0
  Ni  Ni716  1  0.39781450  0.79656683  0.32896490  1.0
  Ni  Ni717  1  0.73114783  0.12990017  0.32896490  1.0
  Ni  Ni718  1  0.73114783  0.46323350  0.32896490  1.0
  Ni  Ni719  1  0.73114783  0.79656683  0.32896490  1.0
  Ni  Ni720  1  0.26885217  0.20343317  0.32849598  1.0
  Ni  Ni721  1  0.26885217  0.53676650  0.32849598  1.0
  Ni  Ni722  1  0.26885217  0.87009983  0.32849598  1.0
  Ni  Ni723  1  0.60218550  0.20343317  0.32849598  1.0
  Ni  Ni724  1  0.60218550  0.53676650  0.32849598  1.0
  Ni  Ni725  1  0.60218550  0.87009983  0.32849598  1.0
  Ni  Ni726  1  0.93551883  0.20343317  0.32849598  1.0
  Ni  Ni727  1  0.93551883  0.53676650  0.32849598  1.0
  Ni  Ni728  1  0.93551883  0.87009983  0.32849598  1.0
  Ni  Ni729  1  0.10218550  0.03676650  0.28682931  1.0
  Ni  Ni730  1  0.10218550  0.37009983  0.28682931  1.0
  Ni  Ni731  1  0.10218550  0.70343317  0.28682931  1.0
  Ni  Ni732  1  0.43551883  0.03676650  0.28682931  1.0
  Ni  Ni733  1  0.43551883  0.37009983  0.28682931  1.0
  Ni  Ni734  1  0.43551883  0.70343317  0.28682931  1.0
  Ni  Ni735  1  0.76885217  0.03676650  0.28682931  1.0
  Ni  Ni736  1  0.76885217  0.37009983  0.28682931  1.0
  Ni  Ni737  1  0.76885217  0.70343317  0.28682931  1.0
  Ni  Ni738  1  0.15761483  0.20343317  0.30078131  1.0
  Ni  Ni739  1  0.15761483  0.53676650  0.30078131  1.0
  Ni  Ni740  1  0.15761483  0.87009983  0.30078131  1.0
  Ni  Ni741  1  0.49094817  0.20343317  0.30078131  1.0
  Ni  Ni742  1  0.49094817  0.53676650  0.30078131  1.0
  Ni  Ni743  1  0.49094817  0.87009983  0.30078131  1.0
  Ni  Ni744  1  0.82428150  0.20343317  0.30078131  1.0
  Ni  Ni745  1  0.82428150  0.53676650  0.30078131  1.0
  Ni  Ni746  1  0.82428150  0.87009983  0.30078131  1.0
  Ni  Ni747  1  0.32428150  0.03676650  0.25911465  1.0
  Ni  Ni748  1  0.32428150  0.37009983  0.25911465  1.0
  Ni  Ni749  1  0.32428150  0.70343317  0.25911465  1.0
  Ni  Ni750  1  0.65761483  0.03676650  0.25911465  1.0
  Ni  Ni751  1  0.65761483  0.37009983  0.25911465  1.0
  Ni  Ni752  1  0.65761483  0.70343317  0.25911465  1.0
  Ni  Ni753  1  0.99094817  0.03676650  0.25911465  1.0
  Ni  Ni754  1  0.99094817  0.37009983  0.25911465  1.0
  Ni  Ni755  1  0.99094817  0.70343317  0.25911465  1.0
  Ni  Ni756  1  0.08333333  0.25000000  0.30789710  1.0
  Ni  Ni757  1  0.08333333  0.58333333  0.30789710  1.0
  Ni  Ni758  1  0.08333333  0.91666667  0.30789710  1.0
  Ni  Ni759  1  0.41666667  0.25000000  0.30789710  1.0
  Ni  Ni760  1  0.41666667  0.58333333  0.30789710  1.0
  Ni  Ni761  1  0.41666667  0.91666667  0.30789710  1.0
  Ni  Ni762  1  0.75000000  0.25000000  0.30789710  1.0
  Ni  Ni763  1  0.75000000  0.58333333  0.30789710  1.0
  Ni  Ni764  1  0.75000000  0.91666667  0.30789710  1.0
  Ni  Ni765  1  0.25000000  0.08333333  0.26623044  1.0
  Ni  Ni766  1  0.25000000  0.41666667  0.26623044  1.0
  Ni  Ni767  1  0.25000000  0.75000000  0.26623044  1.0
  Ni  Ni768  1  0.58333333  0.08333333  0.26623044  1.0
  Ni  Ni769  1  0.58333333  0.41666667  0.26623044  1.0
  Ni  Ni770  1  0.58333333  0.75000000  0.26623044  1.0
  Ni  Ni771  1  0.91666667  0.08333333  0.26623044  1.0
  Ni  Ni772  1  0.91666667  0.41666667  0.26623044  1.0
  Ni  Ni773  1  0.91666667  0.75000000  0.26623044  1.0
  Ni  Ni774  1  0.33333333  0.16666667  0.32873044  1.0
  Ni  Ni775  1  0.33333333  0.50000000  0.32873044  1.0
  Ni  Ni776  1  0.33333333  0.83333333  0.32873044  1.0
  Ni  Ni777  1  0.66666667  0.16666667  0.32873044  1.0
  Ni  Ni778  1  0.66666667  0.50000000  0.32873044  1.0
  Ni  Ni779  1  0.66666667  0.83333333  0.32873044  1.0
  Ni  Ni780  1  1.00000000  0.16666667  0.32873044  1.0
  Ni  Ni781  1  0.00000000  0.50000000  0.32873044  1.0
  Ni  Ni782  1  1.00000000  0.83333333  0.32873044  1.0
  Ni  Ni783  1  0.16666667  0.00000000  0.28706377  1.0
  Ni  Ni784  1  0.16666667  0.33333333  0.28706377  1.0
  Ni  Ni785  1  0.16666667  0.66666667  0.28706377  1.0
  Ni  Ni786  1  0.50000000  0.00000000  0.28706377  1.0
  Ni  Ni787  1  0.50000000  0.33333333  0.28706377  1.0
  Ni  Ni788  1  0.50000000  0.66666667  0.28706377  1.0
  Ni  Ni789  1  0.83333333  0.00000000  0.28706377  1.0
  Ni  Ni790  1  0.83333333  0.33333333  0.28706377  1.0
  Ni  Ni791  1  0.83333333  0.66666667  0.28706377  1.0
  Ni  Ni792  1  0.12984350  0.29005217  0.29626956  1.0
  Ni  Ni793  1  0.12984350  0.62338550  0.29626956  1.0
  Ni  Ni794  1  0.12984350  0.95671883  0.29626956  1.0
  Ni  Ni795  1  0.46317683  0.29005217  0.29626956  1.0
  Ni  Ni796  1  0.46317683  0.62338550  0.29626956  1.0
  Ni  Ni797  1  0.46317683  0.95671883  0.29626956  1.0
  Ni  Ni798  1  0.79651017  0.29005217  0.29626956  1.0
  Ni  Ni799  1  0.79651017  0.62338550  0.29626956  1.0
  Ni  Ni800  1  0.79651017  0.95671883  0.29626956  1.0
  Ni  Ni801  1  0.29651017  0.12338550  0.25460290  1.0
  Ni  Ni802  1  0.29651017  0.45671883  0.25460290  1.0
  Ni  Ni803  1  0.29651017  0.79005217  0.25460290  1.0
  Ni  Ni804  1  0.62984350  0.12338550  0.25460290  1.0
  Ni  Ni805  1  0.62984350  0.45671883  0.25460290  1.0
  Ni  Ni806  1  0.62984350  0.79005217  0.25460290  1.0
  Ni  Ni807  1  0.96317683  0.12338550  0.25460290  1.0
  Ni  Ni808  1  0.96317683  0.45671883  0.25460290  1.0
  Ni  Ni809  1  0.96317683  0.79005217  0.25460290  1.0
  Ni  Ni810  1  0.20348983  0.20994783  0.31952465  1.0
  Ni  Ni811  1  0.20348983  0.54328117  0.31952465  1.0
  Ni  Ni812  1  0.20348983  0.87661450  0.31952465  1.0
  Ni  Ni813  1  0.53682317  0.20994783  0.31952465  1.0
  Ni  Ni814  1  0.53682317  0.54328117  0.31952465  1.0
  Ni  Ni815  1  0.53682317  0.87661450  0.31952465  1.0
  Ni  Ni816  1  0.87015650  0.20994783  0.31952465  1.0
  Ni  Ni817  1  0.87015650  0.54328117  0.31952465  1.0
  Ni  Ni818  1  0.87015650  0.87661450  0.31952465  1.0
  Ni  Ni819  1  0.03682317  0.04328117  0.27785798  1.0
  Ni  Ni820  1  0.03682317  0.37661450  0.27785798  1.0
  Ni  Ni821  1  0.03682317  0.70994783  0.27785798  1.0
  Ni  Ni822  1  0.37015650  0.04328117  0.27785798  1.0
  Ni  Ni823  1  0.37015650  0.37661450  0.27785798  1.0
  Ni  Ni824  1  0.37015650  0.70994783  0.27785798  1.0
  Ni  Ni825  1  0.70348983  0.04328117  0.27785798  1.0
  Ni  Ni826  1  0.70348983  0.37661450  0.27785798  1.0
  Ni  Ni827  1  0.70348983  0.70994783  0.27785798  1.0
  Ni  Ni828  1  0.29651017  0.29005217  0.29626956  1.0
  Ni  Ni829  1  0.29651017  0.62338550  0.29626956  1.0
  Ni  Ni830  1  0.29651017  0.95671883  0.29626956  1.0
  Ni  Ni831  1  0.62984350  0.29005217  0.29626956  1.0
  Ni  Ni832  1  0.62984350  0.62338550  0.29626956  1.0
  Ni  Ni833  1  0.62984350  0.95671883  0.29626956  1.0
  Ni  Ni834  1  0.96317683  0.29005217  0.29626956  1.0
  Ni  Ni835  1  0.96317683  0.62338550  0.29626956  1.0
  Ni  Ni836  1  0.96317683  0.95671883  0.29626956  1.0
  Ni  Ni837  1  0.12984350  0.12338550  0.25460290  1.0
  Ni  Ni838  1  0.12984350  0.45671883  0.25460290  1.0
  Ni  Ni839  1  0.12984350  0.79005217  0.25460290  1.0
  Ni  Ni840  1  0.46317683  0.12338550  0.25460290  1.0
  Ni  Ni841  1  0.46317683  0.45671883  0.25460290  1.0
  Ni  Ni842  1  0.46317683  0.79005217  0.25460290  1.0
  Ni  Ni843  1  0.79651017  0.12338550  0.25460290  1.0
  Ni  Ni844  1  0.79651017  0.45671883  0.25460290  1.0
  Ni  Ni845  1  0.79651017  0.79005217  0.25460290  1.0
  Ni  Ni846  1  0.03682317  0.20994783  0.31952465  1.0
  Ni  Ni847  1  0.03682317  0.54328117  0.31952465  1.0
  Ni  Ni848  1  0.03682317  0.87661450  0.31952465  1.0
  Ni  Ni849  1  0.37015650  0.20994783  0.31952465  1.0
  Ni  Ni850  1  0.37015650  0.54328117  0.31952465  1.0
  Ni  Ni851  1  0.37015650  0.87661450  0.31952465  1.0
  Ni  Ni852  1  0.70348983  0.20994783  0.31952465  1.0
  Ni  Ni853  1  0.70348983  0.54328117  0.31952465  1.0
  Ni  Ni854  1  0.70348983  0.87661450  0.31952465  1.0
  Ni  Ni855  1  0.20348983  0.04328117  0.27785798  1.0
  Ni  Ni856  1  0.20348983  0.37661450  0.27785798  1.0
  Ni  Ni857  1  0.20348983  0.70994783  0.27785798  1.0
  Ni  Ni858  1  0.53682317  0.04328117  0.27785798  1.0
  Ni  Ni859  1  0.53682317  0.37661450  0.27785798  1.0
  Ni  Ni860  1  0.53682317  0.70994783  0.27785798  1.0
  Ni  Ni861  1  0.87015650  0.04328117  0.27785798  1.0
  Ni  Ni862  1  0.87015650  0.37661450  0.27785798  1.0
  Ni  Ni863  1  0.87015650  0.70994783  0.27785798  1.0
  Ca  Ca864  1  0.12829750  0.28836917  0.33667398  1.0
  Ca  Ca865  1  0.12829750  0.62170250  0.33667398  1.0
  Ca  Ca866  1  0.12829750  0.95503583  0.33667398  1.0
  Ca  Ca867  1  0.46163083  0.28836917  0.33667398  1.0
  Ca  Ca868  1  0.46163083  0.62170250  0.33667398  1.0
  Ca  Ca869  1  0.46163083  0.95503583  0.33667398  1.0
  Ca  Ca870  1  0.79496417  0.28836917  0.33667398  1.0
  Ca  Ca871  1  0.79496417  0.62170250  0.33667398  1.0
  Ca  Ca872  1  0.79496417  0.95503583  0.33667398  1.0
  Ca  Ca873  1  0.29496417  0.12170250  0.37834065  1.0
  Ca  Ca874  1  0.29496417  0.45503583  0.37834065  1.0
  Ca  Ca875  1  0.29496417  0.78836917  0.37834065  1.0
  Ca  Ca876  1  0.62829750  0.12170250  0.37834065  1.0
  Ca  Ca877  1  0.62829750  0.45503583  0.37834065  1.0
  Ca  Ca878  1  0.62829750  0.78836917  0.37834065  1.0
  Ca  Ca879  1  0.96163083  0.12170250  0.37834065  1.0
  Ca  Ca880  1  0.96163083  0.45503583  0.37834065  1.0
  Ca  Ca881  1  0.96163083  0.78836917  0.37834065  1.0
  Ca  Ca882  1  0.03836917  0.21163083  0.36245356  1.0
  Ca  Ca883  1  0.03836917  0.54496417  0.36245356  1.0
  Ca  Ca884  1  0.03836917  0.87829750  0.36245356  1.0
  Ca  Ca885  1  0.37170250  0.21163083  0.36245356  1.0
  Ca  Ca886  1  0.37170250  0.54496417  0.36245356  1.0
  Ca  Ca887  1  0.37170250  0.87829750  0.36245356  1.0
  Ca  Ca888  1  0.70503583  0.21163083  0.36245356  1.0
  Ca  Ca889  1  0.70503583  0.54496417  0.36245356  1.0
  Ca  Ca890  1  0.70503583  0.87829750  0.36245356  1.0
  Ca  Ca891  1  0.20503583  0.04496417  0.40412023  1.0
  Ca  Ca892  1  0.20503583  0.37829750  0.40412023  1.0
  Ca  Ca893  1  0.20503583  0.71163083  0.40412023  1.0
  Ca  Ca894  1  0.53836917  0.04496417  0.40412023  1.0
  Ca  Ca895  1  0.53836917  0.37829750  0.40412023  1.0
  Ca  Ca896  1  0.53836917  0.71163083  0.40412023  1.0
  Ca  Ca897  1  0.87170250  0.04496417  0.40412023  1.0
  Ca  Ca898  1  0.87170250  0.37829750  0.40412023  1.0
  Ca  Ca899  1  0.87170250  0.71163083  0.40412023  1.0
  Ni  Ni900  1  0.00905183  0.29656683  0.39834623  1.0
  Ni  Ni901  1  0.00905183  0.62990017  0.39834623  1.0
  Ni  Ni902  1  0.00905183  0.96323350  0.39834623  1.0
  Ni  Ni903  1  0.34238517  0.29656683  0.39834623  1.0
  Ni  Ni904  1  0.34238517  0.62990017  0.39834623  1.0
  Ni  Ni905  1  0.34238517  0.96323350  0.39834623  1.0
  Ni  Ni906  1  0.67571850  0.29656683  0.39834623  1.0
  Ni  Ni907  1  0.67571850  0.62990017  0.39834623  1.0
  Ni  Ni908  1  0.67571850  0.96323350  0.39834623  1.0
  Ni  Ni909  1  0.17571850  0.12990017  0.35667956  1.0
  Ni  Ni910  1  0.17571850  0.46323350  0.35667956  1.0
  Ni  Ni911  1  0.17571850  0.79656683  0.35667956  1.0
  Ni  Ni912  1  0.50905183  0.12990017  0.35667956  1.0
  Ni  Ni913  1  0.50905183  0.46323350  0.35667956  1.0
  Ni  Ni914  1  0.50905183  0.79656683  0.35667956  1.0
  Ni  Ni915  1  0.84238517  0.12990017  0.35667956  1.0
  Ni  Ni916  1  0.84238517  0.46323350  0.35667956  1.0
  Ni  Ni917  1  0.84238517  0.79656683  0.35667956  1.0
  Ni  Ni918  1  0.23114783  0.29656683  0.37063156  1.0
  Ni  Ni919  1  0.23114783  0.62990017  0.37063156  1.0
  Ni  Ni920  1  0.23114783  0.96323350  0.37063156  1.0
  Ni  Ni921  1  0.56448117  0.29656683  0.37063156  1.0
  Ni  Ni922  1  0.56448117  0.62990017  0.37063156  1.0
  Ni  Ni923  1  0.56448117  0.96323350  0.37063156  1.0
  Ni  Ni924  1  0.89781450  0.29656683  0.37063156  1.0
  Ni  Ni925  1  0.89781450  0.62990017  0.37063156  1.0
  Ni  Ni926  1  0.89781450  0.96323350  0.37063156  1.0
  Ni  Ni927  1  0.06448117  0.12990017  0.41229823  1.0
  Ni  Ni928  1  0.06448117  0.46323350  0.41229823  1.0
  Ni  Ni929  1  0.06448117  0.79656683  0.41229823  1.0
  Ni  Ni930  1  0.39781450  0.12990017  0.41229823  1.0
  Ni  Ni931  1  0.39781450  0.46323350  0.41229823  1.0
  Ni  Ni932  1  0.39781450  0.79656683  0.41229823  1.0
  Ni  Ni933  1  0.73114783  0.12990017  0.41229823  1.0
  Ni  Ni934  1  0.73114783  0.46323350  0.41229823  1.0
  Ni  Ni935  1  0.73114783  0.79656683  0.41229823  1.0
  Ni  Ni936  1  0.26885217  0.20343317  0.41182931  1.0
  Ni  Ni937  1  0.26885217  0.53676650  0.41182931  1.0
  Ni  Ni938  1  0.26885217  0.87009983  0.41182931  1.0
  Ni  Ni939  1  0.60218550  0.20343317  0.41182931  1.0
  Ni  Ni940  1  0.60218550  0.53676650  0.41182931  1.0
  Ni  Ni941  1  0.60218550  0.87009983  0.41182931  1.0
  Ni  Ni942  1  0.93551883  0.20343317  0.41182931  1.0
  Ni  Ni943  1  0.93551883  0.53676650  0.41182931  1.0
  Ni  Ni944  1  0.93551883  0.87009983  0.41182931  1.0
  Ni  Ni945  1  0.10218550  0.03676650  0.37016265  1.0
  Ni  Ni946  1  0.10218550  0.37009983  0.37016265  1.0
  Ni  Ni947  1  0.10218550  0.70343317  0.37016265  1.0
  Ni  Ni948  1  0.43551883  0.03676650  0.37016265  1.0
  Ni  Ni949  1  0.43551883  0.37009983  0.37016265  1.0
  Ni  Ni950  1  0.43551883  0.70343317  0.37016265  1.0
  Ni  Ni951  1  0.76885217  0.03676650  0.37016265  1.0
  Ni  Ni952  1  0.76885217  0.37009983  0.37016265  1.0
  Ni  Ni953  1  0.76885217  0.70343317  0.37016265  1.0
  Ni  Ni954  1  0.15761483  0.20343317  0.38411465  1.0
  Ni  Ni955  1  0.15761483  0.53676650  0.38411465  1.0
  Ni  Ni956  1  0.15761483  0.87009983  0.38411465  1.0
  Ni  Ni957  1  0.49094817  0.20343317  0.38411465  1.0
  Ni  Ni958  1  0.49094817  0.53676650  0.38411465  1.0
  Ni  Ni959  1  0.49094817  0.87009983  0.38411465  1.0
  Ni  Ni960  1  0.82428150  0.20343317  0.38411465  1.0
  Ni  Ni961  1  0.82428150  0.53676650  0.38411465  1.0
  Ni  Ni962  1  0.82428150  0.87009983  0.38411465  1.0
  Ni  Ni963  1  0.32428150  0.03676650  0.34244798  1.0
  Ni  Ni964  1  0.32428150  0.37009983  0.34244798  1.0
  Ni  Ni965  1  0.32428150  0.70343317  0.34244798  1.0
  Ni  Ni966  1  0.65761483  0.03676650  0.34244798  1.0
  Ni  Ni967  1  0.65761483  0.37009983  0.34244798  1.0
  Ni  Ni968  1  0.65761483  0.70343317  0.34244798  1.0
  Ni  Ni969  1  0.99094817  0.03676650  0.34244798  1.0
  Ni  Ni970  1  0.99094817  0.37009983  0.34244798  1.0
  Ni  Ni971  1  0.99094817  0.70343317  0.34244798  1.0
  Ni  Ni972  1  0.08333333  0.25000000  0.39123044  1.0
  Ni  Ni973  1  0.08333333  0.58333333  0.39123044  1.0
  Ni  Ni974  1  0.08333333  0.91666667  0.39123044  1.0
  Ni  Ni975  1  0.41666667  0.25000000  0.39123044  1.0
  Ni  Ni976  1  0.41666667  0.58333333  0.39123044  1.0
  Ni  Ni977  1  0.41666667  0.91666667  0.39123044  1.0
  Ni  Ni978  1  0.75000000  0.25000000  0.39123044  1.0
  Ni  Ni979  1  0.75000000  0.58333333  0.39123044  1.0
  Ni  Ni980  1  0.75000000  0.91666667  0.39123044  1.0
  Ni  Ni981  1  0.25000000  0.08333333  0.34956377  1.0
  Ni  Ni982  1  0.25000000  0.41666667  0.34956377  1.0
  Ni  Ni983  1  0.25000000  0.75000000  0.34956377  1.0
  Ni  Ni984  1  0.58333333  0.08333333  0.34956377  1.0
  Ni  Ni985  1  0.58333333  0.41666667  0.34956377  1.0
  Ni  Ni986  1  0.58333333  0.75000000  0.34956377  1.0
  Ni  Ni987  1  0.91666667  0.08333333  0.34956377  1.0
  Ni  Ni988  1  0.91666667  0.41666667  0.34956377  1.0
  Ni  Ni989  1  0.91666667  0.75000000  0.34956377  1.0
  Ni  Ni990  1  0.33333333  0.16666667  0.41206377  1.0
  Ni  Ni991  1  0.33333333  0.50000000  0.41206377  1.0
  Ni  Ni992  1  0.33333333  0.83333333  0.41206377  1.0
  Ni  Ni993  1  0.66666667  0.16666667  0.41206377  1.0
  Ni  Ni994  1  0.66666667  0.50000000  0.41206377  1.0
  Ni  Ni995  1  0.66666667  0.83333333  0.41206377  1.0
  Ni  Ni996  1  1.00000000  0.16666667  0.41206377  1.0
  Ni  Ni997  1  0.00000000  0.50000000  0.41206377  1.0
  Ni  Ni998  1  1.00000000  0.83333333  0.41206377  1.0
  Ni  Ni999  1  0.16666667  0.00000000  0.37039710  1.0
  Ni  Ni1000  1  0.16666667  0.33333333  0.37039710  1.0
  Ni  Ni1001  1  0.16666667  0.66666667  0.37039710  1.0
  Ni  Ni1002  1  0.50000000  0.00000000  0.37039710  1.0
  Ni  Ni1003  1  0.50000000  0.33333333  0.37039710  1.0
  Ni  Ni1004  1  0.50000000  0.66666667  0.37039710  1.0
  Ni  Ni1005  1  0.83333333  0.00000000  0.37039710  1.0
  Ni  Ni1006  1  0.83333333  0.33333333  0.37039710  1.0
  Ni  Ni1007  1  0.83333333  0.66666667  0.37039710  1.0
  Ni  Ni1008  1  0.12984350  0.29005217  0.37960290  1.0
  Ni  Ni1009  1  0.12984350  0.62338550  0.37960290  1.0
  Ni  Ni1010  1  0.12984350  0.95671883  0.37960290  1.0
  Ni  Ni1011  1  0.46317683  0.29005217  0.37960290  1.0
  Ni  Ni1012  1  0.46317683  0.62338550  0.37960290  1.0
  Ni  Ni1013  1  0.46317683  0.95671883  0.37960290  1.0
  Ni  Ni1014  1  0.79651017  0.29005217  0.37960290  1.0
  Ni  Ni1015  1  0.79651017  0.62338550  0.37960290  1.0
  Ni  Ni1016  1  0.79651017  0.95671883  0.37960290  1.0
  Ni  Ni1017  1  0.29651017  0.12338550  0.33793623  1.0
  Ni  Ni1018  1  0.29651017  0.45671883  0.33793623  1.0
  Ni  Ni1019  1  0.29651017  0.79005217  0.33793623  1.0
  Ni  Ni1020  1  0.62984350  0.12338550  0.33793623  1.0
  Ni  Ni1021  1  0.62984350  0.45671883  0.33793623  1.0
  Ni  Ni1022  1  0.62984350  0.79005217  0.33793623  1.0
  Ni  Ni1023  1  0.96317683  0.12338550  0.33793623  1.0
  Ni  Ni1024  1  0.96317683  0.45671883  0.33793623  1.0
  Ni  Ni1025  1  0.96317683  0.79005217  0.33793623  1.0
  Ni  Ni1026  1  0.20348983  0.20994783  0.40285798  1.0
  Ni  Ni1027  1  0.20348983  0.54328117  0.40285798  1.0
  Ni  Ni1028  1  0.20348983  0.87661450  0.40285798  1.0
  Ni  Ni1029  1  0.53682317  0.20994783  0.40285798  1.0
  Ni  Ni1030  1  0.53682317  0.54328117  0.40285798  1.0
  Ni  Ni1031  1  0.53682317  0.87661450  0.40285798  1.0
  Ni  Ni1032  1  0.87015650  0.20994783  0.40285798  1.0
  Ni  Ni1033  1  0.87015650  0.54328117  0.40285798  1.0
  Ni  Ni1034  1  0.87015650  0.87661450  0.40285798  1.0
  Ni  Ni1035  1  0.03682317  0.04328117  0.36119131  1.0
  Ni  Ni1036  1  0.03682317  0.37661450  0.36119131  1.0
  Ni  Ni1037  1  0.03682317  0.70994783  0.36119131  1.0
  Ni  Ni1038  1  0.37015650  0.04328117  0.36119131  1.0
  Ni  Ni1039  1  0.37015650  0.37661450  0.36119131  1.0
  Ni  Ni1040  1  0.37015650  0.70994783  0.36119131  1.0
  Ni  Ni1041  1  0.70348983  0.04328117  0.36119131  1.0
  Ni  Ni1042  1  0.70348983  0.37661450  0.36119131  1.0
  Ni  Ni1043  1  0.70348983  0.70994783  0.36119131  1.0
  Ni  Ni1044  1  0.29651017  0.29005217  0.37960290  1.0
  Ni  Ni1045  1  0.29651017  0.62338550  0.37960290  1.0
  Ni  Ni1046  1  0.29651017  0.95671883  0.37960290  1.0
  Ni  Ni1047  1  0.62984350  0.29005217  0.37960290  1.0
  Ni  Ni1048  1  0.62984350  0.62338550  0.37960290  1.0
  Ni  Ni1049  1  0.62984350  0.95671883  0.37960290  1.0
  Ni  Ni1050  1  0.96317683  0.29005217  0.37960290  1.0
  Ni  Ni1051  1  0.96317683  0.62338550  0.37960290  1.0
  Ni  Ni1052  1  0.96317683  0.95671883  0.37960290  1.0
  Ni  Ni1053  1  0.12984350  0.12338550  0.33793623  1.0
  Ni  Ni1054  1  0.12984350  0.45671883  0.33793623  1.0
  Ni  Ni1055  1  0.12984350  0.79005217  0.33793623  1.0
  Ni  Ni1056  1  0.46317683  0.12338550  0.33793623  1.0
  Ni  Ni1057  1  0.46317683  0.45671883  0.33793623  1.0
  Ni  Ni1058  1  0.46317683  0.79005217  0.33793623  1.0
  Ni  Ni1059  1  0.79651017  0.12338550  0.33793623  1.0
  Ni  Ni1060  1  0.79651017  0.45671883  0.33793623  1.0
  Ni  Ni1061  1  0.79651017  0.79005217  0.33793623  1.0
  Ni  Ni1062  1  0.03682317  0.20994783  0.40285798  1.0
  Ni  Ni1063  1  0.03682317  0.54328117  0.40285798  1.0
  Ni  Ni1064  1  0.03682317  0.87661450  0.40285798  1.0
  Ni  Ni1065  1  0.37015650  0.20994783  0.40285798  1.0
  Ni  Ni1066  1  0.37015650  0.54328117  0.40285798  1.0
  Ni  Ni1067  1  0.37015650  0.87661450  0.40285798  1.0
  Ni  Ni1068  1  0.70348983  0.20994783  0.40285798  1.0
  Ni  Ni1069  1  0.70348983  0.54328117  0.40285798  1.0
  Ni  Ni1070  1  0.70348983  0.87661450  0.40285798  1.0
  Ni  Ni1071  1  0.20348983  0.04328117  0.36119131  1.0
  Ni  Ni1072  1  0.20348983  0.37661450  0.36119131  1.0
  Ni  Ni1073  1  0.20348983  0.70994783  0.36119131  1.0
  Ni  Ni1074  1  0.53682317  0.04328117  0.36119131  1.0
  Ni  Ni1075  1  0.53682317  0.37661450  0.36119131  1.0
  Ni  Ni1076  1  0.53682317  0.70994783  0.36119131  1.0
  Ni  Ni1077  1  0.87015650  0.04328117  0.36119131  1.0
  Ni  Ni1078  1  0.87015650  0.37661450  0.36119131  1.0
  Ni  Ni1079  1  0.87015650  0.70994783  0.36119131  1.0
