# generated using pymatgen
data_Cd5Ni
_symmetry_space_group_name_H-M   'P 1'
_cell_length_a   42.89855398
_cell_length_b   67.13719490
_cell_length_c   49.96752510
_cell_angle_alpha   116.52293220
_cell_angle_beta   135.67931768
_cell_angle_gamma   71.36826205
_symmetry_Int_Tables_number   1
_chemical_formula_structural   Cd5Ni
_chemical_formula_sum   'Cd1440 Ni288'
_cell_volume   89964.77218750
_cell_formula_units_Z   288
loop_
 _symmetry_equiv_pos_site_id
 _symmetry_equiv_pos_as_xyz
  1  'x, y, z'
loop_
 _atom_site_type_symbol
 _atom_site_label
 _atom_site_symmetry_multiplicity
 _atom_site_fract_x
 _atom_site_fract_y
 _atom_site_fract_z
 _atom_site_occupancy
  Cd  Cd0  1  0.28757500  0.08348467  0.11914350  1.0
  Cd  Cd1  1  0.28757500  0.41681800  0.11914350  1.0
  Cd  Cd2  1  0.28757500  0.75015133  0.11914350  1.0
  Cd  Cd3  1  0.62090833  0.08348467  0.11914350  1.0
  Cd  Cd4  1  0.62090833  0.41681800  0.11914350  1.0
  Cd  Cd5  1  0.62090833  0.75015133  0.11914350  1.0
  Cd  Cd6  1  0.95424167  0.08348467  0.11914350  1.0
  Cd  Cd7  1  0.95424167  0.41681800  0.11914350  1.0
  Cd  Cd8  1  0.95424167  0.75015133  0.11914350  1.0
  Cd  Cd9  1  0.28757500  0.25015133  0.01914350  1.0
  Cd  Cd10  1  0.28757500  0.58348467  0.01914350  1.0
  Cd  Cd11  1  0.28757500  0.91681800  0.01914350  1.0
  Cd  Cd12  1  0.62090833  0.25015133  0.01914350  1.0
  Cd  Cd13  1  0.62090833  0.58348467  0.01914350  1.0
  Cd  Cd14  1  0.62090833  0.91681800  0.01914350  1.0
  Cd  Cd15  1  0.95424167  0.25015133  0.01914350  1.0
  Cd  Cd16  1  0.95424167  0.58348467  0.01914350  1.0
  Cd  Cd17  1  0.95424167  0.91681800  0.01914350  1.0
  Cd  Cd18  1  0.16779100  0.08348467  0.17540270  1.0
  Cd  Cd19  1  0.16779100  0.41681800  0.17540270  1.0
  Cd  Cd20  1  0.16779100  0.75015133  0.17540270  1.0
  Cd  Cd21  1  0.50112433  0.08348467  0.17540270  1.0
  Cd  Cd22  1  0.50112433  0.41681800  0.17540270  1.0
  Cd  Cd23  1  0.50112433  0.75015133  0.17540270  1.0
  Cd  Cd24  1  0.83445767  0.08348467  0.17540270  1.0
  Cd  Cd25  1  0.83445767  0.41681800  0.17540270  1.0
  Cd  Cd26  1  0.83445767  0.75015133  0.17540270  1.0
  Cd  Cd27  1  0.16779100  0.25015133  0.07540270  1.0
  Cd  Cd28  1  0.16779100  0.58348467  0.07540270  1.0
  Cd  Cd29  1  0.16779100  0.91681800  0.07540270  1.0
  Cd  Cd30  1  0.50112433  0.25015133  0.07540270  1.0
  Cd  Cd31  1  0.50112433  0.58348467  0.07540270  1.0
  Cd  Cd32  1  0.50112433  0.91681800  0.07540270  1.0
  Cd  Cd33  1  0.83445767  0.25015133  0.07540270  1.0
  Cd  Cd34  1  0.83445767  0.58348467  0.07540270  1.0
  Cd  Cd35  1  0.83445767  0.91681800  0.07540270  1.0
  Cd  Cd36  1  0.16666667  0.02330217  0.01116360  1.0
  Cd  Cd37  1  0.16666667  0.35663550  0.01116360  1.0
  Cd  Cd38  1  0.16666667  0.68996883  0.01116360  1.0
  Cd  Cd39  1  0.50000000  0.02330217  0.01116360  1.0
  Cd  Cd40  1  0.50000000  0.35663550  0.01116360  1.0
  Cd  Cd41  1  0.50000000  0.68996883  0.01116360  1.0
  Cd  Cd42  1  0.83333333  0.02330217  0.01116360  1.0
  Cd  Cd43  1  0.83333333  0.35663550  0.01116360  1.0
  Cd  Cd44  1  0.83333333  0.68996883  0.01116360  1.0
  Cd  Cd45  1  0.16666667  0.18996883  0.11116360  1.0
  Cd  Cd46  1  0.16666667  0.52330217  0.11116360  1.0
  Cd  Cd47  1  0.16666667  0.85663550  0.11116360  1.0
  Cd  Cd48  1  0.50000000  0.18996883  0.11116360  1.0
  Cd  Cd49  1  0.50000000  0.52330217  0.11116360  1.0
  Cd  Cd50  1  0.50000000  0.85663550  0.11116360  1.0
  Cd  Cd51  1  0.83333333  0.18996883  0.11116360  1.0
  Cd  Cd52  1  0.83333333  0.52330217  0.11116360  1.0
  Cd  Cd53  1  0.83333333  0.85663550  0.11116360  1.0
  Cd  Cd54  1  0.04575833  0.08348467  0.17540270  1.0
  Cd  Cd55  1  0.04575833  0.41681800  0.17540270  1.0
  Cd  Cd56  1  0.04575833  0.75015133  0.17540270  1.0
  Cd  Cd57  1  0.37909167  0.08348467  0.17540270  1.0
  Cd  Cd58  1  0.37909167  0.41681800  0.17540270  1.0
  Cd  Cd59  1  0.37909167  0.75015133  0.17540270  1.0
  Cd  Cd60  1  0.71242500  0.08348467  0.17540270  1.0
  Cd  Cd61  1  0.71242500  0.41681800  0.17540270  1.0
  Cd  Cd62  1  0.71242500  0.75015133  0.17540270  1.0
  Cd  Cd63  1  0.04575833  0.25015133  0.07540270  1.0
  Cd  Cd64  1  0.04575833  0.58348467  0.07540270  1.0
  Cd  Cd65  1  0.04575833  0.91681800  0.07540270  1.0
  Cd  Cd66  1  0.37909167  0.25015133  0.07540270  1.0
  Cd  Cd67  1  0.37909167  0.58348467  0.07540270  1.0
  Cd  Cd68  1  0.37909167  0.91681800  0.07540270  1.0
  Cd  Cd69  1  0.71242500  0.25015133  0.07540270  1.0
  Cd  Cd70  1  0.71242500  0.58348467  0.07540270  1.0
  Cd  Cd71  1  0.71242500  0.91681800  0.07540270  1.0
  Cd  Cd72  1  0.16554233  0.08348467  0.11914350  1.0
  Cd  Cd73  1  0.16554233  0.41681800  0.11914350  1.0
  Cd  Cd74  1  0.16554233  0.75015133  0.11914350  1.0
  Cd  Cd75  1  0.49887567  0.08348467  0.11914350  1.0
  Cd  Cd76  1  0.49887567  0.41681800  0.11914350  1.0
  Cd  Cd77  1  0.49887567  0.75015133  0.11914350  1.0
  Cd  Cd78  1  0.83220900  0.08348467  0.11914350  1.0
  Cd  Cd79  1  0.83220900  0.41681800  0.11914350  1.0
  Cd  Cd80  1  0.83220900  0.75015133  0.11914350  1.0
  Cd  Cd81  1  0.16554233  0.25015133  0.01914350  1.0
  Cd  Cd82  1  0.16554233  0.58348467  0.01914350  1.0
  Cd  Cd83  1  0.16554233  0.91681800  0.01914350  1.0
  Cd  Cd84  1  0.49887567  0.25015133  0.01914350  1.0
  Cd  Cd85  1  0.49887567  0.58348467  0.01914350  1.0
  Cd  Cd86  1  0.49887567  0.91681800  0.01914350  1.0
  Cd  Cd87  1  0.83220900  0.25015133  0.01914350  1.0
  Cd  Cd88  1  0.83220900  0.58348467  0.01914350  1.0
  Cd  Cd89  1  0.83220900  0.91681800  0.01914350  1.0
  Cd  Cd90  1  0.16666667  0.14337517  0.08320740  1.0
  Cd  Cd91  1  0.16666667  0.47670850  0.08320740  1.0
  Cd  Cd92  1  0.16666667  0.81004183  0.08320740  1.0
  Cd  Cd93  1  0.50000000  0.14337517  0.08320740  1.0
  Cd  Cd94  1  0.50000000  0.47670850  0.08320740  1.0
  Cd  Cd95  1  0.50000000  0.81004183  0.08320740  1.0
  Cd  Cd96  1  0.83333333  0.14337517  0.08320740  1.0
  Cd  Cd97  1  0.83333333  0.47670850  0.08320740  1.0
  Cd  Cd98  1  0.83333333  0.81004183  0.08320740  1.0
  Cd  Cd99  1  0.16666667  0.31004183  0.18320740  1.0
  Cd  Cd100  1  0.16666667  0.64337517  0.18320740  1.0
  Cd  Cd101  1  0.16666667  0.97670850  0.18320740  1.0
  Cd  Cd102  1  0.50000000  0.31004183  0.18320740  1.0
  Cd  Cd103  1  0.50000000  0.64337517  0.18320740  1.0
  Cd  Cd104  1  0.50000000  0.97670850  0.18320740  1.0
  Cd  Cd105  1  0.83333333  0.31004183  0.18320740  1.0
  Cd  Cd106  1  0.83333333  0.64337517  0.18320740  1.0
  Cd  Cd107  1  0.83333333  0.97670850  0.18320740  1.0
  Cd  Cd108  1  0.10080733  0.16549433  0.09647890  1.0
  Cd  Cd109  1  0.10080733  0.49882767  0.09647890  1.0
  Cd  Cd110  1  0.10080733  0.83216100  0.09647890  1.0
  Cd  Cd111  1  0.43414067  0.16549433  0.09647890  1.0
  Cd  Cd112  1  0.43414067  0.49882767  0.09647890  1.0
  Cd  Cd113  1  0.43414067  0.83216100  0.09647890  1.0
  Cd  Cd114  1  0.76747400  0.16549433  0.09647890  1.0
  Cd  Cd115  1  0.76747400  0.49882767  0.09647890  1.0
  Cd  Cd116  1  0.76747400  0.83216100  0.09647890  1.0
  Cd  Cd117  1  0.10080733  0.33216100  0.19647890  1.0
  Cd  Cd118  1  0.10080733  0.66549433  0.19647890  1.0
  Cd  Cd119  1  0.10080733  0.99882767  0.19647890  1.0
  Cd  Cd120  1  0.43414067  0.33216100  0.19647890  1.0
  Cd  Cd121  1  0.43414067  0.66549433  0.19647890  1.0
  Cd  Cd122  1  0.43414067  0.99882767  0.19647890  1.0
  Cd  Cd123  1  0.76747400  0.33216100  0.19647890  1.0
  Cd  Cd124  1  0.76747400  0.66549433  0.19647890  1.0
  Cd  Cd125  1  0.76747400  0.99882767  0.19647890  1.0
  Cd  Cd126  1  0.01808500  0.12482317  0.02795100  1.0
  Cd  Cd127  1  0.01808500  0.45815650  0.02795100  1.0
  Cd  Cd128  1  0.01808500  0.79148983  0.02795100  1.0
  Cd  Cd129  1  0.35141833  0.12482317  0.02795100  1.0
  Cd  Cd130  1  0.35141833  0.45815650  0.02795100  1.0
  Cd  Cd131  1  0.35141833  0.79148983  0.02795100  1.0
  Cd  Cd132  1  0.68475167  0.12482317  0.02795100  1.0
  Cd  Cd133  1  0.68475167  0.45815650  0.02795100  1.0
  Cd  Cd134  1  0.68475167  0.79148983  0.02795100  1.0
  Cd  Cd135  1  0.01808500  0.29148983  0.12795100  1.0
  Cd  Cd136  1  0.01808500  0.62482317  0.12795100  1.0
  Cd  Cd137  1  0.01808500  0.95815650  0.12795100  1.0
  Cd  Cd138  1  0.35141833  0.29148983  0.12795100  1.0
  Cd  Cd139  1  0.35141833  0.62482317  0.12795100  1.0
  Cd  Cd140  1  0.35141833  0.95815650  0.12795100  1.0
  Cd  Cd141  1  0.68475167  0.29148983  0.12795100  1.0
  Cd  Cd142  1  0.68475167  0.62482317  0.12795100  1.0
  Cd  Cd143  1  0.68475167  0.95815650  0.12795100  1.0
  Cd  Cd144  1  0.09162700  0.12482317  0.11620140  1.0
  Cd  Cd145  1  0.09162700  0.45815650  0.11620140  1.0
  Cd  Cd146  1  0.09162700  0.79148983  0.11620140  1.0
  Cd  Cd147  1  0.42496033  0.12482317  0.11620140  1.0
  Cd  Cd148  1  0.42496033  0.45815650  0.11620140  1.0
  Cd  Cd149  1  0.42496033  0.79148983  0.11620140  1.0
  Cd  Cd150  1  0.75829367  0.12482317  0.11620140  1.0
  Cd  Cd151  1  0.75829367  0.45815650  0.11620140  1.0
  Cd  Cd152  1  0.75829367  0.79148983  0.11620140  1.0
  Cd  Cd153  1  0.09162700  0.29148983  0.01620140  1.0
  Cd  Cd154  1  0.09162700  0.62482317  0.01620140  1.0
  Cd  Cd155  1  0.09162700  0.95815650  0.01620140  1.0
  Cd  Cd156  1  0.42496033  0.29148983  0.01620140  1.0
  Cd  Cd157  1  0.42496033  0.62482317  0.01620140  1.0
  Cd  Cd158  1  0.42496033  0.95815650  0.01620140  1.0
  Cd  Cd159  1  0.75829367  0.29148983  0.01620140  1.0
  Cd  Cd160  1  0.75829367  0.62482317  0.01620140  1.0
  Cd  Cd161  1  0.75829367  0.95815650  0.01620140  1.0
  Cd  Cd162  1  0.23252600  0.16549433  0.09647890  1.0
  Cd  Cd163  1  0.23252600  0.49882767  0.09647890  1.0
  Cd  Cd164  1  0.23252600  0.83216100  0.09647890  1.0
  Cd  Cd165  1  0.56585933  0.16549433  0.09647890  1.0
  Cd  Cd166  1  0.56585933  0.49882767  0.09647890  1.0
  Cd  Cd167  1  0.56585933  0.83216100  0.09647890  1.0
  Cd  Cd168  1  0.89919267  0.16549433  0.09647890  1.0
  Cd  Cd169  1  0.89919267  0.49882767  0.09647890  1.0
  Cd  Cd170  1  0.89919267  0.83216100  0.09647890  1.0
  Cd  Cd171  1  0.23252600  0.33216100  0.19647890  1.0
  Cd  Cd172  1  0.23252600  0.66549433  0.19647890  1.0
  Cd  Cd173  1  0.23252600  0.99882767  0.19647890  1.0
  Cd  Cd174  1  0.56585933  0.33216100  0.19647890  1.0
  Cd  Cd175  1  0.56585933  0.66549433  0.19647890  1.0
  Cd  Cd176  1  0.56585933  0.99882767  0.19647890  1.0
  Cd  Cd177  1  0.89919267  0.33216100  0.19647890  1.0
  Cd  Cd178  1  0.89919267  0.66549433  0.19647890  1.0
  Cd  Cd179  1  0.89919267  0.99882767  0.19647890  1.0
  Cd  Cd180  1  0.31524833  0.12482317  0.11620140  1.0
  Cd  Cd181  1  0.31524833  0.45815650  0.11620140  1.0
  Cd  Cd182  1  0.31524833  0.79148983  0.11620140  1.0
  Cd  Cd183  1  0.64858167  0.12482317  0.11620140  1.0
  Cd  Cd184  1  0.64858167  0.45815650  0.11620140  1.0
  Cd  Cd185  1  0.64858167  0.79148983  0.11620140  1.0
  Cd  Cd186  1  0.98191500  0.12482317  0.11620140  1.0
  Cd  Cd187  1  0.98191500  0.45815650  0.11620140  1.0
  Cd  Cd188  1  0.98191500  0.79148983  0.11620140  1.0
  Cd  Cd189  1  0.31524833  0.29148983  0.01620140  1.0
  Cd  Cd190  1  0.31524833  0.62482317  0.01620140  1.0
  Cd  Cd191  1  0.31524833  0.95815650  0.01620140  1.0
  Cd  Cd192  1  0.64858167  0.29148983  0.01620140  1.0
  Cd  Cd193  1  0.64858167  0.62482317  0.01620140  1.0
  Cd  Cd194  1  0.64858167  0.95815650  0.01620140  1.0
  Cd  Cd195  1  0.98191500  0.29148983  0.01620140  1.0
  Cd  Cd196  1  0.98191500  0.62482317  0.01620140  1.0
  Cd  Cd197  1  0.98191500  0.95815650  0.01620140  1.0
  Cd  Cd198  1  0.24170633  0.12482317  0.02795100  1.0
  Cd  Cd199  1  0.24170633  0.45815650  0.02795100  1.0
  Cd  Cd200  1  0.24170633  0.79148983  0.02795100  1.0
  Cd  Cd201  1  0.57503967  0.12482317  0.02795100  1.0
  Cd  Cd202  1  0.57503967  0.45815650  0.02795100  1.0
  Cd  Cd203  1  0.57503967  0.79148983  0.02795100  1.0
  Cd  Cd204  1  0.90837300  0.12482317  0.02795100  1.0
  Cd  Cd205  1  0.90837300  0.45815650  0.02795100  1.0
  Cd  Cd206  1  0.90837300  0.79148983  0.02795100  1.0
  Cd  Cd207  1  0.24170633  0.29148983  0.12795100  1.0
  Cd  Cd208  1  0.24170633  0.62482317  0.12795100  1.0
  Cd  Cd209  1  0.24170633  0.95815650  0.12795100  1.0
  Cd  Cd210  1  0.57503967  0.29148983  0.12795100  1.0
  Cd  Cd211  1  0.57503967  0.62482317  0.12795100  1.0
  Cd  Cd212  1  0.57503967  0.95815650  0.12795100  1.0
  Cd  Cd213  1  0.90837300  0.29148983  0.12795100  1.0
  Cd  Cd214  1  0.90837300  0.62482317  0.12795100  1.0
  Cd  Cd215  1  0.90837300  0.95815650  0.12795100  1.0
  Cd  Cd216  1  0.26618133  0.00844267  0.12166550  1.0
  Cd  Cd217  1  0.26618133  0.34177600  0.12166550  1.0
  Cd  Cd218  1  0.26618133  0.67510933  0.12166550  1.0
  Cd  Cd219  1  0.59951467  0.00844267  0.12166550  1.0
  Cd  Cd220  1  0.59951467  0.34177600  0.12166550  1.0
  Cd  Cd221  1  0.59951467  0.67510933  0.12166550  1.0
  Cd  Cd222  1  0.93284800  0.00844267  0.12166550  1.0
  Cd  Cd223  1  0.93284800  0.34177600  0.12166550  1.0
  Cd  Cd224  1  0.93284800  0.67510933  0.12166550  1.0
  Cd  Cd225  1  0.26618133  0.17510933  0.02166550  1.0
  Cd  Cd226  1  0.26618133  0.50844267  0.02166550  1.0
  Cd  Cd227  1  0.26618133  0.84177600  0.02166550  1.0
  Cd  Cd228  1  0.59951467  0.17510933  0.02166550  1.0
  Cd  Cd229  1  0.59951467  0.50844267  0.02166550  1.0
  Cd  Cd230  1  0.59951467  0.84177600  0.02166550  1.0
  Cd  Cd231  1  0.93284800  0.17510933  0.02166550  1.0
  Cd  Cd232  1  0.93284800  0.50844267  0.02166550  1.0
  Cd  Cd233  1  0.93284800  0.84177600  0.02166550  1.0
  Cd  Cd234  1  0.00175833  0.04339900  0.17392270  1.0
  Cd  Cd235  1  0.00175833  0.37673233  0.17392270  1.0
  Cd  Cd236  1  0.00175833  0.71006567  0.17392270  1.0
  Cd  Cd237  1  0.33509167  0.04339900  0.17392270  1.0
  Cd  Cd238  1  0.33509167  0.37673233  0.17392270  1.0
  Cd  Cd239  1  0.33509167  0.71006567  0.17392270  1.0
  Cd  Cd240  1  0.66842500  0.04339900  0.17392270  1.0
  Cd  Cd241  1  0.66842500  0.37673233  0.17392270  1.0
  Cd  Cd242  1  0.66842500  0.71006567  0.17392270  1.0
  Cd  Cd243  1  0.00175833  0.21006567  0.07392270  1.0
  Cd  Cd244  1  0.00175833  0.54339900  0.07392270  1.0
  Cd  Cd245  1  0.00175833  0.87673233  0.07392270  1.0
  Cd  Cd246  1  0.33509167  0.21006567  0.07392270  1.0
  Cd  Cd247  1  0.33509167  0.54339900  0.07392270  1.0
  Cd  Cd248  1  0.33509167  0.87673233  0.07392270  1.0
  Cd  Cd249  1  0.66842500  0.21006567  0.07392270  1.0
  Cd  Cd250  1  0.66842500  0.54339900  0.07392270  1.0
  Cd  Cd251  1  0.66842500  0.87673233  0.07392270  1.0
  Cd  Cd252  1  0.24941000  0.04339900  0.17392270  1.0
  Cd  Cd253  1  0.24941000  0.37673233  0.17392270  1.0
  Cd  Cd254  1  0.24941000  0.71006567  0.17392270  1.0
  Cd  Cd255  1  0.58274333  0.04339900  0.17392270  1.0
  Cd  Cd256  1  0.58274333  0.37673233  0.17392270  1.0
  Cd  Cd257  1  0.58274333  0.71006567  0.17392270  1.0
  Cd  Cd258  1  0.91607667  0.04339900  0.17392270  1.0
  Cd  Cd259  1  0.91607667  0.37673233  0.17392270  1.0
  Cd  Cd260  1  0.91607667  0.71006567  0.17392270  1.0
  Cd  Cd261  1  0.24941000  0.21006567  0.07392270  1.0
  Cd  Cd262  1  0.24941000  0.54339900  0.07392270  1.0
  Cd  Cd263  1  0.24941000  0.87673233  0.07392270  1.0
  Cd  Cd264  1  0.58274333  0.21006567  0.07392270  1.0
  Cd  Cd265  1  0.58274333  0.54339900  0.07392270  1.0
  Cd  Cd266  1  0.58274333  0.87673233  0.07392270  1.0
  Cd  Cd267  1  0.91607667  0.21006567  0.07392270  1.0
  Cd  Cd268  1  0.91607667  0.54339900  0.07392270  1.0
  Cd  Cd269  1  0.91607667  0.87673233  0.07392270  1.0
  Cd  Cd270  1  0.06715200  0.00844267  0.08283030  1.0
  Cd  Cd271  1  0.06715200  0.34177600  0.08283030  1.0
  Cd  Cd272  1  0.06715200  0.67510933  0.08283030  1.0
  Cd  Cd273  1  0.40048533  0.00844267  0.08283030  1.0
  Cd  Cd274  1  0.40048533  0.34177600  0.08283030  1.0
  Cd  Cd275  1  0.40048533  0.67510933  0.08283030  1.0
  Cd  Cd276  1  0.73381867  0.00844267  0.08283030  1.0
  Cd  Cd277  1  0.73381867  0.34177600  0.08283030  1.0
  Cd  Cd278  1  0.73381867  0.67510933  0.08283030  1.0
  Cd  Cd279  1  0.06715200  0.17510933  0.18283030  1.0
  Cd  Cd280  1  0.06715200  0.50844267  0.18283030  1.0
  Cd  Cd281  1  0.06715200  0.84177600  0.18283030  1.0
  Cd  Cd282  1  0.40048533  0.17510933  0.18283030  1.0
  Cd  Cd283  1  0.40048533  0.50844267  0.18283030  1.0
  Cd  Cd284  1  0.40048533  0.84177600  0.18283030  1.0
  Cd  Cd285  1  0.73381867  0.17510933  0.18283030  1.0
  Cd  Cd286  1  0.73381867  0.50844267  0.18283030  1.0
  Cd  Cd287  1  0.73381867  0.84177600  0.18283030  1.0
  Cd  Cd288  1  0.33157500  0.04339900  0.07252070  1.0
  Cd  Cd289  1  0.33157500  0.37673233  0.07252070  1.0
  Cd  Cd290  1  0.33157500  0.71006567  0.07252070  1.0
  Cd  Cd291  1  0.66490833  0.04339900  0.07252070  1.0
  Cd  Cd292  1  0.66490833  0.37673233  0.07252070  1.0
  Cd  Cd293  1  0.66490833  0.71006567  0.07252070  1.0
  Cd  Cd294  1  0.99824167  0.04339900  0.07252070  1.0
  Cd  Cd295  1  0.99824167  0.37673233  0.07252070  1.0
  Cd  Cd296  1  0.99824167  0.71006567  0.07252070  1.0
  Cd  Cd297  1  0.33157500  0.21006567  0.17252070  1.0
  Cd  Cd298  1  0.33157500  0.54339900  0.17252070  1.0
  Cd  Cd299  1  0.33157500  0.87673233  0.17252070  1.0
  Cd  Cd300  1  0.66490833  0.21006567  0.17252070  1.0
  Cd  Cd301  1  0.66490833  0.54339900  0.17252070  1.0
  Cd  Cd302  1  0.66490833  0.87673233  0.17252070  1.0
  Cd  Cd303  1  0.99824167  0.21006567  0.17252070  1.0
  Cd  Cd304  1  0.99824167  0.54339900  0.17252070  1.0
  Cd  Cd305  1  0.99824167  0.87673233  0.17252070  1.0
  Cd  Cd306  1  0.08392333  0.04339900  0.07252070  1.0
  Cd  Cd307  1  0.08392333  0.37673233  0.07252070  1.0
  Cd  Cd308  1  0.08392333  0.71006567  0.07252070  1.0
  Cd  Cd309  1  0.41725667  0.04339900  0.07252070  1.0
  Cd  Cd310  1  0.41725667  0.37673233  0.07252070  1.0
  Cd  Cd311  1  0.41725667  0.71006567  0.07252070  1.0
  Cd  Cd312  1  0.75059000  0.04339900  0.07252070  1.0
  Cd  Cd313  1  0.75059000  0.37673233  0.07252070  1.0
  Cd  Cd314  1  0.75059000  0.71006567  0.07252070  1.0
  Cd  Cd315  1  0.08392333  0.21006567  0.17252070  1.0
  Cd  Cd316  1  0.08392333  0.54339900  0.17252070  1.0
  Cd  Cd317  1  0.08392333  0.87673233  0.17252070  1.0
  Cd  Cd318  1  0.41725667  0.21006567  0.17252070  1.0
  Cd  Cd319  1  0.41725667  0.54339900  0.17252070  1.0
  Cd  Cd320  1  0.41725667  0.87673233  0.17252070  1.0
  Cd  Cd321  1  0.75059000  0.21006567  0.17252070  1.0
  Cd  Cd322  1  0.75059000  0.54339900  0.17252070  1.0
  Cd  Cd323  1  0.75059000  0.87673233  0.17252070  1.0
  Cd  Cd324  1  0.21448633  0.05787700  0.03190850  1.0
  Cd  Cd325  1  0.21448633  0.39121033  0.03190850  1.0
  Cd  Cd326  1  0.21448633  0.72454367  0.03190850  1.0
  Cd  Cd327  1  0.54781967  0.05787700  0.03190850  1.0
  Cd  Cd328  1  0.54781967  0.39121033  0.03190850  1.0
  Cd  Cd329  1  0.54781967  0.72454367  0.03190850  1.0
  Cd  Cd330  1  0.88115300  0.05787700  0.03190850  1.0
  Cd  Cd331  1  0.88115300  0.39121033  0.03190850  1.0
  Cd  Cd332  1  0.88115300  0.72454367  0.03190850  1.0
  Cd  Cd333  1  0.21448633  0.22454367  0.13190850  1.0
  Cd  Cd334  1  0.21448633  0.55787700  0.13190850  1.0
  Cd  Cd335  1  0.21448633  0.89121033  0.13190850  1.0
  Cd  Cd336  1  0.54781967  0.22454367  0.13190850  1.0
  Cd  Cd337  1  0.54781967  0.55787700  0.13190850  1.0
  Cd  Cd338  1  0.54781967  0.89121033  0.13190850  1.0
  Cd  Cd339  1  0.88115300  0.22454367  0.13190850  1.0
  Cd  Cd340  1  0.88115300  0.55787700  0.13190850  1.0
  Cd  Cd341  1  0.88115300  0.89121033  0.13190850  1.0
  Cd  Cd342  1  0.11884700  0.05787700  0.03190850  1.0
  Cd  Cd343  1  0.11884700  0.39121033  0.03190850  1.0
  Cd  Cd344  1  0.11884700  0.72454367  0.03190850  1.0
  Cd  Cd345  1  0.45218033  0.05787700  0.03190850  1.0
  Cd  Cd346  1  0.45218033  0.39121033  0.03190850  1.0
  Cd  Cd347  1  0.45218033  0.72454367  0.03190850  1.0
  Cd  Cd348  1  0.78551367  0.05787700  0.03190850  1.0
  Cd  Cd349  1  0.78551367  0.39121033  0.03190850  1.0
  Cd  Cd350  1  0.78551367  0.72454367  0.03190850  1.0
  Cd  Cd351  1  0.11884700  0.22454367  0.13190850  1.0
  Cd  Cd352  1  0.11884700  0.55787700  0.13190850  1.0
  Cd  Cd353  1  0.11884700  0.89121033  0.13190850  1.0
  Cd  Cd354  1  0.45218033  0.22454367  0.13190850  1.0
  Cd  Cd355  1  0.45218033  0.55787700  0.13190850  1.0
  Cd  Cd356  1  0.45218033  0.89121033  0.13190850  1.0
  Cd  Cd357  1  0.78551367  0.22454367  0.13190850  1.0
  Cd  Cd358  1  0.78551367  0.55787700  0.13190850  1.0
  Cd  Cd359  1  0.78551367  0.89121033  0.13190850  1.0
  Cd  Cd360  1  0.11526100  0.10671117  0.19952220  1.0
  Cd  Cd361  1  0.11526100  0.44004450  0.19952220  1.0
  Cd  Cd362  1  0.11526100  0.77337783  0.19952220  1.0
  Cd  Cd363  1  0.44859433  0.10671117  0.19952220  1.0
  Cd  Cd364  1  0.44859433  0.44004450  0.19952220  1.0
  Cd  Cd365  1  0.44859433  0.77337783  0.19952220  1.0
  Cd  Cd366  1  0.78192767  0.10671117  0.19952220  1.0
  Cd  Cd367  1  0.78192767  0.44004450  0.19952220  1.0
  Cd  Cd368  1  0.78192767  0.77337783  0.19952220  1.0
  Cd  Cd369  1  0.11526100  0.27337783  0.09952220  1.0
  Cd  Cd370  1  0.11526100  0.60671117  0.09952220  1.0
  Cd  Cd371  1  0.11526100  0.94004450  0.09952220  1.0
  Cd  Cd372  1  0.44859433  0.27337783  0.09952220  1.0
  Cd  Cd373  1  0.44859433  0.60671117  0.09952220  1.0
  Cd  Cd374  1  0.44859433  0.94004450  0.09952220  1.0
  Cd  Cd375  1  0.78192767  0.27337783  0.09952220  1.0
  Cd  Cd376  1  0.78192767  0.60671117  0.09952220  1.0
  Cd  Cd377  1  0.78192767  0.94004450  0.09952220  1.0
  Cd  Cd378  1  0.21807233  0.10671117  0.12289580  1.0
  Cd  Cd379  1  0.21807233  0.44004450  0.12289580  1.0
  Cd  Cd380  1  0.21807233  0.77337783  0.12289580  1.0
  Cd  Cd381  1  0.55140567  0.10671117  0.12289580  1.0
  Cd  Cd382  1  0.55140567  0.44004450  0.12289580  1.0
  Cd  Cd383  1  0.55140567  0.77337783  0.12289580  1.0
  Cd  Cd384  1  0.88473900  0.10671117  0.12289580  1.0
  Cd  Cd385  1  0.88473900  0.44004450  0.12289580  1.0
  Cd  Cd386  1  0.88473900  0.77337783  0.12289580  1.0
  Cd  Cd387  1  0.21807233  0.27337783  0.02289580  1.0
  Cd  Cd388  1  0.21807233  0.60671117  0.02289580  1.0
  Cd  Cd389  1  0.21807233  0.94004450  0.02289580  1.0
  Cd  Cd390  1  0.55140567  0.27337783  0.02289580  1.0
  Cd  Cd391  1  0.55140567  0.60671117  0.02289580  1.0
  Cd  Cd392  1  0.55140567  0.94004450  0.02289580  1.0
  Cd  Cd393  1  0.88473900  0.27337783  0.02289580  1.0
  Cd  Cd394  1  0.88473900  0.60671117  0.02289580  1.0
  Cd  Cd395  1  0.88473900  0.94004450  0.02289580  1.0
  Cd  Cd396  1  0.27651667  0.08173983  0.04622620  1.0
  Cd  Cd397  1  0.27651667  0.41507317  0.04622620  1.0
  Cd  Cd398  1  0.27651667  0.74840650  0.04622620  1.0
  Cd  Cd399  1  0.60985000  0.08173983  0.04622620  1.0
  Cd  Cd400  1  0.60985000  0.41507317  0.04622620  1.0
  Cd  Cd401  1  0.60985000  0.74840650  0.04622620  1.0
  Cd  Cd402  1  0.94318333  0.08173983  0.04622620  1.0
  Cd  Cd403  1  0.94318333  0.41507317  0.04622620  1.0
  Cd  Cd404  1  0.94318333  0.74840650  0.04622620  1.0
  Cd  Cd405  1  0.27651667  0.24840650  0.14622620  1.0
  Cd  Cd406  1  0.27651667  0.58173983  0.14622620  1.0
  Cd  Cd407  1  0.27651667  0.91507317  0.14622620  1.0
  Cd  Cd408  1  0.60985000  0.24840650  0.14622620  1.0
  Cd  Cd409  1  0.60985000  0.58173983  0.14622620  1.0
  Cd  Cd410  1  0.60985000  0.91507317  0.14622620  1.0
  Cd  Cd411  1  0.94318333  0.24840650  0.14622620  1.0
  Cd  Cd412  1  0.94318333  0.58173983  0.14622620  1.0
  Cd  Cd413  1  0.94318333  0.91507317  0.14622620  1.0
  Cd  Cd414  1  0.16338633  0.02824467  0.14454810  1.0
  Cd  Cd415  1  0.16338633  0.36157800  0.14454810  1.0
  Cd  Cd416  1  0.16338633  0.69491133  0.14454810  1.0
  Cd  Cd417  1  0.49671967  0.02824467  0.14454810  1.0
  Cd  Cd418  1  0.49671967  0.36157800  0.14454810  1.0
  Cd  Cd419  1  0.49671967  0.69491133  0.14454810  1.0
  Cd  Cd420  1  0.83005300  0.02824467  0.14454810  1.0
  Cd  Cd421  1  0.83005300  0.36157800  0.14454810  1.0
  Cd  Cd422  1  0.83005300  0.69491133  0.14454810  1.0
  Cd  Cd423  1  0.16338633  0.19491133  0.04454810  1.0
  Cd  Cd424  1  0.16338633  0.52824467  0.04454810  1.0
  Cd  Cd425  1  0.16338633  0.86157800  0.04454810  1.0
  Cd  Cd426  1  0.49671967  0.19491133  0.04454810  1.0
  Cd  Cd427  1  0.49671967  0.52824467  0.04454810  1.0
  Cd  Cd428  1  0.49671967  0.86157800  0.04454810  1.0
  Cd  Cd429  1  0.83005300  0.19491133  0.04454810  1.0
  Cd  Cd430  1  0.83005300  0.52824467  0.04454810  1.0
  Cd  Cd431  1  0.83005300  0.86157800  0.04454810  1.0
  Cd  Cd432  1  0.27935467  0.02824467  0.08371010  1.0
  Cd  Cd433  1  0.27935467  0.36157800  0.08371010  1.0
  Cd  Cd434  1  0.27935467  0.69491133  0.08371010  1.0
  Cd  Cd435  1  0.61268800  0.02824467  0.08371010  1.0
  Cd  Cd436  1  0.61268800  0.36157800  0.08371010  1.0
  Cd  Cd437  1  0.61268800  0.69491133  0.08371010  1.0
  Cd  Cd438  1  0.94602133  0.02824467  0.08371010  1.0
  Cd  Cd439  1  0.94602133  0.36157800  0.08371010  1.0
  Cd  Cd440  1  0.94602133  0.69491133  0.08371010  1.0
  Cd  Cd441  1  0.27935467  0.19491133  0.18371010  1.0
  Cd  Cd442  1  0.27935467  0.52824467  0.18371010  1.0
  Cd  Cd443  1  0.27935467  0.86157800  0.18371010  1.0
  Cd  Cd444  1  0.61268800  0.19491133  0.18371010  1.0
  Cd  Cd445  1  0.61268800  0.52824467  0.18371010  1.0
  Cd  Cd446  1  0.61268800  0.86157800  0.18371010  1.0
  Cd  Cd447  1  0.94602133  0.19491133  0.18371010  1.0
  Cd  Cd448  1  0.94602133  0.52824467  0.18371010  1.0
  Cd  Cd449  1  0.94602133  0.86157800  0.18371010  1.0
  Cd  Cd450  1  0.05681667  0.08173983  0.04622620  1.0
  Cd  Cd451  1  0.05681667  0.41507317  0.04622620  1.0
  Cd  Cd452  1  0.05681667  0.74840650  0.04622620  1.0
  Cd  Cd453  1  0.39015000  0.08173983  0.04622620  1.0
  Cd  Cd454  1  0.39015000  0.41507317  0.04622620  1.0
  Cd  Cd455  1  0.39015000  0.74840650  0.04622620  1.0
  Cd  Cd456  1  0.72348333  0.08173983  0.04622620  1.0
  Cd  Cd457  1  0.72348333  0.41507317  0.04622620  1.0
  Cd  Cd458  1  0.72348333  0.74840650  0.04622620  1.0
  Cd  Cd459  1  0.05681667  0.24840650  0.14622620  1.0
  Cd  Cd460  1  0.05681667  0.58173983  0.14622620  1.0
  Cd  Cd461  1  0.05681667  0.91507317  0.14622620  1.0
  Cd  Cd462  1  0.39015000  0.24840650  0.14622620  1.0
  Cd  Cd463  1  0.39015000  0.58173983  0.14622620  1.0
  Cd  Cd464  1  0.39015000  0.91507317  0.14622620  1.0
  Cd  Cd465  1  0.72348333  0.24840650  0.14622620  1.0
  Cd  Cd466  1  0.72348333  0.58173983  0.14622620  1.0
  Cd  Cd467  1  0.72348333  0.91507317  0.14622620  1.0
  Cd  Cd468  1  0.16994700  0.02824467  0.08371010  1.0
  Cd  Cd469  1  0.16994700  0.36157800  0.08371010  1.0
  Cd  Cd470  1  0.16994700  0.69491133  0.08371010  1.0
  Cd  Cd471  1  0.50328033  0.02824467  0.08371010  1.0
  Cd  Cd472  1  0.50328033  0.36157800  0.08371010  1.0
  Cd  Cd473  1  0.50328033  0.69491133  0.08371010  1.0
  Cd  Cd474  1  0.83661367  0.02824467  0.08371010  1.0
  Cd  Cd475  1  0.83661367  0.36157800  0.08371010  1.0
  Cd  Cd476  1  0.83661367  0.69491133  0.08371010  1.0
  Cd  Cd477  1  0.16994700  0.19491133  0.18371010  1.0
  Cd  Cd478  1  0.16994700  0.52824467  0.18371010  1.0
  Cd  Cd479  1  0.16994700  0.86157800  0.18371010  1.0
  Cd  Cd480  1  0.50328033  0.19491133  0.18371010  1.0
  Cd  Cd481  1  0.50328033  0.52824467  0.18371010  1.0
  Cd  Cd482  1  0.50328033  0.86157800  0.18371010  1.0
  Cd  Cd483  1  0.83661367  0.19491133  0.18371010  1.0
  Cd  Cd484  1  0.83661367  0.52824467  0.18371010  1.0
  Cd  Cd485  1  0.83661367  0.86157800  0.18371010  1.0
  Cd  Cd486  1  0.05397867  0.02824467  0.14454810  1.0
  Cd  Cd487  1  0.05397867  0.36157800  0.14454810  1.0
  Cd  Cd488  1  0.05397867  0.69491133  0.14454810  1.0
  Cd  Cd489  1  0.38731200  0.02824467  0.14454810  1.0
  Cd  Cd490  1  0.38731200  0.36157800  0.14454810  1.0
  Cd  Cd491  1  0.38731200  0.69491133  0.14454810  1.0
  Cd  Cd492  1  0.72064533  0.02824467  0.14454810  1.0
  Cd  Cd493  1  0.72064533  0.36157800  0.14454810  1.0
  Cd  Cd494  1  0.72064533  0.69491133  0.14454810  1.0
  Cd  Cd495  1  0.05397867  0.19491133  0.04454810  1.0
  Cd  Cd496  1  0.05397867  0.52824467  0.04454810  1.0
  Cd  Cd497  1  0.05397867  0.86157800  0.04454810  1.0
  Cd  Cd498  1  0.38731200  0.19491133  0.04454810  1.0
  Cd  Cd499  1  0.38731200  0.52824467  0.04454810  1.0
  Cd  Cd500  1  0.38731200  0.86157800  0.04454810  1.0
  Cd  Cd501  1  0.72064533  0.19491133  0.04454810  1.0
  Cd  Cd502  1  0.72064533  0.52824467  0.04454810  1.0
  Cd  Cd503  1  0.72064533  0.86157800  0.04454810  1.0
  Cd  Cd504  1  0.04465567  0.09021633  0.10489890  1.0
  Cd  Cd505  1  0.04465567  0.42354967  0.10489890  1.0
  Cd  Cd506  1  0.04465567  0.75688300  0.10489890  1.0
  Cd  Cd507  1  0.37798900  0.09021633  0.10489890  1.0
  Cd  Cd508  1  0.37798900  0.42354967  0.10489890  1.0
  Cd  Cd509  1  0.37798900  0.75688300  0.10489890  1.0
  Cd  Cd510  1  0.71132233  0.09021633  0.10489890  1.0
  Cd  Cd511  1  0.71132233  0.42354967  0.10489890  1.0
  Cd  Cd512  1  0.71132233  0.75688300  0.10489890  1.0
  Cd  Cd513  1  0.04465567  0.25688300  0.00489890  1.0
  Cd  Cd514  1  0.04465567  0.59021633  0.00489890  1.0
  Cd  Cd515  1  0.04465567  0.92354967  0.00489890  1.0
  Cd  Cd516  1  0.37798900  0.25688300  0.00489890  1.0
  Cd  Cd517  1  0.37798900  0.59021633  0.00489890  1.0
  Cd  Cd518  1  0.37798900  0.92354967  0.00489890  1.0
  Cd  Cd519  1  0.71132233  0.25688300  0.00489890  1.0
  Cd  Cd520  1  0.71132233  0.59021633  0.00489890  1.0
  Cd  Cd521  1  0.71132233  0.92354967  0.00489890  1.0
  Cd  Cd522  1  0.15218600  0.14171900  0.00736450  1.0
  Cd  Cd523  1  0.15218600  0.47505233  0.00736450  1.0
  Cd  Cd524  1  0.15218600  0.80838567  0.00736450  1.0
  Cd  Cd525  1  0.48551933  0.14171900  0.00736450  1.0
  Cd  Cd526  1  0.48551933  0.47505233  0.00736450  1.0
  Cd  Cd527  1  0.48551933  0.80838567  0.00736450  1.0
  Cd  Cd528  1  0.81885267  0.14171900  0.00736450  1.0
  Cd  Cd529  1  0.81885267  0.47505233  0.00736450  1.0
  Cd  Cd530  1  0.81885267  0.80838567  0.00736450  1.0
  Cd  Cd531  1  0.15218600  0.30838567  0.10736450  1.0
  Cd  Cd532  1  0.15218600  0.64171900  0.10736450  1.0
  Cd  Cd533  1  0.15218600  0.97505233  0.10736450  1.0
  Cd  Cd534  1  0.48551933  0.30838567  0.10736450  1.0
  Cd  Cd535  1  0.48551933  0.64171900  0.10736450  1.0
  Cd  Cd536  1  0.48551933  0.97505233  0.10736450  1.0
  Cd  Cd537  1  0.81885267  0.30838567  0.10736450  1.0
  Cd  Cd538  1  0.81885267  0.64171900  0.10736450  1.0
  Cd  Cd539  1  0.81885267  0.97505233  0.10736450  1.0
  Cd  Cd540  1  0.05639867  0.14171900  0.00736450  1.0
  Cd  Cd541  1  0.05639867  0.47505233  0.00736450  1.0
  Cd  Cd542  1  0.05639867  0.80838567  0.00736450  1.0
  Cd  Cd543  1  0.38973200  0.14171900  0.00736450  1.0
  Cd  Cd544  1  0.38973200  0.47505233  0.00736450  1.0
  Cd  Cd545  1  0.38973200  0.80838567  0.00736450  1.0
  Cd  Cd546  1  0.72306533  0.14171900  0.00736450  1.0
  Cd  Cd547  1  0.72306533  0.47505233  0.00736450  1.0
  Cd  Cd548  1  0.72306533  0.80838567  0.00736450  1.0
  Cd  Cd549  1  0.05639867  0.30838567  0.10736450  1.0
  Cd  Cd550  1  0.05639867  0.64171900  0.10736450  1.0
  Cd  Cd551  1  0.05639867  0.97505233  0.10736450  1.0
  Cd  Cd552  1  0.38973200  0.30838567  0.10736450  1.0
  Cd  Cd553  1  0.38973200  0.64171900  0.10736450  1.0
  Cd  Cd554  1  0.38973200  0.97505233  0.10736450  1.0
  Cd  Cd555  1  0.72306533  0.30838567  0.10736450  1.0
  Cd  Cd556  1  0.72306533  0.64171900  0.10736450  1.0
  Cd  Cd557  1  0.72306533  0.97505233  0.10736450  1.0
  Cd  Cd558  1  0.28867767  0.09021633  0.19772530  1.0
  Cd  Cd559  1  0.28867767  0.42354967  0.19772530  1.0
  Cd  Cd560  1  0.28867767  0.75688300  0.19772530  1.0
  Cd  Cd561  1  0.62201100  0.09021633  0.19772530  1.0
  Cd  Cd562  1  0.62201100  0.42354967  0.19772530  1.0
  Cd  Cd563  1  0.62201100  0.75688300  0.19772530  1.0
  Cd  Cd564  1  0.95534433  0.09021633  0.19772530  1.0
  Cd  Cd565  1  0.95534433  0.42354967  0.19772530  1.0
  Cd  Cd566  1  0.95534433  0.75688300  0.19772530  1.0
  Cd  Cd567  1  0.28867767  0.25688300  0.09772530  1.0
  Cd  Cd568  1  0.28867767  0.59021633  0.09772530  1.0
  Cd  Cd569  1  0.28867767  0.92354967  0.09772530  1.0
  Cd  Cd570  1  0.62201100  0.25688300  0.09772530  1.0
  Cd  Cd571  1  0.62201100  0.59021633  0.09772530  1.0
  Cd  Cd572  1  0.62201100  0.92354967  0.09772530  1.0
  Cd  Cd573  1  0.95534433  0.25688300  0.09772530  1.0
  Cd  Cd574  1  0.95534433  0.59021633  0.09772530  1.0
  Cd  Cd575  1  0.95534433  0.92354967  0.09772530  1.0
  Cd  Cd576  1  0.18114733  0.14171900  0.15706290  1.0
  Cd  Cd577  1  0.18114733  0.47505233  0.15706290  1.0
  Cd  Cd578  1  0.18114733  0.80838567  0.15706290  1.0
  Cd  Cd579  1  0.51448067  0.14171900  0.15706290  1.0
  Cd  Cd580  1  0.51448067  0.47505233  0.15706290  1.0
  Cd  Cd581  1  0.51448067  0.80838567  0.15706290  1.0
  Cd  Cd582  1  0.84781400  0.14171900  0.15706290  1.0
  Cd  Cd583  1  0.84781400  0.47505233  0.15706290  1.0
  Cd  Cd584  1  0.84781400  0.80838567  0.15706290  1.0
  Cd  Cd585  1  0.18114733  0.30838567  0.05706290  1.0
  Cd  Cd586  1  0.18114733  0.64171900  0.05706290  1.0
  Cd  Cd587  1  0.18114733  0.97505233  0.05706290  1.0
  Cd  Cd588  1  0.51448067  0.30838567  0.05706290  1.0
  Cd  Cd589  1  0.51448067  0.64171900  0.05706290  1.0
  Cd  Cd590  1  0.51448067  0.97505233  0.05706290  1.0
  Cd  Cd591  1  0.84781400  0.30838567  0.05706290  1.0
  Cd  Cd592  1  0.84781400  0.64171900  0.05706290  1.0
  Cd  Cd593  1  0.84781400  0.97505233  0.05706290  1.0
  Cd  Cd594  1  0.27693467  0.14171900  0.15706290  1.0
  Cd  Cd595  1  0.27693467  0.47505233  0.15706290  1.0
  Cd  Cd596  1  0.27693467  0.80838567  0.15706290  1.0
  Cd  Cd597  1  0.61026800  0.14171900  0.15706290  1.0
  Cd  Cd598  1  0.61026800  0.47505233  0.15706290  1.0
  Cd  Cd599  1  0.61026800  0.80838567  0.15706290  1.0
  Cd  Cd600  1  0.94360133  0.14171900  0.15706290  1.0
  Cd  Cd601  1  0.94360133  0.47505233  0.15706290  1.0
  Cd  Cd602  1  0.94360133  0.80838567  0.15706290  1.0
  Cd  Cd603  1  0.27693467  0.30838567  0.05706290  1.0
  Cd  Cd604  1  0.27693467  0.64171900  0.05706290  1.0
  Cd  Cd605  1  0.27693467  0.97505233  0.05706290  1.0
  Cd  Cd606  1  0.61026800  0.30838567  0.05706290  1.0
  Cd  Cd607  1  0.61026800  0.64171900  0.05706290  1.0
  Cd  Cd608  1  0.61026800  0.97505233  0.05706290  1.0
  Cd  Cd609  1  0.94360133  0.30838567  0.05706290  1.0
  Cd  Cd610  1  0.94360133  0.64171900  0.05706290  1.0
  Cd  Cd611  1  0.94360133  0.97505233  0.05706290  1.0
  Cd  Cd612  1  0.11463367  0.11111111  0.06384897  1.0
  Cd  Cd613  1  0.11463367  0.44444444  0.06384897  1.0
  Cd  Cd614  1  0.11463367  0.77777778  0.06384897  1.0
  Cd  Cd615  1  0.44796700  0.11111111  0.06384897  1.0
  Cd  Cd616  1  0.44796700  0.44444444  0.06384897  1.0
  Cd  Cd617  1  0.44796700  0.77777778  0.06384897  1.0
  Cd  Cd618  1  0.78130033  0.11111111  0.06384897  1.0
  Cd  Cd619  1  0.78130033  0.44444444  0.06384897  1.0
  Cd  Cd620  1  0.78130033  0.77777778  0.06384897  1.0
  Cd  Cd621  1  0.11463367  0.27777778  0.16384897  1.0
  Cd  Cd622  1  0.11463367  0.61111111  0.16384897  1.0
  Cd  Cd623  1  0.11463367  0.94444444  0.16384897  1.0
  Cd  Cd624  1  0.44796700  0.27777778  0.16384897  1.0
  Cd  Cd625  1  0.44796700  0.61111111  0.16384897  1.0
  Cd  Cd626  1  0.44796700  0.94444444  0.16384897  1.0
  Cd  Cd627  1  0.78130033  0.27777778  0.16384897  1.0
  Cd  Cd628  1  0.78130033  0.61111111  0.16384897  1.0
  Cd  Cd629  1  0.78130033  0.94444444  0.16384897  1.0
  Cd  Cd630  1  0.21869967  0.11111111  0.06384897  1.0
  Cd  Cd631  1  0.21869967  0.44444444  0.06384897  1.0
  Cd  Cd632  1  0.21869967  0.77777778  0.06384897  1.0
  Cd  Cd633  1  0.55203300  0.11111111  0.06384897  1.0
  Cd  Cd634  1  0.55203300  0.44444444  0.06384897  1.0
  Cd  Cd635  1  0.55203300  0.77777778  0.06384897  1.0
  Cd  Cd636  1  0.88536633  0.11111111  0.06384897  1.0
  Cd  Cd637  1  0.88536633  0.44444444  0.06384897  1.0
  Cd  Cd638  1  0.88536633  0.77777778  0.06384897  1.0
  Cd  Cd639  1  0.21869967  0.27777778  0.16384897  1.0
  Cd  Cd640  1  0.21869967  0.61111111  0.16384897  1.0
  Cd  Cd641  1  0.21869967  0.94444444  0.16384897  1.0
  Cd  Cd642  1  0.55203300  0.27777778  0.16384897  1.0
  Cd  Cd643  1  0.55203300  0.61111111  0.16384897  1.0
  Cd  Cd644  1  0.55203300  0.94444444  0.16384897  1.0
  Cd  Cd645  1  0.88536633  0.27777778  0.16384897  1.0
  Cd  Cd646  1  0.88536633  0.61111111  0.16384897  1.0
  Cd  Cd647  1  0.88536633  0.94444444  0.16384897  1.0
  Cd  Cd648  1  0.22585733  0.05732967  0.10260890  1.0
  Cd  Cd649  1  0.22585733  0.39066300  0.10260890  1.0
  Cd  Cd650  1  0.22585733  0.72399633  0.10260890  1.0
  Cd  Cd651  1  0.55919067  0.05732967  0.10260890  1.0
  Cd  Cd652  1  0.55919067  0.39066300  0.10260890  1.0
  Cd  Cd653  1  0.55919067  0.72399633  0.10260890  1.0
  Cd  Cd654  1  0.89252400  0.05732967  0.10260890  1.0
  Cd  Cd655  1  0.89252400  0.39066300  0.10260890  1.0
  Cd  Cd656  1  0.89252400  0.72399633  0.10260890  1.0
  Cd  Cd657  1  0.22585733  0.22399633  0.00260890  1.0
  Cd  Cd658  1  0.22585733  0.55732967  0.00260890  1.0
  Cd  Cd659  1  0.22585733  0.89066300  0.00260890  1.0
  Cd  Cd660  1  0.55919067  0.22399633  0.00260890  1.0
  Cd  Cd661  1  0.55919067  0.55732967  0.00260890  1.0
  Cd  Cd662  1  0.55919067  0.89066300  0.00260890  1.0
  Cd  Cd663  1  0.89252400  0.22399633  0.00260890  1.0
  Cd  Cd664  1  0.89252400  0.55732967  0.00260890  1.0
  Cd  Cd665  1  0.89252400  0.89066300  0.00260890  1.0
  Cd  Cd666  1  0.10747600  0.05732967  0.16055130  1.0
  Cd  Cd667  1  0.10747600  0.39066300  0.16055130  1.0
  Cd  Cd668  1  0.10747600  0.72399633  0.16055130  1.0
  Cd  Cd669  1  0.44080933  0.05732967  0.16055130  1.0
  Cd  Cd670  1  0.44080933  0.39066300  0.16055130  1.0
  Cd  Cd671  1  0.44080933  0.72399633  0.16055130  1.0
  Cd  Cd672  1  0.77414267  0.05732967  0.16055130  1.0
  Cd  Cd673  1  0.77414267  0.39066300  0.16055130  1.0
  Cd  Cd674  1  0.77414267  0.72399633  0.16055130  1.0
  Cd  Cd675  1  0.10747600  0.22399633  0.06055130  1.0
  Cd  Cd676  1  0.10747600  0.55732967  0.06055130  1.0
  Cd  Cd677  1  0.10747600  0.89066300  0.06055130  1.0
  Cd  Cd678  1  0.44080933  0.22399633  0.06055130  1.0
  Cd  Cd679  1  0.44080933  0.55732967  0.06055130  1.0
  Cd  Cd680  1  0.44080933  0.89066300  0.06055130  1.0
  Cd  Cd681  1  0.77414267  0.22399633  0.06055130  1.0
  Cd  Cd682  1  0.77414267  0.55732967  0.06055130  1.0
  Cd  Cd683  1  0.77414267  0.89066300  0.06055130  1.0
  Cd  Cd684  1  0.30004267  0.00038233  0.19741170  1.0
  Cd  Cd685  1  0.30004267  0.33371567  0.19741170  1.0
  Cd  Cd686  1  0.30004267  0.66704900  0.19741170  1.0
  Cd  Cd687  1  0.63337600  0.00038233  0.19741170  1.0
  Cd  Cd688  1  0.63337600  0.33371567  0.19741170  1.0
  Cd  Cd689  1  0.63337600  0.66704900  0.19741170  1.0
  Cd  Cd690  1  0.96670933  0.00038233  0.19741170  1.0
  Cd  Cd691  1  0.96670933  0.33371567  0.19741170  1.0
  Cd  Cd692  1  0.96670933  0.66704900  0.19741170  1.0
  Cd  Cd693  1  0.30004267  0.16704900  0.09741170  1.0
  Cd  Cd694  1  0.30004267  0.50038233  0.09741170  1.0
  Cd  Cd695  1  0.30004267  0.83371567  0.09741170  1.0
  Cd  Cd696  1  0.63337600  0.16704900  0.09741170  1.0
  Cd  Cd697  1  0.63337600  0.50038233  0.09741170  1.0
  Cd  Cd698  1  0.63337600  0.83371567  0.09741170  1.0
  Cd  Cd699  1  0.96670933  0.16704900  0.09741170  1.0
  Cd  Cd700  1  0.96670933  0.50038233  0.09741170  1.0
  Cd  Cd701  1  0.96670933  0.83371567  0.09741170  1.0
  Cd  Cd702  1  0.03329067  0.00038233  0.19741170  1.0
  Cd  Cd703  1  0.03329067  0.33371567  0.19741170  1.0
  Cd  Cd704  1  0.03329067  0.66704900  0.19741170  1.0
  Cd  Cd705  1  0.36662400  0.00038233  0.19741170  1.0
  Cd  Cd706  1  0.36662400  0.33371567  0.19741170  1.0
  Cd  Cd707  1  0.36662400  0.66704900  0.19741170  1.0
  Cd  Cd708  1  0.69995733  0.00038233  0.19741170  1.0
  Cd  Cd709  1  0.69995733  0.33371567  0.19741170  1.0
  Cd  Cd710  1  0.69995733  0.66704900  0.19741170  1.0
  Cd  Cd711  1  0.03329067  0.16704900  0.09741170  1.0
  Cd  Cd712  1  0.03329067  0.50038233  0.09741170  1.0
  Cd  Cd713  1  0.03329067  0.83371567  0.09741170  1.0
  Cd  Cd714  1  0.36662400  0.16704900  0.09741170  1.0
  Cd  Cd715  1  0.36662400  0.50038233  0.09741170  1.0
  Cd  Cd716  1  0.36662400  0.83371567  0.09741170  1.0
  Cd  Cd717  1  0.69995733  0.16704900  0.09741170  1.0
  Cd  Cd718  1  0.69995733  0.50038233  0.09741170  1.0
  Cd  Cd719  1  0.69995733  0.83371567  0.09741170  1.0
  Ni  Ni720  1  0.06178867  0.13258733  0.15088110  1.0
  Ni  Ni721  1  0.06178867  0.46592067  0.15088110  1.0
  Ni  Ni722  1  0.06178867  0.79925400  0.15088110  1.0
  Ni  Ni723  1  0.39512200  0.13258733  0.15088110  1.0
  Ni  Ni724  1  0.39512200  0.46592067  0.15088110  1.0
  Ni  Ni725  1  0.39512200  0.79925400  0.15088110  1.0
  Ni  Ni726  1  0.72845533  0.13258733  0.15088110  1.0
  Ni  Ni727  1  0.72845533  0.46592067  0.15088110  1.0
  Ni  Ni728  1  0.72845533  0.79925400  0.15088110  1.0
  Ni  Ni729  1  0.06178867  0.29925400  0.05088110  1.0
  Ni  Ni730  1  0.06178867  0.63258733  0.05088110  1.0
  Ni  Ni731  1  0.06178867  0.96592067  0.05088110  1.0
  Ni  Ni732  1  0.39512200  0.29925400  0.05088110  1.0
  Ni  Ni733  1  0.39512200  0.63258733  0.05088110  1.0
  Ni  Ni734  1  0.39512200  0.96592067  0.05088110  1.0
  Ni  Ni735  1  0.72845533  0.29925400  0.05088110  1.0
  Ni  Ni736  1  0.72845533  0.63258733  0.05088110  1.0
  Ni  Ni737  1  0.72845533  0.96592067  0.05088110  1.0
  Ni  Ni738  1  0.27154467  0.13258733  0.00258830  1.0
  Ni  Ni739  1  0.27154467  0.46592067  0.00258830  1.0
  Ni  Ni740  1  0.27154467  0.79925400  0.00258830  1.0
  Ni  Ni741  1  0.60487800  0.13258733  0.00258830  1.0
  Ni  Ni742  1  0.60487800  0.46592067  0.00258830  1.0
  Ni  Ni743  1  0.60487800  0.79925400  0.00258830  1.0
  Ni  Ni744  1  0.93821133  0.13258733  0.00258830  1.0
  Ni  Ni745  1  0.93821133  0.46592067  0.00258830  1.0
  Ni  Ni746  1  0.93821133  0.79925400  0.00258830  1.0
  Ni  Ni747  1  0.27154467  0.29925400  0.10258830  1.0
  Ni  Ni748  1  0.27154467  0.63258733  0.10258830  1.0
  Ni  Ni749  1  0.27154467  0.96592067  0.10258830  1.0
  Ni  Ni750  1  0.60487800  0.29925400  0.10258830  1.0
  Ni  Ni751  1  0.60487800  0.63258733  0.10258830  1.0
  Ni  Ni752  1  0.60487800  0.96592067  0.10258830  1.0
  Ni  Ni753  1  0.93821133  0.29925400  0.10258830  1.0
  Ni  Ni754  1  0.93821133  0.63258733  0.10258830  1.0
  Ni  Ni755  1  0.93821133  0.96592067  0.10258830  1.0
  Ni  Ni756  1  0.12029267  0.00126467  0.06540350  1.0
  Ni  Ni757  1  0.12029267  0.33459800  0.06540350  1.0
  Ni  Ni758  1  0.12029267  0.66793133  0.06540350  1.0
  Ni  Ni759  1  0.45362600  0.00126467  0.06540350  1.0
  Ni  Ni760  1  0.45362600  0.33459800  0.06540350  1.0
  Ni  Ni761  1  0.45362600  0.66793133  0.06540350  1.0
  Ni  Ni762  1  0.78695933  0.00126467  0.06540350  1.0
  Ni  Ni763  1  0.78695933  0.33459800  0.06540350  1.0
  Ni  Ni764  1  0.78695933  0.66793133  0.06540350  1.0
  Ni  Ni765  1  0.12029267  0.16793133  0.16540350  1.0
  Ni  Ni766  1  0.12029267  0.50126467  0.16540350  1.0
  Ni  Ni767  1  0.12029267  0.83459800  0.16540350  1.0
  Ni  Ni768  1  0.45362600  0.16793133  0.16540350  1.0
  Ni  Ni769  1  0.45362600  0.50126467  0.16540350  1.0
  Ni  Ni770  1  0.45362600  0.83459800  0.16540350  1.0
  Ni  Ni771  1  0.78695933  0.16793133  0.16540350  1.0
  Ni  Ni772  1  0.78695933  0.50126467  0.16540350  1.0
  Ni  Ni773  1  0.78695933  0.83459800  0.16540350  1.0
  Ni  Ni774  1  0.00785533  0.00126467  0.13047870  1.0
  Ni  Ni775  1  0.00785533  0.33459800  0.13047870  1.0
  Ni  Ni776  1  0.00785533  0.66793133  0.13047870  1.0
  Ni  Ni777  1  0.34118867  0.00126467  0.13047870  1.0
  Ni  Ni778  1  0.34118867  0.33459800  0.13047870  1.0
  Ni  Ni779  1  0.34118867  0.66793133  0.13047870  1.0
  Ni  Ni780  1  0.67452200  0.00126467  0.13047870  1.0
  Ni  Ni781  1  0.67452200  0.33459800  0.13047870  1.0
  Ni  Ni782  1  0.67452200  0.66793133  0.13047870  1.0
  Ni  Ni783  1  0.00785533  0.16793133  0.03047870  1.0
  Ni  Ni784  1  0.00785533  0.50126467  0.03047870  1.0
  Ni  Ni785  1  0.00785533  0.83459800  0.03047870  1.0
  Ni  Ni786  1  0.34118867  0.16793133  0.03047870  1.0
  Ni  Ni787  1  0.34118867  0.50126467  0.03047870  1.0
  Ni  Ni788  1  0.34118867  0.83459800  0.03047870  1.0
  Ni  Ni789  1  0.67452200  0.16793133  0.03047870  1.0
  Ni  Ni790  1  0.67452200  0.50126467  0.03047870  1.0
  Ni  Ni791  1  0.67452200  0.83459800  0.03047870  1.0
  Ni  Ni792  1  0.00000000  0.12566533  0.07258150  1.0
  Ni  Ni793  1  0.00000000  0.45899867  0.07258150  1.0
  Ni  Ni794  1  0.00000000  0.79233200  0.07258150  1.0
  Ni  Ni795  1  0.33333333  0.12566533  0.07258150  1.0
  Ni  Ni796  1  0.33333333  0.45899867  0.07258150  1.0
  Ni  Ni797  1  0.33333333  0.79233200  0.07258150  1.0
  Ni  Ni798  1  0.66666667  0.12566533  0.07258150  1.0
  Ni  Ni799  1  0.66666667  0.45899867  0.07258150  1.0
  Ni  Ni800  1  0.66666667  0.79233200  0.07258150  1.0
  Ni  Ni801  1  0.00000000  0.29233200  0.17258150  1.0
  Ni  Ni802  1  0.00000000  0.62566533  0.17258150  1.0
  Ni  Ni803  1  0.00000000  0.95899867  0.17258150  1.0
  Ni  Ni804  1  0.33333333  0.29233200  0.17258150  1.0
  Ni  Ni805  1  0.33333333  0.62566533  0.17258150  1.0
  Ni  Ni806  1  0.33333333  0.95899867  0.17258150  1.0
  Ni  Ni807  1  0.66666667  0.29233200  0.17258150  1.0
  Ni  Ni808  1  0.66666667  0.62566533  0.17258150  1.0
  Ni  Ni809  1  0.66666667  0.95899867  0.17258150  1.0
  Ni  Ni810  1  0.21304067  0.00126467  0.13047870  1.0
  Ni  Ni811  1  0.21304067  0.33459800  0.13047870  1.0
  Ni  Ni812  1  0.21304067  0.66793133  0.13047870  1.0
  Ni  Ni813  1  0.54637400  0.00126467  0.13047870  1.0
  Ni  Ni814  1  0.54637400  0.33459800  0.13047870  1.0
  Ni  Ni815  1  0.54637400  0.66793133  0.13047870  1.0
  Ni  Ni816  1  0.87970733  0.00126467  0.13047870  1.0
  Ni  Ni817  1  0.87970733  0.33459800  0.13047870  1.0
  Ni  Ni818  1  0.87970733  0.66793133  0.13047870  1.0
  Ni  Ni819  1  0.21304067  0.16793133  0.03047870  1.0
  Ni  Ni820  1  0.21304067  0.50126467  0.03047870  1.0
  Ni  Ni821  1  0.21304067  0.83459800  0.03047870  1.0
  Ni  Ni822  1  0.54637400  0.16793133  0.03047870  1.0
  Ni  Ni823  1  0.54637400  0.50126467  0.03047870  1.0
  Ni  Ni824  1  0.54637400  0.83459800  0.03047870  1.0
  Ni  Ni825  1  0.87970733  0.16793133  0.03047870  1.0
  Ni  Ni826  1  0.87970733  0.50126467  0.03047870  1.0
  Ni  Ni827  1  0.87970733  0.83459800  0.03047870  1.0
  Ni  Ni828  1  0.32547800  0.00126467  0.06540350  1.0
  Ni  Ni829  1  0.32547800  0.33459800  0.06540350  1.0
  Ni  Ni830  1  0.32547800  0.66793133  0.06540350  1.0
  Ni  Ni831  1  0.65881133  0.00126467  0.06540350  1.0
  Ni  Ni832  1  0.65881133  0.33459800  0.06540350  1.0
  Ni  Ni833  1  0.65881133  0.66793133  0.06540350  1.0
  Ni  Ni834  1  0.99214467  0.00126467  0.06540350  1.0
  Ni  Ni835  1  0.99214467  0.33459800  0.06540350  1.0
  Ni  Ni836  1  0.99214467  0.66793133  0.06540350  1.0
  Ni  Ni837  1  0.32547800  0.16793133  0.16540350  1.0
  Ni  Ni838  1  0.32547800  0.50126467  0.16540350  1.0
  Ni  Ni839  1  0.32547800  0.83459800  0.16540350  1.0
  Ni  Ni840  1  0.65881133  0.16793133  0.16540350  1.0
  Ni  Ni841  1  0.65881133  0.50126467  0.16540350  1.0
  Ni  Ni842  1  0.65881133  0.83459800  0.16540350  1.0
  Ni  Ni843  1  0.99214467  0.16793133  0.16540350  1.0
  Ni  Ni844  1  0.99214467  0.50126467  0.16540350  1.0
  Ni  Ni845  1  0.99214467  0.83459800  0.16540350  1.0
  Ni  Ni846  1  0.00000000  0.05881617  0.03247200  1.0
  Ni  Ni847  1  0.00000000  0.39214950  0.03247200  1.0
  Ni  Ni848  1  0.00000000  0.72548283  0.03247200  1.0
  Ni  Ni849  1  0.33333333  0.05881617  0.03247200  1.0
  Ni  Ni850  1  0.33333333  0.39214950  0.03247200  1.0
  Ni  Ni851  1  0.33333333  0.72548283  0.03247200  1.0
  Ni  Ni852  1  0.66666667  0.05881617  0.03247200  1.0
  Ni  Ni853  1  0.66666667  0.39214950  0.03247200  1.0
  Ni  Ni854  1  0.66666667  0.72548283  0.03247200  1.0
  Ni  Ni855  1  0.00000000  0.22548283  0.13247200  1.0
  Ni  Ni856  1  0.00000000  0.55881617  0.13247200  1.0
  Ni  Ni857  1  0.00000000  0.89214950  0.13247200  1.0
  Ni  Ni858  1  0.33333333  0.22548283  0.13247200  1.0
  Ni  Ni859  1  0.33333333  0.55881617  0.13247200  1.0
  Ni  Ni860  1  0.33333333  0.89214950  0.13247200  1.0
  Ni  Ni861  1  0.66666667  0.22548283  0.13247200  1.0
  Ni  Ni862  1  0.66666667  0.55881617  0.13247200  1.0
  Ni  Ni863  1  0.66666667  0.89214950  0.13247200  1.0
  Cd  Cd864  1  0.28757500  0.08348467  0.31914350  1.0
  Cd  Cd865  1  0.28757500  0.41681800  0.31914350  1.0
  Cd  Cd866  1  0.28757500  0.75015133  0.31914350  1.0
  Cd  Cd867  1  0.62090833  0.08348467  0.31914350  1.0
  Cd  Cd868  1  0.62090833  0.41681800  0.31914350  1.0
  Cd  Cd869  1  0.62090833  0.75015133  0.31914350  1.0
  Cd  Cd870  1  0.95424167  0.08348467  0.31914350  1.0
  Cd  Cd871  1  0.95424167  0.41681800  0.31914350  1.0
  Cd  Cd872  1  0.95424167  0.75015133  0.31914350  1.0
  Cd  Cd873  1  0.28757500  0.25015133  0.21914350  1.0
  Cd  Cd874  1  0.28757500  0.58348467  0.21914350  1.0
  Cd  Cd875  1  0.28757500  0.91681800  0.21914350  1.0
  Cd  Cd876  1  0.62090833  0.25015133  0.21914350  1.0
  Cd  Cd877  1  0.62090833  0.58348467  0.21914350  1.0
  Cd  Cd878  1  0.62090833  0.91681800  0.21914350  1.0
  Cd  Cd879  1  0.95424167  0.25015133  0.21914350  1.0
  Cd  Cd880  1  0.95424167  0.58348467  0.21914350  1.0
  Cd  Cd881  1  0.95424167  0.91681800  0.21914350  1.0
  Cd  Cd882  1  0.16779100  0.08348467  0.37540270  1.0
  Cd  Cd883  1  0.16779100  0.41681800  0.37540270  1.0
  Cd  Cd884  1  0.16779100  0.75015133  0.37540270  1.0
  Cd  Cd885  1  0.50112433  0.08348467  0.37540270  1.0
  Cd  Cd886  1  0.50112433  0.41681800  0.37540270  1.0
  Cd  Cd887  1  0.50112433  0.75015133  0.37540270  1.0
  Cd  Cd888  1  0.83445767  0.08348467  0.37540270  1.0
  Cd  Cd889  1  0.83445767  0.41681800  0.37540270  1.0
  Cd  Cd890  1  0.83445767  0.75015133  0.37540270  1.0
  Cd  Cd891  1  0.16779100  0.25015133  0.27540270  1.0
  Cd  Cd892  1  0.16779100  0.58348467  0.27540270  1.0
  Cd  Cd893  1  0.16779100  0.91681800  0.27540270  1.0
  Cd  Cd894  1  0.50112433  0.25015133  0.27540270  1.0
  Cd  Cd895  1  0.50112433  0.58348467  0.27540270  1.0
  Cd  Cd896  1  0.50112433  0.91681800  0.27540270  1.0
  Cd  Cd897  1  0.83445767  0.25015133  0.27540270  1.0
  Cd  Cd898  1  0.83445767  0.58348467  0.27540270  1.0
  Cd  Cd899  1  0.83445767  0.91681800  0.27540270  1.0
  Cd  Cd900  1  0.16666667  0.02330217  0.21116360  1.0
  Cd  Cd901  1  0.16666667  0.35663550  0.21116360  1.0
  Cd  Cd902  1  0.16666667  0.68996883  0.21116360  1.0
  Cd  Cd903  1  0.50000000  0.02330217  0.21116360  1.0
  Cd  Cd904  1  0.50000000  0.35663550  0.21116360  1.0
  Cd  Cd905  1  0.50000000  0.68996883  0.21116360  1.0
  Cd  Cd906  1  0.83333333  0.02330217  0.21116360  1.0
  Cd  Cd907  1  0.83333333  0.35663550  0.21116360  1.0
  Cd  Cd908  1  0.83333333  0.68996883  0.21116360  1.0
  Cd  Cd909  1  0.16666667  0.18996883  0.31116360  1.0
  Cd  Cd910  1  0.16666667  0.52330217  0.31116360  1.0
  Cd  Cd911  1  0.16666667  0.85663550  0.31116360  1.0
  Cd  Cd912  1  0.50000000  0.18996883  0.31116360  1.0
  Cd  Cd913  1  0.50000000  0.52330217  0.31116360  1.0
  Cd  Cd914  1  0.50000000  0.85663550  0.31116360  1.0
  Cd  Cd915  1  0.83333333  0.18996883  0.31116360  1.0
  Cd  Cd916  1  0.83333333  0.52330217  0.31116360  1.0
  Cd  Cd917  1  0.83333333  0.85663550  0.31116360  1.0
  Cd  Cd918  1  0.04575833  0.08348467  0.37540270  1.0
  Cd  Cd919  1  0.04575833  0.41681800  0.37540270  1.0
  Cd  Cd920  1  0.04575833  0.75015133  0.37540270  1.0
  Cd  Cd921  1  0.37909167  0.08348467  0.37540270  1.0
  Cd  Cd922  1  0.37909167  0.41681800  0.37540270  1.0
  Cd  Cd923  1  0.37909167  0.75015133  0.37540270  1.0
  Cd  Cd924  1  0.71242500  0.08348467  0.37540270  1.0
  Cd  Cd925  1  0.71242500  0.41681800  0.37540270  1.0
  Cd  Cd926  1  0.71242500  0.75015133  0.37540270  1.0
  Cd  Cd927  1  0.04575833  0.25015133  0.27540270  1.0
  Cd  Cd928  1  0.04575833  0.58348467  0.27540270  1.0
  Cd  Cd929  1  0.04575833  0.91681800  0.27540270  1.0
  Cd  Cd930  1  0.37909167  0.25015133  0.27540270  1.0
  Cd  Cd931  1  0.37909167  0.58348467  0.27540270  1.0
  Cd  Cd932  1  0.37909167  0.91681800  0.27540270  1.0
  Cd  Cd933  1  0.71242500  0.25015133  0.27540270  1.0
  Cd  Cd934  1  0.71242500  0.58348467  0.27540270  1.0
  Cd  Cd935  1  0.71242500  0.91681800  0.27540270  1.0
  Cd  Cd936  1  0.16554233  0.08348467  0.31914350  1.0
  Cd  Cd937  1  0.16554233  0.41681800  0.31914350  1.0
  Cd  Cd938  1  0.16554233  0.75015133  0.31914350  1.0
  Cd  Cd939  1  0.49887567  0.08348467  0.31914350  1.0
  Cd  Cd940  1  0.49887567  0.41681800  0.31914350  1.0
  Cd  Cd941  1  0.49887567  0.75015133  0.31914350  1.0
  Cd  Cd942  1  0.83220900  0.08348467  0.31914350  1.0
  Cd  Cd943  1  0.83220900  0.41681800  0.31914350  1.0
  Cd  Cd944  1  0.83220900  0.75015133  0.31914350  1.0
  Cd  Cd945  1  0.16554233  0.25015133  0.21914350  1.0
  Cd  Cd946  1  0.16554233  0.58348467  0.21914350  1.0
  Cd  Cd947  1  0.16554233  0.91681800  0.21914350  1.0
  Cd  Cd948  1  0.49887567  0.25015133  0.21914350  1.0
  Cd  Cd949  1  0.49887567  0.58348467  0.21914350  1.0
  Cd  Cd950  1  0.49887567  0.91681800  0.21914350  1.0
  Cd  Cd951  1  0.83220900  0.25015133  0.21914350  1.0
  Cd  Cd952  1  0.83220900  0.58348467  0.21914350  1.0
  Cd  Cd953  1  0.83220900  0.91681800  0.21914350  1.0
  Cd  Cd954  1  0.16666667  0.14337517  0.28320740  1.0
  Cd  Cd955  1  0.16666667  0.47670850  0.28320740  1.0
  Cd  Cd956  1  0.16666667  0.81004183  0.28320740  1.0
  Cd  Cd957  1  0.50000000  0.14337517  0.28320740  1.0
  Cd  Cd958  1  0.50000000  0.47670850  0.28320740  1.0
  Cd  Cd959  1  0.50000000  0.81004183  0.28320740  1.0
  Cd  Cd960  1  0.83333333  0.14337517  0.28320740  1.0
  Cd  Cd961  1  0.83333333  0.47670850  0.28320740  1.0
  Cd  Cd962  1  0.83333333  0.81004183  0.28320740  1.0
  Cd  Cd963  1  0.16666667  0.31004183  0.38320740  1.0
  Cd  Cd964  1  0.16666667  0.64337517  0.38320740  1.0
  Cd  Cd965  1  0.16666667  0.97670850  0.38320740  1.0
  Cd  Cd966  1  0.50000000  0.31004183  0.38320740  1.0
  Cd  Cd967  1  0.50000000  0.64337517  0.38320740  1.0
  Cd  Cd968  1  0.50000000  0.97670850  0.38320740  1.0
  Cd  Cd969  1  0.83333333  0.31004183  0.38320740  1.0
  Cd  Cd970  1  0.83333333  0.64337517  0.38320740  1.0
  Cd  Cd971  1  0.83333333  0.97670850  0.38320740  1.0
  Cd  Cd972  1  0.10080733  0.16549433  0.29647890  1.0
  Cd  Cd973  1  0.10080733  0.49882767  0.29647890  1.0
  Cd  Cd974  1  0.10080733  0.83216100  0.29647890  1.0
  Cd  Cd975  1  0.43414067  0.16549433  0.29647890  1.0
  Cd  Cd976  1  0.43414067  0.49882767  0.29647890  1.0
  Cd  Cd977  1  0.43414067  0.83216100  0.29647890  1.0
  Cd  Cd978  1  0.76747400  0.16549433  0.29647890  1.0
  Cd  Cd979  1  0.76747400  0.49882767  0.29647890  1.0
  Cd  Cd980  1  0.76747400  0.83216100  0.29647890  1.0
  Cd  Cd981  1  0.10080733  0.33216100  0.39647890  1.0
  Cd  Cd982  1  0.10080733  0.66549433  0.39647890  1.0
  Cd  Cd983  1  0.10080733  0.99882767  0.39647890  1.0
  Cd  Cd984  1  0.43414067  0.33216100  0.39647890  1.0
  Cd  Cd985  1  0.43414067  0.66549433  0.39647890  1.0
  Cd  Cd986  1  0.43414067  0.99882767  0.39647890  1.0
  Cd  Cd987  1  0.76747400  0.33216100  0.39647890  1.0
  Cd  Cd988  1  0.76747400  0.66549433  0.39647890  1.0
  Cd  Cd989  1  0.76747400  0.99882767  0.39647890  1.0
  Cd  Cd990  1  0.01808500  0.12482317  0.22795100  1.0
  Cd  Cd991  1  0.01808500  0.45815650  0.22795100  1.0
  Cd  Cd992  1  0.01808500  0.79148983  0.22795100  1.0
  Cd  Cd993  1  0.35141833  0.12482317  0.22795100  1.0
  Cd  Cd994  1  0.35141833  0.45815650  0.22795100  1.0
  Cd  Cd995  1  0.35141833  0.79148983  0.22795100  1.0
  Cd  Cd996  1  0.68475167  0.12482317  0.22795100  1.0
  Cd  Cd997  1  0.68475167  0.45815650  0.22795100  1.0
  Cd  Cd998  1  0.68475167  0.79148983  0.22795100  1.0
  Cd  Cd999  1  0.01808500  0.29148983  0.32795100  1.0
  Cd  Cd1000  1  0.01808500  0.62482317  0.32795100  1.0
  Cd  Cd1001  1  0.01808500  0.95815650  0.32795100  1.0
  Cd  Cd1002  1  0.35141833  0.29148983  0.32795100  1.0
  Cd  Cd1003  1  0.35141833  0.62482317  0.32795100  1.0
  Cd  Cd1004  1  0.35141833  0.95815650  0.32795100  1.0
  Cd  Cd1005  1  0.68475167  0.29148983  0.32795100  1.0
  Cd  Cd1006  1  0.68475167  0.62482317  0.32795100  1.0
  Cd  Cd1007  1  0.68475167  0.95815650  0.32795100  1.0
  Cd  Cd1008  1  0.09162700  0.12482317  0.31620140  1.0
  Cd  Cd1009  1  0.09162700  0.45815650  0.31620140  1.0
  Cd  Cd1010  1  0.09162700  0.79148983  0.31620140  1.0
  Cd  Cd1011  1  0.42496033  0.12482317  0.31620140  1.0
  Cd  Cd1012  1  0.42496033  0.45815650  0.31620140  1.0
  Cd  Cd1013  1  0.42496033  0.79148983  0.31620140  1.0
  Cd  Cd1014  1  0.75829367  0.12482317  0.31620140  1.0
  Cd  Cd1015  1  0.75829367  0.45815650  0.31620140  1.0
  Cd  Cd1016  1  0.75829367  0.79148983  0.31620140  1.0
  Cd  Cd1017  1  0.09162700  0.29148983  0.21620140  1.0
  Cd  Cd1018  1  0.09162700  0.62482317  0.21620140  1.0
  Cd  Cd1019  1  0.09162700  0.95815650  0.21620140  1.0
  Cd  Cd1020  1  0.42496033  0.29148983  0.21620140  1.0
  Cd  Cd1021  1  0.42496033  0.62482317  0.21620140  1.0
  Cd  Cd1022  1  0.42496033  0.95815650  0.21620140  1.0
  Cd  Cd1023  1  0.75829367  0.29148983  0.21620140  1.0
  Cd  Cd1024  1  0.75829367  0.62482317  0.21620140  1.0
  Cd  Cd1025  1  0.75829367  0.95815650  0.21620140  1.0
  Cd  Cd1026  1  0.23252600  0.16549433  0.29647890  1.0
  Cd  Cd1027  1  0.23252600  0.49882767  0.29647890  1.0
  Cd  Cd1028  1  0.23252600  0.83216100  0.29647890  1.0
  Cd  Cd1029  1  0.56585933  0.16549433  0.29647890  1.0
  Cd  Cd1030  1  0.56585933  0.49882767  0.29647890  1.0
  Cd  Cd1031  1  0.56585933  0.83216100  0.29647890  1.0
  Cd  Cd1032  1  0.89919267  0.16549433  0.29647890  1.0
  Cd  Cd1033  1  0.89919267  0.49882767  0.29647890  1.0
  Cd  Cd1034  1  0.89919267  0.83216100  0.29647890  1.0
  Cd  Cd1035  1  0.23252600  0.33216100  0.39647890  1.0
  Cd  Cd1036  1  0.23252600  0.66549433  0.39647890  1.0
  Cd  Cd1037  1  0.23252600  0.99882767  0.39647890  1.0
  Cd  Cd1038  1  0.56585933  0.33216100  0.39647890  1.0
  Cd  Cd1039  1  0.56585933  0.66549433  0.39647890  1.0
  Cd  Cd1040  1  0.56585933  0.99882767  0.39647890  1.0
  Cd  Cd1041  1  0.89919267  0.33216100  0.39647890  1.0
  Cd  Cd1042  1  0.89919267  0.66549433  0.39647890  1.0
  Cd  Cd1043  1  0.89919267  0.99882767  0.39647890  1.0
  Cd  Cd1044  1  0.31524833  0.12482317  0.31620140  1.0
  Cd  Cd1045  1  0.31524833  0.45815650  0.31620140  1.0
  Cd  Cd1046  1  0.31524833  0.79148983  0.31620140  1.0
  Cd  Cd1047  1  0.64858167  0.12482317  0.31620140  1.0
  Cd  Cd1048  1  0.64858167  0.45815650  0.31620140  1.0
  Cd  Cd1049  1  0.64858167  0.79148983  0.31620140  1.0
  Cd  Cd1050  1  0.98191500  0.12482317  0.31620140  1.0
  Cd  Cd1051  1  0.98191500  0.45815650  0.31620140  1.0
  Cd  Cd1052  1  0.98191500  0.79148983  0.31620140  1.0
  Cd  Cd1053  1  0.31524833  0.29148983  0.21620140  1.0
  Cd  Cd1054  1  0.31524833  0.62482317  0.21620140  1.0
  Cd  Cd1055  1  0.31524833  0.95815650  0.21620140  1.0
  Cd  Cd1056  1  0.64858167  0.29148983  0.21620140  1.0
  Cd  Cd1057  1  0.64858167  0.62482317  0.21620140  1.0
  Cd  Cd1058  1  0.64858167  0.95815650  0.21620140  1.0
  Cd  Cd1059  1  0.98191500  0.29148983  0.21620140  1.0
  Cd  Cd1060  1  0.98191500  0.62482317  0.21620140  1.0
  Cd  Cd1061  1  0.98191500  0.95815650  0.21620140  1.0
  Cd  Cd1062  1  0.24170633  0.12482317  0.22795100  1.0
  Cd  Cd1063  1  0.24170633  0.45815650  0.22795100  1.0
  Cd  Cd1064  1  0.24170633  0.79148983  0.22795100  1.0
  Cd  Cd1065  1  0.57503967  0.12482317  0.22795100  1.0
  Cd  Cd1066  1  0.57503967  0.45815650  0.22795100  1.0
  Cd  Cd1067  1  0.57503967  0.79148983  0.22795100  1.0
  Cd  Cd1068  1  0.90837300  0.12482317  0.22795100  1.0
  Cd  Cd1069  1  0.90837300  0.45815650  0.22795100  1.0
  Cd  Cd1070  1  0.90837300  0.79148983  0.22795100  1.0
  Cd  Cd1071  1  0.24170633  0.29148983  0.32795100  1.0
  Cd  Cd1072  1  0.24170633  0.62482317  0.32795100  1.0
  Cd  Cd1073  1  0.24170633  0.95815650  0.32795100  1.0
  Cd  Cd1074  1  0.57503967  0.29148983  0.32795100  1.0
  Cd  Cd1075  1  0.57503967  0.62482317  0.32795100  1.0
  Cd  Cd1076  1  0.57503967  0.95815650  0.32795100  1.0
  Cd  Cd1077  1  0.90837300  0.29148983  0.32795100  1.0
  Cd  Cd1078  1  0.90837300  0.62482317  0.32795100  1.0
  Cd  Cd1079  1  0.90837300  0.95815650  0.32795100  1.0
  Cd  Cd1080  1  0.26618133  0.00844267  0.32166550  1.0
  Cd  Cd1081  1  0.26618133  0.34177600  0.32166550  1.0
  Cd  Cd1082  1  0.26618133  0.67510933  0.32166550  1.0
  Cd  Cd1083  1  0.59951467  0.00844267  0.32166550  1.0
  Cd  Cd1084  1  0.59951467  0.34177600  0.32166550  1.0
  Cd  Cd1085  1  0.59951467  0.67510933  0.32166550  1.0
  Cd  Cd1086  1  0.93284800  0.00844267  0.32166550  1.0
  Cd  Cd1087  1  0.93284800  0.34177600  0.32166550  1.0
  Cd  Cd1088  1  0.93284800  0.67510933  0.32166550  1.0
  Cd  Cd1089  1  0.26618133  0.17510933  0.22166550  1.0
  Cd  Cd1090  1  0.26618133  0.50844267  0.22166550  1.0
  Cd  Cd1091  1  0.26618133  0.84177600  0.22166550  1.0
  Cd  Cd1092  1  0.59951467  0.17510933  0.22166550  1.0
  Cd  Cd1093  1  0.59951467  0.50844267  0.22166550  1.0
  Cd  Cd1094  1  0.59951467  0.84177600  0.22166550  1.0
  Cd  Cd1095  1  0.93284800  0.17510933  0.22166550  1.0
  Cd  Cd1096  1  0.93284800  0.50844267  0.22166550  1.0
  Cd  Cd1097  1  0.93284800  0.84177600  0.22166550  1.0
  Cd  Cd1098  1  0.00175833  0.04339900  0.37392270  1.0
  Cd  Cd1099  1  0.00175833  0.37673233  0.37392270  1.0
  Cd  Cd1100  1  0.00175833  0.71006567  0.37392270  1.0
  Cd  Cd1101  1  0.33509167  0.04339900  0.37392270  1.0
  Cd  Cd1102  1  0.33509167  0.37673233  0.37392270  1.0
  Cd  Cd1103  1  0.33509167  0.71006567  0.37392270  1.0
  Cd  Cd1104  1  0.66842500  0.04339900  0.37392270  1.0
  Cd  Cd1105  1  0.66842500  0.37673233  0.37392270  1.0
  Cd  Cd1106  1  0.66842500  0.71006567  0.37392270  1.0
  Cd  Cd1107  1  0.00175833  0.21006567  0.27392270  1.0
  Cd  Cd1108  1  0.00175833  0.54339900  0.27392270  1.0
  Cd  Cd1109  1  0.00175833  0.87673233  0.27392270  1.0
  Cd  Cd1110  1  0.33509167  0.21006567  0.27392270  1.0
  Cd  Cd1111  1  0.33509167  0.54339900  0.27392270  1.0
  Cd  Cd1112  1  0.33509167  0.87673233  0.27392270  1.0
  Cd  Cd1113  1  0.66842500  0.21006567  0.27392270  1.0
  Cd  Cd1114  1  0.66842500  0.54339900  0.27392270  1.0
  Cd  Cd1115  1  0.66842500  0.87673233  0.27392270  1.0
  Cd  Cd1116  1  0.24941000  0.04339900  0.37392270  1.0
  Cd  Cd1117  1  0.24941000  0.37673233  0.37392270  1.0
  Cd  Cd1118  1  0.24941000  0.71006567  0.37392270  1.0
  Cd  Cd1119  1  0.58274333  0.04339900  0.37392270  1.0
  Cd  Cd1120  1  0.58274333  0.37673233  0.37392270  1.0
  Cd  Cd1121  1  0.58274333  0.71006567  0.37392270  1.0
  Cd  Cd1122  1  0.91607667  0.04339900  0.37392270  1.0
  Cd  Cd1123  1  0.91607667  0.37673233  0.37392270  1.0
  Cd  Cd1124  1  0.91607667  0.71006567  0.37392270  1.0
  Cd  Cd1125  1  0.24941000  0.21006567  0.27392270  1.0
  Cd  Cd1126  1  0.24941000  0.54339900  0.27392270  1.0
  Cd  Cd1127  1  0.24941000  0.87673233  0.27392270  1.0
  Cd  Cd1128  1  0.58274333  0.21006567  0.27392270  1.0
  Cd  Cd1129  1  0.58274333  0.54339900  0.27392270  1.0
  Cd  Cd1130  1  0.58274333  0.87673233  0.27392270  1.0
  Cd  Cd1131  1  0.91607667  0.21006567  0.27392270  1.0
  Cd  Cd1132  1  0.91607667  0.54339900  0.27392270  1.0
  Cd  Cd1133  1  0.91607667  0.87673233  0.27392270  1.0
  Cd  Cd1134  1  0.06715200  0.00844267  0.28283030  1.0
  Cd  Cd1135  1  0.06715200  0.34177600  0.28283030  1.0
  Cd  Cd1136  1  0.06715200  0.67510933  0.28283030  1.0
  Cd  Cd1137  1  0.40048533  0.00844267  0.28283030  1.0
  Cd  Cd1138  1  0.40048533  0.34177600  0.28283030  1.0
  Cd  Cd1139  1  0.40048533  0.67510933  0.28283030  1.0
  Cd  Cd1140  1  0.73381867  0.00844267  0.28283030  1.0
  Cd  Cd1141  1  0.73381867  0.34177600  0.28283030  1.0
  Cd  Cd1142  1  0.73381867  0.67510933  0.28283030  1.0
  Cd  Cd1143  1  0.06715200  0.17510933  0.38283030  1.0
  Cd  Cd1144  1  0.06715200  0.50844267  0.38283030  1.0
  Cd  Cd1145  1  0.06715200  0.84177600  0.38283030  1.0
  Cd  Cd1146  1  0.40048533  0.17510933  0.38283030  1.0
  Cd  Cd1147  1  0.40048533  0.50844267  0.38283030  1.0
  Cd  Cd1148  1  0.40048533  0.84177600  0.38283030  1.0
  Cd  Cd1149  1  0.73381867  0.17510933  0.38283030  1.0
  Cd  Cd1150  1  0.73381867  0.50844267  0.38283030  1.0
  Cd  Cd1151  1  0.73381867  0.84177600  0.38283030  1.0
  Cd  Cd1152  1  0.33157500  0.04339900  0.27252070  1.0
  Cd  Cd1153  1  0.33157500  0.37673233  0.27252070  1.0
  Cd  Cd1154  1  0.33157500  0.71006567  0.27252070  1.0
  Cd  Cd1155  1  0.66490833  0.04339900  0.27252070  1.0
  Cd  Cd1156  1  0.66490833  0.37673233  0.27252070  1.0
  Cd  Cd1157  1  0.66490833  0.71006567  0.27252070  1.0
  Cd  Cd1158  1  0.99824167  0.04339900  0.27252070  1.0
  Cd  Cd1159  1  0.99824167  0.37673233  0.27252070  1.0
  Cd  Cd1160  1  0.99824167  0.71006567  0.27252070  1.0
  Cd  Cd1161  1  0.33157500  0.21006567  0.37252070  1.0
  Cd  Cd1162  1  0.33157500  0.54339900  0.37252070  1.0
  Cd  Cd1163  1  0.33157500  0.87673233  0.37252070  1.0
  Cd  Cd1164  1  0.66490833  0.21006567  0.37252070  1.0
  Cd  Cd1165  1  0.66490833  0.54339900  0.37252070  1.0
  Cd  Cd1166  1  0.66490833  0.87673233  0.37252070  1.0
  Cd  Cd1167  1  0.99824167  0.21006567  0.37252070  1.0
  Cd  Cd1168  1  0.99824167  0.54339900  0.37252070  1.0
  Cd  Cd1169  1  0.99824167  0.87673233  0.37252070  1.0
  Cd  Cd1170  1  0.08392333  0.04339900  0.27252070  1.0
  Cd  Cd1171  1  0.08392333  0.37673233  0.27252070  1.0
  Cd  Cd1172  1  0.08392333  0.71006567  0.27252070  1.0
  Cd  Cd1173  1  0.41725667  0.04339900  0.27252070  1.0
  Cd  Cd1174  1  0.41725667  0.37673233  0.27252070  1.0
  Cd  Cd1175  1  0.41725667  0.71006567  0.27252070  1.0
  Cd  Cd1176  1  0.75059000  0.04339900  0.27252070  1.0
  Cd  Cd1177  1  0.75059000  0.37673233  0.27252070  1.0
  Cd  Cd1178  1  0.75059000  0.71006567  0.27252070  1.0
  Cd  Cd1179  1  0.08392333  0.21006567  0.37252070  1.0
  Cd  Cd1180  1  0.08392333  0.54339900  0.37252070  1.0
  Cd  Cd1181  1  0.08392333  0.87673233  0.37252070  1.0
  Cd  Cd1182  1  0.41725667  0.21006567  0.37252070  1.0
  Cd  Cd1183  1  0.41725667  0.54339900  0.37252070  1.0
  Cd  Cd1184  1  0.41725667  0.87673233  0.37252070  1.0
  Cd  Cd1185  1  0.75059000  0.21006567  0.37252070  1.0
  Cd  Cd1186  1  0.75059000  0.54339900  0.37252070  1.0
  Cd  Cd1187  1  0.75059000  0.87673233  0.37252070  1.0
  Cd  Cd1188  1  0.21448633  0.05787700  0.23190850  1.0
  Cd  Cd1189  1  0.21448633  0.39121033  0.23190850  1.0
  Cd  Cd1190  1  0.21448633  0.72454367  0.23190850  1.0
  Cd  Cd1191  1  0.54781967  0.05787700  0.23190850  1.0
  Cd  Cd1192  1  0.54781967  0.39121033  0.23190850  1.0
  Cd  Cd1193  1  0.54781967  0.72454367  0.23190850  1.0
  Cd  Cd1194  1  0.88115300  0.05787700  0.23190850  1.0
  Cd  Cd1195  1  0.88115300  0.39121033  0.23190850  1.0
  Cd  Cd1196  1  0.88115300  0.72454367  0.23190850  1.0
  Cd  Cd1197  1  0.21448633  0.22454367  0.33190850  1.0
  Cd  Cd1198  1  0.21448633  0.55787700  0.33190850  1.0
  Cd  Cd1199  1  0.21448633  0.89121033  0.33190850  1.0
  Cd  Cd1200  1  0.54781967  0.22454367  0.33190850  1.0
  Cd  Cd1201  1  0.54781967  0.55787700  0.33190850  1.0
  Cd  Cd1202  1  0.54781967  0.89121033  0.33190850  1.0
  Cd  Cd1203  1  0.88115300  0.22454367  0.33190850  1.0
  Cd  Cd1204  1  0.88115300  0.55787700  0.33190850  1.0
  Cd  Cd1205  1  0.88115300  0.89121033  0.33190850  1.0
  Cd  Cd1206  1  0.11884700  0.05787700  0.23190850  1.0
  Cd  Cd1207  1  0.11884700  0.39121033  0.23190850  1.0
  Cd  Cd1208  1  0.11884700  0.72454367  0.23190850  1.0
  Cd  Cd1209  1  0.45218033  0.05787700  0.23190850  1.0
  Cd  Cd1210  1  0.45218033  0.39121033  0.23190850  1.0
  Cd  Cd1211  1  0.45218033  0.72454367  0.23190850  1.0
  Cd  Cd1212  1  0.78551367  0.05787700  0.23190850  1.0
  Cd  Cd1213  1  0.78551367  0.39121033  0.23190850  1.0
  Cd  Cd1214  1  0.78551367  0.72454367  0.23190850  1.0
  Cd  Cd1215  1  0.11884700  0.22454367  0.33190850  1.0
  Cd  Cd1216  1  0.11884700  0.55787700  0.33190850  1.0
  Cd  Cd1217  1  0.11884700  0.89121033  0.33190850  1.0
  Cd  Cd1218  1  0.45218033  0.22454367  0.33190850  1.0
  Cd  Cd1219  1  0.45218033  0.55787700  0.33190850  1.0
  Cd  Cd1220  1  0.45218033  0.89121033  0.33190850  1.0
  Cd  Cd1221  1  0.78551367  0.22454367  0.33190850  1.0
  Cd  Cd1222  1  0.78551367  0.55787700  0.33190850  1.0
  Cd  Cd1223  1  0.78551367  0.89121033  0.33190850  1.0
  Cd  Cd1224  1  0.11526100  0.10671117  0.39952220  1.0
  Cd  Cd1225  1  0.11526100  0.44004450  0.39952220  1.0
  Cd  Cd1226  1  0.11526100  0.77337783  0.39952220  1.0
  Cd  Cd1227  1  0.44859433  0.10671117  0.39952220  1.0
  Cd  Cd1228  1  0.44859433  0.44004450  0.39952220  1.0
  Cd  Cd1229  1  0.44859433  0.77337783  0.39952220  1.0
  Cd  Cd1230  1  0.78192767  0.10671117  0.39952220  1.0
  Cd  Cd1231  1  0.78192767  0.44004450  0.39952220  1.0
  Cd  Cd1232  1  0.78192767  0.77337783  0.39952220  1.0
  Cd  Cd1233  1  0.11526100  0.27337783  0.29952220  1.0
  Cd  Cd1234  1  0.11526100  0.60671117  0.29952220  1.0
  Cd  Cd1235  1  0.11526100  0.94004450  0.29952220  1.0
  Cd  Cd1236  1  0.44859433  0.27337783  0.29952220  1.0
  Cd  Cd1237  1  0.44859433  0.60671117  0.29952220  1.0
  Cd  Cd1238  1  0.44859433  0.94004450  0.29952220  1.0
  Cd  Cd1239  1  0.78192767  0.27337783  0.29952220  1.0
  Cd  Cd1240  1  0.78192767  0.60671117  0.29952220  1.0
  Cd  Cd1241  1  0.78192767  0.94004450  0.29952220  1.0
  Cd  Cd1242  1  0.21807233  0.10671117  0.32289580  1.0
  Cd  Cd1243  1  0.21807233  0.44004450  0.32289580  1.0
  Cd  Cd1244  1  0.21807233  0.77337783  0.32289580  1.0
  Cd  Cd1245  1  0.55140567  0.10671117  0.32289580  1.0
  Cd  Cd1246  1  0.55140567  0.44004450  0.32289580  1.0
  Cd  Cd1247  1  0.55140567  0.77337783  0.32289580  1.0
  Cd  Cd1248  1  0.88473900  0.10671117  0.32289580  1.0
  Cd  Cd1249  1  0.88473900  0.44004450  0.32289580  1.0
  Cd  Cd1250  1  0.88473900  0.77337783  0.32289580  1.0
  Cd  Cd1251  1  0.21807233  0.27337783  0.22289580  1.0
  Cd  Cd1252  1  0.21807233  0.60671117  0.22289580  1.0
  Cd  Cd1253  1  0.21807233  0.94004450  0.22289580  1.0
  Cd  Cd1254  1  0.55140567  0.27337783  0.22289580  1.0
  Cd  Cd1255  1  0.55140567  0.60671117  0.22289580  1.0
  Cd  Cd1256  1  0.55140567  0.94004450  0.22289580  1.0
  Cd  Cd1257  1  0.88473900  0.27337783  0.22289580  1.0
  Cd  Cd1258  1  0.88473900  0.60671117  0.22289580  1.0
  Cd  Cd1259  1  0.88473900  0.94004450  0.22289580  1.0
  Cd  Cd1260  1  0.27651667  0.08173983  0.24622620  1.0
  Cd  Cd1261  1  0.27651667  0.41507317  0.24622620  1.0
  Cd  Cd1262  1  0.27651667  0.74840650  0.24622620  1.0
  Cd  Cd1263  1  0.60985000  0.08173983  0.24622620  1.0
  Cd  Cd1264  1  0.60985000  0.41507317  0.24622620  1.0
  Cd  Cd1265  1  0.60985000  0.74840650  0.24622620  1.0
  Cd  Cd1266  1  0.94318333  0.08173983  0.24622620  1.0
  Cd  Cd1267  1  0.94318333  0.41507317  0.24622620  1.0
  Cd  Cd1268  1  0.94318333  0.74840650  0.24622620  1.0
  Cd  Cd1269  1  0.27651667  0.24840650  0.34622620  1.0
  Cd  Cd1270  1  0.27651667  0.58173983  0.34622620  1.0
  Cd  Cd1271  1  0.27651667  0.91507317  0.34622620  1.0
  Cd  Cd1272  1  0.60985000  0.24840650  0.34622620  1.0
  Cd  Cd1273  1  0.60985000  0.58173983  0.34622620  1.0
  Cd  Cd1274  1  0.60985000  0.91507317  0.34622620  1.0
  Cd  Cd1275  1  0.94318333  0.24840650  0.34622620  1.0
  Cd  Cd1276  1  0.94318333  0.58173983  0.34622620  1.0
  Cd  Cd1277  1  0.94318333  0.91507317  0.34622620  1.0
  Cd  Cd1278  1  0.16338633  0.02824467  0.34454810  1.0
  Cd  Cd1279  1  0.16338633  0.36157800  0.34454810  1.0
  Cd  Cd1280  1  0.16338633  0.69491133  0.34454810  1.0
  Cd  Cd1281  1  0.49671967  0.02824467  0.34454810  1.0
  Cd  Cd1282  1  0.49671967  0.36157800  0.34454810  1.0
  Cd  Cd1283  1  0.49671967  0.69491133  0.34454810  1.0
  Cd  Cd1284  1  0.83005300  0.02824467  0.34454810  1.0
  Cd  Cd1285  1  0.83005300  0.36157800  0.34454810  1.0
  Cd  Cd1286  1  0.83005300  0.69491133  0.34454810  1.0
  Cd  Cd1287  1  0.16338633  0.19491133  0.24454810  1.0
  Cd  Cd1288  1  0.16338633  0.52824467  0.24454810  1.0
  Cd  Cd1289  1  0.16338633  0.86157800  0.24454810  1.0
  Cd  Cd1290  1  0.49671967  0.19491133  0.24454810  1.0
  Cd  Cd1291  1  0.49671967  0.52824467  0.24454810  1.0
  Cd  Cd1292  1  0.49671967  0.86157800  0.24454810  1.0
  Cd  Cd1293  1  0.83005300  0.19491133  0.24454810  1.0
  Cd  Cd1294  1  0.83005300  0.52824467  0.24454810  1.0
  Cd  Cd1295  1  0.83005300  0.86157800  0.24454810  1.0
  Cd  Cd1296  1  0.27935467  0.02824467  0.28371010  1.0
  Cd  Cd1297  1  0.27935467  0.36157800  0.28371010  1.0
  Cd  Cd1298  1  0.27935467  0.69491133  0.28371010  1.0
  Cd  Cd1299  1  0.61268800  0.02824467  0.28371010  1.0
  Cd  Cd1300  1  0.61268800  0.36157800  0.28371010  1.0
  Cd  Cd1301  1  0.61268800  0.69491133  0.28371010  1.0
  Cd  Cd1302  1  0.94602133  0.02824467  0.28371010  1.0
  Cd  Cd1303  1  0.94602133  0.36157800  0.28371010  1.0
  Cd  Cd1304  1  0.94602133  0.69491133  0.28371010  1.0
  Cd  Cd1305  1  0.27935467  0.19491133  0.38371010  1.0
  Cd  Cd1306  1  0.27935467  0.52824467  0.38371010  1.0
  Cd  Cd1307  1  0.27935467  0.86157800  0.38371010  1.0
  Cd  Cd1308  1  0.61268800  0.19491133  0.38371010  1.0
  Cd  Cd1309  1  0.61268800  0.52824467  0.38371010  1.0
  Cd  Cd1310  1  0.61268800  0.86157800  0.38371010  1.0
  Cd  Cd1311  1  0.94602133  0.19491133  0.38371010  1.0
  Cd  Cd1312  1  0.94602133  0.52824467  0.38371010  1.0
  Cd  Cd1313  1  0.94602133  0.86157800  0.38371010  1.0
  Cd  Cd1314  1  0.05681667  0.08173983  0.24622620  1.0
  Cd  Cd1315  1  0.05681667  0.41507317  0.24622620  1.0
  Cd  Cd1316  1  0.05681667  0.74840650  0.24622620  1.0
  Cd  Cd1317  1  0.39015000  0.08173983  0.24622620  1.0
  Cd  Cd1318  1  0.39015000  0.41507317  0.24622620  1.0
  Cd  Cd1319  1  0.39015000  0.74840650  0.24622620  1.0
  Cd  Cd1320  1  0.72348333  0.08173983  0.24622620  1.0
  Cd  Cd1321  1  0.72348333  0.41507317  0.24622620  1.0
  Cd  Cd1322  1  0.72348333  0.74840650  0.24622620  1.0
  Cd  Cd1323  1  0.05681667  0.24840650  0.34622620  1.0
  Cd  Cd1324  1  0.05681667  0.58173983  0.34622620  1.0
  Cd  Cd1325  1  0.05681667  0.91507317  0.34622620  1.0
  Cd  Cd1326  1  0.39015000  0.24840650  0.34622620  1.0
  Cd  Cd1327  1  0.39015000  0.58173983  0.34622620  1.0
  Cd  Cd1328  1  0.39015000  0.91507317  0.34622620  1.0
  Cd  Cd1329  1  0.72348333  0.24840650  0.34622620  1.0
  Cd  Cd1330  1  0.72348333  0.58173983  0.34622620  1.0
  Cd  Cd1331  1  0.72348333  0.91507317  0.34622620  1.0
  Cd  Cd1332  1  0.16994700  0.02824467  0.28371010  1.0
  Cd  Cd1333  1  0.16994700  0.36157800  0.28371010  1.0
  Cd  Cd1334  1  0.16994700  0.69491133  0.28371010  1.0
  Cd  Cd1335  1  0.50328033  0.02824467  0.28371010  1.0
  Cd  Cd1336  1  0.50328033  0.36157800  0.28371010  1.0
  Cd  Cd1337  1  0.50328033  0.69491133  0.28371010  1.0
  Cd  Cd1338  1  0.83661367  0.02824467  0.28371010  1.0
  Cd  Cd1339  1  0.83661367  0.36157800  0.28371010  1.0
  Cd  Cd1340  1  0.83661367  0.69491133  0.28371010  1.0
  Cd  Cd1341  1  0.16994700  0.19491133  0.38371010  1.0
  Cd  Cd1342  1  0.16994700  0.52824467  0.38371010  1.0
  Cd  Cd1343  1  0.16994700  0.86157800  0.38371010  1.0
  Cd  Cd1344  1  0.50328033  0.19491133  0.38371010  1.0
  Cd  Cd1345  1  0.50328033  0.52824467  0.38371010  1.0
  Cd  Cd1346  1  0.50328033  0.86157800  0.38371010  1.0
  Cd  Cd1347  1  0.83661367  0.19491133  0.38371010  1.0
  Cd  Cd1348  1  0.83661367  0.52824467  0.38371010  1.0
  Cd  Cd1349  1  0.83661367  0.86157800  0.38371010  1.0
  Cd  Cd1350  1  0.05397867  0.02824467  0.34454810  1.0
  Cd  Cd1351  1  0.05397867  0.36157800  0.34454810  1.0
  Cd  Cd1352  1  0.05397867  0.69491133  0.34454810  1.0
  Cd  Cd1353  1  0.38731200  0.02824467  0.34454810  1.0
  Cd  Cd1354  1  0.38731200  0.36157800  0.34454810  1.0
  Cd  Cd1355  1  0.38731200  0.69491133  0.34454810  1.0
  Cd  Cd1356  1  0.72064533  0.02824467  0.34454810  1.0
  Cd  Cd1357  1  0.72064533  0.36157800  0.34454810  1.0
  Cd  Cd1358  1  0.72064533  0.69491133  0.34454810  1.0
  Cd  Cd1359  1  0.05397867  0.19491133  0.24454810  1.0
  Cd  Cd1360  1  0.05397867  0.52824467  0.24454810  1.0
  Cd  Cd1361  1  0.05397867  0.86157800  0.24454810  1.0
  Cd  Cd1362  1  0.38731200  0.19491133  0.24454810  1.0
  Cd  Cd1363  1  0.38731200  0.52824467  0.24454810  1.0
  Cd  Cd1364  1  0.38731200  0.86157800  0.24454810  1.0
  Cd  Cd1365  1  0.72064533  0.19491133  0.24454810  1.0
  Cd  Cd1366  1  0.72064533  0.52824467  0.24454810  1.0
  Cd  Cd1367  1  0.72064533  0.86157800  0.24454810  1.0
  Cd  Cd1368  1  0.04465567  0.09021633  0.30489890  1.0
  Cd  Cd1369  1  0.04465567  0.42354967  0.30489890  1.0
  Cd  Cd1370  1  0.04465567  0.75688300  0.30489890  1.0
  Cd  Cd1371  1  0.37798900  0.09021633  0.30489890  1.0
  Cd  Cd1372  1  0.37798900  0.42354967  0.30489890  1.0
  Cd  Cd1373  1  0.37798900  0.75688300  0.30489890  1.0
  Cd  Cd1374  1  0.71132233  0.09021633  0.30489890  1.0
  Cd  Cd1375  1  0.71132233  0.42354967  0.30489890  1.0
  Cd  Cd1376  1  0.71132233  0.75688300  0.30489890  1.0
  Cd  Cd1377  1  0.04465567  0.25688300  0.20489890  1.0
  Cd  Cd1378  1  0.04465567  0.59021633  0.20489890  1.0
  Cd  Cd1379  1  0.04465567  0.92354967  0.20489890  1.0
  Cd  Cd1380  1  0.37798900  0.25688300  0.20489890  1.0
  Cd  Cd1381  1  0.37798900  0.59021633  0.20489890  1.0
  Cd  Cd1382  1  0.37798900  0.92354967  0.20489890  1.0
  Cd  Cd1383  1  0.71132233  0.25688300  0.20489890  1.0
  Cd  Cd1384  1  0.71132233  0.59021633  0.20489890  1.0
  Cd  Cd1385  1  0.71132233  0.92354967  0.20489890  1.0
  Cd  Cd1386  1  0.15218600  0.14171900  0.20736450  1.0
  Cd  Cd1387  1  0.15218600  0.47505233  0.20736450  1.0
  Cd  Cd1388  1  0.15218600  0.80838567  0.20736450  1.0
  Cd  Cd1389  1  0.48551933  0.14171900  0.20736450  1.0
  Cd  Cd1390  1  0.48551933  0.47505233  0.20736450  1.0
  Cd  Cd1391  1  0.48551933  0.80838567  0.20736450  1.0
  Cd  Cd1392  1  0.81885267  0.14171900  0.20736450  1.0
  Cd  Cd1393  1  0.81885267  0.47505233  0.20736450  1.0
  Cd  Cd1394  1  0.81885267  0.80838567  0.20736450  1.0
  Cd  Cd1395  1  0.15218600  0.30838567  0.30736450  1.0
  Cd  Cd1396  1  0.15218600  0.64171900  0.30736450  1.0
  Cd  Cd1397  1  0.15218600  0.97505233  0.30736450  1.0
  Cd  Cd1398  1  0.48551933  0.30838567  0.30736450  1.0
  Cd  Cd1399  1  0.48551933  0.64171900  0.30736450  1.0
  Cd  Cd1400  1  0.48551933  0.97505233  0.30736450  1.0
  Cd  Cd1401  1  0.81885267  0.30838567  0.30736450  1.0
  Cd  Cd1402  1  0.81885267  0.64171900  0.30736450  1.0
  Cd  Cd1403  1  0.81885267  0.97505233  0.30736450  1.0
  Cd  Cd1404  1  0.05639867  0.14171900  0.20736450  1.0
  Cd  Cd1405  1  0.05639867  0.47505233  0.20736450  1.0
  Cd  Cd1406  1  0.05639867  0.80838567  0.20736450  1.0
  Cd  Cd1407  1  0.38973200  0.14171900  0.20736450  1.0
  Cd  Cd1408  1  0.38973200  0.47505233  0.20736450  1.0
  Cd  Cd1409  1  0.38973200  0.80838567  0.20736450  1.0
  Cd  Cd1410  1  0.72306533  0.14171900  0.20736450  1.0
  Cd  Cd1411  1  0.72306533  0.47505233  0.20736450  1.0
  Cd  Cd1412  1  0.72306533  0.80838567  0.20736450  1.0
  Cd  Cd1413  1  0.05639867  0.30838567  0.30736450  1.0
  Cd  Cd1414  1  0.05639867  0.64171900  0.30736450  1.0
  Cd  Cd1415  1  0.05639867  0.97505233  0.30736450  1.0
  Cd  Cd1416  1  0.38973200  0.30838567  0.30736450  1.0
  Cd  Cd1417  1  0.38973200  0.64171900  0.30736450  1.0
  Cd  Cd1418  1  0.38973200  0.97505233  0.30736450  1.0
  Cd  Cd1419  1  0.72306533  0.30838567  0.30736450  1.0
  Cd  Cd1420  1  0.72306533  0.64171900  0.30736450  1.0
  Cd  Cd1421  1  0.72306533  0.97505233  0.30736450  1.0
  Cd  Cd1422  1  0.28867767  0.09021633  0.39772530  1.0
  Cd  Cd1423  1  0.28867767  0.42354967  0.39772530  1.0
  Cd  Cd1424  1  0.28867767  0.75688300  0.39772530  1.0
  Cd  Cd1425  1  0.62201100  0.09021633  0.39772530  1.0
  Cd  Cd1426  1  0.62201100  0.42354967  0.39772530  1.0
  Cd  Cd1427  1  0.62201100  0.75688300  0.39772530  1.0
  Cd  Cd1428  1  0.95534433  0.09021633  0.39772530  1.0
  Cd  Cd1429  1  0.95534433  0.42354967  0.39772530  1.0
  Cd  Cd1430  1  0.95534433  0.75688300  0.39772530  1.0
  Cd  Cd1431  1  0.28867767  0.25688300  0.29772530  1.0
  Cd  Cd1432  1  0.28867767  0.59021633  0.29772530  1.0
  Cd  Cd1433  1  0.28867767  0.92354967  0.29772530  1.0
  Cd  Cd1434  1  0.62201100  0.25688300  0.29772530  1.0
  Cd  Cd1435  1  0.62201100  0.59021633  0.29772530  1.0
  Cd  Cd1436  1  0.62201100  0.92354967  0.29772530  1.0
  Cd  Cd1437  1  0.95534433  0.25688300  0.29772530  1.0
  Cd  Cd1438  1  0.95534433  0.59021633  0.29772530  1.0
  Cd  Cd1439  1  0.95534433  0.92354967  0.29772530  1.0
  Cd  Cd1440  1  0.18114733  0.14171900  0.35706290  1.0
  Cd  Cd1441  1  0.18114733  0.47505233  0.35706290  1.0
  Cd  Cd1442  1  0.18114733  0.80838567  0.35706290  1.0
  Cd  Cd1443  1  0.51448067  0.14171900  0.35706290  1.0
  Cd  Cd1444  1  0.51448067  0.47505233  0.35706290  1.0
  Cd  Cd1445  1  0.51448067  0.80838567  0.35706290  1.0
  Cd  Cd1446  1  0.84781400  0.14171900  0.35706290  1.0
  Cd  Cd1447  1  0.84781400  0.47505233  0.35706290  1.0
  Cd  Cd1448  1  0.84781400  0.80838567  0.35706290  1.0
  Cd  Cd1449  1  0.18114733  0.30838567  0.25706290  1.0
  Cd  Cd1450  1  0.18114733  0.64171900  0.25706290  1.0
  Cd  Cd1451  1  0.18114733  0.97505233  0.25706290  1.0
  Cd  Cd1452  1  0.51448067  0.30838567  0.25706290  1.0
  Cd  Cd1453  1  0.51448067  0.64171900  0.25706290  1.0
  Cd  Cd1454  1  0.51448067  0.97505233  0.25706290  1.0
  Cd  Cd1455  1  0.84781400  0.30838567  0.25706290  1.0
  Cd  Cd1456  1  0.84781400  0.64171900  0.25706290  1.0
  Cd  Cd1457  1  0.84781400  0.97505233  0.25706290  1.0
  Cd  Cd1458  1  0.27693467  0.14171900  0.35706290  1.0
  Cd  Cd1459  1  0.27693467  0.47505233  0.35706290  1.0
  Cd  Cd1460  1  0.27693467  0.80838567  0.35706290  1.0
  Cd  Cd1461  1  0.61026800  0.14171900  0.35706290  1.0
  Cd  Cd1462  1  0.61026800  0.47505233  0.35706290  1.0
  Cd  Cd1463  1  0.61026800  0.80838567  0.35706290  1.0
  Cd  Cd1464  1  0.94360133  0.14171900  0.35706290  1.0
  Cd  Cd1465  1  0.94360133  0.47505233  0.35706290  1.0
  Cd  Cd1466  1  0.94360133  0.80838567  0.35706290  1.0
  Cd  Cd1467  1  0.27693467  0.30838567  0.25706290  1.0
  Cd  Cd1468  1  0.27693467  0.64171900  0.25706290  1.0
  Cd  Cd1469  1  0.27693467  0.97505233  0.25706290  1.0
  Cd  Cd1470  1  0.61026800  0.30838567  0.25706290  1.0
  Cd  Cd1471  1  0.61026800  0.64171900  0.25706290  1.0
  Cd  Cd1472  1  0.61026800  0.97505233  0.25706290  1.0
  Cd  Cd1473  1  0.94360133  0.30838567  0.25706290  1.0
  Cd  Cd1474  1  0.94360133  0.64171900  0.25706290  1.0
  Cd  Cd1475  1  0.94360133  0.97505233  0.25706290  1.0
  Cd  Cd1476  1  0.11463367  0.11111111  0.26384897  1.0
  Cd  Cd1477  1  0.11463367  0.44444444  0.26384897  1.0
  Cd  Cd1478  1  0.11463367  0.77777778  0.26384897  1.0
  Cd  Cd1479  1  0.44796700  0.11111111  0.26384897  1.0
  Cd  Cd1480  1  0.44796700  0.44444444  0.26384897  1.0
  Cd  Cd1481  1  0.44796700  0.77777778  0.26384897  1.0
  Cd  Cd1482  1  0.78130033  0.11111111  0.26384897  1.0
  Cd  Cd1483  1  0.78130033  0.44444444  0.26384897  1.0
  Cd  Cd1484  1  0.78130033  0.77777778  0.26384897  1.0
  Cd  Cd1485  1  0.11463367  0.27777778  0.36384897  1.0
  Cd  Cd1486  1  0.11463367  0.61111111  0.36384897  1.0
  Cd  Cd1487  1  0.11463367  0.94444444  0.36384897  1.0
  Cd  Cd1488  1  0.44796700  0.27777778  0.36384897  1.0
  Cd  Cd1489  1  0.44796700  0.61111111  0.36384897  1.0
  Cd  Cd1490  1  0.44796700  0.94444444  0.36384897  1.0
  Cd  Cd1491  1  0.78130033  0.27777778  0.36384897  1.0
  Cd  Cd1492  1  0.78130033  0.61111111  0.36384897  1.0
  Cd  Cd1493  1  0.78130033  0.94444444  0.36384897  1.0
  Cd  Cd1494  1  0.21869967  0.11111111  0.26384897  1.0
  Cd  Cd1495  1  0.21869967  0.44444444  0.26384897  1.0
  Cd  Cd1496  1  0.21869967  0.77777778  0.26384897  1.0
  Cd  Cd1497  1  0.55203300  0.11111111  0.26384897  1.0
  Cd  Cd1498  1  0.55203300  0.44444444  0.26384897  1.0
  Cd  Cd1499  1  0.55203300  0.77777778  0.26384897  1.0
  Cd  Cd1500  1  0.88536633  0.11111111  0.26384897  1.0
  Cd  Cd1501  1  0.88536633  0.44444444  0.26384897  1.0
  Cd  Cd1502  1  0.88536633  0.77777778  0.26384897  1.0
  Cd  Cd1503  1  0.21869967  0.27777778  0.36384897  1.0
  Cd  Cd1504  1  0.21869967  0.61111111  0.36384897  1.0
  Cd  Cd1505  1  0.21869967  0.94444444  0.36384897  1.0
  Cd  Cd1506  1  0.55203300  0.27777778  0.36384897  1.0
  Cd  Cd1507  1  0.55203300  0.61111111  0.36384897  1.0
  Cd  Cd1508  1  0.55203300  0.94444444  0.36384897  1.0
  Cd  Cd1509  1  0.88536633  0.27777778  0.36384897  1.0
  Cd  Cd1510  1  0.88536633  0.61111111  0.36384897  1.0
  Cd  Cd1511  1  0.88536633  0.94444444  0.36384897  1.0
  Cd  Cd1512  1  0.22585733  0.05732967  0.30260890  1.0
  Cd  Cd1513  1  0.22585733  0.39066300  0.30260890  1.0
  Cd  Cd1514  1  0.22585733  0.72399633  0.30260890  1.0
  Cd  Cd1515  1  0.55919067  0.05732967  0.30260890  1.0
  Cd  Cd1516  1  0.55919067  0.39066300  0.30260890  1.0
  Cd  Cd1517  1  0.55919067  0.72399633  0.30260890  1.0
  Cd  Cd1518  1  0.89252400  0.05732967  0.30260890  1.0
  Cd  Cd1519  1  0.89252400  0.39066300  0.30260890  1.0
  Cd  Cd1520  1  0.89252400  0.72399633  0.30260890  1.0
  Cd  Cd1521  1  0.22585733  0.22399633  0.20260890  1.0
  Cd  Cd1522  1  0.22585733  0.55732967  0.20260890  1.0
  Cd  Cd1523  1  0.22585733  0.89066300  0.20260890  1.0
  Cd  Cd1524  1  0.55919067  0.22399633  0.20260890  1.0
  Cd  Cd1525  1  0.55919067  0.55732967  0.20260890  1.0
  Cd  Cd1526  1  0.55919067  0.89066300  0.20260890  1.0
  Cd  Cd1527  1  0.89252400  0.22399633  0.20260890  1.0
  Cd  Cd1528  1  0.89252400  0.55732967  0.20260890  1.0
  Cd  Cd1529  1  0.89252400  0.89066300  0.20260890  1.0
  Cd  Cd1530  1  0.10747600  0.05732967  0.36055130  1.0
  Cd  Cd1531  1  0.10747600  0.39066300  0.36055130  1.0
  Cd  Cd1532  1  0.10747600  0.72399633  0.36055130  1.0
  Cd  Cd1533  1  0.44080933  0.05732967  0.36055130  1.0
  Cd  Cd1534  1  0.44080933  0.39066300  0.36055130  1.0
  Cd  Cd1535  1  0.44080933  0.72399633  0.36055130  1.0
  Cd  Cd1536  1  0.77414267  0.05732967  0.36055130  1.0
  Cd  Cd1537  1  0.77414267  0.39066300  0.36055130  1.0
  Cd  Cd1538  1  0.77414267  0.72399633  0.36055130  1.0
  Cd  Cd1539  1  0.10747600  0.22399633  0.26055130  1.0
  Cd  Cd1540  1  0.10747600  0.55732967  0.26055130  1.0
  Cd  Cd1541  1  0.10747600  0.89066300  0.26055130  1.0
  Cd  Cd1542  1  0.44080933  0.22399633  0.26055130  1.0
  Cd  Cd1543  1  0.44080933  0.55732967  0.26055130  1.0
  Cd  Cd1544  1  0.44080933  0.89066300  0.26055130  1.0
  Cd  Cd1545  1  0.77414267  0.22399633  0.26055130  1.0
  Cd  Cd1546  1  0.77414267  0.55732967  0.26055130  1.0
  Cd  Cd1547  1  0.77414267  0.89066300  0.26055130  1.0
  Cd  Cd1548  1  0.30004267  0.00038233  0.39741170  1.0
  Cd  Cd1549  1  0.30004267  0.33371567  0.39741170  1.0
  Cd  Cd1550  1  0.30004267  0.66704900  0.39741170  1.0
  Cd  Cd1551  1  0.63337600  0.00038233  0.39741170  1.0
  Cd  Cd1552  1  0.63337600  0.33371567  0.39741170  1.0
  Cd  Cd1553  1  0.63337600  0.66704900  0.39741170  1.0
  Cd  Cd1554  1  0.96670933  0.00038233  0.39741170  1.0
  Cd  Cd1555  1  0.96670933  0.33371567  0.39741170  1.0
  Cd  Cd1556  1  0.96670933  0.66704900  0.39741170  1.0
  Cd  Cd1557  1  0.30004267  0.16704900  0.29741170  1.0
  Cd  Cd1558  1  0.30004267  0.50038233  0.29741170  1.0
  Cd  Cd1559  1  0.30004267  0.83371567  0.29741170  1.0
  Cd  Cd1560  1  0.63337600  0.16704900  0.29741170  1.0
  Cd  Cd1561  1  0.63337600  0.50038233  0.29741170  1.0
  Cd  Cd1562  1  0.63337600  0.83371567  0.29741170  1.0
  Cd  Cd1563  1  0.96670933  0.16704900  0.29741170  1.0
  Cd  Cd1564  1  0.96670933  0.50038233  0.29741170  1.0
  Cd  Cd1565  1  0.96670933  0.83371567  0.29741170  1.0
  Cd  Cd1566  1  0.03329067  0.00038233  0.39741170  1.0
  Cd  Cd1567  1  0.03329067  0.33371567  0.39741170  1.0
  Cd  Cd1568  1  0.03329067  0.66704900  0.39741170  1.0
  Cd  Cd1569  1  0.36662400  0.00038233  0.39741170  1.0
  Cd  Cd1570  1  0.36662400  0.33371567  0.39741170  1.0
  Cd  Cd1571  1  0.36662400  0.66704900  0.39741170  1.0
  Cd  Cd1572  1  0.69995733  0.00038233  0.39741170  1.0
  Cd  Cd1573  1  0.69995733  0.33371567  0.39741170  1.0
  Cd  Cd1574  1  0.69995733  0.66704900  0.39741170  1.0
  Cd  Cd1575  1  0.03329067  0.16704900  0.29741170  1.0
  Cd  Cd1576  1  0.03329067  0.50038233  0.29741170  1.0
  Cd  Cd1577  1  0.03329067  0.83371567  0.29741170  1.0
  Cd  Cd1578  1  0.36662400  0.16704900  0.29741170  1.0
  Cd  Cd1579  1  0.36662400  0.50038233  0.29741170  1.0
  Cd  Cd1580  1  0.36662400  0.83371567  0.29741170  1.0
  Cd  Cd1581  1  0.69995733  0.16704900  0.29741170  1.0
  Cd  Cd1582  1  0.69995733  0.50038233  0.29741170  1.0
  Cd  Cd1583  1  0.69995733  0.83371567  0.29741170  1.0
  Ni  Ni1584  1  0.06178867  0.13258733  0.35088110  1.0
  Ni  Ni1585  1  0.06178867  0.46592067  0.35088110  1.0
  Ni  Ni1586  1  0.06178867  0.79925400  0.35088110  1.0
  Ni  Ni1587  1  0.39512200  0.13258733  0.35088110  1.0
  Ni  Ni1588  1  0.39512200  0.46592067  0.35088110  1.0
  Ni  Ni1589  1  0.39512200  0.79925400  0.35088110  1.0
  Ni  Ni1590  1  0.72845533  0.13258733  0.35088110  1.0
  Ni  Ni1591  1  0.72845533  0.46592067  0.35088110  1.0
  Ni  Ni1592  1  0.72845533  0.79925400  0.35088110  1.0
  Ni  Ni1593  1  0.06178867  0.29925400  0.25088110  1.0
  Ni  Ni1594  1  0.06178867  0.63258733  0.25088110  1.0
  Ni  Ni1595  1  0.06178867  0.96592067  0.25088110  1.0
  Ni  Ni1596  1  0.39512200  0.29925400  0.25088110  1.0
  Ni  Ni1597  1  0.39512200  0.63258733  0.25088110  1.0
  Ni  Ni1598  1  0.39512200  0.96592067  0.25088110  1.0
  Ni  Ni1599  1  0.72845533  0.29925400  0.25088110  1.0
  Ni  Ni1600  1  0.72845533  0.63258733  0.25088110  1.0
  Ni  Ni1601  1  0.72845533  0.96592067  0.25088110  1.0
  Ni  Ni1602  1  0.27154467  0.13258733  0.20258830  1.0
  Ni  Ni1603  1  0.27154467  0.46592067  0.20258830  1.0
  Ni  Ni1604  1  0.27154467  0.79925400  0.20258830  1.0
  Ni  Ni1605  1  0.60487800  0.13258733  0.20258830  1.0
  Ni  Ni1606  1  0.60487800  0.46592067  0.20258830  1.0
  Ni  Ni1607  1  0.60487800  0.79925400  0.20258830  1.0
  Ni  Ni1608  1  0.93821133  0.13258733  0.20258830  1.0
  Ni  Ni1609  1  0.93821133  0.46592067  0.20258830  1.0
  Ni  Ni1610  1  0.93821133  0.79925400  0.20258830  1.0
  Ni  Ni1611  1  0.27154467  0.29925400  0.30258830  1.0
  Ni  Ni1612  1  0.27154467  0.63258733  0.30258830  1.0
  Ni  Ni1613  1  0.27154467  0.96592067  0.30258830  1.0
  Ni  Ni1614  1  0.60487800  0.29925400  0.30258830  1.0
  Ni  Ni1615  1  0.60487800  0.63258733  0.30258830  1.0
  Ni  Ni1616  1  0.60487800  0.96592067  0.30258830  1.0
  Ni  Ni1617  1  0.93821133  0.29925400  0.30258830  1.0
  Ni  Ni1618  1  0.93821133  0.63258733  0.30258830  1.0
  Ni  Ni1619  1  0.93821133  0.96592067  0.30258830  1.0
  Ni  Ni1620  1  0.12029267  0.00126467  0.26540350  1.0
  Ni  Ni1621  1  0.12029267  0.33459800  0.26540350  1.0
  Ni  Ni1622  1  0.12029267  0.66793133  0.26540350  1.0
  Ni  Ni1623  1  0.45362600  0.00126467  0.26540350  1.0
  Ni  Ni1624  1  0.45362600  0.33459800  0.26540350  1.0
  Ni  Ni1625  1  0.45362600  0.66793133  0.26540350  1.0
  Ni  Ni1626  1  0.78695933  0.00126467  0.26540350  1.0
  Ni  Ni1627  1  0.78695933  0.33459800  0.26540350  1.0
  Ni  Ni1628  1  0.78695933  0.66793133  0.26540350  1.0
  Ni  Ni1629  1  0.12029267  0.16793133  0.36540350  1.0
  Ni  Ni1630  1  0.12029267  0.50126467  0.36540350  1.0
  Ni  Ni1631  1  0.12029267  0.83459800  0.36540350  1.0
  Ni  Ni1632  1  0.45362600  0.16793133  0.36540350  1.0
  Ni  Ni1633  1  0.45362600  0.50126467  0.36540350  1.0
  Ni  Ni1634  1  0.45362600  0.83459800  0.36540350  1.0
  Ni  Ni1635  1  0.78695933  0.16793133  0.36540350  1.0
  Ni  Ni1636  1  0.78695933  0.50126467  0.36540350  1.0
  Ni  Ni1637  1  0.78695933  0.83459800  0.36540350  1.0
  Ni  Ni1638  1  0.00785533  0.00126467  0.33047870  1.0
  Ni  Ni1639  1  0.00785533  0.33459800  0.33047870  1.0
  Ni  Ni1640  1  0.00785533  0.66793133  0.33047870  1.0
  Ni  Ni1641  1  0.34118867  0.00126467  0.33047870  1.0
  Ni  Ni1642  1  0.34118867  0.33459800  0.33047870  1.0
  Ni  Ni1643  1  0.34118867  0.66793133  0.33047870  1.0
  Ni  Ni1644  1  0.67452200  0.00126467  0.33047870  1.0
  Ni  Ni1645  1  0.67452200  0.33459800  0.33047870  1.0
  Ni  Ni1646  1  0.67452200  0.66793133  0.33047870  1.0
  Ni  Ni1647  1  0.00785533  0.16793133  0.23047870  1.0
  Ni  Ni1648  1  0.00785533  0.50126467  0.23047870  1.0
  Ni  Ni1649  1  0.00785533  0.83459800  0.23047870  1.0
  Ni  Ni1650  1  0.34118867  0.16793133  0.23047870  1.0
  Ni  Ni1651  1  0.34118867  0.50126467  0.23047870  1.0
  Ni  Ni1652  1  0.34118867  0.83459800  0.23047870  1.0
  Ni  Ni1653  1  0.67452200  0.16793133  0.23047870  1.0
  Ni  Ni1654  1  0.67452200  0.50126467  0.23047870  1.0
  Ni  Ni1655  1  0.67452200  0.83459800  0.23047870  1.0
  Ni  Ni1656  1  0.00000000  0.12566533  0.27258150  1.0
  Ni  Ni1657  1  0.00000000  0.45899867  0.27258150  1.0
  Ni  Ni1658  1  0.00000000  0.79233200  0.27258150  1.0
  Ni  Ni1659  1  0.33333333  0.12566533  0.27258150  1.0
  Ni  Ni1660  1  0.33333333  0.45899867  0.27258150  1.0
  Ni  Ni1661  1  0.33333333  0.79233200  0.27258150  1.0
  Ni  Ni1662  1  0.66666667  0.12566533  0.27258150  1.0
  Ni  Ni1663  1  0.66666667  0.45899867  0.27258150  1.0
  Ni  Ni1664  1  0.66666667  0.79233200  0.27258150  1.0
  Ni  Ni1665  1  0.00000000  0.29233200  0.37258150  1.0
  Ni  Ni1666  1  0.00000000  0.62566533  0.37258150  1.0
  Ni  Ni1667  1  0.00000000  0.95899867  0.37258150  1.0
  Ni  Ni1668  1  0.33333333  0.29233200  0.37258150  1.0
  Ni  Ni1669  1  0.33333333  0.62566533  0.37258150  1.0
  Ni  Ni1670  1  0.33333333  0.95899867  0.37258150  1.0
  Ni  Ni1671  1  0.66666667  0.29233200  0.37258150  1.0
  Ni  Ni1672  1  0.66666667  0.62566533  0.37258150  1.0
  Ni  Ni1673  1  0.66666667  0.95899867  0.37258150  1.0
  Ni  Ni1674  1  0.21304067  0.00126467  0.33047870  1.0
  Ni  Ni1675  1  0.21304067  0.33459800  0.33047870  1.0
  Ni  Ni1676  1  0.21304067  0.66793133  0.33047870  1.0
  Ni  Ni1677  1  0.54637400  0.00126467  0.33047870  1.0
  Ni  Ni1678  1  0.54637400  0.33459800  0.33047870  1.0
  Ni  Ni1679  1  0.54637400  0.66793133  0.33047870  1.0
  Ni  Ni1680  1  0.87970733  0.00126467  0.33047870  1.0
  Ni  Ni1681  1  0.87970733  0.33459800  0.33047870  1.0
  Ni  Ni1682  1  0.87970733  0.66793133  0.33047870  1.0
  Ni  Ni1683  1  0.21304067  0.16793133  0.23047870  1.0
  Ni  Ni1684  1  0.21304067  0.50126467  0.23047870  1.0
  Ni  Ni1685  1  0.21304067  0.83459800  0.23047870  1.0
  Ni  Ni1686  1  0.54637400  0.16793133  0.23047870  1.0
  Ni  Ni1687  1  0.54637400  0.50126467  0.23047870  1.0
  Ni  Ni1688  1  0.54637400  0.83459800  0.23047870  1.0
  Ni  Ni1689  1  0.87970733  0.16793133  0.23047870  1.0
  Ni  Ni1690  1  0.87970733  0.50126467  0.23047870  1.0
  Ni  Ni1691  1  0.87970733  0.83459800  0.23047870  1.0
  Ni  Ni1692  1  0.32547800  0.00126467  0.26540350  1.0
  Ni  Ni1693  1  0.32547800  0.33459800  0.26540350  1.0
  Ni  Ni1694  1  0.32547800  0.66793133  0.26540350  1.0
  Ni  Ni1695  1  0.65881133  0.00126467  0.26540350  1.0
  Ni  Ni1696  1  0.65881133  0.33459800  0.26540350  1.0
  Ni  Ni1697  1  0.65881133  0.66793133  0.26540350  1.0
  Ni  Ni1698  1  0.99214467  0.00126467  0.26540350  1.0
  Ni  Ni1699  1  0.99214467  0.33459800  0.26540350  1.0
  Ni  Ni1700  1  0.99214467  0.66793133  0.26540350  1.0
  Ni  Ni1701  1  0.32547800  0.16793133  0.36540350  1.0
  Ni  Ni1702  1  0.32547800  0.50126467  0.36540350  1.0
  Ni  Ni1703  1  0.32547800  0.83459800  0.36540350  1.0
  Ni  Ni1704  1  0.65881133  0.16793133  0.36540350  1.0
  Ni  Ni1705  1  0.65881133  0.50126467  0.36540350  1.0
  Ni  Ni1706  1  0.65881133  0.83459800  0.36540350  1.0
  Ni  Ni1707  1  0.99214467  0.16793133  0.36540350  1.0
  Ni  Ni1708  1  0.99214467  0.50126467  0.36540350  1.0
  Ni  Ni1709  1  0.99214467  0.83459800  0.36540350  1.0
  Ni  Ni1710  1  0.00000000  0.05881617  0.23247200  1.0
  Ni  Ni1711  1  0.00000000  0.39214950  0.23247200  1.0
  Ni  Ni1712  1  0.00000000  0.72548283  0.23247200  1.0
  Ni  Ni1713  1  0.33333333  0.05881617  0.23247200  1.0
  Ni  Ni1714  1  0.33333333  0.39214950  0.23247200  1.0
  Ni  Ni1715  1  0.33333333  0.72548283  0.23247200  1.0
  Ni  Ni1716  1  0.66666667  0.05881617  0.23247200  1.0
  Ni  Ni1717  1  0.66666667  0.39214950  0.23247200  1.0
  Ni  Ni1718  1  0.66666667  0.72548283  0.23247200  1.0
  Ni  Ni1719  1  0.00000000  0.22548283  0.33247200  1.0
  Ni  Ni1720  1  0.00000000  0.55881617  0.33247200  1.0
  Ni  Ni1721  1  0.00000000  0.89214950  0.33247200  1.0
  Ni  Ni1722  1  0.33333333  0.22548283  0.33247200  1.0
  Ni  Ni1723  1  0.33333333  0.55881617  0.33247200  1.0
  Ni  Ni1724  1  0.33333333  0.89214950  0.33247200  1.0
  Ni  Ni1725  1  0.66666667  0.22548283  0.33247200  1.0
  Ni  Ni1726  1  0.66666667  0.55881617  0.33247200  1.0
  Ni  Ni1727  1  0.66666667  0.89214950  0.33247200  1.0
