# generated using pymatgen
data_Cd5Ni
_symmetry_space_group_name_H-M   'P 1'
_cell_length_a   42.43788634
_cell_length_b   52.36820455
_cell_length_c   32.93526588
_cell_angle_alpha   79.55399567
_cell_angle_beta   89.08108374
_cell_angle_gamma   89.53593402
_symmetry_Int_Tables_number   1
_chemical_formula_structural   Cd5Ni
_chemical_formula_sum   'Cd1440 Ni288'
_cell_volume   71971.81775000
_cell_formula_units_Z   288
loop_
 _symmetry_equiv_pos_site_id
 _symmetry_equiv_pos_as_xyz
  1  'x, y, z'
loop_
 _atom_site_type_symbol
 _atom_site_label
 _atom_site_symmetry_multiplicity
 _atom_site_fract_x
 _atom_site_fract_y
 _atom_site_fract_z
 _atom_site_occupancy
  Cd  Cd0  1  0.27303050  0.11955788  0.04049015  1.0
  Cd  Cd1  1  0.27303050  0.45289122  0.04049015  1.0
  Cd  Cd2  1  0.27303050  0.78622455  0.04049015  1.0
  Cd  Cd3  1  0.60636383  0.11955788  0.04049015  1.0
  Cd  Cd4  1  0.60636383  0.45289122  0.04049015  1.0
  Cd  Cd5  1  0.60636383  0.78622455  0.04049015  1.0
  Cd  Cd6  1  0.93969717  0.11955788  0.04049015  1.0
  Cd  Cd7  1  0.93969717  0.45289122  0.04049015  1.0
  Cd  Cd8  1  0.93969717  0.78622455  0.04049015  1.0
  Cd  Cd9  1  0.10636383  0.32789122  0.16549015  1.0
  Cd  Cd10  1  0.10636383  0.66122455  0.16549015  1.0
  Cd  Cd11  1  0.10636383  0.99455788  0.16549015  1.0
  Cd  Cd12  1  0.43969717  0.32789122  0.16549015  1.0
  Cd  Cd13  1  0.43969717  0.66122455  0.16549015  1.0
  Cd  Cd14  1  0.43969717  0.99455788  0.16549015  1.0
  Cd  Cd15  1  0.77303050  0.32789122  0.16549015  1.0
  Cd  Cd16  1  0.77303050  0.66122455  0.16549015  1.0
  Cd  Cd17  1  0.77303050  0.99455788  0.16549015  1.0
  Cd  Cd18  1  0.33292250  0.21786422  0.15573315  1.0
  Cd  Cd19  1  0.33292250  0.55119755  0.15573315  1.0
  Cd  Cd20  1  0.33292250  0.88453088  0.15573315  1.0
  Cd  Cd21  1  0.66625583  0.21786422  0.15573315  1.0
  Cd  Cd22  1  0.66625583  0.55119755  0.15573315  1.0
  Cd  Cd23  1  0.66625583  0.88453088  0.15573315  1.0
  Cd  Cd24  1  0.99958917  0.21786422  0.15573315  1.0
  Cd  Cd25  1  0.99958917  0.55119755  0.15573315  1.0
  Cd  Cd26  1  0.99958917  0.88453088  0.15573315  1.0
  Cd  Cd27  1  0.16625583  0.00953088  0.03073315  1.0
  Cd  Cd28  1  0.16625583  0.34286422  0.03073315  1.0
  Cd  Cd29  1  0.16625583  0.67619755  0.03073315  1.0
  Cd  Cd30  1  0.49958917  0.00953088  0.03073315  1.0
  Cd  Cd31  1  0.49958917  0.34286422  0.03073315  1.0
  Cd  Cd32  1  0.49958917  0.67619755  0.03073315  1.0
  Cd  Cd33  1  0.83292250  0.00953088  0.03073315  1.0
  Cd  Cd34  1  0.83292250  0.34286422  0.03073315  1.0
  Cd  Cd35  1  0.83292250  0.67619755  0.03073315  1.0
  Cd  Cd36  1  0.27330217  0.29364980  0.20085590  1.0
  Cd  Cd37  1  0.27330217  0.62698313  0.20085590  1.0
  Cd  Cd38  1  0.27330217  0.96031647  0.20085590  1.0
  Cd  Cd39  1  0.60663550  0.29364980  0.20085590  1.0
  Cd  Cd40  1  0.60663550  0.62698313  0.20085590  1.0
  Cd  Cd41  1  0.60663550  0.96031647  0.20085590  1.0
  Cd  Cd42  1  0.93996883  0.29364980  0.20085590  1.0
  Cd  Cd43  1  0.93996883  0.62698313  0.20085590  1.0
  Cd  Cd44  1  0.93996883  0.96031647  0.20085590  1.0
  Cd  Cd45  1  0.10663550  0.08531647  0.07585590  1.0
  Cd  Cd46  1  0.10663550  0.41864980  0.07585590  1.0
  Cd  Cd47  1  0.10663550  0.75198313  0.07585590  1.0
  Cd  Cd48  1  0.43996883  0.08531647  0.07585590  1.0
  Cd  Cd49  1  0.43996883  0.41864980  0.07585590  1.0
  Cd  Cd50  1  0.43996883  0.75198313  0.07585590  1.0
  Cd  Cd51  1  0.77330217  0.08531647  0.07585590  1.0
  Cd  Cd52  1  0.77330217  0.41864980  0.07585590  1.0
  Cd  Cd53  1  0.77330217  0.75198313  0.07585590  1.0
  Cd  Cd54  1  0.06060550  0.29413463  0.20149540  1.0
  Cd  Cd55  1  0.06060550  0.62746797  0.20149540  1.0
  Cd  Cd56  1  0.06060550  0.96080130  0.20149540  1.0
  Cd  Cd57  1  0.39393883  0.29413463  0.20149540  1.0
  Cd  Cd58  1  0.39393883  0.62746797  0.20149540  1.0
  Cd  Cd59  1  0.39393883  0.96080130  0.20149540  1.0
  Cd  Cd60  1  0.72727217  0.29413463  0.20149540  1.0
  Cd  Cd61  1  0.72727217  0.62746797  0.20149540  1.0
  Cd  Cd62  1  0.72727217  0.96080130  0.20149540  1.0
  Cd  Cd63  1  0.22727217  0.08580130  0.07649540  1.0
  Cd  Cd64  1  0.22727217  0.41913463  0.07649540  1.0
  Cd  Cd65  1  0.22727217  0.75246797  0.07649540  1.0
  Cd  Cd66  1  0.56060550  0.08580130  0.07649540  1.0
  Cd  Cd67  1  0.56060550  0.41913463  0.07649540  1.0
  Cd  Cd68  1  0.56060550  0.75246797  0.07649540  1.0
  Cd  Cd69  1  0.89393883  0.08580130  0.07649540  1.0
  Cd  Cd70  1  0.89393883  0.41913463  0.07649540  1.0
  Cd  Cd71  1  0.89393883  0.75246797  0.07649540  1.0
  Cd  Cd72  1  0.00071350  0.19582830  0.08625240  1.0
  Cd  Cd73  1  0.00071350  0.52916163  0.08625240  1.0
  Cd  Cd74  1  0.00071350  0.86249497  0.08625240  1.0
  Cd  Cd75  1  0.33404683  0.19582830  0.08625240  1.0
  Cd  Cd76  1  0.33404683  0.52916163  0.08625240  1.0
  Cd  Cd77  1  0.33404683  0.86249497  0.08625240  1.0
  Cd  Cd78  1  0.66738017  0.19582830  0.08625240  1.0
  Cd  Cd79  1  0.66738017  0.52916163  0.08625240  1.0
  Cd  Cd80  1  0.66738017  0.86249497  0.08625240  1.0
  Cd  Cd81  1  0.16738017  0.07082830  0.21125240  1.0
  Cd  Cd82  1  0.16738017  0.40416163  0.21125240  1.0
  Cd  Cd83  1  0.16738017  0.73749497  0.21125240  1.0
  Cd  Cd84  1  0.50071350  0.07082830  0.21125240  1.0
  Cd  Cd85  1  0.50071350  0.40416163  0.21125240  1.0
  Cd  Cd86  1  0.50071350  0.73749497  0.21125240  1.0
  Cd  Cd87  1  0.83404683  0.07082830  0.21125240  1.0
  Cd  Cd88  1  0.83404683  0.40416163  0.21125240  1.0
  Cd  Cd89  1  0.83404683  0.73749497  0.21125240  1.0
  Cd  Cd90  1  0.06004183  0.12026172  0.04091065  1.0
  Cd  Cd91  1  0.06004183  0.45359505  0.04091065  1.0
  Cd  Cd92  1  0.06004183  0.78692838  0.04091065  1.0
  Cd  Cd93  1  0.39337517  0.12026172  0.04091065  1.0
  Cd  Cd94  1  0.39337517  0.45359505  0.04091065  1.0
  Cd  Cd95  1  0.39337517  0.78692838  0.04091065  1.0
  Cd  Cd96  1  0.72670850  0.12026172  0.04091065  1.0
  Cd  Cd97  1  0.72670850  0.45359505  0.04091065  1.0
  Cd  Cd98  1  0.72670850  0.78692838  0.04091065  1.0
  Cd  Cd99  1  0.22670850  0.32859505  0.16591065  1.0
  Cd  Cd100  1  0.22670850  0.66192838  0.16591065  1.0
  Cd  Cd101  1  0.22670850  0.99526172  0.16591065  1.0
  Cd  Cd102  1  0.56004183  0.32859505  0.16591065  1.0
  Cd  Cd103  1  0.56004183  0.66192838  0.16591065  1.0
  Cd  Cd104  1  0.56004183  0.99526172  0.16591065  1.0
  Cd  Cd105  1  0.89337517  0.32859505  0.16591065  1.0
  Cd  Cd106  1  0.89337517  0.66192838  0.16591065  1.0
  Cd  Cd107  1  0.89337517  0.99526172  0.16591065  1.0
  Cd  Cd108  1  0.11509067  0.14483442  0.08219727  1.0
  Cd  Cd109  1  0.11509067  0.47816776  0.08219727  1.0
  Cd  Cd110  1  0.11509067  0.81150109  0.08219727  1.0
  Cd  Cd111  1  0.44842400  0.14483442  0.08219727  1.0
  Cd  Cd112  1  0.44842400  0.47816776  0.08219727  1.0
  Cd  Cd113  1  0.44842400  0.81150109  0.08219727  1.0
  Cd  Cd114  1  0.78175733  0.14483442  0.08219727  1.0
  Cd  Cd115  1  0.78175733  0.47816776  0.08219727  1.0
  Cd  Cd116  1  0.78175733  0.81150109  0.08219727  1.0
  Cd  Cd117  1  0.28175733  0.01983442  0.20719727  1.0
  Cd  Cd118  1  0.28175733  0.35316776  0.20719727  1.0
  Cd  Cd119  1  0.28175733  0.68650109  0.20719727  1.0
  Cd  Cd120  1  0.61509067  0.01983442  0.20719727  1.0
  Cd  Cd121  1  0.61509067  0.35316776  0.20719727  1.0
  Cd  Cd122  1  0.61509067  0.68650109  0.20719727  1.0
  Cd  Cd123  1  0.94842400  0.01983442  0.20719727  1.0
  Cd  Cd124  1  0.94842400  0.35316776  0.20719727  1.0
  Cd  Cd125  1  0.94842400  0.68650109  0.20719727  1.0
  Cd  Cd126  1  0.11578067  0.20865376  0.02755827  1.0
  Cd  Cd127  1  0.11578067  0.54198709  0.02755827  1.0
  Cd  Cd128  1  0.11578067  0.87532042  0.02755827  1.0
  Cd  Cd129  1  0.44911400  0.20865376  0.02755827  1.0
  Cd  Cd130  1  0.44911400  0.54198709  0.02755827  1.0
  Cd  Cd131  1  0.44911400  0.87532042  0.02755827  1.0
  Cd  Cd132  1  0.78244733  0.20865376  0.02755827  1.0
  Cd  Cd133  1  0.78244733  0.54198709  0.02755827  1.0
  Cd  Cd134  1  0.78244733  0.87532042  0.02755827  1.0
  Cd  Cd135  1  0.28244733  0.08365376  0.15255827  1.0
  Cd  Cd136  1  0.28244733  0.41698709  0.15255827  1.0
  Cd  Cd137  1  0.28244733  0.75032042  0.15255827  1.0
  Cd  Cd138  1  0.61578067  0.08365376  0.15255827  1.0
  Cd  Cd139  1  0.61578067  0.41698709  0.15255827  1.0
  Cd  Cd140  1  0.61578067  0.75032042  0.15255827  1.0
  Cd  Cd141  1  0.94911400  0.08365376  0.15255827  1.0
  Cd  Cd142  1  0.94911400  0.41698709  0.15255827  1.0
  Cd  Cd143  1  0.94911400  0.75032042  0.15255827  1.0
  Cd  Cd144  1  0.07900967  0.19946101  0.11029302  1.0
  Cd  Cd145  1  0.07900967  0.53279434  0.11029302  1.0
  Cd  Cd146  1  0.07900967  0.86612767  0.11029302  1.0
  Cd  Cd147  1  0.41234300  0.19946101  0.11029302  1.0
  Cd  Cd148  1  0.41234300  0.53279434  0.11029302  1.0
  Cd  Cd149  1  0.41234300  0.86612767  0.11029302  1.0
  Cd  Cd150  1  0.74567633  0.19946101  0.11029302  1.0
  Cd  Cd151  1  0.74567633  0.53279434  0.11029302  1.0
  Cd  Cd152  1  0.74567633  0.86612767  0.11029302  1.0
  Cd  Cd153  1  0.24567633  0.07446101  0.23529302  1.0
  Cd  Cd154  1  0.24567633  0.40779434  0.23529302  1.0
  Cd  Cd155  1  0.24567633  0.74112767  0.23529302  1.0
  Cd  Cd156  1  0.57900967  0.07446101  0.23529302  1.0
  Cd  Cd157  1  0.57900967  0.40779434  0.23529302  1.0
  Cd  Cd158  1  0.57900967  0.74112767  0.23529302  1.0
  Cd  Cd159  1  0.91234300  0.07446101  0.23529302  1.0
  Cd  Cd160  1  0.91234300  0.40779434  0.23529302  1.0
  Cd  Cd161  1  0.91234300  0.74112767  0.23529302  1.0
  Cd  Cd162  1  0.04923133  0.06251026  0.03280277  1.0
  Cd  Cd163  1  0.04923133  0.39584359  0.03280277  1.0
  Cd  Cd164  1  0.04923133  0.72917692  0.03280277  1.0
  Cd  Cd165  1  0.38256467  0.06251026  0.03280277  1.0
  Cd  Cd166  1  0.38256467  0.39584359  0.03280277  1.0
  Cd  Cd167  1  0.38256467  0.72917692  0.03280277  1.0
  Cd  Cd168  1  0.71589800  0.06251026  0.03280277  1.0
  Cd  Cd169  1  0.71589800  0.39584359  0.03280277  1.0
  Cd  Cd170  1  0.71589800  0.72917692  0.03280277  1.0
  Cd  Cd171  1  0.21589800  0.27084359  0.15780277  1.0
  Cd  Cd172  1  0.21589800  0.60417692  0.15780277  1.0
  Cd  Cd173  1  0.21589800  0.93751026  0.15780277  1.0
  Cd  Cd174  1  0.54923133  0.27084359  0.15780277  1.0
  Cd  Cd175  1  0.54923133  0.60417692  0.15780277  1.0
  Cd  Cd176  1  0.54923133  0.93751026  0.15780277  1.0
  Cd  Cd177  1  0.88256467  0.27084359  0.15780277  1.0
  Cd  Cd178  1  0.88256467  0.60417692  0.15780277  1.0
  Cd  Cd179  1  0.88256467  0.93751026  0.15780277  1.0
  Cd  Cd180  1  0.30053233  0.05969767  0.02643502  1.0
  Cd  Cd181  1  0.30053233  0.39303101  0.02643502  1.0
  Cd  Cd182  1  0.30053233  0.72636434  0.02643502  1.0
  Cd  Cd183  1  0.63386567  0.05969767  0.02643502  1.0
  Cd  Cd184  1  0.63386567  0.39303101  0.02643502  1.0
  Cd  Cd185  1  0.63386567  0.72636434  0.02643502  1.0
  Cd  Cd186  1  0.96719900  0.05969767  0.02643502  1.0
  Cd  Cd187  1  0.96719900  0.39303101  0.02643502  1.0
  Cd  Cd188  1  0.96719900  0.72636434  0.02643502  1.0
  Cd  Cd189  1  0.13386567  0.26803101  0.15143502  1.0
  Cd  Cd190  1  0.13386567  0.60136434  0.15143502  1.0
  Cd  Cd191  1  0.13386567  0.93469767  0.15143502  1.0
  Cd  Cd192  1  0.46719900  0.26803101  0.15143502  1.0
  Cd  Cd193  1  0.46719900  0.60136434  0.15143502  1.0
  Cd  Cd194  1  0.46719900  0.93469767  0.15143502  1.0
  Cd  Cd195  1  0.80053233  0.26803101  0.15143502  1.0
  Cd  Cd196  1  0.80053233  0.60136434  0.15143502  1.0
  Cd  Cd197  1  0.80053233  0.93469767  0.15143502  1.0
  Cd  Cd198  1  0.00397000  0.15222376  0.19370027  1.0
  Cd  Cd199  1  0.00397000  0.48555709  0.19370027  1.0
  Cd  Cd200  1  0.00397000  0.81889042  0.19370027  1.0
  Cd  Cd201  1  0.33730333  0.15222376  0.19370027  1.0
  Cd  Cd202  1  0.33730333  0.48555709  0.19370027  1.0
  Cd  Cd203  1  0.33730333  0.81889042  0.19370027  1.0
  Cd  Cd204  1  0.67063667  0.15222376  0.19370027  1.0
  Cd  Cd205  1  0.67063667  0.48555709  0.19370027  1.0
  Cd  Cd206  1  0.67063667  0.81889042  0.19370027  1.0
  Cd  Cd207  1  0.17063667  0.27722376  0.06870027  1.0
  Cd  Cd208  1  0.17063667  0.61055709  0.06870027  1.0
  Cd  Cd209  1  0.17063667  0.94389042  0.06870027  1.0
  Cd  Cd210  1  0.50397000  0.27722376  0.06870027  1.0
  Cd  Cd211  1  0.50397000  0.61055709  0.06870027  1.0
  Cd  Cd212  1  0.50397000  0.94389042  0.06870027  1.0
  Cd  Cd213  1  0.83730333  0.27722376  0.06870027  1.0
  Cd  Cd214  1  0.83730333  0.61055709  0.06870027  1.0
  Cd  Cd215  1  0.83730333  0.94389042  0.06870027  1.0
  Cd  Cd216  1  0.20868533  0.20902176  0.05166527  1.0
  Cd  Cd217  1  0.20868533  0.54235509  0.05166527  1.0
  Cd  Cd218  1  0.20868533  0.87568842  0.05166527  1.0
  Cd  Cd219  1  0.54201867  0.20902176  0.05166527  1.0
  Cd  Cd220  1  0.54201867  0.54235509  0.05166527  1.0
  Cd  Cd221  1  0.54201867  0.87568842  0.05166527  1.0
  Cd  Cd222  1  0.87535200  0.20902176  0.05166527  1.0
  Cd  Cd223  1  0.87535200  0.54235509  0.05166527  1.0
  Cd  Cd224  1  0.87535200  0.87568842  0.05166527  1.0
  Cd  Cd225  1  0.04201867  0.08402176  0.17666527  1.0
  Cd  Cd226  1  0.04201867  0.41735509  0.17666527  1.0
  Cd  Cd227  1  0.04201867  0.75068842  0.17666527  1.0
  Cd  Cd228  1  0.37535200  0.08402176  0.17666527  1.0
  Cd  Cd229  1  0.37535200  0.41735509  0.17666527  1.0
  Cd  Cd230  1  0.37535200  0.75068842  0.17666527  1.0
  Cd  Cd231  1  0.70868533  0.08402176  0.17666527  1.0
  Cd  Cd232  1  0.70868533  0.41735509  0.17666527  1.0
  Cd  Cd233  1  0.70868533  0.75068842  0.17666527  1.0
  Cd  Cd234  1  0.04251983  0.02777030  0.21614540  1.0
  Cd  Cd235  1  0.04251983  0.36110363  0.21614540  1.0
  Cd  Cd236  1  0.04251983  0.69443697  0.21614540  1.0
  Cd  Cd237  1  0.37585317  0.02777030  0.21614540  1.0
  Cd  Cd238  1  0.37585317  0.36110363  0.21614540  1.0
  Cd  Cd239  1  0.37585317  0.69443697  0.21614540  1.0
  Cd  Cd240  1  0.70918650  0.02777030  0.21614540  1.0
  Cd  Cd241  1  0.70918650  0.36110363  0.21614540  1.0
  Cd  Cd242  1  0.70918650  0.69443697  0.21614540  1.0
  Cd  Cd243  1  0.20918650  0.15277030  0.09114540  1.0
  Cd  Cd244  1  0.20918650  0.48610363  0.09114540  1.0
  Cd  Cd245  1  0.20918650  0.81943697  0.09114540  1.0
  Cd  Cd246  1  0.54251983  0.15277030  0.09114540  1.0
  Cd  Cd247  1  0.54251983  0.48610363  0.09114540  1.0
  Cd  Cd248  1  0.54251983  0.81943697  0.09114540  1.0
  Cd  Cd249  1  0.87585317  0.15277030  0.09114540  1.0
  Cd  Cd250  1  0.87585317  0.48610363  0.09114540  1.0
  Cd  Cd251  1  0.87585317  0.81943697  0.09114540  1.0
  Cd  Cd252  1  0.25202733  0.20632134  0.12327602  1.0
  Cd  Cd253  1  0.25202733  0.53965467  0.12327602  1.0
  Cd  Cd254  1  0.25202733  0.87298801  0.12327602  1.0
  Cd  Cd255  1  0.58536067  0.20632134  0.12327602  1.0
  Cd  Cd256  1  0.58536067  0.53965467  0.12327602  1.0
  Cd  Cd257  1  0.58536067  0.87298801  0.12327602  1.0
  Cd  Cd258  1  0.91869400  0.20632134  0.12327602  1.0
  Cd  Cd259  1  0.91869400  0.53965467  0.12327602  1.0
  Cd  Cd260  1  0.91869400  0.87298801  0.12327602  1.0
  Cd  Cd261  1  0.08536067  0.08132134  0.24827602  1.0
  Cd  Cd262  1  0.08536067  0.41465467  0.24827602  1.0
  Cd  Cd263  1  0.08536067  0.74798801  0.24827602  1.0
  Cd  Cd264  1  0.41869400  0.08132134  0.24827602  1.0
  Cd  Cd265  1  0.41869400  0.41465467  0.24827602  1.0
  Cd  Cd266  1  0.41869400  0.74798801  0.24827602  1.0
  Cd  Cd267  1  0.75202733  0.08132134  0.24827602  1.0
  Cd  Cd268  1  0.75202733  0.41465467  0.24827602  1.0
  Cd  Cd269  1  0.75202733  0.74798801  0.24827602  1.0
  Cd  Cd270  1  0.30820000  0.31723376  0.07775727  1.0
  Cd  Cd271  1  0.30820000  0.65056709  0.07775727  1.0
  Cd  Cd272  1  0.30820000  0.98390042  0.07775727  1.0
  Cd  Cd273  1  0.64153333  0.31723376  0.07775727  1.0
  Cd  Cd274  1  0.64153333  0.65056709  0.07775727  1.0
  Cd  Cd275  1  0.64153333  0.98390042  0.07775727  1.0
  Cd  Cd276  1  0.97486667  0.31723376  0.07775727  1.0
  Cd  Cd277  1  0.97486667  0.65056709  0.07775727  1.0
  Cd  Cd278  1  0.97486667  0.98390042  0.07775727  1.0
  Cd  Cd279  1  0.14153333  0.19223376  0.20275727  1.0
  Cd  Cd280  1  0.14153333  0.52556709  0.20275727  1.0
  Cd  Cd281  1  0.14153333  0.85890042  0.20275727  1.0
  Cd  Cd282  1  0.47486667  0.19223376  0.20275727  1.0
  Cd  Cd283  1  0.47486667  0.52556709  0.20275727  1.0
  Cd  Cd284  1  0.47486667  0.85890042  0.20275727  1.0
  Cd  Cd285  1  0.80820000  0.19223376  0.20275727  1.0
  Cd  Cd286  1  0.80820000  0.52556709  0.20275727  1.0
  Cd  Cd287  1  0.80820000  0.85890042  0.20275727  1.0
  Cd  Cd288  1  0.21094483  0.19605072  0.21571165  1.0
  Cd  Cd289  1  0.21094483  0.52938405  0.21571165  1.0
  Cd  Cd290  1  0.21094483  0.86271738  0.21571165  1.0
  Cd  Cd291  1  0.54427817  0.19605072  0.21571165  1.0
  Cd  Cd292  1  0.54427817  0.52938405  0.21571165  1.0
  Cd  Cd293  1  0.54427817  0.86271738  0.21571165  1.0
  Cd  Cd294  1  0.87761150  0.19605072  0.21571165  1.0
  Cd  Cd295  1  0.87761150  0.52938405  0.21571165  1.0
  Cd  Cd296  1  0.87761150  0.86271738  0.21571165  1.0
  Cd  Cd297  1  0.04427817  0.32105072  0.09071165  1.0
  Cd  Cd298  1  0.04427817  0.65438405  0.09071165  1.0
  Cd  Cd299  1  0.04427817  0.98771738  0.09071165  1.0
  Cd  Cd300  1  0.37761150  0.32105072  0.09071165  1.0
  Cd  Cd301  1  0.37761150  0.65438405  0.09071165  1.0
  Cd  Cd302  1  0.37761150  0.98771738  0.09071165  1.0
  Cd  Cd303  1  0.71094483  0.32105072  0.09071165  1.0
  Cd  Cd304  1  0.71094483  0.65438405  0.09071165  1.0
  Cd  Cd305  1  0.71094483  0.98771738  0.09071165  1.0
  Cd  Cd306  1  0.00143733  0.26749967  0.05858102  1.0
  Cd  Cd307  1  0.00143733  0.60083301  0.05858102  1.0
  Cd  Cd308  1  0.00143733  0.93416634  0.05858102  1.0
  Cd  Cd309  1  0.33477067  0.26749967  0.05858102  1.0
  Cd  Cd310  1  0.33477067  0.60083301  0.05858102  1.0
  Cd  Cd311  1  0.33477067  0.93416634  0.05858102  1.0
  Cd  Cd312  1  0.66810400  0.26749967  0.05858102  1.0
  Cd  Cd313  1  0.66810400  0.60083301  0.05858102  1.0
  Cd  Cd314  1  0.66810400  0.93416634  0.05858102  1.0
  Cd  Cd315  1  0.16810400  0.14249967  0.18358102  1.0
  Cd  Cd316  1  0.16810400  0.47583301  0.18358102  1.0
  Cd  Cd317  1  0.16810400  0.80916634  0.18358102  1.0
  Cd  Cd318  1  0.50143733  0.14249967  0.18358102  1.0
  Cd  Cd319  1  0.50143733  0.47583301  0.18358102  1.0
  Cd  Cd320  1  0.50143733  0.80916634  0.18358102  1.0
  Cd  Cd321  1  0.83477067  0.14249967  0.18358102  1.0
  Cd  Cd322  1  0.83477067  0.47583301  0.18358102  1.0
  Cd  Cd323  1  0.83477067  0.80916634  0.18358102  1.0
  Cd  Cd324  1  0.28396717  0.23783138  0.20885465  1.0
  Cd  Cd325  1  0.28396717  0.57116472  0.20885465  1.0
  Cd  Cd326  1  0.28396717  0.90449805  0.20885465  1.0
  Cd  Cd327  1  0.61730050  0.23783138  0.20885465  1.0
  Cd  Cd328  1  0.61730050  0.57116472  0.20885465  1.0
  Cd  Cd329  1  0.61730050  0.90449805  0.20885465  1.0
  Cd  Cd330  1  0.95063383  0.23783138  0.20885465  1.0
  Cd  Cd331  1  0.95063383  0.57116472  0.20885465  1.0
  Cd  Cd332  1  0.95063383  0.90449805  0.20885465  1.0
  Cd  Cd333  1  0.11730050  0.02949805  0.08385465  1.0
  Cd  Cd334  1  0.11730050  0.36283138  0.08385465  1.0
  Cd  Cd335  1  0.11730050  0.69616472  0.08385465  1.0
  Cd  Cd336  1  0.45063383  0.02949805  0.08385465  1.0
  Cd  Cd337  1  0.45063383  0.36283138  0.08385465  1.0
  Cd  Cd338  1  0.45063383  0.69616472  0.08385465  1.0
  Cd  Cd339  1  0.78396717  0.02949805  0.08385465  1.0
  Cd  Cd340  1  0.78396717  0.36283138  0.08385465  1.0
  Cd  Cd341  1  0.78396717  0.69616472  0.08385465  1.0
  Cd  Cd342  1  0.33178683  0.29760597  0.24471940  1.0
  Cd  Cd343  1  0.33178683  0.63093930  0.24471940  1.0
  Cd  Cd344  1  0.33178683  0.96427263  0.24471940  1.0
  Cd  Cd345  1  0.66512017  0.29760597  0.24471940  1.0
  Cd  Cd346  1  0.66512017  0.63093930  0.24471940  1.0
  Cd  Cd347  1  0.66512017  0.96427263  0.24471940  1.0
  Cd  Cd348  1  0.99845350  0.29760597  0.24471940  1.0
  Cd  Cd349  1  0.99845350  0.63093930  0.24471940  1.0
  Cd  Cd350  1  0.99845350  0.96427263  0.24471940  1.0
  Cd  Cd351  1  0.16512017  0.08927263  0.11971940  1.0
  Cd  Cd352  1  0.16512017  0.42260597  0.11971940  1.0
  Cd  Cd353  1  0.16512017  0.75593930  0.11971940  1.0
  Cd  Cd354  1  0.49845350  0.08927263  0.11971940  1.0
  Cd  Cd355  1  0.49845350  0.42260597  0.11971940  1.0
  Cd  Cd356  1  0.49845350  0.75593930  0.11971940  1.0
  Cd  Cd357  1  0.83178683  0.08927263  0.11971940  1.0
  Cd  Cd358  1  0.83178683  0.42260597  0.11971940  1.0
  Cd  Cd359  1  0.83178683  0.75593930  0.11971940  1.0
  Cd  Cd360  1  0.04908067  0.23751876  0.20558127  1.0
  Cd  Cd361  1  0.04908067  0.57085209  0.20558127  1.0
  Cd  Cd362  1  0.04908067  0.90418542  0.20558127  1.0
  Cd  Cd363  1  0.38241400  0.23751876  0.20558127  1.0
  Cd  Cd364  1  0.38241400  0.57085209  0.20558127  1.0
  Cd  Cd365  1  0.38241400  0.90418542  0.20558127  1.0
  Cd  Cd366  1  0.71574733  0.23751876  0.20558127  1.0
  Cd  Cd367  1  0.71574733  0.57085209  0.20558127  1.0
  Cd  Cd368  1  0.71574733  0.90418542  0.20558127  1.0
  Cd  Cd369  1  0.21574733  0.02918542  0.08058127  1.0
  Cd  Cd370  1  0.21574733  0.36251876  0.08058127  1.0
  Cd  Cd371  1  0.21574733  0.69585209  0.08058127  1.0
  Cd  Cd372  1  0.54908067  0.02918542  0.08058127  1.0
  Cd  Cd373  1  0.54908067  0.36251876  0.08058127  1.0
  Cd  Cd374  1  0.54908067  0.69585209  0.08058127  1.0
  Cd  Cd375  1  0.88241400  0.02918542  0.08058127  1.0
  Cd  Cd376  1  0.88241400  0.36251876  0.08058127  1.0
  Cd  Cd377  1  0.88241400  0.69585209  0.08058127  1.0
  Cd  Cd378  1  0.33100833  0.14133401  0.07124402  1.0
  Cd  Cd379  1  0.33100833  0.47466734  0.07124402  1.0
  Cd  Cd380  1  0.33100833  0.80800067  0.07124402  1.0
  Cd  Cd381  1  0.66434167  0.14133401  0.07124402  1.0
  Cd  Cd382  1  0.66434167  0.47466734  0.07124402  1.0
  Cd  Cd383  1  0.66434167  0.80800067  0.07124402  1.0
  Cd  Cd384  1  0.99767500  0.14133401  0.07124402  1.0
  Cd  Cd385  1  0.99767500  0.47466734  0.07124402  1.0
  Cd  Cd386  1  0.99767500  0.80800067  0.07124402  1.0
  Cd  Cd387  1  0.16434167  0.01633401  0.19624402  1.0
  Cd  Cd388  1  0.16434167  0.34966734  0.19624402  1.0
  Cd  Cd389  1  0.16434167  0.68300067  0.19624402  1.0
  Cd  Cd390  1  0.49767500  0.01633401  0.19624402  1.0
  Cd  Cd391  1  0.49767500  0.34966734  0.19624402  1.0
  Cd  Cd392  1  0.49767500  0.68300067  0.19624402  1.0
  Cd  Cd393  1  0.83100833  0.01633401  0.19624402  1.0
  Cd  Cd394  1  0.83100833  0.34966734  0.19624402  1.0
  Cd  Cd395  1  0.83100833  0.68300067  0.19624402  1.0
  Cd  Cd396  1  0.27681483  0.18116530  0.20349040  1.0
  Cd  Cd397  1  0.27681483  0.51449863  0.20349040  1.0
  Cd  Cd398  1  0.27681483  0.84783197  0.20349040  1.0
  Cd  Cd399  1  0.61014817  0.18116530  0.20349040  1.0
  Cd  Cd400  1  0.61014817  0.51449863  0.20349040  1.0
  Cd  Cd401  1  0.61014817  0.84783197  0.20349040  1.0
  Cd  Cd402  1  0.94348150  0.18116530  0.20349040  1.0
  Cd  Cd403  1  0.94348150  0.51449863  0.20349040  1.0
  Cd  Cd404  1  0.94348150  0.84783197  0.20349040  1.0
  Cd  Cd405  1  0.11014817  0.30616530  0.07849040  1.0
  Cd  Cd406  1  0.11014817  0.63949863  0.07849040  1.0
  Cd  Cd407  1  0.11014817  0.97283197  0.07849040  1.0
  Cd  Cd408  1  0.44348150  0.30616530  0.07849040  1.0
  Cd  Cd409  1  0.44348150  0.63949863  0.07849040  1.0
  Cd  Cd410  1  0.44348150  0.97283197  0.07849040  1.0
  Cd  Cd411  1  0.77681483  0.30616530  0.07849040  1.0
  Cd  Cd412  1  0.77681483  0.63949863  0.07849040  1.0
  Cd  Cd413  1  0.77681483  0.97283197  0.07849040  1.0
  Cd  Cd414  1  0.27988483  0.26300105  0.11881665  1.0
  Cd  Cd415  1  0.27988483  0.59633438  0.11881665  1.0
  Cd  Cd416  1  0.27988483  0.92966772  0.11881665  1.0
  Cd  Cd417  1  0.61321817  0.26300105  0.11881665  1.0
  Cd  Cd418  1  0.61321817  0.59633438  0.11881665  1.0
  Cd  Cd419  1  0.61321817  0.92966772  0.11881665  1.0
  Cd  Cd420  1  0.94655150  0.26300105  0.11881665  1.0
  Cd  Cd421  1  0.94655150  0.59633438  0.11881665  1.0
  Cd  Cd422  1  0.94655150  0.92966772  0.11881665  1.0
  Cd  Cd423  1  0.11321817  0.13800105  0.24381665  1.0
  Cd  Cd424  1  0.11321817  0.47133438  0.24381665  1.0
  Cd  Cd425  1  0.11321817  0.80466772  0.24381665  1.0
  Cd  Cd426  1  0.44655150  0.13800105  0.24381665  1.0
  Cd  Cd427  1  0.44655150  0.47133438  0.24381665  1.0
  Cd  Cd428  1  0.44655150  0.80466772  0.24381665  1.0
  Cd  Cd429  1  0.77988483  0.13800105  0.24381665  1.0
  Cd  Cd430  1  0.77988483  0.47133438  0.24381665  1.0
  Cd  Cd431  1  0.77988483  0.80466772  0.24381665  1.0
  Cd  Cd432  1  0.22190067  0.24850501  0.24928102  1.0
  Cd  Cd433  1  0.22190067  0.58183834  0.24928102  1.0
  Cd  Cd434  1  0.22190067  0.91517167  0.24928102  1.0
  Cd  Cd435  1  0.55523400  0.24850501  0.24928102  1.0
  Cd  Cd436  1  0.55523400  0.58183834  0.24928102  1.0
  Cd  Cd437  1  0.55523400  0.91517167  0.24928102  1.0
  Cd  Cd438  1  0.88856733  0.24850501  0.24928102  1.0
  Cd  Cd439  1  0.88856733  0.58183834  0.24928102  1.0
  Cd  Cd440  1  0.88856733  0.91517167  0.24928102  1.0
  Cd  Cd441  1  0.05523400  0.04017167  0.12428102  1.0
  Cd  Cd442  1  0.05523400  0.37350501  0.12428102  1.0
  Cd  Cd443  1  0.05523400  0.70683834  0.12428102  1.0
  Cd  Cd444  1  0.38856733  0.04017167  0.12428102  1.0
  Cd  Cd445  1  0.38856733  0.37350501  0.12428102  1.0
  Cd  Cd446  1  0.38856733  0.70683834  0.12428102  1.0
  Cd  Cd447  1  0.72190067  0.04017167  0.12428102  1.0
  Cd  Cd448  1  0.72190067  0.37350501  0.12428102  1.0
  Cd  Cd449  1  0.72190067  0.70683834  0.12428102  1.0
  Cd  Cd450  1  0.05333150  0.23514447  0.03587790  1.0
  Cd  Cd451  1  0.05333150  0.56847780  0.03587790  1.0
  Cd  Cd452  1  0.05333150  0.90181113  0.03587790  1.0
  Cd  Cd453  1  0.38666483  0.23514447  0.03587790  1.0
  Cd  Cd454  1  0.38666483  0.56847780  0.03587790  1.0
  Cd  Cd455  1  0.38666483  0.90181113  0.03587790  1.0
  Cd  Cd456  1  0.71999817  0.23514447  0.03587790  1.0
  Cd  Cd457  1  0.71999817  0.56847780  0.03587790  1.0
  Cd  Cd458  1  0.71999817  0.90181113  0.03587790  1.0
  Cd  Cd459  1  0.21999817  0.11014447  0.16087790  1.0
  Cd  Cd460  1  0.21999817  0.44347780  0.16087790  1.0
  Cd  Cd461  1  0.21999817  0.77681113  0.16087790  1.0
  Cd  Cd462  1  0.55333150  0.11014447  0.16087790  1.0
  Cd  Cd463  1  0.55333150  0.44347780  0.16087790  1.0
  Cd  Cd464  1  0.55333150  0.77681113  0.16087790  1.0
  Cd  Cd465  1  0.88666483  0.11014447  0.16087790  1.0
  Cd  Cd466  1  0.88666483  0.44347780  0.16087790  1.0
  Cd  Cd467  1  0.88666483  0.77681113  0.16087790  1.0
  Cd  Cd468  1  0.27660450  0.23355147  0.04030890  1.0
  Cd  Cd469  1  0.27660450  0.56688480  0.04030890  1.0
  Cd  Cd470  1  0.27660450  0.90021813  0.04030890  1.0
  Cd  Cd471  1  0.60993783  0.23355147  0.04030890  1.0
  Cd  Cd472  1  0.60993783  0.56688480  0.04030890  1.0
  Cd  Cd473  1  0.60993783  0.90021813  0.04030890  1.0
  Cd  Cd474  1  0.94327117  0.23355147  0.04030890  1.0
  Cd  Cd475  1  0.94327117  0.56688480  0.04030890  1.0
  Cd  Cd476  1  0.94327117  0.90021813  0.04030890  1.0
  Cd  Cd477  1  0.10993783  0.10855147  0.16530890  1.0
  Cd  Cd478  1  0.10993783  0.44188480  0.16530890  1.0
  Cd  Cd479  1  0.10993783  0.77521813  0.16530890  1.0
  Cd  Cd480  1  0.44327117  0.10855147  0.16530890  1.0
  Cd  Cd481  1  0.44327117  0.44188480  0.16530890  1.0
  Cd  Cd482  1  0.44327117  0.77521813  0.16530890  1.0
  Cd  Cd483  1  0.77660450  0.10855147  0.16530890  1.0
  Cd  Cd484  1  0.77660450  0.44188480  0.16530890  1.0
  Cd  Cd485  1  0.77660450  0.77521813  0.16530890  1.0
  Cd  Cd486  1  0.00125533  0.33138084  0.15984452  1.0
  Cd  Cd487  1  0.00125533  0.66471417  0.15984452  1.0
  Cd  Cd488  1  0.00125533  0.99804751  0.15984452  1.0
  Cd  Cd489  1  0.33458867  0.33138084  0.15984452  1.0
  Cd  Cd490  1  0.33458867  0.66471417  0.15984452  1.0
  Cd  Cd491  1  0.33458867  0.99804751  0.15984452  1.0
  Cd  Cd492  1  0.66792200  0.33138084  0.15984452  1.0
  Cd  Cd493  1  0.66792200  0.66471417  0.15984452  1.0
  Cd  Cd494  1  0.66792200  0.99804751  0.15984452  1.0
  Cd  Cd495  1  0.16792200  0.12304751  0.03484452  1.0
  Cd  Cd496  1  0.16792200  0.45638084  0.03484452  1.0
  Cd  Cd497  1  0.16792200  0.78971417  0.03484452  1.0
  Cd  Cd498  1  0.50125533  0.12304751  0.03484452  1.0
  Cd  Cd499  1  0.50125533  0.45638084  0.03484452  1.0
  Cd  Cd500  1  0.50125533  0.78971417  0.03484452  1.0
  Cd  Cd501  1  0.83458867  0.12304751  0.03484452  1.0
  Cd  Cd502  1  0.83458867  0.45638084  0.03484452  1.0
  Cd  Cd503  1  0.83458867  0.78971417  0.03484452  1.0
  Cd  Cd504  1  0.06788850  0.25871555  0.11377915  1.0
  Cd  Cd505  1  0.06788850  0.59204888  0.11377915  1.0
  Cd  Cd506  1  0.06788850  0.92538222  0.11377915  1.0
  Cd  Cd507  1  0.40122183  0.25871555  0.11377915  1.0
  Cd  Cd508  1  0.40122183  0.59204888  0.11377915  1.0
  Cd  Cd509  1  0.40122183  0.92538222  0.11377915  1.0
  Cd  Cd510  1  0.73455517  0.25871555  0.11377915  1.0
  Cd  Cd511  1  0.73455517  0.59204888  0.11377915  1.0
  Cd  Cd512  1  0.73455517  0.92538222  0.11377915  1.0
  Cd  Cd513  1  0.23455517  0.13371555  0.23877915  1.0
  Cd  Cd514  1  0.23455517  0.46704888  0.23877915  1.0
  Cd  Cd515  1  0.23455517  0.80038222  0.23877915  1.0
  Cd  Cd516  1  0.56788850  0.13371555  0.23877915  1.0
  Cd  Cd517  1  0.56788850  0.46704888  0.23877915  1.0
  Cd  Cd518  1  0.56788850  0.80038222  0.23877915  1.0
  Cd  Cd519  1  0.90122183  0.13371555  0.23877915  1.0
  Cd  Cd520  1  0.90122183  0.46704888  0.23877915  1.0
  Cd  Cd521  1  0.90122183  0.80038222  0.23877915  1.0
  Cd  Cd522  1  0.06562600  0.18270042  0.20153727  1.0
  Cd  Cd523  1  0.06562600  0.51603376  0.20153727  1.0
  Cd  Cd524  1  0.06562600  0.84936709  0.20153727  1.0
  Cd  Cd525  1  0.39895933  0.18270042  0.20153727  1.0
  Cd  Cd526  1  0.39895933  0.51603376  0.20153727  1.0
  Cd  Cd527  1  0.39895933  0.84936709  0.20153727  1.0
  Cd  Cd528  1  0.73229267  0.18270042  0.20153727  1.0
  Cd  Cd529  1  0.73229267  0.51603376  0.20153727  1.0
  Cd  Cd530  1  0.73229267  0.84936709  0.20153727  1.0
  Cd  Cd531  1  0.23229267  0.30770042  0.07653727  1.0
  Cd  Cd532  1  0.23229267  0.64103376  0.07653727  1.0
  Cd  Cd533  1  0.23229267  0.97436709  0.07653727  1.0
  Cd  Cd534  1  0.56562600  0.30770042  0.07653727  1.0
  Cd  Cd535  1  0.56562600  0.64103376  0.07653727  1.0
  Cd  Cd536  1  0.56562600  0.97436709  0.07653727  1.0
  Cd  Cd537  1  0.89895933  0.30770042  0.07653727  1.0
  Cd  Cd538  1  0.89895933  0.64103376  0.07653727  1.0
  Cd  Cd539  1  0.89895933  0.97436709  0.07653727  1.0
  Cd  Cd540  1  0.11351967  0.24256751  0.23745752  1.0
  Cd  Cd541  1  0.11351967  0.57590084  0.23745752  1.0
  Cd  Cd542  1  0.11351967  0.90923417  0.23745752  1.0
  Cd  Cd543  1  0.44685300  0.24256751  0.23745752  1.0
  Cd  Cd544  1  0.44685300  0.57590084  0.23745752  1.0
  Cd  Cd545  1  0.44685300  0.90923417  0.23745752  1.0
  Cd  Cd546  1  0.78018633  0.24256751  0.23745752  1.0
  Cd  Cd547  1  0.78018633  0.57590084  0.23745752  1.0
  Cd  Cd548  1  0.78018633  0.90923417  0.23745752  1.0
  Cd  Cd549  1  0.28018633  0.03423417  0.11245752  1.0
  Cd  Cd550  1  0.28018633  0.36756751  0.11245752  1.0
  Cd  Cd551  1  0.28018633  0.70090084  0.11245752  1.0
  Cd  Cd552  1  0.61351967  0.03423417  0.11245752  1.0
  Cd  Cd553  1  0.61351967  0.36756751  0.11245752  1.0
  Cd  Cd554  1  0.61351967  0.70090084  0.11245752  1.0
  Cd  Cd555  1  0.94685300  0.03423417  0.11245752  1.0
  Cd  Cd556  1  0.94685300  0.36756751  0.11245752  1.0
  Cd  Cd557  1  0.94685300  0.70090084  0.11245752  1.0
  Cd  Cd558  1  0.27921083  0.14487947  0.13830390  1.0
  Cd  Cd559  1  0.27921083  0.47821280  0.13830390  1.0
  Cd  Cd560  1  0.27921083  0.81154613  0.13830390  1.0
  Cd  Cd561  1  0.61254417  0.14487947  0.13830390  1.0
  Cd  Cd562  1  0.61254417  0.47821280  0.13830390  1.0
  Cd  Cd563  1  0.61254417  0.81154613  0.13830390  1.0
  Cd  Cd564  1  0.94587750  0.14487947  0.13830390  1.0
  Cd  Cd565  1  0.94587750  0.47821280  0.13830390  1.0
  Cd  Cd566  1  0.94587750  0.81154613  0.13830390  1.0
  Cd  Cd567  1  0.11254417  0.26987947  0.01330390  1.0
  Cd  Cd568  1  0.11254417  0.60321280  0.01330390  1.0
  Cd  Cd569  1  0.11254417  0.93654613  0.01330390  1.0
  Cd  Cd570  1  0.44587750  0.26987947  0.01330390  1.0
  Cd  Cd571  1  0.44587750  0.60321280  0.01330390  1.0
  Cd  Cd572  1  0.44587750  0.93654613  0.01330390  1.0
  Cd  Cd573  1  0.77921083  0.26987947  0.01330390  1.0
  Cd  Cd574  1  0.77921083  0.60321280  0.01330390  1.0
  Cd  Cd575  1  0.77921083  0.93654613  0.01330390  1.0
  Cd  Cd576  1  0.05114533  0.14364059  0.12779977  1.0
  Cd  Cd577  1  0.05114533  0.47697392  0.12779977  1.0
  Cd  Cd578  1  0.05114533  0.81030726  0.12779977  1.0
  Cd  Cd579  1  0.38447867  0.14364059  0.12779977  1.0
  Cd  Cd580  1  0.38447867  0.47697392  0.12779977  1.0
  Cd  Cd581  1  0.38447867  0.81030726  0.12779977  1.0
  Cd  Cd582  1  0.71781200  0.14364059  0.12779977  1.0
  Cd  Cd583  1  0.71781200  0.47697392  0.12779977  1.0
  Cd  Cd584  1  0.71781200  0.81030726  0.12779977  1.0
  Cd  Cd585  1  0.21781200  0.26864059  0.00279977  1.0
  Cd  Cd586  1  0.21781200  0.60197392  0.00279977  1.0
  Cd  Cd587  1  0.21781200  0.93530726  0.00279977  1.0
  Cd  Cd588  1  0.55114533  0.26864059  0.00279977  1.0
  Cd  Cd589  1  0.55114533  0.60197392  0.00279977  1.0
  Cd  Cd590  1  0.55114533  0.93530726  0.00279977  1.0
  Cd  Cd591  1  0.88447867  0.26864059  0.00279977  1.0
  Cd  Cd592  1  0.88447867  0.60197392  0.00279977  1.0
  Cd  Cd593  1  0.88447867  0.93530726  0.00279977  1.0
  Cd  Cd594  1  0.00325167  0.08377351  0.09187952  1.0
  Cd  Cd595  1  0.00325167  0.41710684  0.09187952  1.0
  Cd  Cd596  1  0.00325167  0.75044017  0.09187952  1.0
  Cd  Cd597  1  0.33658500  0.08377351  0.09187952  1.0
  Cd  Cd598  1  0.33658500  0.41710684  0.09187952  1.0
  Cd  Cd599  1  0.33658500  0.75044017  0.09187952  1.0
  Cd  Cd600  1  0.66991833  0.08377351  0.09187952  1.0
  Cd  Cd601  1  0.66991833  0.41710684  0.09187952  1.0
  Cd  Cd602  1  0.66991833  0.75044017  0.09187952  1.0
  Cd  Cd603  1  0.16991833  0.29210684  0.21687952  1.0
  Cd  Cd604  1  0.16991833  0.62544017  0.21687952  1.0
  Cd  Cd605  1  0.16991833  0.95877351  0.21687952  1.0
  Cd  Cd606  1  0.50325167  0.29210684  0.21687952  1.0
  Cd  Cd607  1  0.50325167  0.62544017  0.21687952  1.0
  Cd  Cd608  1  0.50325167  0.95877351  0.21687952  1.0
  Cd  Cd609  1  0.83658500  0.29210684  0.21687952  1.0
  Cd  Cd610  1  0.83658500  0.62544017  0.21687952  1.0
  Cd  Cd611  1  0.83658500  0.95877351  0.21687952  1.0
  Cd  Cd612  1  0.05379428  0.17698038  0.03622498  1.0
  Cd  Cd613  1  0.05379428  0.51031372  0.03622498  1.0
  Cd  Cd614  1  0.05379428  0.84364705  0.03622498  1.0
  Cd  Cd615  1  0.38712761  0.17698038  0.03622498  1.0
  Cd  Cd616  1  0.38712761  0.51031372  0.03622498  1.0
  Cd  Cd617  1  0.38712761  0.84364705  0.03622498  1.0
  Cd  Cd618  1  0.72046094  0.17698038  0.03622498  1.0
  Cd  Cd619  1  0.72046094  0.51031372  0.03622498  1.0
  Cd  Cd620  1  0.72046094  0.84364705  0.03622498  1.0
  Cd  Cd621  1  0.22046094  0.05198038  0.16122498  1.0
  Cd  Cd622  1  0.22046094  0.38531372  0.16122498  1.0
  Cd  Cd623  1  0.22046094  0.71864705  0.16122498  1.0
  Cd  Cd624  1  0.55379428  0.05198038  0.16122498  1.0
  Cd  Cd625  1  0.55379428  0.38531372  0.16122498  1.0
  Cd  Cd626  1  0.55379428  0.71864705  0.16122498  1.0
  Cd  Cd627  1  0.88712761  0.05198038  0.16122498  1.0
  Cd  Cd628  1  0.88712761  0.38531372  0.16122498  1.0
  Cd  Cd629  1  0.88712761  0.71864705  0.16122498  1.0
  Cd  Cd630  1  0.00176128  0.19527247  0.24720023  1.0
  Cd  Cd631  1  0.00176128  0.52860580  0.24720023  1.0
  Cd  Cd632  1  0.00176128  0.86193913  0.24720023  1.0
  Cd  Cd633  1  0.33509461  0.19527247  0.24720023  1.0
  Cd  Cd634  1  0.33509461  0.52860580  0.24720023  1.0
  Cd  Cd635  1  0.33509461  0.86193913  0.24720023  1.0
  Cd  Cd636  1  0.66842794  0.19527247  0.24720023  1.0
  Cd  Cd637  1  0.66842794  0.52860580  0.24720023  1.0
  Cd  Cd638  1  0.66842794  0.86193913  0.24720023  1.0
  Cd  Cd639  1  0.16842794  0.32027247  0.12220023  1.0
  Cd  Cd640  1  0.16842794  0.65360580  0.12220023  1.0
  Cd  Cd641  1  0.16842794  0.98693913  0.12220023  1.0
  Cd  Cd642  1  0.50176128  0.32027247  0.12220023  1.0
  Cd  Cd643  1  0.50176128  0.65360580  0.12220023  1.0
  Cd  Cd644  1  0.50176128  0.98693913  0.12220023  1.0
  Cd  Cd645  1  0.83509461  0.32027247  0.12220023  1.0
  Cd  Cd646  1  0.83509461  0.65360580  0.12220023  1.0
  Cd  Cd647  1  0.83509461  0.98693913  0.12220023  1.0
  Cd  Cd648  1  0.27773433  0.17739701  0.04296602  1.0
  Cd  Cd649  1  0.27773433  0.51073034  0.04296602  1.0
  Cd  Cd650  1  0.27773433  0.84406367  0.04296602  1.0
  Cd  Cd651  1  0.61106767  0.17739701  0.04296602  1.0
  Cd  Cd652  1  0.61106767  0.51073034  0.04296602  1.0
  Cd  Cd653  1  0.61106767  0.84406367  0.04296602  1.0
  Cd  Cd654  1  0.94440100  0.17739701  0.04296602  1.0
  Cd  Cd655  1  0.94440100  0.51073034  0.04296602  1.0
  Cd  Cd656  1  0.94440100  0.84406367  0.04296602  1.0
  Cd  Cd657  1  0.11106767  0.05239701  0.16796602  1.0
  Cd  Cd658  1  0.11106767  0.38573034  0.16796602  1.0
  Cd  Cd659  1  0.11106767  0.71906367  0.16796602  1.0
  Cd  Cd660  1  0.44440100  0.05239701  0.16796602  1.0
  Cd  Cd661  1  0.44440100  0.38573034  0.16796602  1.0
  Cd  Cd662  1  0.44440100  0.71906367  0.16796602  1.0
  Cd  Cd663  1  0.77773433  0.05239701  0.16796602  1.0
  Cd  Cd664  1  0.77773433  0.38573034  0.16796602  1.0
  Cd  Cd665  1  0.77773433  0.71906367  0.16796602  1.0
  Cd  Cd666  1  0.00359167  0.27552801  0.15978702  1.0
  Cd  Cd667  1  0.00359167  0.60886134  0.15978702  1.0
  Cd  Cd668  1  0.00359167  0.94219467  0.15978702  1.0
  Cd  Cd669  1  0.33692500  0.27552801  0.15978702  1.0
  Cd  Cd670  1  0.33692500  0.60886134  0.15978702  1.0
  Cd  Cd671  1  0.33692500  0.94219467  0.15978702  1.0
  Cd  Cd672  1  0.67025833  0.27552801  0.15978702  1.0
  Cd  Cd673  1  0.67025833  0.60886134  0.15978702  1.0
  Cd  Cd674  1  0.67025833  0.94219467  0.15978702  1.0
  Cd  Cd675  1  0.17025833  0.06719467  0.03478702  1.0
  Cd  Cd676  1  0.17025833  0.40052801  0.03478702  1.0
  Cd  Cd677  1  0.17025833  0.73386134  0.03478702  1.0
  Cd  Cd678  1  0.50359167  0.06719467  0.03478702  1.0
  Cd  Cd679  1  0.50359167  0.40052801  0.03478702  1.0
  Cd  Cd680  1  0.50359167  0.73386134  0.03478702  1.0
  Cd  Cd681  1  0.83692500  0.06719467  0.03478702  1.0
  Cd  Cd682  1  0.83692500  0.40052801  0.03478702  1.0
  Cd  Cd683  1  0.83692500  0.73386134  0.03478702  1.0
  Cd  Cd684  1  0.18369433  0.22747967  0.13365002  1.0
  Cd  Cd685  1  0.18369433  0.56081301  0.13365002  1.0
  Cd  Cd686  1  0.18369433  0.89414634  0.13365002  1.0
  Cd  Cd687  1  0.51702767  0.22747967  0.13365002  1.0
  Cd  Cd688  1  0.51702767  0.56081301  0.13365002  1.0
  Cd  Cd689  1  0.51702767  0.89414634  0.13365002  1.0
  Cd  Cd690  1  0.85036100  0.22747967  0.13365002  1.0
  Cd  Cd691  1  0.85036100  0.56081301  0.13365002  1.0
  Cd  Cd692  1  0.85036100  0.89414634  0.13365002  1.0
  Cd  Cd693  1  0.01702767  0.01914634  0.00865002  1.0
  Cd  Cd694  1  0.01702767  0.35247967  0.00865002  1.0
  Cd  Cd695  1  0.01702767  0.68581301  0.00865002  1.0
  Cd  Cd696  1  0.35036100  0.01914634  0.00865002  1.0
  Cd  Cd697  1  0.35036100  0.35247967  0.00865002  1.0
  Cd  Cd698  1  0.35036100  0.68581301  0.00865002  1.0
  Cd  Cd699  1  0.68369433  0.01914634  0.00865002  1.0
  Cd  Cd700  1  0.68369433  0.35247967  0.00865002  1.0
  Cd  Cd701  1  0.68369433  0.68581301  0.00865002  1.0
  Cd  Cd702  1  0.31707033  0.06086634  0.23368202  1.0
  Cd  Cd703  1  0.31707033  0.39419967  0.23368202  1.0
  Cd  Cd704  1  0.31707033  0.72753301  0.23368202  1.0
  Cd  Cd705  1  0.65040367  0.06086634  0.23368202  1.0
  Cd  Cd706  1  0.65040367  0.39419967  0.23368202  1.0
  Cd  Cd707  1  0.65040367  0.72753301  0.23368202  1.0
  Cd  Cd708  1  0.98373700  0.06086634  0.23368202  1.0
  Cd  Cd709  1  0.98373700  0.39419967  0.23368202  1.0
  Cd  Cd710  1  0.98373700  0.72753301  0.23368202  1.0
  Cd  Cd711  1  0.15040367  0.18586634  0.10868202  1.0
  Cd  Cd712  1  0.15040367  0.51919967  0.10868202  1.0
  Cd  Cd713  1  0.15040367  0.85253301  0.10868202  1.0
  Cd  Cd714  1  0.48373700  0.18586634  0.10868202  1.0
  Cd  Cd715  1  0.48373700  0.51919967  0.10868202  1.0
  Cd  Cd716  1  0.48373700  0.85253301  0.10868202  1.0
  Cd  Cd717  1  0.81707033  0.18586634  0.10868202  1.0
  Cd  Cd718  1  0.81707033  0.51919967  0.10868202  1.0
  Cd  Cd719  1  0.81707033  0.85253301  0.10868202  1.0
  Cd  Cd720  1  0.27303050  0.20289122  0.29049015  1.0
  Cd  Cd721  1  0.27303050  0.53622455  0.29049015  1.0
  Cd  Cd722  1  0.27303050  0.86955788  0.29049015  1.0
  Cd  Cd723  1  0.60636383  0.20289122  0.29049015  1.0
  Cd  Cd724  1  0.60636383  0.53622455  0.29049015  1.0
  Cd  Cd725  1  0.60636383  0.86955788  0.29049015  1.0
  Cd  Cd726  1  0.93969717  0.20289122  0.29049015  1.0
  Cd  Cd727  1  0.93969717  0.53622455  0.29049015  1.0
  Cd  Cd728  1  0.93969717  0.86955788  0.29049015  1.0
  Cd  Cd729  1  0.10636383  0.07789122  0.41549015  1.0
  Cd  Cd730  1  0.10636383  0.41122455  0.41549015  1.0
  Cd  Cd731  1  0.10636383  0.74455788  0.41549015  1.0
  Cd  Cd732  1  0.43969717  0.07789122  0.41549015  1.0
  Cd  Cd733  1  0.43969717  0.41122455  0.41549015  1.0
  Cd  Cd734  1  0.43969717  0.74455788  0.41549015  1.0
  Cd  Cd735  1  0.77303050  0.07789122  0.41549015  1.0
  Cd  Cd736  1  0.77303050  0.41122455  0.41549015  1.0
  Cd  Cd737  1  0.77303050  0.74455788  0.41549015  1.0
  Cd  Cd738  1  0.33292250  0.30119755  0.40573315  1.0
  Cd  Cd739  1  0.33292250  0.63453088  0.40573315  1.0
  Cd  Cd740  1  0.33292250  0.96786422  0.40573315  1.0
  Cd  Cd741  1  0.66625583  0.30119755  0.40573315  1.0
  Cd  Cd742  1  0.66625583  0.63453088  0.40573315  1.0
  Cd  Cd743  1  0.66625583  0.96786422  0.40573315  1.0
  Cd  Cd744  1  0.99958917  0.30119755  0.40573315  1.0
  Cd  Cd745  1  0.99958917  0.63453088  0.40573315  1.0
  Cd  Cd746  1  0.99958917  0.96786422  0.40573315  1.0
  Cd  Cd747  1  0.16625583  0.09286422  0.28073315  1.0
  Cd  Cd748  1  0.16625583  0.42619755  0.28073315  1.0
  Cd  Cd749  1  0.16625583  0.75953088  0.28073315  1.0
  Cd  Cd750  1  0.49958917  0.09286422  0.28073315  1.0
  Cd  Cd751  1  0.49958917  0.42619755  0.28073315  1.0
  Cd  Cd752  1  0.49958917  0.75953088  0.28073315  1.0
  Cd  Cd753  1  0.83292250  0.09286422  0.28073315  1.0
  Cd  Cd754  1  0.83292250  0.42619755  0.28073315  1.0
  Cd  Cd755  1  0.83292250  0.75953088  0.28073315  1.0
  Cd  Cd756  1  0.27330217  0.04364980  0.45085590  1.0
  Cd  Cd757  1  0.27330217  0.37698313  0.45085590  1.0
  Cd  Cd758  1  0.27330217  0.71031647  0.45085590  1.0
  Cd  Cd759  1  0.60663550  0.04364980  0.45085590  1.0
  Cd  Cd760  1  0.60663550  0.37698313  0.45085590  1.0
  Cd  Cd761  1  0.60663550  0.71031647  0.45085590  1.0
  Cd  Cd762  1  0.93996883  0.04364980  0.45085590  1.0
  Cd  Cd763  1  0.93996883  0.37698313  0.45085590  1.0
  Cd  Cd764  1  0.93996883  0.71031647  0.45085590  1.0
  Cd  Cd765  1  0.10663550  0.16864980  0.32585590  1.0
  Cd  Cd766  1  0.10663550  0.50198313  0.32585590  1.0
  Cd  Cd767  1  0.10663550  0.83531647  0.32585590  1.0
  Cd  Cd768  1  0.43996883  0.16864980  0.32585590  1.0
  Cd  Cd769  1  0.43996883  0.50198313  0.32585590  1.0
  Cd  Cd770  1  0.43996883  0.83531647  0.32585590  1.0
  Cd  Cd771  1  0.77330217  0.16864980  0.32585590  1.0
  Cd  Cd772  1  0.77330217  0.50198313  0.32585590  1.0
  Cd  Cd773  1  0.77330217  0.83531647  0.32585590  1.0
  Cd  Cd774  1  0.06060550  0.04413463  0.45149540  1.0
  Cd  Cd775  1  0.06060550  0.37746797  0.45149540  1.0
  Cd  Cd776  1  0.06060550  0.71080130  0.45149540  1.0
  Cd  Cd777  1  0.39393883  0.04413463  0.45149540  1.0
  Cd  Cd778  1  0.39393883  0.37746797  0.45149540  1.0
  Cd  Cd779  1  0.39393883  0.71080130  0.45149540  1.0
  Cd  Cd780  1  0.72727217  0.04413463  0.45149540  1.0
  Cd  Cd781  1  0.72727217  0.37746797  0.45149540  1.0
  Cd  Cd782  1  0.72727217  0.71080130  0.45149540  1.0
  Cd  Cd783  1  0.22727217  0.16913463  0.32649540  1.0
  Cd  Cd784  1  0.22727217  0.50246797  0.32649540  1.0
  Cd  Cd785  1  0.22727217  0.83580130  0.32649540  1.0
  Cd  Cd786  1  0.56060550  0.16913463  0.32649540  1.0
  Cd  Cd787  1  0.56060550  0.50246797  0.32649540  1.0
  Cd  Cd788  1  0.56060550  0.83580130  0.32649540  1.0
  Cd  Cd789  1  0.89393883  0.16913463  0.32649540  1.0
  Cd  Cd790  1  0.89393883  0.50246797  0.32649540  1.0
  Cd  Cd791  1  0.89393883  0.83580130  0.32649540  1.0
  Cd  Cd792  1  0.00071350  0.27916163  0.33625240  1.0
  Cd  Cd793  1  0.00071350  0.61249497  0.33625240  1.0
  Cd  Cd794  1  0.00071350  0.94582830  0.33625240  1.0
  Cd  Cd795  1  0.33404683  0.27916163  0.33625240  1.0
  Cd  Cd796  1  0.33404683  0.61249497  0.33625240  1.0
  Cd  Cd797  1  0.33404683  0.94582830  0.33625240  1.0
  Cd  Cd798  1  0.66738017  0.27916163  0.33625240  1.0
  Cd  Cd799  1  0.66738017  0.61249497  0.33625240  1.0
  Cd  Cd800  1  0.66738017  0.94582830  0.33625240  1.0
  Cd  Cd801  1  0.16738017  0.15416163  0.46125240  1.0
  Cd  Cd802  1  0.16738017  0.48749497  0.46125240  1.0
  Cd  Cd803  1  0.16738017  0.82082830  0.46125240  1.0
  Cd  Cd804  1  0.50071350  0.15416163  0.46125240  1.0
  Cd  Cd805  1  0.50071350  0.48749497  0.46125240  1.0
  Cd  Cd806  1  0.50071350  0.82082830  0.46125240  1.0
  Cd  Cd807  1  0.83404683  0.15416163  0.46125240  1.0
  Cd  Cd808  1  0.83404683  0.48749497  0.46125240  1.0
  Cd  Cd809  1  0.83404683  0.82082830  0.46125240  1.0
  Cd  Cd810  1  0.06004183  0.20359505  0.29091065  1.0
  Cd  Cd811  1  0.06004183  0.53692838  0.29091065  1.0
  Cd  Cd812  1  0.06004183  0.87026172  0.29091065  1.0
  Cd  Cd813  1  0.39337517  0.20359505  0.29091065  1.0
  Cd  Cd814  1  0.39337517  0.53692838  0.29091065  1.0
  Cd  Cd815  1  0.39337517  0.87026172  0.29091065  1.0
  Cd  Cd816  1  0.72670850  0.20359505  0.29091065  1.0
  Cd  Cd817  1  0.72670850  0.53692838  0.29091065  1.0
  Cd  Cd818  1  0.72670850  0.87026172  0.29091065  1.0
  Cd  Cd819  1  0.22670850  0.07859505  0.41591065  1.0
  Cd  Cd820  1  0.22670850  0.41192838  0.41591065  1.0
  Cd  Cd821  1  0.22670850  0.74526172  0.41591065  1.0
  Cd  Cd822  1  0.56004183  0.07859505  0.41591065  1.0
  Cd  Cd823  1  0.56004183  0.41192838  0.41591065  1.0
  Cd  Cd824  1  0.56004183  0.74526172  0.41591065  1.0
  Cd  Cd825  1  0.89337517  0.07859505  0.41591065  1.0
  Cd  Cd826  1  0.89337517  0.41192838  0.41591065  1.0
  Cd  Cd827  1  0.89337517  0.74526172  0.41591065  1.0
  Cd  Cd828  1  0.11509067  0.22816776  0.33219727  1.0
  Cd  Cd829  1  0.11509067  0.56150109  0.33219727  1.0
  Cd  Cd830  1  0.11509067  0.89483442  0.33219727  1.0
  Cd  Cd831  1  0.44842400  0.22816776  0.33219727  1.0
  Cd  Cd832  1  0.44842400  0.56150109  0.33219727  1.0
  Cd  Cd833  1  0.44842400  0.89483442  0.33219727  1.0
  Cd  Cd834  1  0.78175733  0.22816776  0.33219727  1.0
  Cd  Cd835  1  0.78175733  0.56150109  0.33219727  1.0
  Cd  Cd836  1  0.78175733  0.89483442  0.33219727  1.0
  Cd  Cd837  1  0.28175733  0.10316776  0.45719727  1.0
  Cd  Cd838  1  0.28175733  0.43650109  0.45719727  1.0
  Cd  Cd839  1  0.28175733  0.76983442  0.45719727  1.0
  Cd  Cd840  1  0.61509067  0.10316776  0.45719727  1.0
  Cd  Cd841  1  0.61509067  0.43650109  0.45719727  1.0
  Cd  Cd842  1  0.61509067  0.76983442  0.45719727  1.0
  Cd  Cd843  1  0.94842400  0.10316776  0.45719727  1.0
  Cd  Cd844  1  0.94842400  0.43650109  0.45719727  1.0
  Cd  Cd845  1  0.94842400  0.76983442  0.45719727  1.0
  Cd  Cd846  1  0.11578067  0.29198709  0.27755827  1.0
  Cd  Cd847  1  0.11578067  0.62532042  0.27755827  1.0
  Cd  Cd848  1  0.11578067  0.95865376  0.27755827  1.0
  Cd  Cd849  1  0.44911400  0.29198709  0.27755827  1.0
  Cd  Cd850  1  0.44911400  0.62532042  0.27755827  1.0
  Cd  Cd851  1  0.44911400  0.95865376  0.27755827  1.0
  Cd  Cd852  1  0.78244733  0.29198709  0.27755827  1.0
  Cd  Cd853  1  0.78244733  0.62532042  0.27755827  1.0
  Cd  Cd854  1  0.78244733  0.95865376  0.27755827  1.0
  Cd  Cd855  1  0.28244733  0.16698709  0.40255827  1.0
  Cd  Cd856  1  0.28244733  0.50032042  0.40255827  1.0
  Cd  Cd857  1  0.28244733  0.83365376  0.40255827  1.0
  Cd  Cd858  1  0.61578067  0.16698709  0.40255827  1.0
  Cd  Cd859  1  0.61578067  0.50032042  0.40255827  1.0
  Cd  Cd860  1  0.61578067  0.83365376  0.40255827  1.0
  Cd  Cd861  1  0.94911400  0.16698709  0.40255827  1.0
  Cd  Cd862  1  0.94911400  0.50032042  0.40255827  1.0
  Cd  Cd863  1  0.94911400  0.83365376  0.40255827  1.0
  Cd  Cd864  1  0.07900967  0.28279434  0.36029302  1.0
  Cd  Cd865  1  0.07900967  0.61612767  0.36029302  1.0
  Cd  Cd866  1  0.07900967  0.94946101  0.36029302  1.0
  Cd  Cd867  1  0.41234300  0.28279434  0.36029302  1.0
  Cd  Cd868  1  0.41234300  0.61612767  0.36029302  1.0
  Cd  Cd869  1  0.41234300  0.94946101  0.36029302  1.0
  Cd  Cd870  1  0.74567633  0.28279434  0.36029302  1.0
  Cd  Cd871  1  0.74567633  0.61612767  0.36029302  1.0
  Cd  Cd872  1  0.74567633  0.94946101  0.36029302  1.0
  Cd  Cd873  1  0.24567633  0.15779434  0.48529302  1.0
  Cd  Cd874  1  0.24567633  0.49112767  0.48529302  1.0
  Cd  Cd875  1  0.24567633  0.82446101  0.48529302  1.0
  Cd  Cd876  1  0.57900967  0.15779434  0.48529302  1.0
  Cd  Cd877  1  0.57900967  0.49112767  0.48529302  1.0
  Cd  Cd878  1  0.57900967  0.82446101  0.48529302  1.0
  Cd  Cd879  1  0.91234300  0.15779434  0.48529302  1.0
  Cd  Cd880  1  0.91234300  0.49112767  0.48529302  1.0
  Cd  Cd881  1  0.91234300  0.82446101  0.48529302  1.0
  Cd  Cd882  1  0.04923133  0.14584359  0.28280277  1.0
  Cd  Cd883  1  0.04923133  0.47917692  0.28280277  1.0
  Cd  Cd884  1  0.04923133  0.81251026  0.28280277  1.0
  Cd  Cd885  1  0.38256467  0.14584359  0.28280277  1.0
  Cd  Cd886  1  0.38256467  0.47917692  0.28280277  1.0
  Cd  Cd887  1  0.38256467  0.81251026  0.28280277  1.0
  Cd  Cd888  1  0.71589800  0.14584359  0.28280277  1.0
  Cd  Cd889  1  0.71589800  0.47917692  0.28280277  1.0
  Cd  Cd890  1  0.71589800  0.81251026  0.28280277  1.0
  Cd  Cd891  1  0.21589800  0.02084359  0.40780277  1.0
  Cd  Cd892  1  0.21589800  0.35417692  0.40780277  1.0
  Cd  Cd893  1  0.21589800  0.68751026  0.40780277  1.0
  Cd  Cd894  1  0.54923133  0.02084359  0.40780277  1.0
  Cd  Cd895  1  0.54923133  0.35417692  0.40780277  1.0
  Cd  Cd896  1  0.54923133  0.68751026  0.40780277  1.0
  Cd  Cd897  1  0.88256467  0.02084359  0.40780277  1.0
  Cd  Cd898  1  0.88256467  0.35417692  0.40780277  1.0
  Cd  Cd899  1  0.88256467  0.68751026  0.40780277  1.0
  Cd  Cd900  1  0.30053233  0.14303101  0.27643502  1.0
  Cd  Cd901  1  0.30053233  0.47636434  0.27643502  1.0
  Cd  Cd902  1  0.30053233  0.80969767  0.27643502  1.0
  Cd  Cd903  1  0.63386567  0.14303101  0.27643502  1.0
  Cd  Cd904  1  0.63386567  0.47636434  0.27643502  1.0
  Cd  Cd905  1  0.63386567  0.80969767  0.27643502  1.0
  Cd  Cd906  1  0.96719900  0.14303101  0.27643502  1.0
  Cd  Cd907  1  0.96719900  0.47636434  0.27643502  1.0
  Cd  Cd908  1  0.96719900  0.80969767  0.27643502  1.0
  Cd  Cd909  1  0.13386567  0.01803101  0.40143502  1.0
  Cd  Cd910  1  0.13386567  0.35136434  0.40143502  1.0
  Cd  Cd911  1  0.13386567  0.68469767  0.40143502  1.0
  Cd  Cd912  1  0.46719900  0.01803101  0.40143502  1.0
  Cd  Cd913  1  0.46719900  0.35136434  0.40143502  1.0
  Cd  Cd914  1  0.46719900  0.68469767  0.40143502  1.0
  Cd  Cd915  1  0.80053233  0.01803101  0.40143502  1.0
  Cd  Cd916  1  0.80053233  0.35136434  0.40143502  1.0
  Cd  Cd917  1  0.80053233  0.68469767  0.40143502  1.0
  Cd  Cd918  1  0.00397000  0.23555709  0.44370027  1.0
  Cd  Cd919  1  0.00397000  0.56889042  0.44370027  1.0
  Cd  Cd920  1  0.00397000  0.90222376  0.44370027  1.0
  Cd  Cd921  1  0.33730333  0.23555709  0.44370027  1.0
  Cd  Cd922  1  0.33730333  0.56889042  0.44370027  1.0
  Cd  Cd923  1  0.33730333  0.90222376  0.44370027  1.0
  Cd  Cd924  1  0.67063667  0.23555709  0.44370027  1.0
  Cd  Cd925  1  0.67063667  0.56889042  0.44370027  1.0
  Cd  Cd926  1  0.67063667  0.90222376  0.44370027  1.0
  Cd  Cd927  1  0.17063667  0.02722376  0.31870027  1.0
  Cd  Cd928  1  0.17063667  0.36055709  0.31870027  1.0
  Cd  Cd929  1  0.17063667  0.69389042  0.31870027  1.0
  Cd  Cd930  1  0.50397000  0.02722376  0.31870027  1.0
  Cd  Cd931  1  0.50397000  0.36055709  0.31870027  1.0
  Cd  Cd932  1  0.50397000  0.69389042  0.31870027  1.0
  Cd  Cd933  1  0.83730333  0.02722376  0.31870027  1.0
  Cd  Cd934  1  0.83730333  0.36055709  0.31870027  1.0
  Cd  Cd935  1  0.83730333  0.69389042  0.31870027  1.0
  Cd  Cd936  1  0.20868533  0.29235509  0.30166527  1.0
  Cd  Cd937  1  0.20868533  0.62568842  0.30166527  1.0
  Cd  Cd938  1  0.20868533  0.95902176  0.30166527  1.0
  Cd  Cd939  1  0.54201867  0.29235509  0.30166527  1.0
  Cd  Cd940  1  0.54201867  0.62568842  0.30166527  1.0
  Cd  Cd941  1  0.54201867  0.95902176  0.30166527  1.0
  Cd  Cd942  1  0.87535200  0.29235509  0.30166527  1.0
  Cd  Cd943  1  0.87535200  0.62568842  0.30166527  1.0
  Cd  Cd944  1  0.87535200  0.95902176  0.30166527  1.0
  Cd  Cd945  1  0.04201867  0.16735509  0.42666527  1.0
  Cd  Cd946  1  0.04201867  0.50068842  0.42666527  1.0
  Cd  Cd947  1  0.04201867  0.83402176  0.42666527  1.0
  Cd  Cd948  1  0.37535200  0.16735509  0.42666527  1.0
  Cd  Cd949  1  0.37535200  0.50068842  0.42666527  1.0
  Cd  Cd950  1  0.37535200  0.83402176  0.42666527  1.0
  Cd  Cd951  1  0.70868533  0.16735509  0.42666527  1.0
  Cd  Cd952  1  0.70868533  0.50068842  0.42666527  1.0
  Cd  Cd953  1  0.70868533  0.83402176  0.42666527  1.0
  Cd  Cd954  1  0.04251983  0.11110363  0.46614540  1.0
  Cd  Cd955  1  0.04251983  0.44443697  0.46614540  1.0
  Cd  Cd956  1  0.04251983  0.77777030  0.46614540  1.0
  Cd  Cd957  1  0.37585317  0.11110363  0.46614540  1.0
  Cd  Cd958  1  0.37585317  0.44443697  0.46614540  1.0
  Cd  Cd959  1  0.37585317  0.77777030  0.46614540  1.0
  Cd  Cd960  1  0.70918650  0.11110363  0.46614540  1.0
  Cd  Cd961  1  0.70918650  0.44443697  0.46614540  1.0
  Cd  Cd962  1  0.70918650  0.77777030  0.46614540  1.0
  Cd  Cd963  1  0.20918650  0.23610363  0.34114540  1.0
  Cd  Cd964  1  0.20918650  0.56943697  0.34114540  1.0
  Cd  Cd965  1  0.20918650  0.90277030  0.34114540  1.0
  Cd  Cd966  1  0.54251983  0.23610363  0.34114540  1.0
  Cd  Cd967  1  0.54251983  0.56943697  0.34114540  1.0
  Cd  Cd968  1  0.54251983  0.90277030  0.34114540  1.0
  Cd  Cd969  1  0.87585317  0.23610363  0.34114540  1.0
  Cd  Cd970  1  0.87585317  0.56943697  0.34114540  1.0
  Cd  Cd971  1  0.87585317  0.90277030  0.34114540  1.0
  Cd  Cd972  1  0.25202733  0.28965467  0.37327602  1.0
  Cd  Cd973  1  0.25202733  0.62298801  0.37327602  1.0
  Cd  Cd974  1  0.25202733  0.95632134  0.37327602  1.0
  Cd  Cd975  1  0.58536067  0.28965467  0.37327602  1.0
  Cd  Cd976  1  0.58536067  0.62298801  0.37327602  1.0
  Cd  Cd977  1  0.58536067  0.95632134  0.37327602  1.0
  Cd  Cd978  1  0.91869400  0.28965467  0.37327602  1.0
  Cd  Cd979  1  0.91869400  0.62298801  0.37327602  1.0
  Cd  Cd980  1  0.91869400  0.95632134  0.37327602  1.0
  Cd  Cd981  1  0.08536067  0.16465467  0.49827602  1.0
  Cd  Cd982  1  0.08536067  0.49798801  0.49827602  1.0
  Cd  Cd983  1  0.08536067  0.83132134  0.49827602  1.0
  Cd  Cd984  1  0.41869400  0.16465467  0.49827602  1.0
  Cd  Cd985  1  0.41869400  0.49798801  0.49827602  1.0
  Cd  Cd986  1  0.41869400  0.83132134  0.49827602  1.0
  Cd  Cd987  1  0.75202733  0.16465467  0.49827602  1.0
  Cd  Cd988  1  0.75202733  0.49798801  0.49827602  1.0
  Cd  Cd989  1  0.75202733  0.83132134  0.49827602  1.0
  Cd  Cd990  1  0.30820000  0.06723376  0.32775727  1.0
  Cd  Cd991  1  0.30820000  0.40056709  0.32775727  1.0
  Cd  Cd992  1  0.30820000  0.73390042  0.32775727  1.0
  Cd  Cd993  1  0.64153333  0.06723376  0.32775727  1.0
  Cd  Cd994  1  0.64153333  0.40056709  0.32775727  1.0
  Cd  Cd995  1  0.64153333  0.73390042  0.32775727  1.0
  Cd  Cd996  1  0.97486667  0.06723376  0.32775727  1.0
  Cd  Cd997  1  0.97486667  0.40056709  0.32775727  1.0
  Cd  Cd998  1  0.97486667  0.73390042  0.32775727  1.0
  Cd  Cd999  1  0.14153333  0.27556709  0.45275727  1.0
  Cd  Cd1000  1  0.14153333  0.60890042  0.45275727  1.0
  Cd  Cd1001  1  0.14153333  0.94223376  0.45275727  1.0
  Cd  Cd1002  1  0.47486667  0.27556709  0.45275727  1.0
  Cd  Cd1003  1  0.47486667  0.60890042  0.45275727  1.0
  Cd  Cd1004  1  0.47486667  0.94223376  0.45275727  1.0
  Cd  Cd1005  1  0.80820000  0.27556709  0.45275727  1.0
  Cd  Cd1006  1  0.80820000  0.60890042  0.45275727  1.0
  Cd  Cd1007  1  0.80820000  0.94223376  0.45275727  1.0
  Cd  Cd1008  1  0.21094483  0.27938405  0.46571165  1.0
  Cd  Cd1009  1  0.21094483  0.61271738  0.46571165  1.0
  Cd  Cd1010  1  0.21094483  0.94605072  0.46571165  1.0
  Cd  Cd1011  1  0.54427817  0.27938405  0.46571165  1.0
  Cd  Cd1012  1  0.54427817  0.61271738  0.46571165  1.0
  Cd  Cd1013  1  0.54427817  0.94605072  0.46571165  1.0
  Cd  Cd1014  1  0.87761150  0.27938405  0.46571165  1.0
  Cd  Cd1015  1  0.87761150  0.61271738  0.46571165  1.0
  Cd  Cd1016  1  0.87761150  0.94605072  0.46571165  1.0
  Cd  Cd1017  1  0.04427817  0.07105072  0.34071165  1.0
  Cd  Cd1018  1  0.04427817  0.40438405  0.34071165  1.0
  Cd  Cd1019  1  0.04427817  0.73771738  0.34071165  1.0
  Cd  Cd1020  1  0.37761150  0.07105072  0.34071165  1.0
  Cd  Cd1021  1  0.37761150  0.40438405  0.34071165  1.0
  Cd  Cd1022  1  0.37761150  0.73771738  0.34071165  1.0
  Cd  Cd1023  1  0.71094483  0.07105072  0.34071165  1.0
  Cd  Cd1024  1  0.71094483  0.40438405  0.34071165  1.0
  Cd  Cd1025  1  0.71094483  0.73771738  0.34071165  1.0
  Cd  Cd1026  1  0.00143733  0.01749967  0.30858102  1.0
  Cd  Cd1027  1  0.00143733  0.35083301  0.30858102  1.0
  Cd  Cd1028  1  0.00143733  0.68416634  0.30858102  1.0
  Cd  Cd1029  1  0.33477067  0.01749967  0.30858102  1.0
  Cd  Cd1030  1  0.33477067  0.35083301  0.30858102  1.0
  Cd  Cd1031  1  0.33477067  0.68416634  0.30858102  1.0
  Cd  Cd1032  1  0.66810400  0.01749967  0.30858102  1.0
  Cd  Cd1033  1  0.66810400  0.35083301  0.30858102  1.0
  Cd  Cd1034  1  0.66810400  0.68416634  0.30858102  1.0
  Cd  Cd1035  1  0.16810400  0.22583301  0.43358102  1.0
  Cd  Cd1036  1  0.16810400  0.55916634  0.43358102  1.0
  Cd  Cd1037  1  0.16810400  0.89249967  0.43358102  1.0
  Cd  Cd1038  1  0.50143733  0.22583301  0.43358102  1.0
  Cd  Cd1039  1  0.50143733  0.55916634  0.43358102  1.0
  Cd  Cd1040  1  0.50143733  0.89249967  0.43358102  1.0
  Cd  Cd1041  1  0.83477067  0.22583301  0.43358102  1.0
  Cd  Cd1042  1  0.83477067  0.55916634  0.43358102  1.0
  Cd  Cd1043  1  0.83477067  0.89249967  0.43358102  1.0
  Cd  Cd1044  1  0.28396717  0.32116472  0.45885465  1.0
  Cd  Cd1045  1  0.28396717  0.65449805  0.45885465  1.0
  Cd  Cd1046  1  0.28396717  0.98783138  0.45885465  1.0
  Cd  Cd1047  1  0.61730050  0.32116472  0.45885465  1.0
  Cd  Cd1048  1  0.61730050  0.65449805  0.45885465  1.0
  Cd  Cd1049  1  0.61730050  0.98783138  0.45885465  1.0
  Cd  Cd1050  1  0.95063383  0.32116472  0.45885465  1.0
  Cd  Cd1051  1  0.95063383  0.65449805  0.45885465  1.0
  Cd  Cd1052  1  0.95063383  0.98783138  0.45885465  1.0
  Cd  Cd1053  1  0.11730050  0.11283138  0.33385465  1.0
  Cd  Cd1054  1  0.11730050  0.44616472  0.33385465  1.0
  Cd  Cd1055  1  0.11730050  0.77949805  0.33385465  1.0
  Cd  Cd1056  1  0.45063383  0.11283138  0.33385465  1.0
  Cd  Cd1057  1  0.45063383  0.44616472  0.33385465  1.0
  Cd  Cd1058  1  0.45063383  0.77949805  0.33385465  1.0
  Cd  Cd1059  1  0.78396717  0.11283138  0.33385465  1.0
  Cd  Cd1060  1  0.78396717  0.44616472  0.33385465  1.0
  Cd  Cd1061  1  0.78396717  0.77949805  0.33385465  1.0
  Cd  Cd1062  1  0.33178683  0.04760597  0.49471940  1.0
  Cd  Cd1063  1  0.33178683  0.38093930  0.49471940  1.0
  Cd  Cd1064  1  0.33178683  0.71427263  0.49471940  1.0
  Cd  Cd1065  1  0.66512017  0.04760597  0.49471940  1.0
  Cd  Cd1066  1  0.66512017  0.38093930  0.49471940  1.0
  Cd  Cd1067  1  0.66512017  0.71427263  0.49471940  1.0
  Cd  Cd1068  1  0.99845350  0.04760597  0.49471940  1.0
  Cd  Cd1069  1  0.99845350  0.38093930  0.49471940  1.0
  Cd  Cd1070  1  0.99845350  0.71427263  0.49471940  1.0
  Cd  Cd1071  1  0.16512017  0.17260597  0.36971940  1.0
  Cd  Cd1072  1  0.16512017  0.50593930  0.36971940  1.0
  Cd  Cd1073  1  0.16512017  0.83927263  0.36971940  1.0
  Cd  Cd1074  1  0.49845350  0.17260597  0.36971940  1.0
  Cd  Cd1075  1  0.49845350  0.50593930  0.36971940  1.0
  Cd  Cd1076  1  0.49845350  0.83927263  0.36971940  1.0
  Cd  Cd1077  1  0.83178683  0.17260597  0.36971940  1.0
  Cd  Cd1078  1  0.83178683  0.50593930  0.36971940  1.0
  Cd  Cd1079  1  0.83178683  0.83927263  0.36971940  1.0
  Cd  Cd1080  1  0.04908067  0.32085209  0.45558127  1.0
  Cd  Cd1081  1  0.04908067  0.65418542  0.45558127  1.0
  Cd  Cd1082  1  0.04908067  0.98751876  0.45558127  1.0
  Cd  Cd1083  1  0.38241400  0.32085209  0.45558127  1.0
  Cd  Cd1084  1  0.38241400  0.65418542  0.45558127  1.0
  Cd  Cd1085  1  0.38241400  0.98751876  0.45558127  1.0
  Cd  Cd1086  1  0.71574733  0.32085209  0.45558127  1.0
  Cd  Cd1087  1  0.71574733  0.65418542  0.45558127  1.0
  Cd  Cd1088  1  0.71574733  0.98751876  0.45558127  1.0
  Cd  Cd1089  1  0.21574733  0.11251876  0.33058127  1.0
  Cd  Cd1090  1  0.21574733  0.44585209  0.33058127  1.0
  Cd  Cd1091  1  0.21574733  0.77918542  0.33058127  1.0
  Cd  Cd1092  1  0.54908067  0.11251876  0.33058127  1.0
  Cd  Cd1093  1  0.54908067  0.44585209  0.33058127  1.0
  Cd  Cd1094  1  0.54908067  0.77918542  0.33058127  1.0
  Cd  Cd1095  1  0.88241400  0.11251876  0.33058127  1.0
  Cd  Cd1096  1  0.88241400  0.44585209  0.33058127  1.0
  Cd  Cd1097  1  0.88241400  0.77918542  0.33058127  1.0
  Cd  Cd1098  1  0.33100833  0.22466734  0.32124402  1.0
  Cd  Cd1099  1  0.33100833  0.55800067  0.32124402  1.0
  Cd  Cd1100  1  0.33100833  0.89133401  0.32124402  1.0
  Cd  Cd1101  1  0.66434167  0.22466734  0.32124402  1.0
  Cd  Cd1102  1  0.66434167  0.55800067  0.32124402  1.0
  Cd  Cd1103  1  0.66434167  0.89133401  0.32124402  1.0
  Cd  Cd1104  1  0.99767500  0.22466734  0.32124402  1.0
  Cd  Cd1105  1  0.99767500  0.55800067  0.32124402  1.0
  Cd  Cd1106  1  0.99767500  0.89133401  0.32124402  1.0
  Cd  Cd1107  1  0.16434167  0.09966734  0.44624402  1.0
  Cd  Cd1108  1  0.16434167  0.43300067  0.44624402  1.0
  Cd  Cd1109  1  0.16434167  0.76633401  0.44624402  1.0
  Cd  Cd1110  1  0.49767500  0.09966734  0.44624402  1.0
  Cd  Cd1111  1  0.49767500  0.43300067  0.44624402  1.0
  Cd  Cd1112  1  0.49767500  0.76633401  0.44624402  1.0
  Cd  Cd1113  1  0.83100833  0.09966734  0.44624402  1.0
  Cd  Cd1114  1  0.83100833  0.43300067  0.44624402  1.0
  Cd  Cd1115  1  0.83100833  0.76633401  0.44624402  1.0
  Cd  Cd1116  1  0.27681483  0.26449863  0.45349040  1.0
  Cd  Cd1117  1  0.27681483  0.59783197  0.45349040  1.0
  Cd  Cd1118  1  0.27681483  0.93116530  0.45349040  1.0
  Cd  Cd1119  1  0.61014817  0.26449863  0.45349040  1.0
  Cd  Cd1120  1  0.61014817  0.59783197  0.45349040  1.0
  Cd  Cd1121  1  0.61014817  0.93116530  0.45349040  1.0
  Cd  Cd1122  1  0.94348150  0.26449863  0.45349040  1.0
  Cd  Cd1123  1  0.94348150  0.59783197  0.45349040  1.0
  Cd  Cd1124  1  0.94348150  0.93116530  0.45349040  1.0
  Cd  Cd1125  1  0.11014817  0.05616530  0.32849040  1.0
  Cd  Cd1126  1  0.11014817  0.38949863  0.32849040  1.0
  Cd  Cd1127  1  0.11014817  0.72283197  0.32849040  1.0
  Cd  Cd1128  1  0.44348150  0.05616530  0.32849040  1.0
  Cd  Cd1129  1  0.44348150  0.38949863  0.32849040  1.0
  Cd  Cd1130  1  0.44348150  0.72283197  0.32849040  1.0
  Cd  Cd1131  1  0.77681483  0.05616530  0.32849040  1.0
  Cd  Cd1132  1  0.77681483  0.38949863  0.32849040  1.0
  Cd  Cd1133  1  0.77681483  0.72283197  0.32849040  1.0
  Cd  Cd1134  1  0.27988483  0.01300105  0.36881665  1.0
  Cd  Cd1135  1  0.27988483  0.34633438  0.36881665  1.0
  Cd  Cd1136  1  0.27988483  0.67966772  0.36881665  1.0
  Cd  Cd1137  1  0.61321817  0.01300105  0.36881665  1.0
  Cd  Cd1138  1  0.61321817  0.34633438  0.36881665  1.0
  Cd  Cd1139  1  0.61321817  0.67966772  0.36881665  1.0
  Cd  Cd1140  1  0.94655150  0.01300105  0.36881665  1.0
  Cd  Cd1141  1  0.94655150  0.34633438  0.36881665  1.0
  Cd  Cd1142  1  0.94655150  0.67966772  0.36881665  1.0
  Cd  Cd1143  1  0.11321817  0.22133438  0.49381665  1.0
  Cd  Cd1144  1  0.11321817  0.55466772  0.49381665  1.0
  Cd  Cd1145  1  0.11321817  0.88800105  0.49381665  1.0
  Cd  Cd1146  1  0.44655150  0.22133438  0.49381665  1.0
  Cd  Cd1147  1  0.44655150  0.55466772  0.49381665  1.0
  Cd  Cd1148  1  0.44655150  0.88800105  0.49381665  1.0
  Cd  Cd1149  1  0.77988483  0.22133438  0.49381665  1.0
  Cd  Cd1150  1  0.77988483  0.55466772  0.49381665  1.0
  Cd  Cd1151  1  0.77988483  0.88800105  0.49381665  1.0
  Cd  Cd1152  1  0.22190067  0.33183834  0.49928102  1.0
  Cd  Cd1153  1  0.22190067  0.66517167  0.49928102  1.0
  Cd  Cd1154  1  0.22190067  0.99850501  0.49928102  1.0
  Cd  Cd1155  1  0.55523400  0.33183834  0.49928102  1.0
  Cd  Cd1156  1  0.55523400  0.66517167  0.49928102  1.0
  Cd  Cd1157  1  0.55523400  0.99850501  0.49928102  1.0
  Cd  Cd1158  1  0.88856733  0.33183834  0.49928102  1.0
  Cd  Cd1159  1  0.88856733  0.66517167  0.49928102  1.0
  Cd  Cd1160  1  0.88856733  0.99850501  0.49928102  1.0
  Cd  Cd1161  1  0.05523400  0.12350501  0.37428102  1.0
  Cd  Cd1162  1  0.05523400  0.45683834  0.37428102  1.0
  Cd  Cd1163  1  0.05523400  0.79017167  0.37428102  1.0
  Cd  Cd1164  1  0.38856733  0.12350501  0.37428102  1.0
  Cd  Cd1165  1  0.38856733  0.45683834  0.37428102  1.0
  Cd  Cd1166  1  0.38856733  0.79017167  0.37428102  1.0
  Cd  Cd1167  1  0.72190067  0.12350501  0.37428102  1.0
  Cd  Cd1168  1  0.72190067  0.45683834  0.37428102  1.0
  Cd  Cd1169  1  0.72190067  0.79017167  0.37428102  1.0
  Cd  Cd1170  1  0.05333150  0.31847780  0.28587790  1.0
  Cd  Cd1171  1  0.05333150  0.65181113  0.28587790  1.0
  Cd  Cd1172  1  0.05333150  0.98514447  0.28587790  1.0
  Cd  Cd1173  1  0.38666483  0.31847780  0.28587790  1.0
  Cd  Cd1174  1  0.38666483  0.65181113  0.28587790  1.0
  Cd  Cd1175  1  0.38666483  0.98514447  0.28587790  1.0
  Cd  Cd1176  1  0.71999817  0.31847780  0.28587790  1.0
  Cd  Cd1177  1  0.71999817  0.65181113  0.28587790  1.0
  Cd  Cd1178  1  0.71999817  0.98514447  0.28587790  1.0
  Cd  Cd1179  1  0.21999817  0.19347780  0.41087790  1.0
  Cd  Cd1180  1  0.21999817  0.52681113  0.41087790  1.0
  Cd  Cd1181  1  0.21999817  0.86014447  0.41087790  1.0
  Cd  Cd1182  1  0.55333150  0.19347780  0.41087790  1.0
  Cd  Cd1183  1  0.55333150  0.52681113  0.41087790  1.0
  Cd  Cd1184  1  0.55333150  0.86014447  0.41087790  1.0
  Cd  Cd1185  1  0.88666483  0.19347780  0.41087790  1.0
  Cd  Cd1186  1  0.88666483  0.52681113  0.41087790  1.0
  Cd  Cd1187  1  0.88666483  0.86014447  0.41087790  1.0
  Cd  Cd1188  1  0.27660450  0.31688480  0.29030890  1.0
  Cd  Cd1189  1  0.27660450  0.65021813  0.29030890  1.0
  Cd  Cd1190  1  0.27660450  0.98355147  0.29030890  1.0
  Cd  Cd1191  1  0.60993783  0.31688480  0.29030890  1.0
  Cd  Cd1192  1  0.60993783  0.65021813  0.29030890  1.0
  Cd  Cd1193  1  0.60993783  0.98355147  0.29030890  1.0
  Cd  Cd1194  1  0.94327117  0.31688480  0.29030890  1.0
  Cd  Cd1195  1  0.94327117  0.65021813  0.29030890  1.0
  Cd  Cd1196  1  0.94327117  0.98355147  0.29030890  1.0
  Cd  Cd1197  1  0.10993783  0.19188480  0.41530890  1.0
  Cd  Cd1198  1  0.10993783  0.52521813  0.41530890  1.0
  Cd  Cd1199  1  0.10993783  0.85855147  0.41530890  1.0
  Cd  Cd1200  1  0.44327117  0.19188480  0.41530890  1.0
  Cd  Cd1201  1  0.44327117  0.52521813  0.41530890  1.0
  Cd  Cd1202  1  0.44327117  0.85855147  0.41530890  1.0
  Cd  Cd1203  1  0.77660450  0.19188480  0.41530890  1.0
  Cd  Cd1204  1  0.77660450  0.52521813  0.41530890  1.0
  Cd  Cd1205  1  0.77660450  0.85855147  0.41530890  1.0
  Cd  Cd1206  1  0.00125533  0.08138084  0.40984452  1.0
  Cd  Cd1207  1  0.00125533  0.41471417  0.40984452  1.0
  Cd  Cd1208  1  0.00125533  0.74804751  0.40984452  1.0
  Cd  Cd1209  1  0.33458867  0.08138084  0.40984452  1.0
  Cd  Cd1210  1  0.33458867  0.41471417  0.40984452  1.0
  Cd  Cd1211  1  0.33458867  0.74804751  0.40984452  1.0
  Cd  Cd1212  1  0.66792200  0.08138084  0.40984452  1.0
  Cd  Cd1213  1  0.66792200  0.41471417  0.40984452  1.0
  Cd  Cd1214  1  0.66792200  0.74804751  0.40984452  1.0
  Cd  Cd1215  1  0.16792200  0.20638084  0.28484452  1.0
  Cd  Cd1216  1  0.16792200  0.53971417  0.28484452  1.0
  Cd  Cd1217  1  0.16792200  0.87304751  0.28484452  1.0
  Cd  Cd1218  1  0.50125533  0.20638084  0.28484452  1.0
  Cd  Cd1219  1  0.50125533  0.53971417  0.28484452  1.0
  Cd  Cd1220  1  0.50125533  0.87304751  0.28484452  1.0
  Cd  Cd1221  1  0.83458867  0.20638084  0.28484452  1.0
  Cd  Cd1222  1  0.83458867  0.53971417  0.28484452  1.0
  Cd  Cd1223  1  0.83458867  0.87304751  0.28484452  1.0
  Cd  Cd1224  1  0.06788850  0.00871555  0.36377915  1.0
  Cd  Cd1225  1  0.06788850  0.34204888  0.36377915  1.0
  Cd  Cd1226  1  0.06788850  0.67538222  0.36377915  1.0
  Cd  Cd1227  1  0.40122183  0.00871555  0.36377915  1.0
  Cd  Cd1228  1  0.40122183  0.34204888  0.36377915  1.0
  Cd  Cd1229  1  0.40122183  0.67538222  0.36377915  1.0
  Cd  Cd1230  1  0.73455517  0.00871555  0.36377915  1.0
  Cd  Cd1231  1  0.73455517  0.34204888  0.36377915  1.0
  Cd  Cd1232  1  0.73455517  0.67538222  0.36377915  1.0
  Cd  Cd1233  1  0.23455517  0.21704888  0.48877915  1.0
  Cd  Cd1234  1  0.23455517  0.55038222  0.48877915  1.0
  Cd  Cd1235  1  0.23455517  0.88371555  0.48877915  1.0
  Cd  Cd1236  1  0.56788850  0.21704888  0.48877915  1.0
  Cd  Cd1237  1  0.56788850  0.55038222  0.48877915  1.0
  Cd  Cd1238  1  0.56788850  0.88371555  0.48877915  1.0
  Cd  Cd1239  1  0.90122183  0.21704888  0.48877915  1.0
  Cd  Cd1240  1  0.90122183  0.55038222  0.48877915  1.0
  Cd  Cd1241  1  0.90122183  0.88371555  0.48877915  1.0
  Cd  Cd1242  1  0.06562600  0.26603376  0.45153727  1.0
  Cd  Cd1243  1  0.06562600  0.59936709  0.45153727  1.0
  Cd  Cd1244  1  0.06562600  0.93270042  0.45153727  1.0
  Cd  Cd1245  1  0.39895933  0.26603376  0.45153727  1.0
  Cd  Cd1246  1  0.39895933  0.59936709  0.45153727  1.0
  Cd  Cd1247  1  0.39895933  0.93270042  0.45153727  1.0
  Cd  Cd1248  1  0.73229267  0.26603376  0.45153727  1.0
  Cd  Cd1249  1  0.73229267  0.59936709  0.45153727  1.0
  Cd  Cd1250  1  0.73229267  0.93270042  0.45153727  1.0
  Cd  Cd1251  1  0.23229267  0.05770042  0.32653727  1.0
  Cd  Cd1252  1  0.23229267  0.39103376  0.32653727  1.0
  Cd  Cd1253  1  0.23229267  0.72436709  0.32653727  1.0
  Cd  Cd1254  1  0.56562600  0.05770042  0.32653727  1.0
  Cd  Cd1255  1  0.56562600  0.39103376  0.32653727  1.0
  Cd  Cd1256  1  0.56562600  0.72436709  0.32653727  1.0
  Cd  Cd1257  1  0.89895933  0.05770042  0.32653727  1.0
  Cd  Cd1258  1  0.89895933  0.39103376  0.32653727  1.0
  Cd  Cd1259  1  0.89895933  0.72436709  0.32653727  1.0
  Cd  Cd1260  1  0.11351967  0.32590084  0.48745752  1.0
  Cd  Cd1261  1  0.11351967  0.65923417  0.48745752  1.0
  Cd  Cd1262  1  0.11351967  0.99256751  0.48745752  1.0
  Cd  Cd1263  1  0.44685300  0.32590084  0.48745752  1.0
  Cd  Cd1264  1  0.44685300  0.65923417  0.48745752  1.0
  Cd  Cd1265  1  0.44685300  0.99256751  0.48745752  1.0
  Cd  Cd1266  1  0.78018633  0.32590084  0.48745752  1.0
  Cd  Cd1267  1  0.78018633  0.65923417  0.48745752  1.0
  Cd  Cd1268  1  0.78018633  0.99256751  0.48745752  1.0
  Cd  Cd1269  1  0.28018633  0.11756751  0.36245752  1.0
  Cd  Cd1270  1  0.28018633  0.45090084  0.36245752  1.0
  Cd  Cd1271  1  0.28018633  0.78423417  0.36245752  1.0
  Cd  Cd1272  1  0.61351967  0.11756751  0.36245752  1.0
  Cd  Cd1273  1  0.61351967  0.45090084  0.36245752  1.0
  Cd  Cd1274  1  0.61351967  0.78423417  0.36245752  1.0
  Cd  Cd1275  1  0.94685300  0.11756751  0.36245752  1.0
  Cd  Cd1276  1  0.94685300  0.45090084  0.36245752  1.0
  Cd  Cd1277  1  0.94685300  0.78423417  0.36245752  1.0
  Cd  Cd1278  1  0.27921083  0.22821280  0.38830390  1.0
  Cd  Cd1279  1  0.27921083  0.56154613  0.38830390  1.0
  Cd  Cd1280  1  0.27921083  0.89487947  0.38830390  1.0
  Cd  Cd1281  1  0.61254417  0.22821280  0.38830390  1.0
  Cd  Cd1282  1  0.61254417  0.56154613  0.38830390  1.0
  Cd  Cd1283  1  0.61254417  0.89487947  0.38830390  1.0
  Cd  Cd1284  1  0.94587750  0.22821280  0.38830390  1.0
  Cd  Cd1285  1  0.94587750  0.56154613  0.38830390  1.0
  Cd  Cd1286  1  0.94587750  0.89487947  0.38830390  1.0
  Cd  Cd1287  1  0.11254417  0.01987947  0.26330390  1.0
  Cd  Cd1288  1  0.11254417  0.35321280  0.26330390  1.0
  Cd  Cd1289  1  0.11254417  0.68654613  0.26330390  1.0
  Cd  Cd1290  1  0.44587750  0.01987947  0.26330390  1.0
  Cd  Cd1291  1  0.44587750  0.35321280  0.26330390  1.0
  Cd  Cd1292  1  0.44587750  0.68654613  0.26330390  1.0
  Cd  Cd1293  1  0.77921083  0.01987947  0.26330390  1.0
  Cd  Cd1294  1  0.77921083  0.35321280  0.26330390  1.0
  Cd  Cd1295  1  0.77921083  0.68654613  0.26330390  1.0
  Cd  Cd1296  1  0.05114533  0.22697392  0.37779977  1.0
  Cd  Cd1297  1  0.05114533  0.56030726  0.37779977  1.0
  Cd  Cd1298  1  0.05114533  0.89364059  0.37779977  1.0
  Cd  Cd1299  1  0.38447867  0.22697392  0.37779977  1.0
  Cd  Cd1300  1  0.38447867  0.56030726  0.37779977  1.0
  Cd  Cd1301  1  0.38447867  0.89364059  0.37779977  1.0
  Cd  Cd1302  1  0.71781200  0.22697392  0.37779977  1.0
  Cd  Cd1303  1  0.71781200  0.56030726  0.37779977  1.0
  Cd  Cd1304  1  0.71781200  0.89364059  0.37779977  1.0
  Cd  Cd1305  1  0.21781200  0.01864059  0.25279977  1.0
  Cd  Cd1306  1  0.21781200  0.35197392  0.25279977  1.0
  Cd  Cd1307  1  0.21781200  0.68530726  0.25279977  1.0
  Cd  Cd1308  1  0.55114533  0.01864059  0.25279977  1.0
  Cd  Cd1309  1  0.55114533  0.35197392  0.25279977  1.0
  Cd  Cd1310  1  0.55114533  0.68530726  0.25279977  1.0
  Cd  Cd1311  1  0.88447867  0.01864059  0.25279977  1.0
  Cd  Cd1312  1  0.88447867  0.35197392  0.25279977  1.0
  Cd  Cd1313  1  0.88447867  0.68530726  0.25279977  1.0
  Cd  Cd1314  1  0.00325167  0.16710684  0.34187952  1.0
  Cd  Cd1315  1  0.00325167  0.50044017  0.34187952  1.0
  Cd  Cd1316  1  0.00325167  0.83377351  0.34187952  1.0
  Cd  Cd1317  1  0.33658500  0.16710684  0.34187952  1.0
  Cd  Cd1318  1  0.33658500  0.50044017  0.34187952  1.0
  Cd  Cd1319  1  0.33658500  0.83377351  0.34187952  1.0
  Cd  Cd1320  1  0.66991833  0.16710684  0.34187952  1.0
  Cd  Cd1321  1  0.66991833  0.50044017  0.34187952  1.0
  Cd  Cd1322  1  0.66991833  0.83377351  0.34187952  1.0
  Cd  Cd1323  1  0.16991833  0.04210684  0.46687952  1.0
  Cd  Cd1324  1  0.16991833  0.37544017  0.46687952  1.0
  Cd  Cd1325  1  0.16991833  0.70877351  0.46687952  1.0
  Cd  Cd1326  1  0.50325167  0.04210684  0.46687952  1.0
  Cd  Cd1327  1  0.50325167  0.37544017  0.46687952  1.0
  Cd  Cd1328  1  0.50325167  0.70877351  0.46687952  1.0
  Cd  Cd1329  1  0.83658500  0.04210684  0.46687952  1.0
  Cd  Cd1330  1  0.83658500  0.37544017  0.46687952  1.0
  Cd  Cd1331  1  0.83658500  0.70877351  0.46687952  1.0
  Cd  Cd1332  1  0.05379428  0.26031372  0.28622498  1.0
  Cd  Cd1333  1  0.05379428  0.59364705  0.28622498  1.0
  Cd  Cd1334  1  0.05379428  0.92698038  0.28622498  1.0
  Cd  Cd1335  1  0.38712761  0.26031372  0.28622498  1.0
  Cd  Cd1336  1  0.38712761  0.59364705  0.28622498  1.0
  Cd  Cd1337  1  0.38712761  0.92698038  0.28622498  1.0
  Cd  Cd1338  1  0.72046094  0.26031372  0.28622498  1.0
  Cd  Cd1339  1  0.72046094  0.59364705  0.28622498  1.0
  Cd  Cd1340  1  0.72046094  0.92698038  0.28622498  1.0
  Cd  Cd1341  1  0.22046094  0.13531372  0.41122498  1.0
  Cd  Cd1342  1  0.22046094  0.46864705  0.41122498  1.0
  Cd  Cd1343  1  0.22046094  0.80198038  0.41122498  1.0
  Cd  Cd1344  1  0.55379428  0.13531372  0.41122498  1.0
  Cd  Cd1345  1  0.55379428  0.46864705  0.41122498  1.0
  Cd  Cd1346  1  0.55379428  0.80198038  0.41122498  1.0
  Cd  Cd1347  1  0.88712761  0.13531372  0.41122498  1.0
  Cd  Cd1348  1  0.88712761  0.46864705  0.41122498  1.0
  Cd  Cd1349  1  0.88712761  0.80198038  0.41122498  1.0
  Cd  Cd1350  1  0.00176128  0.27860580  0.49720023  1.0
  Cd  Cd1351  1  0.00176128  0.61193913  0.49720023  1.0
  Cd  Cd1352  1  0.00176128  0.94527247  0.49720023  1.0
  Cd  Cd1353  1  0.33509461  0.27860580  0.49720023  1.0
  Cd  Cd1354  1  0.33509461  0.61193913  0.49720023  1.0
  Cd  Cd1355  1  0.33509461  0.94527247  0.49720023  1.0
  Cd  Cd1356  1  0.66842794  0.27860580  0.49720023  1.0
  Cd  Cd1357  1  0.66842794  0.61193913  0.49720023  1.0
  Cd  Cd1358  1  0.66842794  0.94527247  0.49720023  1.0
  Cd  Cd1359  1  0.16842794  0.07027247  0.37220023  1.0
  Cd  Cd1360  1  0.16842794  0.40360580  0.37220023  1.0
  Cd  Cd1361  1  0.16842794  0.73693913  0.37220023  1.0
  Cd  Cd1362  1  0.50176128  0.07027247  0.37220023  1.0
  Cd  Cd1363  1  0.50176128  0.40360580  0.37220023  1.0
  Cd  Cd1364  1  0.50176128  0.73693913  0.37220023  1.0
  Cd  Cd1365  1  0.83509461  0.07027247  0.37220023  1.0
  Cd  Cd1366  1  0.83509461  0.40360580  0.37220023  1.0
  Cd  Cd1367  1  0.83509461  0.73693913  0.37220023  1.0
  Cd  Cd1368  1  0.27773433  0.26073034  0.29296602  1.0
  Cd  Cd1369  1  0.27773433  0.59406367  0.29296602  1.0
  Cd  Cd1370  1  0.27773433  0.92739701  0.29296602  1.0
  Cd  Cd1371  1  0.61106767  0.26073034  0.29296602  1.0
  Cd  Cd1372  1  0.61106767  0.59406367  0.29296602  1.0
  Cd  Cd1373  1  0.61106767  0.92739701  0.29296602  1.0
  Cd  Cd1374  1  0.94440100  0.26073034  0.29296602  1.0
  Cd  Cd1375  1  0.94440100  0.59406367  0.29296602  1.0
  Cd  Cd1376  1  0.94440100  0.92739701  0.29296602  1.0
  Cd  Cd1377  1  0.11106767  0.13573034  0.41796602  1.0
  Cd  Cd1378  1  0.11106767  0.46906367  0.41796602  1.0
  Cd  Cd1379  1  0.11106767  0.80239701  0.41796602  1.0
  Cd  Cd1380  1  0.44440100  0.13573034  0.41796602  1.0
  Cd  Cd1381  1  0.44440100  0.46906367  0.41796602  1.0
  Cd  Cd1382  1  0.44440100  0.80239701  0.41796602  1.0
  Cd  Cd1383  1  0.77773433  0.13573034  0.41796602  1.0
  Cd  Cd1384  1  0.77773433  0.46906367  0.41796602  1.0
  Cd  Cd1385  1  0.77773433  0.80239701  0.41796602  1.0
  Cd  Cd1386  1  0.00359167  0.02552801  0.40978702  1.0
  Cd  Cd1387  1  0.00359167  0.35886134  0.40978702  1.0
  Cd  Cd1388  1  0.00359167  0.69219467  0.40978702  1.0
  Cd  Cd1389  1  0.33692500  0.02552801  0.40978702  1.0
  Cd  Cd1390  1  0.33692500  0.35886134  0.40978702  1.0
  Cd  Cd1391  1  0.33692500  0.69219467  0.40978702  1.0
  Cd  Cd1392  1  0.67025833  0.02552801  0.40978702  1.0
  Cd  Cd1393  1  0.67025833  0.35886134  0.40978702  1.0
  Cd  Cd1394  1  0.67025833  0.69219467  0.40978702  1.0
  Cd  Cd1395  1  0.17025833  0.15052801  0.28478702  1.0
  Cd  Cd1396  1  0.17025833  0.48386134  0.28478702  1.0
  Cd  Cd1397  1  0.17025833  0.81719467  0.28478702  1.0
  Cd  Cd1398  1  0.50359167  0.15052801  0.28478702  1.0
  Cd  Cd1399  1  0.50359167  0.48386134  0.28478702  1.0
  Cd  Cd1400  1  0.50359167  0.81719467  0.28478702  1.0
  Cd  Cd1401  1  0.83692500  0.15052801  0.28478702  1.0
  Cd  Cd1402  1  0.83692500  0.48386134  0.28478702  1.0
  Cd  Cd1403  1  0.83692500  0.81719467  0.28478702  1.0
  Cd  Cd1404  1  0.18369433  0.31081301  0.38365002  1.0
  Cd  Cd1405  1  0.18369433  0.64414634  0.38365002  1.0
  Cd  Cd1406  1  0.18369433  0.97747967  0.38365002  1.0
  Cd  Cd1407  1  0.51702767  0.31081301  0.38365002  1.0
  Cd  Cd1408  1  0.51702767  0.64414634  0.38365002  1.0
  Cd  Cd1409  1  0.51702767  0.97747967  0.38365002  1.0
  Cd  Cd1410  1  0.85036100  0.31081301  0.38365002  1.0
  Cd  Cd1411  1  0.85036100  0.64414634  0.38365002  1.0
  Cd  Cd1412  1  0.85036100  0.97747967  0.38365002  1.0
  Cd  Cd1413  1  0.01702767  0.10247967  0.25865002  1.0
  Cd  Cd1414  1  0.01702767  0.43581301  0.25865002  1.0
  Cd  Cd1415  1  0.01702767  0.76914634  0.25865002  1.0
  Cd  Cd1416  1  0.35036100  0.10247967  0.25865002  1.0
  Cd  Cd1417  1  0.35036100  0.43581301  0.25865002  1.0
  Cd  Cd1418  1  0.35036100  0.76914634  0.25865002  1.0
  Cd  Cd1419  1  0.68369433  0.10247967  0.25865002  1.0
  Cd  Cd1420  1  0.68369433  0.43581301  0.25865002  1.0
  Cd  Cd1421  1  0.68369433  0.76914634  0.25865002  1.0
  Cd  Cd1422  1  0.31707033  0.14419967  0.48368202  1.0
  Cd  Cd1423  1  0.31707033  0.47753301  0.48368202  1.0
  Cd  Cd1424  1  0.31707033  0.81086634  0.48368202  1.0
  Cd  Cd1425  1  0.65040367  0.14419967  0.48368202  1.0
  Cd  Cd1426  1  0.65040367  0.47753301  0.48368202  1.0
  Cd  Cd1427  1  0.65040367  0.81086634  0.48368202  1.0
  Cd  Cd1428  1  0.98373700  0.14419967  0.48368202  1.0
  Cd  Cd1429  1  0.98373700  0.47753301  0.48368202  1.0
  Cd  Cd1430  1  0.98373700  0.81086634  0.48368202  1.0
  Cd  Cd1431  1  0.15040367  0.26919967  0.35868202  1.0
  Cd  Cd1432  1  0.15040367  0.60253301  0.35868202  1.0
  Cd  Cd1433  1  0.15040367  0.93586634  0.35868202  1.0
  Cd  Cd1434  1  0.48373700  0.26919967  0.35868202  1.0
  Cd  Cd1435  1  0.48373700  0.60253301  0.35868202  1.0
  Cd  Cd1436  1  0.48373700  0.93586634  0.35868202  1.0
  Cd  Cd1437  1  0.81707033  0.26919967  0.35868202  1.0
  Cd  Cd1438  1  0.81707033  0.60253301  0.35868202  1.0
  Cd  Cd1439  1  0.81707033  0.93586634  0.35868202  1.0
  Ni  Ni1440  1  0.10169300  0.22479567  0.16483202  1.0
  Ni  Ni1441  1  0.10169300  0.55812901  0.16483202  1.0
  Ni  Ni1442  1  0.10169300  0.89146234  0.16483202  1.0
  Ni  Ni1443  1  0.43502633  0.22479567  0.16483202  1.0
  Ni  Ni1444  1  0.43502633  0.55812901  0.16483202  1.0
  Ni  Ni1445  1  0.43502633  0.89146234  0.16483202  1.0
  Ni  Ni1446  1  0.76835967  0.22479567  0.16483202  1.0
  Ni  Ni1447  1  0.76835967  0.55812901  0.16483202  1.0
  Ni  Ni1448  1  0.76835967  0.89146234  0.16483202  1.0
  Ni  Ni1449  1  0.26835967  0.01646234  0.03983202  1.0
  Ni  Ni1450  1  0.26835967  0.34979567  0.03983202  1.0
  Ni  Ni1451  1  0.26835967  0.68312901  0.03983202  1.0
  Ni  Ni1452  1  0.60169300  0.01646234  0.03983202  1.0
  Ni  Ni1453  1  0.60169300  0.34979567  0.03983202  1.0
  Ni  Ni1454  1  0.60169300  0.68312901  0.03983202  1.0
  Ni  Ni1455  1  0.93502633  0.01646234  0.03983202  1.0
  Ni  Ni1456  1  0.93502633  0.34979567  0.03983202  1.0
  Ni  Ni1457  1  0.93502633  0.68312901  0.03983202  1.0
  Ni  Ni1458  1  0.33014833  0.11524284  0.15080752  1.0
  Ni  Ni1459  1  0.33014833  0.44857617  0.15080752  1.0
  Ni  Ni1460  1  0.33014833  0.78190951  0.15080752  1.0
  Ni  Ni1461  1  0.66348167  0.11524284  0.15080752  1.0
  Ni  Ni1462  1  0.66348167  0.44857617  0.15080752  1.0
  Ni  Ni1463  1  0.66348167  0.78190951  0.15080752  1.0
  Ni  Ni1464  1  0.99681500  0.11524284  0.15080752  1.0
  Ni  Ni1465  1  0.99681500  0.44857617  0.15080752  1.0
  Ni  Ni1466  1  0.99681500  0.78190951  0.15080752  1.0
  Ni  Ni1467  1  0.16348167  0.24024284  0.02580752  1.0
  Ni  Ni1468  1  0.16348167  0.57357617  0.02580752  1.0
  Ni  Ni1469  1  0.16348167  0.90690951  0.02580752  1.0
  Ni  Ni1470  1  0.49681500  0.24024284  0.02580752  1.0
  Ni  Ni1471  1  0.49681500  0.57357617  0.02580752  1.0
  Ni  Ni1472  1  0.49681500  0.90690951  0.02580752  1.0
  Ni  Ni1473  1  0.83014833  0.24024284  0.02580752  1.0
  Ni  Ni1474  1  0.83014833  0.57357617  0.02580752  1.0
  Ni  Ni1475  1  0.83014833  0.90690951  0.02580752  1.0
  Ni  Ni1476  1  0.27445167  0.28393767  0.03604602  1.0
  Ni  Ni1477  1  0.27445167  0.61727101  0.03604602  1.0
  Ni  Ni1478  1  0.27445167  0.95060434  0.03604602  1.0
  Ni  Ni1479  1  0.60778500  0.28393767  0.03604602  1.0
  Ni  Ni1480  1  0.60778500  0.61727101  0.03604602  1.0
  Ni  Ni1481  1  0.60778500  0.95060434  0.03604602  1.0
  Ni  Ni1482  1  0.94111833  0.28393767  0.03604602  1.0
  Ni  Ni1483  1  0.94111833  0.61727101  0.03604602  1.0
  Ni  Ni1484  1  0.94111833  0.95060434  0.03604602  1.0
  Ni  Ni1485  1  0.10778500  0.15893767  0.16104602  1.0
  Ni  Ni1486  1  0.10778500  0.49227101  0.16104602  1.0
  Ni  Ni1487  1  0.10778500  0.82560434  0.16104602  1.0
  Ni  Ni1488  1  0.44111833  0.15893767  0.16104602  1.0
  Ni  Ni1489  1  0.44111833  0.49227101  0.16104602  1.0
  Ni  Ni1490  1  0.44111833  0.82560434  0.16104602  1.0
  Ni  Ni1491  1  0.77445167  0.15893767  0.16104602  1.0
  Ni  Ni1492  1  0.77445167  0.49227101  0.16104602  1.0
  Ni  Ni1493  1  0.77445167  0.82560434  0.16104602  1.0
  Ni  Ni1494  1  0.33067033  0.04799234  0.15955402  1.0
  Ni  Ni1495  1  0.33067033  0.38132567  0.15955402  1.0
  Ni  Ni1496  1  0.33067033  0.71465901  0.15955402  1.0
  Ni  Ni1497  1  0.66400367  0.04799234  0.15955402  1.0
  Ni  Ni1498  1  0.66400367  0.38132567  0.15955402  1.0
  Ni  Ni1499  1  0.66400367  0.71465901  0.15955402  1.0
  Ni  Ni1500  1  0.99733700  0.04799234  0.15955402  1.0
  Ni  Ni1501  1  0.99733700  0.38132567  0.15955402  1.0
  Ni  Ni1502  1  0.99733700  0.71465901  0.15955402  1.0
  Ni  Ni1503  1  0.16400367  0.17299234  0.03455402  1.0
  Ni  Ni1504  1  0.16400367  0.50632567  0.03455402  1.0
  Ni  Ni1505  1  0.16400367  0.83965901  0.03455402  1.0
  Ni  Ni1506  1  0.49733700  0.17299234  0.03455402  1.0
  Ni  Ni1507  1  0.49733700  0.50632567  0.03455402  1.0
  Ni  Ni1508  1  0.49733700  0.83965901  0.03455402  1.0
  Ni  Ni1509  1  0.83067033  0.17299234  0.03455402  1.0
  Ni  Ni1510  1  0.83067033  0.50632567  0.03455402  1.0
  Ni  Ni1511  1  0.83067033  0.83965901  0.03455402  1.0
  Ni  Ni1512  1  0.12566533  0.23771076  0.09012827  1.0
  Ni  Ni1513  1  0.12566533  0.57104409  0.09012827  1.0
  Ni  Ni1514  1  0.12566533  0.90437742  0.09012827  1.0
  Ni  Ni1515  1  0.45899867  0.23771076  0.09012827  1.0
  Ni  Ni1516  1  0.45899867  0.57104409  0.09012827  1.0
  Ni  Ni1517  1  0.45899867  0.90437742  0.09012827  1.0
  Ni  Ni1518  1  0.79233200  0.23771076  0.09012827  1.0
  Ni  Ni1519  1  0.79233200  0.57104409  0.09012827  1.0
  Ni  Ni1520  1  0.79233200  0.90437742  0.09012827  1.0
  Ni  Ni1521  1  0.29233200  0.11271076  0.21512827  1.0
  Ni  Ni1522  1  0.29233200  0.44604409  0.21512827  1.0
  Ni  Ni1523  1  0.29233200  0.77937742  0.21512827  1.0
  Ni  Ni1524  1  0.62566533  0.11271076  0.21512827  1.0
  Ni  Ni1525  1  0.62566533  0.44604409  0.21512827  1.0
  Ni  Ni1526  1  0.62566533  0.77937742  0.21512827  1.0
  Ni  Ni1527  1  0.95899867  0.11271076  0.21512827  1.0
  Ni  Ni1528  1  0.95899867  0.44604409  0.21512827  1.0
  Ni  Ni1529  1  0.95899867  0.77937742  0.21512827  1.0
  Ni  Ni1530  1  0.22807767  0.25308484  0.08260952  1.0
  Ni  Ni1531  1  0.22807767  0.58641817  0.08260952  1.0
  Ni  Ni1532  1  0.22807767  0.91975151  0.08260952  1.0
  Ni  Ni1533  1  0.56141100  0.25308484  0.08260952  1.0
  Ni  Ni1534  1  0.56141100  0.58641817  0.08260952  1.0
  Ni  Ni1535  1  0.56141100  0.91975151  0.08260952  1.0
  Ni  Ni1536  1  0.89474433  0.25308484  0.08260952  1.0
  Ni  Ni1537  1  0.89474433  0.58641817  0.08260952  1.0
  Ni  Ni1538  1  0.89474433  0.91975151  0.08260952  1.0
  Ni  Ni1539  1  0.06141100  0.12808484  0.20760952  1.0
  Ni  Ni1540  1  0.06141100  0.46141817  0.20760952  1.0
  Ni  Ni1541  1  0.06141100  0.79475151  0.20760952  1.0
  Ni  Ni1542  1  0.39474433  0.12808484  0.20760952  1.0
  Ni  Ni1543  1  0.39474433  0.46141817  0.20760952  1.0
  Ni  Ni1544  1  0.39474433  0.79475151  0.20760952  1.0
  Ni  Ni1545  1  0.72807767  0.12808484  0.20760952  1.0
  Ni  Ni1546  1  0.72807767  0.46141817  0.20760952  1.0
  Ni  Ni1547  1  0.72807767  0.79475151  0.20760952  1.0
  Ni  Ni1548  1  0.17185900  0.23903017  0.20910152  1.0
  Ni  Ni1549  1  0.17185900  0.57236351  0.20910152  1.0
  Ni  Ni1550  1  0.17185900  0.90569684  0.20910152  1.0
  Ni  Ni1551  1  0.50519233  0.23903017  0.20910152  1.0
  Ni  Ni1552  1  0.50519233  0.57236351  0.20910152  1.0
  Ni  Ni1553  1  0.50519233  0.90569684  0.20910152  1.0
  Ni  Ni1554  1  0.83852567  0.23903017  0.20910152  1.0
  Ni  Ni1555  1  0.83852567  0.57236351  0.20910152  1.0
  Ni  Ni1556  1  0.83852567  0.90569684  0.20910152  1.0
  Ni  Ni1557  1  0.00519233  0.03069684  0.08410152  1.0
  Ni  Ni1558  1  0.00519233  0.36403017  0.08410152  1.0
  Ni  Ni1559  1  0.00519233  0.69736351  0.08410152  1.0
  Ni  Ni1560  1  0.33852567  0.03069684  0.08410152  1.0
  Ni  Ni1561  1  0.33852567  0.36403017  0.08410152  1.0
  Ni  Ni1562  1  0.33852567  0.69736351  0.08410152  1.0
  Ni  Ni1563  1  0.67185900  0.03069684  0.08410152  1.0
  Ni  Ni1564  1  0.67185900  0.36403017  0.08410152  1.0
  Ni  Ni1565  1  0.67185900  0.69736351  0.08410152  1.0
  Ni  Ni1566  1  0.05881617  0.28784763  0.03999140  1.0
  Ni  Ni1567  1  0.05881617  0.62118097  0.03999140  1.0
  Ni  Ni1568  1  0.05881617  0.95451430  0.03999140  1.0
  Ni  Ni1569  1  0.39214950  0.28784763  0.03999140  1.0
  Ni  Ni1570  1  0.39214950  0.62118097  0.03999140  1.0
  Ni  Ni1571  1  0.39214950  0.95451430  0.03999140  1.0
  Ni  Ni1572  1  0.72548283  0.28784763  0.03999140  1.0
  Ni  Ni1573  1  0.72548283  0.62118097  0.03999140  1.0
  Ni  Ni1574  1  0.72548283  0.95451430  0.03999140  1.0
  Ni  Ni1575  1  0.22548283  0.16284763  0.16499140  1.0
  Ni  Ni1576  1  0.22548283  0.49618097  0.16499140  1.0
  Ni  Ni1577  1  0.22548283  0.82951430  0.16499140  1.0
  Ni  Ni1578  1  0.55881617  0.16284763  0.16499140  1.0
  Ni  Ni1579  1  0.55881617  0.49618097  0.16499140  1.0
  Ni  Ni1580  1  0.55881617  0.82951430  0.16499140  1.0
  Ni  Ni1581  1  0.89214950  0.16284763  0.16499140  1.0
  Ni  Ni1582  1  0.89214950  0.49618097  0.16499140  1.0
  Ni  Ni1583  1  0.89214950  0.82951430  0.16499140  1.0
  Ni  Ni1584  1  0.10169300  0.30812901  0.41483202  1.0
  Ni  Ni1585  1  0.10169300  0.64146234  0.41483202  1.0
  Ni  Ni1586  1  0.10169300  0.97479567  0.41483202  1.0
  Ni  Ni1587  1  0.43502633  0.30812901  0.41483202  1.0
  Ni  Ni1588  1  0.43502633  0.64146234  0.41483202  1.0
  Ni  Ni1589  1  0.43502633  0.97479567  0.41483202  1.0
  Ni  Ni1590  1  0.76835967  0.30812901  0.41483202  1.0
  Ni  Ni1591  1  0.76835967  0.64146234  0.41483202  1.0
  Ni  Ni1592  1  0.76835967  0.97479567  0.41483202  1.0
  Ni  Ni1593  1  0.26835967  0.09979567  0.28983202  1.0
  Ni  Ni1594  1  0.26835967  0.43312901  0.28983202  1.0
  Ni  Ni1595  1  0.26835967  0.76646234  0.28983202  1.0
  Ni  Ni1596  1  0.60169300  0.09979567  0.28983202  1.0
  Ni  Ni1597  1  0.60169300  0.43312901  0.28983202  1.0
  Ni  Ni1598  1  0.60169300  0.76646234  0.28983202  1.0
  Ni  Ni1599  1  0.93502633  0.09979567  0.28983202  1.0
  Ni  Ni1600  1  0.93502633  0.43312901  0.28983202  1.0
  Ni  Ni1601  1  0.93502633  0.76646234  0.28983202  1.0
  Ni  Ni1602  1  0.33014833  0.19857617  0.40080752  1.0
  Ni  Ni1603  1  0.33014833  0.53190951  0.40080752  1.0
  Ni  Ni1604  1  0.33014833  0.86524284  0.40080752  1.0
  Ni  Ni1605  1  0.66348167  0.19857617  0.40080752  1.0
  Ni  Ni1606  1  0.66348167  0.53190951  0.40080752  1.0
  Ni  Ni1607  1  0.66348167  0.86524284  0.40080752  1.0
  Ni  Ni1608  1  0.99681500  0.19857617  0.40080752  1.0
  Ni  Ni1609  1  0.99681500  0.53190951  0.40080752  1.0
  Ni  Ni1610  1  0.99681500  0.86524284  0.40080752  1.0
  Ni  Ni1611  1  0.16348167  0.32357617  0.27580752  1.0
  Ni  Ni1612  1  0.16348167  0.65690951  0.27580752  1.0
  Ni  Ni1613  1  0.16348167  0.99024284  0.27580752  1.0
  Ni  Ni1614  1  0.49681500  0.32357617  0.27580752  1.0
  Ni  Ni1615  1  0.49681500  0.65690951  0.27580752  1.0
  Ni  Ni1616  1  0.49681500  0.99024284  0.27580752  1.0
  Ni  Ni1617  1  0.83014833  0.32357617  0.27580752  1.0
  Ni  Ni1618  1  0.83014833  0.65690951  0.27580752  1.0
  Ni  Ni1619  1  0.83014833  0.99024284  0.27580752  1.0
  Ni  Ni1620  1  0.27445167  0.03393767  0.28604602  1.0
  Ni  Ni1621  1  0.27445167  0.36727101  0.28604602  1.0
  Ni  Ni1622  1  0.27445167  0.70060434  0.28604602  1.0
  Ni  Ni1623  1  0.60778500  0.03393767  0.28604602  1.0
  Ni  Ni1624  1  0.60778500  0.36727101  0.28604602  1.0
  Ni  Ni1625  1  0.60778500  0.70060434  0.28604602  1.0
  Ni  Ni1626  1  0.94111833  0.03393767  0.28604602  1.0
  Ni  Ni1627  1  0.94111833  0.36727101  0.28604602  1.0
  Ni  Ni1628  1  0.94111833  0.70060434  0.28604602  1.0
  Ni  Ni1629  1  0.10778500  0.24227101  0.41104602  1.0
  Ni  Ni1630  1  0.10778500  0.57560434  0.41104602  1.0
  Ni  Ni1631  1  0.10778500  0.90893767  0.41104602  1.0
  Ni  Ni1632  1  0.44111833  0.24227101  0.41104602  1.0
  Ni  Ni1633  1  0.44111833  0.57560434  0.41104602  1.0
  Ni  Ni1634  1  0.44111833  0.90893767  0.41104602  1.0
  Ni  Ni1635  1  0.77445167  0.24227101  0.41104602  1.0
  Ni  Ni1636  1  0.77445167  0.57560434  0.41104602  1.0
  Ni  Ni1637  1  0.77445167  0.90893767  0.41104602  1.0
  Ni  Ni1638  1  0.33067033  0.13132567  0.40955402  1.0
  Ni  Ni1639  1  0.33067033  0.46465901  0.40955402  1.0
  Ni  Ni1640  1  0.33067033  0.79799234  0.40955402  1.0
  Ni  Ni1641  1  0.66400367  0.13132567  0.40955402  1.0
  Ni  Ni1642  1  0.66400367  0.46465901  0.40955402  1.0
  Ni  Ni1643  1  0.66400367  0.79799234  0.40955402  1.0
  Ni  Ni1644  1  0.99733700  0.13132567  0.40955402  1.0
  Ni  Ni1645  1  0.99733700  0.46465901  0.40955402  1.0
  Ni  Ni1646  1  0.99733700  0.79799234  0.40955402  1.0
  Ni  Ni1647  1  0.16400367  0.25632567  0.28455402  1.0
  Ni  Ni1648  1  0.16400367  0.58965901  0.28455402  1.0
  Ni  Ni1649  1  0.16400367  0.92299234  0.28455402  1.0
  Ni  Ni1650  1  0.49733700  0.25632567  0.28455402  1.0
  Ni  Ni1651  1  0.49733700  0.58965901  0.28455402  1.0
  Ni  Ni1652  1  0.49733700  0.92299234  0.28455402  1.0
  Ni  Ni1653  1  0.83067033  0.25632567  0.28455402  1.0
  Ni  Ni1654  1  0.83067033  0.58965901  0.28455402  1.0
  Ni  Ni1655  1  0.83067033  0.92299234  0.28455402  1.0
  Ni  Ni1656  1  0.12566533  0.32104409  0.34012827  1.0
  Ni  Ni1657  1  0.12566533  0.65437742  0.34012827  1.0
  Ni  Ni1658  1  0.12566533  0.98771076  0.34012827  1.0
  Ni  Ni1659  1  0.45899867  0.32104409  0.34012827  1.0
  Ni  Ni1660  1  0.45899867  0.65437742  0.34012827  1.0
  Ni  Ni1661  1  0.45899867  0.98771076  0.34012827  1.0
  Ni  Ni1662  1  0.79233200  0.32104409  0.34012827  1.0
  Ni  Ni1663  1  0.79233200  0.65437742  0.34012827  1.0
  Ni  Ni1664  1  0.79233200  0.98771076  0.34012827  1.0
  Ni  Ni1665  1  0.29233200  0.19604409  0.46512827  1.0
  Ni  Ni1666  1  0.29233200  0.52937742  0.46512827  1.0
  Ni  Ni1667  1  0.29233200  0.86271076  0.46512827  1.0
  Ni  Ni1668  1  0.62566533  0.19604409  0.46512827  1.0
  Ni  Ni1669  1  0.62566533  0.52937742  0.46512827  1.0
  Ni  Ni1670  1  0.62566533  0.86271076  0.46512827  1.0
  Ni  Ni1671  1  0.95899867  0.19604409  0.46512827  1.0
  Ni  Ni1672  1  0.95899867  0.52937742  0.46512827  1.0
  Ni  Ni1673  1  0.95899867  0.86271076  0.46512827  1.0
  Ni  Ni1674  1  0.22807767  0.00308484  0.33260952  1.0
  Ni  Ni1675  1  0.22807767  0.33641817  0.33260952  1.0
  Ni  Ni1676  1  0.22807767  0.66975151  0.33260952  1.0
  Ni  Ni1677  1  0.56141100  0.00308484  0.33260952  1.0
  Ni  Ni1678  1  0.56141100  0.33641817  0.33260952  1.0
  Ni  Ni1679  1  0.56141100  0.66975151  0.33260952  1.0
  Ni  Ni1680  1  0.89474433  0.00308484  0.33260952  1.0
  Ni  Ni1681  1  0.89474433  0.33641817  0.33260952  1.0
  Ni  Ni1682  1  0.89474433  0.66975151  0.33260952  1.0
  Ni  Ni1683  1  0.06141100  0.21141817  0.45760952  1.0
  Ni  Ni1684  1  0.06141100  0.54475151  0.45760952  1.0
  Ni  Ni1685  1  0.06141100  0.87808484  0.45760952  1.0
  Ni  Ni1686  1  0.39474433  0.21141817  0.45760952  1.0
  Ni  Ni1687  1  0.39474433  0.54475151  0.45760952  1.0
  Ni  Ni1688  1  0.39474433  0.87808484  0.45760952  1.0
  Ni  Ni1689  1  0.72807767  0.21141817  0.45760952  1.0
  Ni  Ni1690  1  0.72807767  0.54475151  0.45760952  1.0
  Ni  Ni1691  1  0.72807767  0.87808484  0.45760952  1.0
  Ni  Ni1692  1  0.17185900  0.32236351  0.45910152  1.0
  Ni  Ni1693  1  0.17185900  0.65569684  0.45910152  1.0
  Ni  Ni1694  1  0.17185900  0.98903017  0.45910152  1.0
  Ni  Ni1695  1  0.50519233  0.32236351  0.45910152  1.0
  Ni  Ni1696  1  0.50519233  0.65569684  0.45910152  1.0
  Ni  Ni1697  1  0.50519233  0.98903017  0.45910152  1.0
  Ni  Ni1698  1  0.83852567  0.32236351  0.45910152  1.0
  Ni  Ni1699  1  0.83852567  0.65569684  0.45910152  1.0
  Ni  Ni1700  1  0.83852567  0.98903017  0.45910152  1.0
  Ni  Ni1701  1  0.00519233  0.11403017  0.33410152  1.0
  Ni  Ni1702  1  0.00519233  0.44736351  0.33410152  1.0
  Ni  Ni1703  1  0.00519233  0.78069684  0.33410152  1.0
  Ni  Ni1704  1  0.33852567  0.11403017  0.33410152  1.0
  Ni  Ni1705  1  0.33852567  0.44736351  0.33410152  1.0
  Ni  Ni1706  1  0.33852567  0.78069684  0.33410152  1.0
  Ni  Ni1707  1  0.67185900  0.11403017  0.33410152  1.0
  Ni  Ni1708  1  0.67185900  0.44736351  0.33410152  1.0
  Ni  Ni1709  1  0.67185900  0.78069684  0.33410152  1.0
  Ni  Ni1710  1  0.05881617  0.03784763  0.28999140  1.0
  Ni  Ni1711  1  0.05881617  0.37118097  0.28999140  1.0
  Ni  Ni1712  1  0.05881617  0.70451430  0.28999140  1.0
  Ni  Ni1713  1  0.39214950  0.03784763  0.28999140  1.0
  Ni  Ni1714  1  0.39214950  0.37118097  0.28999140  1.0
  Ni  Ni1715  1  0.39214950  0.70451430  0.28999140  1.0
  Ni  Ni1716  1  0.72548283  0.03784763  0.28999140  1.0
  Ni  Ni1717  1  0.72548283  0.37118097  0.28999140  1.0
  Ni  Ni1718  1  0.72548283  0.70451430  0.28999140  1.0
  Ni  Ni1719  1  0.22548283  0.24618097  0.41499140  1.0
  Ni  Ni1720  1  0.22548283  0.57951430  0.41499140  1.0
  Ni  Ni1721  1  0.22548283  0.91284763  0.41499140  1.0
  Ni  Ni1722  1  0.55881617  0.24618097  0.41499140  1.0
  Ni  Ni1723  1  0.55881617  0.57951430  0.41499140  1.0
  Ni  Ni1724  1  0.55881617  0.91284763  0.41499140  1.0
  Ni  Ni1725  1  0.89214950  0.24618097  0.41499140  1.0
  Ni  Ni1726  1  0.89214950  0.57951430  0.41499140  1.0
  Ni  Ni1727  1  0.89214950  0.91284763  0.41499140  1.0
