# generated using pymatgen
data_Cd5Ni
_symmetry_space_group_name_H-M   'P 1'
_cell_length_a   42.89855398
_cell_length_b   42.43788634
_cell_length_c   49.96752510
_cell_angle_alpha   134.94732224
_cell_angle_beta   135.67931768
_cell_angle_gamma   59.64026169
_symmetry_Int_Tables_number   1
_chemical_formula_structural   Cd5Ni
_chemical_formula_sum   'Cd720 Ni144'
_cell_volume   44982.38609375
_cell_formula_units_Z   144
loop_
 _symmetry_equiv_pos_site_id
 _symmetry_equiv_pos_as_xyz
  1  'x, y, z'
loop_
 _atom_site_type_symbol
 _atom_site_label
 _atom_site_symmetry_multiplicity
 _atom_site_fract_x
 _atom_site_fract_y
 _atom_site_fract_z
 _atom_site_occupancy
  Cd  Cd0  1  0.28757500  0.16696933  0.15766700  1.0
  Cd  Cd1  1  0.28757500  0.50030267  0.15766700  1.0
  Cd  Cd2  1  0.28757500  0.83363600  0.15766700  1.0
  Cd  Cd3  1  0.62090833  0.16696933  0.15766700  1.0
  Cd  Cd4  1  0.62090833  0.50030267  0.15766700  1.0
  Cd  Cd5  1  0.62090833  0.83363600  0.15766700  1.0
  Cd  Cd6  1  0.95424167  0.16696933  0.15766700  1.0
  Cd  Cd7  1  0.95424167  0.50030267  0.15766700  1.0
  Cd  Cd8  1  0.95424167  0.83363600  0.15766700  1.0
  Cd  Cd9  1  0.16779100  0.16696933  0.01392620  1.0
  Cd  Cd10  1  0.16779100  0.50030267  0.01392620  1.0
  Cd  Cd11  1  0.16779100  0.83363600  0.01392620  1.0
  Cd  Cd12  1  0.50112433  0.16696933  0.01392620  1.0
  Cd  Cd13  1  0.50112433  0.50030267  0.01392620  1.0
  Cd  Cd14  1  0.50112433  0.83363600  0.01392620  1.0
  Cd  Cd15  1  0.83445767  0.16696933  0.01392620  1.0
  Cd  Cd16  1  0.83445767  0.50030267  0.01392620  1.0
  Cd  Cd17  1  0.83445767  0.83363600  0.01392620  1.0
  Cd  Cd18  1  0.16666667  0.04660433  0.01357760  1.0
  Cd  Cd19  1  0.16666667  0.37993767  0.01357760  1.0
  Cd  Cd20  1  0.16666667  0.71327100  0.01357760  1.0
  Cd  Cd21  1  0.50000000  0.04660433  0.01357760  1.0
  Cd  Cd22  1  0.50000000  0.37993767  0.01357760  1.0
  Cd  Cd23  1  0.50000000  0.71327100  0.01357760  1.0
  Cd  Cd24  1  0.83333333  0.04660433  0.01357760  1.0
  Cd  Cd25  1  0.83333333  0.37993767  0.01357760  1.0
  Cd  Cd26  1  0.83333333  0.71327100  0.01357760  1.0
  Cd  Cd27  1  0.04575833  0.16696933  0.01392620  1.0
  Cd  Cd28  1  0.04575833  0.50030267  0.01392620  1.0
  Cd  Cd29  1  0.04575833  0.83363600  0.01392620  1.0
  Cd  Cd30  1  0.37909167  0.16696933  0.01392620  1.0
  Cd  Cd31  1  0.37909167  0.50030267  0.01392620  1.0
  Cd  Cd32  1  0.37909167  0.83363600  0.01392620  1.0
  Cd  Cd33  1  0.71242500  0.16696933  0.01392620  1.0
  Cd  Cd34  1  0.71242500  0.50030267  0.01392620  1.0
  Cd  Cd35  1  0.71242500  0.83363600  0.01392620  1.0
  Cd  Cd36  1  0.16554233  0.16696933  0.15766700  1.0
  Cd  Cd37  1  0.16554233  0.50030267  0.15766700  1.0
  Cd  Cd38  1  0.16554233  0.83363600  0.15766700  1.0
  Cd  Cd39  1  0.49887567  0.16696933  0.15766700  1.0
  Cd  Cd40  1  0.49887567  0.50030267  0.15766700  1.0
  Cd  Cd41  1  0.49887567  0.83363600  0.15766700  1.0
  Cd  Cd42  1  0.83220900  0.16696933  0.15766700  1.0
  Cd  Cd43  1  0.83220900  0.50030267  0.15766700  1.0
  Cd  Cd44  1  0.83220900  0.83363600  0.15766700  1.0
  Cd  Cd45  1  0.16666667  0.28675033  0.15766520  1.0
  Cd  Cd46  1  0.16666667  0.62008367  0.15766520  1.0
  Cd  Cd47  1  0.16666667  0.95341700  0.15766520  1.0
  Cd  Cd48  1  0.50000000  0.28675033  0.15766520  1.0
  Cd  Cd49  1  0.50000000  0.62008367  0.15766520  1.0
  Cd  Cd50  1  0.50000000  0.95341700  0.15766520  1.0
  Cd  Cd51  1  0.83333333  0.28675033  0.15766520  1.0
  Cd  Cd52  1  0.83333333  0.62008367  0.15766520  1.0
  Cd  Cd53  1  0.83333333  0.95341700  0.15766520  1.0
  Cd  Cd54  1  0.10080733  0.33098867  0.18420820  1.0
  Cd  Cd55  1  0.10080733  0.66432200  0.18420820  1.0
  Cd  Cd56  1  0.10080733  0.99765533  0.18420820  1.0
  Cd  Cd57  1  0.43414067  0.33098867  0.18420820  1.0
  Cd  Cd58  1  0.43414067  0.66432200  0.18420820  1.0
  Cd  Cd59  1  0.43414067  0.99765533  0.18420820  1.0
  Cd  Cd60  1  0.76747400  0.33098867  0.18420820  1.0
  Cd  Cd61  1  0.76747400  0.66432200  0.18420820  1.0
  Cd  Cd62  1  0.76747400  0.99765533  0.18420820  1.0
  Cd  Cd63  1  0.01808500  0.24964633  0.09127760  1.0
  Cd  Cd64  1  0.01808500  0.58297967  0.09127760  1.0
  Cd  Cd65  1  0.01808500  0.91631300  0.09127760  1.0
  Cd  Cd66  1  0.35141833  0.24964633  0.09127760  1.0
  Cd  Cd67  1  0.35141833  0.58297967  0.09127760  1.0
  Cd  Cd68  1  0.35141833  0.91631300  0.09127760  1.0
  Cd  Cd69  1  0.68475167  0.24964633  0.09127760  1.0
  Cd  Cd70  1  0.68475167  0.58297967  0.09127760  1.0
  Cd  Cd71  1  0.68475167  0.91631300  0.09127760  1.0
  Cd  Cd72  1  0.09162700  0.24964633  0.17952800  1.0
  Cd  Cd73  1  0.09162700  0.58297967  0.17952800  1.0
  Cd  Cd74  1  0.09162700  0.91631300  0.17952800  1.0
  Cd  Cd75  1  0.42496033  0.24964633  0.17952800  1.0
  Cd  Cd76  1  0.42496033  0.58297967  0.17952800  1.0
  Cd  Cd77  1  0.42496033  0.91631300  0.17952800  1.0
  Cd  Cd78  1  0.75829367  0.24964633  0.17952800  1.0
  Cd  Cd79  1  0.75829367  0.58297967  0.17952800  1.0
  Cd  Cd80  1  0.75829367  0.91631300  0.17952800  1.0
  Cd  Cd81  1  0.23252600  0.33098867  0.18420820  1.0
  Cd  Cd82  1  0.23252600  0.66432200  0.18420820  1.0
  Cd  Cd83  1  0.23252600  0.99765533  0.18420820  1.0
  Cd  Cd84  1  0.56585933  0.33098867  0.18420820  1.0
  Cd  Cd85  1  0.56585933  0.66432200  0.18420820  1.0
  Cd  Cd86  1  0.56585933  0.99765533  0.18420820  1.0
  Cd  Cd87  1  0.89919267  0.33098867  0.18420820  1.0
  Cd  Cd88  1  0.89919267  0.66432200  0.18420820  1.0
  Cd  Cd89  1  0.89919267  0.99765533  0.18420820  1.0
  Cd  Cd90  1  0.31524833  0.24964633  0.17952800  1.0
  Cd  Cd91  1  0.31524833  0.58297967  0.17952800  1.0
  Cd  Cd92  1  0.31524833  0.91631300  0.17952800  1.0
  Cd  Cd93  1  0.64858167  0.24964633  0.17952800  1.0
  Cd  Cd94  1  0.64858167  0.58297967  0.17952800  1.0
  Cd  Cd95  1  0.64858167  0.91631300  0.17952800  1.0
  Cd  Cd96  1  0.98191500  0.24964633  0.17952800  1.0
  Cd  Cd97  1  0.98191500  0.58297967  0.17952800  1.0
  Cd  Cd98  1  0.98191500  0.91631300  0.17952800  1.0
  Cd  Cd99  1  0.24170633  0.24964633  0.09127760  1.0
  Cd  Cd100  1  0.24170633  0.58297967  0.09127760  1.0
  Cd  Cd101  1  0.24170633  0.91631300  0.09127760  1.0
  Cd  Cd102  1  0.57503967  0.24964633  0.09127760  1.0
  Cd  Cd103  1  0.57503967  0.58297967  0.09127760  1.0
  Cd  Cd104  1  0.57503967  0.91631300  0.09127760  1.0
  Cd  Cd105  1  0.90837300  0.24964633  0.09127760  1.0
  Cd  Cd106  1  0.90837300  0.58297967  0.09127760  1.0
  Cd  Cd107  1  0.90837300  0.91631300  0.09127760  1.0
  Cd  Cd108  1  0.26618133  0.01688533  0.11516380  1.0
  Cd  Cd109  1  0.26618133  0.35021867  0.11516380  1.0
  Cd  Cd110  1  0.26618133  0.68355200  0.11516380  1.0
  Cd  Cd111  1  0.59951467  0.01688533  0.11516380  1.0
  Cd  Cd112  1  0.59951467  0.35021867  0.11516380  1.0
  Cd  Cd113  1  0.59951467  0.68355200  0.11516380  1.0
  Cd  Cd114  1  0.93284800  0.01688533  0.11516380  1.0
  Cd  Cd115  1  0.93284800  0.35021867  0.11516380  1.0
  Cd  Cd116  1  0.93284800  0.68355200  0.11516380  1.0
  Cd  Cd117  1  0.00175833  0.08679800  0.18839480  1.0
  Cd  Cd118  1  0.00175833  0.42013133  0.18839480  1.0
  Cd  Cd119  1  0.00175833  0.75346467  0.18839480  1.0
  Cd  Cd120  1  0.33509167  0.08679800  0.18839480  1.0
  Cd  Cd121  1  0.33509167  0.42013133  0.18839480  1.0
  Cd  Cd122  1  0.33509167  0.75346467  0.18839480  1.0
  Cd  Cd123  1  0.66842500  0.08679800  0.18839480  1.0
  Cd  Cd124  1  0.66842500  0.42013133  0.18839480  1.0
  Cd  Cd125  1  0.66842500  0.75346467  0.18839480  1.0
  Cd  Cd126  1  0.24941000  0.08679800  0.18839480  1.0
  Cd  Cd127  1  0.24941000  0.42013133  0.18839480  1.0
  Cd  Cd128  1  0.24941000  0.75346467  0.18839480  1.0
  Cd  Cd129  1  0.58274333  0.08679800  0.18839480  1.0
  Cd  Cd130  1  0.58274333  0.42013133  0.18839480  1.0
  Cd  Cd131  1  0.58274333  0.75346467  0.18839480  1.0
  Cd  Cd132  1  0.91607667  0.08679800  0.18839480  1.0
  Cd  Cd133  1  0.91607667  0.42013133  0.18839480  1.0
  Cd  Cd134  1  0.91607667  0.75346467  0.18839480  1.0
  Cd  Cd135  1  0.06715200  0.01688533  0.07632860  1.0
  Cd  Cd136  1  0.06715200  0.35021867  0.07632860  1.0
  Cd  Cd137  1  0.06715200  0.68355200  0.07632860  1.0
  Cd  Cd138  1  0.40048533  0.01688533  0.07632860  1.0
  Cd  Cd139  1  0.40048533  0.35021867  0.07632860  1.0
  Cd  Cd140  1  0.40048533  0.68355200  0.07632860  1.0
  Cd  Cd141  1  0.73381867  0.01688533  0.07632860  1.0
  Cd  Cd142  1  0.73381867  0.35021867  0.07632860  1.0
  Cd  Cd143  1  0.73381867  0.68355200  0.07632860  1.0
  Cd  Cd144  1  0.33157500  0.08679800  0.08699280  1.0
  Cd  Cd145  1  0.33157500  0.42013133  0.08699280  1.0
  Cd  Cd146  1  0.33157500  0.75346467  0.08699280  1.0
  Cd  Cd147  1  0.66490833  0.08679800  0.08699280  1.0
  Cd  Cd148  1  0.66490833  0.42013133  0.08699280  1.0
  Cd  Cd149  1  0.66490833  0.75346467  0.08699280  1.0
  Cd  Cd150  1  0.99824167  0.08679800  0.08699280  1.0
  Cd  Cd151  1  0.99824167  0.42013133  0.08699280  1.0
  Cd  Cd152  1  0.99824167  0.75346467  0.08699280  1.0
  Cd  Cd153  1  0.08392333  0.08679800  0.08699280  1.0
  Cd  Cd154  1  0.08392333  0.42013133  0.08699280  1.0
  Cd  Cd155  1  0.08392333  0.75346467  0.08699280  1.0
  Cd  Cd156  1  0.41725667  0.08679800  0.08699280  1.0
  Cd  Cd157  1  0.41725667  0.42013133  0.08699280  1.0
  Cd  Cd158  1  0.41725667  0.75346467  0.08699280  1.0
  Cd  Cd159  1  0.75059000  0.08679800  0.08699280  1.0
  Cd  Cd160  1  0.75059000  0.42013133  0.08699280  1.0
  Cd  Cd161  1  0.75059000  0.75346467  0.08699280  1.0
  Cd  Cd162  1  0.21448633  0.11575400  0.05506740  1.0
  Cd  Cd163  1  0.21448633  0.44908733  0.05506740  1.0
  Cd  Cd164  1  0.21448633  0.78242067  0.05506740  1.0
  Cd  Cd165  1  0.54781967  0.11575400  0.05506740  1.0
  Cd  Cd166  1  0.54781967  0.44908733  0.05506740  1.0
  Cd  Cd167  1  0.54781967  0.78242067  0.05506740  1.0
  Cd  Cd168  1  0.88115300  0.11575400  0.05506740  1.0
  Cd  Cd169  1  0.88115300  0.44908733  0.05506740  1.0
  Cd  Cd170  1  0.88115300  0.78242067  0.05506740  1.0
  Cd  Cd171  1  0.11884700  0.11575400  0.05506740  1.0
  Cd  Cd172  1  0.11884700  0.44908733  0.05506740  1.0
  Cd  Cd173  1  0.11884700  0.78242067  0.05506740  1.0
  Cd  Cd174  1  0.45218033  0.11575400  0.05506740  1.0
  Cd  Cd175  1  0.45218033  0.44908733  0.05506740  1.0
  Cd  Cd176  1  0.45218033  0.78242067  0.05506740  1.0
  Cd  Cd177  1  0.78551367  0.11575400  0.05506740  1.0
  Cd  Cd178  1  0.78551367  0.44908733  0.05506740  1.0
  Cd  Cd179  1  0.78551367  0.78242067  0.05506740  1.0
  Cd  Cd180  1  0.11526100  0.21342233  0.05198160  1.0
  Cd  Cd181  1  0.11526100  0.54675567  0.05198160  1.0
  Cd  Cd182  1  0.11526100  0.88008900  0.05198160  1.0
  Cd  Cd183  1  0.44859433  0.21342233  0.05198160  1.0
  Cd  Cd184  1  0.44859433  0.54675567  0.05198160  1.0
  Cd  Cd185  1  0.44859433  0.88008900  0.05198160  1.0
  Cd  Cd186  1  0.78192767  0.21342233  0.05198160  1.0
  Cd  Cd187  1  0.78192767  0.54675567  0.05198160  1.0
  Cd  Cd188  1  0.78192767  0.88008900  0.05198160  1.0
  Cd  Cd189  1  0.21807233  0.21342233  0.17535520  1.0
  Cd  Cd190  1  0.21807233  0.54675567  0.17535520  1.0
  Cd  Cd191  1  0.21807233  0.88008900  0.17535520  1.0
  Cd  Cd192  1  0.55140567  0.21342233  0.17535520  1.0
  Cd  Cd193  1  0.55140567  0.54675567  0.17535520  1.0
  Cd  Cd194  1  0.55140567  0.88008900  0.17535520  1.0
  Cd  Cd195  1  0.88473900  0.21342233  0.17535520  1.0
  Cd  Cd196  1  0.88473900  0.54675567  0.17535520  1.0
  Cd  Cd197  1  0.88473900  0.88008900  0.17535520  1.0
  Cd  Cd198  1  0.27651667  0.16347967  0.08370280  1.0
  Cd  Cd199  1  0.27651667  0.49681300  0.08370280  1.0
  Cd  Cd200  1  0.27651667  0.83014633  0.08370280  1.0
  Cd  Cd201  1  0.60985000  0.16347967  0.08370280  1.0
  Cd  Cd202  1  0.60985000  0.49681300  0.08370280  1.0
  Cd  Cd203  1  0.60985000  0.83014633  0.08370280  1.0
  Cd  Cd204  1  0.94318333  0.16347967  0.08370280  1.0
  Cd  Cd205  1  0.94318333  0.49681300  0.08370280  1.0
  Cd  Cd206  1  0.94318333  0.83014633  0.08370280  1.0
  Cd  Cd207  1  0.16338633  0.05648933  0.14992760  1.0
  Cd  Cd208  1  0.16338633  0.38982267  0.14992760  1.0
  Cd  Cd209  1  0.16338633  0.72315600  0.14992760  1.0
  Cd  Cd210  1  0.49671967  0.05648933  0.14992760  1.0
  Cd  Cd211  1  0.49671967  0.38982267  0.14992760  1.0
  Cd  Cd212  1  0.49671967  0.72315600  0.14992760  1.0
  Cd  Cd213  1  0.83005300  0.05648933  0.14992760  1.0
  Cd  Cd214  1  0.83005300  0.38982267  0.14992760  1.0
  Cd  Cd215  1  0.83005300  0.72315600  0.14992760  1.0
  Cd  Cd216  1  0.27935467  0.05648933  0.08908960  1.0
  Cd  Cd217  1  0.27935467  0.38982267  0.08908960  1.0
  Cd  Cd218  1  0.27935467  0.72315600  0.08908960  1.0
  Cd  Cd219  1  0.61268800  0.05648933  0.08908960  1.0
  Cd  Cd220  1  0.61268800  0.38982267  0.08908960  1.0
  Cd  Cd221  1  0.61268800  0.72315600  0.08908960  1.0
  Cd  Cd222  1  0.94602133  0.05648933  0.08908960  1.0
  Cd  Cd223  1  0.94602133  0.38982267  0.08908960  1.0
  Cd  Cd224  1  0.94602133  0.72315600  0.08908960  1.0
  Cd  Cd225  1  0.05681667  0.16347967  0.08370280  1.0
  Cd  Cd226  1  0.05681667  0.49681300  0.08370280  1.0
  Cd  Cd227  1  0.05681667  0.83014633  0.08370280  1.0
  Cd  Cd228  1  0.39015000  0.16347967  0.08370280  1.0
  Cd  Cd229  1  0.39015000  0.49681300  0.08370280  1.0
  Cd  Cd230  1  0.39015000  0.83014633  0.08370280  1.0
  Cd  Cd231  1  0.72348333  0.16347967  0.08370280  1.0
  Cd  Cd232  1  0.72348333  0.49681300  0.08370280  1.0
  Cd  Cd233  1  0.72348333  0.83014633  0.08370280  1.0
  Cd  Cd234  1  0.16994700  0.05648933  0.08908960  1.0
  Cd  Cd235  1  0.16994700  0.38982267  0.08908960  1.0
  Cd  Cd236  1  0.16994700  0.72315600  0.08908960  1.0
  Cd  Cd237  1  0.50328033  0.05648933  0.08908960  1.0
  Cd  Cd238  1  0.50328033  0.38982267  0.08908960  1.0
  Cd  Cd239  1  0.50328033  0.72315600  0.08908960  1.0
  Cd  Cd240  1  0.83661367  0.05648933  0.08908960  1.0
  Cd  Cd241  1  0.83661367  0.38982267  0.08908960  1.0
  Cd  Cd242  1  0.83661367  0.72315600  0.08908960  1.0
  Cd  Cd243  1  0.05397867  0.05648933  0.14992760  1.0
  Cd  Cd244  1  0.05397867  0.38982267  0.14992760  1.0
  Cd  Cd245  1  0.05397867  0.72315600  0.14992760  1.0
  Cd  Cd246  1  0.38731200  0.05648933  0.14992760  1.0
  Cd  Cd247  1  0.38731200  0.38982267  0.14992760  1.0
  Cd  Cd248  1  0.38731200  0.72315600  0.14992760  1.0
  Cd  Cd249  1  0.72064533  0.05648933  0.14992760  1.0
  Cd  Cd250  1  0.72064533  0.38982267  0.14992760  1.0
  Cd  Cd251  1  0.72064533  0.72315600  0.14992760  1.0
  Cd  Cd252  1  0.04465567  0.18043267  0.14746140  1.0
  Cd  Cd253  1  0.04465567  0.51376600  0.14746140  1.0
  Cd  Cd254  1  0.04465567  0.84709933  0.14746140  1.0
  Cd  Cd255  1  0.37798900  0.18043267  0.14746140  1.0
  Cd  Cd256  1  0.37798900  0.51376600  0.14746140  1.0
  Cd  Cd257  1  0.37798900  0.84709933  0.14746140  1.0
  Cd  Cd258  1  0.71132233  0.18043267  0.14746140  1.0
  Cd  Cd259  1  0.71132233  0.51376600  0.14746140  1.0
  Cd  Cd260  1  0.71132233  0.84709933  0.14746140  1.0
  Cd  Cd261  1  0.15218600  0.28343800  0.08082860  1.0
  Cd  Cd262  1  0.15218600  0.61677133  0.08082860  1.0
  Cd  Cd263  1  0.15218600  0.95010467  0.08082860  1.0
  Cd  Cd264  1  0.48551933  0.28343800  0.08082860  1.0
  Cd  Cd265  1  0.48551933  0.61677133  0.08082860  1.0
  Cd  Cd266  1  0.48551933  0.95010467  0.08082860  1.0
  Cd  Cd267  1  0.81885267  0.28343800  0.08082860  1.0
  Cd  Cd268  1  0.81885267  0.61677133  0.08082860  1.0
  Cd  Cd269  1  0.81885267  0.95010467  0.08082860  1.0
  Cd  Cd270  1  0.05639867  0.28343800  0.08082860  1.0
  Cd  Cd271  1  0.05639867  0.61677133  0.08082860  1.0
  Cd  Cd272  1  0.05639867  0.95010467  0.08082860  1.0
  Cd  Cd273  1  0.38973200  0.28343800  0.08082860  1.0
  Cd  Cd274  1  0.38973200  0.61677133  0.08082860  1.0
  Cd  Cd275  1  0.38973200  0.95010467  0.08082860  1.0
  Cd  Cd276  1  0.72306533  0.28343800  0.08082860  1.0
  Cd  Cd277  1  0.72306533  0.61677133  0.08082860  1.0
  Cd  Cd278  1  0.72306533  0.95010467  0.08082860  1.0
  Cd  Cd279  1  0.28867767  0.18043267  0.04028780  1.0
  Cd  Cd280  1  0.28867767  0.51376600  0.04028780  1.0
  Cd  Cd281  1  0.28867767  0.84709933  0.04028780  1.0
  Cd  Cd282  1  0.62201100  0.18043267  0.04028780  1.0
  Cd  Cd283  1  0.62201100  0.51376600  0.04028780  1.0
  Cd  Cd284  1  0.62201100  0.84709933  0.04028780  1.0
  Cd  Cd285  1  0.95534433  0.18043267  0.04028780  1.0
  Cd  Cd286  1  0.95534433  0.51376600  0.04028780  1.0
  Cd  Cd287  1  0.95534433  0.84709933  0.04028780  1.0
  Cd  Cd288  1  0.18114733  0.28343800  0.03052700  1.0
  Cd  Cd289  1  0.18114733  0.61677133  0.03052700  1.0
  Cd  Cd290  1  0.18114733  0.95010467  0.03052700  1.0
  Cd  Cd291  1  0.51448067  0.28343800  0.03052700  1.0
  Cd  Cd292  1  0.51448067  0.61677133  0.03052700  1.0
  Cd  Cd293  1  0.51448067  0.95010467  0.03052700  1.0
  Cd  Cd294  1  0.84781400  0.28343800  0.03052700  1.0
  Cd  Cd295  1  0.84781400  0.61677133  0.03052700  1.0
  Cd  Cd296  1  0.84781400  0.95010467  0.03052700  1.0
  Cd  Cd297  1  0.27693467  0.28343800  0.03052700  1.0
  Cd  Cd298  1  0.27693467  0.61677133  0.03052700  1.0
  Cd  Cd299  1  0.27693467  0.95010467  0.03052700  1.0
  Cd  Cd300  1  0.61026800  0.28343800  0.03052700  1.0
  Cd  Cd301  1  0.61026800  0.61677133  0.03052700  1.0
  Cd  Cd302  1  0.61026800  0.95010467  0.03052700  1.0
  Cd  Cd303  1  0.94360133  0.28343800  0.03052700  1.0
  Cd  Cd304  1  0.94360133  0.61677133  0.03052700  1.0
  Cd  Cd305  1  0.94360133  0.95010467  0.03052700  1.0
  Cd  Cd306  1  0.11463367  0.22222222  0.11894833  1.0
  Cd  Cd307  1  0.11463367  0.55555556  0.11894833  1.0
  Cd  Cd308  1  0.11463367  0.88888889  0.11894833  1.0
  Cd  Cd309  1  0.44796700  0.22222222  0.11894833  1.0
  Cd  Cd310  1  0.44796700  0.55555556  0.11894833  1.0
  Cd  Cd311  1  0.44796700  0.88888889  0.11894833  1.0
  Cd  Cd312  1  0.78130033  0.22222222  0.11894833  1.0
  Cd  Cd313  1  0.78130033  0.55555556  0.11894833  1.0
  Cd  Cd314  1  0.78130033  0.88888889  0.11894833  1.0
  Cd  Cd315  1  0.21869967  0.22222222  0.11894833  1.0
  Cd  Cd316  1  0.21869967  0.55555556  0.11894833  1.0
  Cd  Cd317  1  0.21869967  0.88888889  0.11894833  1.0
  Cd  Cd318  1  0.55203300  0.22222222  0.11894833  1.0
  Cd  Cd319  1  0.55203300  0.55555556  0.11894833  1.0
  Cd  Cd320  1  0.55203300  0.88888889  0.11894833  1.0
  Cd  Cd321  1  0.88536633  0.22222222  0.11894833  1.0
  Cd  Cd322  1  0.88536633  0.55555556  0.11894833  1.0
  Cd  Cd323  1  0.88536633  0.88888889  0.11894833  1.0
  Cd  Cd324  1  0.22585733  0.11465933  0.12543940  1.0
  Cd  Cd325  1  0.22585733  0.44799267  0.12543940  1.0
  Cd  Cd326  1  0.22585733  0.78132600  0.12543940  1.0
  Cd  Cd327  1  0.55919067  0.11465933  0.12543940  1.0
  Cd  Cd328  1  0.55919067  0.44799267  0.12543940  1.0
  Cd  Cd329  1  0.55919067  0.78132600  0.12543940  1.0
  Cd  Cd330  1  0.89252400  0.11465933  0.12543940  1.0
  Cd  Cd331  1  0.89252400  0.44799267  0.12543940  1.0
  Cd  Cd332  1  0.89252400  0.78132600  0.12543940  1.0
  Cd  Cd333  1  0.10747600  0.11465933  0.18338180  1.0
  Cd  Cd334  1  0.10747600  0.44799267  0.18338180  1.0
  Cd  Cd335  1  0.10747600  0.78132600  0.18338180  1.0
  Cd  Cd336  1  0.44080933  0.11465933  0.18338180  1.0
  Cd  Cd337  1  0.44080933  0.44799267  0.18338180  1.0
  Cd  Cd338  1  0.44080933  0.78132600  0.18338180  1.0
  Cd  Cd339  1  0.77414267  0.11465933  0.18338180  1.0
  Cd  Cd340  1  0.77414267  0.44799267  0.18338180  1.0
  Cd  Cd341  1  0.77414267  0.78132600  0.18338180  1.0
  Cd  Cd342  1  0.30004267  0.00076467  0.18607380  1.0
  Cd  Cd343  1  0.30004267  0.33409800  0.18607380  1.0
  Cd  Cd344  1  0.30004267  0.66743133  0.18607380  1.0
  Cd  Cd345  1  0.63337600  0.00076467  0.18607380  1.0
  Cd  Cd346  1  0.63337600  0.33409800  0.18607380  1.0
  Cd  Cd347  1  0.63337600  0.66743133  0.18607380  1.0
  Cd  Cd348  1  0.96670933  0.00076467  0.18607380  1.0
  Cd  Cd349  1  0.96670933  0.33409800  0.18607380  1.0
  Cd  Cd350  1  0.96670933  0.66743133  0.18607380  1.0
  Cd  Cd351  1  0.03329067  0.00076467  0.18607380  1.0
  Cd  Cd352  1  0.03329067  0.33409800  0.18607380  1.0
  Cd  Cd353  1  0.03329067  0.66743133  0.18607380  1.0
  Cd  Cd354  1  0.36662400  0.00076467  0.18607380  1.0
  Cd  Cd355  1  0.36662400  0.33409800  0.18607380  1.0
  Cd  Cd356  1  0.36662400  0.66743133  0.18607380  1.0
  Cd  Cd357  1  0.69995733  0.00076467  0.18607380  1.0
  Cd  Cd358  1  0.69995733  0.33409800  0.18607380  1.0
  Cd  Cd359  1  0.69995733  0.66743133  0.18607380  1.0
  Ni  Ni360  1  0.06178867  0.26517467  0.01886620  1.0
  Ni  Ni361  1  0.06178867  0.59850800  0.01886620  1.0
  Ni  Ni362  1  0.06178867  0.93184133  0.01886620  1.0
  Ni  Ni363  1  0.39512200  0.26517467  0.01886620  1.0
  Ni  Ni364  1  0.39512200  0.59850800  0.01886620  1.0
  Ni  Ni365  1  0.39512200  0.93184133  0.01886620  1.0
  Ni  Ni366  1  0.72845533  0.26517467  0.01886620  1.0
  Ni  Ni367  1  0.72845533  0.59850800  0.01886620  1.0
  Ni  Ni368  1  0.72845533  0.93184133  0.01886620  1.0
  Ni  Ni369  1  0.27154467  0.26517467  0.07057340  1.0
  Ni  Ni370  1  0.27154467  0.59850800  0.07057340  1.0
  Ni  Ni371  1  0.27154467  0.93184133  0.07057340  1.0
  Ni  Ni372  1  0.60487800  0.26517467  0.07057340  1.0
  Ni  Ni373  1  0.60487800  0.59850800  0.07057340  1.0
  Ni  Ni374  1  0.60487800  0.93184133  0.07057340  1.0
  Ni  Ni375  1  0.93821133  0.26517467  0.07057340  1.0
  Ni  Ni376  1  0.93821133  0.59850800  0.07057340  1.0
  Ni  Ni377  1  0.93821133  0.93184133  0.07057340  1.0
  Ni  Ni378  1  0.12029267  0.00252933  0.05459500  1.0
  Ni  Ni379  1  0.12029267  0.33586267  0.05459500  1.0
  Ni  Ni380  1  0.12029267  0.66919600  0.05459500  1.0
  Ni  Ni381  1  0.45362600  0.00252933  0.05459500  1.0
  Ni  Ni382  1  0.45362600  0.33586267  0.05459500  1.0
  Ni  Ni383  1  0.45362600  0.66919600  0.05459500  1.0
  Ni  Ni384  1  0.78695933  0.00252933  0.05459500  1.0
  Ni  Ni385  1  0.78695933  0.33586267  0.05459500  1.0
  Ni  Ni386  1  0.78695933  0.66919600  0.05459500  1.0
  Ni  Ni387  1  0.00785533  0.00252933  0.11967020  1.0
  Ni  Ni388  1  0.00785533  0.33586267  0.11967020  1.0
  Ni  Ni389  1  0.00785533  0.66919600  0.11967020  1.0
  Ni  Ni390  1  0.34118867  0.00252933  0.11967020  1.0
  Ni  Ni391  1  0.34118867  0.33586267  0.11967020  1.0
  Ni  Ni392  1  0.34118867  0.66919600  0.11967020  1.0
  Ni  Ni393  1  0.67452200  0.00252933  0.11967020  1.0
  Ni  Ni394  1  0.67452200  0.33586267  0.11967020  1.0
  Ni  Ni395  1  0.67452200  0.66919600  0.11967020  1.0
  Ni  Ni396  1  0.00000000  0.25133067  0.13641340  1.0
  Ni  Ni397  1  0.00000000  0.58466400  0.13641340  1.0
  Ni  Ni398  1  0.00000000  0.91799733  0.13641340  1.0
  Ni  Ni399  1  0.33333333  0.25133067  0.13641340  1.0
  Ni  Ni400  1  0.33333333  0.58466400  0.13641340  1.0
  Ni  Ni401  1  0.33333333  0.91799733  0.13641340  1.0
  Ni  Ni402  1  0.66666667  0.25133067  0.13641340  1.0
  Ni  Ni403  1  0.66666667  0.58466400  0.13641340  1.0
  Ni  Ni404  1  0.66666667  0.91799733  0.13641340  1.0
  Ni  Ni405  1  0.21304067  0.00252933  0.11967020  1.0
  Ni  Ni406  1  0.21304067  0.33586267  0.11967020  1.0
  Ni  Ni407  1  0.21304067  0.66919600  0.11967020  1.0
  Ni  Ni408  1  0.54637400  0.00252933  0.11967020  1.0
  Ni  Ni409  1  0.54637400  0.33586267  0.11967020  1.0
  Ni  Ni410  1  0.54637400  0.66919600  0.11967020  1.0
  Ni  Ni411  1  0.87970733  0.00252933  0.11967020  1.0
  Ni  Ni412  1  0.87970733  0.33586267  0.11967020  1.0
  Ni  Ni413  1  0.87970733  0.66919600  0.11967020  1.0
  Ni  Ni414  1  0.32547800  0.00252933  0.05459500  1.0
  Ni  Ni415  1  0.32547800  0.33586267  0.05459500  1.0
  Ni  Ni416  1  0.32547800  0.66919600  0.05459500  1.0
  Ni  Ni417  1  0.65881133  0.00252933  0.05459500  1.0
  Ni  Ni418  1  0.65881133  0.33586267  0.05459500  1.0
  Ni  Ni419  1  0.65881133  0.66919600  0.05459500  1.0
  Ni  Ni420  1  0.99214467  0.00252933  0.05459500  1.0
  Ni  Ni421  1  0.99214467  0.33586267  0.05459500  1.0
  Ni  Ni422  1  0.99214467  0.66919600  0.05459500  1.0
  Ni  Ni423  1  0.00000000  0.11763233  0.05619440  1.0
  Ni  Ni424  1  0.00000000  0.45096567  0.05619440  1.0
  Ni  Ni425  1  0.00000000  0.78429900  0.05619440  1.0
  Ni  Ni426  1  0.33333333  0.11763233  0.05619440  1.0
  Ni  Ni427  1  0.33333333  0.45096567  0.05619440  1.0
  Ni  Ni428  1  0.33333333  0.78429900  0.05619440  1.0
  Ni  Ni429  1  0.66666667  0.11763233  0.05619440  1.0
  Ni  Ni430  1  0.66666667  0.45096567  0.05619440  1.0
  Ni  Ni431  1  0.66666667  0.78429900  0.05619440  1.0
  Cd  Cd432  1  0.28757500  0.16696933  0.35766700  1.0
  Cd  Cd433  1  0.28757500  0.50030267  0.35766700  1.0
  Cd  Cd434  1  0.28757500  0.83363600  0.35766700  1.0
  Cd  Cd435  1  0.62090833  0.16696933  0.35766700  1.0
  Cd  Cd436  1  0.62090833  0.50030267  0.35766700  1.0
  Cd  Cd437  1  0.62090833  0.83363600  0.35766700  1.0
  Cd  Cd438  1  0.95424167  0.16696933  0.35766700  1.0
  Cd  Cd439  1  0.95424167  0.50030267  0.35766700  1.0
  Cd  Cd440  1  0.95424167  0.83363600  0.35766700  1.0
  Cd  Cd441  1  0.16779100  0.16696933  0.21392620  1.0
  Cd  Cd442  1  0.16779100  0.50030267  0.21392620  1.0
  Cd  Cd443  1  0.16779100  0.83363600  0.21392620  1.0
  Cd  Cd444  1  0.50112433  0.16696933  0.21392620  1.0
  Cd  Cd445  1  0.50112433  0.50030267  0.21392620  1.0
  Cd  Cd446  1  0.50112433  0.83363600  0.21392620  1.0
  Cd  Cd447  1  0.83445767  0.16696933  0.21392620  1.0
  Cd  Cd448  1  0.83445767  0.50030267  0.21392620  1.0
  Cd  Cd449  1  0.83445767  0.83363600  0.21392620  1.0
  Cd  Cd450  1  0.16666667  0.04660433  0.21357760  1.0
  Cd  Cd451  1  0.16666667  0.37993767  0.21357760  1.0
  Cd  Cd452  1  0.16666667  0.71327100  0.21357760  1.0
  Cd  Cd453  1  0.50000000  0.04660433  0.21357760  1.0
  Cd  Cd454  1  0.50000000  0.37993767  0.21357760  1.0
  Cd  Cd455  1  0.50000000  0.71327100  0.21357760  1.0
  Cd  Cd456  1  0.83333333  0.04660433  0.21357760  1.0
  Cd  Cd457  1  0.83333333  0.37993767  0.21357760  1.0
  Cd  Cd458  1  0.83333333  0.71327100  0.21357760  1.0
  Cd  Cd459  1  0.04575833  0.16696933  0.21392620  1.0
  Cd  Cd460  1  0.04575833  0.50030267  0.21392620  1.0
  Cd  Cd461  1  0.04575833  0.83363600  0.21392620  1.0
  Cd  Cd462  1  0.37909167  0.16696933  0.21392620  1.0
  Cd  Cd463  1  0.37909167  0.50030267  0.21392620  1.0
  Cd  Cd464  1  0.37909167  0.83363600  0.21392620  1.0
  Cd  Cd465  1  0.71242500  0.16696933  0.21392620  1.0
  Cd  Cd466  1  0.71242500  0.50030267  0.21392620  1.0
  Cd  Cd467  1  0.71242500  0.83363600  0.21392620  1.0
  Cd  Cd468  1  0.16554233  0.16696933  0.35766700  1.0
  Cd  Cd469  1  0.16554233  0.50030267  0.35766700  1.0
  Cd  Cd470  1  0.16554233  0.83363600  0.35766700  1.0
  Cd  Cd471  1  0.49887567  0.16696933  0.35766700  1.0
  Cd  Cd472  1  0.49887567  0.50030267  0.35766700  1.0
  Cd  Cd473  1  0.49887567  0.83363600  0.35766700  1.0
  Cd  Cd474  1  0.83220900  0.16696933  0.35766700  1.0
  Cd  Cd475  1  0.83220900  0.50030267  0.35766700  1.0
  Cd  Cd476  1  0.83220900  0.83363600  0.35766700  1.0
  Cd  Cd477  1  0.16666667  0.28675033  0.35766520  1.0
  Cd  Cd478  1  0.16666667  0.62008367  0.35766520  1.0
  Cd  Cd479  1  0.16666667  0.95341700  0.35766520  1.0
  Cd  Cd480  1  0.50000000  0.28675033  0.35766520  1.0
  Cd  Cd481  1  0.50000000  0.62008367  0.35766520  1.0
  Cd  Cd482  1  0.50000000  0.95341700  0.35766520  1.0
  Cd  Cd483  1  0.83333333  0.28675033  0.35766520  1.0
  Cd  Cd484  1  0.83333333  0.62008367  0.35766520  1.0
  Cd  Cd485  1  0.83333333  0.95341700  0.35766520  1.0
  Cd  Cd486  1  0.10080733  0.33098867  0.38420820  1.0
  Cd  Cd487  1  0.10080733  0.66432200  0.38420820  1.0
  Cd  Cd488  1  0.10080733  0.99765533  0.38420820  1.0
  Cd  Cd489  1  0.43414067  0.33098867  0.38420820  1.0
  Cd  Cd490  1  0.43414067  0.66432200  0.38420820  1.0
  Cd  Cd491  1  0.43414067  0.99765533  0.38420820  1.0
  Cd  Cd492  1  0.76747400  0.33098867  0.38420820  1.0
  Cd  Cd493  1  0.76747400  0.66432200  0.38420820  1.0
  Cd  Cd494  1  0.76747400  0.99765533  0.38420820  1.0
  Cd  Cd495  1  0.01808500  0.24964633  0.29127760  1.0
  Cd  Cd496  1  0.01808500  0.58297967  0.29127760  1.0
  Cd  Cd497  1  0.01808500  0.91631300  0.29127760  1.0
  Cd  Cd498  1  0.35141833  0.24964633  0.29127760  1.0
  Cd  Cd499  1  0.35141833  0.58297967  0.29127760  1.0
  Cd  Cd500  1  0.35141833  0.91631300  0.29127760  1.0
  Cd  Cd501  1  0.68475167  0.24964633  0.29127760  1.0
  Cd  Cd502  1  0.68475167  0.58297967  0.29127760  1.0
  Cd  Cd503  1  0.68475167  0.91631300  0.29127760  1.0
  Cd  Cd504  1  0.09162700  0.24964633  0.37952800  1.0
  Cd  Cd505  1  0.09162700  0.58297967  0.37952800  1.0
  Cd  Cd506  1  0.09162700  0.91631300  0.37952800  1.0
  Cd  Cd507  1  0.42496033  0.24964633  0.37952800  1.0
  Cd  Cd508  1  0.42496033  0.58297967  0.37952800  1.0
  Cd  Cd509  1  0.42496033  0.91631300  0.37952800  1.0
  Cd  Cd510  1  0.75829367  0.24964633  0.37952800  1.0
  Cd  Cd511  1  0.75829367  0.58297967  0.37952800  1.0
  Cd  Cd512  1  0.75829367  0.91631300  0.37952800  1.0
  Cd  Cd513  1  0.23252600  0.33098867  0.38420820  1.0
  Cd  Cd514  1  0.23252600  0.66432200  0.38420820  1.0
  Cd  Cd515  1  0.23252600  0.99765533  0.38420820  1.0
  Cd  Cd516  1  0.56585933  0.33098867  0.38420820  1.0
  Cd  Cd517  1  0.56585933  0.66432200  0.38420820  1.0
  Cd  Cd518  1  0.56585933  0.99765533  0.38420820  1.0
  Cd  Cd519  1  0.89919267  0.33098867  0.38420820  1.0
  Cd  Cd520  1  0.89919267  0.66432200  0.38420820  1.0
  Cd  Cd521  1  0.89919267  0.99765533  0.38420820  1.0
  Cd  Cd522  1  0.31524833  0.24964633  0.37952800  1.0
  Cd  Cd523  1  0.31524833  0.58297967  0.37952800  1.0
  Cd  Cd524  1  0.31524833  0.91631300  0.37952800  1.0
  Cd  Cd525  1  0.64858167  0.24964633  0.37952800  1.0
  Cd  Cd526  1  0.64858167  0.58297967  0.37952800  1.0
  Cd  Cd527  1  0.64858167  0.91631300  0.37952800  1.0
  Cd  Cd528  1  0.98191500  0.24964633  0.37952800  1.0
  Cd  Cd529  1  0.98191500  0.58297967  0.37952800  1.0
  Cd  Cd530  1  0.98191500  0.91631300  0.37952800  1.0
  Cd  Cd531  1  0.24170633  0.24964633  0.29127760  1.0
  Cd  Cd532  1  0.24170633  0.58297967  0.29127760  1.0
  Cd  Cd533  1  0.24170633  0.91631300  0.29127760  1.0
  Cd  Cd534  1  0.57503967  0.24964633  0.29127760  1.0
  Cd  Cd535  1  0.57503967  0.58297967  0.29127760  1.0
  Cd  Cd536  1  0.57503967  0.91631300  0.29127760  1.0
  Cd  Cd537  1  0.90837300  0.24964633  0.29127760  1.0
  Cd  Cd538  1  0.90837300  0.58297967  0.29127760  1.0
  Cd  Cd539  1  0.90837300  0.91631300  0.29127760  1.0
  Cd  Cd540  1  0.26618133  0.01688533  0.31516380  1.0
  Cd  Cd541  1  0.26618133  0.35021867  0.31516380  1.0
  Cd  Cd542  1  0.26618133  0.68355200  0.31516380  1.0
  Cd  Cd543  1  0.59951467  0.01688533  0.31516380  1.0
  Cd  Cd544  1  0.59951467  0.35021867  0.31516380  1.0
  Cd  Cd545  1  0.59951467  0.68355200  0.31516380  1.0
  Cd  Cd546  1  0.93284800  0.01688533  0.31516380  1.0
  Cd  Cd547  1  0.93284800  0.35021867  0.31516380  1.0
  Cd  Cd548  1  0.93284800  0.68355200  0.31516380  1.0
  Cd  Cd549  1  0.00175833  0.08679800  0.38839480  1.0
  Cd  Cd550  1  0.00175833  0.42013133  0.38839480  1.0
  Cd  Cd551  1  0.00175833  0.75346467  0.38839480  1.0
  Cd  Cd552  1  0.33509167  0.08679800  0.38839480  1.0
  Cd  Cd553  1  0.33509167  0.42013133  0.38839480  1.0
  Cd  Cd554  1  0.33509167  0.75346467  0.38839480  1.0
  Cd  Cd555  1  0.66842500  0.08679800  0.38839480  1.0
  Cd  Cd556  1  0.66842500  0.42013133  0.38839480  1.0
  Cd  Cd557  1  0.66842500  0.75346467  0.38839480  1.0
  Cd  Cd558  1  0.24941000  0.08679800  0.38839480  1.0
  Cd  Cd559  1  0.24941000  0.42013133  0.38839480  1.0
  Cd  Cd560  1  0.24941000  0.75346467  0.38839480  1.0
  Cd  Cd561  1  0.58274333  0.08679800  0.38839480  1.0
  Cd  Cd562  1  0.58274333  0.42013133  0.38839480  1.0
  Cd  Cd563  1  0.58274333  0.75346467  0.38839480  1.0
  Cd  Cd564  1  0.91607667  0.08679800  0.38839480  1.0
  Cd  Cd565  1  0.91607667  0.42013133  0.38839480  1.0
  Cd  Cd566  1  0.91607667  0.75346467  0.38839480  1.0
  Cd  Cd567  1  0.06715200  0.01688533  0.27632860  1.0
  Cd  Cd568  1  0.06715200  0.35021867  0.27632860  1.0
  Cd  Cd569  1  0.06715200  0.68355200  0.27632860  1.0
  Cd  Cd570  1  0.40048533  0.01688533  0.27632860  1.0
  Cd  Cd571  1  0.40048533  0.35021867  0.27632860  1.0
  Cd  Cd572  1  0.40048533  0.68355200  0.27632860  1.0
  Cd  Cd573  1  0.73381867  0.01688533  0.27632860  1.0
  Cd  Cd574  1  0.73381867  0.35021867  0.27632860  1.0
  Cd  Cd575  1  0.73381867  0.68355200  0.27632860  1.0
  Cd  Cd576  1  0.33157500  0.08679800  0.28699280  1.0
  Cd  Cd577  1  0.33157500  0.42013133  0.28699280  1.0
  Cd  Cd578  1  0.33157500  0.75346467  0.28699280  1.0
  Cd  Cd579  1  0.66490833  0.08679800  0.28699280  1.0
  Cd  Cd580  1  0.66490833  0.42013133  0.28699280  1.0
  Cd  Cd581  1  0.66490833  0.75346467  0.28699280  1.0
  Cd  Cd582  1  0.99824167  0.08679800  0.28699280  1.0
  Cd  Cd583  1  0.99824167  0.42013133  0.28699280  1.0
  Cd  Cd584  1  0.99824167  0.75346467  0.28699280  1.0
  Cd  Cd585  1  0.08392333  0.08679800  0.28699280  1.0
  Cd  Cd586  1  0.08392333  0.42013133  0.28699280  1.0
  Cd  Cd587  1  0.08392333  0.75346467  0.28699280  1.0
  Cd  Cd588  1  0.41725667  0.08679800  0.28699280  1.0
  Cd  Cd589  1  0.41725667  0.42013133  0.28699280  1.0
  Cd  Cd590  1  0.41725667  0.75346467  0.28699280  1.0
  Cd  Cd591  1  0.75059000  0.08679800  0.28699280  1.0
  Cd  Cd592  1  0.75059000  0.42013133  0.28699280  1.0
  Cd  Cd593  1  0.75059000  0.75346467  0.28699280  1.0
  Cd  Cd594  1  0.21448633  0.11575400  0.25506740  1.0
  Cd  Cd595  1  0.21448633  0.44908733  0.25506740  1.0
  Cd  Cd596  1  0.21448633  0.78242067  0.25506740  1.0
  Cd  Cd597  1  0.54781967  0.11575400  0.25506740  1.0
  Cd  Cd598  1  0.54781967  0.44908733  0.25506740  1.0
  Cd  Cd599  1  0.54781967  0.78242067  0.25506740  1.0
  Cd  Cd600  1  0.88115300  0.11575400  0.25506740  1.0
  Cd  Cd601  1  0.88115300  0.44908733  0.25506740  1.0
  Cd  Cd602  1  0.88115300  0.78242067  0.25506740  1.0
  Cd  Cd603  1  0.11884700  0.11575400  0.25506740  1.0
  Cd  Cd604  1  0.11884700  0.44908733  0.25506740  1.0
  Cd  Cd605  1  0.11884700  0.78242067  0.25506740  1.0
  Cd  Cd606  1  0.45218033  0.11575400  0.25506740  1.0
  Cd  Cd607  1  0.45218033  0.44908733  0.25506740  1.0
  Cd  Cd608  1  0.45218033  0.78242067  0.25506740  1.0
  Cd  Cd609  1  0.78551367  0.11575400  0.25506740  1.0
  Cd  Cd610  1  0.78551367  0.44908733  0.25506740  1.0
  Cd  Cd611  1  0.78551367  0.78242067  0.25506740  1.0
  Cd  Cd612  1  0.11526100  0.21342233  0.25198160  1.0
  Cd  Cd613  1  0.11526100  0.54675567  0.25198160  1.0
  Cd  Cd614  1  0.11526100  0.88008900  0.25198160  1.0
  Cd  Cd615  1  0.44859433  0.21342233  0.25198160  1.0
  Cd  Cd616  1  0.44859433  0.54675567  0.25198160  1.0
  Cd  Cd617  1  0.44859433  0.88008900  0.25198160  1.0
  Cd  Cd618  1  0.78192767  0.21342233  0.25198160  1.0
  Cd  Cd619  1  0.78192767  0.54675567  0.25198160  1.0
  Cd  Cd620  1  0.78192767  0.88008900  0.25198160  1.0
  Cd  Cd621  1  0.21807233  0.21342233  0.37535520  1.0
  Cd  Cd622  1  0.21807233  0.54675567  0.37535520  1.0
  Cd  Cd623  1  0.21807233  0.88008900  0.37535520  1.0
  Cd  Cd624  1  0.55140567  0.21342233  0.37535520  1.0
  Cd  Cd625  1  0.55140567  0.54675567  0.37535520  1.0
  Cd  Cd626  1  0.55140567  0.88008900  0.37535520  1.0
  Cd  Cd627  1  0.88473900  0.21342233  0.37535520  1.0
  Cd  Cd628  1  0.88473900  0.54675567  0.37535520  1.0
  Cd  Cd629  1  0.88473900  0.88008900  0.37535520  1.0
  Cd  Cd630  1  0.27651667  0.16347967  0.28370280  1.0
  Cd  Cd631  1  0.27651667  0.49681300  0.28370280  1.0
  Cd  Cd632  1  0.27651667  0.83014633  0.28370280  1.0
  Cd  Cd633  1  0.60985000  0.16347967  0.28370280  1.0
  Cd  Cd634  1  0.60985000  0.49681300  0.28370280  1.0
  Cd  Cd635  1  0.60985000  0.83014633  0.28370280  1.0
  Cd  Cd636  1  0.94318333  0.16347967  0.28370280  1.0
  Cd  Cd637  1  0.94318333  0.49681300  0.28370280  1.0
  Cd  Cd638  1  0.94318333  0.83014633  0.28370280  1.0
  Cd  Cd639  1  0.16338633  0.05648933  0.34992760  1.0
  Cd  Cd640  1  0.16338633  0.38982267  0.34992760  1.0
  Cd  Cd641  1  0.16338633  0.72315600  0.34992760  1.0
  Cd  Cd642  1  0.49671967  0.05648933  0.34992760  1.0
  Cd  Cd643  1  0.49671967  0.38982267  0.34992760  1.0
  Cd  Cd644  1  0.49671967  0.72315600  0.34992760  1.0
  Cd  Cd645  1  0.83005300  0.05648933  0.34992760  1.0
  Cd  Cd646  1  0.83005300  0.38982267  0.34992760  1.0
  Cd  Cd647  1  0.83005300  0.72315600  0.34992760  1.0
  Cd  Cd648  1  0.27935467  0.05648933  0.28908960  1.0
  Cd  Cd649  1  0.27935467  0.38982267  0.28908960  1.0
  Cd  Cd650  1  0.27935467  0.72315600  0.28908960  1.0
  Cd  Cd651  1  0.61268800  0.05648933  0.28908960  1.0
  Cd  Cd652  1  0.61268800  0.38982267  0.28908960  1.0
  Cd  Cd653  1  0.61268800  0.72315600  0.28908960  1.0
  Cd  Cd654  1  0.94602133  0.05648933  0.28908960  1.0
  Cd  Cd655  1  0.94602133  0.38982267  0.28908960  1.0
  Cd  Cd656  1  0.94602133  0.72315600  0.28908960  1.0
  Cd  Cd657  1  0.05681667  0.16347967  0.28370280  1.0
  Cd  Cd658  1  0.05681667  0.49681300  0.28370280  1.0
  Cd  Cd659  1  0.05681667  0.83014633  0.28370280  1.0
  Cd  Cd660  1  0.39015000  0.16347967  0.28370280  1.0
  Cd  Cd661  1  0.39015000  0.49681300  0.28370280  1.0
  Cd  Cd662  1  0.39015000  0.83014633  0.28370280  1.0
  Cd  Cd663  1  0.72348333  0.16347967  0.28370280  1.0
  Cd  Cd664  1  0.72348333  0.49681300  0.28370280  1.0
  Cd  Cd665  1  0.72348333  0.83014633  0.28370280  1.0
  Cd  Cd666  1  0.16994700  0.05648933  0.28908960  1.0
  Cd  Cd667  1  0.16994700  0.38982267  0.28908960  1.0
  Cd  Cd668  1  0.16994700  0.72315600  0.28908960  1.0
  Cd  Cd669  1  0.50328033  0.05648933  0.28908960  1.0
  Cd  Cd670  1  0.50328033  0.38982267  0.28908960  1.0
  Cd  Cd671  1  0.50328033  0.72315600  0.28908960  1.0
  Cd  Cd672  1  0.83661367  0.05648933  0.28908960  1.0
  Cd  Cd673  1  0.83661367  0.38982267  0.28908960  1.0
  Cd  Cd674  1  0.83661367  0.72315600  0.28908960  1.0
  Cd  Cd675  1  0.05397867  0.05648933  0.34992760  1.0
  Cd  Cd676  1  0.05397867  0.38982267  0.34992760  1.0
  Cd  Cd677  1  0.05397867  0.72315600  0.34992760  1.0
  Cd  Cd678  1  0.38731200  0.05648933  0.34992760  1.0
  Cd  Cd679  1  0.38731200  0.38982267  0.34992760  1.0
  Cd  Cd680  1  0.38731200  0.72315600  0.34992760  1.0
  Cd  Cd681  1  0.72064533  0.05648933  0.34992760  1.0
  Cd  Cd682  1  0.72064533  0.38982267  0.34992760  1.0
  Cd  Cd683  1  0.72064533  0.72315600  0.34992760  1.0
  Cd  Cd684  1  0.04465567  0.18043267  0.34746140  1.0
  Cd  Cd685  1  0.04465567  0.51376600  0.34746140  1.0
  Cd  Cd686  1  0.04465567  0.84709933  0.34746140  1.0
  Cd  Cd687  1  0.37798900  0.18043267  0.34746140  1.0
  Cd  Cd688  1  0.37798900  0.51376600  0.34746140  1.0
  Cd  Cd689  1  0.37798900  0.84709933  0.34746140  1.0
  Cd  Cd690  1  0.71132233  0.18043267  0.34746140  1.0
  Cd  Cd691  1  0.71132233  0.51376600  0.34746140  1.0
  Cd  Cd692  1  0.71132233  0.84709933  0.34746140  1.0
  Cd  Cd693  1  0.15218600  0.28343800  0.28082860  1.0
  Cd  Cd694  1  0.15218600  0.61677133  0.28082860  1.0
  Cd  Cd695  1  0.15218600  0.95010467  0.28082860  1.0
  Cd  Cd696  1  0.48551933  0.28343800  0.28082860  1.0
  Cd  Cd697  1  0.48551933  0.61677133  0.28082860  1.0
  Cd  Cd698  1  0.48551933  0.95010467  0.28082860  1.0
  Cd  Cd699  1  0.81885267  0.28343800  0.28082860  1.0
  Cd  Cd700  1  0.81885267  0.61677133  0.28082860  1.0
  Cd  Cd701  1  0.81885267  0.95010467  0.28082860  1.0
  Cd  Cd702  1  0.05639867  0.28343800  0.28082860  1.0
  Cd  Cd703  1  0.05639867  0.61677133  0.28082860  1.0
  Cd  Cd704  1  0.05639867  0.95010467  0.28082860  1.0
  Cd  Cd705  1  0.38973200  0.28343800  0.28082860  1.0
  Cd  Cd706  1  0.38973200  0.61677133  0.28082860  1.0
  Cd  Cd707  1  0.38973200  0.95010467  0.28082860  1.0
  Cd  Cd708  1  0.72306533  0.28343800  0.28082860  1.0
  Cd  Cd709  1  0.72306533  0.61677133  0.28082860  1.0
  Cd  Cd710  1  0.72306533  0.95010467  0.28082860  1.0
  Cd  Cd711  1  0.28867767  0.18043267  0.24028780  1.0
  Cd  Cd712  1  0.28867767  0.51376600  0.24028780  1.0
  Cd  Cd713  1  0.28867767  0.84709933  0.24028780  1.0
  Cd  Cd714  1  0.62201100  0.18043267  0.24028780  1.0
  Cd  Cd715  1  0.62201100  0.51376600  0.24028780  1.0
  Cd  Cd716  1  0.62201100  0.84709933  0.24028780  1.0
  Cd  Cd717  1  0.95534433  0.18043267  0.24028780  1.0
  Cd  Cd718  1  0.95534433  0.51376600  0.24028780  1.0
  Cd  Cd719  1  0.95534433  0.84709933  0.24028780  1.0
  Cd  Cd720  1  0.18114733  0.28343800  0.23052700  1.0
  Cd  Cd721  1  0.18114733  0.61677133  0.23052700  1.0
  Cd  Cd722  1  0.18114733  0.95010467  0.23052700  1.0
  Cd  Cd723  1  0.51448067  0.28343800  0.23052700  1.0
  Cd  Cd724  1  0.51448067  0.61677133  0.23052700  1.0
  Cd  Cd725  1  0.51448067  0.95010467  0.23052700  1.0
  Cd  Cd726  1  0.84781400  0.28343800  0.23052700  1.0
  Cd  Cd727  1  0.84781400  0.61677133  0.23052700  1.0
  Cd  Cd728  1  0.84781400  0.95010467  0.23052700  1.0
  Cd  Cd729  1  0.27693467  0.28343800  0.23052700  1.0
  Cd  Cd730  1  0.27693467  0.61677133  0.23052700  1.0
  Cd  Cd731  1  0.27693467  0.95010467  0.23052700  1.0
  Cd  Cd732  1  0.61026800  0.28343800  0.23052700  1.0
  Cd  Cd733  1  0.61026800  0.61677133  0.23052700  1.0
  Cd  Cd734  1  0.61026800  0.95010467  0.23052700  1.0
  Cd  Cd735  1  0.94360133  0.28343800  0.23052700  1.0
  Cd  Cd736  1  0.94360133  0.61677133  0.23052700  1.0
  Cd  Cd737  1  0.94360133  0.95010467  0.23052700  1.0
  Cd  Cd738  1  0.11463367  0.22222222  0.31894833  1.0
  Cd  Cd739  1  0.11463367  0.55555556  0.31894833  1.0
  Cd  Cd740  1  0.11463367  0.88888889  0.31894833  1.0
  Cd  Cd741  1  0.44796700  0.22222222  0.31894833  1.0
  Cd  Cd742  1  0.44796700  0.55555556  0.31894833  1.0
  Cd  Cd743  1  0.44796700  0.88888889  0.31894833  1.0
  Cd  Cd744  1  0.78130033  0.22222222  0.31894833  1.0
  Cd  Cd745  1  0.78130033  0.55555556  0.31894833  1.0
  Cd  Cd746  1  0.78130033  0.88888889  0.31894833  1.0
  Cd  Cd747  1  0.21869967  0.22222222  0.31894833  1.0
  Cd  Cd748  1  0.21869967  0.55555556  0.31894833  1.0
  Cd  Cd749  1  0.21869967  0.88888889  0.31894833  1.0
  Cd  Cd750  1  0.55203300  0.22222222  0.31894833  1.0
  Cd  Cd751  1  0.55203300  0.55555556  0.31894833  1.0
  Cd  Cd752  1  0.55203300  0.88888889  0.31894833  1.0
  Cd  Cd753  1  0.88536633  0.22222222  0.31894833  1.0
  Cd  Cd754  1  0.88536633  0.55555556  0.31894833  1.0
  Cd  Cd755  1  0.88536633  0.88888889  0.31894833  1.0
  Cd  Cd756  1  0.22585733  0.11465933  0.32543940  1.0
  Cd  Cd757  1  0.22585733  0.44799267  0.32543940  1.0
  Cd  Cd758  1  0.22585733  0.78132600  0.32543940  1.0
  Cd  Cd759  1  0.55919067  0.11465933  0.32543940  1.0
  Cd  Cd760  1  0.55919067  0.44799267  0.32543940  1.0
  Cd  Cd761  1  0.55919067  0.78132600  0.32543940  1.0
  Cd  Cd762  1  0.89252400  0.11465933  0.32543940  1.0
  Cd  Cd763  1  0.89252400  0.44799267  0.32543940  1.0
  Cd  Cd764  1  0.89252400  0.78132600  0.32543940  1.0
  Cd  Cd765  1  0.10747600  0.11465933  0.38338180  1.0
  Cd  Cd766  1  0.10747600  0.44799267  0.38338180  1.0
  Cd  Cd767  1  0.10747600  0.78132600  0.38338180  1.0
  Cd  Cd768  1  0.44080933  0.11465933  0.38338180  1.0
  Cd  Cd769  1  0.44080933  0.44799267  0.38338180  1.0
  Cd  Cd770  1  0.44080933  0.78132600  0.38338180  1.0
  Cd  Cd771  1  0.77414267  0.11465933  0.38338180  1.0
  Cd  Cd772  1  0.77414267  0.44799267  0.38338180  1.0
  Cd  Cd773  1  0.77414267  0.78132600  0.38338180  1.0
  Cd  Cd774  1  0.30004267  0.00076467  0.38607380  1.0
  Cd  Cd775  1  0.30004267  0.33409800  0.38607380  1.0
  Cd  Cd776  1  0.30004267  0.66743133  0.38607380  1.0
  Cd  Cd777  1  0.63337600  0.00076467  0.38607380  1.0
  Cd  Cd778  1  0.63337600  0.33409800  0.38607380  1.0
  Cd  Cd779  1  0.63337600  0.66743133  0.38607380  1.0
  Cd  Cd780  1  0.96670933  0.00076467  0.38607380  1.0
  Cd  Cd781  1  0.96670933  0.33409800  0.38607380  1.0
  Cd  Cd782  1  0.96670933  0.66743133  0.38607380  1.0
  Cd  Cd783  1  0.03329067  0.00076467  0.38607380  1.0
  Cd  Cd784  1  0.03329067  0.33409800  0.38607380  1.0
  Cd  Cd785  1  0.03329067  0.66743133  0.38607380  1.0
  Cd  Cd786  1  0.36662400  0.00076467  0.38607380  1.0
  Cd  Cd787  1  0.36662400  0.33409800  0.38607380  1.0
  Cd  Cd788  1  0.36662400  0.66743133  0.38607380  1.0
  Cd  Cd789  1  0.69995733  0.00076467  0.38607380  1.0
  Cd  Cd790  1  0.69995733  0.33409800  0.38607380  1.0
  Cd  Cd791  1  0.69995733  0.66743133  0.38607380  1.0
  Ni  Ni792  1  0.06178867  0.26517467  0.21886620  1.0
  Ni  Ni793  1  0.06178867  0.59850800  0.21886620  1.0
  Ni  Ni794  1  0.06178867  0.93184133  0.21886620  1.0
  Ni  Ni795  1  0.39512200  0.26517467  0.21886620  1.0
  Ni  Ni796  1  0.39512200  0.59850800  0.21886620  1.0
  Ni  Ni797  1  0.39512200  0.93184133  0.21886620  1.0
  Ni  Ni798  1  0.72845533  0.26517467  0.21886620  1.0
  Ni  Ni799  1  0.72845533  0.59850800  0.21886620  1.0
  Ni  Ni800  1  0.72845533  0.93184133  0.21886620  1.0
  Ni  Ni801  1  0.27154467  0.26517467  0.27057340  1.0
  Ni  Ni802  1  0.27154467  0.59850800  0.27057340  1.0
  Ni  Ni803  1  0.27154467  0.93184133  0.27057340  1.0
  Ni  Ni804  1  0.60487800  0.26517467  0.27057340  1.0
  Ni  Ni805  1  0.60487800  0.59850800  0.27057340  1.0
  Ni  Ni806  1  0.60487800  0.93184133  0.27057340  1.0
  Ni  Ni807  1  0.93821133  0.26517467  0.27057340  1.0
  Ni  Ni808  1  0.93821133  0.59850800  0.27057340  1.0
  Ni  Ni809  1  0.93821133  0.93184133  0.27057340  1.0
  Ni  Ni810  1  0.12029267  0.00252933  0.25459500  1.0
  Ni  Ni811  1  0.12029267  0.33586267  0.25459500  1.0
  Ni  Ni812  1  0.12029267  0.66919600  0.25459500  1.0
  Ni  Ni813  1  0.45362600  0.00252933  0.25459500  1.0
  Ni  Ni814  1  0.45362600  0.33586267  0.25459500  1.0
  Ni  Ni815  1  0.45362600  0.66919600  0.25459500  1.0
  Ni  Ni816  1  0.78695933  0.00252933  0.25459500  1.0
  Ni  Ni817  1  0.78695933  0.33586267  0.25459500  1.0
  Ni  Ni818  1  0.78695933  0.66919600  0.25459500  1.0
  Ni  Ni819  1  0.00785533  0.00252933  0.31967020  1.0
  Ni  Ni820  1  0.00785533  0.33586267  0.31967020  1.0
  Ni  Ni821  1  0.00785533  0.66919600  0.31967020  1.0
  Ni  Ni822  1  0.34118867  0.00252933  0.31967020  1.0
  Ni  Ni823  1  0.34118867  0.33586267  0.31967020  1.0
  Ni  Ni824  1  0.34118867  0.66919600  0.31967020  1.0
  Ni  Ni825  1  0.67452200  0.00252933  0.31967020  1.0
  Ni  Ni826  1  0.67452200  0.33586267  0.31967020  1.0
  Ni  Ni827  1  0.67452200  0.66919600  0.31967020  1.0
  Ni  Ni828  1  0.00000000  0.25133067  0.33641340  1.0
  Ni  Ni829  1  0.00000000  0.58466400  0.33641340  1.0
  Ni  Ni830  1  0.00000000  0.91799733  0.33641340  1.0
  Ni  Ni831  1  0.33333333  0.25133067  0.33641340  1.0
  Ni  Ni832  1  0.33333333  0.58466400  0.33641340  1.0
  Ni  Ni833  1  0.33333333  0.91799733  0.33641340  1.0
  Ni  Ni834  1  0.66666667  0.25133067  0.33641340  1.0
  Ni  Ni835  1  0.66666667  0.58466400  0.33641340  1.0
  Ni  Ni836  1  0.66666667  0.91799733  0.33641340  1.0
  Ni  Ni837  1  0.21304067  0.00252933  0.31967020  1.0
  Ni  Ni838  1  0.21304067  0.33586267  0.31967020  1.0
  Ni  Ni839  1  0.21304067  0.66919600  0.31967020  1.0
  Ni  Ni840  1  0.54637400  0.00252933  0.31967020  1.0
  Ni  Ni841  1  0.54637400  0.33586267  0.31967020  1.0
  Ni  Ni842  1  0.54637400  0.66919600  0.31967020  1.0
  Ni  Ni843  1  0.87970733  0.00252933  0.31967020  1.0
  Ni  Ni844  1  0.87970733  0.33586267  0.31967020  1.0
  Ni  Ni845  1  0.87970733  0.66919600  0.31967020  1.0
  Ni  Ni846  1  0.32547800  0.00252933  0.25459500  1.0
  Ni  Ni847  1  0.32547800  0.33586267  0.25459500  1.0
  Ni  Ni848  1  0.32547800  0.66919600  0.25459500  1.0
  Ni  Ni849  1  0.65881133  0.00252933  0.25459500  1.0
  Ni  Ni850  1  0.65881133  0.33586267  0.25459500  1.0
  Ni  Ni851  1  0.65881133  0.66919600  0.25459500  1.0
  Ni  Ni852  1  0.99214467  0.00252933  0.25459500  1.0
  Ni  Ni853  1  0.99214467  0.33586267  0.25459500  1.0
  Ni  Ni854  1  0.99214467  0.66919600  0.25459500  1.0
  Ni  Ni855  1  0.00000000  0.11763233  0.25619440  1.0
  Ni  Ni856  1  0.00000000  0.45096567  0.25619440  1.0
  Ni  Ni857  1  0.00000000  0.78429900  0.25619440  1.0
  Ni  Ni858  1  0.33333333  0.11763233  0.25619440  1.0
  Ni  Ni859  1  0.33333333  0.45096567  0.25619440  1.0
  Ni  Ni860  1  0.33333333  0.78429900  0.25619440  1.0
  Ni  Ni861  1  0.66666667  0.11763233  0.25619440  1.0
  Ni  Ni862  1  0.66666667  0.45096567  0.25619440  1.0
  Ni  Ni863  1  0.66666667  0.78429900  0.25619440  1.0
