# generated using pymatgen
data_CdNi
_symmetry_space_group_name_H-M   'P 1'
_cell_length_a   25.72660944
_cell_length_b   68.06621066
_cell_length_c   60.02875536
_cell_angle_alpha   55.46241621
_cell_angle_beta   120.00000000
_cell_angle_gamma   79.10660535
_symmetry_Int_Tables_number   1
_chemical_formula_structural   CdNi
_chemical_formula_sum   'Cd648 Ni648'
_cell_volume   56187.46564352
_cell_formula_units_Z   648
loop_
 _symmetry_equiv_pos_site_id
 _symmetry_equiv_pos_as_xyz
  1  'x, y, z'
loop_
 _atom_site_type_symbol
 _atom_site_label
 _atom_site_symmetry_multiplicity
 _atom_site_fract_x
 _atom_site_fract_y
 _atom_site_fract_z
 _atom_site_occupancy
  Cd  Cd0  1  0.08568417  0.08568417  0.03016914  1.0
  Cd  Cd1  1  0.08568417  0.41901750  0.03016914  1.0
  Cd  Cd2  1  0.08568417  0.75235083  0.03016914  1.0
  Cd  Cd3  1  0.41901750  0.08568417  0.03016914  1.0
  Cd  Cd4  1  0.41901750  0.41901750  0.03016914  1.0
  Cd  Cd5  1  0.41901750  0.75235083  0.03016914  1.0
  Cd  Cd6  1  0.75235083  0.08568417  0.03016914  1.0
  Cd  Cd7  1  0.75235083  0.41901750  0.03016914  1.0
  Cd  Cd8  1  0.75235083  0.75235083  0.03016914  1.0
  Cd  Cd9  1  0.25235083  0.25235083  0.10159771  1.0
  Cd  Cd10  1  0.25235083  0.58568417  0.10159771  1.0
  Cd  Cd11  1  0.25235083  0.91901750  0.10159771  1.0
  Cd  Cd12  1  0.58568417  0.25235083  0.10159771  1.0
  Cd  Cd13  1  0.58568417  0.58568417  0.10159771  1.0
  Cd  Cd14  1  0.58568417  0.91901750  0.10159771  1.0
  Cd  Cd15  1  0.91901750  0.25235083  0.10159771  1.0
  Cd  Cd16  1  0.91901750  0.58568417  0.10159771  1.0
  Cd  Cd17  1  0.91901750  0.91901750  0.10159771  1.0
  Cd  Cd18  1  0.12735083  0.12735083  0.08374057  1.0
  Cd  Cd19  1  0.12735083  0.46068417  0.08374057  1.0
  Cd  Cd20  1  0.12735083  0.79401750  0.08374057  1.0
  Cd  Cd21  1  0.46068417  0.12735083  0.08374057  1.0
  Cd  Cd22  1  0.46068417  0.46068417  0.08374057  1.0
  Cd  Cd23  1  0.46068417  0.79401750  0.08374057  1.0
  Cd  Cd24  1  0.79401750  0.12735083  0.08374057  1.0
  Cd  Cd25  1  0.79401750  0.46068417  0.08374057  1.0
  Cd  Cd26  1  0.79401750  0.79401750  0.08374057  1.0
  Cd  Cd27  1  0.29401750  0.29401750  0.01231200  1.0
  Cd  Cd28  1  0.29401750  0.62735083  0.01231200  1.0
  Cd  Cd29  1  0.29401750  0.96068417  0.01231200  1.0
  Cd  Cd30  1  0.62735083  0.29401750  0.01231200  1.0
  Cd  Cd31  1  0.62735083  0.62735083  0.01231200  1.0
  Cd  Cd32  1  0.62735083  0.96068417  0.01231200  1.0
  Cd  Cd33  1  0.96068417  0.29401750  0.01231200  1.0
  Cd  Cd34  1  0.96068417  0.62735083  0.01231200  1.0
  Cd  Cd35  1  0.96068417  0.96068417  0.01231200  1.0
  Cd  Cd36  1  0.00705250  0.16431583  0.07192843  1.0
  Cd  Cd37  1  0.00705250  0.49764917  0.07192843  1.0
  Cd  Cd38  1  0.00705250  0.83098250  0.07192843  1.0
  Cd  Cd39  1  0.34038583  0.16431583  0.07192843  1.0
  Cd  Cd40  1  0.34038583  0.49764917  0.07192843  1.0
  Cd  Cd41  1  0.34038583  0.83098250  0.07192843  1.0
  Cd  Cd42  1  0.67371917  0.16431583  0.07192843  1.0
  Cd  Cd43  1  0.67371917  0.49764917  0.07192843  1.0
  Cd  Cd44  1  0.67371917  0.83098250  0.07192843  1.0
  Cd  Cd45  1  0.17371917  0.33098250  0.00049986  1.0
  Cd  Cd46  1  0.17371917  0.66431583  0.00049986  1.0
  Cd  Cd47  1  0.17371917  0.99764917  0.00049986  1.0
  Cd  Cd48  1  0.50705250  0.33098250  0.00049986  1.0
  Cd  Cd49  1  0.50705250  0.66431583  0.00049986  1.0
  Cd  Cd50  1  0.50705250  0.99764917  0.00049986  1.0
  Cd  Cd51  1  0.84038583  0.33098250  0.00049986  1.0
  Cd  Cd52  1  0.84038583  0.66431583  0.00049986  1.0
  Cd  Cd53  1  0.84038583  0.99764917  0.00049986  1.0
  Cd  Cd54  1  0.24294750  0.08568417  0.03016914  1.0
  Cd  Cd55  1  0.24294750  0.41901750  0.03016914  1.0
  Cd  Cd56  1  0.24294750  0.75235083  0.03016914  1.0
  Cd  Cd57  1  0.57628083  0.08568417  0.03016914  1.0
  Cd  Cd58  1  0.57628083  0.41901750  0.03016914  1.0
  Cd  Cd59  1  0.57628083  0.75235083  0.03016914  1.0
  Cd  Cd60  1  0.90961417  0.08568417  0.03016914  1.0
  Cd  Cd61  1  0.90961417  0.41901750  0.03016914  1.0
  Cd  Cd62  1  0.90961417  0.75235083  0.03016914  1.0
  Cd  Cd63  1  0.07628083  0.25235083  0.10159771  1.0
  Cd  Cd64  1  0.07628083  0.58568417  0.10159771  1.0
  Cd  Cd65  1  0.07628083  0.91901750  0.10159771  1.0
  Cd  Cd66  1  0.40961417  0.25235083  0.10159771  1.0
  Cd  Cd67  1  0.40961417  0.58568417  0.10159771  1.0
  Cd  Cd68  1  0.40961417  0.91901750  0.10159771  1.0
  Cd  Cd69  1  0.74294750  0.25235083  0.10159771  1.0
  Cd  Cd70  1  0.74294750  0.58568417  0.10159771  1.0
  Cd  Cd71  1  0.74294750  0.91901750  0.10159771  1.0
  Cd  Cd72  1  0.00705250  0.16431583  0.13932700  1.0
  Cd  Cd73  1  0.00705250  0.49764917  0.13932700  1.0
  Cd  Cd74  1  0.00705250  0.83098250  0.13932700  1.0
  Cd  Cd75  1  0.34038583  0.16431583  0.13932700  1.0
  Cd  Cd76  1  0.34038583  0.49764917  0.13932700  1.0
  Cd  Cd77  1  0.34038583  0.83098250  0.13932700  1.0
  Cd  Cd78  1  0.67371917  0.16431583  0.13932700  1.0
  Cd  Cd79  1  0.67371917  0.49764917  0.13932700  1.0
  Cd  Cd80  1  0.67371917  0.83098250  0.13932700  1.0
  Cd  Cd81  1  0.17371917  0.33098250  0.06789843  1.0
  Cd  Cd82  1  0.17371917  0.66431583  0.06789843  1.0
  Cd  Cd83  1  0.17371917  0.99764917  0.06789843  1.0
  Cd  Cd84  1  0.50705250  0.33098250  0.06789843  1.0
  Cd  Cd85  1  0.50705250  0.66431583  0.06789843  1.0
  Cd  Cd86  1  0.50705250  0.99764917  0.06789843  1.0
  Cd  Cd87  1  0.84038583  0.33098250  0.06789843  1.0
  Cd  Cd88  1  0.84038583  0.66431583  0.06789843  1.0
  Cd  Cd89  1  0.84038583  0.99764917  0.06789843  1.0
  Cd  Cd90  1  0.24294750  0.08568417  0.09756771  1.0
  Cd  Cd91  1  0.24294750  0.41901750  0.09756771  1.0
  Cd  Cd92  1  0.24294750  0.75235083  0.09756771  1.0
  Cd  Cd93  1  0.57628083  0.08568417  0.09756771  1.0
  Cd  Cd94  1  0.57628083  0.41901750  0.09756771  1.0
  Cd  Cd95  1  0.57628083  0.75235083  0.09756771  1.0
  Cd  Cd96  1  0.90961417  0.08568417  0.09756771  1.0
  Cd  Cd97  1  0.90961417  0.41901750  0.09756771  1.0
  Cd  Cd98  1  0.90961417  0.75235083  0.09756771  1.0
  Cd  Cd99  1  0.07628083  0.25235083  0.02613914  1.0
  Cd  Cd100  1  0.07628083  0.58568417  0.02613914  1.0
  Cd  Cd101  1  0.07628083  0.91901750  0.02613914  1.0
  Cd  Cd102  1  0.40961417  0.25235083  0.02613914  1.0
  Cd  Cd103  1  0.40961417  0.58568417  0.02613914  1.0
  Cd  Cd104  1  0.40961417  0.91901750  0.02613914  1.0
  Cd  Cd105  1  0.74294750  0.25235083  0.02613914  1.0
  Cd  Cd106  1  0.74294750  0.58568417  0.02613914  1.0
  Cd  Cd107  1  0.74294750  0.91901750  0.02613914  1.0
  Cd  Cd108  1  0.28461417  0.12735083  0.00828200  1.0
  Cd  Cd109  1  0.28461417  0.46068417  0.00828200  1.0
  Cd  Cd110  1  0.28461417  0.79401750  0.00828200  1.0
  Cd  Cd111  1  0.61794750  0.12735083  0.00828200  1.0
  Cd  Cd112  1  0.61794750  0.46068417  0.00828200  1.0
  Cd  Cd113  1  0.61794750  0.79401750  0.00828200  1.0
  Cd  Cd114  1  0.95128083  0.12735083  0.00828200  1.0
  Cd  Cd115  1  0.95128083  0.46068417  0.00828200  1.0
  Cd  Cd116  1  0.95128083  0.79401750  0.00828200  1.0
  Cd  Cd117  1  0.11794750  0.29401750  0.07971057  1.0
  Cd  Cd118  1  0.11794750  0.62735083  0.07971057  1.0
  Cd  Cd119  1  0.11794750  0.96068417  0.07971057  1.0
  Cd  Cd120  1  0.45128083  0.29401750  0.07971057  1.0
  Cd  Cd121  1  0.45128083  0.62735083  0.07971057  1.0
  Cd  Cd122  1  0.45128083  0.96068417  0.07971057  1.0
  Cd  Cd123  1  0.78461417  0.29401750  0.07971057  1.0
  Cd  Cd124  1  0.78461417  0.62735083  0.07971057  1.0
  Cd  Cd125  1  0.78461417  0.96068417  0.07971057  1.0
  Cd  Cd126  1  0.21538583  0.03931583  0.05407129  1.0
  Cd  Cd127  1  0.21538583  0.37264917  0.05407129  1.0
  Cd  Cd128  1  0.21538583  0.70598250  0.05407129  1.0
  Cd  Cd129  1  0.54871917  0.03931583  0.05407129  1.0
  Cd  Cd130  1  0.54871917  0.37264917  0.05407129  1.0
  Cd  Cd131  1  0.54871917  0.70598250  0.05407129  1.0
  Cd  Cd132  1  0.88205250  0.03931583  0.05407129  1.0
  Cd  Cd133  1  0.88205250  0.37264917  0.05407129  1.0
  Cd  Cd134  1  0.88205250  0.70598250  0.05407129  1.0
  Cd  Cd135  1  0.04871917  0.20598250  0.12549986  1.0
  Cd  Cd136  1  0.04871917  0.53931583  0.12549986  1.0
  Cd  Cd137  1  0.04871917  0.87264917  0.12549986  1.0
  Cd  Cd138  1  0.38205250  0.20598250  0.12549986  1.0
  Cd  Cd139  1  0.38205250  0.53931583  0.12549986  1.0
  Cd  Cd140  1  0.38205250  0.87264917  0.12549986  1.0
  Cd  Cd141  1  0.71538583  0.20598250  0.12549986  1.0
  Cd  Cd142  1  0.71538583  0.53931583  0.12549986  1.0
  Cd  Cd143  1  0.71538583  0.87264917  0.12549986  1.0
  Cd  Cd144  1  0.03931583  0.03931583  0.12146986  1.0
  Cd  Cd145  1  0.03931583  0.37264917  0.12146986  1.0
  Cd  Cd146  1  0.03931583  0.70598250  0.12146986  1.0
  Cd  Cd147  1  0.37264917  0.03931583  0.12146986  1.0
  Cd  Cd148  1  0.37264917  0.37264917  0.12146986  1.0
  Cd  Cd149  1  0.37264917  0.70598250  0.12146986  1.0
  Cd  Cd150  1  0.70598250  0.03931583  0.12146986  1.0
  Cd  Cd151  1  0.70598250  0.37264917  0.12146986  1.0
  Cd  Cd152  1  0.70598250  0.70598250  0.12146986  1.0
  Cd  Cd153  1  0.20598250  0.20598250  0.05004129  1.0
  Cd  Cd154  1  0.20598250  0.53931583  0.05004129  1.0
  Cd  Cd155  1  0.20598250  0.87264917  0.05004129  1.0
  Cd  Cd156  1  0.53931583  0.20598250  0.05004129  1.0
  Cd  Cd157  1  0.53931583  0.53931583  0.05004129  1.0
  Cd  Cd158  1  0.53931583  0.87264917  0.05004129  1.0
  Cd  Cd159  1  0.87264917  0.20598250  0.05004129  1.0
  Cd  Cd160  1  0.87264917  0.53931583  0.05004129  1.0
  Cd  Cd161  1  0.87264917  0.87264917  0.05004129  1.0
  Cd  Cd162  1  0.21538583  0.03931583  0.12146986  1.0
  Cd  Cd163  1  0.21538583  0.37264917  0.12146986  1.0
  Cd  Cd164  1  0.21538583  0.70598250  0.12146986  1.0
  Cd  Cd165  1  0.54871917  0.03931583  0.12146986  1.0
  Cd  Cd166  1  0.54871917  0.37264917  0.12146986  1.0
  Cd  Cd167  1  0.54871917  0.70598250  0.12146986  1.0
  Cd  Cd168  1  0.88205250  0.03931583  0.12146986  1.0
  Cd  Cd169  1  0.88205250  0.37264917  0.12146986  1.0
  Cd  Cd170  1  0.88205250  0.70598250  0.12146986  1.0
  Cd  Cd171  1  0.04871917  0.20598250  0.05004129  1.0
  Cd  Cd172  1  0.04871917  0.53931583  0.05004129  1.0
  Cd  Cd173  1  0.04871917  0.87264917  0.05004129  1.0
  Cd  Cd174  1  0.38205250  0.20598250  0.05004129  1.0
  Cd  Cd175  1  0.38205250  0.53931583  0.05004129  1.0
  Cd  Cd176  1  0.38205250  0.87264917  0.05004129  1.0
  Cd  Cd177  1  0.71538583  0.20598250  0.05004129  1.0
  Cd  Cd178  1  0.71538583  0.53931583  0.05004129  1.0
  Cd  Cd179  1  0.71538583  0.87264917  0.05004129  1.0
  Cd  Cd180  1  0.28461417  0.12735083  0.08374057  1.0
  Cd  Cd181  1  0.28461417  0.46068417  0.08374057  1.0
  Cd  Cd182  1  0.28461417  0.79401750  0.08374057  1.0
  Cd  Cd183  1  0.61794750  0.12735083  0.08374057  1.0
  Cd  Cd184  1  0.61794750  0.46068417  0.08374057  1.0
  Cd  Cd185  1  0.61794750  0.79401750  0.08374057  1.0
  Cd  Cd186  1  0.95128083  0.12735083  0.08374057  1.0
  Cd  Cd187  1  0.95128083  0.46068417  0.08374057  1.0
  Cd  Cd188  1  0.95128083  0.79401750  0.08374057  1.0
  Cd  Cd189  1  0.11794750  0.29401750  0.01231200  1.0
  Cd  Cd190  1  0.11794750  0.62735083  0.01231200  1.0
  Cd  Cd191  1  0.11794750  0.96068417  0.01231200  1.0
  Cd  Cd192  1  0.45128083  0.29401750  0.01231200  1.0
  Cd  Cd193  1  0.45128083  0.62735083  0.01231200  1.0
  Cd  Cd194  1  0.45128083  0.96068417  0.01231200  1.0
  Cd  Cd195  1  0.78461417  0.29401750  0.01231200  1.0
  Cd  Cd196  1  0.78461417  0.62735083  0.01231200  1.0
  Cd  Cd197  1  0.78461417  0.96068417  0.01231200  1.0
  Cd  Cd198  1  0.16431583  0.16431583  0.13932700  1.0
  Cd  Cd199  1  0.16431583  0.49764917  0.13932700  1.0
  Cd  Cd200  1  0.16431583  0.83098250  0.13932700  1.0
  Cd  Cd201  1  0.49764917  0.16431583  0.13932700  1.0
  Cd  Cd202  1  0.49764917  0.49764917  0.13932700  1.0
  Cd  Cd203  1  0.49764917  0.83098250  0.13932700  1.0
  Cd  Cd204  1  0.83098250  0.16431583  0.13932700  1.0
  Cd  Cd205  1  0.83098250  0.49764917  0.13932700  1.0
  Cd  Cd206  1  0.83098250  0.83098250  0.13932700  1.0
  Cd  Cd207  1  0.33098250  0.33098250  0.06789843  1.0
  Cd  Cd208  1  0.33098250  0.66431583  0.06789843  1.0
  Cd  Cd209  1  0.33098250  0.99764917  0.06789843  1.0
  Cd  Cd210  1  0.66431583  0.33098250  0.06789843  1.0
  Cd  Cd211  1  0.66431583  0.66431583  0.06789843  1.0
  Cd  Cd212  1  0.66431583  0.99764917  0.06789843  1.0
  Cd  Cd213  1  0.99764917  0.33098250  0.06789843  1.0
  Cd  Cd214  1  0.99764917  0.66431583  0.06789843  1.0
  Cd  Cd215  1  0.99764917  0.99764917  0.06789843  1.0
  Ni  Ni216  1  0.09528700  0.09528700  0.11797421  1.0
  Ni  Ni217  1  0.09528700  0.42862033  0.11797421  1.0
  Ni  Ni218  1  0.09528700  0.76195367  0.11797421  1.0
  Ni  Ni219  1  0.42862033  0.09528700  0.11797421  1.0
  Ni  Ni220  1  0.42862033  0.42862033  0.11797421  1.0
  Ni  Ni221  1  0.42862033  0.76195367  0.11797421  1.0
  Ni  Ni222  1  0.76195367  0.09528700  0.11797421  1.0
  Ni  Ni223  1  0.76195367  0.42862033  0.11797421  1.0
  Ni  Ni224  1  0.76195367  0.76195367  0.11797421  1.0
  Ni  Ni225  1  0.26195367  0.26195367  0.04654564  1.0
  Ni  Ni226  1  0.26195367  0.59528700  0.04654564  1.0
  Ni  Ni227  1  0.26195367  0.92862033  0.04654564  1.0
  Ni  Ni228  1  0.59528700  0.26195367  0.04654564  1.0
  Ni  Ni229  1  0.59528700  0.59528700  0.04654564  1.0
  Ni  Ni230  1  0.59528700  0.92862033  0.04654564  1.0
  Ni  Ni231  1  0.92862033  0.26195367  0.04654564  1.0
  Ni  Ni232  1  0.92862033  0.59528700  0.04654564  1.0
  Ni  Ni233  1  0.92862033  0.92862033  0.04654564  1.0
  Ni  Ni234  1  0.12534233  0.02971300  0.07464879  1.0
  Ni  Ni235  1  0.12534233  0.36304633  0.07464879  1.0
  Ni  Ni236  1  0.12534233  0.69637967  0.07464879  1.0
  Ni  Ni237  1  0.45867567  0.02971300  0.07464879  1.0
  Ni  Ni238  1  0.45867567  0.36304633  0.07464879  1.0
  Ni  Ni239  1  0.45867567  0.69637967  0.07464879  1.0
  Ni  Ni240  1  0.79200900  0.02971300  0.07464879  1.0
  Ni  Ni241  1  0.79200900  0.36304633  0.07464879  1.0
  Ni  Ni242  1  0.79200900  0.69637967  0.07464879  1.0
  Ni  Ni243  1  0.29200900  0.19637967  0.00322021  1.0
  Ni  Ni244  1  0.29200900  0.52971300  0.00322021  1.0
  Ni  Ni245  1  0.29200900  0.86304633  0.00322021  1.0
  Ni  Ni246  1  0.62534233  0.19637967  0.00322021  1.0
  Ni  Ni247  1  0.62534233  0.52971300  0.00322021  1.0
  Ni  Ni248  1  0.62534233  0.86304633  0.00322021  1.0
  Ni  Ni249  1  0.95867567  0.19637967  0.00322021  1.0
  Ni  Ni250  1  0.95867567  0.52971300  0.00322021  1.0
  Ni  Ni251  1  0.95867567  0.86304633  0.00322021  1.0
  Ni  Ni252  1  0.31523167  0.07752767  0.01317279  1.0
  Ni  Ni253  1  0.31523167  0.41086100  0.01317279  1.0
  Ni  Ni254  1  0.31523167  0.74419433  0.01317279  1.0
  Ni  Ni255  1  0.64856500  0.07752767  0.01317279  1.0
  Ni  Ni256  1  0.64856500  0.41086100  0.01317279  1.0
  Ni  Ni257  1  0.64856500  0.74419433  0.01317279  1.0
  Ni  Ni258  1  0.98189833  0.07752767  0.01317279  1.0
  Ni  Ni259  1  0.98189833  0.41086100  0.01317279  1.0
  Ni  Ni260  1  0.98189833  0.74419433  0.01317279  1.0
  Ni  Ni261  1  0.14856500  0.24419433  0.08460136  1.0
  Ni  Ni262  1  0.14856500  0.57752767  0.08460136  1.0
  Ni  Ni263  1  0.14856500  0.91086100  0.08460136  1.0
  Ni  Ni264  1  0.48189833  0.24419433  0.08460136  1.0
  Ni  Ni265  1  0.48189833  0.57752767  0.08460136  1.0
  Ni  Ni266  1  0.48189833  0.91086100  0.08460136  1.0
  Ni  Ni267  1  0.81523167  0.24419433  0.08460136  1.0
  Ni  Ni268  1  0.81523167  0.57752767  0.08460136  1.0
  Ni  Ni269  1  0.81523167  0.91086100  0.08460136  1.0
  Ni  Ni270  1  0.02971300  0.02971300  0.07464879  1.0
  Ni  Ni271  1  0.02971300  0.36304633  0.07464879  1.0
  Ni  Ni272  1  0.02971300  0.69637967  0.07464879  1.0
  Ni  Ni273  1  0.36304633  0.02971300  0.07464879  1.0
  Ni  Ni274  1  0.36304633  0.36304633  0.07464879  1.0
  Ni  Ni275  1  0.36304633  0.69637967  0.07464879  1.0
  Ni  Ni276  1  0.69637967  0.02971300  0.07464879  1.0
  Ni  Ni277  1  0.69637967  0.36304633  0.07464879  1.0
  Ni  Ni278  1  0.69637967  0.69637967  0.07464879  1.0
  Ni  Ni279  1  0.19637967  0.19637967  0.00322021  1.0
  Ni  Ni280  1  0.19637967  0.52971300  0.00322021  1.0
  Ni  Ni281  1  0.19637967  0.86304633  0.00322021  1.0
  Ni  Ni282  1  0.52971300  0.19637967  0.00322021  1.0
  Ni  Ni283  1  0.52971300  0.52971300  0.00322021  1.0
  Ni  Ni284  1  0.52971300  0.86304633  0.00322021  1.0
  Ni  Ni285  1  0.86304633  0.19637967  0.00322021  1.0
  Ni  Ni286  1  0.86304633  0.52971300  0.00322021  1.0
  Ni  Ni287  1  0.86304633  0.86304633  0.00322021  1.0
  Ni  Ni288  1  0.14310167  0.04747233  0.13846621  1.0
  Ni  Ni289  1  0.14310167  0.38080567  0.13846621  1.0
  Ni  Ni290  1  0.14310167  0.71413900  0.13846621  1.0
  Ni  Ni291  1  0.47643500  0.04747233  0.13846621  1.0
  Ni  Ni292  1  0.47643500  0.38080567  0.13846621  1.0
  Ni  Ni293  1  0.47643500  0.71413900  0.13846621  1.0
  Ni  Ni294  1  0.80976833  0.04747233  0.13846621  1.0
  Ni  Ni295  1  0.80976833  0.38080567  0.13846621  1.0
  Ni  Ni296  1  0.80976833  0.71413900  0.13846621  1.0
  Ni  Ni297  1  0.30976833  0.21413900  0.06703764  1.0
  Ni  Ni298  1  0.30976833  0.54747233  0.06703764  1.0
  Ni  Ni299  1  0.30976833  0.88080567  0.06703764  1.0
  Ni  Ni300  1  0.64310167  0.21413900  0.06703764  1.0
  Ni  Ni301  1  0.64310167  0.54747233  0.06703764  1.0
  Ni  Ni302  1  0.64310167  0.88080567  0.06703764  1.0
  Ni  Ni303  1  0.97643500  0.21413900  0.06703764  1.0
  Ni  Ni304  1  0.97643500  0.54747233  0.06703764  1.0
  Ni  Ni305  1  0.97643500  0.88080567  0.06703764  1.0
  Ni  Ni306  1  0.09528700  0.09528700  0.07699021  1.0
  Ni  Ni307  1  0.09528700  0.42862033  0.07699021  1.0
  Ni  Ni308  1  0.09528700  0.76195367  0.07699021  1.0
  Ni  Ni309  1  0.42862033  0.09528700  0.07699021  1.0
  Ni  Ni310  1  0.42862033  0.42862033  0.07699021  1.0
  Ni  Ni311  1  0.42862033  0.76195367  0.07699021  1.0
  Ni  Ni312  1  0.76195367  0.09528700  0.07699021  1.0
  Ni  Ni313  1  0.76195367  0.42862033  0.07699021  1.0
  Ni  Ni314  1  0.76195367  0.76195367  0.07699021  1.0
  Ni  Ni315  1  0.26195367  0.26195367  0.00556164  1.0
  Ni  Ni316  1  0.26195367  0.59528700  0.00556164  1.0
  Ni  Ni317  1  0.26195367  0.92862033  0.00556164  1.0
  Ni  Ni318  1  0.59528700  0.26195367  0.00556164  1.0
  Ni  Ni319  1  0.59528700  0.59528700  0.00556164  1.0
  Ni  Ni320  1  0.59528700  0.92862033  0.00556164  1.0
  Ni  Ni321  1  0.92862033  0.26195367  0.00556164  1.0
  Ni  Ni322  1  0.92862033  0.59528700  0.00556164  1.0
  Ni  Ni323  1  0.92862033  0.92862033  0.00556164  1.0
  Ni  Ni324  1  0.33299100  0.09528700  0.07699021  1.0
  Ni  Ni325  1  0.33299100  0.42862033  0.07699021  1.0
  Ni  Ni326  1  0.33299100  0.76195367  0.07699021  1.0
  Ni  Ni327  1  0.66632433  0.09528700  0.07699021  1.0
  Ni  Ni328  1  0.66632433  0.42862033  0.07699021  1.0
  Ni  Ni329  1  0.66632433  0.76195367  0.07699021  1.0
  Ni  Ni330  1  0.99965767  0.09528700  0.07699021  1.0
  Ni  Ni331  1  0.99965767  0.42862033  0.07699021  1.0
  Ni  Ni332  1  0.99965767  0.76195367  0.07699021  1.0
  Ni  Ni333  1  0.16632433  0.26195367  0.00556164  1.0
  Ni  Ni334  1  0.16632433  0.59528700  0.00556164  1.0
  Ni  Ni335  1  0.16632433  0.92862033  0.00556164  1.0
  Ni  Ni336  1  0.49965767  0.26195367  0.00556164  1.0
  Ni  Ni337  1  0.49965767  0.59528700  0.00556164  1.0
  Ni  Ni338  1  0.49965767  0.92862033  0.00556164  1.0
  Ni  Ni339  1  0.83299100  0.26195367  0.00556164  1.0
  Ni  Ni340  1  0.83299100  0.59528700  0.00556164  1.0
  Ni  Ni341  1  0.83299100  0.92862033  0.00556164  1.0
  Ni  Ni342  1  0.02971300  0.02971300  0.03366479  1.0
  Ni  Ni343  1  0.02971300  0.36304633  0.03366479  1.0
  Ni  Ni344  1  0.02971300  0.69637967  0.03366479  1.0
  Ni  Ni345  1  0.36304633  0.02971300  0.03366479  1.0
  Ni  Ni346  1  0.36304633  0.36304633  0.03366479  1.0
  Ni  Ni347  1  0.36304633  0.69637967  0.03366479  1.0
  Ni  Ni348  1  0.69637967  0.02971300  0.03366479  1.0
  Ni  Ni349  1  0.69637967  0.36304633  0.03366479  1.0
  Ni  Ni350  1  0.69637967  0.69637967  0.03366479  1.0
  Ni  Ni351  1  0.19637967  0.19637967  0.10509336  1.0
  Ni  Ni352  1  0.19637967  0.52971300  0.10509336  1.0
  Ni  Ni353  1  0.19637967  0.86304633  0.10509336  1.0
  Ni  Ni354  1  0.52971300  0.19637967  0.10509336  1.0
  Ni  Ni355  1  0.52971300  0.52971300  0.10509336  1.0
  Ni  Ni356  1  0.52971300  0.86304633  0.10509336  1.0
  Ni  Ni357  1  0.86304633  0.19637967  0.10509336  1.0
  Ni  Ni358  1  0.86304633  0.52971300  0.10509336  1.0
  Ni  Ni359  1  0.86304633  0.86304633  0.10509336  1.0
  Ni  Ni360  1  0.22916667  0.06250000  0.07581950  1.0
  Ni  Ni361  1  0.22916667  0.39583333  0.07581950  1.0
  Ni  Ni362  1  0.22916667  0.72916667  0.07581950  1.0
  Ni  Ni363  1  0.56250000  0.06250000  0.07581950  1.0
  Ni  Ni364  1  0.56250000  0.39583333  0.07581950  1.0
  Ni  Ni365  1  0.56250000  0.72916667  0.07581950  1.0
  Ni  Ni366  1  0.89583333  0.06250000  0.07581950  1.0
  Ni  Ni367  1  0.89583333  0.39583333  0.07581950  1.0
  Ni  Ni368  1  0.89583333  0.72916667  0.07581950  1.0
  Ni  Ni369  1  0.06250000  0.22916667  0.00439093  1.0
  Ni  Ni370  1  0.06250000  0.56250000  0.00439093  1.0
  Ni  Ni371  1  0.06250000  0.89583333  0.00439093  1.0
  Ni  Ni372  1  0.39583333  0.22916667  0.00439093  1.0
  Ni  Ni373  1  0.39583333  0.56250000  0.00439093  1.0
  Ni  Ni374  1  0.39583333  0.89583333  0.00439093  1.0
  Ni  Ni375  1  0.72916667  0.22916667  0.00439093  1.0
  Ni  Ni376  1  0.72916667  0.56250000  0.00439093  1.0
  Ni  Ni377  1  0.72916667  0.89583333  0.00439093  1.0
  Ni  Ni378  1  0.14583333  0.14583333  0.11153379  1.0
  Ni  Ni379  1  0.14583333  0.47916667  0.11153379  1.0
  Ni  Ni380  1  0.14583333  0.81250000  0.11153379  1.0
  Ni  Ni381  1  0.47916667  0.14583333  0.11153379  1.0
  Ni  Ni382  1  0.47916667  0.47916667  0.11153379  1.0
  Ni  Ni383  1  0.47916667  0.81250000  0.11153379  1.0
  Ni  Ni384  1  0.81250000  0.14583333  0.11153379  1.0
  Ni  Ni385  1  0.81250000  0.47916667  0.11153379  1.0
  Ni  Ni386  1  0.81250000  0.81250000  0.11153379  1.0
  Ni  Ni387  1  0.31250000  0.31250000  0.04010521  1.0
  Ni  Ni388  1  0.31250000  0.64583333  0.04010521  1.0
  Ni  Ni389  1  0.31250000  0.97916667  0.04010521  1.0
  Ni  Ni390  1  0.64583333  0.31250000  0.04010521  1.0
  Ni  Ni391  1  0.64583333  0.64583333  0.04010521  1.0
  Ni  Ni392  1  0.64583333  0.97916667  0.04010521  1.0
  Ni  Ni393  1  0.97916667  0.31250000  0.04010521  1.0
  Ni  Ni394  1  0.97916667  0.64583333  0.04010521  1.0
  Ni  Ni395  1  0.97916667  0.97916667  0.04010521  1.0
  Ni  Ni396  1  0.31250000  0.14583333  0.11153379  1.0
  Ni  Ni397  1  0.31250000  0.47916667  0.11153379  1.0
  Ni  Ni398  1  0.31250000  0.81250000  0.11153379  1.0
  Ni  Ni399  1  0.64583333  0.14583333  0.11153379  1.0
  Ni  Ni400  1  0.64583333  0.47916667  0.11153379  1.0
  Ni  Ni401  1  0.64583333  0.81250000  0.11153379  1.0
  Ni  Ni402  1  0.97916667  0.14583333  0.11153379  1.0
  Ni  Ni403  1  0.97916667  0.47916667  0.11153379  1.0
  Ni  Ni404  1  0.97916667  0.81250000  0.11153379  1.0
  Ni  Ni405  1  0.14583333  0.31250000  0.04010521  1.0
  Ni  Ni406  1  0.14583333  0.64583333  0.04010521  1.0
  Ni  Ni407  1  0.14583333  0.97916667  0.04010521  1.0
  Ni  Ni408  1  0.47916667  0.31250000  0.04010521  1.0
  Ni  Ni409  1  0.47916667  0.64583333  0.04010521  1.0
  Ni  Ni410  1  0.47916667  0.97916667  0.04010521  1.0
  Ni  Ni411  1  0.81250000  0.31250000  0.04010521  1.0
  Ni  Ni412  1  0.81250000  0.64583333  0.04010521  1.0
  Ni  Ni413  1  0.81250000  0.97916667  0.04010521  1.0
  Ni  Ni414  1  0.14583333  0.14583333  0.04010521  1.0
  Ni  Ni415  1  0.14583333  0.47916667  0.04010521  1.0
  Ni  Ni416  1  0.14583333  0.81250000  0.04010521  1.0
  Ni  Ni417  1  0.47916667  0.14583333  0.04010521  1.0
  Ni  Ni418  1  0.47916667  0.47916667  0.04010521  1.0
  Ni  Ni419  1  0.47916667  0.81250000  0.04010521  1.0
  Ni  Ni420  1  0.81250000  0.14583333  0.04010521  1.0
  Ni  Ni421  1  0.81250000  0.47916667  0.04010521  1.0
  Ni  Ni422  1  0.81250000  0.81250000  0.04010521  1.0
  Ni  Ni423  1  0.31250000  0.31250000  0.11153379  1.0
  Ni  Ni424  1  0.31250000  0.64583333  0.11153379  1.0
  Ni  Ni425  1  0.31250000  0.97916667  0.11153379  1.0
  Ni  Ni426  1  0.64583333  0.31250000  0.11153379  1.0
  Ni  Ni427  1  0.64583333  0.64583333  0.11153379  1.0
  Ni  Ni428  1  0.64583333  0.97916667  0.11153379  1.0
  Ni  Ni429  1  0.97916667  0.31250000  0.11153379  1.0
  Ni  Ni430  1  0.97916667  0.64583333  0.11153379  1.0
  Ni  Ni431  1  0.97916667  0.97916667  0.11153379  1.0
  Cd  Cd432  1  0.08568417  0.08568417  0.17302629  1.0
  Cd  Cd433  1  0.08568417  0.41901750  0.17302629  1.0
  Cd  Cd434  1  0.08568417  0.75235083  0.17302629  1.0
  Cd  Cd435  1  0.41901750  0.08568417  0.17302629  1.0
  Cd  Cd436  1  0.41901750  0.41901750  0.17302629  1.0
  Cd  Cd437  1  0.41901750  0.75235083  0.17302629  1.0
  Cd  Cd438  1  0.75235083  0.08568417  0.17302629  1.0
  Cd  Cd439  1  0.75235083  0.41901750  0.17302629  1.0
  Cd  Cd440  1  0.75235083  0.75235083  0.17302629  1.0
  Cd  Cd441  1  0.25235083  0.25235083  0.24445486  1.0
  Cd  Cd442  1  0.25235083  0.58568417  0.24445486  1.0
  Cd  Cd443  1  0.25235083  0.91901750  0.24445486  1.0
  Cd  Cd444  1  0.58568417  0.25235083  0.24445486  1.0
  Cd  Cd445  1  0.58568417  0.58568417  0.24445486  1.0
  Cd  Cd446  1  0.58568417  0.91901750  0.24445486  1.0
  Cd  Cd447  1  0.91901750  0.25235083  0.24445486  1.0
  Cd  Cd448  1  0.91901750  0.58568417  0.24445486  1.0
  Cd  Cd449  1  0.91901750  0.91901750  0.24445486  1.0
  Cd  Cd450  1  0.12735083  0.12735083  0.22659771  1.0
  Cd  Cd451  1  0.12735083  0.46068417  0.22659771  1.0
  Cd  Cd452  1  0.12735083  0.79401750  0.22659771  1.0
  Cd  Cd453  1  0.46068417  0.12735083  0.22659771  1.0
  Cd  Cd454  1  0.46068417  0.46068417  0.22659771  1.0
  Cd  Cd455  1  0.46068417  0.79401750  0.22659771  1.0
  Cd  Cd456  1  0.79401750  0.12735083  0.22659771  1.0
  Cd  Cd457  1  0.79401750  0.46068417  0.22659771  1.0
  Cd  Cd458  1  0.79401750  0.79401750  0.22659771  1.0
  Cd  Cd459  1  0.29401750  0.29401750  0.15516914  1.0
  Cd  Cd460  1  0.29401750  0.62735083  0.15516914  1.0
  Cd  Cd461  1  0.29401750  0.96068417  0.15516914  1.0
  Cd  Cd462  1  0.62735083  0.29401750  0.15516914  1.0
  Cd  Cd463  1  0.62735083  0.62735083  0.15516914  1.0
  Cd  Cd464  1  0.62735083  0.96068417  0.15516914  1.0
  Cd  Cd465  1  0.96068417  0.29401750  0.15516914  1.0
  Cd  Cd466  1  0.96068417  0.62735083  0.15516914  1.0
  Cd  Cd467  1  0.96068417  0.96068417  0.15516914  1.0
  Cd  Cd468  1  0.00705250  0.16431583  0.21478557  1.0
  Cd  Cd469  1  0.00705250  0.49764917  0.21478557  1.0
  Cd  Cd470  1  0.00705250  0.83098250  0.21478557  1.0
  Cd  Cd471  1  0.34038583  0.16431583  0.21478557  1.0
  Cd  Cd472  1  0.34038583  0.49764917  0.21478557  1.0
  Cd  Cd473  1  0.34038583  0.83098250  0.21478557  1.0
  Cd  Cd474  1  0.67371917  0.16431583  0.21478557  1.0
  Cd  Cd475  1  0.67371917  0.49764917  0.21478557  1.0
  Cd  Cd476  1  0.67371917  0.83098250  0.21478557  1.0
  Cd  Cd477  1  0.17371917  0.33098250  0.14335700  1.0
  Cd  Cd478  1  0.17371917  0.66431583  0.14335700  1.0
  Cd  Cd479  1  0.17371917  0.99764917  0.14335700  1.0
  Cd  Cd480  1  0.50705250  0.33098250  0.14335700  1.0
  Cd  Cd481  1  0.50705250  0.66431583  0.14335700  1.0
  Cd  Cd482  1  0.50705250  0.99764917  0.14335700  1.0
  Cd  Cd483  1  0.84038583  0.33098250  0.14335700  1.0
  Cd  Cd484  1  0.84038583  0.66431583  0.14335700  1.0
  Cd  Cd485  1  0.84038583  0.99764917  0.14335700  1.0
  Cd  Cd486  1  0.24294750  0.08568417  0.17302629  1.0
  Cd  Cd487  1  0.24294750  0.41901750  0.17302629  1.0
  Cd  Cd488  1  0.24294750  0.75235083  0.17302629  1.0
  Cd  Cd489  1  0.57628083  0.08568417  0.17302629  1.0
  Cd  Cd490  1  0.57628083  0.41901750  0.17302629  1.0
  Cd  Cd491  1  0.57628083  0.75235083  0.17302629  1.0
  Cd  Cd492  1  0.90961417  0.08568417  0.17302629  1.0
  Cd  Cd493  1  0.90961417  0.41901750  0.17302629  1.0
  Cd  Cd494  1  0.90961417  0.75235083  0.17302629  1.0
  Cd  Cd495  1  0.07628083  0.25235083  0.24445486  1.0
  Cd  Cd496  1  0.07628083  0.58568417  0.24445486  1.0
  Cd  Cd497  1  0.07628083  0.91901750  0.24445486  1.0
  Cd  Cd498  1  0.40961417  0.25235083  0.24445486  1.0
  Cd  Cd499  1  0.40961417  0.58568417  0.24445486  1.0
  Cd  Cd500  1  0.40961417  0.91901750  0.24445486  1.0
  Cd  Cd501  1  0.74294750  0.25235083  0.24445486  1.0
  Cd  Cd502  1  0.74294750  0.58568417  0.24445486  1.0
  Cd  Cd503  1  0.74294750  0.91901750  0.24445486  1.0
  Cd  Cd504  1  0.00705250  0.16431583  0.28218414  1.0
  Cd  Cd505  1  0.00705250  0.49764917  0.28218414  1.0
  Cd  Cd506  1  0.00705250  0.83098250  0.28218414  1.0
  Cd  Cd507  1  0.34038583  0.16431583  0.28218414  1.0
  Cd  Cd508  1  0.34038583  0.49764917  0.28218414  1.0
  Cd  Cd509  1  0.34038583  0.83098250  0.28218414  1.0
  Cd  Cd510  1  0.67371917  0.16431583  0.28218414  1.0
  Cd  Cd511  1  0.67371917  0.49764917  0.28218414  1.0
  Cd  Cd512  1  0.67371917  0.83098250  0.28218414  1.0
  Cd  Cd513  1  0.17371917  0.33098250  0.21075557  1.0
  Cd  Cd514  1  0.17371917  0.66431583  0.21075557  1.0
  Cd  Cd515  1  0.17371917  0.99764917  0.21075557  1.0
  Cd  Cd516  1  0.50705250  0.33098250  0.21075557  1.0
  Cd  Cd517  1  0.50705250  0.66431583  0.21075557  1.0
  Cd  Cd518  1  0.50705250  0.99764917  0.21075557  1.0
  Cd  Cd519  1  0.84038583  0.33098250  0.21075557  1.0
  Cd  Cd520  1  0.84038583  0.66431583  0.21075557  1.0
  Cd  Cd521  1  0.84038583  0.99764917  0.21075557  1.0
  Cd  Cd522  1  0.24294750  0.08568417  0.24042486  1.0
  Cd  Cd523  1  0.24294750  0.41901750  0.24042486  1.0
  Cd  Cd524  1  0.24294750  0.75235083  0.24042486  1.0
  Cd  Cd525  1  0.57628083  0.08568417  0.24042486  1.0
  Cd  Cd526  1  0.57628083  0.41901750  0.24042486  1.0
  Cd  Cd527  1  0.57628083  0.75235083  0.24042486  1.0
  Cd  Cd528  1  0.90961417  0.08568417  0.24042486  1.0
  Cd  Cd529  1  0.90961417  0.41901750  0.24042486  1.0
  Cd  Cd530  1  0.90961417  0.75235083  0.24042486  1.0
  Cd  Cd531  1  0.07628083  0.25235083  0.16899629  1.0
  Cd  Cd532  1  0.07628083  0.58568417  0.16899629  1.0
  Cd  Cd533  1  0.07628083  0.91901750  0.16899629  1.0
  Cd  Cd534  1  0.40961417  0.25235083  0.16899629  1.0
  Cd  Cd535  1  0.40961417  0.58568417  0.16899629  1.0
  Cd  Cd536  1  0.40961417  0.91901750  0.16899629  1.0
  Cd  Cd537  1  0.74294750  0.25235083  0.16899629  1.0
  Cd  Cd538  1  0.74294750  0.58568417  0.16899629  1.0
  Cd  Cd539  1  0.74294750  0.91901750  0.16899629  1.0
  Cd  Cd540  1  0.28461417  0.12735083  0.15113914  1.0
  Cd  Cd541  1  0.28461417  0.46068417  0.15113914  1.0
  Cd  Cd542  1  0.28461417  0.79401750  0.15113914  1.0
  Cd  Cd543  1  0.61794750  0.12735083  0.15113914  1.0
  Cd  Cd544  1  0.61794750  0.46068417  0.15113914  1.0
  Cd  Cd545  1  0.61794750  0.79401750  0.15113914  1.0
  Cd  Cd546  1  0.95128083  0.12735083  0.15113914  1.0
  Cd  Cd547  1  0.95128083  0.46068417  0.15113914  1.0
  Cd  Cd548  1  0.95128083  0.79401750  0.15113914  1.0
  Cd  Cd549  1  0.11794750  0.29401750  0.22256771  1.0
  Cd  Cd550  1  0.11794750  0.62735083  0.22256771  1.0
  Cd  Cd551  1  0.11794750  0.96068417  0.22256771  1.0
  Cd  Cd552  1  0.45128083  0.29401750  0.22256771  1.0
  Cd  Cd553  1  0.45128083  0.62735083  0.22256771  1.0
  Cd  Cd554  1  0.45128083  0.96068417  0.22256771  1.0
  Cd  Cd555  1  0.78461417  0.29401750  0.22256771  1.0
  Cd  Cd556  1  0.78461417  0.62735083  0.22256771  1.0
  Cd  Cd557  1  0.78461417  0.96068417  0.22256771  1.0
  Cd  Cd558  1  0.21538583  0.03931583  0.19692843  1.0
  Cd  Cd559  1  0.21538583  0.37264917  0.19692843  1.0
  Cd  Cd560  1  0.21538583  0.70598250  0.19692843  1.0
  Cd  Cd561  1  0.54871917  0.03931583  0.19692843  1.0
  Cd  Cd562  1  0.54871917  0.37264917  0.19692843  1.0
  Cd  Cd563  1  0.54871917  0.70598250  0.19692843  1.0
  Cd  Cd564  1  0.88205250  0.03931583  0.19692843  1.0
  Cd  Cd565  1  0.88205250  0.37264917  0.19692843  1.0
  Cd  Cd566  1  0.88205250  0.70598250  0.19692843  1.0
  Cd  Cd567  1  0.04871917  0.20598250  0.26835700  1.0
  Cd  Cd568  1  0.04871917  0.53931583  0.26835700  1.0
  Cd  Cd569  1  0.04871917  0.87264917  0.26835700  1.0
  Cd  Cd570  1  0.38205250  0.20598250  0.26835700  1.0
  Cd  Cd571  1  0.38205250  0.53931583  0.26835700  1.0
  Cd  Cd572  1  0.38205250  0.87264917  0.26835700  1.0
  Cd  Cd573  1  0.71538583  0.20598250  0.26835700  1.0
  Cd  Cd574  1  0.71538583  0.53931583  0.26835700  1.0
  Cd  Cd575  1  0.71538583  0.87264917  0.26835700  1.0
  Cd  Cd576  1  0.03931583  0.03931583  0.26432700  1.0
  Cd  Cd577  1  0.03931583  0.37264917  0.26432700  1.0
  Cd  Cd578  1  0.03931583  0.70598250  0.26432700  1.0
  Cd  Cd579  1  0.37264917  0.03931583  0.26432700  1.0
  Cd  Cd580  1  0.37264917  0.37264917  0.26432700  1.0
  Cd  Cd581  1  0.37264917  0.70598250  0.26432700  1.0
  Cd  Cd582  1  0.70598250  0.03931583  0.26432700  1.0
  Cd  Cd583  1  0.70598250  0.37264917  0.26432700  1.0
  Cd  Cd584  1  0.70598250  0.70598250  0.26432700  1.0
  Cd  Cd585  1  0.20598250  0.20598250  0.19289843  1.0
  Cd  Cd586  1  0.20598250  0.53931583  0.19289843  1.0
  Cd  Cd587  1  0.20598250  0.87264917  0.19289843  1.0
  Cd  Cd588  1  0.53931583  0.20598250  0.19289843  1.0
  Cd  Cd589  1  0.53931583  0.53931583  0.19289843  1.0
  Cd  Cd590  1  0.53931583  0.87264917  0.19289843  1.0
  Cd  Cd591  1  0.87264917  0.20598250  0.19289843  1.0
  Cd  Cd592  1  0.87264917  0.53931583  0.19289843  1.0
  Cd  Cd593  1  0.87264917  0.87264917  0.19289843  1.0
  Cd  Cd594  1  0.21538583  0.03931583  0.26432700  1.0
  Cd  Cd595  1  0.21538583  0.37264917  0.26432700  1.0
  Cd  Cd596  1  0.21538583  0.70598250  0.26432700  1.0
  Cd  Cd597  1  0.54871917  0.03931583  0.26432700  1.0
  Cd  Cd598  1  0.54871917  0.37264917  0.26432700  1.0
  Cd  Cd599  1  0.54871917  0.70598250  0.26432700  1.0
  Cd  Cd600  1  0.88205250  0.03931583  0.26432700  1.0
  Cd  Cd601  1  0.88205250  0.37264917  0.26432700  1.0
  Cd  Cd602  1  0.88205250  0.70598250  0.26432700  1.0
  Cd  Cd603  1  0.04871917  0.20598250  0.19289843  1.0
  Cd  Cd604  1  0.04871917  0.53931583  0.19289843  1.0
  Cd  Cd605  1  0.04871917  0.87264917  0.19289843  1.0
  Cd  Cd606  1  0.38205250  0.20598250  0.19289843  1.0
  Cd  Cd607  1  0.38205250  0.53931583  0.19289843  1.0
  Cd  Cd608  1  0.38205250  0.87264917  0.19289843  1.0
  Cd  Cd609  1  0.71538583  0.20598250  0.19289843  1.0
  Cd  Cd610  1  0.71538583  0.53931583  0.19289843  1.0
  Cd  Cd611  1  0.71538583  0.87264917  0.19289843  1.0
  Cd  Cd612  1  0.28461417  0.12735083  0.22659771  1.0
  Cd  Cd613  1  0.28461417  0.46068417  0.22659771  1.0
  Cd  Cd614  1  0.28461417  0.79401750  0.22659771  1.0
  Cd  Cd615  1  0.61794750  0.12735083  0.22659771  1.0
  Cd  Cd616  1  0.61794750  0.46068417  0.22659771  1.0
  Cd  Cd617  1  0.61794750  0.79401750  0.22659771  1.0
  Cd  Cd618  1  0.95128083  0.12735083  0.22659771  1.0
  Cd  Cd619  1  0.95128083  0.46068417  0.22659771  1.0
  Cd  Cd620  1  0.95128083  0.79401750  0.22659771  1.0
  Cd  Cd621  1  0.11794750  0.29401750  0.15516914  1.0
  Cd  Cd622  1  0.11794750  0.62735083  0.15516914  1.0
  Cd  Cd623  1  0.11794750  0.96068417  0.15516914  1.0
  Cd  Cd624  1  0.45128083  0.29401750  0.15516914  1.0
  Cd  Cd625  1  0.45128083  0.62735083  0.15516914  1.0
  Cd  Cd626  1  0.45128083  0.96068417  0.15516914  1.0
  Cd  Cd627  1  0.78461417  0.29401750  0.15516914  1.0
  Cd  Cd628  1  0.78461417  0.62735083  0.15516914  1.0
  Cd  Cd629  1  0.78461417  0.96068417  0.15516914  1.0
  Cd  Cd630  1  0.16431583  0.16431583  0.28218414  1.0
  Cd  Cd631  1  0.16431583  0.49764917  0.28218414  1.0
  Cd  Cd632  1  0.16431583  0.83098250  0.28218414  1.0
  Cd  Cd633  1  0.49764917  0.16431583  0.28218414  1.0
  Cd  Cd634  1  0.49764917  0.49764917  0.28218414  1.0
  Cd  Cd635  1  0.49764917  0.83098250  0.28218414  1.0
  Cd  Cd636  1  0.83098250  0.16431583  0.28218414  1.0
  Cd  Cd637  1  0.83098250  0.49764917  0.28218414  1.0
  Cd  Cd638  1  0.83098250  0.83098250  0.28218414  1.0
  Cd  Cd639  1  0.33098250  0.33098250  0.21075557  1.0
  Cd  Cd640  1  0.33098250  0.66431583  0.21075557  1.0
  Cd  Cd641  1  0.33098250  0.99764917  0.21075557  1.0
  Cd  Cd642  1  0.66431583  0.33098250  0.21075557  1.0
  Cd  Cd643  1  0.66431583  0.66431583  0.21075557  1.0
  Cd  Cd644  1  0.66431583  0.99764917  0.21075557  1.0
  Cd  Cd645  1  0.99764917  0.33098250  0.21075557  1.0
  Cd  Cd646  1  0.99764917  0.66431583  0.21075557  1.0
  Cd  Cd647  1  0.99764917  0.99764917  0.21075557  1.0
  Ni  Ni648  1  0.09528700  0.09528700  0.26083136  1.0
  Ni  Ni649  1  0.09528700  0.42862033  0.26083136  1.0
  Ni  Ni650  1  0.09528700  0.76195367  0.26083136  1.0
  Ni  Ni651  1  0.42862033  0.09528700  0.26083136  1.0
  Ni  Ni652  1  0.42862033  0.42862033  0.26083136  1.0
  Ni  Ni653  1  0.42862033  0.76195367  0.26083136  1.0
  Ni  Ni654  1  0.76195367  0.09528700  0.26083136  1.0
  Ni  Ni655  1  0.76195367  0.42862033  0.26083136  1.0
  Ni  Ni656  1  0.76195367  0.76195367  0.26083136  1.0
  Ni  Ni657  1  0.26195367  0.26195367  0.18940279  1.0
  Ni  Ni658  1  0.26195367  0.59528700  0.18940279  1.0
  Ni  Ni659  1  0.26195367  0.92862033  0.18940279  1.0
  Ni  Ni660  1  0.59528700  0.26195367  0.18940279  1.0
  Ni  Ni661  1  0.59528700  0.59528700  0.18940279  1.0
  Ni  Ni662  1  0.59528700  0.92862033  0.18940279  1.0
  Ni  Ni663  1  0.92862033  0.26195367  0.18940279  1.0
  Ni  Ni664  1  0.92862033  0.59528700  0.18940279  1.0
  Ni  Ni665  1  0.92862033  0.92862033  0.18940279  1.0
  Ni  Ni666  1  0.12534233  0.02971300  0.21750593  1.0
  Ni  Ni667  1  0.12534233  0.36304633  0.21750593  1.0
  Ni  Ni668  1  0.12534233  0.69637967  0.21750593  1.0
  Ni  Ni669  1  0.45867567  0.02971300  0.21750593  1.0
  Ni  Ni670  1  0.45867567  0.36304633  0.21750593  1.0
  Ni  Ni671  1  0.45867567  0.69637967  0.21750593  1.0
  Ni  Ni672  1  0.79200900  0.02971300  0.21750593  1.0
  Ni  Ni673  1  0.79200900  0.36304633  0.21750593  1.0
  Ni  Ni674  1  0.79200900  0.69637967  0.21750593  1.0
  Ni  Ni675  1  0.29200900  0.19637967  0.14607736  1.0
  Ni  Ni676  1  0.29200900  0.52971300  0.14607736  1.0
  Ni  Ni677  1  0.29200900  0.86304633  0.14607736  1.0
  Ni  Ni678  1  0.62534233  0.19637967  0.14607736  1.0
  Ni  Ni679  1  0.62534233  0.52971300  0.14607736  1.0
  Ni  Ni680  1  0.62534233  0.86304633  0.14607736  1.0
  Ni  Ni681  1  0.95867567  0.19637967  0.14607736  1.0
  Ni  Ni682  1  0.95867567  0.52971300  0.14607736  1.0
  Ni  Ni683  1  0.95867567  0.86304633  0.14607736  1.0
  Ni  Ni684  1  0.31523167  0.07752767  0.15602993  1.0
  Ni  Ni685  1  0.31523167  0.41086100  0.15602993  1.0
  Ni  Ni686  1  0.31523167  0.74419433  0.15602993  1.0
  Ni  Ni687  1  0.64856500  0.07752767  0.15602993  1.0
  Ni  Ni688  1  0.64856500  0.41086100  0.15602993  1.0
  Ni  Ni689  1  0.64856500  0.74419433  0.15602993  1.0
  Ni  Ni690  1  0.98189833  0.07752767  0.15602993  1.0
  Ni  Ni691  1  0.98189833  0.41086100  0.15602993  1.0
  Ni  Ni692  1  0.98189833  0.74419433  0.15602993  1.0
  Ni  Ni693  1  0.14856500  0.24419433  0.22745850  1.0
  Ni  Ni694  1  0.14856500  0.57752767  0.22745850  1.0
  Ni  Ni695  1  0.14856500  0.91086100  0.22745850  1.0
  Ni  Ni696  1  0.48189833  0.24419433  0.22745850  1.0
  Ni  Ni697  1  0.48189833  0.57752767  0.22745850  1.0
  Ni  Ni698  1  0.48189833  0.91086100  0.22745850  1.0
  Ni  Ni699  1  0.81523167  0.24419433  0.22745850  1.0
  Ni  Ni700  1  0.81523167  0.57752767  0.22745850  1.0
  Ni  Ni701  1  0.81523167  0.91086100  0.22745850  1.0
  Ni  Ni702  1  0.02971300  0.02971300  0.21750593  1.0
  Ni  Ni703  1  0.02971300  0.36304633  0.21750593  1.0
  Ni  Ni704  1  0.02971300  0.69637967  0.21750593  1.0
  Ni  Ni705  1  0.36304633  0.02971300  0.21750593  1.0
  Ni  Ni706  1  0.36304633  0.36304633  0.21750593  1.0
  Ni  Ni707  1  0.36304633  0.69637967  0.21750593  1.0
  Ni  Ni708  1  0.69637967  0.02971300  0.21750593  1.0
  Ni  Ni709  1  0.69637967  0.36304633  0.21750593  1.0
  Ni  Ni710  1  0.69637967  0.69637967  0.21750593  1.0
  Ni  Ni711  1  0.19637967  0.19637967  0.14607736  1.0
  Ni  Ni712  1  0.19637967  0.52971300  0.14607736  1.0
  Ni  Ni713  1  0.19637967  0.86304633  0.14607736  1.0
  Ni  Ni714  1  0.52971300  0.19637967  0.14607736  1.0
  Ni  Ni715  1  0.52971300  0.52971300  0.14607736  1.0
  Ni  Ni716  1  0.52971300  0.86304633  0.14607736  1.0
  Ni  Ni717  1  0.86304633  0.19637967  0.14607736  1.0
  Ni  Ni718  1  0.86304633  0.52971300  0.14607736  1.0
  Ni  Ni719  1  0.86304633  0.86304633  0.14607736  1.0
  Ni  Ni720  1  0.14310167  0.04747233  0.28132336  1.0
  Ni  Ni721  1  0.14310167  0.38080567  0.28132336  1.0
  Ni  Ni722  1  0.14310167  0.71413900  0.28132336  1.0
  Ni  Ni723  1  0.47643500  0.04747233  0.28132336  1.0
  Ni  Ni724  1  0.47643500  0.38080567  0.28132336  1.0
  Ni  Ni725  1  0.47643500  0.71413900  0.28132336  1.0
  Ni  Ni726  1  0.80976833  0.04747233  0.28132336  1.0
  Ni  Ni727  1  0.80976833  0.38080567  0.28132336  1.0
  Ni  Ni728  1  0.80976833  0.71413900  0.28132336  1.0
  Ni  Ni729  1  0.30976833  0.21413900  0.20989479  1.0
  Ni  Ni730  1  0.30976833  0.54747233  0.20989479  1.0
  Ni  Ni731  1  0.30976833  0.88080567  0.20989479  1.0
  Ni  Ni732  1  0.64310167  0.21413900  0.20989479  1.0
  Ni  Ni733  1  0.64310167  0.54747233  0.20989479  1.0
  Ni  Ni734  1  0.64310167  0.88080567  0.20989479  1.0
  Ni  Ni735  1  0.97643500  0.21413900  0.20989479  1.0
  Ni  Ni736  1  0.97643500  0.54747233  0.20989479  1.0
  Ni  Ni737  1  0.97643500  0.88080567  0.20989479  1.0
  Ni  Ni738  1  0.09528700  0.09528700  0.21984736  1.0
  Ni  Ni739  1  0.09528700  0.42862033  0.21984736  1.0
  Ni  Ni740  1  0.09528700  0.76195367  0.21984736  1.0
  Ni  Ni741  1  0.42862033  0.09528700  0.21984736  1.0
  Ni  Ni742  1  0.42862033  0.42862033  0.21984736  1.0
  Ni  Ni743  1  0.42862033  0.76195367  0.21984736  1.0
  Ni  Ni744  1  0.76195367  0.09528700  0.21984736  1.0
  Ni  Ni745  1  0.76195367  0.42862033  0.21984736  1.0
  Ni  Ni746  1  0.76195367  0.76195367  0.21984736  1.0
  Ni  Ni747  1  0.26195367  0.26195367  0.14841879  1.0
  Ni  Ni748  1  0.26195367  0.59528700  0.14841879  1.0
  Ni  Ni749  1  0.26195367  0.92862033  0.14841879  1.0
  Ni  Ni750  1  0.59528700  0.26195367  0.14841879  1.0
  Ni  Ni751  1  0.59528700  0.59528700  0.14841879  1.0
  Ni  Ni752  1  0.59528700  0.92862033  0.14841879  1.0
  Ni  Ni753  1  0.92862033  0.26195367  0.14841879  1.0
  Ni  Ni754  1  0.92862033  0.59528700  0.14841879  1.0
  Ni  Ni755  1  0.92862033  0.92862033  0.14841879  1.0
  Ni  Ni756  1  0.33299100  0.09528700  0.21984736  1.0
  Ni  Ni757  1  0.33299100  0.42862033  0.21984736  1.0
  Ni  Ni758  1  0.33299100  0.76195367  0.21984736  1.0
  Ni  Ni759  1  0.66632433  0.09528700  0.21984736  1.0
  Ni  Ni760  1  0.66632433  0.42862033  0.21984736  1.0
  Ni  Ni761  1  0.66632433  0.76195367  0.21984736  1.0
  Ni  Ni762  1  0.99965767  0.09528700  0.21984736  1.0
  Ni  Ni763  1  0.99965767  0.42862033  0.21984736  1.0
  Ni  Ni764  1  0.99965767  0.76195367  0.21984736  1.0
  Ni  Ni765  1  0.16632433  0.26195367  0.14841879  1.0
  Ni  Ni766  1  0.16632433  0.59528700  0.14841879  1.0
  Ni  Ni767  1  0.16632433  0.92862033  0.14841879  1.0
  Ni  Ni768  1  0.49965767  0.26195367  0.14841879  1.0
  Ni  Ni769  1  0.49965767  0.59528700  0.14841879  1.0
  Ni  Ni770  1  0.49965767  0.92862033  0.14841879  1.0
  Ni  Ni771  1  0.83299100  0.26195367  0.14841879  1.0
  Ni  Ni772  1  0.83299100  0.59528700  0.14841879  1.0
  Ni  Ni773  1  0.83299100  0.92862033  0.14841879  1.0
  Ni  Ni774  1  0.02971300  0.02971300  0.17652193  1.0
  Ni  Ni775  1  0.02971300  0.36304633  0.17652193  1.0
  Ni  Ni776  1  0.02971300  0.69637967  0.17652193  1.0
  Ni  Ni777  1  0.36304633  0.02971300  0.17652193  1.0
  Ni  Ni778  1  0.36304633  0.36304633  0.17652193  1.0
  Ni  Ni779  1  0.36304633  0.69637967  0.17652193  1.0
  Ni  Ni780  1  0.69637967  0.02971300  0.17652193  1.0
  Ni  Ni781  1  0.69637967  0.36304633  0.17652193  1.0
  Ni  Ni782  1  0.69637967  0.69637967  0.17652193  1.0
  Ni  Ni783  1  0.19637967  0.19637967  0.24795050  1.0
  Ni  Ni784  1  0.19637967  0.52971300  0.24795050  1.0
  Ni  Ni785  1  0.19637967  0.86304633  0.24795050  1.0
  Ni  Ni786  1  0.52971300  0.19637967  0.24795050  1.0
  Ni  Ni787  1  0.52971300  0.52971300  0.24795050  1.0
  Ni  Ni788  1  0.52971300  0.86304633  0.24795050  1.0
  Ni  Ni789  1  0.86304633  0.19637967  0.24795050  1.0
  Ni  Ni790  1  0.86304633  0.52971300  0.24795050  1.0
  Ni  Ni791  1  0.86304633  0.86304633  0.24795050  1.0
  Ni  Ni792  1  0.22916667  0.06250000  0.21867664  1.0
  Ni  Ni793  1  0.22916667  0.39583333  0.21867664  1.0
  Ni  Ni794  1  0.22916667  0.72916667  0.21867664  1.0
  Ni  Ni795  1  0.56250000  0.06250000  0.21867664  1.0
  Ni  Ni796  1  0.56250000  0.39583333  0.21867664  1.0
  Ni  Ni797  1  0.56250000  0.72916667  0.21867664  1.0
  Ni  Ni798  1  0.89583333  0.06250000  0.21867664  1.0
  Ni  Ni799  1  0.89583333  0.39583333  0.21867664  1.0
  Ni  Ni800  1  0.89583333  0.72916667  0.21867664  1.0
  Ni  Ni801  1  0.06250000  0.22916667  0.14724807  1.0
  Ni  Ni802  1  0.06250000  0.56250000  0.14724807  1.0
  Ni  Ni803  1  0.06250000  0.89583333  0.14724807  1.0
  Ni  Ni804  1  0.39583333  0.22916667  0.14724807  1.0
  Ni  Ni805  1  0.39583333  0.56250000  0.14724807  1.0
  Ni  Ni806  1  0.39583333  0.89583333  0.14724807  1.0
  Ni  Ni807  1  0.72916667  0.22916667  0.14724807  1.0
  Ni  Ni808  1  0.72916667  0.56250000  0.14724807  1.0
  Ni  Ni809  1  0.72916667  0.89583333  0.14724807  1.0
  Ni  Ni810  1  0.14583333  0.14583333  0.25439093  1.0
  Ni  Ni811  1  0.14583333  0.47916667  0.25439093  1.0
  Ni  Ni812  1  0.14583333  0.81250000  0.25439093  1.0
  Ni  Ni813  1  0.47916667  0.14583333  0.25439093  1.0
  Ni  Ni814  1  0.47916667  0.47916667  0.25439093  1.0
  Ni  Ni815  1  0.47916667  0.81250000  0.25439093  1.0
  Ni  Ni816  1  0.81250000  0.14583333  0.25439093  1.0
  Ni  Ni817  1  0.81250000  0.47916667  0.25439093  1.0
  Ni  Ni818  1  0.81250000  0.81250000  0.25439093  1.0
  Ni  Ni819  1  0.31250000  0.31250000  0.18296236  1.0
  Ni  Ni820  1  0.31250000  0.64583333  0.18296236  1.0
  Ni  Ni821  1  0.31250000  0.97916667  0.18296236  1.0
  Ni  Ni822  1  0.64583333  0.31250000  0.18296236  1.0
  Ni  Ni823  1  0.64583333  0.64583333  0.18296236  1.0
  Ni  Ni824  1  0.64583333  0.97916667  0.18296236  1.0
  Ni  Ni825  1  0.97916667  0.31250000  0.18296236  1.0
  Ni  Ni826  1  0.97916667  0.64583333  0.18296236  1.0
  Ni  Ni827  1  0.97916667  0.97916667  0.18296236  1.0
  Ni  Ni828  1  0.31250000  0.14583333  0.25439093  1.0
  Ni  Ni829  1  0.31250000  0.47916667  0.25439093  1.0
  Ni  Ni830  1  0.31250000  0.81250000  0.25439093  1.0
  Ni  Ni831  1  0.64583333  0.14583333  0.25439093  1.0
  Ni  Ni832  1  0.64583333  0.47916667  0.25439093  1.0
  Ni  Ni833  1  0.64583333  0.81250000  0.25439093  1.0
  Ni  Ni834  1  0.97916667  0.14583333  0.25439093  1.0
  Ni  Ni835  1  0.97916667  0.47916667  0.25439093  1.0
  Ni  Ni836  1  0.97916667  0.81250000  0.25439093  1.0
  Ni  Ni837  1  0.14583333  0.31250000  0.18296236  1.0
  Ni  Ni838  1  0.14583333  0.64583333  0.18296236  1.0
  Ni  Ni839  1  0.14583333  0.97916667  0.18296236  1.0
  Ni  Ni840  1  0.47916667  0.31250000  0.18296236  1.0
  Ni  Ni841  1  0.47916667  0.64583333  0.18296236  1.0
  Ni  Ni842  1  0.47916667  0.97916667  0.18296236  1.0
  Ni  Ni843  1  0.81250000  0.31250000  0.18296236  1.0
  Ni  Ni844  1  0.81250000  0.64583333  0.18296236  1.0
  Ni  Ni845  1  0.81250000  0.97916667  0.18296236  1.0
  Ni  Ni846  1  0.14583333  0.14583333  0.18296236  1.0
  Ni  Ni847  1  0.14583333  0.47916667  0.18296236  1.0
  Ni  Ni848  1  0.14583333  0.81250000  0.18296236  1.0
  Ni  Ni849  1  0.47916667  0.14583333  0.18296236  1.0
  Ni  Ni850  1  0.47916667  0.47916667  0.18296236  1.0
  Ni  Ni851  1  0.47916667  0.81250000  0.18296236  1.0
  Ni  Ni852  1  0.81250000  0.14583333  0.18296236  1.0
  Ni  Ni853  1  0.81250000  0.47916667  0.18296236  1.0
  Ni  Ni854  1  0.81250000  0.81250000  0.18296236  1.0
  Ni  Ni855  1  0.31250000  0.31250000  0.25439093  1.0
  Ni  Ni856  1  0.31250000  0.64583333  0.25439093  1.0
  Ni  Ni857  1  0.31250000  0.97916667  0.25439093  1.0
  Ni  Ni858  1  0.64583333  0.31250000  0.25439093  1.0
  Ni  Ni859  1  0.64583333  0.64583333  0.25439093  1.0
  Ni  Ni860  1  0.64583333  0.97916667  0.25439093  1.0
  Ni  Ni861  1  0.97916667  0.31250000  0.25439093  1.0
  Ni  Ni862  1  0.97916667  0.64583333  0.25439093  1.0
  Ni  Ni863  1  0.97916667  0.97916667  0.25439093  1.0
  Cd  Cd864  1  0.08568417  0.08568417  0.31588343  1.0
  Cd  Cd865  1  0.08568417  0.41901750  0.31588343  1.0
  Cd  Cd866  1  0.08568417  0.75235083  0.31588343  1.0
  Cd  Cd867  1  0.41901750  0.08568417  0.31588343  1.0
  Cd  Cd868  1  0.41901750  0.41901750  0.31588343  1.0
  Cd  Cd869  1  0.41901750  0.75235083  0.31588343  1.0
  Cd  Cd870  1  0.75235083  0.08568417  0.31588343  1.0
  Cd  Cd871  1  0.75235083  0.41901750  0.31588343  1.0
  Cd  Cd872  1  0.75235083  0.75235083  0.31588343  1.0
  Cd  Cd873  1  0.25235083  0.25235083  0.38731200  1.0
  Cd  Cd874  1  0.25235083  0.58568417  0.38731200  1.0
  Cd  Cd875  1  0.25235083  0.91901750  0.38731200  1.0
  Cd  Cd876  1  0.58568417  0.25235083  0.38731200  1.0
  Cd  Cd877  1  0.58568417  0.58568417  0.38731200  1.0
  Cd  Cd878  1  0.58568417  0.91901750  0.38731200  1.0
  Cd  Cd879  1  0.91901750  0.25235083  0.38731200  1.0
  Cd  Cd880  1  0.91901750  0.58568417  0.38731200  1.0
  Cd  Cd881  1  0.91901750  0.91901750  0.38731200  1.0
  Cd  Cd882  1  0.12735083  0.12735083  0.36945486  1.0
  Cd  Cd883  1  0.12735083  0.46068417  0.36945486  1.0
  Cd  Cd884  1  0.12735083  0.79401750  0.36945486  1.0
  Cd  Cd885  1  0.46068417  0.12735083  0.36945486  1.0
  Cd  Cd886  1  0.46068417  0.46068417  0.36945486  1.0
  Cd  Cd887  1  0.46068417  0.79401750  0.36945486  1.0
  Cd  Cd888  1  0.79401750  0.12735083  0.36945486  1.0
  Cd  Cd889  1  0.79401750  0.46068417  0.36945486  1.0
  Cd  Cd890  1  0.79401750  0.79401750  0.36945486  1.0
  Cd  Cd891  1  0.29401750  0.29401750  0.29802629  1.0
  Cd  Cd892  1  0.29401750  0.62735083  0.29802629  1.0
  Cd  Cd893  1  0.29401750  0.96068417  0.29802629  1.0
  Cd  Cd894  1  0.62735083  0.29401750  0.29802629  1.0
  Cd  Cd895  1  0.62735083  0.62735083  0.29802629  1.0
  Cd  Cd896  1  0.62735083  0.96068417  0.29802629  1.0
  Cd  Cd897  1  0.96068417  0.29401750  0.29802629  1.0
  Cd  Cd898  1  0.96068417  0.62735083  0.29802629  1.0
  Cd  Cd899  1  0.96068417  0.96068417  0.29802629  1.0
  Cd  Cd900  1  0.00705250  0.16431583  0.35764271  1.0
  Cd  Cd901  1  0.00705250  0.49764917  0.35764271  1.0
  Cd  Cd902  1  0.00705250  0.83098250  0.35764271  1.0
  Cd  Cd903  1  0.34038583  0.16431583  0.35764271  1.0
  Cd  Cd904  1  0.34038583  0.49764917  0.35764271  1.0
  Cd  Cd905  1  0.34038583  0.83098250  0.35764271  1.0
  Cd  Cd906  1  0.67371917  0.16431583  0.35764271  1.0
  Cd  Cd907  1  0.67371917  0.49764917  0.35764271  1.0
  Cd  Cd908  1  0.67371917  0.83098250  0.35764271  1.0
  Cd  Cd909  1  0.17371917  0.33098250  0.28621414  1.0
  Cd  Cd910  1  0.17371917  0.66431583  0.28621414  1.0
  Cd  Cd911  1  0.17371917  0.99764917  0.28621414  1.0
  Cd  Cd912  1  0.50705250  0.33098250  0.28621414  1.0
  Cd  Cd913  1  0.50705250  0.66431583  0.28621414  1.0
  Cd  Cd914  1  0.50705250  0.99764917  0.28621414  1.0
  Cd  Cd915  1  0.84038583  0.33098250  0.28621414  1.0
  Cd  Cd916  1  0.84038583  0.66431583  0.28621414  1.0
  Cd  Cd917  1  0.84038583  0.99764917  0.28621414  1.0
  Cd  Cd918  1  0.24294750  0.08568417  0.31588343  1.0
  Cd  Cd919  1  0.24294750  0.41901750  0.31588343  1.0
  Cd  Cd920  1  0.24294750  0.75235083  0.31588343  1.0
  Cd  Cd921  1  0.57628083  0.08568417  0.31588343  1.0
  Cd  Cd922  1  0.57628083  0.41901750  0.31588343  1.0
  Cd  Cd923  1  0.57628083  0.75235083  0.31588343  1.0
  Cd  Cd924  1  0.90961417  0.08568417  0.31588343  1.0
  Cd  Cd925  1  0.90961417  0.41901750  0.31588343  1.0
  Cd  Cd926  1  0.90961417  0.75235083  0.31588343  1.0
  Cd  Cd927  1  0.07628083  0.25235083  0.38731200  1.0
  Cd  Cd928  1  0.07628083  0.58568417  0.38731200  1.0
  Cd  Cd929  1  0.07628083  0.91901750  0.38731200  1.0
  Cd  Cd930  1  0.40961417  0.25235083  0.38731200  1.0
  Cd  Cd931  1  0.40961417  0.58568417  0.38731200  1.0
  Cd  Cd932  1  0.40961417  0.91901750  0.38731200  1.0
  Cd  Cd933  1  0.74294750  0.25235083  0.38731200  1.0
  Cd  Cd934  1  0.74294750  0.58568417  0.38731200  1.0
  Cd  Cd935  1  0.74294750  0.91901750  0.38731200  1.0
  Cd  Cd936  1  0.00705250  0.16431583  0.42504129  1.0
  Cd  Cd937  1  0.00705250  0.49764917  0.42504129  1.0
  Cd  Cd938  1  0.00705250  0.83098250  0.42504129  1.0
  Cd  Cd939  1  0.34038583  0.16431583  0.42504129  1.0
  Cd  Cd940  1  0.34038583  0.49764917  0.42504129  1.0
  Cd  Cd941  1  0.34038583  0.83098250  0.42504129  1.0
  Cd  Cd942  1  0.67371917  0.16431583  0.42504129  1.0
  Cd  Cd943  1  0.67371917  0.49764917  0.42504129  1.0
  Cd  Cd944  1  0.67371917  0.83098250  0.42504129  1.0
  Cd  Cd945  1  0.17371917  0.33098250  0.35361271  1.0
  Cd  Cd946  1  0.17371917  0.66431583  0.35361271  1.0
  Cd  Cd947  1  0.17371917  0.99764917  0.35361271  1.0
  Cd  Cd948  1  0.50705250  0.33098250  0.35361271  1.0
  Cd  Cd949  1  0.50705250  0.66431583  0.35361271  1.0
  Cd  Cd950  1  0.50705250  0.99764917  0.35361271  1.0
  Cd  Cd951  1  0.84038583  0.33098250  0.35361271  1.0
  Cd  Cd952  1  0.84038583  0.66431583  0.35361271  1.0
  Cd  Cd953  1  0.84038583  0.99764917  0.35361271  1.0
  Cd  Cd954  1  0.24294750  0.08568417  0.38328200  1.0
  Cd  Cd955  1  0.24294750  0.41901750  0.38328200  1.0
  Cd  Cd956  1  0.24294750  0.75235083  0.38328200  1.0
  Cd  Cd957  1  0.57628083  0.08568417  0.38328200  1.0
  Cd  Cd958  1  0.57628083  0.41901750  0.38328200  1.0
  Cd  Cd959  1  0.57628083  0.75235083  0.38328200  1.0
  Cd  Cd960  1  0.90961417  0.08568417  0.38328200  1.0
  Cd  Cd961  1  0.90961417  0.41901750  0.38328200  1.0
  Cd  Cd962  1  0.90961417  0.75235083  0.38328200  1.0
  Cd  Cd963  1  0.07628083  0.25235083  0.31185343  1.0
  Cd  Cd964  1  0.07628083  0.58568417  0.31185343  1.0
  Cd  Cd965  1  0.07628083  0.91901750  0.31185343  1.0
  Cd  Cd966  1  0.40961417  0.25235083  0.31185343  1.0
  Cd  Cd967  1  0.40961417  0.58568417  0.31185343  1.0
  Cd  Cd968  1  0.40961417  0.91901750  0.31185343  1.0
  Cd  Cd969  1  0.74294750  0.25235083  0.31185343  1.0
  Cd  Cd970  1  0.74294750  0.58568417  0.31185343  1.0
  Cd  Cd971  1  0.74294750  0.91901750  0.31185343  1.0
  Cd  Cd972  1  0.28461417  0.12735083  0.29399629  1.0
  Cd  Cd973  1  0.28461417  0.46068417  0.29399629  1.0
  Cd  Cd974  1  0.28461417  0.79401750  0.29399629  1.0
  Cd  Cd975  1  0.61794750  0.12735083  0.29399629  1.0
  Cd  Cd976  1  0.61794750  0.46068417  0.29399629  1.0
  Cd  Cd977  1  0.61794750  0.79401750  0.29399629  1.0
  Cd  Cd978  1  0.95128083  0.12735083  0.29399629  1.0
  Cd  Cd979  1  0.95128083  0.46068417  0.29399629  1.0
  Cd  Cd980  1  0.95128083  0.79401750  0.29399629  1.0
  Cd  Cd981  1  0.11794750  0.29401750  0.36542486  1.0
  Cd  Cd982  1  0.11794750  0.62735083  0.36542486  1.0
  Cd  Cd983  1  0.11794750  0.96068417  0.36542486  1.0
  Cd  Cd984  1  0.45128083  0.29401750  0.36542486  1.0
  Cd  Cd985  1  0.45128083  0.62735083  0.36542486  1.0
  Cd  Cd986  1  0.45128083  0.96068417  0.36542486  1.0
  Cd  Cd987  1  0.78461417  0.29401750  0.36542486  1.0
  Cd  Cd988  1  0.78461417  0.62735083  0.36542486  1.0
  Cd  Cd989  1  0.78461417  0.96068417  0.36542486  1.0
  Cd  Cd990  1  0.21538583  0.03931583  0.33978557  1.0
  Cd  Cd991  1  0.21538583  0.37264917  0.33978557  1.0
  Cd  Cd992  1  0.21538583  0.70598250  0.33978557  1.0
  Cd  Cd993  1  0.54871917  0.03931583  0.33978557  1.0
  Cd  Cd994  1  0.54871917  0.37264917  0.33978557  1.0
  Cd  Cd995  1  0.54871917  0.70598250  0.33978557  1.0
  Cd  Cd996  1  0.88205250  0.03931583  0.33978557  1.0
  Cd  Cd997  1  0.88205250  0.37264917  0.33978557  1.0
  Cd  Cd998  1  0.88205250  0.70598250  0.33978557  1.0
  Cd  Cd999  1  0.04871917  0.20598250  0.41121414  1.0
  Cd  Cd1000  1  0.04871917  0.53931583  0.41121414  1.0
  Cd  Cd1001  1  0.04871917  0.87264917  0.41121414  1.0
  Cd  Cd1002  1  0.38205250  0.20598250  0.41121414  1.0
  Cd  Cd1003  1  0.38205250  0.53931583  0.41121414  1.0
  Cd  Cd1004  1  0.38205250  0.87264917  0.41121414  1.0
  Cd  Cd1005  1  0.71538583  0.20598250  0.41121414  1.0
  Cd  Cd1006  1  0.71538583  0.53931583  0.41121414  1.0
  Cd  Cd1007  1  0.71538583  0.87264917  0.41121414  1.0
  Cd  Cd1008  1  0.03931583  0.03931583  0.40718414  1.0
  Cd  Cd1009  1  0.03931583  0.37264917  0.40718414  1.0
  Cd  Cd1010  1  0.03931583  0.70598250  0.40718414  1.0
  Cd  Cd1011  1  0.37264917  0.03931583  0.40718414  1.0
  Cd  Cd1012  1  0.37264917  0.37264917  0.40718414  1.0
  Cd  Cd1013  1  0.37264917  0.70598250  0.40718414  1.0
  Cd  Cd1014  1  0.70598250  0.03931583  0.40718414  1.0
  Cd  Cd1015  1  0.70598250  0.37264917  0.40718414  1.0
  Cd  Cd1016  1  0.70598250  0.70598250  0.40718414  1.0
  Cd  Cd1017  1  0.20598250  0.20598250  0.33575557  1.0
  Cd  Cd1018  1  0.20598250  0.53931583  0.33575557  1.0
  Cd  Cd1019  1  0.20598250  0.87264917  0.33575557  1.0
  Cd  Cd1020  1  0.53931583  0.20598250  0.33575557  1.0
  Cd  Cd1021  1  0.53931583  0.53931583  0.33575557  1.0
  Cd  Cd1022  1  0.53931583  0.87264917  0.33575557  1.0
  Cd  Cd1023  1  0.87264917  0.20598250  0.33575557  1.0
  Cd  Cd1024  1  0.87264917  0.53931583  0.33575557  1.0
  Cd  Cd1025  1  0.87264917  0.87264917  0.33575557  1.0
  Cd  Cd1026  1  0.21538583  0.03931583  0.40718414  1.0
  Cd  Cd1027  1  0.21538583  0.37264917  0.40718414  1.0
  Cd  Cd1028  1  0.21538583  0.70598250  0.40718414  1.0
  Cd  Cd1029  1  0.54871917  0.03931583  0.40718414  1.0
  Cd  Cd1030  1  0.54871917  0.37264917  0.40718414  1.0
  Cd  Cd1031  1  0.54871917  0.70598250  0.40718414  1.0
  Cd  Cd1032  1  0.88205250  0.03931583  0.40718414  1.0
  Cd  Cd1033  1  0.88205250  0.37264917  0.40718414  1.0
  Cd  Cd1034  1  0.88205250  0.70598250  0.40718414  1.0
  Cd  Cd1035  1  0.04871917  0.20598250  0.33575557  1.0
  Cd  Cd1036  1  0.04871917  0.53931583  0.33575557  1.0
  Cd  Cd1037  1  0.04871917  0.87264917  0.33575557  1.0
  Cd  Cd1038  1  0.38205250  0.20598250  0.33575557  1.0
  Cd  Cd1039  1  0.38205250  0.53931583  0.33575557  1.0
  Cd  Cd1040  1  0.38205250  0.87264917  0.33575557  1.0
  Cd  Cd1041  1  0.71538583  0.20598250  0.33575557  1.0
  Cd  Cd1042  1  0.71538583  0.53931583  0.33575557  1.0
  Cd  Cd1043  1  0.71538583  0.87264917  0.33575557  1.0
  Cd  Cd1044  1  0.28461417  0.12735083  0.36945486  1.0
  Cd  Cd1045  1  0.28461417  0.46068417  0.36945486  1.0
  Cd  Cd1046  1  0.28461417  0.79401750  0.36945486  1.0
  Cd  Cd1047  1  0.61794750  0.12735083  0.36945486  1.0
  Cd  Cd1048  1  0.61794750  0.46068417  0.36945486  1.0
  Cd  Cd1049  1  0.61794750  0.79401750  0.36945486  1.0
  Cd  Cd1050  1  0.95128083  0.12735083  0.36945486  1.0
  Cd  Cd1051  1  0.95128083  0.46068417  0.36945486  1.0
  Cd  Cd1052  1  0.95128083  0.79401750  0.36945486  1.0
  Cd  Cd1053  1  0.11794750  0.29401750  0.29802629  1.0
  Cd  Cd1054  1  0.11794750  0.62735083  0.29802629  1.0
  Cd  Cd1055  1  0.11794750  0.96068417  0.29802629  1.0
  Cd  Cd1056  1  0.45128083  0.29401750  0.29802629  1.0
  Cd  Cd1057  1  0.45128083  0.62735083  0.29802629  1.0
  Cd  Cd1058  1  0.45128083  0.96068417  0.29802629  1.0
  Cd  Cd1059  1  0.78461417  0.29401750  0.29802629  1.0
  Cd  Cd1060  1  0.78461417  0.62735083  0.29802629  1.0
  Cd  Cd1061  1  0.78461417  0.96068417  0.29802629  1.0
  Cd  Cd1062  1  0.16431583  0.16431583  0.42504129  1.0
  Cd  Cd1063  1  0.16431583  0.49764917  0.42504129  1.0
  Cd  Cd1064  1  0.16431583  0.83098250  0.42504129  1.0
  Cd  Cd1065  1  0.49764917  0.16431583  0.42504129  1.0
  Cd  Cd1066  1  0.49764917  0.49764917  0.42504129  1.0
  Cd  Cd1067  1  0.49764917  0.83098250  0.42504129  1.0
  Cd  Cd1068  1  0.83098250  0.16431583  0.42504129  1.0
  Cd  Cd1069  1  0.83098250  0.49764917  0.42504129  1.0
  Cd  Cd1070  1  0.83098250  0.83098250  0.42504129  1.0
  Cd  Cd1071  1  0.33098250  0.33098250  0.35361271  1.0
  Cd  Cd1072  1  0.33098250  0.66431583  0.35361271  1.0
  Cd  Cd1073  1  0.33098250  0.99764917  0.35361271  1.0
  Cd  Cd1074  1  0.66431583  0.33098250  0.35361271  1.0
  Cd  Cd1075  1  0.66431583  0.66431583  0.35361271  1.0
  Cd  Cd1076  1  0.66431583  0.99764917  0.35361271  1.0
  Cd  Cd1077  1  0.99764917  0.33098250  0.35361271  1.0
  Cd  Cd1078  1  0.99764917  0.66431583  0.35361271  1.0
  Cd  Cd1079  1  0.99764917  0.99764917  0.35361271  1.0
  Ni  Ni1080  1  0.09528700  0.09528700  0.40368850  1.0
  Ni  Ni1081  1  0.09528700  0.42862033  0.40368850  1.0
  Ni  Ni1082  1  0.09528700  0.76195367  0.40368850  1.0
  Ni  Ni1083  1  0.42862033  0.09528700  0.40368850  1.0
  Ni  Ni1084  1  0.42862033  0.42862033  0.40368850  1.0
  Ni  Ni1085  1  0.42862033  0.76195367  0.40368850  1.0
  Ni  Ni1086  1  0.76195367  0.09528700  0.40368850  1.0
  Ni  Ni1087  1  0.76195367  0.42862033  0.40368850  1.0
  Ni  Ni1088  1  0.76195367  0.76195367  0.40368850  1.0
  Ni  Ni1089  1  0.26195367  0.26195367  0.33225993  1.0
  Ni  Ni1090  1  0.26195367  0.59528700  0.33225993  1.0
  Ni  Ni1091  1  0.26195367  0.92862033  0.33225993  1.0
  Ni  Ni1092  1  0.59528700  0.26195367  0.33225993  1.0
  Ni  Ni1093  1  0.59528700  0.59528700  0.33225993  1.0
  Ni  Ni1094  1  0.59528700  0.92862033  0.33225993  1.0
  Ni  Ni1095  1  0.92862033  0.26195367  0.33225993  1.0
  Ni  Ni1096  1  0.92862033  0.59528700  0.33225993  1.0
  Ni  Ni1097  1  0.92862033  0.92862033  0.33225993  1.0
  Ni  Ni1098  1  0.12534233  0.02971300  0.36036307  1.0
  Ni  Ni1099  1  0.12534233  0.36304633  0.36036307  1.0
  Ni  Ni1100  1  0.12534233  0.69637967  0.36036307  1.0
  Ni  Ni1101  1  0.45867567  0.02971300  0.36036307  1.0
  Ni  Ni1102  1  0.45867567  0.36304633  0.36036307  1.0
  Ni  Ni1103  1  0.45867567  0.69637967  0.36036307  1.0
  Ni  Ni1104  1  0.79200900  0.02971300  0.36036307  1.0
  Ni  Ni1105  1  0.79200900  0.36304633  0.36036307  1.0
  Ni  Ni1106  1  0.79200900  0.69637967  0.36036307  1.0
  Ni  Ni1107  1  0.29200900  0.19637967  0.28893450  1.0
  Ni  Ni1108  1  0.29200900  0.52971300  0.28893450  1.0
  Ni  Ni1109  1  0.29200900  0.86304633  0.28893450  1.0
  Ni  Ni1110  1  0.62534233  0.19637967  0.28893450  1.0
  Ni  Ni1111  1  0.62534233  0.52971300  0.28893450  1.0
  Ni  Ni1112  1  0.62534233  0.86304633  0.28893450  1.0
  Ni  Ni1113  1  0.95867567  0.19637967  0.28893450  1.0
  Ni  Ni1114  1  0.95867567  0.52971300  0.28893450  1.0
  Ni  Ni1115  1  0.95867567  0.86304633  0.28893450  1.0
  Ni  Ni1116  1  0.31523167  0.07752767  0.29888707  1.0
  Ni  Ni1117  1  0.31523167  0.41086100  0.29888707  1.0
  Ni  Ni1118  1  0.31523167  0.74419433  0.29888707  1.0
  Ni  Ni1119  1  0.64856500  0.07752767  0.29888707  1.0
  Ni  Ni1120  1  0.64856500  0.41086100  0.29888707  1.0
  Ni  Ni1121  1  0.64856500  0.74419433  0.29888707  1.0
  Ni  Ni1122  1  0.98189833  0.07752767  0.29888707  1.0
  Ni  Ni1123  1  0.98189833  0.41086100  0.29888707  1.0
  Ni  Ni1124  1  0.98189833  0.74419433  0.29888707  1.0
  Ni  Ni1125  1  0.14856500  0.24419433  0.37031564  1.0
  Ni  Ni1126  1  0.14856500  0.57752767  0.37031564  1.0
  Ni  Ni1127  1  0.14856500  0.91086100  0.37031564  1.0
  Ni  Ni1128  1  0.48189833  0.24419433  0.37031564  1.0
  Ni  Ni1129  1  0.48189833  0.57752767  0.37031564  1.0
  Ni  Ni1130  1  0.48189833  0.91086100  0.37031564  1.0
  Ni  Ni1131  1  0.81523167  0.24419433  0.37031564  1.0
  Ni  Ni1132  1  0.81523167  0.57752767  0.37031564  1.0
  Ni  Ni1133  1  0.81523167  0.91086100  0.37031564  1.0
  Ni  Ni1134  1  0.02971300  0.02971300  0.36036307  1.0
  Ni  Ni1135  1  0.02971300  0.36304633  0.36036307  1.0
  Ni  Ni1136  1  0.02971300  0.69637967  0.36036307  1.0
  Ni  Ni1137  1  0.36304633  0.02971300  0.36036307  1.0
  Ni  Ni1138  1  0.36304633  0.36304633  0.36036307  1.0
  Ni  Ni1139  1  0.36304633  0.69637967  0.36036307  1.0
  Ni  Ni1140  1  0.69637967  0.02971300  0.36036307  1.0
  Ni  Ni1141  1  0.69637967  0.36304633  0.36036307  1.0
  Ni  Ni1142  1  0.69637967  0.69637967  0.36036307  1.0
  Ni  Ni1143  1  0.19637967  0.19637967  0.28893450  1.0
  Ni  Ni1144  1  0.19637967  0.52971300  0.28893450  1.0
  Ni  Ni1145  1  0.19637967  0.86304633  0.28893450  1.0
  Ni  Ni1146  1  0.52971300  0.19637967  0.28893450  1.0
  Ni  Ni1147  1  0.52971300  0.52971300  0.28893450  1.0
  Ni  Ni1148  1  0.52971300  0.86304633  0.28893450  1.0
  Ni  Ni1149  1  0.86304633  0.19637967  0.28893450  1.0
  Ni  Ni1150  1  0.86304633  0.52971300  0.28893450  1.0
  Ni  Ni1151  1  0.86304633  0.86304633  0.28893450  1.0
  Ni  Ni1152  1  0.14310167  0.04747233  0.42418050  1.0
  Ni  Ni1153  1  0.14310167  0.38080567  0.42418050  1.0
  Ni  Ni1154  1  0.14310167  0.71413900  0.42418050  1.0
  Ni  Ni1155  1  0.47643500  0.04747233  0.42418050  1.0
  Ni  Ni1156  1  0.47643500  0.38080567  0.42418050  1.0
  Ni  Ni1157  1  0.47643500  0.71413900  0.42418050  1.0
  Ni  Ni1158  1  0.80976833  0.04747233  0.42418050  1.0
  Ni  Ni1159  1  0.80976833  0.38080567  0.42418050  1.0
  Ni  Ni1160  1  0.80976833  0.71413900  0.42418050  1.0
  Ni  Ni1161  1  0.30976833  0.21413900  0.35275193  1.0
  Ni  Ni1162  1  0.30976833  0.54747233  0.35275193  1.0
  Ni  Ni1163  1  0.30976833  0.88080567  0.35275193  1.0
  Ni  Ni1164  1  0.64310167  0.21413900  0.35275193  1.0
  Ni  Ni1165  1  0.64310167  0.54747233  0.35275193  1.0
  Ni  Ni1166  1  0.64310167  0.88080567  0.35275193  1.0
  Ni  Ni1167  1  0.97643500  0.21413900  0.35275193  1.0
  Ni  Ni1168  1  0.97643500  0.54747233  0.35275193  1.0
  Ni  Ni1169  1  0.97643500  0.88080567  0.35275193  1.0
  Ni  Ni1170  1  0.09528700  0.09528700  0.36270450  1.0
  Ni  Ni1171  1  0.09528700  0.42862033  0.36270450  1.0
  Ni  Ni1172  1  0.09528700  0.76195367  0.36270450  1.0
  Ni  Ni1173  1  0.42862033  0.09528700  0.36270450  1.0
  Ni  Ni1174  1  0.42862033  0.42862033  0.36270450  1.0
  Ni  Ni1175  1  0.42862033  0.76195367  0.36270450  1.0
  Ni  Ni1176  1  0.76195367  0.09528700  0.36270450  1.0
  Ni  Ni1177  1  0.76195367  0.42862033  0.36270450  1.0
  Ni  Ni1178  1  0.76195367  0.76195367  0.36270450  1.0
  Ni  Ni1179  1  0.26195367  0.26195367  0.29127593  1.0
  Ni  Ni1180  1  0.26195367  0.59528700  0.29127593  1.0
  Ni  Ni1181  1  0.26195367  0.92862033  0.29127593  1.0
  Ni  Ni1182  1  0.59528700  0.26195367  0.29127593  1.0
  Ni  Ni1183  1  0.59528700  0.59528700  0.29127593  1.0
  Ni  Ni1184  1  0.59528700  0.92862033  0.29127593  1.0
  Ni  Ni1185  1  0.92862033  0.26195367  0.29127593  1.0
  Ni  Ni1186  1  0.92862033  0.59528700  0.29127593  1.0
  Ni  Ni1187  1  0.92862033  0.92862033  0.29127593  1.0
  Ni  Ni1188  1  0.33299100  0.09528700  0.36270450  1.0
  Ni  Ni1189  1  0.33299100  0.42862033  0.36270450  1.0
  Ni  Ni1190  1  0.33299100  0.76195367  0.36270450  1.0
  Ni  Ni1191  1  0.66632433  0.09528700  0.36270450  1.0
  Ni  Ni1192  1  0.66632433  0.42862033  0.36270450  1.0
  Ni  Ni1193  1  0.66632433  0.76195367  0.36270450  1.0
  Ni  Ni1194  1  0.99965767  0.09528700  0.36270450  1.0
  Ni  Ni1195  1  0.99965767  0.42862033  0.36270450  1.0
  Ni  Ni1196  1  0.99965767  0.76195367  0.36270450  1.0
  Ni  Ni1197  1  0.16632433  0.26195367  0.29127593  1.0
  Ni  Ni1198  1  0.16632433  0.59528700  0.29127593  1.0
  Ni  Ni1199  1  0.16632433  0.92862033  0.29127593  1.0
  Ni  Ni1200  1  0.49965767  0.26195367  0.29127593  1.0
  Ni  Ni1201  1  0.49965767  0.59528700  0.29127593  1.0
  Ni  Ni1202  1  0.49965767  0.92862033  0.29127593  1.0
  Ni  Ni1203  1  0.83299100  0.26195367  0.29127593  1.0
  Ni  Ni1204  1  0.83299100  0.59528700  0.29127593  1.0
  Ni  Ni1205  1  0.83299100  0.92862033  0.29127593  1.0
  Ni  Ni1206  1  0.02971300  0.02971300  0.31937907  1.0
  Ni  Ni1207  1  0.02971300  0.36304633  0.31937907  1.0
  Ni  Ni1208  1  0.02971300  0.69637967  0.31937907  1.0
  Ni  Ni1209  1  0.36304633  0.02971300  0.31937907  1.0
  Ni  Ni1210  1  0.36304633  0.36304633  0.31937907  1.0
  Ni  Ni1211  1  0.36304633  0.69637967  0.31937907  1.0
  Ni  Ni1212  1  0.69637967  0.02971300  0.31937907  1.0
  Ni  Ni1213  1  0.69637967  0.36304633  0.31937907  1.0
  Ni  Ni1214  1  0.69637967  0.69637967  0.31937907  1.0
  Ni  Ni1215  1  0.19637967  0.19637967  0.39080764  1.0
  Ni  Ni1216  1  0.19637967  0.52971300  0.39080764  1.0
  Ni  Ni1217  1  0.19637967  0.86304633  0.39080764  1.0
  Ni  Ni1218  1  0.52971300  0.19637967  0.39080764  1.0
  Ni  Ni1219  1  0.52971300  0.52971300  0.39080764  1.0
  Ni  Ni1220  1  0.52971300  0.86304633  0.39080764  1.0
  Ni  Ni1221  1  0.86304633  0.19637967  0.39080764  1.0
  Ni  Ni1222  1  0.86304633  0.52971300  0.39080764  1.0
  Ni  Ni1223  1  0.86304633  0.86304633  0.39080764  1.0
  Ni  Ni1224  1  0.22916667  0.06250000  0.36153379  1.0
  Ni  Ni1225  1  0.22916667  0.39583333  0.36153379  1.0
  Ni  Ni1226  1  0.22916667  0.72916667  0.36153379  1.0
  Ni  Ni1227  1  0.56250000  0.06250000  0.36153379  1.0
  Ni  Ni1228  1  0.56250000  0.39583333  0.36153379  1.0
  Ni  Ni1229  1  0.56250000  0.72916667  0.36153379  1.0
  Ni  Ni1230  1  0.89583333  0.06250000  0.36153379  1.0
  Ni  Ni1231  1  0.89583333  0.39583333  0.36153379  1.0
  Ni  Ni1232  1  0.89583333  0.72916667  0.36153379  1.0
  Ni  Ni1233  1  0.06250000  0.22916667  0.29010521  1.0
  Ni  Ni1234  1  0.06250000  0.56250000  0.29010521  1.0
  Ni  Ni1235  1  0.06250000  0.89583333  0.29010521  1.0
  Ni  Ni1236  1  0.39583333  0.22916667  0.29010521  1.0
  Ni  Ni1237  1  0.39583333  0.56250000  0.29010521  1.0
  Ni  Ni1238  1  0.39583333  0.89583333  0.29010521  1.0
  Ni  Ni1239  1  0.72916667  0.22916667  0.29010521  1.0
  Ni  Ni1240  1  0.72916667  0.56250000  0.29010521  1.0
  Ni  Ni1241  1  0.72916667  0.89583333  0.29010521  1.0
  Ni  Ni1242  1  0.14583333  0.14583333  0.39724807  1.0
  Ni  Ni1243  1  0.14583333  0.47916667  0.39724807  1.0
  Ni  Ni1244  1  0.14583333  0.81250000  0.39724807  1.0
  Ni  Ni1245  1  0.47916667  0.14583333  0.39724807  1.0
  Ni  Ni1246  1  0.47916667  0.47916667  0.39724807  1.0
  Ni  Ni1247  1  0.47916667  0.81250000  0.39724807  1.0
  Ni  Ni1248  1  0.81250000  0.14583333  0.39724807  1.0
  Ni  Ni1249  1  0.81250000  0.47916667  0.39724807  1.0
  Ni  Ni1250  1  0.81250000  0.81250000  0.39724807  1.0
  Ni  Ni1251  1  0.31250000  0.31250000  0.32581950  1.0
  Ni  Ni1252  1  0.31250000  0.64583333  0.32581950  1.0
  Ni  Ni1253  1  0.31250000  0.97916667  0.32581950  1.0
  Ni  Ni1254  1  0.64583333  0.31250000  0.32581950  1.0
  Ni  Ni1255  1  0.64583333  0.64583333  0.32581950  1.0
  Ni  Ni1256  1  0.64583333  0.97916667  0.32581950  1.0
  Ni  Ni1257  1  0.97916667  0.31250000  0.32581950  1.0
  Ni  Ni1258  1  0.97916667  0.64583333  0.32581950  1.0
  Ni  Ni1259  1  0.97916667  0.97916667  0.32581950  1.0
  Ni  Ni1260  1  0.31250000  0.14583333  0.39724807  1.0
  Ni  Ni1261  1  0.31250000  0.47916667  0.39724807  1.0
  Ni  Ni1262  1  0.31250000  0.81250000  0.39724807  1.0
  Ni  Ni1263  1  0.64583333  0.14583333  0.39724807  1.0
  Ni  Ni1264  1  0.64583333  0.47916667  0.39724807  1.0
  Ni  Ni1265  1  0.64583333  0.81250000  0.39724807  1.0
  Ni  Ni1266  1  0.97916667  0.14583333  0.39724807  1.0
  Ni  Ni1267  1  0.97916667  0.47916667  0.39724807  1.0
  Ni  Ni1268  1  0.97916667  0.81250000  0.39724807  1.0
  Ni  Ni1269  1  0.14583333  0.31250000  0.32581950  1.0
  Ni  Ni1270  1  0.14583333  0.64583333  0.32581950  1.0
  Ni  Ni1271  1  0.14583333  0.97916667  0.32581950  1.0
  Ni  Ni1272  1  0.47916667  0.31250000  0.32581950  1.0
  Ni  Ni1273  1  0.47916667  0.64583333  0.32581950  1.0
  Ni  Ni1274  1  0.47916667  0.97916667  0.32581950  1.0
  Ni  Ni1275  1  0.81250000  0.31250000  0.32581950  1.0
  Ni  Ni1276  1  0.81250000  0.64583333  0.32581950  1.0
  Ni  Ni1277  1  0.81250000  0.97916667  0.32581950  1.0
  Ni  Ni1278  1  0.14583333  0.14583333  0.32581950  1.0
  Ni  Ni1279  1  0.14583333  0.47916667  0.32581950  1.0
  Ni  Ni1280  1  0.14583333  0.81250000  0.32581950  1.0
  Ni  Ni1281  1  0.47916667  0.14583333  0.32581950  1.0
  Ni  Ni1282  1  0.47916667  0.47916667  0.32581950  1.0
  Ni  Ni1283  1  0.47916667  0.81250000  0.32581950  1.0
  Ni  Ni1284  1  0.81250000  0.14583333  0.32581950  1.0
  Ni  Ni1285  1  0.81250000  0.47916667  0.32581950  1.0
  Ni  Ni1286  1  0.81250000  0.81250000  0.32581950  1.0
  Ni  Ni1287  1  0.31250000  0.31250000  0.39724807  1.0
  Ni  Ni1288  1  0.31250000  0.64583333  0.39724807  1.0
  Ni  Ni1289  1  0.31250000  0.97916667  0.39724807  1.0
  Ni  Ni1290  1  0.64583333  0.31250000  0.39724807  1.0
  Ni  Ni1291  1  0.64583333  0.64583333  0.39724807  1.0
  Ni  Ni1292  1  0.64583333  0.97916667  0.39724807  1.0
  Ni  Ni1293  1  0.97916667  0.31250000  0.39724807  1.0
  Ni  Ni1294  1  0.97916667  0.64583333  0.39724807  1.0
  Ni  Ni1295  1  0.97916667  0.97916667  0.39724807  1.0
