# generated using pymatgen
data_CdNi
_symmetry_space_group_name_H-M   'P 1'
_cell_length_a   25.72660944
_cell_length_b   68.06621066
_cell_length_c   42.87768240
_cell_angle_alpha   40.89339465
_cell_angle_beta   60.00000000
_cell_angle_gamma   55.46241621
_symmetry_Int_Tables_number   1
_chemical_formula_structural   CdNi
_chemical_formula_sum   'Cd432 Ni432'
_cell_volume   40133.90403108
_cell_formula_units_Z   432
loop_
 _symmetry_equiv_pos_site_id
 _symmetry_equiv_pos_as_xyz
  1  'x, y, z'
loop_
 _atom_site_type_symbol
 _atom_site_label
 _atom_site_symmetry_multiplicity
 _atom_site_fract_x
 _atom_site_fract_y
 _atom_site_fract_z
 _atom_site_occupancy
  Cd  Cd0  1  0.00470167  0.08098250  0.04223680  1.0
  Cd  Cd1  1  0.00470167  0.41431583  0.04223680  1.0
  Cd  Cd2  1  0.00470167  0.74764917  0.04223680  1.0
  Cd  Cd3  1  0.33803500  0.08098250  0.04223680  1.0
  Cd  Cd4  1  0.33803500  0.41431583  0.04223680  1.0
  Cd  Cd5  1  0.33803500  0.74764917  0.04223680  1.0
  Cd  Cd6  1  0.67136833  0.08098250  0.04223680  1.0
  Cd  Cd7  1  0.67136833  0.41431583  0.04223680  1.0
  Cd  Cd8  1  0.67136833  0.74764917  0.04223680  1.0
  Cd  Cd9  1  0.00470167  0.24764917  0.14223680  1.0
  Cd  Cd10  1  0.00470167  0.58098250  0.14223680  1.0
  Cd  Cd11  1  0.00470167  0.91431583  0.14223680  1.0
  Cd  Cd12  1  0.33803500  0.24764917  0.14223680  1.0
  Cd  Cd13  1  0.33803500  0.58098250  0.14223680  1.0
  Cd  Cd14  1  0.33803500  0.91431583  0.14223680  1.0
  Cd  Cd15  1  0.67136833  0.24764917  0.14223680  1.0
  Cd  Cd16  1  0.67136833  0.58098250  0.14223680  1.0
  Cd  Cd17  1  0.67136833  0.91431583  0.14223680  1.0
  Cd  Cd18  1  0.25470167  0.03931583  0.01723680  1.0
  Cd  Cd19  1  0.25470167  0.37264917  0.01723680  1.0
  Cd  Cd20  1  0.25470167  0.70598250  0.01723680  1.0
  Cd  Cd21  1  0.58803500  0.03931583  0.01723680  1.0
  Cd  Cd22  1  0.58803500  0.37264917  0.01723680  1.0
  Cd  Cd23  1  0.58803500  0.70598250  0.01723680  1.0
  Cd  Cd24  1  0.92136833  0.03931583  0.01723680  1.0
  Cd  Cd25  1  0.92136833  0.37264917  0.01723680  1.0
  Cd  Cd26  1  0.92136833  0.70598250  0.01723680  1.0
  Cd  Cd27  1  0.25470167  0.20598250  0.11723680  1.0
  Cd  Cd28  1  0.25470167  0.53931583  0.11723680  1.0
  Cd  Cd29  1  0.25470167  0.87264917  0.11723680  1.0
  Cd  Cd30  1  0.58803500  0.20598250  0.11723680  1.0
  Cd  Cd31  1  0.58803500  0.53931583  0.11723680  1.0
  Cd  Cd32  1  0.58803500  0.87264917  0.11723680  1.0
  Cd  Cd33  1  0.92136833  0.20598250  0.11723680  1.0
  Cd  Cd34  1  0.92136833  0.53931583  0.11723680  1.0
  Cd  Cd35  1  0.92136833  0.87264917  0.11723680  1.0
  Cd  Cd36  1  0.16196500  0.00235083  0.08941580  1.0
  Cd  Cd37  1  0.16196500  0.33568417  0.08941580  1.0
  Cd  Cd38  1  0.16196500  0.66901750  0.08941580  1.0
  Cd  Cd39  1  0.49529833  0.00235083  0.08941580  1.0
  Cd  Cd40  1  0.49529833  0.33568417  0.08941580  1.0
  Cd  Cd41  1  0.49529833  0.66901750  0.08941580  1.0
  Cd  Cd42  1  0.82863167  0.00235083  0.08941580  1.0
  Cd  Cd43  1  0.82863167  0.33568417  0.08941580  1.0
  Cd  Cd44  1  0.82863167  0.66901750  0.08941580  1.0
  Cd  Cd45  1  0.16196500  0.16901750  0.18941580  1.0
  Cd  Cd46  1  0.16196500  0.50235083  0.18941580  1.0
  Cd  Cd47  1  0.16196500  0.83568417  0.18941580  1.0
  Cd  Cd48  1  0.49529833  0.16901750  0.18941580  1.0
  Cd  Cd49  1  0.49529833  0.50235083  0.18941580  1.0
  Cd  Cd50  1  0.49529833  0.83568417  0.18941580  1.0
  Cd  Cd51  1  0.82863167  0.16901750  0.18941580  1.0
  Cd  Cd52  1  0.82863167  0.50235083  0.18941580  1.0
  Cd  Cd53  1  0.82863167  0.83568417  0.18941580  1.0
  Cd  Cd54  1  0.16196500  0.08098250  0.14787880  1.0
  Cd  Cd55  1  0.16196500  0.41431583  0.14787880  1.0
  Cd  Cd56  1  0.16196500  0.74764917  0.14787880  1.0
  Cd  Cd57  1  0.49529833  0.08098250  0.14787880  1.0
  Cd  Cd58  1  0.49529833  0.41431583  0.14787880  1.0
  Cd  Cd59  1  0.49529833  0.74764917  0.14787880  1.0
  Cd  Cd60  1  0.82863167  0.08098250  0.14787880  1.0
  Cd  Cd61  1  0.82863167  0.41431583  0.14787880  1.0
  Cd  Cd62  1  0.82863167  0.74764917  0.14787880  1.0
  Cd  Cd63  1  0.16196500  0.24764917  0.04787880  1.0
  Cd  Cd64  1  0.16196500  0.58098250  0.04787880  1.0
  Cd  Cd65  1  0.16196500  0.91431583  0.04787880  1.0
  Cd  Cd66  1  0.49529833  0.24764917  0.04787880  1.0
  Cd  Cd67  1  0.49529833  0.58098250  0.04787880  1.0
  Cd  Cd68  1  0.49529833  0.91431583  0.04787880  1.0
  Cd  Cd69  1  0.82863167  0.24764917  0.04787880  1.0
  Cd  Cd70  1  0.82863167  0.58098250  0.04787880  1.0
  Cd  Cd71  1  0.82863167  0.91431583  0.04787880  1.0
  Cd  Cd72  1  0.00470167  0.00235083  0.08941580  1.0
  Cd  Cd73  1  0.00470167  0.33568417  0.08941580  1.0
  Cd  Cd74  1  0.00470167  0.66901750  0.08941580  1.0
  Cd  Cd75  1  0.33803500  0.00235083  0.08941580  1.0
  Cd  Cd76  1  0.33803500  0.33568417  0.08941580  1.0
  Cd  Cd77  1  0.33803500  0.66901750  0.08941580  1.0
  Cd  Cd78  1  0.67136833  0.00235083  0.08941580  1.0
  Cd  Cd79  1  0.67136833  0.33568417  0.08941580  1.0
  Cd  Cd80  1  0.67136833  0.66901750  0.08941580  1.0
  Cd  Cd81  1  0.00470167  0.16901750  0.18941580  1.0
  Cd  Cd82  1  0.00470167  0.50235083  0.18941580  1.0
  Cd  Cd83  1  0.00470167  0.83568417  0.18941580  1.0
  Cd  Cd84  1  0.33803500  0.16901750  0.18941580  1.0
  Cd  Cd85  1  0.33803500  0.50235083  0.18941580  1.0
  Cd  Cd86  1  0.33803500  0.83568417  0.18941580  1.0
  Cd  Cd87  1  0.67136833  0.16901750  0.18941580  1.0
  Cd  Cd88  1  0.67136833  0.50235083  0.18941580  1.0
  Cd  Cd89  1  0.67136833  0.83568417  0.18941580  1.0
  Cd  Cd90  1  0.00470167  0.08098250  0.14787880  1.0
  Cd  Cd91  1  0.00470167  0.41431583  0.14787880  1.0
  Cd  Cd92  1  0.00470167  0.74764917  0.14787880  1.0
  Cd  Cd93  1  0.33803500  0.08098250  0.14787880  1.0
  Cd  Cd94  1  0.33803500  0.41431583  0.14787880  1.0
  Cd  Cd95  1  0.33803500  0.74764917  0.14787880  1.0
  Cd  Cd96  1  0.67136833  0.08098250  0.14787880  1.0
  Cd  Cd97  1  0.67136833  0.41431583  0.14787880  1.0
  Cd  Cd98  1  0.67136833  0.74764917  0.14787880  1.0
  Cd  Cd99  1  0.00470167  0.24764917  0.04787880  1.0
  Cd  Cd100  1  0.00470167  0.58098250  0.04787880  1.0
  Cd  Cd101  1  0.00470167  0.91431583  0.04787880  1.0
  Cd  Cd102  1  0.33803500  0.24764917  0.04787880  1.0
  Cd  Cd103  1  0.33803500  0.58098250  0.04787880  1.0
  Cd  Cd104  1  0.33803500  0.91431583  0.04787880  1.0
  Cd  Cd105  1  0.67136833  0.24764917  0.04787880  1.0
  Cd  Cd106  1  0.67136833  0.58098250  0.04787880  1.0
  Cd  Cd107  1  0.67136833  0.91431583  0.04787880  1.0
  Cd  Cd108  1  0.25470167  0.03931583  0.12287880  1.0
  Cd  Cd109  1  0.25470167  0.37264917  0.12287880  1.0
  Cd  Cd110  1  0.25470167  0.70598250  0.12287880  1.0
  Cd  Cd111  1  0.58803500  0.03931583  0.12287880  1.0
  Cd  Cd112  1  0.58803500  0.37264917  0.12287880  1.0
  Cd  Cd113  1  0.58803500  0.70598250  0.12287880  1.0
  Cd  Cd114  1  0.92136833  0.03931583  0.12287880  1.0
  Cd  Cd115  1  0.92136833  0.37264917  0.12287880  1.0
  Cd  Cd116  1  0.92136833  0.70598250  0.12287880  1.0
  Cd  Cd117  1  0.25470167  0.20598250  0.02287880  1.0
  Cd  Cd118  1  0.25470167  0.53931583  0.02287880  1.0
  Cd  Cd119  1  0.25470167  0.87264917  0.02287880  1.0
  Cd  Cd120  1  0.58803500  0.20598250  0.02287880  1.0
  Cd  Cd121  1  0.58803500  0.53931583  0.02287880  1.0
  Cd  Cd122  1  0.58803500  0.87264917  0.02287880  1.0
  Cd  Cd123  1  0.92136833  0.20598250  0.02287880  1.0
  Cd  Cd124  1  0.92136833  0.53931583  0.02287880  1.0
  Cd  Cd125  1  0.92136833  0.87264917  0.02287880  1.0
  Cd  Cd126  1  0.07863167  0.12735083  0.16441580  1.0
  Cd  Cd127  1  0.07863167  0.46068417  0.16441580  1.0
  Cd  Cd128  1  0.07863167  0.79401750  0.16441580  1.0
  Cd  Cd129  1  0.41196500  0.12735083  0.16441580  1.0
  Cd  Cd130  1  0.41196500  0.46068417  0.16441580  1.0
  Cd  Cd131  1  0.41196500  0.79401750  0.16441580  1.0
  Cd  Cd132  1  0.74529833  0.12735083  0.16441580  1.0
  Cd  Cd133  1  0.74529833  0.46068417  0.16441580  1.0
  Cd  Cd134  1  0.74529833  0.79401750  0.16441580  1.0
  Cd  Cd135  1  0.07863167  0.29401750  0.06441580  1.0
  Cd  Cd136  1  0.07863167  0.62735083  0.06441580  1.0
  Cd  Cd137  1  0.07863167  0.96068417  0.06441580  1.0
  Cd  Cd138  1  0.41196500  0.29401750  0.06441580  1.0
  Cd  Cd139  1  0.41196500  0.62735083  0.06441580  1.0
  Cd  Cd140  1  0.41196500  0.96068417  0.06441580  1.0
  Cd  Cd141  1  0.74529833  0.29401750  0.06441580  1.0
  Cd  Cd142  1  0.74529833  0.62735083  0.06441580  1.0
  Cd  Cd143  1  0.74529833  0.96068417  0.06441580  1.0
  Cd  Cd144  1  0.07863167  0.12735083  0.07005780  1.0
  Cd  Cd145  1  0.07863167  0.46068417  0.07005780  1.0
  Cd  Cd146  1  0.07863167  0.79401750  0.07005780  1.0
  Cd  Cd147  1  0.41196500  0.12735083  0.07005780  1.0
  Cd  Cd148  1  0.41196500  0.46068417  0.07005780  1.0
  Cd  Cd149  1  0.41196500  0.79401750  0.07005780  1.0
  Cd  Cd150  1  0.74529833  0.12735083  0.07005780  1.0
  Cd  Cd151  1  0.74529833  0.46068417  0.07005780  1.0
  Cd  Cd152  1  0.74529833  0.79401750  0.07005780  1.0
  Cd  Cd153  1  0.07863167  0.29401750  0.17005780  1.0
  Cd  Cd154  1  0.07863167  0.62735083  0.17005780  1.0
  Cd  Cd155  1  0.07863167  0.96068417  0.17005780  1.0
  Cd  Cd156  1  0.41196500  0.29401750  0.17005780  1.0
  Cd  Cd157  1  0.41196500  0.62735083  0.17005780  1.0
  Cd  Cd158  1  0.41196500  0.96068417  0.17005780  1.0
  Cd  Cd159  1  0.74529833  0.29401750  0.17005780  1.0
  Cd  Cd160  1  0.74529833  0.62735083  0.17005780  1.0
  Cd  Cd161  1  0.74529833  0.96068417  0.17005780  1.0
  Cd  Cd162  1  0.25470167  0.12735083  0.16441580  1.0
  Cd  Cd163  1  0.25470167  0.46068417  0.16441580  1.0
  Cd  Cd164  1  0.25470167  0.79401750  0.16441580  1.0
  Cd  Cd165  1  0.58803500  0.12735083  0.16441580  1.0
  Cd  Cd166  1  0.58803500  0.46068417  0.16441580  1.0
  Cd  Cd167  1  0.58803500  0.79401750  0.16441580  1.0
  Cd  Cd168  1  0.92136833  0.12735083  0.16441580  1.0
  Cd  Cd169  1  0.92136833  0.46068417  0.16441580  1.0
  Cd  Cd170  1  0.92136833  0.79401750  0.16441580  1.0
  Cd  Cd171  1  0.25470167  0.29401750  0.06441580  1.0
  Cd  Cd172  1  0.25470167  0.62735083  0.06441580  1.0
  Cd  Cd173  1  0.25470167  0.96068417  0.06441580  1.0
  Cd  Cd174  1  0.58803500  0.29401750  0.06441580  1.0
  Cd  Cd175  1  0.58803500  0.62735083  0.06441580  1.0
  Cd  Cd176  1  0.58803500  0.96068417  0.06441580  1.0
  Cd  Cd177  1  0.92136833  0.29401750  0.06441580  1.0
  Cd  Cd178  1  0.92136833  0.62735083  0.06441580  1.0
  Cd  Cd179  1  0.92136833  0.96068417  0.06441580  1.0
  Cd  Cd180  1  0.07863167  0.03931583  0.12287880  1.0
  Cd  Cd181  1  0.07863167  0.37264917  0.12287880  1.0
  Cd  Cd182  1  0.07863167  0.70598250  0.12287880  1.0
  Cd  Cd183  1  0.41196500  0.03931583  0.12287880  1.0
  Cd  Cd184  1  0.41196500  0.37264917  0.12287880  1.0
  Cd  Cd185  1  0.41196500  0.70598250  0.12287880  1.0
  Cd  Cd186  1  0.74529833  0.03931583  0.12287880  1.0
  Cd  Cd187  1  0.74529833  0.37264917  0.12287880  1.0
  Cd  Cd188  1  0.74529833  0.70598250  0.12287880  1.0
  Cd  Cd189  1  0.07863167  0.20598250  0.02287880  1.0
  Cd  Cd190  1  0.07863167  0.53931583  0.02287880  1.0
  Cd  Cd191  1  0.07863167  0.87264917  0.02287880  1.0
  Cd  Cd192  1  0.41196500  0.20598250  0.02287880  1.0
  Cd  Cd193  1  0.41196500  0.53931583  0.02287880  1.0
  Cd  Cd194  1  0.41196500  0.87264917  0.02287880  1.0
  Cd  Cd195  1  0.74529833  0.20598250  0.02287880  1.0
  Cd  Cd196  1  0.74529833  0.53931583  0.02287880  1.0
  Cd  Cd197  1  0.74529833  0.87264917  0.02287880  1.0
  Cd  Cd198  1  0.16196500  0.00235083  0.19505780  1.0
  Cd  Cd199  1  0.16196500  0.33568417  0.19505780  1.0
  Cd  Cd200  1  0.16196500  0.66901750  0.19505780  1.0
  Cd  Cd201  1  0.49529833  0.00235083  0.19505780  1.0
  Cd  Cd202  1  0.49529833  0.33568417  0.19505780  1.0
  Cd  Cd203  1  0.49529833  0.66901750  0.19505780  1.0
  Cd  Cd204  1  0.82863167  0.00235083  0.19505780  1.0
  Cd  Cd205  1  0.82863167  0.33568417  0.19505780  1.0
  Cd  Cd206  1  0.82863167  0.66901750  0.19505780  1.0
  Cd  Cd207  1  0.16196500  0.16901750  0.09505780  1.0
  Cd  Cd208  1  0.16196500  0.50235083  0.09505780  1.0
  Cd  Cd209  1  0.16196500  0.83568417  0.09505780  1.0
  Cd  Cd210  1  0.49529833  0.16901750  0.09505780  1.0
  Cd  Cd211  1  0.49529833  0.50235083  0.09505780  1.0
  Cd  Cd212  1  0.49529833  0.83568417  0.09505780  1.0
  Cd  Cd213  1  0.82863167  0.16901750  0.09505780  1.0
  Cd  Cd214  1  0.82863167  0.50235083  0.09505780  1.0
  Cd  Cd215  1  0.82863167  0.83568417  0.09505780  1.0
  Ni  Ni216  1  0.14275933  0.07137967  0.03647510  1.0
  Ni  Ni217  1  0.14275933  0.40471300  0.03647510  1.0
  Ni  Ni218  1  0.14275933  0.73804633  0.03647510  1.0
  Ni  Ni219  1  0.47609267  0.07137967  0.03647510  1.0
  Ni  Ni220  1  0.47609267  0.40471300  0.03647510  1.0
  Ni  Ni221  1  0.47609267  0.73804633  0.03647510  1.0
  Ni  Ni222  1  0.80942600  0.07137967  0.03647510  1.0
  Ni  Ni223  1  0.80942600  0.40471300  0.03647510  1.0
  Ni  Ni224  1  0.80942600  0.73804633  0.03647510  1.0
  Ni  Ni225  1  0.14275933  0.23804633  0.13647510  1.0
  Ni  Ni226  1  0.14275933  0.57137967  0.13647510  1.0
  Ni  Ni227  1  0.14275933  0.90471300  0.13647510  1.0
  Ni  Ni228  1  0.47609267  0.23804633  0.13647510  1.0
  Ni  Ni229  1  0.47609267  0.57137967  0.13647510  1.0
  Ni  Ni230  1  0.47609267  0.90471300  0.13647510  1.0
  Ni  Ni231  1  0.80942600  0.23804633  0.13647510  1.0
  Ni  Ni232  1  0.80942600  0.57137967  0.13647510  1.0
  Ni  Ni233  1  0.80942600  0.90471300  0.13647510  1.0
  Ni  Ni234  1  0.27390733  0.13695367  0.01844190  1.0
  Ni  Ni235  1  0.27390733  0.47028700  0.01844190  1.0
  Ni  Ni236  1  0.27390733  0.80362033  0.01844190  1.0
  Ni  Ni237  1  0.60724067  0.13695367  0.01844190  1.0
  Ni  Ni238  1  0.60724067  0.47028700  0.01844190  1.0
  Ni  Ni239  1  0.60724067  0.80362033  0.01844190  1.0
  Ni  Ni240  1  0.94057400  0.13695367  0.01844190  1.0
  Ni  Ni241  1  0.94057400  0.47028700  0.01844190  1.0
  Ni  Ni242  1  0.94057400  0.80362033  0.01844190  1.0
  Ni  Ni243  1  0.27390733  0.30362033  0.11844190  1.0
  Ni  Ni244  1  0.27390733  0.63695367  0.11844190  1.0
  Ni  Ni245  1  0.27390733  0.97028700  0.11844190  1.0
  Ni  Ni246  1  0.60724067  0.30362033  0.11844190  1.0
  Ni  Ni247  1  0.60724067  0.63695367  0.11844190  1.0
  Ni  Ni248  1  0.60724067  0.97028700  0.11844190  1.0
  Ni  Ni249  1  0.94057400  0.30362033  0.11844190  1.0
  Ni  Ni250  1  0.94057400  0.63695367  0.11844190  1.0
  Ni  Ni251  1  0.94057400  0.97028700  0.11844190  1.0
  Ni  Ni252  1  0.27390733  0.08913900  0.10450830  1.0
  Ni  Ni253  1  0.27390733  0.42247233  0.10450830  1.0
  Ni  Ni254  1  0.27390733  0.75580567  0.10450830  1.0
  Ni  Ni255  1  0.60724067  0.08913900  0.10450830  1.0
  Ni  Ni256  1  0.60724067  0.42247233  0.10450830  1.0
  Ni  Ni257  1  0.60724067  0.75580567  0.10450830  1.0
  Ni  Ni258  1  0.94057400  0.08913900  0.10450830  1.0
  Ni  Ni259  1  0.94057400  0.42247233  0.10450830  1.0
  Ni  Ni260  1  0.94057400  0.75580567  0.10450830  1.0
  Ni  Ni261  1  0.27390733  0.25580567  0.00450830  1.0
  Ni  Ni262  1  0.27390733  0.58913900  0.00450830  1.0
  Ni  Ni263  1  0.27390733  0.92247233  0.00450830  1.0
  Ni  Ni264  1  0.60724067  0.25580567  0.00450830  1.0
  Ni  Ni265  1  0.60724067  0.58913900  0.00450830  1.0
  Ni  Ni266  1  0.60724067  0.92247233  0.00450830  1.0
  Ni  Ni267  1  0.94057400  0.25580567  0.00450830  1.0
  Ni  Ni268  1  0.94057400  0.58913900  0.00450830  1.0
  Ni  Ni269  1  0.94057400  0.92247233  0.00450830  1.0
  Ni  Ni270  1  0.17827800  0.13695367  0.07581950  1.0
  Ni  Ni271  1  0.17827800  0.47028700  0.07581950  1.0
  Ni  Ni272  1  0.17827800  0.80362033  0.07581950  1.0
  Ni  Ni273  1  0.51161133  0.13695367  0.07581950  1.0
  Ni  Ni274  1  0.51161133  0.47028700  0.07581950  1.0
  Ni  Ni275  1  0.51161133  0.80362033  0.07581950  1.0
  Ni  Ni276  1  0.84494467  0.13695367  0.07581950  1.0
  Ni  Ni277  1  0.84494467  0.47028700  0.07581950  1.0
  Ni  Ni278  1  0.84494467  0.80362033  0.07581950  1.0
  Ni  Ni279  1  0.17827800  0.30362033  0.17581950  1.0
  Ni  Ni280  1  0.17827800  0.63695367  0.17581950  1.0
  Ni  Ni281  1  0.17827800  0.97028700  0.17581950  1.0
  Ni  Ni282  1  0.51161133  0.30362033  0.17581950  1.0
  Ni  Ni283  1  0.51161133  0.63695367  0.17581950  1.0
  Ni  Ni284  1  0.51161133  0.97028700  0.17581950  1.0
  Ni  Ni285  1  0.84494467  0.30362033  0.17581950  1.0
  Ni  Ni286  1  0.84494467  0.63695367  0.17581950  1.0
  Ni  Ni287  1  0.84494467  0.97028700  0.17581950  1.0
  Ni  Ni288  1  0.14275933  0.11919433  0.00778630  1.0
  Ni  Ni289  1  0.14275933  0.45252767  0.00778630  1.0
  Ni  Ni290  1  0.14275933  0.78586100  0.00778630  1.0
  Ni  Ni291  1  0.47609267  0.11919433  0.00778630  1.0
  Ni  Ni292  1  0.47609267  0.45252767  0.00778630  1.0
  Ni  Ni293  1  0.47609267  0.78586100  0.00778630  1.0
  Ni  Ni294  1  0.80942600  0.11919433  0.00778630  1.0
  Ni  Ni295  1  0.80942600  0.45252767  0.00778630  1.0
  Ni  Ni296  1  0.80942600  0.78586100  0.00778630  1.0
  Ni  Ni297  1  0.14275933  0.28586100  0.10778630  1.0
  Ni  Ni298  1  0.14275933  0.61919433  0.10778630  1.0
  Ni  Ni299  1  0.14275933  0.95252767  0.10778630  1.0
  Ni  Ni300  1  0.47609267  0.28586100  0.10778630  1.0
  Ni  Ni301  1  0.47609267  0.61919433  0.10778630  1.0
  Ni  Ni302  1  0.47609267  0.95252767  0.10778630  1.0
  Ni  Ni303  1  0.80942600  0.28586100  0.10778630  1.0
  Ni  Ni304  1  0.80942600  0.61919433  0.10778630  1.0
  Ni  Ni305  1  0.80942600  0.95252767  0.10778630  1.0
  Ni  Ni306  1  0.23838867  0.07137967  0.03647510  1.0
  Ni  Ni307  1  0.23838867  0.40471300  0.03647510  1.0
  Ni  Ni308  1  0.23838867  0.73804633  0.03647510  1.0
  Ni  Ni309  1  0.57172200  0.07137967  0.03647510  1.0
  Ni  Ni310  1  0.57172200  0.40471300  0.03647510  1.0
  Ni  Ni311  1  0.57172200  0.73804633  0.03647510  1.0
  Ni  Ni312  1  0.90505533  0.07137967  0.03647510  1.0
  Ni  Ni313  1  0.90505533  0.40471300  0.03647510  1.0
  Ni  Ni314  1  0.90505533  0.73804633  0.03647510  1.0
  Ni  Ni315  1  0.23838867  0.23804633  0.13647510  1.0
  Ni  Ni316  1  0.23838867  0.57137967  0.13647510  1.0
  Ni  Ni317  1  0.23838867  0.90471300  0.13647510  1.0
  Ni  Ni318  1  0.57172200  0.23804633  0.13647510  1.0
  Ni  Ni319  1  0.57172200  0.57137967  0.13647510  1.0
  Ni  Ni320  1  0.57172200  0.90471300  0.13647510  1.0
  Ni  Ni321  1  0.90505533  0.23804633  0.13647510  1.0
  Ni  Ni322  1  0.90505533  0.57137967  0.13647510  1.0
  Ni  Ni323  1  0.90505533  0.90471300  0.13647510  1.0
  Ni  Ni324  1  0.14275933  0.07137967  0.09385270  1.0
  Ni  Ni325  1  0.14275933  0.40471300  0.09385270  1.0
  Ni  Ni326  1  0.14275933  0.73804633  0.09385270  1.0
  Ni  Ni327  1  0.47609267  0.07137967  0.09385270  1.0
  Ni  Ni328  1  0.47609267  0.40471300  0.09385270  1.0
  Ni  Ni329  1  0.47609267  0.73804633  0.09385270  1.0
  Ni  Ni330  1  0.80942600  0.07137967  0.09385270  1.0
  Ni  Ni331  1  0.80942600  0.40471300  0.09385270  1.0
  Ni  Ni332  1  0.80942600  0.73804633  0.09385270  1.0
  Ni  Ni333  1  0.14275933  0.23804633  0.19385270  1.0
  Ni  Ni334  1  0.14275933  0.57137967  0.19385270  1.0
  Ni  Ni335  1  0.14275933  0.90471300  0.19385270  1.0
  Ni  Ni336  1  0.47609267  0.23804633  0.19385270  1.0
  Ni  Ni337  1  0.47609267  0.57137967  0.19385270  1.0
  Ni  Ni338  1  0.47609267  0.90471300  0.19385270  1.0
  Ni  Ni339  1  0.80942600  0.23804633  0.19385270  1.0
  Ni  Ni340  1  0.80942600  0.57137967  0.19385270  1.0
  Ni  Ni341  1  0.80942600  0.90471300  0.19385270  1.0
  Ni  Ni342  1  0.27390733  0.13695367  0.07581950  1.0
  Ni  Ni343  1  0.27390733  0.47028700  0.07581950  1.0
  Ni  Ni344  1  0.27390733  0.80362033  0.07581950  1.0
  Ni  Ni345  1  0.60724067  0.13695367  0.07581950  1.0
  Ni  Ni346  1  0.60724067  0.47028700  0.07581950  1.0
  Ni  Ni347  1  0.60724067  0.80362033  0.07581950  1.0
  Ni  Ni348  1  0.94057400  0.13695367  0.07581950  1.0
  Ni  Ni349  1  0.94057400  0.47028700  0.07581950  1.0
  Ni  Ni350  1  0.94057400  0.80362033  0.07581950  1.0
  Ni  Ni351  1  0.27390733  0.30362033  0.17581950  1.0
  Ni  Ni352  1  0.27390733  0.63695367  0.17581950  1.0
  Ni  Ni353  1  0.27390733  0.97028700  0.17581950  1.0
  Ni  Ni354  1  0.60724067  0.30362033  0.17581950  1.0
  Ni  Ni355  1  0.60724067  0.63695367  0.17581950  1.0
  Ni  Ni356  1  0.60724067  0.97028700  0.17581950  1.0
  Ni  Ni357  1  0.94057400  0.30362033  0.17581950  1.0
  Ni  Ni358  1  0.94057400  0.63695367  0.17581950  1.0
  Ni  Ni359  1  0.94057400  0.97028700  0.17581950  1.0
  Ni  Ni360  1  0.04166667  0.10416667  0.15614730  1.0
  Ni  Ni361  1  0.04166667  0.43750000  0.15614730  1.0
  Ni  Ni362  1  0.04166667  0.77083333  0.15614730  1.0
  Ni  Ni363  1  0.37500000  0.10416667  0.15614730  1.0
  Ni  Ni364  1  0.37500000  0.43750000  0.15614730  1.0
  Ni  Ni365  1  0.37500000  0.77083333  0.15614730  1.0
  Ni  Ni366  1  0.70833333  0.10416667  0.15614730  1.0
  Ni  Ni367  1  0.70833333  0.43750000  0.15614730  1.0
  Ni  Ni368  1  0.70833333  0.77083333  0.15614730  1.0
  Ni  Ni369  1  0.04166667  0.27083333  0.05614730  1.0
  Ni  Ni370  1  0.04166667  0.60416667  0.05614730  1.0
  Ni  Ni371  1  0.04166667  0.93750000  0.05614730  1.0
  Ni  Ni372  1  0.37500000  0.27083333  0.05614730  1.0
  Ni  Ni373  1  0.37500000  0.60416667  0.05614730  1.0
  Ni  Ni374  1  0.37500000  0.93750000  0.05614730  1.0
  Ni  Ni375  1  0.70833333  0.27083333  0.05614730  1.0
  Ni  Ni376  1  0.70833333  0.60416667  0.05614730  1.0
  Ni  Ni377  1  0.70833333  0.93750000  0.05614730  1.0
  Ni  Ni378  1  0.20833333  0.02083333  0.00614730  1.0
  Ni  Ni379  1  0.20833333  0.35416667  0.00614730  1.0
  Ni  Ni380  1  0.20833333  0.68750000  0.00614730  1.0
  Ni  Ni381  1  0.54166667  0.02083333  0.00614730  1.0
  Ni  Ni382  1  0.54166667  0.35416667  0.00614730  1.0
  Ni  Ni383  1  0.54166667  0.68750000  0.00614730  1.0
  Ni  Ni384  1  0.87500000  0.02083333  0.00614730  1.0
  Ni  Ni385  1  0.87500000  0.35416667  0.00614730  1.0
  Ni  Ni386  1  0.87500000  0.68750000  0.00614730  1.0
  Ni  Ni387  1  0.20833333  0.18750000  0.10614730  1.0
  Ni  Ni388  1  0.20833333  0.52083333  0.10614730  1.0
  Ni  Ni389  1  0.20833333  0.85416667  0.10614730  1.0
  Ni  Ni390  1  0.54166667  0.18750000  0.10614730  1.0
  Ni  Ni391  1  0.54166667  0.52083333  0.10614730  1.0
  Ni  Ni392  1  0.54166667  0.85416667  0.10614730  1.0
  Ni  Ni393  1  0.87500000  0.18750000  0.10614730  1.0
  Ni  Ni394  1  0.87500000  0.52083333  0.10614730  1.0
  Ni  Ni395  1  0.87500000  0.85416667  0.10614730  1.0
  Ni  Ni396  1  0.04166667  0.02083333  0.10614730  1.0
  Ni  Ni397  1  0.04166667  0.35416667  0.10614730  1.0
  Ni  Ni398  1  0.04166667  0.68750000  0.10614730  1.0
  Ni  Ni399  1  0.37500000  0.02083333  0.10614730  1.0
  Ni  Ni400  1  0.37500000  0.35416667  0.10614730  1.0
  Ni  Ni401  1  0.37500000  0.68750000  0.10614730  1.0
  Ni  Ni402  1  0.70833333  0.02083333  0.10614730  1.0
  Ni  Ni403  1  0.70833333  0.35416667  0.10614730  1.0
  Ni  Ni404  1  0.70833333  0.68750000  0.10614730  1.0
  Ni  Ni405  1  0.04166667  0.18750000  0.00614730  1.0
  Ni  Ni406  1  0.04166667  0.52083333  0.00614730  1.0
  Ni  Ni407  1  0.04166667  0.85416667  0.00614730  1.0
  Ni  Ni408  1  0.37500000  0.18750000  0.00614730  1.0
  Ni  Ni409  1  0.37500000  0.52083333  0.00614730  1.0
  Ni  Ni410  1  0.37500000  0.85416667  0.00614730  1.0
  Ni  Ni411  1  0.70833333  0.18750000  0.00614730  1.0
  Ni  Ni412  1  0.70833333  0.52083333  0.00614730  1.0
  Ni  Ni413  1  0.70833333  0.85416667  0.00614730  1.0
  Ni  Ni414  1  0.04166667  0.02083333  0.00614730  1.0
  Ni  Ni415  1  0.04166667  0.35416667  0.00614730  1.0
  Ni  Ni416  1  0.04166667  0.68750000  0.00614730  1.0
  Ni  Ni417  1  0.37500000  0.02083333  0.00614730  1.0
  Ni  Ni418  1  0.37500000  0.35416667  0.00614730  1.0
  Ni  Ni419  1  0.37500000  0.68750000  0.00614730  1.0
  Ni  Ni420  1  0.70833333  0.02083333  0.00614730  1.0
  Ni  Ni421  1  0.70833333  0.35416667  0.00614730  1.0
  Ni  Ni422  1  0.70833333  0.68750000  0.00614730  1.0
  Ni  Ni423  1  0.04166667  0.18750000  0.10614730  1.0
  Ni  Ni424  1  0.04166667  0.52083333  0.10614730  1.0
  Ni  Ni425  1  0.04166667  0.85416667  0.10614730  1.0
  Ni  Ni426  1  0.37500000  0.18750000  0.10614730  1.0
  Ni  Ni427  1  0.37500000  0.52083333  0.10614730  1.0
  Ni  Ni428  1  0.37500000  0.85416667  0.10614730  1.0
  Ni  Ni429  1  0.70833333  0.18750000  0.10614730  1.0
  Ni  Ni430  1  0.70833333  0.52083333  0.10614730  1.0
  Ni  Ni431  1  0.70833333  0.85416667  0.10614730  1.0
  Cd  Cd432  1  0.00470167  0.08098250  0.24223680  1.0
  Cd  Cd433  1  0.00470167  0.41431583  0.24223680  1.0
  Cd  Cd434  1  0.00470167  0.74764917  0.24223680  1.0
  Cd  Cd435  1  0.33803500  0.08098250  0.24223680  1.0
  Cd  Cd436  1  0.33803500  0.41431583  0.24223680  1.0
  Cd  Cd437  1  0.33803500  0.74764917  0.24223680  1.0
  Cd  Cd438  1  0.67136833  0.08098250  0.24223680  1.0
  Cd  Cd439  1  0.67136833  0.41431583  0.24223680  1.0
  Cd  Cd440  1  0.67136833  0.74764917  0.24223680  1.0
  Cd  Cd441  1  0.00470167  0.24764917  0.34223680  1.0
  Cd  Cd442  1  0.00470167  0.58098250  0.34223680  1.0
  Cd  Cd443  1  0.00470167  0.91431583  0.34223680  1.0
  Cd  Cd444  1  0.33803500  0.24764917  0.34223680  1.0
  Cd  Cd445  1  0.33803500  0.58098250  0.34223680  1.0
  Cd  Cd446  1  0.33803500  0.91431583  0.34223680  1.0
  Cd  Cd447  1  0.67136833  0.24764917  0.34223680  1.0
  Cd  Cd448  1  0.67136833  0.58098250  0.34223680  1.0
  Cd  Cd449  1  0.67136833  0.91431583  0.34223680  1.0
  Cd  Cd450  1  0.25470167  0.03931583  0.21723680  1.0
  Cd  Cd451  1  0.25470167  0.37264917  0.21723680  1.0
  Cd  Cd452  1  0.25470167  0.70598250  0.21723680  1.0
  Cd  Cd453  1  0.58803500  0.03931583  0.21723680  1.0
  Cd  Cd454  1  0.58803500  0.37264917  0.21723680  1.0
  Cd  Cd455  1  0.58803500  0.70598250  0.21723680  1.0
  Cd  Cd456  1  0.92136833  0.03931583  0.21723680  1.0
  Cd  Cd457  1  0.92136833  0.37264917  0.21723680  1.0
  Cd  Cd458  1  0.92136833  0.70598250  0.21723680  1.0
  Cd  Cd459  1  0.25470167  0.20598250  0.31723680  1.0
  Cd  Cd460  1  0.25470167  0.53931583  0.31723680  1.0
  Cd  Cd461  1  0.25470167  0.87264917  0.31723680  1.0
  Cd  Cd462  1  0.58803500  0.20598250  0.31723680  1.0
  Cd  Cd463  1  0.58803500  0.53931583  0.31723680  1.0
  Cd  Cd464  1  0.58803500  0.87264917  0.31723680  1.0
  Cd  Cd465  1  0.92136833  0.20598250  0.31723680  1.0
  Cd  Cd466  1  0.92136833  0.53931583  0.31723680  1.0
  Cd  Cd467  1  0.92136833  0.87264917  0.31723680  1.0
  Cd  Cd468  1  0.16196500  0.00235083  0.28941580  1.0
  Cd  Cd469  1  0.16196500  0.33568417  0.28941580  1.0
  Cd  Cd470  1  0.16196500  0.66901750  0.28941580  1.0
  Cd  Cd471  1  0.49529833  0.00235083  0.28941580  1.0
  Cd  Cd472  1  0.49529833  0.33568417  0.28941580  1.0
  Cd  Cd473  1  0.49529833  0.66901750  0.28941580  1.0
  Cd  Cd474  1  0.82863167  0.00235083  0.28941580  1.0
  Cd  Cd475  1  0.82863167  0.33568417  0.28941580  1.0
  Cd  Cd476  1  0.82863167  0.66901750  0.28941580  1.0
  Cd  Cd477  1  0.16196500  0.16901750  0.38941580  1.0
  Cd  Cd478  1  0.16196500  0.50235083  0.38941580  1.0
  Cd  Cd479  1  0.16196500  0.83568417  0.38941580  1.0
  Cd  Cd480  1  0.49529833  0.16901750  0.38941580  1.0
  Cd  Cd481  1  0.49529833  0.50235083  0.38941580  1.0
  Cd  Cd482  1  0.49529833  0.83568417  0.38941580  1.0
  Cd  Cd483  1  0.82863167  0.16901750  0.38941580  1.0
  Cd  Cd484  1  0.82863167  0.50235083  0.38941580  1.0
  Cd  Cd485  1  0.82863167  0.83568417  0.38941580  1.0
  Cd  Cd486  1  0.16196500  0.08098250  0.34787880  1.0
  Cd  Cd487  1  0.16196500  0.41431583  0.34787880  1.0
  Cd  Cd488  1  0.16196500  0.74764917  0.34787880  1.0
  Cd  Cd489  1  0.49529833  0.08098250  0.34787880  1.0
  Cd  Cd490  1  0.49529833  0.41431583  0.34787880  1.0
  Cd  Cd491  1  0.49529833  0.74764917  0.34787880  1.0
  Cd  Cd492  1  0.82863167  0.08098250  0.34787880  1.0
  Cd  Cd493  1  0.82863167  0.41431583  0.34787880  1.0
  Cd  Cd494  1  0.82863167  0.74764917  0.34787880  1.0
  Cd  Cd495  1  0.16196500  0.24764917  0.24787880  1.0
  Cd  Cd496  1  0.16196500  0.58098250  0.24787880  1.0
  Cd  Cd497  1  0.16196500  0.91431583  0.24787880  1.0
  Cd  Cd498  1  0.49529833  0.24764917  0.24787880  1.0
  Cd  Cd499  1  0.49529833  0.58098250  0.24787880  1.0
  Cd  Cd500  1  0.49529833  0.91431583  0.24787880  1.0
  Cd  Cd501  1  0.82863167  0.24764917  0.24787880  1.0
  Cd  Cd502  1  0.82863167  0.58098250  0.24787880  1.0
  Cd  Cd503  1  0.82863167  0.91431583  0.24787880  1.0
  Cd  Cd504  1  0.00470167  0.00235083  0.28941580  1.0
  Cd  Cd505  1  0.00470167  0.33568417  0.28941580  1.0
  Cd  Cd506  1  0.00470167  0.66901750  0.28941580  1.0
  Cd  Cd507  1  0.33803500  0.00235083  0.28941580  1.0
  Cd  Cd508  1  0.33803500  0.33568417  0.28941580  1.0
  Cd  Cd509  1  0.33803500  0.66901750  0.28941580  1.0
  Cd  Cd510  1  0.67136833  0.00235083  0.28941580  1.0
  Cd  Cd511  1  0.67136833  0.33568417  0.28941580  1.0
  Cd  Cd512  1  0.67136833  0.66901750  0.28941580  1.0
  Cd  Cd513  1  0.00470167  0.16901750  0.38941580  1.0
  Cd  Cd514  1  0.00470167  0.50235083  0.38941580  1.0
  Cd  Cd515  1  0.00470167  0.83568417  0.38941580  1.0
  Cd  Cd516  1  0.33803500  0.16901750  0.38941580  1.0
  Cd  Cd517  1  0.33803500  0.50235083  0.38941580  1.0
  Cd  Cd518  1  0.33803500  0.83568417  0.38941580  1.0
  Cd  Cd519  1  0.67136833  0.16901750  0.38941580  1.0
  Cd  Cd520  1  0.67136833  0.50235083  0.38941580  1.0
  Cd  Cd521  1  0.67136833  0.83568417  0.38941580  1.0
  Cd  Cd522  1  0.00470167  0.08098250  0.34787880  1.0
  Cd  Cd523  1  0.00470167  0.41431583  0.34787880  1.0
  Cd  Cd524  1  0.00470167  0.74764917  0.34787880  1.0
  Cd  Cd525  1  0.33803500  0.08098250  0.34787880  1.0
  Cd  Cd526  1  0.33803500  0.41431583  0.34787880  1.0
  Cd  Cd527  1  0.33803500  0.74764917  0.34787880  1.0
  Cd  Cd528  1  0.67136833  0.08098250  0.34787880  1.0
  Cd  Cd529  1  0.67136833  0.41431583  0.34787880  1.0
  Cd  Cd530  1  0.67136833  0.74764917  0.34787880  1.0
  Cd  Cd531  1  0.00470167  0.24764917  0.24787880  1.0
  Cd  Cd532  1  0.00470167  0.58098250  0.24787880  1.0
  Cd  Cd533  1  0.00470167  0.91431583  0.24787880  1.0
  Cd  Cd534  1  0.33803500  0.24764917  0.24787880  1.0
  Cd  Cd535  1  0.33803500  0.58098250  0.24787880  1.0
  Cd  Cd536  1  0.33803500  0.91431583  0.24787880  1.0
  Cd  Cd537  1  0.67136833  0.24764917  0.24787880  1.0
  Cd  Cd538  1  0.67136833  0.58098250  0.24787880  1.0
  Cd  Cd539  1  0.67136833  0.91431583  0.24787880  1.0
  Cd  Cd540  1  0.25470167  0.03931583  0.32287880  1.0
  Cd  Cd541  1  0.25470167  0.37264917  0.32287880  1.0
  Cd  Cd542  1  0.25470167  0.70598250  0.32287880  1.0
  Cd  Cd543  1  0.58803500  0.03931583  0.32287880  1.0
  Cd  Cd544  1  0.58803500  0.37264917  0.32287880  1.0
  Cd  Cd545  1  0.58803500  0.70598250  0.32287880  1.0
  Cd  Cd546  1  0.92136833  0.03931583  0.32287880  1.0
  Cd  Cd547  1  0.92136833  0.37264917  0.32287880  1.0
  Cd  Cd548  1  0.92136833  0.70598250  0.32287880  1.0
  Cd  Cd549  1  0.25470167  0.20598250  0.22287880  1.0
  Cd  Cd550  1  0.25470167  0.53931583  0.22287880  1.0
  Cd  Cd551  1  0.25470167  0.87264917  0.22287880  1.0
  Cd  Cd552  1  0.58803500  0.20598250  0.22287880  1.0
  Cd  Cd553  1  0.58803500  0.53931583  0.22287880  1.0
  Cd  Cd554  1  0.58803500  0.87264917  0.22287880  1.0
  Cd  Cd555  1  0.92136833  0.20598250  0.22287880  1.0
  Cd  Cd556  1  0.92136833  0.53931583  0.22287880  1.0
  Cd  Cd557  1  0.92136833  0.87264917  0.22287880  1.0
  Cd  Cd558  1  0.07863167  0.12735083  0.36441580  1.0
  Cd  Cd559  1  0.07863167  0.46068417  0.36441580  1.0
  Cd  Cd560  1  0.07863167  0.79401750  0.36441580  1.0
  Cd  Cd561  1  0.41196500  0.12735083  0.36441580  1.0
  Cd  Cd562  1  0.41196500  0.46068417  0.36441580  1.0
  Cd  Cd563  1  0.41196500  0.79401750  0.36441580  1.0
  Cd  Cd564  1  0.74529833  0.12735083  0.36441580  1.0
  Cd  Cd565  1  0.74529833  0.46068417  0.36441580  1.0
  Cd  Cd566  1  0.74529833  0.79401750  0.36441580  1.0
  Cd  Cd567  1  0.07863167  0.29401750  0.26441580  1.0
  Cd  Cd568  1  0.07863167  0.62735083  0.26441580  1.0
  Cd  Cd569  1  0.07863167  0.96068417  0.26441580  1.0
  Cd  Cd570  1  0.41196500  0.29401750  0.26441580  1.0
  Cd  Cd571  1  0.41196500  0.62735083  0.26441580  1.0
  Cd  Cd572  1  0.41196500  0.96068417  0.26441580  1.0
  Cd  Cd573  1  0.74529833  0.29401750  0.26441580  1.0
  Cd  Cd574  1  0.74529833  0.62735083  0.26441580  1.0
  Cd  Cd575  1  0.74529833  0.96068417  0.26441580  1.0
  Cd  Cd576  1  0.07863167  0.12735083  0.27005780  1.0
  Cd  Cd577  1  0.07863167  0.46068417  0.27005780  1.0
  Cd  Cd578  1  0.07863167  0.79401750  0.27005780  1.0
  Cd  Cd579  1  0.41196500  0.12735083  0.27005780  1.0
  Cd  Cd580  1  0.41196500  0.46068417  0.27005780  1.0
  Cd  Cd581  1  0.41196500  0.79401750  0.27005780  1.0
  Cd  Cd582  1  0.74529833  0.12735083  0.27005780  1.0
  Cd  Cd583  1  0.74529833  0.46068417  0.27005780  1.0
  Cd  Cd584  1  0.74529833  0.79401750  0.27005780  1.0
  Cd  Cd585  1  0.07863167  0.29401750  0.37005780  1.0
  Cd  Cd586  1  0.07863167  0.62735083  0.37005780  1.0
  Cd  Cd587  1  0.07863167  0.96068417  0.37005780  1.0
  Cd  Cd588  1  0.41196500  0.29401750  0.37005780  1.0
  Cd  Cd589  1  0.41196500  0.62735083  0.37005780  1.0
  Cd  Cd590  1  0.41196500  0.96068417  0.37005780  1.0
  Cd  Cd591  1  0.74529833  0.29401750  0.37005780  1.0
  Cd  Cd592  1  0.74529833  0.62735083  0.37005780  1.0
  Cd  Cd593  1  0.74529833  0.96068417  0.37005780  1.0
  Cd  Cd594  1  0.25470167  0.12735083  0.36441580  1.0
  Cd  Cd595  1  0.25470167  0.46068417  0.36441580  1.0
  Cd  Cd596  1  0.25470167  0.79401750  0.36441580  1.0
  Cd  Cd597  1  0.58803500  0.12735083  0.36441580  1.0
  Cd  Cd598  1  0.58803500  0.46068417  0.36441580  1.0
  Cd  Cd599  1  0.58803500  0.79401750  0.36441580  1.0
  Cd  Cd600  1  0.92136833  0.12735083  0.36441580  1.0
  Cd  Cd601  1  0.92136833  0.46068417  0.36441580  1.0
  Cd  Cd602  1  0.92136833  0.79401750  0.36441580  1.0
  Cd  Cd603  1  0.25470167  0.29401750  0.26441580  1.0
  Cd  Cd604  1  0.25470167  0.62735083  0.26441580  1.0
  Cd  Cd605  1  0.25470167  0.96068417  0.26441580  1.0
  Cd  Cd606  1  0.58803500  0.29401750  0.26441580  1.0
  Cd  Cd607  1  0.58803500  0.62735083  0.26441580  1.0
  Cd  Cd608  1  0.58803500  0.96068417  0.26441580  1.0
  Cd  Cd609  1  0.92136833  0.29401750  0.26441580  1.0
  Cd  Cd610  1  0.92136833  0.62735083  0.26441580  1.0
  Cd  Cd611  1  0.92136833  0.96068417  0.26441580  1.0
  Cd  Cd612  1  0.07863167  0.03931583  0.32287880  1.0
  Cd  Cd613  1  0.07863167  0.37264917  0.32287880  1.0
  Cd  Cd614  1  0.07863167  0.70598250  0.32287880  1.0
  Cd  Cd615  1  0.41196500  0.03931583  0.32287880  1.0
  Cd  Cd616  1  0.41196500  0.37264917  0.32287880  1.0
  Cd  Cd617  1  0.41196500  0.70598250  0.32287880  1.0
  Cd  Cd618  1  0.74529833  0.03931583  0.32287880  1.0
  Cd  Cd619  1  0.74529833  0.37264917  0.32287880  1.0
  Cd  Cd620  1  0.74529833  0.70598250  0.32287880  1.0
  Cd  Cd621  1  0.07863167  0.20598250  0.22287880  1.0
  Cd  Cd622  1  0.07863167  0.53931583  0.22287880  1.0
  Cd  Cd623  1  0.07863167  0.87264917  0.22287880  1.0
  Cd  Cd624  1  0.41196500  0.20598250  0.22287880  1.0
  Cd  Cd625  1  0.41196500  0.53931583  0.22287880  1.0
  Cd  Cd626  1  0.41196500  0.87264917  0.22287880  1.0
  Cd  Cd627  1  0.74529833  0.20598250  0.22287880  1.0
  Cd  Cd628  1  0.74529833  0.53931583  0.22287880  1.0
  Cd  Cd629  1  0.74529833  0.87264917  0.22287880  1.0
  Cd  Cd630  1  0.16196500  0.00235083  0.39505780  1.0
  Cd  Cd631  1  0.16196500  0.33568417  0.39505780  1.0
  Cd  Cd632  1  0.16196500  0.66901750  0.39505780  1.0
  Cd  Cd633  1  0.49529833  0.00235083  0.39505780  1.0
  Cd  Cd634  1  0.49529833  0.33568417  0.39505780  1.0
  Cd  Cd635  1  0.49529833  0.66901750  0.39505780  1.0
  Cd  Cd636  1  0.82863167  0.00235083  0.39505780  1.0
  Cd  Cd637  1  0.82863167  0.33568417  0.39505780  1.0
  Cd  Cd638  1  0.82863167  0.66901750  0.39505780  1.0
  Cd  Cd639  1  0.16196500  0.16901750  0.29505780  1.0
  Cd  Cd640  1  0.16196500  0.50235083  0.29505780  1.0
  Cd  Cd641  1  0.16196500  0.83568417  0.29505780  1.0
  Cd  Cd642  1  0.49529833  0.16901750  0.29505780  1.0
  Cd  Cd643  1  0.49529833  0.50235083  0.29505780  1.0
  Cd  Cd644  1  0.49529833  0.83568417  0.29505780  1.0
  Cd  Cd645  1  0.82863167  0.16901750  0.29505780  1.0
  Cd  Cd646  1  0.82863167  0.50235083  0.29505780  1.0
  Cd  Cd647  1  0.82863167  0.83568417  0.29505780  1.0
  Ni  Ni648  1  0.14275933  0.07137967  0.23647510  1.0
  Ni  Ni649  1  0.14275933  0.40471300  0.23647510  1.0
  Ni  Ni650  1  0.14275933  0.73804633  0.23647510  1.0
  Ni  Ni651  1  0.47609267  0.07137967  0.23647510  1.0
  Ni  Ni652  1  0.47609267  0.40471300  0.23647510  1.0
  Ni  Ni653  1  0.47609267  0.73804633  0.23647510  1.0
  Ni  Ni654  1  0.80942600  0.07137967  0.23647510  1.0
  Ni  Ni655  1  0.80942600  0.40471300  0.23647510  1.0
  Ni  Ni656  1  0.80942600  0.73804633  0.23647510  1.0
  Ni  Ni657  1  0.14275933  0.23804633  0.33647510  1.0
  Ni  Ni658  1  0.14275933  0.57137967  0.33647510  1.0
  Ni  Ni659  1  0.14275933  0.90471300  0.33647510  1.0
  Ni  Ni660  1  0.47609267  0.23804633  0.33647510  1.0
  Ni  Ni661  1  0.47609267  0.57137967  0.33647510  1.0
  Ni  Ni662  1  0.47609267  0.90471300  0.33647510  1.0
  Ni  Ni663  1  0.80942600  0.23804633  0.33647510  1.0
  Ni  Ni664  1  0.80942600  0.57137967  0.33647510  1.0
  Ni  Ni665  1  0.80942600  0.90471300  0.33647510  1.0
  Ni  Ni666  1  0.27390733  0.13695367  0.21844190  1.0
  Ni  Ni667  1  0.27390733  0.47028700  0.21844190  1.0
  Ni  Ni668  1  0.27390733  0.80362033  0.21844190  1.0
  Ni  Ni669  1  0.60724067  0.13695367  0.21844190  1.0
  Ni  Ni670  1  0.60724067  0.47028700  0.21844190  1.0
  Ni  Ni671  1  0.60724067  0.80362033  0.21844190  1.0
  Ni  Ni672  1  0.94057400  0.13695367  0.21844190  1.0
  Ni  Ni673  1  0.94057400  0.47028700  0.21844190  1.0
  Ni  Ni674  1  0.94057400  0.80362033  0.21844190  1.0
  Ni  Ni675  1  0.27390733  0.30362033  0.31844190  1.0
  Ni  Ni676  1  0.27390733  0.63695367  0.31844190  1.0
  Ni  Ni677  1  0.27390733  0.97028700  0.31844190  1.0
  Ni  Ni678  1  0.60724067  0.30362033  0.31844190  1.0
  Ni  Ni679  1  0.60724067  0.63695367  0.31844190  1.0
  Ni  Ni680  1  0.60724067  0.97028700  0.31844190  1.0
  Ni  Ni681  1  0.94057400  0.30362033  0.31844190  1.0
  Ni  Ni682  1  0.94057400  0.63695367  0.31844190  1.0
  Ni  Ni683  1  0.94057400  0.97028700  0.31844190  1.0
  Ni  Ni684  1  0.27390733  0.08913900  0.30450830  1.0
  Ni  Ni685  1  0.27390733  0.42247233  0.30450830  1.0
  Ni  Ni686  1  0.27390733  0.75580567  0.30450830  1.0
  Ni  Ni687  1  0.60724067  0.08913900  0.30450830  1.0
  Ni  Ni688  1  0.60724067  0.42247233  0.30450830  1.0
  Ni  Ni689  1  0.60724067  0.75580567  0.30450830  1.0
  Ni  Ni690  1  0.94057400  0.08913900  0.30450830  1.0
  Ni  Ni691  1  0.94057400  0.42247233  0.30450830  1.0
  Ni  Ni692  1  0.94057400  0.75580567  0.30450830  1.0
  Ni  Ni693  1  0.27390733  0.25580567  0.20450830  1.0
  Ni  Ni694  1  0.27390733  0.58913900  0.20450830  1.0
  Ni  Ni695  1  0.27390733  0.92247233  0.20450830  1.0
  Ni  Ni696  1  0.60724067  0.25580567  0.20450830  1.0
  Ni  Ni697  1  0.60724067  0.58913900  0.20450830  1.0
  Ni  Ni698  1  0.60724067  0.92247233  0.20450830  1.0
  Ni  Ni699  1  0.94057400  0.25580567  0.20450830  1.0
  Ni  Ni700  1  0.94057400  0.58913900  0.20450830  1.0
  Ni  Ni701  1  0.94057400  0.92247233  0.20450830  1.0
  Ni  Ni702  1  0.17827800  0.13695367  0.27581950  1.0
  Ni  Ni703  1  0.17827800  0.47028700  0.27581950  1.0
  Ni  Ni704  1  0.17827800  0.80362033  0.27581950  1.0
  Ni  Ni705  1  0.51161133  0.13695367  0.27581950  1.0
  Ni  Ni706  1  0.51161133  0.47028700  0.27581950  1.0
  Ni  Ni707  1  0.51161133  0.80362033  0.27581950  1.0
  Ni  Ni708  1  0.84494467  0.13695367  0.27581950  1.0
  Ni  Ni709  1  0.84494467  0.47028700  0.27581950  1.0
  Ni  Ni710  1  0.84494467  0.80362033  0.27581950  1.0
  Ni  Ni711  1  0.17827800  0.30362033  0.37581950  1.0
  Ni  Ni712  1  0.17827800  0.63695367  0.37581950  1.0
  Ni  Ni713  1  0.17827800  0.97028700  0.37581950  1.0
  Ni  Ni714  1  0.51161133  0.30362033  0.37581950  1.0
  Ni  Ni715  1  0.51161133  0.63695367  0.37581950  1.0
  Ni  Ni716  1  0.51161133  0.97028700  0.37581950  1.0
  Ni  Ni717  1  0.84494467  0.30362033  0.37581950  1.0
  Ni  Ni718  1  0.84494467  0.63695367  0.37581950  1.0
  Ni  Ni719  1  0.84494467  0.97028700  0.37581950  1.0
  Ni  Ni720  1  0.14275933  0.11919433  0.20778630  1.0
  Ni  Ni721  1  0.14275933  0.45252767  0.20778630  1.0
  Ni  Ni722  1  0.14275933  0.78586100  0.20778630  1.0
  Ni  Ni723  1  0.47609267  0.11919433  0.20778630  1.0
  Ni  Ni724  1  0.47609267  0.45252767  0.20778630  1.0
  Ni  Ni725  1  0.47609267  0.78586100  0.20778630  1.0
  Ni  Ni726  1  0.80942600  0.11919433  0.20778630  1.0
  Ni  Ni727  1  0.80942600  0.45252767  0.20778630  1.0
  Ni  Ni728  1  0.80942600  0.78586100  0.20778630  1.0
  Ni  Ni729  1  0.14275933  0.28586100  0.30778630  1.0
  Ni  Ni730  1  0.14275933  0.61919433  0.30778630  1.0
  Ni  Ni731  1  0.14275933  0.95252767  0.30778630  1.0
  Ni  Ni732  1  0.47609267  0.28586100  0.30778630  1.0
  Ni  Ni733  1  0.47609267  0.61919433  0.30778630  1.0
  Ni  Ni734  1  0.47609267  0.95252767  0.30778630  1.0
  Ni  Ni735  1  0.80942600  0.28586100  0.30778630  1.0
  Ni  Ni736  1  0.80942600  0.61919433  0.30778630  1.0
  Ni  Ni737  1  0.80942600  0.95252767  0.30778630  1.0
  Ni  Ni738  1  0.23838867  0.07137967  0.23647510  1.0
  Ni  Ni739  1  0.23838867  0.40471300  0.23647510  1.0
  Ni  Ni740  1  0.23838867  0.73804633  0.23647510  1.0
  Ni  Ni741  1  0.57172200  0.07137967  0.23647510  1.0
  Ni  Ni742  1  0.57172200  0.40471300  0.23647510  1.0
  Ni  Ni743  1  0.57172200  0.73804633  0.23647510  1.0
  Ni  Ni744  1  0.90505533  0.07137967  0.23647510  1.0
  Ni  Ni745  1  0.90505533  0.40471300  0.23647510  1.0
  Ni  Ni746  1  0.90505533  0.73804633  0.23647510  1.0
  Ni  Ni747  1  0.23838867  0.23804633  0.33647510  1.0
  Ni  Ni748  1  0.23838867  0.57137967  0.33647510  1.0
  Ni  Ni749  1  0.23838867  0.90471300  0.33647510  1.0
  Ni  Ni750  1  0.57172200  0.23804633  0.33647510  1.0
  Ni  Ni751  1  0.57172200  0.57137967  0.33647510  1.0
  Ni  Ni752  1  0.57172200  0.90471300  0.33647510  1.0
  Ni  Ni753  1  0.90505533  0.23804633  0.33647510  1.0
  Ni  Ni754  1  0.90505533  0.57137967  0.33647510  1.0
  Ni  Ni755  1  0.90505533  0.90471300  0.33647510  1.0
  Ni  Ni756  1  0.14275933  0.07137967  0.29385270  1.0
  Ni  Ni757  1  0.14275933  0.40471300  0.29385270  1.0
  Ni  Ni758  1  0.14275933  0.73804633  0.29385270  1.0
  Ni  Ni759  1  0.47609267  0.07137967  0.29385270  1.0
  Ni  Ni760  1  0.47609267  0.40471300  0.29385270  1.0
  Ni  Ni761  1  0.47609267  0.73804633  0.29385270  1.0
  Ni  Ni762  1  0.80942600  0.07137967  0.29385270  1.0
  Ni  Ni763  1  0.80942600  0.40471300  0.29385270  1.0
  Ni  Ni764  1  0.80942600  0.73804633  0.29385270  1.0
  Ni  Ni765  1  0.14275933  0.23804633  0.39385270  1.0
  Ni  Ni766  1  0.14275933  0.57137967  0.39385270  1.0
  Ni  Ni767  1  0.14275933  0.90471300  0.39385270  1.0
  Ni  Ni768  1  0.47609267  0.23804633  0.39385270  1.0
  Ni  Ni769  1  0.47609267  0.57137967  0.39385270  1.0
  Ni  Ni770  1  0.47609267  0.90471300  0.39385270  1.0
  Ni  Ni771  1  0.80942600  0.23804633  0.39385270  1.0
  Ni  Ni772  1  0.80942600  0.57137967  0.39385270  1.0
  Ni  Ni773  1  0.80942600  0.90471300  0.39385270  1.0
  Ni  Ni774  1  0.27390733  0.13695367  0.27581950  1.0
  Ni  Ni775  1  0.27390733  0.47028700  0.27581950  1.0
  Ni  Ni776  1  0.27390733  0.80362033  0.27581950  1.0
  Ni  Ni777  1  0.60724067  0.13695367  0.27581950  1.0
  Ni  Ni778  1  0.60724067  0.47028700  0.27581950  1.0
  Ni  Ni779  1  0.60724067  0.80362033  0.27581950  1.0
  Ni  Ni780  1  0.94057400  0.13695367  0.27581950  1.0
  Ni  Ni781  1  0.94057400  0.47028700  0.27581950  1.0
  Ni  Ni782  1  0.94057400  0.80362033  0.27581950  1.0
  Ni  Ni783  1  0.27390733  0.30362033  0.37581950  1.0
  Ni  Ni784  1  0.27390733  0.63695367  0.37581950  1.0
  Ni  Ni785  1  0.27390733  0.97028700  0.37581950  1.0
  Ni  Ni786  1  0.60724067  0.30362033  0.37581950  1.0
  Ni  Ni787  1  0.60724067  0.63695367  0.37581950  1.0
  Ni  Ni788  1  0.60724067  0.97028700  0.37581950  1.0
  Ni  Ni789  1  0.94057400  0.30362033  0.37581950  1.0
  Ni  Ni790  1  0.94057400  0.63695367  0.37581950  1.0
  Ni  Ni791  1  0.94057400  0.97028700  0.37581950  1.0
  Ni  Ni792  1  0.04166667  0.10416667  0.35614730  1.0
  Ni  Ni793  1  0.04166667  0.43750000  0.35614730  1.0
  Ni  Ni794  1  0.04166667  0.77083333  0.35614730  1.0
  Ni  Ni795  1  0.37500000  0.10416667  0.35614730  1.0
  Ni  Ni796  1  0.37500000  0.43750000  0.35614730  1.0
  Ni  Ni797  1  0.37500000  0.77083333  0.35614730  1.0
  Ni  Ni798  1  0.70833333  0.10416667  0.35614730  1.0
  Ni  Ni799  1  0.70833333  0.43750000  0.35614730  1.0
  Ni  Ni800  1  0.70833333  0.77083333  0.35614730  1.0
  Ni  Ni801  1  0.04166667  0.27083333  0.25614730  1.0
  Ni  Ni802  1  0.04166667  0.60416667  0.25614730  1.0
  Ni  Ni803  1  0.04166667  0.93750000  0.25614730  1.0
  Ni  Ni804  1  0.37500000  0.27083333  0.25614730  1.0
  Ni  Ni805  1  0.37500000  0.60416667  0.25614730  1.0
  Ni  Ni806  1  0.37500000  0.93750000  0.25614730  1.0
  Ni  Ni807  1  0.70833333  0.27083333  0.25614730  1.0
  Ni  Ni808  1  0.70833333  0.60416667  0.25614730  1.0
  Ni  Ni809  1  0.70833333  0.93750000  0.25614730  1.0
  Ni  Ni810  1  0.20833333  0.02083333  0.20614730  1.0
  Ni  Ni811  1  0.20833333  0.35416667  0.20614730  1.0
  Ni  Ni812  1  0.20833333  0.68750000  0.20614730  1.0
  Ni  Ni813  1  0.54166667  0.02083333  0.20614730  1.0
  Ni  Ni814  1  0.54166667  0.35416667  0.20614730  1.0
  Ni  Ni815  1  0.54166667  0.68750000  0.20614730  1.0
  Ni  Ni816  1  0.87500000  0.02083333  0.20614730  1.0
  Ni  Ni817  1  0.87500000  0.35416667  0.20614730  1.0
  Ni  Ni818  1  0.87500000  0.68750000  0.20614730  1.0
  Ni  Ni819  1  0.20833333  0.18750000  0.30614730  1.0
  Ni  Ni820  1  0.20833333  0.52083333  0.30614730  1.0
  Ni  Ni821  1  0.20833333  0.85416667  0.30614730  1.0
  Ni  Ni822  1  0.54166667  0.18750000  0.30614730  1.0
  Ni  Ni823  1  0.54166667  0.52083333  0.30614730  1.0
  Ni  Ni824  1  0.54166667  0.85416667  0.30614730  1.0
  Ni  Ni825  1  0.87500000  0.18750000  0.30614730  1.0
  Ni  Ni826  1  0.87500000  0.52083333  0.30614730  1.0
  Ni  Ni827  1  0.87500000  0.85416667  0.30614730  1.0
  Ni  Ni828  1  0.04166667  0.02083333  0.30614730  1.0
  Ni  Ni829  1  0.04166667  0.35416667  0.30614730  1.0
  Ni  Ni830  1  0.04166667  0.68750000  0.30614730  1.0
  Ni  Ni831  1  0.37500000  0.02083333  0.30614730  1.0
  Ni  Ni832  1  0.37500000  0.35416667  0.30614730  1.0
  Ni  Ni833  1  0.37500000  0.68750000  0.30614730  1.0
  Ni  Ni834  1  0.70833333  0.02083333  0.30614730  1.0
  Ni  Ni835  1  0.70833333  0.35416667  0.30614730  1.0
  Ni  Ni836  1  0.70833333  0.68750000  0.30614730  1.0
  Ni  Ni837  1  0.04166667  0.18750000  0.20614730  1.0
  Ni  Ni838  1  0.04166667  0.52083333  0.20614730  1.0
  Ni  Ni839  1  0.04166667  0.85416667  0.20614730  1.0
  Ni  Ni840  1  0.37500000  0.18750000  0.20614730  1.0
  Ni  Ni841  1  0.37500000  0.52083333  0.20614730  1.0
  Ni  Ni842  1  0.37500000  0.85416667  0.20614730  1.0
  Ni  Ni843  1  0.70833333  0.18750000  0.20614730  1.0
  Ni  Ni844  1  0.70833333  0.52083333  0.20614730  1.0
  Ni  Ni845  1  0.70833333  0.85416667  0.20614730  1.0
  Ni  Ni846  1  0.04166667  0.02083333  0.20614730  1.0
  Ni  Ni847  1  0.04166667  0.35416667  0.20614730  1.0
  Ni  Ni848  1  0.04166667  0.68750000  0.20614730  1.0
  Ni  Ni849  1  0.37500000  0.02083333  0.20614730  1.0
  Ni  Ni850  1  0.37500000  0.35416667  0.20614730  1.0
  Ni  Ni851  1  0.37500000  0.68750000  0.20614730  1.0
  Ni  Ni852  1  0.70833333  0.02083333  0.20614730  1.0
  Ni  Ni853  1  0.70833333  0.35416667  0.20614730  1.0
  Ni  Ni854  1  0.70833333  0.68750000  0.20614730  1.0
  Ni  Ni855  1  0.04166667  0.18750000  0.30614730  1.0
  Ni  Ni856  1  0.04166667  0.52083333  0.30614730  1.0
  Ni  Ni857  1  0.04166667  0.85416667  0.30614730  1.0
  Ni  Ni858  1  0.37500000  0.18750000  0.30614730  1.0
  Ni  Ni859  1  0.37500000  0.52083333  0.30614730  1.0
  Ni  Ni860  1  0.37500000  0.85416667  0.30614730  1.0
  Ni  Ni861  1  0.70833333  0.18750000  0.30614730  1.0
  Ni  Ni862  1  0.70833333  0.52083333  0.30614730  1.0
  Ni  Ni863  1  0.70833333  0.85416667  0.30614730  1.0
