# generated using pymatgen
data_CdNi
_symmetry_space_group_name_H-M   'P 1'
_cell_length_a   24.29023800
_cell_length_b   34.35158401
_cell_length_c   32.38698400
_cell_angle_alpha   90.00000000
_cell_angle_beta   90.00000000
_cell_angle_gamma   90.00000000
_symmetry_Int_Tables_number   1
_chemical_formula_structural   CdNi
_chemical_formula_sum   'Cd432 Ni432'
_cell_volume   27023.96344723
_cell_formula_units_Z   432
loop_
 _symmetry_equiv_pos_site_id
 _symmetry_equiv_pos_as_xyz
  1  'x, y, z'
loop_
 _atom_site_type_symbol
 _atom_site_label
 _atom_site_symmetry_multiplicity
 _atom_site_fract_x
 _atom_site_fract_y
 _atom_site_fract_z
 _atom_site_occupancy
  Cd  Cd0  1  0.06645033  0.16666667  0.81935108  1.0
  Cd  Cd1  1  0.06645033  0.50000000  0.81935108  1.0
  Cd  Cd2  1  0.06645033  0.83333333  0.81935108  1.0
  Cd  Cd3  1  0.39978367  0.16666667  0.81935108  1.0
  Cd  Cd4  1  0.39978367  0.50000000  0.81935108  1.0
  Cd  Cd5  1  0.39978367  0.83333333  0.81935108  1.0
  Cd  Cd6  1  0.73311700  0.16666667  0.81935108  1.0
  Cd  Cd7  1  0.73311700  0.50000000  0.81935108  1.0
  Cd  Cd8  1  0.73311700  0.83333333  0.81935108  1.0
  Cd  Cd9  1  0.23311700  0.00000000  0.94435108  1.0
  Cd  Cd10  1  0.23311700  0.33333333  0.94435108  1.0
  Cd  Cd11  1  0.23311700  0.66666667  0.94435108  1.0
  Cd  Cd12  1  0.56645033  0.00000000  0.94435108  1.0
  Cd  Cd13  1  0.56645033  0.33333333  0.94435108  1.0
  Cd  Cd14  1  0.56645033  0.66666667  0.94435108  1.0
  Cd  Cd15  1  0.89978367  0.00000000  0.94435108  1.0
  Cd  Cd16  1  0.89978367  0.33333333  0.94435108  1.0
  Cd  Cd17  1  0.89978367  0.66666667  0.94435108  1.0
  Cd  Cd18  1  0.26688300  0.16666667  0.96967558  1.0
  Cd  Cd19  1  0.26688300  0.50000000  0.96967558  1.0
  Cd  Cd20  1  0.26688300  0.83333333  0.96967558  1.0
  Cd  Cd21  1  0.60021633  0.16666667  0.96967558  1.0
  Cd  Cd22  1  0.60021633  0.50000000  0.96967558  1.0
  Cd  Cd23  1  0.60021633  0.83333333  0.96967558  1.0
  Cd  Cd24  1  0.93354967  0.16666667  0.96967558  1.0
  Cd  Cd25  1  0.93354967  0.50000000  0.96967558  1.0
  Cd  Cd26  1  0.93354967  0.83333333  0.96967558  1.0
  Cd  Cd27  1  0.10021633  0.00000000  0.84467558  1.0
  Cd  Cd28  1  0.10021633  0.33333333  0.84467558  1.0
  Cd  Cd29  1  0.10021633  0.66666667  0.84467558  1.0
  Cd  Cd30  1  0.43354967  0.00000000  0.84467558  1.0
  Cd  Cd31  1  0.43354967  0.33333333  0.84467558  1.0
  Cd  Cd32  1  0.43354967  0.66666667  0.84467558  1.0
  Cd  Cd33  1  0.76688300  0.00000000  0.84467558  1.0
  Cd  Cd34  1  0.76688300  0.33333333  0.84467558  1.0
  Cd  Cd35  1  0.76688300  0.66666667  0.84467558  1.0
  Cd  Cd36  1  0.26688300  0.16666667  0.81935108  1.0
  Cd  Cd37  1  0.26688300  0.50000000  0.81935108  1.0
  Cd  Cd38  1  0.26688300  0.83333333  0.81935108  1.0
  Cd  Cd39  1  0.60021633  0.16666667  0.81935108  1.0
  Cd  Cd40  1  0.60021633  0.50000000  0.81935108  1.0
  Cd  Cd41  1  0.60021633  0.83333333  0.81935108  1.0
  Cd  Cd42  1  0.93354967  0.16666667  0.81935108  1.0
  Cd  Cd43  1  0.93354967  0.50000000  0.81935108  1.0
  Cd  Cd44  1  0.93354967  0.83333333  0.81935108  1.0
  Cd  Cd45  1  0.10021633  0.00000000  0.94435108  1.0
  Cd  Cd46  1  0.10021633  0.33333333  0.94435108  1.0
  Cd  Cd47  1  0.10021633  0.66666667  0.94435108  1.0
  Cd  Cd48  1  0.43354967  0.00000000  0.94435108  1.0
  Cd  Cd49  1  0.43354967  0.33333333  0.94435108  1.0
  Cd  Cd50  1  0.43354967  0.66666667  0.94435108  1.0
  Cd  Cd51  1  0.76688300  0.00000000  0.94435108  1.0
  Cd  Cd52  1  0.76688300  0.33333333  0.94435108  1.0
  Cd  Cd53  1  0.76688300  0.66666667  0.94435108  1.0
  Cd  Cd54  1  0.06645033  0.16666667  0.96967558  1.0
  Cd  Cd55  1  0.06645033  0.50000000  0.96967558  1.0
  Cd  Cd56  1  0.06645033  0.83333333  0.96967558  1.0
  Cd  Cd57  1  0.39978367  0.16666667  0.96967558  1.0
  Cd  Cd58  1  0.39978367  0.50000000  0.96967558  1.0
  Cd  Cd59  1  0.39978367  0.83333333  0.96967558  1.0
  Cd  Cd60  1  0.73311700  0.16666667  0.96967558  1.0
  Cd  Cd61  1  0.73311700  0.50000000  0.96967558  1.0
  Cd  Cd62  1  0.73311700  0.83333333  0.96967558  1.0
  Cd  Cd63  1  0.23311700  0.00000000  0.84467558  1.0
  Cd  Cd64  1  0.23311700  0.33333333  0.84467558  1.0
  Cd  Cd65  1  0.23311700  0.66666667  0.84467558  1.0
  Cd  Cd66  1  0.56645033  0.00000000  0.84467558  1.0
  Cd  Cd67  1  0.56645033  0.33333333  0.84467558  1.0
  Cd  Cd68  1  0.56645033  0.66666667  0.84467558  1.0
  Cd  Cd69  1  0.89978367  0.00000000  0.84467558  1.0
  Cd  Cd70  1  0.89978367  0.33333333  0.84467558  1.0
  Cd  Cd71  1  0.89978367  0.66666667  0.84467558  1.0
  Cd  Cd72  1  0.00000000  0.10021633  0.76951333  1.0
  Cd  Cd73  1  0.00000000  0.43354967  0.76951333  1.0
  Cd  Cd74  1  0.00000000  0.76688300  0.76951333  1.0
  Cd  Cd75  1  0.33333333  0.10021633  0.76951333  1.0
  Cd  Cd76  1  0.33333333  0.43354967  0.76951333  1.0
  Cd  Cd77  1  0.33333333  0.76688300  0.76951333  1.0
  Cd  Cd78  1  0.66666667  0.10021633  0.76951333  1.0
  Cd  Cd79  1  0.66666667  0.43354967  0.76951333  1.0
  Cd  Cd80  1  0.66666667  0.76688300  0.76951333  1.0
  Cd  Cd81  1  0.16666667  0.26688300  0.89451333  1.0
  Cd  Cd82  1  0.16666667  0.60021633  0.89451333  1.0
  Cd  Cd83  1  0.16666667  0.93354967  0.89451333  1.0
  Cd  Cd84  1  0.50000000  0.26688300  0.89451333  1.0
  Cd  Cd85  1  0.50000000  0.60021633  0.89451333  1.0
  Cd  Cd86  1  0.50000000  0.93354967  0.89451333  1.0
  Cd  Cd87  1  0.83333333  0.26688300  0.89451333  1.0
  Cd  Cd88  1  0.83333333  0.60021633  0.89451333  1.0
  Cd  Cd89  1  0.83333333  0.93354967  0.89451333  1.0
  Cd  Cd90  1  0.00000000  0.23311700  0.76951333  1.0
  Cd  Cd91  1  0.00000000  0.56645033  0.76951333  1.0
  Cd  Cd92  1  0.00000000  0.89978367  0.76951333  1.0
  Cd  Cd93  1  0.33333333  0.23311700  0.76951333  1.0
  Cd  Cd94  1  0.33333333  0.56645033  0.76951333  1.0
  Cd  Cd95  1  0.33333333  0.89978367  0.76951333  1.0
  Cd  Cd96  1  0.66666667  0.23311700  0.76951333  1.0
  Cd  Cd97  1  0.66666667  0.56645033  0.76951333  1.0
  Cd  Cd98  1  0.66666667  0.89978367  0.76951333  1.0
  Cd  Cd99  1  0.16666667  0.06645033  0.89451333  1.0
  Cd  Cd100  1  0.16666667  0.39978367  0.89451333  1.0
  Cd  Cd101  1  0.16666667  0.73311700  0.89451333  1.0
  Cd  Cd102  1  0.50000000  0.06645033  0.89451333  1.0
  Cd  Cd103  1  0.50000000  0.39978367  0.89451333  1.0
  Cd  Cd104  1  0.50000000  0.73311700  0.89451333  1.0
  Cd  Cd105  1  0.83333333  0.06645033  0.89451333  1.0
  Cd  Cd106  1  0.83333333  0.39978367  0.89451333  1.0
  Cd  Cd107  1  0.83333333  0.73311700  0.89451333  1.0
  Cd  Cd108  1  0.26688300  0.25000000  0.84467558  1.0
  Cd  Cd109  1  0.26688300  0.58333333  0.84467558  1.0
  Cd  Cd110  1  0.26688300  0.91666667  0.84467558  1.0
  Cd  Cd111  1  0.60021633  0.25000000  0.84467558  1.0
  Cd  Cd112  1  0.60021633  0.58333333  0.84467558  1.0
  Cd  Cd113  1  0.60021633  0.91666667  0.84467558  1.0
  Cd  Cd114  1  0.93354967  0.25000000  0.84467558  1.0
  Cd  Cd115  1  0.93354967  0.58333333  0.84467558  1.0
  Cd  Cd116  1  0.93354967  0.91666667  0.84467558  1.0
  Cd  Cd117  1  0.10021633  0.08333333  0.96967558  1.0
  Cd  Cd118  1  0.10021633  0.41666667  0.96967558  1.0
  Cd  Cd119  1  0.10021633  0.75000000  0.96967558  1.0
  Cd  Cd120  1  0.43354967  0.08333333  0.96967558  1.0
  Cd  Cd121  1  0.43354967  0.41666667  0.96967558  1.0
  Cd  Cd122  1  0.43354967  0.75000000  0.96967558  1.0
  Cd  Cd123  1  0.76688300  0.08333333  0.96967558  1.0
  Cd  Cd124  1  0.76688300  0.41666667  0.96967558  1.0
  Cd  Cd125  1  0.76688300  0.75000000  0.96967558  1.0
  Cd  Cd126  1  0.06645033  0.25000000  0.94435108  1.0
  Cd  Cd127  1  0.06645033  0.58333333  0.94435108  1.0
  Cd  Cd128  1  0.06645033  0.91666667  0.94435108  1.0
  Cd  Cd129  1  0.39978367  0.25000000  0.94435108  1.0
  Cd  Cd130  1  0.39978367  0.58333333  0.94435108  1.0
  Cd  Cd131  1  0.39978367  0.91666667  0.94435108  1.0
  Cd  Cd132  1  0.73311700  0.25000000  0.94435108  1.0
  Cd  Cd133  1  0.73311700  0.58333333  0.94435108  1.0
  Cd  Cd134  1  0.73311700  0.91666667  0.94435108  1.0
  Cd  Cd135  1  0.23311700  0.08333333  0.81935108  1.0
  Cd  Cd136  1  0.23311700  0.41666667  0.81935108  1.0
  Cd  Cd137  1  0.23311700  0.75000000  0.81935108  1.0
  Cd  Cd138  1  0.56645033  0.08333333  0.81935108  1.0
  Cd  Cd139  1  0.56645033  0.41666667  0.81935108  1.0
  Cd  Cd140  1  0.56645033  0.75000000  0.81935108  1.0
  Cd  Cd141  1  0.89978367  0.08333333  0.81935108  1.0
  Cd  Cd142  1  0.89978367  0.41666667  0.81935108  1.0
  Cd  Cd143  1  0.89978367  0.75000000  0.81935108  1.0
  Cd  Cd144  1  0.06645033  0.25000000  0.84467558  1.0
  Cd  Cd145  1  0.06645033  0.58333333  0.84467558  1.0
  Cd  Cd146  1  0.06645033  0.91666667  0.84467558  1.0
  Cd  Cd147  1  0.39978367  0.25000000  0.84467558  1.0
  Cd  Cd148  1  0.39978367  0.58333333  0.84467558  1.0
  Cd  Cd149  1  0.39978367  0.91666667  0.84467558  1.0
  Cd  Cd150  1  0.73311700  0.25000000  0.84467558  1.0
  Cd  Cd151  1  0.73311700  0.58333333  0.84467558  1.0
  Cd  Cd152  1  0.73311700  0.91666667  0.84467558  1.0
  Cd  Cd153  1  0.23311700  0.08333333  0.96967558  1.0
  Cd  Cd154  1  0.23311700  0.41666667  0.96967558  1.0
  Cd  Cd155  1  0.23311700  0.75000000  0.96967558  1.0
  Cd  Cd156  1  0.56645033  0.08333333  0.96967558  1.0
  Cd  Cd157  1  0.56645033  0.41666667  0.96967558  1.0
  Cd  Cd158  1  0.56645033  0.75000000  0.96967558  1.0
  Cd  Cd159  1  0.89978367  0.08333333  0.96967558  1.0
  Cd  Cd160  1  0.89978367  0.41666667  0.96967558  1.0
  Cd  Cd161  1  0.89978367  0.75000000  0.96967558  1.0
  Cd  Cd162  1  0.26688300  0.25000000  0.94435108  1.0
  Cd  Cd163  1  0.26688300  0.58333333  0.94435108  1.0
  Cd  Cd164  1  0.26688300  0.91666667  0.94435108  1.0
  Cd  Cd165  1  0.60021633  0.25000000  0.94435108  1.0
  Cd  Cd166  1  0.60021633  0.58333333  0.94435108  1.0
  Cd  Cd167  1  0.60021633  0.91666667  0.94435108  1.0
  Cd  Cd168  1  0.93354967  0.25000000  0.94435108  1.0
  Cd  Cd169  1  0.93354967  0.58333333  0.94435108  1.0
  Cd  Cd170  1  0.93354967  0.91666667  0.94435108  1.0
  Cd  Cd171  1  0.10021633  0.08333333  0.81935108  1.0
  Cd  Cd172  1  0.10021633  0.41666667  0.81935108  1.0
  Cd  Cd173  1  0.10021633  0.75000000  0.81935108  1.0
  Cd  Cd174  1  0.43354967  0.08333333  0.81935108  1.0
  Cd  Cd175  1  0.43354967  0.41666667  0.81935108  1.0
  Cd  Cd176  1  0.43354967  0.75000000  0.81935108  1.0
  Cd  Cd177  1  0.76688300  0.08333333  0.81935108  1.0
  Cd  Cd178  1  0.76688300  0.41666667  0.81935108  1.0
  Cd  Cd179  1  0.76688300  0.75000000  0.81935108  1.0
  Cd  Cd180  1  0.00000000  0.31645033  0.89451333  1.0
  Cd  Cd181  1  0.00000000  0.64978367  0.89451333  1.0
  Cd  Cd182  1  0.00000000  0.98311700  0.89451333  1.0
  Cd  Cd183  1  0.33333333  0.31645033  0.89451333  1.0
  Cd  Cd184  1  0.33333333  0.64978367  0.89451333  1.0
  Cd  Cd185  1  0.33333333  0.98311700  0.89451333  1.0
  Cd  Cd186  1  0.66666667  0.31645033  0.89451333  1.0
  Cd  Cd187  1  0.66666667  0.64978367  0.89451333  1.0
  Cd  Cd188  1  0.66666667  0.98311700  0.89451333  1.0
  Cd  Cd189  1  0.16666667  0.14978367  0.76951333  1.0
  Cd  Cd190  1  0.16666667  0.48311700  0.76951333  1.0
  Cd  Cd191  1  0.16666667  0.81645033  0.76951333  1.0
  Cd  Cd192  1  0.50000000  0.14978367  0.76951333  1.0
  Cd  Cd193  1  0.50000000  0.48311700  0.76951333  1.0
  Cd  Cd194  1  0.50000000  0.81645033  0.76951333  1.0
  Cd  Cd195  1  0.83333333  0.14978367  0.76951333  1.0
  Cd  Cd196  1  0.83333333  0.48311700  0.76951333  1.0
  Cd  Cd197  1  0.83333333  0.81645033  0.76951333  1.0
  Cd  Cd198  1  0.00000000  0.18354967  0.89451333  1.0
  Cd  Cd199  1  0.00000000  0.51688300  0.89451333  1.0
  Cd  Cd200  1  0.00000000  0.85021633  0.89451333  1.0
  Cd  Cd201  1  0.33333333  0.18354967  0.89451333  1.0
  Cd  Cd202  1  0.33333333  0.51688300  0.89451333  1.0
  Cd  Cd203  1  0.33333333  0.85021633  0.89451333  1.0
  Cd  Cd204  1  0.66666667  0.18354967  0.89451333  1.0
  Cd  Cd205  1  0.66666667  0.51688300  0.89451333  1.0
  Cd  Cd206  1  0.66666667  0.85021633  0.89451333  1.0
  Cd  Cd207  1  0.16666667  0.01688300  0.76951333  1.0
  Cd  Cd208  1  0.16666667  0.35021633  0.76951333  1.0
  Cd  Cd209  1  0.16666667  0.68354967  0.76951333  1.0
  Cd  Cd210  1  0.50000000  0.01688300  0.76951333  1.0
  Cd  Cd211  1  0.50000000  0.35021633  0.76951333  1.0
  Cd  Cd212  1  0.50000000  0.68354967  0.76951333  1.0
  Cd  Cd213  1  0.83333333  0.01688300  0.76951333  1.0
  Cd  Cd214  1  0.83333333  0.35021633  0.76951333  1.0
  Cd  Cd215  1  0.83333333  0.68354967  0.76951333  1.0
  Cd  Cd216  1  0.06645033  0.16666667  0.56935108  1.0
  Cd  Cd217  1  0.06645033  0.50000000  0.56935108  1.0
  Cd  Cd218  1  0.06645033  0.83333333  0.56935108  1.0
  Cd  Cd219  1  0.39978367  0.16666667  0.56935108  1.0
  Cd  Cd220  1  0.39978367  0.50000000  0.56935108  1.0
  Cd  Cd221  1  0.39978367  0.83333333  0.56935108  1.0
  Cd  Cd222  1  0.73311700  0.16666667  0.56935108  1.0
  Cd  Cd223  1  0.73311700  0.50000000  0.56935108  1.0
  Cd  Cd224  1  0.73311700  0.83333333  0.56935108  1.0
  Cd  Cd225  1  0.23311700  0.00000000  0.69435108  1.0
  Cd  Cd226  1  0.23311700  0.33333333  0.69435108  1.0
  Cd  Cd227  1  0.23311700  0.66666667  0.69435108  1.0
  Cd  Cd228  1  0.56645033  0.00000000  0.69435108  1.0
  Cd  Cd229  1  0.56645033  0.33333333  0.69435108  1.0
  Cd  Cd230  1  0.56645033  0.66666667  0.69435108  1.0
  Cd  Cd231  1  0.89978367  0.00000000  0.69435108  1.0
  Cd  Cd232  1  0.89978367  0.33333333  0.69435108  1.0
  Cd  Cd233  1  0.89978367  0.66666667  0.69435108  1.0
  Cd  Cd234  1  0.26688300  0.16666667  0.71967558  1.0
  Cd  Cd235  1  0.26688300  0.50000000  0.71967558  1.0
  Cd  Cd236  1  0.26688300  0.83333333  0.71967558  1.0
  Cd  Cd237  1  0.60021633  0.16666667  0.71967558  1.0
  Cd  Cd238  1  0.60021633  0.50000000  0.71967558  1.0
  Cd  Cd239  1  0.60021633  0.83333333  0.71967558  1.0
  Cd  Cd240  1  0.93354967  0.16666667  0.71967558  1.0
  Cd  Cd241  1  0.93354967  0.50000000  0.71967558  1.0
  Cd  Cd242  1  0.93354967  0.83333333  0.71967558  1.0
  Cd  Cd243  1  0.10021633  0.00000000  0.59467558  1.0
  Cd  Cd244  1  0.10021633  0.33333333  0.59467558  1.0
  Cd  Cd245  1  0.10021633  0.66666667  0.59467558  1.0
  Cd  Cd246  1  0.43354967  0.00000000  0.59467558  1.0
  Cd  Cd247  1  0.43354967  0.33333333  0.59467558  1.0
  Cd  Cd248  1  0.43354967  0.66666667  0.59467558  1.0
  Cd  Cd249  1  0.76688300  0.00000000  0.59467558  1.0
  Cd  Cd250  1  0.76688300  0.33333333  0.59467558  1.0
  Cd  Cd251  1  0.76688300  0.66666667  0.59467558  1.0
  Cd  Cd252  1  0.26688300  0.16666667  0.56935108  1.0
  Cd  Cd253  1  0.26688300  0.50000000  0.56935108  1.0
  Cd  Cd254  1  0.26688300  0.83333333  0.56935108  1.0
  Cd  Cd255  1  0.60021633  0.16666667  0.56935108  1.0
  Cd  Cd256  1  0.60021633  0.50000000  0.56935108  1.0
  Cd  Cd257  1  0.60021633  0.83333333  0.56935108  1.0
  Cd  Cd258  1  0.93354967  0.16666667  0.56935108  1.0
  Cd  Cd259  1  0.93354967  0.50000000  0.56935108  1.0
  Cd  Cd260  1  0.93354967  0.83333333  0.56935108  1.0
  Cd  Cd261  1  0.10021633  0.00000000  0.69435108  1.0
  Cd  Cd262  1  0.10021633  0.33333333  0.69435108  1.0
  Cd  Cd263  1  0.10021633  0.66666667  0.69435108  1.0
  Cd  Cd264  1  0.43354967  0.00000000  0.69435108  1.0
  Cd  Cd265  1  0.43354967  0.33333333  0.69435108  1.0
  Cd  Cd266  1  0.43354967  0.66666667  0.69435108  1.0
  Cd  Cd267  1  0.76688300  0.00000000  0.69435108  1.0
  Cd  Cd268  1  0.76688300  0.33333333  0.69435108  1.0
  Cd  Cd269  1  0.76688300  0.66666667  0.69435108  1.0
  Cd  Cd270  1  0.06645033  0.16666667  0.71967558  1.0
  Cd  Cd271  1  0.06645033  0.50000000  0.71967558  1.0
  Cd  Cd272  1  0.06645033  0.83333333  0.71967558  1.0
  Cd  Cd273  1  0.39978367  0.16666667  0.71967558  1.0
  Cd  Cd274  1  0.39978367  0.50000000  0.71967558  1.0
  Cd  Cd275  1  0.39978367  0.83333333  0.71967558  1.0
  Cd  Cd276  1  0.73311700  0.16666667  0.71967558  1.0
  Cd  Cd277  1  0.73311700  0.50000000  0.71967558  1.0
  Cd  Cd278  1  0.73311700  0.83333333  0.71967558  1.0
  Cd  Cd279  1  0.23311700  0.00000000  0.59467558  1.0
  Cd  Cd280  1  0.23311700  0.33333333  0.59467558  1.0
  Cd  Cd281  1  0.23311700  0.66666667  0.59467558  1.0
  Cd  Cd282  1  0.56645033  0.00000000  0.59467558  1.0
  Cd  Cd283  1  0.56645033  0.33333333  0.59467558  1.0
  Cd  Cd284  1  0.56645033  0.66666667  0.59467558  1.0
  Cd  Cd285  1  0.89978367  0.00000000  0.59467558  1.0
  Cd  Cd286  1  0.89978367  0.33333333  0.59467558  1.0
  Cd  Cd287  1  0.89978367  0.66666667  0.59467558  1.0
  Cd  Cd288  1  0.00000000  0.10021633  0.51951333  1.0
  Cd  Cd289  1  0.00000000  0.43354967  0.51951333  1.0
  Cd  Cd290  1  0.00000000  0.76688300  0.51951333  1.0
  Cd  Cd291  1  0.33333333  0.10021633  0.51951333  1.0
  Cd  Cd292  1  0.33333333  0.43354967  0.51951333  1.0
  Cd  Cd293  1  0.33333333  0.76688300  0.51951333  1.0
  Cd  Cd294  1  0.66666667  0.10021633  0.51951333  1.0
  Cd  Cd295  1  0.66666667  0.43354967  0.51951333  1.0
  Cd  Cd296  1  0.66666667  0.76688300  0.51951333  1.0
  Cd  Cd297  1  0.16666667  0.26688300  0.64451333  1.0
  Cd  Cd298  1  0.16666667  0.60021633  0.64451333  1.0
  Cd  Cd299  1  0.16666667  0.93354967  0.64451333  1.0
  Cd  Cd300  1  0.50000000  0.26688300  0.64451333  1.0
  Cd  Cd301  1  0.50000000  0.60021633  0.64451333  1.0
  Cd  Cd302  1  0.50000000  0.93354967  0.64451333  1.0
  Cd  Cd303  1  0.83333333  0.26688300  0.64451333  1.0
  Cd  Cd304  1  0.83333333  0.60021633  0.64451333  1.0
  Cd  Cd305  1  0.83333333  0.93354967  0.64451333  1.0
  Cd  Cd306  1  0.00000000  0.23311700  0.51951333  1.0
  Cd  Cd307  1  0.00000000  0.56645033  0.51951333  1.0
  Cd  Cd308  1  0.00000000  0.89978367  0.51951333  1.0
  Cd  Cd309  1  0.33333333  0.23311700  0.51951333  1.0
  Cd  Cd310  1  0.33333333  0.56645033  0.51951333  1.0
  Cd  Cd311  1  0.33333333  0.89978367  0.51951333  1.0
  Cd  Cd312  1  0.66666667  0.23311700  0.51951333  1.0
  Cd  Cd313  1  0.66666667  0.56645033  0.51951333  1.0
  Cd  Cd314  1  0.66666667  0.89978367  0.51951333  1.0
  Cd  Cd315  1  0.16666667  0.06645033  0.64451333  1.0
  Cd  Cd316  1  0.16666667  0.39978367  0.64451333  1.0
  Cd  Cd317  1  0.16666667  0.73311700  0.64451333  1.0
  Cd  Cd318  1  0.50000000  0.06645033  0.64451333  1.0
  Cd  Cd319  1  0.50000000  0.39978367  0.64451333  1.0
  Cd  Cd320  1  0.50000000  0.73311700  0.64451333  1.0
  Cd  Cd321  1  0.83333333  0.06645033  0.64451333  1.0
  Cd  Cd322  1  0.83333333  0.39978367  0.64451333  1.0
  Cd  Cd323  1  0.83333333  0.73311700  0.64451333  1.0
  Cd  Cd324  1  0.26688300  0.25000000  0.59467558  1.0
  Cd  Cd325  1  0.26688300  0.58333333  0.59467558  1.0
  Cd  Cd326  1  0.26688300  0.91666667  0.59467558  1.0
  Cd  Cd327  1  0.60021633  0.25000000  0.59467558  1.0
  Cd  Cd328  1  0.60021633  0.58333333  0.59467558  1.0
  Cd  Cd329  1  0.60021633  0.91666667  0.59467558  1.0
  Cd  Cd330  1  0.93354967  0.25000000  0.59467558  1.0
  Cd  Cd331  1  0.93354967  0.58333333  0.59467558  1.0
  Cd  Cd332  1  0.93354967  0.91666667  0.59467558  1.0
  Cd  Cd333  1  0.10021633  0.08333333  0.71967558  1.0
  Cd  Cd334  1  0.10021633  0.41666667  0.71967558  1.0
  Cd  Cd335  1  0.10021633  0.75000000  0.71967558  1.0
  Cd  Cd336  1  0.43354967  0.08333333  0.71967558  1.0
  Cd  Cd337  1  0.43354967  0.41666667  0.71967558  1.0
  Cd  Cd338  1  0.43354967  0.75000000  0.71967558  1.0
  Cd  Cd339  1  0.76688300  0.08333333  0.71967558  1.0
  Cd  Cd340  1  0.76688300  0.41666667  0.71967558  1.0
  Cd  Cd341  1  0.76688300  0.75000000  0.71967558  1.0
  Cd  Cd342  1  0.06645033  0.25000000  0.69435108  1.0
  Cd  Cd343  1  0.06645033  0.58333333  0.69435108  1.0
  Cd  Cd344  1  0.06645033  0.91666667  0.69435108  1.0
  Cd  Cd345  1  0.39978367  0.25000000  0.69435108  1.0
  Cd  Cd346  1  0.39978367  0.58333333  0.69435108  1.0
  Cd  Cd347  1  0.39978367  0.91666667  0.69435108  1.0
  Cd  Cd348  1  0.73311700  0.25000000  0.69435108  1.0
  Cd  Cd349  1  0.73311700  0.58333333  0.69435108  1.0
  Cd  Cd350  1  0.73311700  0.91666667  0.69435108  1.0
  Cd  Cd351  1  0.23311700  0.08333333  0.56935108  1.0
  Cd  Cd352  1  0.23311700  0.41666667  0.56935108  1.0
  Cd  Cd353  1  0.23311700  0.75000000  0.56935108  1.0
  Cd  Cd354  1  0.56645033  0.08333333  0.56935108  1.0
  Cd  Cd355  1  0.56645033  0.41666667  0.56935108  1.0
  Cd  Cd356  1  0.56645033  0.75000000  0.56935108  1.0
  Cd  Cd357  1  0.89978367  0.08333333  0.56935108  1.0
  Cd  Cd358  1  0.89978367  0.41666667  0.56935108  1.0
  Cd  Cd359  1  0.89978367  0.75000000  0.56935108  1.0
  Cd  Cd360  1  0.06645033  0.25000000  0.59467558  1.0
  Cd  Cd361  1  0.06645033  0.58333333  0.59467558  1.0
  Cd  Cd362  1  0.06645033  0.91666667  0.59467558  1.0
  Cd  Cd363  1  0.39978367  0.25000000  0.59467558  1.0
  Cd  Cd364  1  0.39978367  0.58333333  0.59467558  1.0
  Cd  Cd365  1  0.39978367  0.91666667  0.59467558  1.0
  Cd  Cd366  1  0.73311700  0.25000000  0.59467558  1.0
  Cd  Cd367  1  0.73311700  0.58333333  0.59467558  1.0
  Cd  Cd368  1  0.73311700  0.91666667  0.59467558  1.0
  Cd  Cd369  1  0.23311700  0.08333333  0.71967558  1.0
  Cd  Cd370  1  0.23311700  0.41666667  0.71967558  1.0
  Cd  Cd371  1  0.23311700  0.75000000  0.71967558  1.0
  Cd  Cd372  1  0.56645033  0.08333333  0.71967558  1.0
  Cd  Cd373  1  0.56645033  0.41666667  0.71967558  1.0
  Cd  Cd374  1  0.56645033  0.75000000  0.71967558  1.0
  Cd  Cd375  1  0.89978367  0.08333333  0.71967558  1.0
  Cd  Cd376  1  0.89978367  0.41666667  0.71967558  1.0
  Cd  Cd377  1  0.89978367  0.75000000  0.71967558  1.0
  Cd  Cd378  1  0.26688300  0.25000000  0.69435108  1.0
  Cd  Cd379  1  0.26688300  0.58333333  0.69435108  1.0
  Cd  Cd380  1  0.26688300  0.91666667  0.69435108  1.0
  Cd  Cd381  1  0.60021633  0.25000000  0.69435108  1.0
  Cd  Cd382  1  0.60021633  0.58333333  0.69435108  1.0
  Cd  Cd383  1  0.60021633  0.91666667  0.69435108  1.0
  Cd  Cd384  1  0.93354967  0.25000000  0.69435108  1.0
  Cd  Cd385  1  0.93354967  0.58333333  0.69435108  1.0
  Cd  Cd386  1  0.93354967  0.91666667  0.69435108  1.0
  Cd  Cd387  1  0.10021633  0.08333333  0.56935108  1.0
  Cd  Cd388  1  0.10021633  0.41666667  0.56935108  1.0
  Cd  Cd389  1  0.10021633  0.75000000  0.56935108  1.0
  Cd  Cd390  1  0.43354967  0.08333333  0.56935108  1.0
  Cd  Cd391  1  0.43354967  0.41666667  0.56935108  1.0
  Cd  Cd392  1  0.43354967  0.75000000  0.56935108  1.0
  Cd  Cd393  1  0.76688300  0.08333333  0.56935108  1.0
  Cd  Cd394  1  0.76688300  0.41666667  0.56935108  1.0
  Cd  Cd395  1  0.76688300  0.75000000  0.56935108  1.0
  Cd  Cd396  1  0.00000000  0.31645033  0.64451333  1.0
  Cd  Cd397  1  0.00000000  0.64978367  0.64451333  1.0
  Cd  Cd398  1  0.00000000  0.98311700  0.64451333  1.0
  Cd  Cd399  1  0.33333333  0.31645033  0.64451333  1.0
  Cd  Cd400  1  0.33333333  0.64978367  0.64451333  1.0
  Cd  Cd401  1  0.33333333  0.98311700  0.64451333  1.0
  Cd  Cd402  1  0.66666667  0.31645033  0.64451333  1.0
  Cd  Cd403  1  0.66666667  0.64978367  0.64451333  1.0
  Cd  Cd404  1  0.66666667  0.98311700  0.64451333  1.0
  Cd  Cd405  1  0.16666667  0.14978367  0.51951333  1.0
  Cd  Cd406  1  0.16666667  0.48311700  0.51951333  1.0
  Cd  Cd407  1  0.16666667  0.81645033  0.51951333  1.0
  Cd  Cd408  1  0.50000000  0.14978367  0.51951333  1.0
  Cd  Cd409  1  0.50000000  0.48311700  0.51951333  1.0
  Cd  Cd410  1  0.50000000  0.81645033  0.51951333  1.0
  Cd  Cd411  1  0.83333333  0.14978367  0.51951333  1.0
  Cd  Cd412  1  0.83333333  0.48311700  0.51951333  1.0
  Cd  Cd413  1  0.83333333  0.81645033  0.51951333  1.0
  Cd  Cd414  1  0.00000000  0.18354967  0.64451333  1.0
  Cd  Cd415  1  0.00000000  0.51688300  0.64451333  1.0
  Cd  Cd416  1  0.00000000  0.85021633  0.64451333  1.0
  Cd  Cd417  1  0.33333333  0.18354967  0.64451333  1.0
  Cd  Cd418  1  0.33333333  0.51688300  0.64451333  1.0
  Cd  Cd419  1  0.33333333  0.85021633  0.64451333  1.0
  Cd  Cd420  1  0.66666667  0.18354967  0.64451333  1.0
  Cd  Cd421  1  0.66666667  0.51688300  0.64451333  1.0
  Cd  Cd422  1  0.66666667  0.85021633  0.64451333  1.0
  Cd  Cd423  1  0.16666667  0.01688300  0.51951333  1.0
  Cd  Cd424  1  0.16666667  0.35021633  0.51951333  1.0
  Cd  Cd425  1  0.16666667  0.68354967  0.51951333  1.0
  Cd  Cd426  1  0.50000000  0.01688300  0.51951333  1.0
  Cd  Cd427  1  0.50000000  0.35021633  0.51951333  1.0
  Cd  Cd428  1  0.50000000  0.68354967  0.51951333  1.0
  Cd  Cd429  1  0.83333333  0.01688300  0.51951333  1.0
  Cd  Cd430  1  0.83333333  0.35021633  0.51951333  1.0
  Cd  Cd431  1  0.83333333  0.68354967  0.51951333  1.0
  Ni  Ni432  1  0.00000000  0.04166667  0.83201333  1.0
  Ni  Ni433  1  0.00000000  0.37500000  0.83201333  1.0
  Ni  Ni434  1  0.00000000  0.70833333  0.83201333  1.0
  Ni  Ni435  1  0.33333333  0.04166667  0.83201333  1.0
  Ni  Ni436  1  0.33333333  0.37500000  0.83201333  1.0
  Ni  Ni437  1  0.33333333  0.70833333  0.83201333  1.0
  Ni  Ni438  1  0.66666667  0.04166667  0.83201333  1.0
  Ni  Ni439  1  0.66666667  0.37500000  0.83201333  1.0
  Ni  Ni440  1  0.66666667  0.70833333  0.83201333  1.0
  Ni  Ni441  1  0.16666667  0.20833333  0.95701333  1.0
  Ni  Ni442  1  0.16666667  0.54166667  0.95701333  1.0
  Ni  Ni443  1  0.16666667  0.87500000  0.95701333  1.0
  Ni  Ni444  1  0.50000000  0.20833333  0.95701333  1.0
  Ni  Ni445  1  0.50000000  0.54166667  0.95701333  1.0
  Ni  Ni446  1  0.50000000  0.87500000  0.95701333  1.0
  Ni  Ni447  1  0.83333333  0.20833333  0.95701333  1.0
  Ni  Ni448  1  0.83333333  0.54166667  0.95701333  1.0
  Ni  Ni449  1  0.83333333  0.87500000  0.95701333  1.0
  Ni  Ni450  1  0.25000000  0.12500000  0.89451333  1.0
  Ni  Ni451  1  0.25000000  0.45833333  0.89451333  1.0
  Ni  Ni452  1  0.25000000  0.79166667  0.89451333  1.0
  Ni  Ni453  1  0.58333333  0.12500000  0.89451333  1.0
  Ni  Ni454  1  0.58333333  0.45833333  0.89451333  1.0
  Ni  Ni455  1  0.58333333  0.79166667  0.89451333  1.0
  Ni  Ni456  1  0.91666667  0.12500000  0.89451333  1.0
  Ni  Ni457  1  0.91666667  0.45833333  0.89451333  1.0
  Ni  Ni458  1  0.91666667  0.79166667  0.89451333  1.0
  Ni  Ni459  1  0.08333333  0.29166667  0.76951333  1.0
  Ni  Ni460  1  0.08333333  0.62500000  0.76951333  1.0
  Ni  Ni461  1  0.08333333  0.95833333  0.76951333  1.0
  Ni  Ni462  1  0.41666667  0.29166667  0.76951333  1.0
  Ni  Ni463  1  0.41666667  0.62500000  0.76951333  1.0
  Ni  Ni464  1  0.41666667  0.95833333  0.76951333  1.0
  Ni  Ni465  1  0.75000000  0.29166667  0.76951333  1.0
  Ni  Ni466  1  0.75000000  0.62500000  0.76951333  1.0
  Ni  Ni467  1  0.75000000  0.95833333  0.76951333  1.0
  Ni  Ni468  1  0.08333333  0.12500000  0.89451333  1.0
  Ni  Ni469  1  0.08333333  0.45833333  0.89451333  1.0
  Ni  Ni470  1  0.08333333  0.79166667  0.89451333  1.0
  Ni  Ni471  1  0.41666667  0.12500000  0.89451333  1.0
  Ni  Ni472  1  0.41666667  0.45833333  0.89451333  1.0
  Ni  Ni473  1  0.41666667  0.79166667  0.89451333  1.0
  Ni  Ni474  1  0.75000000  0.12500000  0.89451333  1.0
  Ni  Ni475  1  0.75000000  0.45833333  0.89451333  1.0
  Ni  Ni476  1  0.75000000  0.79166667  0.89451333  1.0
  Ni  Ni477  1  0.25000000  0.29166667  0.76951333  1.0
  Ni  Ni478  1  0.25000000  0.62500000  0.76951333  1.0
  Ni  Ni479  1  0.25000000  0.95833333  0.76951333  1.0
  Ni  Ni480  1  0.58333333  0.29166667  0.76951333  1.0
  Ni  Ni481  1  0.58333333  0.62500000  0.76951333  1.0
  Ni  Ni482  1  0.58333333  0.95833333  0.76951333  1.0
  Ni  Ni483  1  0.91666667  0.29166667  0.76951333  1.0
  Ni  Ni484  1  0.91666667  0.62500000  0.76951333  1.0
  Ni  Ni485  1  0.91666667  0.95833333  0.76951333  1.0
  Ni  Ni486  1  0.00000000  0.04166667  0.95701333  1.0
  Ni  Ni487  1  0.00000000  0.37500000  0.95701333  1.0
  Ni  Ni488  1  0.00000000  0.70833333  0.95701333  1.0
  Ni  Ni489  1  0.33333333  0.04166667  0.95701333  1.0
  Ni  Ni490  1  0.33333333  0.37500000  0.95701333  1.0
  Ni  Ni491  1  0.33333333  0.70833333  0.95701333  1.0
  Ni  Ni492  1  0.66666667  0.04166667  0.95701333  1.0
  Ni  Ni493  1  0.66666667  0.37500000  0.95701333  1.0
  Ni  Ni494  1  0.66666667  0.70833333  0.95701333  1.0
  Ni  Ni495  1  0.16666667  0.20833333  0.83201333  1.0
  Ni  Ni496  1  0.16666667  0.54166667  0.83201333  1.0
  Ni  Ni497  1  0.16666667  0.87500000  0.83201333  1.0
  Ni  Ni498  1  0.50000000  0.20833333  0.83201333  1.0
  Ni  Ni499  1  0.50000000  0.54166667  0.83201333  1.0
  Ni  Ni500  1  0.50000000  0.87500000  0.83201333  1.0
  Ni  Ni501  1  0.83333333  0.20833333  0.83201333  1.0
  Ni  Ni502  1  0.83333333  0.54166667  0.83201333  1.0
  Ni  Ni503  1  0.83333333  0.87500000  0.83201333  1.0
  Ni  Ni504  1  0.00000000  0.30731556  0.98048666  1.0
  Ni  Ni505  1  0.00000000  0.64064889  0.98048666  1.0
  Ni  Ni506  1  0.00000000  0.97398222  0.98048666  1.0
  Ni  Ni507  1  0.33333333  0.30731556  0.98048666  1.0
  Ni  Ni508  1  0.33333333  0.64064889  0.98048666  1.0
  Ni  Ni509  1  0.33333333  0.97398222  0.98048666  1.0
  Ni  Ni510  1  0.66666667  0.30731556  0.98048666  1.0
  Ni  Ni511  1  0.66666667  0.64064889  0.98048666  1.0
  Ni  Ni512  1  0.66666667  0.97398222  0.98048666  1.0
  Ni  Ni513  1  0.16666667  0.14064889  0.85548666  1.0
  Ni  Ni514  1  0.16666667  0.47398222  0.85548666  1.0
  Ni  Ni515  1  0.16666667  0.80731556  0.85548666  1.0
  Ni  Ni516  1  0.50000000  0.14064889  0.85548666  1.0
  Ni  Ni517  1  0.50000000  0.47398222  0.85548666  1.0
  Ni  Ni518  1  0.50000000  0.80731556  0.85548666  1.0
  Ni  Ni519  1  0.83333333  0.14064889  0.85548666  1.0
  Ni  Ni520  1  0.83333333  0.47398222  0.85548666  1.0
  Ni  Ni521  1  0.83333333  0.80731556  0.85548666  1.0
  Ni  Ni522  1  0.11463111  0.19268445  0.89451333  1.0
  Ni  Ni523  1  0.11463111  0.52601778  0.89451333  1.0
  Ni  Ni524  1  0.11463111  0.85935111  0.89451333  1.0
  Ni  Ni525  1  0.44796444  0.19268445  0.89451333  1.0
  Ni  Ni526  1  0.44796444  0.52601778  0.89451333  1.0
  Ni  Ni527  1  0.44796444  0.85935111  0.89451333  1.0
  Ni  Ni528  1  0.78129778  0.19268445  0.89451333  1.0
  Ni  Ni529  1  0.78129778  0.52601778  0.89451333  1.0
  Ni  Ni530  1  0.78129778  0.85935111  0.89451333  1.0
  Ni  Ni531  1  0.28129778  0.02601778  0.76951333  1.0
  Ni  Ni532  1  0.28129778  0.35935111  0.76951333  1.0
  Ni  Ni533  1  0.28129778  0.69268445  0.76951333  1.0
  Ni  Ni534  1  0.61463111  0.02601778  0.76951333  1.0
  Ni  Ni535  1  0.61463111  0.35935111  0.76951333  1.0
  Ni  Ni536  1  0.61463111  0.69268445  0.76951333  1.0
  Ni  Ni537  1  0.94796444  0.02601778  0.76951333  1.0
  Ni  Ni538  1  0.94796444  0.35935111  0.76951333  1.0
  Ni  Ni539  1  0.94796444  0.69268445  0.76951333  1.0
  Ni  Ni540  1  0.21870222  0.19268445  0.89451333  1.0
  Ni  Ni541  1  0.21870222  0.52601778  0.89451333  1.0
  Ni  Ni542  1  0.21870222  0.85935111  0.89451333  1.0
  Ni  Ni543  1  0.55203556  0.19268445  0.89451333  1.0
  Ni  Ni544  1  0.55203556  0.52601778  0.89451333  1.0
  Ni  Ni545  1  0.55203556  0.85935111  0.89451333  1.0
  Ni  Ni546  1  0.88536889  0.19268445  0.89451333  1.0
  Ni  Ni547  1  0.88536889  0.52601778  0.89451333  1.0
  Ni  Ni548  1  0.88536889  0.85935111  0.89451333  1.0
  Ni  Ni549  1  0.05203556  0.02601778  0.76951333  1.0
  Ni  Ni550  1  0.05203556  0.35935111  0.76951333  1.0
  Ni  Ni551  1  0.05203556  0.69268445  0.76951333  1.0
  Ni  Ni552  1  0.38536889  0.02601778  0.76951333  1.0
  Ni  Ni553  1  0.38536889  0.35935111  0.76951333  1.0
  Ni  Ni554  1  0.38536889  0.69268445  0.76951333  1.0
  Ni  Ni555  1  0.71870222  0.02601778  0.76951333  1.0
  Ni  Ni556  1  0.71870222  0.35935111  0.76951333  1.0
  Ni  Ni557  1  0.71870222  0.69268445  0.76951333  1.0
  Ni  Ni558  1  0.00000000  0.30731556  0.80854000  1.0
  Ni  Ni559  1  0.00000000  0.64064889  0.80854000  1.0
  Ni  Ni560  1  0.00000000  0.97398222  0.80854000  1.0
  Ni  Ni561  1  0.33333333  0.30731556  0.80854000  1.0
  Ni  Ni562  1  0.33333333  0.64064889  0.80854000  1.0
  Ni  Ni563  1  0.33333333  0.97398222  0.80854000  1.0
  Ni  Ni564  1  0.66666667  0.30731556  0.80854000  1.0
  Ni  Ni565  1  0.66666667  0.64064889  0.80854000  1.0
  Ni  Ni566  1  0.66666667  0.97398222  0.80854000  1.0
  Ni  Ni567  1  0.16666667  0.14064889  0.93354000  1.0
  Ni  Ni568  1  0.16666667  0.47398222  0.93354000  1.0
  Ni  Ni569  1  0.16666667  0.80731556  0.93354000  1.0
  Ni  Ni570  1  0.50000000  0.14064889  0.93354000  1.0
  Ni  Ni571  1  0.50000000  0.47398222  0.93354000  1.0
  Ni  Ni572  1  0.50000000  0.80731556  0.93354000  1.0
  Ni  Ni573  1  0.83333333  0.14064889  0.93354000  1.0
  Ni  Ni574  1  0.83333333  0.47398222  0.93354000  1.0
  Ni  Ni575  1  0.83333333  0.80731556  0.93354000  1.0
  Ni  Ni576  1  0.00000000  0.10935111  0.93354000  1.0
  Ni  Ni577  1  0.00000000  0.44268444  0.93354000  1.0
  Ni  Ni578  1  0.00000000  0.77601778  0.93354000  1.0
  Ni  Ni579  1  0.33333333  0.10935111  0.93354000  1.0
  Ni  Ni580  1  0.33333333  0.44268444  0.93354000  1.0
  Ni  Ni581  1  0.33333333  0.77601778  0.93354000  1.0
  Ni  Ni582  1  0.66666667  0.10935111  0.93354000  1.0
  Ni  Ni583  1  0.66666667  0.44268444  0.93354000  1.0
  Ni  Ni584  1  0.66666667  0.77601778  0.93354000  1.0
  Ni  Ni585  1  0.16666667  0.27601778  0.80854000  1.0
  Ni  Ni586  1  0.16666667  0.60935111  0.80854000  1.0
  Ni  Ni587  1  0.16666667  0.94268444  0.80854000  1.0
  Ni  Ni588  1  0.50000000  0.27601778  0.80854000  1.0
  Ni  Ni589  1  0.50000000  0.60935111  0.80854000  1.0
  Ni  Ni590  1  0.50000000  0.94268444  0.80854000  1.0
  Ni  Ni591  1  0.83333333  0.27601778  0.80854000  1.0
  Ni  Ni592  1  0.83333333  0.60935111  0.80854000  1.0
  Ni  Ni593  1  0.83333333  0.94268444  0.80854000  1.0
  Ni  Ni594  1  0.05203556  0.05731556  0.89451333  1.0
  Ni  Ni595  1  0.05203556  0.39064889  0.89451333  1.0
  Ni  Ni596  1  0.05203556  0.72398222  0.89451333  1.0
  Ni  Ni597  1  0.38536889  0.05731556  0.89451333  1.0
  Ni  Ni598  1  0.38536889  0.39064889  0.89451333  1.0
  Ni  Ni599  1  0.38536889  0.72398222  0.89451333  1.0
  Ni  Ni600  1  0.71870222  0.05731556  0.89451333  1.0
  Ni  Ni601  1  0.71870222  0.39064889  0.89451333  1.0
  Ni  Ni602  1  0.71870222  0.72398222  0.89451333  1.0
  Ni  Ni603  1  0.21870222  0.22398222  0.76951333  1.0
  Ni  Ni604  1  0.21870222  0.55731556  0.76951333  1.0
  Ni  Ni605  1  0.21870222  0.89064889  0.76951333  1.0
  Ni  Ni606  1  0.55203555  0.22398222  0.76951333  1.0
  Ni  Ni607  1  0.55203555  0.55731556  0.76951333  1.0
  Ni  Ni608  1  0.55203556  0.89064889  0.76951333  1.0
  Ni  Ni609  1  0.88536889  0.22398222  0.76951333  1.0
  Ni  Ni610  1  0.88536889  0.55731556  0.76951333  1.0
  Ni  Ni611  1  0.88536889  0.89064889  0.76951333  1.0
  Ni  Ni612  1  0.28129778  0.05731556  0.89451333  1.0
  Ni  Ni613  1  0.28129778  0.39064889  0.89451333  1.0
  Ni  Ni614  1  0.28129778  0.72398222  0.89451333  1.0
  Ni  Ni615  1  0.61463111  0.05731556  0.89451333  1.0
  Ni  Ni616  1  0.61463111  0.39064889  0.89451333  1.0
  Ni  Ni617  1  0.61463111  0.72398222  0.89451333  1.0
  Ni  Ni618  1  0.94796444  0.05731556  0.89451333  1.0
  Ni  Ni619  1  0.94796444  0.39064889  0.89451333  1.0
  Ni  Ni620  1  0.94796444  0.72398222  0.89451333  1.0
  Ni  Ni621  1  0.11463111  0.22398222  0.76951333  1.0
  Ni  Ni622  1  0.11463111  0.55731556  0.76951333  1.0
  Ni  Ni623  1  0.11463111  0.89064889  0.76951333  1.0
  Ni  Ni624  1  0.44796444  0.22398222  0.76951333  1.0
  Ni  Ni625  1  0.44796445  0.55731556  0.76951333  1.0
  Ni  Ni626  1  0.44796444  0.89064889  0.76951333  1.0
  Ni  Ni627  1  0.78129778  0.22398222  0.76951333  1.0
  Ni  Ni628  1  0.78129778  0.55731556  0.76951333  1.0
  Ni  Ni629  1  0.78129778  0.89064889  0.76951333  1.0
  Ni  Ni630  1  0.00000000  0.10935111  0.85548667  1.0
  Ni  Ni631  1  0.00000000  0.44268444  0.85548667  1.0
  Ni  Ni632  1  0.00000000  0.77601778  0.85548667  1.0
  Ni  Ni633  1  0.33333333  0.10935111  0.85548667  1.0
  Ni  Ni634  1  0.33333333  0.44268444  0.85548667  1.0
  Ni  Ni635  1  0.33333333  0.77601778  0.85548667  1.0
  Ni  Ni636  1  0.66666667  0.10935111  0.85548667  1.0
  Ni  Ni637  1  0.66666667  0.44268444  0.85548667  1.0
  Ni  Ni638  1  0.66666667  0.77601778  0.85548667  1.0
  Ni  Ni639  1  0.16666667  0.27601778  0.98048667  1.0
  Ni  Ni640  1  0.16666667  0.60935111  0.98048667  1.0
  Ni  Ni641  1  0.16666667  0.94268444  0.98048667  1.0
  Ni  Ni642  1  0.50000000  0.27601778  0.98048667  1.0
  Ni  Ni643  1  0.50000000  0.60935111  0.98048667  1.0
  Ni  Ni644  1  0.50000000  0.94268444  0.98048667  1.0
  Ni  Ni645  1  0.83333333  0.27601778  0.98048667  1.0
  Ni  Ni646  1  0.83333333  0.60935111  0.98048667  1.0
  Ni  Ni647  1  0.83333333  0.94268444  0.98048667  1.0
  Ni  Ni648  1  0.00000000  0.04166667  0.58201333  1.0
  Ni  Ni649  1  0.00000000  0.37500000  0.58201333  1.0
  Ni  Ni650  1  0.00000000  0.70833333  0.58201333  1.0
  Ni  Ni651  1  0.33333333  0.04166667  0.58201333  1.0
  Ni  Ni652  1  0.33333333  0.37500000  0.58201333  1.0
  Ni  Ni653  1  0.33333333  0.70833333  0.58201333  1.0
  Ni  Ni654  1  0.66666667  0.04166667  0.58201333  1.0
  Ni  Ni655  1  0.66666667  0.37500000  0.58201333  1.0
  Ni  Ni656  1  0.66666667  0.70833333  0.58201333  1.0
  Ni  Ni657  1  0.16666667  0.20833333  0.70701333  1.0
  Ni  Ni658  1  0.16666667  0.54166667  0.70701333  1.0
  Ni  Ni659  1  0.16666667  0.87500000  0.70701333  1.0
  Ni  Ni660  1  0.50000000  0.20833333  0.70701333  1.0
  Ni  Ni661  1  0.50000000  0.54166667  0.70701333  1.0
  Ni  Ni662  1  0.50000000  0.87500000  0.70701333  1.0
  Ni  Ni663  1  0.83333333  0.20833333  0.70701333  1.0
  Ni  Ni664  1  0.83333333  0.54166667  0.70701333  1.0
  Ni  Ni665  1  0.83333333  0.87500000  0.70701333  1.0
  Ni  Ni666  1  0.25000000  0.12500000  0.64451333  1.0
  Ni  Ni667  1  0.25000000  0.45833333  0.64451333  1.0
  Ni  Ni668  1  0.25000000  0.79166667  0.64451333  1.0
  Ni  Ni669  1  0.58333333  0.12500000  0.64451333  1.0
  Ni  Ni670  1  0.58333333  0.45833333  0.64451333  1.0
  Ni  Ni671  1  0.58333333  0.79166667  0.64451333  1.0
  Ni  Ni672  1  0.91666667  0.12500000  0.64451333  1.0
  Ni  Ni673  1  0.91666667  0.45833333  0.64451333  1.0
  Ni  Ni674  1  0.91666667  0.79166667  0.64451333  1.0
  Ni  Ni675  1  0.08333333  0.29166667  0.51951333  1.0
  Ni  Ni676  1  0.08333333  0.62500000  0.51951333  1.0
  Ni  Ni677  1  0.08333333  0.95833333  0.51951333  1.0
  Ni  Ni678  1  0.41666667  0.29166667  0.51951333  1.0
  Ni  Ni679  1  0.41666667  0.62500000  0.51951333  1.0
  Ni  Ni680  1  0.41666667  0.95833333  0.51951333  1.0
  Ni  Ni681  1  0.75000000  0.29166667  0.51951333  1.0
  Ni  Ni682  1  0.75000000  0.62500000  0.51951333  1.0
  Ni  Ni683  1  0.75000000  0.95833333  0.51951333  1.0
  Ni  Ni684  1  0.08333333  0.12500000  0.64451333  1.0
  Ni  Ni685  1  0.08333333  0.45833333  0.64451333  1.0
  Ni  Ni686  1  0.08333333  0.79166667  0.64451333  1.0
  Ni  Ni687  1  0.41666667  0.12500000  0.64451333  1.0
  Ni  Ni688  1  0.41666667  0.45833333  0.64451333  1.0
  Ni  Ni689  1  0.41666667  0.79166667  0.64451333  1.0
  Ni  Ni690  1  0.75000000  0.12500000  0.64451333  1.0
  Ni  Ni691  1  0.75000000  0.45833333  0.64451333  1.0
  Ni  Ni692  1  0.75000000  0.79166667  0.64451333  1.0
  Ni  Ni693  1  0.25000000  0.29166667  0.51951333  1.0
  Ni  Ni694  1  0.25000000  0.62500000  0.51951333  1.0
  Ni  Ni695  1  0.25000000  0.95833333  0.51951333  1.0
  Ni  Ni696  1  0.58333333  0.29166667  0.51951333  1.0
  Ni  Ni697  1  0.58333333  0.62500000  0.51951333  1.0
  Ni  Ni698  1  0.58333333  0.95833333  0.51951333  1.0
  Ni  Ni699  1  0.91666667  0.29166667  0.51951333  1.0
  Ni  Ni700  1  0.91666667  0.62500000  0.51951333  1.0
  Ni  Ni701  1  0.91666667  0.95833333  0.51951333  1.0
  Ni  Ni702  1  0.33333333  0.04166667  0.70701333  1.0
  Ni  Ni703  1  0.33333333  0.37500000  0.70701333  1.0
  Ni  Ni704  1  0.33333333  0.70833333  0.70701333  1.0
  Ni  Ni705  1  0.66666667  0.04166667  0.70701333  1.0
  Ni  Ni706  1  0.66666667  0.37500000  0.70701333  1.0
  Ni  Ni707  1  0.66666667  0.70833333  0.70701333  1.0
  Ni  Ni708  1  0.00000000  0.04166667  0.70701333  1.0
  Ni  Ni709  1  0.00000000  0.37500000  0.70701333  1.0
  Ni  Ni710  1  0.00000000  0.70833333  0.70701333  1.0
  Ni  Ni711  1  0.16666667  0.20833333  0.58201333  1.0
  Ni  Ni712  1  0.16666667  0.54166667  0.58201333  1.0
  Ni  Ni713  1  0.16666667  0.87500000  0.58201333  1.0
  Ni  Ni714  1  0.50000000  0.20833333  0.58201333  1.0
  Ni  Ni715  1  0.50000000  0.54166667  0.58201333  1.0
  Ni  Ni716  1  0.50000000  0.87500000  0.58201333  1.0
  Ni  Ni717  1  0.83333333  0.20833333  0.58201333  1.0
  Ni  Ni718  1  0.83333333  0.54166667  0.58201333  1.0
  Ni  Ni719  1  0.83333333  0.87500000  0.58201333  1.0
  Ni  Ni720  1  0.00000000  0.30731556  0.73048666  1.0
  Ni  Ni721  1  0.00000000  0.64064889  0.73048666  1.0
  Ni  Ni722  1  0.00000000  0.97398222  0.73048666  1.0
  Ni  Ni723  1  0.33333333  0.30731556  0.73048666  1.0
  Ni  Ni724  1  0.33333333  0.64064889  0.73048666  1.0
  Ni  Ni725  1  0.33333333  0.97398222  0.73048666  1.0
  Ni  Ni726  1  0.66666667  0.30731556  0.73048666  1.0
  Ni  Ni727  1  0.66666667  0.64064889  0.73048666  1.0
  Ni  Ni728  1  0.66666667  0.97398222  0.73048666  1.0
  Ni  Ni729  1  0.16666667  0.14064889  0.60548666  1.0
  Ni  Ni730  1  0.16666667  0.47398222  0.60548666  1.0
  Ni  Ni731  1  0.16666667  0.80731556  0.60548666  1.0
  Ni  Ni732  1  0.50000000  0.14064889  0.60548666  1.0
  Ni  Ni733  1  0.50000000  0.47398222  0.60548666  1.0
  Ni  Ni734  1  0.50000000  0.80731556  0.60548666  1.0
  Ni  Ni735  1  0.83333333  0.14064889  0.60548666  1.0
  Ni  Ni736  1  0.83333333  0.47398222  0.60548666  1.0
  Ni  Ni737  1  0.83333333  0.80731556  0.60548666  1.0
  Ni  Ni738  1  0.11463111  0.19268445  0.64451333  1.0
  Ni  Ni739  1  0.11463111  0.52601778  0.64451333  1.0
  Ni  Ni740  1  0.11463111  0.85935111  0.64451333  1.0
  Ni  Ni741  1  0.44796444  0.19268445  0.64451333  1.0
  Ni  Ni742  1  0.44796445  0.52601778  0.64451333  1.0
  Ni  Ni743  1  0.44796444  0.85935111  0.64451333  1.0
  Ni  Ni744  1  0.78129778  0.19268445  0.64451333  1.0
  Ni  Ni745  1  0.78129778  0.52601778  0.64451333  1.0
  Ni  Ni746  1  0.78129778  0.85935111  0.64451333  1.0
  Ni  Ni747  1  0.28129778  0.02601778  0.51951333  1.0
  Ni  Ni748  1  0.28129778  0.35935111  0.51951333  1.0
  Ni  Ni749  1  0.28129778  0.69268445  0.51951333  1.0
  Ni  Ni750  1  0.61463111  0.02601778  0.51951333  1.0
  Ni  Ni751  1  0.61463111  0.35935111  0.51951333  1.0
  Ni  Ni752  1  0.61463111  0.69268445  0.51951333  1.0
  Ni  Ni753  1  0.94796444  0.02601778  0.51951333  1.0
  Ni  Ni754  1  0.94796444  0.35935111  0.51951333  1.0
  Ni  Ni755  1  0.94796444  0.69268445  0.51951333  1.0
  Ni  Ni756  1  0.21870222  0.19268445  0.64451333  1.0
  Ni  Ni757  1  0.21870222  0.52601778  0.64451333  1.0
  Ni  Ni758  1  0.21870222  0.85935111  0.64451333  1.0
  Ni  Ni759  1  0.55203556  0.19268445  0.64451333  1.0
  Ni  Ni760  1  0.55203556  0.52601778  0.64451333  1.0
  Ni  Ni761  1  0.55203556  0.85935111  0.64451333  1.0
  Ni  Ni762  1  0.88536889  0.19268445  0.64451333  1.0
  Ni  Ni763  1  0.88536889  0.52601778  0.64451333  1.0
  Ni  Ni764  1  0.88536889  0.85935111  0.64451333  1.0
  Ni  Ni765  1  0.05203556  0.02601778  0.51951333  1.0
  Ni  Ni766  1  0.05203556  0.35935111  0.51951333  1.0
  Ni  Ni767  1  0.05203556  0.69268445  0.51951333  1.0
  Ni  Ni768  1  0.38536889  0.02601778  0.51951333  1.0
  Ni  Ni769  1  0.38536889  0.35935111  0.51951333  1.0
  Ni  Ni770  1  0.38536889  0.69268445  0.51951333  1.0
  Ni  Ni771  1  0.71870222  0.02601778  0.51951333  1.0
  Ni  Ni772  1  0.71870222  0.35935111  0.51951333  1.0
  Ni  Ni773  1  0.71870222  0.69268445  0.51951333  1.0
  Ni  Ni774  1  0.00000000  0.30731556  0.55854000  1.0
  Ni  Ni775  1  0.00000000  0.64064889  0.55854000  1.0
  Ni  Ni776  1  0.00000000  0.97398222  0.55854000  1.0
  Ni  Ni777  1  0.33333333  0.30731556  0.55854000  1.0
  Ni  Ni778  1  0.33333333  0.64064889  0.55854000  1.0
  Ni  Ni779  1  0.33333333  0.97398222  0.55854000  1.0
  Ni  Ni780  1  0.66666667  0.30731556  0.55854000  1.0
  Ni  Ni781  1  0.66666667  0.64064889  0.55854000  1.0
  Ni  Ni782  1  0.66666667  0.97398222  0.55854000  1.0
  Ni  Ni783  1  0.16666667  0.14064889  0.68354000  1.0
  Ni  Ni784  1  0.16666667  0.47398222  0.68354000  1.0
  Ni  Ni785  1  0.16666667  0.80731556  0.68354000  1.0
  Ni  Ni786  1  0.50000000  0.14064889  0.68354000  1.0
  Ni  Ni787  1  0.50000000  0.47398222  0.68354000  1.0
  Ni  Ni788  1  0.50000000  0.80731556  0.68354000  1.0
  Ni  Ni789  1  0.83333333  0.14064889  0.68354000  1.0
  Ni  Ni790  1  0.83333333  0.47398222  0.68354000  1.0
  Ni  Ni791  1  0.83333333  0.80731556  0.68354000  1.0
  Ni  Ni792  1  0.00000000  0.10935111  0.68354000  1.0
  Ni  Ni793  1  0.00000000  0.44268444  0.68354000  1.0
  Ni  Ni794  1  0.00000000  0.77601778  0.68354000  1.0
  Ni  Ni795  1  0.33333333  0.10935111  0.68354000  1.0
  Ni  Ni796  1  0.33333333  0.44268444  0.68354000  1.0
  Ni  Ni797  1  0.33333333  0.77601778  0.68354000  1.0
  Ni  Ni798  1  0.66666667  0.10935111  0.68354000  1.0
  Ni  Ni799  1  0.66666667  0.44268444  0.68354000  1.0
  Ni  Ni800  1  0.66666667  0.77601778  0.68354000  1.0
  Ni  Ni801  1  0.16666667  0.27601778  0.55854000  1.0
  Ni  Ni802  1  0.16666667  0.60935111  0.55854000  1.0
  Ni  Ni803  1  0.16666667  0.94268444  0.55854000  1.0
  Ni  Ni804  1  0.50000000  0.27601778  0.55854000  1.0
  Ni  Ni805  1  0.50000000  0.60935111  0.55854000  1.0
  Ni  Ni806  1  0.50000000  0.94268444  0.55854000  1.0
  Ni  Ni807  1  0.83333333  0.27601778  0.55854000  1.0
  Ni  Ni808  1  0.83333333  0.60935111  0.55854000  1.0
  Ni  Ni809  1  0.83333333  0.94268444  0.55854000  1.0
  Ni  Ni810  1  0.05203556  0.05731556  0.64451333  1.0
  Ni  Ni811  1  0.05203556  0.39064889  0.64451333  1.0
  Ni  Ni812  1  0.05203556  0.72398222  0.64451333  1.0
  Ni  Ni813  1  0.38536889  0.05731556  0.64451333  1.0
  Ni  Ni814  1  0.38536889  0.39064889  0.64451333  1.0
  Ni  Ni815  1  0.38536889  0.72398222  0.64451333  1.0
  Ni  Ni816  1  0.71870222  0.05731556  0.64451333  1.0
  Ni  Ni817  1  0.71870222  0.39064889  0.64451333  1.0
  Ni  Ni818  1  0.71870222  0.72398222  0.64451333  1.0
  Ni  Ni819  1  0.21870222  0.22398222  0.51951333  1.0
  Ni  Ni820  1  0.21870222  0.55731556  0.51951333  1.0
  Ni  Ni821  1  0.21870222  0.89064889  0.51951333  1.0
  Ni  Ni822  1  0.55203555  0.22398222  0.51951333  1.0
  Ni  Ni823  1  0.55203555  0.55731556  0.51951333  1.0
  Ni  Ni824  1  0.55203556  0.89064889  0.51951333  1.0
  Ni  Ni825  1  0.88536889  0.22398222  0.51951333  1.0
  Ni  Ni826  1  0.88536889  0.55731556  0.51951333  1.0
  Ni  Ni827  1  0.88536889  0.89064889  0.51951333  1.0
  Ni  Ni828  1  0.28129778  0.05731555  0.64451333  1.0
  Ni  Ni829  1  0.28129778  0.39064889  0.64451333  1.0
  Ni  Ni830  1  0.28129778  0.72398222  0.64451333  1.0
  Ni  Ni831  1  0.61463111  0.05731555  0.64451333  1.0
  Ni  Ni832  1  0.61463111  0.39064889  0.64451333  1.0
  Ni  Ni833  1  0.61463111  0.72398222  0.64451333  1.0
  Ni  Ni834  1  0.94796444  0.05731555  0.64451333  1.0
  Ni  Ni835  1  0.94796444  0.39064889  0.64451333  1.0
  Ni  Ni836  1  0.94796444  0.72398222  0.64451333  1.0
  Ni  Ni837  1  0.11463111  0.22398222  0.51951333  1.0
  Ni  Ni838  1  0.11463111  0.55731556  0.51951333  1.0
  Ni  Ni839  1  0.11463111  0.89064889  0.51951333  1.0
  Ni  Ni840  1  0.44796445  0.22398222  0.51951333  1.0
  Ni  Ni841  1  0.44796445  0.55731556  0.51951333  1.0
  Ni  Ni842  1  0.44796445  0.89064889  0.51951333  1.0
  Ni  Ni843  1  0.78129778  0.22398222  0.51951333  1.0
  Ni  Ni844  1  0.78129778  0.55731556  0.51951333  1.0
  Ni  Ni845  1  0.78129778  0.89064889  0.51951333  1.0
  Ni  Ni846  1  0.33333333  0.10935111  0.60548667  1.0
  Ni  Ni847  1  0.33333333  0.44268444  0.60548667  1.0
  Ni  Ni848  1  0.33333333  0.77601778  0.60548667  1.0
  Ni  Ni849  1  0.66666667  0.10935111  0.60548667  1.0
  Ni  Ni850  1  0.66666667  0.44268444  0.60548667  1.0
  Ni  Ni851  1  0.66666667  0.77601778  0.60548667  1.0
  Ni  Ni852  1  1.00000000  0.10935111  0.60548667  1.0
  Ni  Ni853  1  1.00000000  0.44268444  0.60548667  1.0
  Ni  Ni854  1  0.00000000  0.77601778  0.60548667  1.0
  Ni  Ni855  1  0.16666667  0.27601778  0.73048667  1.0
  Ni  Ni856  1  0.16666667  0.60935111  0.73048667  1.0
  Ni  Ni857  1  0.16666667  0.94268444  0.73048667  1.0
  Ni  Ni858  1  0.50000000  0.27601778  0.73048667  1.0
  Ni  Ni859  1  0.50000000  0.60935111  0.73048667  1.0
  Ni  Ni860  1  0.50000000  0.94268444  0.73048667  1.0
  Ni  Ni861  1  0.83333333  0.27601778  0.73048667  1.0
  Ni  Ni862  1  0.83333333  0.60935111  0.73048667  1.0
  Ni  Ni863  1  0.83333333  0.94268444  0.73048667  1.0
