# generated using pymatgen
data_CdNi
_symmetry_space_group_name_H-M   'P 1'
_cell_length_a   24.29023800
_cell_length_b   59.49868883
_cell_length_c   33.38373898
_cell_angle_alpha   101.42175366
_cell_angle_beta   90.00000000
_cell_angle_gamma   90.00000000
_symmetry_Int_Tables_number   1
_chemical_formula_structural   CdNi
_chemical_formula_sum   'Cd648 Ni648'
_cell_volume   47291.93603265
_cell_formula_units_Z   648
loop_
 _symmetry_equiv_pos_site_id
 _symmetry_equiv_pos_as_xyz
  1  'x, y, z'
loop_
 _atom_site_type_symbol
 _atom_site_label
 _atom_site_symmetry_multiplicity
 _atom_site_fract_x
 _atom_site_fract_y
 _atom_site_fract_z
 _atom_site_occupancy
  Cd  Cd0  1  0.06645033  0.09523810  0.10714286  1.0
  Cd  Cd1  1  0.06645033  0.42857143  0.10714286  1.0
  Cd  Cd2  1  0.06645033  0.76190476  0.10714286  1.0
  Cd  Cd3  1  0.39978367  0.09523810  0.10714286  1.0
  Cd  Cd4  1  0.39978367  0.42857143  0.10714286  1.0
  Cd  Cd5  1  0.39978367  0.76190476  0.10714286  1.0
  Cd  Cd6  1  0.73311700  0.09523810  0.10714286  1.0
  Cd  Cd7  1  0.73311700  0.42857143  0.10714286  1.0
  Cd  Cd8  1  0.73311700  0.76190476  0.10714286  1.0
  Cd  Cd9  1  0.23311700  0.30952381  0.03571429  1.0
  Cd  Cd10  1  0.23311700  0.64285714  0.03571429  1.0
  Cd  Cd11  1  0.23311700  0.97619048  0.03571429  1.0
  Cd  Cd12  1  0.56645033  0.30952381  0.03571429  1.0
  Cd  Cd13  1  0.56645033  0.64285714  0.03571429  1.0
  Cd  Cd14  1  0.56645033  0.97619048  0.03571429  1.0
  Cd  Cd15  1  0.89978367  0.30952381  0.03571429  1.0
  Cd  Cd16  1  0.89978367  0.64285714  0.03571429  1.0
  Cd  Cd17  1  0.89978367  0.97619048  0.03571429  1.0
  Cd  Cd18  1  0.26688300  0.15250457  0.02124314  1.0
  Cd  Cd19  1  0.26688300  0.48583790  0.02124314  1.0
  Cd  Cd20  1  0.26688300  0.81917124  0.02124314  1.0
  Cd  Cd21  1  0.60021633  0.15250457  0.02124314  1.0
  Cd  Cd22  1  0.60021633  0.48583790  0.02124314  1.0
  Cd  Cd23  1  0.60021633  0.81917124  0.02124314  1.0
  Cd  Cd24  1  0.93354967  0.15250457  0.02124314  1.0
  Cd  Cd25  1  0.93354967  0.48583790  0.02124314  1.0
  Cd  Cd26  1  0.93354967  0.81917124  0.02124314  1.0
  Cd  Cd27  1  0.10021633  0.27155219  0.09267171  1.0
  Cd  Cd28  1  0.10021633  0.60488552  0.09267171  1.0
  Cd  Cd29  1  0.10021633  0.93821886  0.09267171  1.0
  Cd  Cd30  1  0.43354967  0.27155219  0.09267171  1.0
  Cd  Cd31  1  0.43354967  0.60488552  0.09267171  1.0
  Cd  Cd32  1  0.43354967  0.93821886  0.09267171  1.0
  Cd  Cd33  1  0.76688300  0.27155219  0.09267171  1.0
  Cd  Cd34  1  0.76688300  0.60488552  0.09267171  1.0
  Cd  Cd35  1  0.76688300  0.93821886  0.09267171  1.0
  Cd  Cd36  1  0.26688300  0.09523810  0.10714286  1.0
  Cd  Cd37  1  0.26688300  0.42857143  0.10714286  1.0
  Cd  Cd38  1  0.26688300  0.76190476  0.10714286  1.0
  Cd  Cd39  1  0.60021633  0.09523810  0.10714286  1.0
  Cd  Cd40  1  0.60021633  0.42857143  0.10714286  1.0
  Cd  Cd41  1  0.60021633  0.76190476  0.10714286  1.0
  Cd  Cd42  1  0.93354967  0.09523810  0.10714286  1.0
  Cd  Cd43  1  0.93354967  0.42857143  0.10714286  1.0
  Cd  Cd44  1  0.93354967  0.76190476  0.10714286  1.0
  Cd  Cd45  1  0.10021633  0.30952381  0.03571429  1.0
  Cd  Cd46  1  0.10021633  0.64285714  0.03571429  1.0
  Cd  Cd47  1  0.10021633  0.97619048  0.03571429  1.0
  Cd  Cd48  1  0.43354967  0.30952381  0.03571429  1.0
  Cd  Cd49  1  0.43354967  0.64285714  0.03571429  1.0
  Cd  Cd50  1  0.43354967  0.97619048  0.03571429  1.0
  Cd  Cd51  1  0.76688300  0.30952381  0.03571429  1.0
  Cd  Cd52  1  0.76688300  0.64285714  0.03571429  1.0
  Cd  Cd53  1  0.76688300  0.97619048  0.03571429  1.0
  Cd  Cd54  1  0.06645033  0.15250457  0.02124314  1.0
  Cd  Cd55  1  0.06645033  0.48583790  0.02124314  1.0
  Cd  Cd56  1  0.06645033  0.81917124  0.02124314  1.0
  Cd  Cd57  1  0.39978367  0.15250457  0.02124314  1.0
  Cd  Cd58  1  0.39978367  0.48583790  0.02124314  1.0
  Cd  Cd59  1  0.39978367  0.81917124  0.02124314  1.0
  Cd  Cd60  1  0.73311700  0.15250457  0.02124314  1.0
  Cd  Cd61  1  0.73311700  0.48583790  0.02124314  1.0
  Cd  Cd62  1  0.73311700  0.81917124  0.02124314  1.0
  Cd  Cd63  1  0.23311700  0.27155219  0.09267171  1.0
  Cd  Cd64  1  0.23311700  0.60488552  0.09267171  1.0
  Cd  Cd65  1  0.23311700  0.93821886  0.09267171  1.0
  Cd  Cd66  1  0.56645033  0.27155219  0.09267171  1.0
  Cd  Cd67  1  0.56645033  0.60488552  0.09267171  1.0
  Cd  Cd68  1  0.56645033  0.93821886  0.09267171  1.0
  Cd  Cd69  1  0.89978367  0.27155219  0.09267171  1.0
  Cd  Cd70  1  0.89978367  0.60488552  0.09267171  1.0
  Cd  Cd71  1  0.89978367  0.93821886  0.09267171  1.0
  Cd  Cd72  1  0.33333333  0.19996910  0.04972186  1.0
  Cd  Cd73  1  0.33333333  0.53330243  0.04972186  1.0
  Cd  Cd74  1  0.33333333  0.86663576  0.04972186  1.0
  Cd  Cd75  1  0.66666667  0.19996910  0.04972186  1.0
  Cd  Cd76  1  0.66666667  0.53330243  0.04972186  1.0
  Cd  Cd77  1  0.66666667  0.86663576  0.04972186  1.0
  Cd  Cd78  1  1.00000000  0.19996910  0.04972186  1.0
  Cd  Cd79  1  1.00000000  0.53330243  0.04972186  1.0
  Cd  Cd80  1  1.00000000  0.86663576  0.04972186  1.0
  Cd  Cd81  1  0.16666667  0.31901671  0.12115043  1.0
  Cd  Cd82  1  0.16666667  0.65235005  0.12115043  1.0
  Cd  Cd83  1  0.16666667  0.98568338  0.12115043  1.0
  Cd  Cd84  1  0.50000000  0.31901671  0.12115043  1.0
  Cd  Cd85  1  0.50000000  0.65235005  0.12115043  1.0
  Cd  Cd86  1  0.50000000  0.98568338  0.12115043  1.0
  Cd  Cd87  1  0.83333333  0.31901671  0.12115043  1.0
  Cd  Cd88  1  0.83333333  0.65235005  0.12115043  1.0
  Cd  Cd89  1  0.83333333  0.98568338  0.12115043  1.0
  Cd  Cd90  1  0.33333333  0.04777357  0.07866414  1.0
  Cd  Cd91  1  0.33333333  0.38110690  0.07866414  1.0
  Cd  Cd92  1  0.33333333  0.71444024  0.07866414  1.0
  Cd  Cd93  1  0.66666667  0.04777357  0.07866414  1.0
  Cd  Cd94  1  0.66666667  0.38110690  0.07866414  1.0
  Cd  Cd95  1  0.66666667  0.71444024  0.07866414  1.0
  Cd  Cd96  1  1.00000000  0.04777357  0.07866414  1.0
  Cd  Cd97  1  1.00000000  0.38110690  0.07866414  1.0
  Cd  Cd98  1  1.00000000  0.71444024  0.07866414  1.0
  Cd  Cd99  1  0.16666667  0.26205929  0.00723557  1.0
  Cd  Cd100  1  0.16666667  0.59539262  0.00723557  1.0
  Cd  Cd101  1  0.16666667  0.92872595  0.00723557  1.0
  Cd  Cd102  1  0.50000000  0.26205929  0.00723557  1.0
  Cd  Cd103  1  0.50000000  0.59539262  0.00723557  1.0
  Cd  Cd104  1  0.50000000  0.92872595  0.00723557  1.0
  Cd  Cd105  1  0.83333333  0.26205929  0.00723557  1.0
  Cd  Cd106  1  0.83333333  0.59539262  0.00723557  1.0
  Cd  Cd107  1  0.83333333  0.92872595  0.00723557  1.0
  Cd  Cd108  1  0.26688300  0.06917124  0.02124314  1.0
  Cd  Cd109  1  0.26688300  0.40250457  0.02124314  1.0
  Cd  Cd110  1  0.26688300  0.73583790  0.02124314  1.0
  Cd  Cd111  1  0.60021633  0.06917124  0.02124314  1.0
  Cd  Cd112  1  0.60021633  0.40250457  0.02124314  1.0
  Cd  Cd113  1  0.60021633  0.73583790  0.02124314  1.0
  Cd  Cd114  1  0.93354967  0.06917124  0.02124314  1.0
  Cd  Cd115  1  0.93354967  0.40250457  0.02124314  1.0
  Cd  Cd116  1  0.93354967  0.73583790  0.02124314  1.0
  Cd  Cd117  1  0.10021633  0.18821886  0.09267171  1.0
  Cd  Cd118  1  0.10021633  0.52155219  0.09267171  1.0
  Cd  Cd119  1  0.10021633  0.85488552  0.09267171  1.0
  Cd  Cd120  1  0.43354967  0.18821886  0.09267171  1.0
  Cd  Cd121  1  0.43354967  0.52155219  0.09267171  1.0
  Cd  Cd122  1  0.43354967  0.85488552  0.09267171  1.0
  Cd  Cd123  1  0.76688300  0.18821886  0.09267171  1.0
  Cd  Cd124  1  0.76688300  0.52155219  0.09267171  1.0
  Cd  Cd125  1  0.76688300  0.85488552  0.09267171  1.0
  Cd  Cd126  1  0.06645033  0.01190476  0.10714286  1.0
  Cd  Cd127  1  0.06645033  0.34523810  0.10714286  1.0
  Cd  Cd128  1  0.06645033  0.67857143  0.10714286  1.0
  Cd  Cd129  1  0.39978367  0.01190476  0.10714286  1.0
  Cd  Cd130  1  0.39978367  0.34523810  0.10714286  1.0
  Cd  Cd131  1  0.39978367  0.67857143  0.10714286  1.0
  Cd  Cd132  1  0.73311700  0.01190476  0.10714286  1.0
  Cd  Cd133  1  0.73311700  0.34523810  0.10714286  1.0
  Cd  Cd134  1  0.73311700  0.67857143  0.10714286  1.0
  Cd  Cd135  1  0.23311700  0.22619048  0.03571429  1.0
  Cd  Cd136  1  0.23311700  0.55952381  0.03571429  1.0
  Cd  Cd137  1  0.23311700  0.89285714  0.03571429  1.0
  Cd  Cd138  1  0.56645033  0.22619048  0.03571429  1.0
  Cd  Cd139  1  0.56645033  0.55952381  0.03571429  1.0
  Cd  Cd140  1  0.56645033  0.89285714  0.03571429  1.0
  Cd  Cd141  1  0.89978367  0.22619048  0.03571429  1.0
  Cd  Cd142  1  0.89978367  0.55952381  0.03571429  1.0
  Cd  Cd143  1  0.89978367  0.89285714  0.03571429  1.0
  Cd  Cd144  1  0.06645033  0.06917124  0.02124314  1.0
  Cd  Cd145  1  0.06645033  0.40250457  0.02124314  1.0
  Cd  Cd146  1  0.06645033  0.73583790  0.02124314  1.0
  Cd  Cd147  1  0.39978367  0.06917124  0.02124314  1.0
  Cd  Cd148  1  0.39978367  0.40250457  0.02124314  1.0
  Cd  Cd149  1  0.39978367  0.73583790  0.02124314  1.0
  Cd  Cd150  1  0.73311700  0.06917124  0.02124314  1.0
  Cd  Cd151  1  0.73311700  0.40250457  0.02124314  1.0
  Cd  Cd152  1  0.73311700  0.73583790  0.02124314  1.0
  Cd  Cd153  1  0.23311700  0.18821886  0.09267171  1.0
  Cd  Cd154  1  0.23311700  0.52155219  0.09267171  1.0
  Cd  Cd155  1  0.23311700  0.85488552  0.09267171  1.0
  Cd  Cd156  1  0.56645033  0.18821886  0.09267171  1.0
  Cd  Cd157  1  0.56645033  0.52155219  0.09267171  1.0
  Cd  Cd158  1  0.56645033  0.85488552  0.09267171  1.0
  Cd  Cd159  1  0.89978367  0.18821886  0.09267171  1.0
  Cd  Cd160  1  0.89978367  0.52155219  0.09267171  1.0
  Cd  Cd161  1  0.89978367  0.85488552  0.09267171  1.0
  Cd  Cd162  1  0.26688300  0.01190476  0.10714286  1.0
  Cd  Cd163  1  0.26688300  0.34523810  0.10714286  1.0
  Cd  Cd164  1  0.26688300  0.67857143  0.10714286  1.0
  Cd  Cd165  1  0.60021633  0.01190476  0.10714286  1.0
  Cd  Cd166  1  0.60021633  0.34523810  0.10714286  1.0
  Cd  Cd167  1  0.60021633  0.67857143  0.10714286  1.0
  Cd  Cd168  1  0.93354967  0.01190476  0.10714286  1.0
  Cd  Cd169  1  0.93354967  0.34523810  0.10714286  1.0
  Cd  Cd170  1  0.93354967  0.67857143  0.10714286  1.0
  Cd  Cd171  1  0.10021633  0.22619048  0.03571429  1.0
  Cd  Cd172  1  0.10021633  0.55952381  0.03571429  1.0
  Cd  Cd173  1  0.10021633  0.89285714  0.03571429  1.0
  Cd  Cd174  1  0.43354967  0.22619048  0.03571429  1.0
  Cd  Cd175  1  0.43354967  0.55952381  0.03571429  1.0
  Cd  Cd176  1  0.43354967  0.89285714  0.03571429  1.0
  Cd  Cd177  1  0.76688300  0.22619048  0.03571429  1.0
  Cd  Cd178  1  0.76688300  0.55952381  0.03571429  1.0
  Cd  Cd179  1  0.76688300  0.89285714  0.03571429  1.0
  Cd  Cd180  1  0.00000000  0.29777357  0.07866414  1.0
  Cd  Cd181  1  0.00000000  0.63110690  0.07866414  1.0
  Cd  Cd182  1  0.00000000  0.96444024  0.07866414  1.0
  Cd  Cd183  1  0.33333333  0.29777357  0.07866414  1.0
  Cd  Cd184  1  0.33333333  0.63110690  0.07866414  1.0
  Cd  Cd185  1  0.33333333  0.96444024  0.07866414  1.0
  Cd  Cd186  1  0.66666667  0.29777357  0.07866414  1.0
  Cd  Cd187  1  0.66666667  0.63110690  0.07866414  1.0
  Cd  Cd188  1  0.66666667  0.96444024  0.07866414  1.0
  Cd  Cd189  1  0.16666667  0.17872595  0.00723557  1.0
  Cd  Cd190  1  0.16666667  0.51205929  0.00723557  1.0
  Cd  Cd191  1  0.16666667  0.84539262  0.00723557  1.0
  Cd  Cd192  1  0.50000000  0.17872595  0.00723557  1.0
  Cd  Cd193  1  0.50000000  0.51205929  0.00723557  1.0
  Cd  Cd194  1  0.50000000  0.84539262  0.00723557  1.0
  Cd  Cd195  1  0.83333333  0.17872595  0.00723557  1.0
  Cd  Cd196  1  0.83333333  0.51205929  0.00723557  1.0
  Cd  Cd197  1  0.83333333  0.84539262  0.00723557  1.0
  Cd  Cd198  1  0.00000000  0.11663576  0.04972186  1.0
  Cd  Cd199  1  0.00000000  0.44996910  0.04972186  1.0
  Cd  Cd200  1  0.00000000  0.78330243  0.04972186  1.0
  Cd  Cd201  1  0.33333333  0.11663576  0.04972186  1.0
  Cd  Cd202  1  0.33333333  0.44996910  0.04972186  1.0
  Cd  Cd203  1  0.33333333  0.78330243  0.04972186  1.0
  Cd  Cd204  1  0.66666667  0.11663576  0.04972186  1.0
  Cd  Cd205  1  0.66666667  0.44996910  0.04972186  1.0
  Cd  Cd206  1  0.66666667  0.78330243  0.04972186  1.0
  Cd  Cd207  1  0.16666667  0.23568338  0.12115043  1.0
  Cd  Cd208  1  0.16666667  0.56901671  0.12115043  1.0
  Cd  Cd209  1  0.16666667  0.90235005  0.12115043  1.0
  Cd  Cd210  1  0.50000000  0.23568338  0.12115043  1.0
  Cd  Cd211  1  0.50000000  0.56901671  0.12115043  1.0
  Cd  Cd212  1  0.50000000  0.90235005  0.12115043  1.0
  Cd  Cd213  1  0.83333333  0.23568338  0.12115043  1.0
  Cd  Cd214  1  0.83333333  0.56901671  0.12115043  1.0
  Cd  Cd215  1  0.83333333  0.90235005  0.12115043  1.0
  Cd  Cd216  1  0.06645033  0.00000000  0.25000000  1.0
  Cd  Cd217  1  0.06645033  0.33333333  0.25000000  1.0
  Cd  Cd218  1  0.06645033  0.66666667  0.25000000  1.0
  Cd  Cd219  1  0.39978367  0.00000000  0.25000000  1.0
  Cd  Cd220  1  0.39978367  0.33333333  0.25000000  1.0
  Cd  Cd221  1  0.39978367  0.66666667  0.25000000  1.0
  Cd  Cd222  1  0.73311700  0.00000000  0.25000000  1.0
  Cd  Cd223  1  0.73311700  0.33333333  0.25000000  1.0
  Cd  Cd224  1  0.73311700  0.66666667  0.25000000  1.0
  Cd  Cd225  1  0.23311700  0.21428571  0.17857143  1.0
  Cd  Cd226  1  0.23311700  0.54761905  0.17857143  1.0
  Cd  Cd227  1  0.23311700  0.88095238  0.17857143  1.0
  Cd  Cd228  1  0.56645033  0.21428571  0.17857143  1.0
  Cd  Cd229  1  0.56645033  0.54761905  0.17857143  1.0
  Cd  Cd230  1  0.56645033  0.88095238  0.17857143  1.0
  Cd  Cd231  1  0.89978367  0.21428571  0.17857143  1.0
  Cd  Cd232  1  0.89978367  0.54761905  0.17857143  1.0
  Cd  Cd233  1  0.89978367  0.88095238  0.17857143  1.0
  Cd  Cd234  1  0.26688300  0.05726648  0.16410029  1.0
  Cd  Cd235  1  0.26688300  0.39059981  0.16410029  1.0
  Cd  Cd236  1  0.26688300  0.72393314  0.16410029  1.0
  Cd  Cd237  1  0.60021633  0.05726648  0.16410029  1.0
  Cd  Cd238  1  0.60021633  0.39059981  0.16410029  1.0
  Cd  Cd239  1  0.60021633  0.72393314  0.16410029  1.0
  Cd  Cd240  1  0.93354967  0.05726648  0.16410029  1.0
  Cd  Cd241  1  0.93354967  0.39059981  0.16410029  1.0
  Cd  Cd242  1  0.93354967  0.72393314  0.16410029  1.0
  Cd  Cd243  1  0.10021633  0.17631410  0.23552886  1.0
  Cd  Cd244  1  0.10021633  0.50964743  0.23552886  1.0
  Cd  Cd245  1  0.10021633  0.84298076  0.23552886  1.0
  Cd  Cd246  1  0.43354967  0.17631410  0.23552886  1.0
  Cd  Cd247  1  0.43354967  0.50964743  0.23552886  1.0
  Cd  Cd248  1  0.43354967  0.84298076  0.23552886  1.0
  Cd  Cd249  1  0.76688300  0.17631410  0.23552886  1.0
  Cd  Cd250  1  0.76688300  0.50964743  0.23552886  1.0
  Cd  Cd251  1  0.76688300  0.84298076  0.23552886  1.0
  Cd  Cd252  1  0.26688300  0.00000000  0.25000000  1.0
  Cd  Cd253  1  0.26688300  0.33333333  0.25000000  1.0
  Cd  Cd254  1  0.26688300  0.66666667  0.25000000  1.0
  Cd  Cd255  1  0.60021633  0.00000000  0.25000000  1.0
  Cd  Cd256  1  0.60021633  0.33333333  0.25000000  1.0
  Cd  Cd257  1  0.60021633  0.66666667  0.25000000  1.0
  Cd  Cd258  1  0.93354967  0.00000000  0.25000000  1.0
  Cd  Cd259  1  0.93354967  0.33333333  0.25000000  1.0
  Cd  Cd260  1  0.93354967  0.66666667  0.25000000  1.0
  Cd  Cd261  1  0.10021633  0.21428571  0.17857143  1.0
  Cd  Cd262  1  0.10021633  0.54761905  0.17857143  1.0
  Cd  Cd263  1  0.10021633  0.88095238  0.17857143  1.0
  Cd  Cd264  1  0.43354967  0.21428571  0.17857143  1.0
  Cd  Cd265  1  0.43354967  0.54761905  0.17857143  1.0
  Cd  Cd266  1  0.43354967  0.88095238  0.17857143  1.0
  Cd  Cd267  1  0.76688300  0.21428571  0.17857143  1.0
  Cd  Cd268  1  0.76688300  0.54761905  0.17857143  1.0
  Cd  Cd269  1  0.76688300  0.88095238  0.17857143  1.0
  Cd  Cd270  1  0.06645033  0.05726648  0.16410029  1.0
  Cd  Cd271  1  0.06645033  0.39059981  0.16410029  1.0
  Cd  Cd272  1  0.06645033  0.72393314  0.16410029  1.0
  Cd  Cd273  1  0.39978367  0.05726648  0.16410029  1.0
  Cd  Cd274  1  0.39978367  0.39059981  0.16410029  1.0
  Cd  Cd275  1  0.39978367  0.72393314  0.16410029  1.0
  Cd  Cd276  1  0.73311700  0.05726648  0.16410029  1.0
  Cd  Cd277  1  0.73311700  0.39059981  0.16410029  1.0
  Cd  Cd278  1  0.73311700  0.72393314  0.16410029  1.0
  Cd  Cd279  1  0.23311700  0.17631410  0.23552886  1.0
  Cd  Cd280  1  0.23311700  0.50964743  0.23552886  1.0
  Cd  Cd281  1  0.23311700  0.84298076  0.23552886  1.0
  Cd  Cd282  1  0.56645033  0.17631410  0.23552886  1.0
  Cd  Cd283  1  0.56645033  0.50964743  0.23552886  1.0
  Cd  Cd284  1  0.56645033  0.84298076  0.23552886  1.0
  Cd  Cd285  1  0.89978367  0.17631410  0.23552886  1.0
  Cd  Cd286  1  0.89978367  0.50964743  0.23552886  1.0
  Cd  Cd287  1  0.89978367  0.84298076  0.23552886  1.0
  Cd  Cd288  1  0.33333333  0.10473100  0.19257900  1.0
  Cd  Cd289  1  0.33333333  0.43806433  0.19257900  1.0
  Cd  Cd290  1  0.33333333  0.77139767  0.19257900  1.0
  Cd  Cd291  1  0.66666667  0.10473100  0.19257900  1.0
  Cd  Cd292  1  0.66666667  0.43806433  0.19257900  1.0
  Cd  Cd293  1  0.66666667  0.77139767  0.19257900  1.0
  Cd  Cd294  1  0.00000000  0.10473100  0.19257900  1.0
  Cd  Cd295  1  1.00000000  0.43806433  0.19257900  1.0
  Cd  Cd296  1  1.00000000  0.77139767  0.19257900  1.0
  Cd  Cd297  1  0.16666667  0.22377862  0.26400757  1.0
  Cd  Cd298  1  0.16666667  0.55711195  0.26400757  1.0
  Cd  Cd299  1  0.16666667  0.89044529  0.26400757  1.0
  Cd  Cd300  1  0.50000000  0.22377862  0.26400757  1.0
  Cd  Cd301  1  0.50000000  0.55711195  0.26400757  1.0
  Cd  Cd302  1  0.50000000  0.89044529  0.26400757  1.0
  Cd  Cd303  1  0.83333333  0.22377862  0.26400757  1.0
  Cd  Cd304  1  0.83333333  0.55711195  0.26400757  1.0
  Cd  Cd305  1  0.83333333  0.89044529  0.26400757  1.0
  Cd  Cd306  1  0.00000000  0.28586881  0.22152129  1.0
  Cd  Cd307  1  0.00000000  0.61920214  0.22152129  1.0
  Cd  Cd308  1  0.00000000  0.95253548  0.22152129  1.0
  Cd  Cd309  1  0.33333333  0.28586881  0.22152129  1.0
  Cd  Cd310  1  0.33333333  0.61920214  0.22152129  1.0
  Cd  Cd311  1  0.33333333  0.95253548  0.22152129  1.0
  Cd  Cd312  1  0.66666667  0.28586881  0.22152129  1.0
  Cd  Cd313  1  0.66666667  0.61920214  0.22152129  1.0
  Cd  Cd314  1  0.66666667  0.95253548  0.22152129  1.0
  Cd  Cd315  1  0.16666667  0.16682119  0.15009271  1.0
  Cd  Cd316  1  0.16666667  0.50015452  0.15009271  1.0
  Cd  Cd317  1  0.16666667  0.83348786  0.15009271  1.0
  Cd  Cd318  1  0.50000000  0.16682119  0.15009271  1.0
  Cd  Cd319  1  0.50000000  0.50015452  0.15009271  1.0
  Cd  Cd320  1  0.50000000  0.83348786  0.15009271  1.0
  Cd  Cd321  1  0.83333333  0.16682119  0.15009271  1.0
  Cd  Cd322  1  0.83333333  0.50015452  0.15009271  1.0
  Cd  Cd323  1  0.83333333  0.83348786  0.15009271  1.0
  Cd  Cd324  1  0.26688300  0.30726648  0.16410029  1.0
  Cd  Cd325  1  0.26688300  0.64059981  0.16410029  1.0
  Cd  Cd326  1  0.26688300  0.97393314  0.16410029  1.0
  Cd  Cd327  1  0.60021633  0.30726648  0.16410029  1.0
  Cd  Cd328  1  0.60021633  0.64059981  0.16410029  1.0
  Cd  Cd329  1  0.60021633  0.97393314  0.16410029  1.0
  Cd  Cd330  1  0.93354967  0.30726648  0.16410029  1.0
  Cd  Cd331  1  0.93354967  0.64059981  0.16410029  1.0
  Cd  Cd332  1  0.93354967  0.97393314  0.16410029  1.0
  Cd  Cd333  1  0.10021633  0.09298076  0.23552886  1.0
  Cd  Cd334  1  0.10021633  0.42631410  0.23552886  1.0
  Cd  Cd335  1  0.10021633  0.75964743  0.23552886  1.0
  Cd  Cd336  1  0.43354967  0.09298076  0.23552886  1.0
  Cd  Cd337  1  0.43354967  0.42631410  0.23552886  1.0
  Cd  Cd338  1  0.43354967  0.75964743  0.23552886  1.0
  Cd  Cd339  1  0.76688300  0.09298076  0.23552886  1.0
  Cd  Cd340  1  0.76688300  0.42631410  0.23552886  1.0
  Cd  Cd341  1  0.76688300  0.75964743  0.23552886  1.0
  Cd  Cd342  1  0.06645033  0.25000000  0.25000000  1.0
  Cd  Cd343  1  0.06645033  0.58333333  0.25000000  1.0
  Cd  Cd344  1  0.06645033  0.91666667  0.25000000  1.0
  Cd  Cd345  1  0.39978367  0.25000000  0.25000000  1.0
  Cd  Cd346  1  0.39978367  0.58333333  0.25000000  1.0
  Cd  Cd347  1  0.39978367  0.91666667  0.25000000  1.0
  Cd  Cd348  1  0.73311700  0.25000000  0.25000000  1.0
  Cd  Cd349  1  0.73311700  0.58333333  0.25000000  1.0
  Cd  Cd350  1  0.73311700  0.91666667  0.25000000  1.0
  Cd  Cd351  1  0.23311700  0.13095238  0.17857143  1.0
  Cd  Cd352  1  0.23311700  0.46428571  0.17857143  1.0
  Cd  Cd353  1  0.23311700  0.79761905  0.17857143  1.0
  Cd  Cd354  1  0.56645033  0.13095238  0.17857143  1.0
  Cd  Cd355  1  0.56645033  0.46428571  0.17857143  1.0
  Cd  Cd356  1  0.56645033  0.79761905  0.17857143  1.0
  Cd  Cd357  1  0.89978367  0.13095238  0.17857143  1.0
  Cd  Cd358  1  0.89978367  0.46428571  0.17857143  1.0
  Cd  Cd359  1  0.89978367  0.79761905  0.17857143  1.0
  Cd  Cd360  1  0.06645033  0.30726648  0.16410029  1.0
  Cd  Cd361  1  0.06645033  0.64059981  0.16410029  1.0
  Cd  Cd362  1  0.06645033  0.97393314  0.16410029  1.0
  Cd  Cd363  1  0.39978367  0.30726648  0.16410029  1.0
  Cd  Cd364  1  0.39978367  0.64059981  0.16410029  1.0
  Cd  Cd365  1  0.39978367  0.97393314  0.16410029  1.0
  Cd  Cd366  1  0.73311700  0.30726648  0.16410029  1.0
  Cd  Cd367  1  0.73311700  0.64059981  0.16410029  1.0
  Cd  Cd368  1  0.73311700  0.97393314  0.16410029  1.0
  Cd  Cd369  1  0.23311700  0.09298076  0.23552886  1.0
  Cd  Cd370  1  0.23311700  0.42631410  0.23552886  1.0
  Cd  Cd371  1  0.23311700  0.75964743  0.23552886  1.0
  Cd  Cd372  1  0.56645033  0.09298076  0.23552886  1.0
  Cd  Cd373  1  0.56645033  0.42631410  0.23552886  1.0
  Cd  Cd374  1  0.56645033  0.75964743  0.23552886  1.0
  Cd  Cd375  1  0.89978367  0.09298076  0.23552886  1.0
  Cd  Cd376  1  0.89978367  0.42631410  0.23552886  1.0
  Cd  Cd377  1  0.89978367  0.75964743  0.23552886  1.0
  Cd  Cd378  1  0.26688300  0.25000000  0.25000000  1.0
  Cd  Cd379  1  0.26688300  0.58333333  0.25000000  1.0
  Cd  Cd380  1  0.26688300  0.91666667  0.25000000  1.0
  Cd  Cd381  1  0.60021633  0.25000000  0.25000000  1.0
  Cd  Cd382  1  0.60021633  0.58333333  0.25000000  1.0
  Cd  Cd383  1  0.60021633  0.91666667  0.25000000  1.0
  Cd  Cd384  1  0.93354967  0.25000000  0.25000000  1.0
  Cd  Cd385  1  0.93354967  0.58333333  0.25000000  1.0
  Cd  Cd386  1  0.93354967  0.91666667  0.25000000  1.0
  Cd  Cd387  1  0.10021633  0.13095238  0.17857143  1.0
  Cd  Cd388  1  0.10021633  0.46428571  0.17857143  1.0
  Cd  Cd389  1  0.10021633  0.79761905  0.17857143  1.0
  Cd  Cd390  1  0.43354967  0.13095238  0.17857143  1.0
  Cd  Cd391  1  0.43354967  0.46428571  0.17857143  1.0
  Cd  Cd392  1  0.43354967  0.79761905  0.17857143  1.0
  Cd  Cd393  1  0.76688300  0.13095238  0.17857143  1.0
  Cd  Cd394  1  0.76688300  0.46428571  0.17857143  1.0
  Cd  Cd395  1  0.76688300  0.79761905  0.17857143  1.0
  Cd  Cd396  1  0.00000000  0.20253548  0.22152129  1.0
  Cd  Cd397  1  0.00000000  0.53586881  0.22152129  1.0
  Cd  Cd398  1  0.00000000  0.86920214  0.22152129  1.0
  Cd  Cd399  1  0.33333333  0.20253548  0.22152129  1.0
  Cd  Cd400  1  0.33333333  0.53586881  0.22152129  1.0
  Cd  Cd401  1  0.33333333  0.86920214  0.22152129  1.0
  Cd  Cd402  1  0.66666667  0.20253548  0.22152129  1.0
  Cd  Cd403  1  0.66666667  0.53586881  0.22152129  1.0
  Cd  Cd404  1  0.66666667  0.86920214  0.22152129  1.0
  Cd  Cd405  1  0.16666667  0.08348786  0.15009271  1.0
  Cd  Cd406  1  0.16666667  0.41682119  0.15009271  1.0
  Cd  Cd407  1  0.16666667  0.75015452  0.15009271  1.0
  Cd  Cd408  1  0.50000000  0.08348786  0.15009271  1.0
  Cd  Cd409  1  0.50000000  0.41682119  0.15009271  1.0
  Cd  Cd410  1  0.50000000  0.75015452  0.15009271  1.0
  Cd  Cd411  1  0.83333333  0.08348786  0.15009271  1.0
  Cd  Cd412  1  0.83333333  0.41682119  0.15009271  1.0
  Cd  Cd413  1  0.83333333  0.75015452  0.15009271  1.0
  Cd  Cd414  1  0.00000000  0.02139767  0.19257900  1.0
  Cd  Cd415  1  0.00000000  0.35473100  0.19257900  1.0
  Cd  Cd416  1  0.00000000  0.68806433  0.19257900  1.0
  Cd  Cd417  1  0.33333333  0.02139767  0.19257900  1.0
  Cd  Cd418  1  0.33333333  0.35473100  0.19257900  1.0
  Cd  Cd419  1  0.33333333  0.68806433  0.19257900  1.0
  Cd  Cd420  1  0.66666667  0.02139767  0.19257900  1.0
  Cd  Cd421  1  0.66666667  0.35473100  0.19257900  1.0
  Cd  Cd422  1  0.66666667  0.68806433  0.19257900  1.0
  Cd  Cd423  1  0.16666667  0.14044529  0.26400757  1.0
  Cd  Cd424  1  0.16666667  0.47377862  0.26400757  1.0
  Cd  Cd425  1  0.16666667  0.80711195  0.26400757  1.0
  Cd  Cd426  1  0.50000000  0.14044529  0.26400757  1.0
  Cd  Cd427  1  0.50000000  0.47377862  0.26400757  1.0
  Cd  Cd428  1  0.50000000  0.80711195  0.26400757  1.0
  Cd  Cd429  1  0.83333333  0.14044529  0.26400757  1.0
  Cd  Cd430  1  0.83333333  0.47377862  0.26400757  1.0
  Cd  Cd431  1  0.83333333  0.80711195  0.26400757  1.0
  Cd  Cd432  1  0.06645033  0.23809524  0.39285714  1.0
  Cd  Cd433  1  0.06645033  0.57142857  0.39285714  1.0
  Cd  Cd434  1  0.06645033  0.90476190  0.39285714  1.0
  Cd  Cd435  1  0.39978367  0.23809524  0.39285714  1.0
  Cd  Cd436  1  0.39978367  0.57142857  0.39285714  1.0
  Cd  Cd437  1  0.39978367  0.90476190  0.39285714  1.0
  Cd  Cd438  1  0.73311700  0.23809524  0.39285714  1.0
  Cd  Cd439  1  0.73311700  0.57142857  0.39285714  1.0
  Cd  Cd440  1  0.73311700  0.90476190  0.39285714  1.0
  Cd  Cd441  1  0.23311700  0.11904762  0.32142857  1.0
  Cd  Cd442  1  0.23311700  0.45238095  0.32142857  1.0
  Cd  Cd443  1  0.23311700  0.78571429  0.32142857  1.0
  Cd  Cd444  1  0.56645033  0.11904762  0.32142857  1.0
  Cd  Cd445  1  0.56645033  0.45238095  0.32142857  1.0
  Cd  Cd446  1  0.56645033  0.78571429  0.32142857  1.0
  Cd  Cd447  1  0.89978367  0.11904762  0.32142857  1.0
  Cd  Cd448  1  0.89978367  0.45238095  0.32142857  1.0
  Cd  Cd449  1  0.89978367  0.78571429  0.32142857  1.0
  Cd  Cd450  1  0.26688300  0.29536171  0.30695743  1.0
  Cd  Cd451  1  0.26688300  0.62869505  0.30695743  1.0
  Cd  Cd452  1  0.26688300  0.96202838  0.30695743  1.0
  Cd  Cd453  1  0.60021633  0.29536171  0.30695743  1.0
  Cd  Cd454  1  0.60021633  0.62869505  0.30695743  1.0
  Cd  Cd455  1  0.60021633  0.96202838  0.30695743  1.0
  Cd  Cd456  1  0.93354967  0.29536171  0.30695743  1.0
  Cd  Cd457  1  0.93354967  0.62869505  0.30695743  1.0
  Cd  Cd458  1  0.93354967  0.96202838  0.30695743  1.0
  Cd  Cd459  1  0.10021633  0.08107600  0.37838600  1.0
  Cd  Cd460  1  0.10021633  0.41440933  0.37838600  1.0
  Cd  Cd461  1  0.10021633  0.74774267  0.37838600  1.0
  Cd  Cd462  1  0.43354967  0.08107600  0.37838600  1.0
  Cd  Cd463  1  0.43354967  0.41440933  0.37838600  1.0
  Cd  Cd464  1  0.43354967  0.74774267  0.37838600  1.0
  Cd  Cd465  1  0.76688300  0.08107600  0.37838600  1.0
  Cd  Cd466  1  0.76688300  0.41440933  0.37838600  1.0
  Cd  Cd467  1  0.76688300  0.74774267  0.37838600  1.0
  Cd  Cd468  1  0.26688300  0.23809524  0.39285714  1.0
  Cd  Cd469  1  0.26688300  0.57142857  0.39285714  1.0
  Cd  Cd470  1  0.26688300  0.90476190  0.39285714  1.0
  Cd  Cd471  1  0.60021633  0.23809524  0.39285714  1.0
  Cd  Cd472  1  0.60021633  0.57142857  0.39285714  1.0
  Cd  Cd473  1  0.60021633  0.90476190  0.39285714  1.0
  Cd  Cd474  1  0.93354967  0.23809524  0.39285714  1.0
  Cd  Cd475  1  0.93354967  0.57142857  0.39285714  1.0
  Cd  Cd476  1  0.93354967  0.90476190  0.39285714  1.0
  Cd  Cd477  1  0.10021633  0.11904762  0.32142857  1.0
  Cd  Cd478  1  0.10021633  0.45238095  0.32142857  1.0
  Cd  Cd479  1  0.10021633  0.78571429  0.32142857  1.0
  Cd  Cd480  1  0.43354967  0.11904762  0.32142857  1.0
  Cd  Cd481  1  0.43354967  0.45238095  0.32142857  1.0
  Cd  Cd482  1  0.43354967  0.78571429  0.32142857  1.0
  Cd  Cd483  1  0.76688300  0.11904762  0.32142857  1.0
  Cd  Cd484  1  0.76688300  0.45238095  0.32142857  1.0
  Cd  Cd485  1  0.76688300  0.78571429  0.32142857  1.0
  Cd  Cd486  1  0.06645033  0.29536171  0.30695743  1.0
  Cd  Cd487  1  0.06645033  0.62869505  0.30695743  1.0
  Cd  Cd488  1  0.06645033  0.96202838  0.30695743  1.0
  Cd  Cd489  1  0.39978367  0.29536171  0.30695743  1.0
  Cd  Cd490  1  0.39978367  0.62869505  0.30695743  1.0
  Cd  Cd491  1  0.39978367  0.96202838  0.30695743  1.0
  Cd  Cd492  1  0.73311700  0.29536171  0.30695743  1.0
  Cd  Cd493  1  0.73311700  0.62869505  0.30695743  1.0
  Cd  Cd494  1  0.73311700  0.96202838  0.30695743  1.0
  Cd  Cd495  1  0.23311700  0.08107600  0.37838600  1.0
  Cd  Cd496  1  0.23311700  0.41440933  0.37838600  1.0
  Cd  Cd497  1  0.23311700  0.74774267  0.37838600  1.0
  Cd  Cd498  1  0.56645033  0.08107600  0.37838600  1.0
  Cd  Cd499  1  0.56645033  0.41440933  0.37838600  1.0
  Cd  Cd500  1  0.56645033  0.74774267  0.37838600  1.0
  Cd  Cd501  1  0.89978367  0.08107600  0.37838600  1.0
  Cd  Cd502  1  0.89978367  0.41440933  0.37838600  1.0
  Cd  Cd503  1  0.89978367  0.74774267  0.37838600  1.0
  Cd  Cd504  1  0.33333333  0.00949290  0.33543614  1.0
  Cd  Cd505  1  0.33333333  0.34282624  0.33543614  1.0
  Cd  Cd506  1  0.33333333  0.67615957  0.33543614  1.0
  Cd  Cd507  1  0.66666667  0.00949290  0.33543614  1.0
  Cd  Cd508  1  0.66666667  0.34282624  0.33543614  1.0
  Cd  Cd509  1  0.66666667  0.67615957  0.33543614  1.0
  Cd  Cd510  1  0.00000000  0.00949290  0.33543614  1.0
  Cd  Cd511  1  1.00000000  0.34282624  0.33543614  1.0
  Cd  Cd512  1  0.00000000  0.67615957  0.33543614  1.0
  Cd  Cd513  1  0.16666667  0.12854052  0.40686471  1.0
  Cd  Cd514  1  0.16666667  0.46187386  0.40686471  1.0
  Cd  Cd515  1  0.16666667  0.79520719  0.40686471  1.0
  Cd  Cd516  1  0.50000000  0.12854052  0.40686471  1.0
  Cd  Cd517  1  0.50000000  0.46187386  0.40686471  1.0
  Cd  Cd518  1  0.50000000  0.79520719  0.40686471  1.0
  Cd  Cd519  1  0.83333333  0.12854052  0.40686471  1.0
  Cd  Cd520  1  0.83333333  0.46187386  0.40686471  1.0
  Cd  Cd521  1  0.83333333  0.79520719  0.40686471  1.0
  Cd  Cd522  1  0.00000000  0.19063071  0.36437843  1.0
  Cd  Cd523  1  0.00000000  0.52396405  0.36437843  1.0
  Cd  Cd524  1  0.00000000  0.85729738  0.36437843  1.0
  Cd  Cd525  1  0.33333333  0.19063071  0.36437843  1.0
  Cd  Cd526  1  0.33333333  0.52396405  0.36437843  1.0
  Cd  Cd527  1  0.33333333  0.85729738  0.36437843  1.0
  Cd  Cd528  1  0.66666667  0.19063071  0.36437843  1.0
  Cd  Cd529  1  0.66666667  0.52396405  0.36437843  1.0
  Cd  Cd530  1  0.66666667  0.85729738  0.36437843  1.0
  Cd  Cd531  1  0.16666667  0.07158310  0.29294986  1.0
  Cd  Cd532  1  0.16666667  0.40491643  0.29294986  1.0
  Cd  Cd533  1  0.16666667  0.73824976  0.29294986  1.0
  Cd  Cd534  1  0.50000000  0.07158310  0.29294986  1.0
  Cd  Cd535  1  0.50000000  0.40491643  0.29294986  1.0
  Cd  Cd536  1  0.50000000  0.73824976  0.29294986  1.0
  Cd  Cd537  1  0.83333333  0.07158310  0.29294986  1.0
  Cd  Cd538  1  0.83333333  0.40491643  0.29294986  1.0
  Cd  Cd539  1  0.83333333  0.73824976  0.29294986  1.0
  Cd  Cd540  1  0.26688300  0.21202838  0.30695743  1.0
  Cd  Cd541  1  0.26688300  0.54536171  0.30695743  1.0
  Cd  Cd542  1  0.26688300  0.87869505  0.30695743  1.0
  Cd  Cd543  1  0.60021633  0.21202838  0.30695743  1.0
  Cd  Cd544  1  0.60021633  0.54536171  0.30695743  1.0
  Cd  Cd545  1  0.60021633  0.87869505  0.30695743  1.0
  Cd  Cd546  1  0.93354967  0.21202838  0.30695743  1.0
  Cd  Cd547  1  0.93354967  0.54536171  0.30695743  1.0
  Cd  Cd548  1  0.93354967  0.87869505  0.30695743  1.0
  Cd  Cd549  1  0.10021633  0.33107600  0.37838600  1.0
  Cd  Cd550  1  0.10021633  0.66440933  0.37838600  1.0
  Cd  Cd551  1  0.10021633  0.99774267  0.37838600  1.0
  Cd  Cd552  1  0.43354967  0.33107600  0.37838600  1.0
  Cd  Cd553  1  0.43354967  0.66440933  0.37838600  1.0
  Cd  Cd554  1  0.43354967  0.99774267  0.37838600  1.0
  Cd  Cd555  1  0.76688300  0.33107600  0.37838600  1.0
  Cd  Cd556  1  0.76688300  0.66440933  0.37838600  1.0
  Cd  Cd557  1  0.76688300  0.99774267  0.37838600  1.0
  Cd  Cd558  1  0.06645033  0.15476190  0.39285714  1.0
  Cd  Cd559  1  0.06645033  0.48809524  0.39285714  1.0
  Cd  Cd560  1  0.06645033  0.82142857  0.39285714  1.0
  Cd  Cd561  1  0.39978367  0.15476190  0.39285714  1.0
  Cd  Cd562  1  0.39978367  0.48809524  0.39285714  1.0
  Cd  Cd563  1  0.39978367  0.82142857  0.39285714  1.0
  Cd  Cd564  1  0.73311700  0.15476190  0.39285714  1.0
  Cd  Cd565  1  0.73311700  0.48809524  0.39285714  1.0
  Cd  Cd566  1  0.73311700  0.82142857  0.39285714  1.0
  Cd  Cd567  1  0.23311700  0.03571429  0.32142857  1.0
  Cd  Cd568  1  0.23311700  0.36904762  0.32142857  1.0
  Cd  Cd569  1  0.23311700  0.70238095  0.32142857  1.0
  Cd  Cd570  1  0.56645033  0.03571429  0.32142857  1.0
  Cd  Cd571  1  0.56645033  0.36904762  0.32142857  1.0
  Cd  Cd572  1  0.56645033  0.70238095  0.32142857  1.0
  Cd  Cd573  1  0.89978367  0.03571429  0.32142857  1.0
  Cd  Cd574  1  0.89978367  0.36904762  0.32142857  1.0
  Cd  Cd575  1  0.89978367  0.70238095  0.32142857  1.0
  Cd  Cd576  1  0.06645033  0.21202838  0.30695743  1.0
  Cd  Cd577  1  0.06645033  0.54536171  0.30695743  1.0
  Cd  Cd578  1  0.06645033  0.87869505  0.30695743  1.0
  Cd  Cd579  1  0.39978367  0.21202838  0.30695743  1.0
  Cd  Cd580  1  0.39978367  0.54536171  0.30695743  1.0
  Cd  Cd581  1  0.39978367  0.87869505  0.30695743  1.0
  Cd  Cd582  1  0.73311700  0.21202838  0.30695743  1.0
  Cd  Cd583  1  0.73311700  0.54536171  0.30695743  1.0
  Cd  Cd584  1  0.73311700  0.87869505  0.30695743  1.0
  Cd  Cd585  1  0.23311700  0.33107600  0.37838600  1.0
  Cd  Cd586  1  0.23311700  0.66440933  0.37838600  1.0
  Cd  Cd587  1  0.23311700  0.99774267  0.37838600  1.0
  Cd  Cd588  1  0.56645033  0.33107600  0.37838600  1.0
  Cd  Cd589  1  0.56645033  0.66440933  0.37838600  1.0
  Cd  Cd590  1  0.56645033  0.99774267  0.37838600  1.0
  Cd  Cd591  1  0.89978367  0.33107600  0.37838600  1.0
  Cd  Cd592  1  0.89978367  0.66440933  0.37838600  1.0
  Cd  Cd593  1  0.89978367  0.99774267  0.37838600  1.0
  Cd  Cd594  1  0.26688300  0.15476190  0.39285714  1.0
  Cd  Cd595  1  0.26688300  0.48809524  0.39285714  1.0
  Cd  Cd596  1  0.26688300  0.82142857  0.39285714  1.0
  Cd  Cd597  1  0.60021633  0.15476190  0.39285714  1.0
  Cd  Cd598  1  0.60021633  0.48809524  0.39285714  1.0
  Cd  Cd599  1  0.60021633  0.82142857  0.39285714  1.0
  Cd  Cd600  1  0.93354967  0.15476190  0.39285714  1.0
  Cd  Cd601  1  0.93354967  0.48809524  0.39285714  1.0
  Cd  Cd602  1  0.93354967  0.82142857  0.39285714  1.0
  Cd  Cd603  1  0.10021633  0.03571429  0.32142857  1.0
  Cd  Cd604  1  0.10021633  0.36904762  0.32142857  1.0
  Cd  Cd605  1  0.10021633  0.70238095  0.32142857  1.0
  Cd  Cd606  1  0.43354967  0.03571429  0.32142857  1.0
  Cd  Cd607  1  0.43354967  0.36904762  0.32142857  1.0
  Cd  Cd608  1  0.43354967  0.70238095  0.32142857  1.0
  Cd  Cd609  1  0.76688300  0.03571429  0.32142857  1.0
  Cd  Cd610  1  0.76688300  0.36904762  0.32142857  1.0
  Cd  Cd611  1  0.76688300  0.70238095  0.32142857  1.0
  Cd  Cd612  1  0.00000000  0.10729738  0.36437843  1.0
  Cd  Cd613  1  0.00000000  0.44063071  0.36437843  1.0
  Cd  Cd614  1  0.00000000  0.77396405  0.36437843  1.0
  Cd  Cd615  1  0.33333333  0.10729738  0.36437843  1.0
  Cd  Cd616  1  0.33333333  0.44063071  0.36437843  1.0
  Cd  Cd617  1  0.33333333  0.77396405  0.36437843  1.0
  Cd  Cd618  1  0.66666667  0.10729738  0.36437843  1.0
  Cd  Cd619  1  0.66666667  0.44063071  0.36437843  1.0
  Cd  Cd620  1  0.66666667  0.77396405  0.36437843  1.0
  Cd  Cd621  1  0.16666667  0.32158310  0.29294986  1.0
  Cd  Cd622  1  0.16666667  0.65491643  0.29294986  1.0
  Cd  Cd623  1  0.16666667  0.98824976  0.29294986  1.0
  Cd  Cd624  1  0.50000000  0.32158310  0.29294986  1.0
  Cd  Cd625  1  0.50000000  0.65491643  0.29294986  1.0
  Cd  Cd626  1  0.50000000  0.98824976  0.29294986  1.0
  Cd  Cd627  1  0.83333333  0.32158310  0.29294986  1.0
  Cd  Cd628  1  0.83333333  0.65491643  0.29294986  1.0
  Cd  Cd629  1  0.83333333  0.98824976  0.29294986  1.0
  Cd  Cd630  1  0.00000000  0.25949290  0.33543614  1.0
  Cd  Cd631  1  0.00000000  0.59282624  0.33543614  1.0
  Cd  Cd632  1  0.00000000  0.92615957  0.33543614  1.0
  Cd  Cd633  1  0.33333333  0.25949290  0.33543614  1.0
  Cd  Cd634  1  0.33333333  0.59282624  0.33543614  1.0
  Cd  Cd635  1  0.33333333  0.92615957  0.33543614  1.0
  Cd  Cd636  1  0.66666667  0.25949290  0.33543614  1.0
  Cd  Cd637  1  0.66666667  0.59282624  0.33543614  1.0
  Cd  Cd638  1  0.66666667  0.92615957  0.33543614  1.0
  Cd  Cd639  1  0.16666667  0.04520719  0.40686471  1.0
  Cd  Cd640  1  0.16666667  0.37854052  0.40686471  1.0
  Cd  Cd641  1  0.16666667  0.71187386  0.40686471  1.0
  Cd  Cd642  1  0.50000000  0.04520719  0.40686471  1.0
  Cd  Cd643  1  0.50000000  0.37854052  0.40686471  1.0
  Cd  Cd644  1  0.50000000  0.71187386  0.40686471  1.0
  Cd  Cd645  1  0.83333333  0.04520719  0.40686471  1.0
  Cd  Cd646  1  0.83333333  0.37854052  0.40686471  1.0
  Cd  Cd647  1  0.83333333  0.71187386  0.40686471  1.0
  Ni  Ni648  1  0.33333333  0.24887133  0.06419300  1.0
  Ni  Ni649  1  0.33333333  0.58220467  0.06419300  1.0
  Ni  Ni650  1  0.33333333  0.91553800  0.06419300  1.0
  Ni  Ni651  1  0.66666667  0.24887133  0.06419300  1.0
  Ni  Ni652  1  0.66666667  0.58220467  0.06419300  1.0
  Ni  Ni653  1  0.66666667  0.91553800  0.06419300  1.0
  Ni  Ni654  1  1.00000000  0.24887133  0.06419300  1.0
  Ni  Ni655  1  1.00000000  0.58220467  0.06419300  1.0
  Ni  Ni656  1  1.00000000  0.91553800  0.06419300  1.0
  Ni  Ni657  1  0.16666667  0.03458562  0.13562157  1.0
  Ni  Ni658  1  0.16666667  0.36791895  0.13562157  1.0
  Ni  Ni659  1  0.16666667  0.70125229  0.13562157  1.0
  Ni  Ni660  1  0.50000000  0.03458562  0.13562157  1.0
  Ni  Ni661  1  0.50000000  0.36791895  0.13562157  1.0
  Ni  Ni662  1  0.50000000  0.70125229  0.13562157  1.0
  Ni  Ni663  1  0.83333333  0.03458562  0.13562157  1.0
  Ni  Ni664  1  0.83333333  0.36791895  0.13562157  1.0
  Ni  Ni665  1  0.83333333  0.70125229  0.13562157  1.0
  Ni  Ni666  1  0.25000000  0.14172848  0.09990729  1.0
  Ni  Ni667  1  0.25000000  0.47506181  0.09990729  1.0
  Ni  Ni668  1  0.25000000  0.80839514  0.09990729  1.0
  Ni  Ni669  1  0.58333333  0.14172848  0.09990729  1.0
  Ni  Ni670  1  0.58333333  0.47506181  0.09990729  1.0
  Ni  Ni671  1  0.58333333  0.80839514  0.09990729  1.0
  Ni  Ni672  1  0.91666667  0.14172848  0.09990729  1.0
  Ni  Ni673  1  0.91666667  0.47506181  0.09990729  1.0
  Ni  Ni674  1  0.91666667  0.80839514  0.09990729  1.0
  Ni  Ni675  1  0.08333333  0.02268086  0.02847871  1.0
  Ni  Ni676  1  0.08333333  0.35601419  0.02847871  1.0
  Ni  Ni677  1  0.08333333  0.68934752  0.02847871  1.0
  Ni  Ni678  1  0.41666667  0.02268086  0.02847871  1.0
  Ni  Ni679  1  0.41666667  0.35601419  0.02847871  1.0
  Ni  Ni680  1  0.41666667  0.68934752  0.02847871  1.0
  Ni  Ni681  1  0.75000000  0.02268086  0.02847871  1.0
  Ni  Ni682  1  0.75000000  0.35601419  0.02847871  1.0
  Ni  Ni683  1  0.75000000  0.68934752  0.02847871  1.0
  Ni  Ni684  1  0.08333333  0.14172848  0.09990729  1.0
  Ni  Ni685  1  0.08333333  0.47506181  0.09990729  1.0
  Ni  Ni686  1  0.08333333  0.80839514  0.09990729  1.0
  Ni  Ni687  1  0.41666667  0.14172848  0.09990729  1.0
  Ni  Ni688  1  0.41666667  0.47506181  0.09990729  1.0
  Ni  Ni689  1  0.41666667  0.80839514  0.09990729  1.0
  Ni  Ni690  1  0.75000000  0.14172848  0.09990729  1.0
  Ni  Ni691  1  0.75000000  0.47506181  0.09990729  1.0
  Ni  Ni692  1  0.75000000  0.80839514  0.09990729  1.0
  Ni  Ni693  1  0.25000000  0.02268086  0.02847871  1.0
  Ni  Ni694  1  0.25000000  0.35601419  0.02847871  1.0
  Ni  Ni695  1  0.25000000  0.68934752  0.02847871  1.0
  Ni  Ni696  1  0.58333333  0.02268086  0.02847871  1.0
  Ni  Ni697  1  0.58333333  0.35601419  0.02847871  1.0
  Ni  Ni698  1  0.58333333  0.68934752  0.02847871  1.0
  Ni  Ni699  1  0.91666667  0.02268086  0.02847871  1.0
  Ni  Ni700  1  0.91666667  0.35601419  0.02847871  1.0
  Ni  Ni701  1  0.91666667  0.68934752  0.02847871  1.0
  Ni  Ni702  1  0.33333333  0.20125229  0.13562157  1.0
  Ni  Ni703  1  0.33333333  0.53458562  0.13562157  1.0
  Ni  Ni704  1  0.33333333  0.86791895  0.13562157  1.0
  Ni  Ni705  1  0.66666667  0.20125229  0.13562157  1.0
  Ni  Ni706  1  0.66666667  0.53458562  0.13562157  1.0
  Ni  Ni707  1  0.66666667  0.86791895  0.13562157  1.0
  Ni  Ni708  1  1.00000000  0.20125229  0.13562157  1.0
  Ni  Ni709  1  1.00000000  0.53458562  0.13562157  1.0
  Ni  Ni710  1  1.00000000  0.86791895  0.13562157  1.0
  Ni  Ni711  1  0.16666667  0.08220467  0.06419300  1.0
  Ni  Ni712  1  0.16666667  0.41553800  0.06419300  1.0
  Ni  Ni713  1  0.16666667  0.74887133  0.06419300  1.0
  Ni  Ni714  1  0.50000000  0.08220467  0.06419300  1.0
  Ni  Ni715  1  0.50000000  0.41553800  0.06419300  1.0
  Ni  Ni716  1  0.50000000  0.74887133  0.06419300  1.0
  Ni  Ni717  1  0.83333333  0.08220467  0.06419300  1.0
  Ni  Ni718  1  0.83333333  0.41553800  0.06419300  1.0
  Ni  Ni719  1  0.83333333  0.74887133  0.06419300  1.0
  Ni  Ni720  1  0.33333333  0.00110689  0.03736633  1.0
  Ni  Ni721  1  0.33333333  0.33444022  0.03736633  1.0
  Ni  Ni722  1  0.33333333  0.66777355  0.03736633  1.0
  Ni  Ni723  1  0.66666667  0.00110689  0.03736633  1.0
  Ni  Ni724  1  0.66666667  0.33444022  0.03736633  1.0
  Ni  Ni725  1  0.66666667  0.66777355  0.03736633  1.0
  Ni  Ni726  1  1.00000000  0.00110689  0.03736633  1.0
  Ni  Ni727  1  1.00000000  0.33444022  0.03736633  1.0
  Ni  Ni728  1  1.00000000  0.66777355  0.03736633  1.0
  Ni  Ni729  1  0.16666667  0.12015451  0.10879490  1.0
  Ni  Ni730  1  0.16666667  0.45348784  0.10879490  1.0
  Ni  Ni731  1  0.16666667  0.78682117  0.10879490  1.0
  Ni  Ni732  1  0.50000000  0.12015451  0.10879490  1.0
  Ni  Ni733  1  0.50000000  0.45348784  0.10879490  1.0
  Ni  Ni734  1  0.50000000  0.78682117  0.10879490  1.0
  Ni  Ni735  1  0.83333333  0.12015451  0.10879490  1.0
  Ni  Ni736  1  0.83333333  0.45348784  0.10879490  1.0
  Ni  Ni737  1  0.83333333  0.78682117  0.10879490  1.0
  Ni  Ni738  1  0.11463111  0.11272086  0.04189205  1.0
  Ni  Ni739  1  0.11463111  0.44605419  0.04189205  1.0
  Ni  Ni740  1  0.11463111  0.77938752  0.04189205  1.0
  Ni  Ni741  1  0.44796444  0.11272086  0.04189205  1.0
  Ni  Ni742  1  0.44796444  0.44605419  0.04189205  1.0
  Ni  Ni743  1  0.44796444  0.77938752  0.04189205  1.0
  Ni  Ni744  1  0.78129778  0.11272086  0.04189205  1.0
  Ni  Ni745  1  0.78129778  0.44605419  0.04189205  1.0
  Ni  Ni746  1  0.78129778  0.77938752  0.04189205  1.0
  Ni  Ni747  1  0.28129778  0.23176848  0.11332062  1.0
  Ni  Ni748  1  0.28129778  0.56510181  0.11332062  1.0
  Ni  Ni749  1  0.28129778  0.89843514  0.11332062  1.0
  Ni  Ni750  1  0.61463111  0.23176848  0.11332062  1.0
  Ni  Ni751  1  0.61463111  0.56510181  0.11332062  1.0
  Ni  Ni752  1  0.61463111  0.89843514  0.11332062  1.0
  Ni  Ni753  1  0.94796444  0.23176848  0.11332062  1.0
  Ni  Ni754  1  0.94796444  0.56510181  0.11332062  1.0
  Ni  Ni755  1  0.94796444  0.89843514  0.11332062  1.0
  Ni  Ni756  1  0.21870222  0.11272086  0.04189205  1.0
  Ni  Ni757  1  0.21870222  0.44605419  0.04189205  1.0
  Ni  Ni758  1  0.21870222  0.77938752  0.04189205  1.0
  Ni  Ni759  1  0.55203556  0.11272086  0.04189205  1.0
  Ni  Ni760  1  0.55203556  0.44605419  0.04189205  1.0
  Ni  Ni761  1  0.55203556  0.77938752  0.04189205  1.0
  Ni  Ni762  1  0.88536889  0.11272086  0.04189205  1.0
  Ni  Ni763  1  0.88536889  0.44605419  0.04189205  1.0
  Ni  Ni764  1  0.88536889  0.77938752  0.04189205  1.0
  Ni  Ni765  1  0.05203556  0.23176848  0.11332062  1.0
  Ni  Ni766  1  0.05203556  0.56510181  0.11332062  1.0
  Ni  Ni767  1  0.05203556  0.89843514  0.11332062  1.0
  Ni  Ni768  1  0.38536889  0.23176848  0.11332062  1.0
  Ni  Ni769  1  0.38536889  0.56510181  0.11332062  1.0
  Ni  Ni770  1  0.38536889  0.89843514  0.11332062  1.0
  Ni  Ni771  1  0.71870222  0.23176848  0.11332062  1.0
  Ni  Ni772  1  0.71870222  0.56510181  0.11332062  1.0
  Ni  Ni773  1  0.71870222  0.89843514  0.11332062  1.0
  Ni  Ni774  1  0.33333333  0.26893673  0.13562157  1.0
  Ni  Ni775  1  0.33333333  0.60227006  0.13562157  1.0
  Ni  Ni776  1  0.33333333  0.93560340  0.13562157  1.0
  Ni  Ni777  1  0.66666667  0.26893673  0.13562157  1.0
  Ni  Ni778  1  0.66666667  0.60227006  0.13562157  1.0
  Ni  Ni779  1  0.66666667  0.93560340  0.13562157  1.0
  Ni  Ni780  1  1.00000000  0.26893673  0.13562157  1.0
  Ni  Ni781  1  1.00000000  0.60227006  0.13562157  1.0
  Ni  Ni782  1  0.00000000  0.93560340  0.13562157  1.0
  Ni  Ni783  1  0.16666667  0.14988911  0.06419300  1.0
  Ni  Ni784  1  0.16666667  0.48322244  0.06419300  1.0
  Ni  Ni785  1  0.16666667  0.81655578  0.06419300  1.0
  Ni  Ni786  1  0.50000000  0.14988911  0.06419300  1.0
  Ni  Ni787  1  0.50000000  0.48322244  0.06419300  1.0
  Ni  Ni788  1  0.50000000  0.81655578  0.06419300  1.0
  Ni  Ni789  1  0.83333333  0.14988911  0.06419300  1.0
  Ni  Ni790  1  0.83333333  0.48322244  0.06419300  1.0
  Ni  Ni791  1  0.83333333  0.81655578  0.06419300  1.0
  Ni  Ni792  1  0.33333333  0.16330245  0.09101967  1.0
  Ni  Ni793  1  0.33333333  0.49663578  0.09101967  1.0
  Ni  Ni794  1  0.33333333  0.82996911  0.09101967  1.0
  Ni  Ni795  1  0.66666667  0.16330245  0.09101967  1.0
  Ni  Ni796  1  0.66666667  0.49663578  0.09101967  1.0
  Ni  Ni797  1  0.66666667  0.82996911  0.09101967  1.0
  Ni  Ni798  1  1.00000000  0.16330245  0.09101967  1.0
  Ni  Ni799  1  1.00000000  0.49663578  0.09101967  1.0
  Ni  Ni800  1  1.00000000  0.82996911  0.09101967  1.0
  Ni  Ni801  1  0.16666667  0.04425483  0.01959110  1.0
  Ni  Ni802  1  0.16666667  0.37758816  0.01959110  1.0
  Ni  Ni803  1  0.16666667  0.71092149  0.01959110  1.0
  Ni  Ni804  1  0.50000000  0.04425483  0.01959110  1.0
  Ni  Ni805  1  0.50000000  0.37758816  0.01959110  1.0
  Ni  Ni806  1  0.50000000  0.71092149  0.01959110  1.0
  Ni  Ni807  1  0.83333333  0.04425483  0.01959110  1.0
  Ni  Ni808  1  0.83333333  0.37758816  0.01959110  1.0
  Ni  Ni809  1  0.83333333  0.71092149  0.01959110  1.0
  Ni  Ni810  1  0.05203555  0.26597419  0.01506538  1.0
  Ni  Ni811  1  0.05203555  0.59930752  0.01506538  1.0
  Ni  Ni812  1  0.05203555  0.93264086  0.01506538  1.0
  Ni  Ni813  1  0.38536889  0.26597419  0.01506538  1.0
  Ni  Ni814  1  0.38536889  0.59930752  0.01506538  1.0
  Ni  Ni815  1  0.38536889  0.93264086  0.01506538  1.0
  Ni  Ni816  1  0.71870222  0.26597419  0.01506538  1.0
  Ni  Ni817  1  0.71870222  0.59930752  0.01506538  1.0
  Ni  Ni818  1  0.71870222  0.93264086  0.01506538  1.0
  Ni  Ni819  1  0.21870222  0.05168848  0.08649395  1.0
  Ni  Ni820  1  0.21870222  0.38502181  0.08649395  1.0
  Ni  Ni821  1  0.21870222  0.71835514  0.08649395  1.0
  Ni  Ni822  1  0.55203556  0.05168848  0.08649395  1.0
  Ni  Ni823  1  0.55203556  0.38502181  0.08649395  1.0
  Ni  Ni824  1  0.55203556  0.71835514  0.08649395  1.0
  Ni  Ni825  1  0.88536889  0.05168848  0.08649395  1.0
  Ni  Ni826  1  0.88536889  0.38502181  0.08649395  1.0
  Ni  Ni827  1  0.88536889  0.71835514  0.08649395  1.0
  Ni  Ni828  1  0.28129778  0.26597419  0.01506538  1.0
  Ni  Ni829  1  0.28129778  0.59930752  0.01506538  1.0
  Ni  Ni830  1  0.28129778  0.93264086  0.01506538  1.0
  Ni  Ni831  1  0.61463111  0.26597419  0.01506538  1.0
  Ni  Ni832  1  0.61463111  0.59930752  0.01506538  1.0
  Ni  Ni833  1  0.61463111  0.93264086  0.01506538  1.0
  Ni  Ni834  1  0.94796444  0.26597419  0.01506538  1.0
  Ni  Ni835  1  0.94796444  0.59930752  0.01506538  1.0
  Ni  Ni836  1  0.94796444  0.93264086  0.01506538  1.0
  Ni  Ni837  1  0.11463111  0.05168848  0.08649395  1.0
  Ni  Ni838  1  0.11463111  0.38502181  0.08649395  1.0
  Ni  Ni839  1  0.11463111  0.71835514  0.08649395  1.0
  Ni  Ni840  1  0.44796444  0.05168848  0.08649395  1.0
  Ni  Ni841  1  0.44796444  0.38502181  0.08649395  1.0
  Ni  Ni842  1  0.44796444  0.71835514  0.08649395  1.0
  Ni  Ni843  1  0.78129778  0.05168848  0.08649395  1.0
  Ni  Ni844  1  0.78129778  0.38502181  0.08649395  1.0
  Ni  Ni845  1  0.78129778  0.71835514  0.08649395  1.0
  Ni  Ni846  1  0.33333333  0.13356784  0.13562157  1.0
  Ni  Ni847  1  0.33333333  0.46690118  0.13562157  1.0
  Ni  Ni848  1  0.33333333  0.80023451  0.13562157  1.0
  Ni  Ni849  1  0.66666667  0.13356784  0.13562157  1.0
  Ni  Ni850  1  0.66666667  0.46690118  0.13562157  1.0
  Ni  Ni851  1  0.66666667  0.80023451  0.13562157  1.0
  Ni  Ni852  1  0.00000000  0.13356784  0.13562157  1.0
  Ni  Ni853  1  1.00000000  0.46690118  0.13562157  1.0
  Ni  Ni854  1  1.00000000  0.80023451  0.13562157  1.0
  Ni  Ni855  1  0.16666667  0.01452022  0.06419300  1.0
  Ni  Ni856  1  0.16666667  0.34785356  0.06419300  1.0
  Ni  Ni857  1  0.16666667  0.68118689  0.06419300  1.0
  Ni  Ni858  1  0.50000000  0.01452022  0.06419300  1.0
  Ni  Ni859  1  0.50000000  0.34785356  0.06419300  1.0
  Ni  Ni860  1  0.50000000  0.68118689  0.06419300  1.0
  Ni  Ni861  1  0.83333333  0.01452022  0.06419300  1.0
  Ni  Ni862  1  0.83333333  0.34785356  0.06419300  1.0
  Ni  Ni863  1  0.83333333  0.68118689  0.06419300  1.0
  Ni  Ni864  1  0.33333333  0.15363324  0.20705014  1.0
  Ni  Ni865  1  0.33333333  0.48696657  0.20705014  1.0
  Ni  Ni866  1  0.33333333  0.82029990  0.20705014  1.0
  Ni  Ni867  1  0.66666667  0.15363324  0.20705014  1.0
  Ni  Ni868  1  0.66666667  0.48696657  0.20705014  1.0
  Ni  Ni869  1  0.66666667  0.82029990  0.20705014  1.0
  Ni  Ni870  1  1.00000000  0.15363324  0.20705014  1.0
  Ni  Ni871  1  1.00000000  0.48696657  0.20705014  1.0
  Ni  Ni872  1  1.00000000  0.82029990  0.20705014  1.0
  Ni  Ni873  1  0.16666667  0.27268086  0.27847871  1.0
  Ni  Ni874  1  0.16666667  0.60601419  0.27847871  1.0
  Ni  Ni875  1  0.16666667  0.93934752  0.27847871  1.0
  Ni  Ni876  1  0.50000000  0.27268086  0.27847871  1.0
  Ni  Ni877  1  0.50000000  0.60601419  0.27847871  1.0
  Ni  Ni878  1  0.50000000  0.93934752  0.27847871  1.0
  Ni  Ni879  1  0.83333333  0.27268086  0.27847871  1.0
  Ni  Ni880  1  0.83333333  0.60601419  0.27847871  1.0
  Ni  Ni881  1  0.83333333  0.93934752  0.27847871  1.0
  Ni  Ni882  1  0.25000000  0.04649038  0.24276443  1.0
  Ni  Ni883  1  0.25000000  0.37982371  0.24276443  1.0
  Ni  Ni884  1  0.25000000  0.71315705  0.24276443  1.0
  Ni  Ni885  1  0.58333333  0.04649038  0.24276443  1.0
  Ni  Ni886  1  0.58333333  0.37982371  0.24276443  1.0
  Ni  Ni887  1  0.58333333  0.71315705  0.24276443  1.0
  Ni  Ni888  1  0.91666667  0.04649038  0.24276443  1.0
  Ni  Ni889  1  0.91666667  0.37982371  0.24276443  1.0
  Ni  Ni890  1  0.91666667  0.71315705  0.24276443  1.0
  Ni  Ni891  1  0.08333333  0.26077610  0.17133586  1.0
  Ni  Ni892  1  0.08333333  0.59410943  0.17133586  1.0
  Ni  Ni893  1  0.08333333  0.92744276  0.17133586  1.0
  Ni  Ni894  1  0.41666667  0.26077610  0.17133586  1.0
  Ni  Ni895  1  0.41666667  0.59410943  0.17133586  1.0
  Ni  Ni896  1  0.41666667  0.92744276  0.17133586  1.0
  Ni  Ni897  1  0.75000000  0.26077610  0.17133586  1.0
  Ni  Ni898  1  0.75000000  0.59410943  0.17133586  1.0
  Ni  Ni899  1  0.75000000  0.92744276  0.17133586  1.0
  Ni  Ni900  1  0.08333333  0.04649038  0.24276443  1.0
  Ni  Ni901  1  0.08333333  0.37982371  0.24276443  1.0
  Ni  Ni902  1  0.08333333  0.71315705  0.24276443  1.0
  Ni  Ni903  1  0.41666667  0.04649038  0.24276443  1.0
  Ni  Ni904  1  0.41666667  0.37982371  0.24276443  1.0
  Ni  Ni905  1  0.41666667  0.71315705  0.24276443  1.0
  Ni  Ni906  1  0.75000000  0.04649038  0.24276443  1.0
  Ni  Ni907  1  0.75000000  0.37982371  0.24276443  1.0
  Ni  Ni908  1  0.75000000  0.71315705  0.24276443  1.0
  Ni  Ni909  1  0.25000000  0.26077610  0.17133586  1.0
  Ni  Ni910  1  0.25000000  0.59410943  0.17133586  1.0
  Ni  Ni911  1  0.25000000  0.92744276  0.17133586  1.0
  Ni  Ni912  1  0.58333333  0.26077610  0.17133586  1.0
  Ni  Ni913  1  0.58333333  0.59410943  0.17133586  1.0
  Ni  Ni914  1  0.58333333  0.92744276  0.17133586  1.0
  Ni  Ni915  1  0.91666667  0.26077610  0.17133586  1.0
  Ni  Ni916  1  0.91666667  0.59410943  0.17133586  1.0
  Ni  Ni917  1  0.91666667  0.92744276  0.17133586  1.0
  Ni  Ni918  1  0.33333333  0.10601419  0.27847871  1.0
  Ni  Ni919  1  0.33333333  0.43934752  0.27847871  1.0
  Ni  Ni920  1  0.33333333  0.77268086  0.27847871  1.0
  Ni  Ni921  1  0.66666667  0.10601419  0.27847871  1.0
  Ni  Ni922  1  0.66666667  0.43934752  0.27847871  1.0
  Ni  Ni923  1  0.66666667  0.77268086  0.27847871  1.0
  Ni  Ni924  1  0.00000000  0.10601419  0.27847871  1.0
  Ni  Ni925  1  1.00000000  0.43934752  0.27847871  1.0
  Ni  Ni926  1  1.00000000  0.77268086  0.27847871  1.0
  Ni  Ni927  1  0.16666667  0.32029990  0.20705014  1.0
  Ni  Ni928  1  0.16666667  0.65363324  0.20705014  1.0
  Ni  Ni929  1  0.16666667  0.98696657  0.20705014  1.0
  Ni  Ni930  1  0.50000000  0.32029990  0.20705014  1.0
  Ni  Ni931  1  0.50000000  0.65363324  0.20705014  1.0
  Ni  Ni932  1  0.50000000  0.98696657  0.20705014  1.0
  Ni  Ni933  1  0.83333333  0.32029990  0.20705014  1.0
  Ni  Ni934  1  0.83333333  0.65363324  0.20705014  1.0
  Ni  Ni935  1  0.83333333  0.98696657  0.20705014  1.0
  Ni  Ni936  1  0.33333333  0.23920213  0.18022348  1.0
  Ni  Ni937  1  0.33333333  0.57253546  0.18022348  1.0
  Ni  Ni938  1  0.33333333  0.90586879  0.18022348  1.0
  Ni  Ni939  1  0.66666667  0.23920213  0.18022348  1.0
  Ni  Ni940  1  0.66666667  0.57253546  0.18022348  1.0
  Ni  Ni941  1  0.66666667  0.90586879  0.18022348  1.0
  Ni  Ni942  1  1.00000000  0.23920213  0.18022348  1.0
  Ni  Ni943  1  1.00000000  0.57253546  0.18022348  1.0
  Ni  Ni944  1  0.00000000  0.90586879  0.18022348  1.0
  Ni  Ni945  1  0.16666667  0.02491641  0.25165205  1.0
  Ni  Ni946  1  0.16666667  0.35824975  0.25165205  1.0
  Ni  Ni947  1  0.16666667  0.69158308  0.25165205  1.0
  Ni  Ni948  1  0.50000000  0.02491641  0.25165205  1.0
  Ni  Ni949  1  0.50000000  0.35824975  0.25165205  1.0
  Ni  Ni950  1  0.50000000  0.69158308  0.25165205  1.0
  Ni  Ni951  1  0.83333333  0.02491641  0.25165205  1.0
  Ni  Ni952  1  0.83333333  0.35824975  0.25165205  1.0
  Ni  Ni953  1  0.83333333  0.69158308  0.25165205  1.0
  Ni  Ni954  1  0.11463111  0.01748276  0.18474919  1.0
  Ni  Ni955  1  0.11463111  0.35081609  0.18474919  1.0
  Ni  Ni956  1  0.11463111  0.68414943  0.18474919  1.0
  Ni  Ni957  1  0.44796444  0.01748276  0.18474919  1.0
  Ni  Ni958  1  0.44796444  0.35081609  0.18474919  1.0
  Ni  Ni959  1  0.44796444  0.68414943  0.18474919  1.0
  Ni  Ni960  1  0.78129778  0.01748276  0.18474919  1.0
  Ni  Ni961  1  0.78129778  0.35081609  0.18474919  1.0
  Ni  Ni962  1  0.78129778  0.68414943  0.18474919  1.0
  Ni  Ni963  1  0.28129778  0.13653038  0.25617776  1.0
  Ni  Ni964  1  0.28129778  0.46986371  0.25617776  1.0
  Ni  Ni965  1  0.28129778  0.80319705  0.25617776  1.0
  Ni  Ni966  1  0.61463111  0.13653038  0.25617776  1.0
  Ni  Ni967  1  0.61463111  0.46986371  0.25617776  1.0
  Ni  Ni968  1  0.61463111  0.80319705  0.25617776  1.0
  Ni  Ni969  1  0.94796445  0.13653038  0.25617776  1.0
  Ni  Ni970  1  0.94796444  0.46986371  0.25617776  1.0
  Ni  Ni971  1  0.94796444  0.80319705  0.25617776  1.0
  Ni  Ni972  1  0.21870222  0.01748276  0.18474919  1.0
  Ni  Ni973  1  0.21870222  0.35081609  0.18474919  1.0
  Ni  Ni974  1  0.21870222  0.68414943  0.18474919  1.0
  Ni  Ni975  1  0.55203556  0.01748276  0.18474919  1.0
  Ni  Ni976  1  0.55203556  0.35081609  0.18474919  1.0
  Ni  Ni977  1  0.55203556  0.68414943  0.18474919  1.0
  Ni  Ni978  1  0.88536889  0.01748276  0.18474919  1.0
  Ni  Ni979  1  0.88536889  0.35081609  0.18474919  1.0
  Ni  Ni980  1  0.88536889  0.68414943  0.18474919  1.0
  Ni  Ni981  1  0.05203556  0.13653038  0.25617776  1.0
  Ni  Ni982  1  0.05203556  0.46986371  0.25617776  1.0
  Ni  Ni983  1  0.05203556  0.80319705  0.25617776  1.0
  Ni  Ni984  1  0.38536889  0.13653038  0.25617776  1.0
  Ni  Ni985  1  0.38536889  0.46986371  0.25617776  1.0
  Ni  Ni986  1  0.38536889  0.80319705  0.25617776  1.0
  Ni  Ni987  1  0.71870222  0.13653038  0.25617776  1.0
  Ni  Ni988  1  0.71870222  0.46986371  0.25617776  1.0
  Ni  Ni989  1  0.71870222  0.80319705  0.25617776  1.0
  Ni  Ni990  1  0.00000000  0.17369863  0.27847871  1.0
  Ni  Ni991  1  0.00000000  0.50703197  0.27847871  1.0
  Ni  Ni992  1  0.00000000  0.84036530  0.27847871  1.0
  Ni  Ni993  1  0.33333333  0.17369863  0.27847871  1.0
  Ni  Ni994  1  0.33333333  0.50703197  0.27847871  1.0
  Ni  Ni995  1  0.33333333  0.84036530  0.27847871  1.0
  Ni  Ni996  1  0.66666667  0.17369863  0.27847871  1.0
  Ni  Ni997  1  0.66666667  0.50703197  0.27847871  1.0
  Ni  Ni998  1  0.66666667  0.84036530  0.27847871  1.0
  Ni  Ni999  1  0.16666667  0.05465101  0.20705014  1.0
  Ni  Ni1000  1  0.16666667  0.38798435  0.20705014  1.0
  Ni  Ni1001  1  0.16666667  0.72131768  0.20705014  1.0
  Ni  Ni1002  1  0.50000000  0.05465101  0.20705014  1.0
  Ni  Ni1003  1  0.50000000  0.38798435  0.20705014  1.0
  Ni  Ni1004  1  0.50000000  0.72131768  0.20705014  1.0
  Ni  Ni1005  1  0.83333333  0.05465101  0.20705014  1.0
  Ni  Ni1006  1  0.83333333  0.38798435  0.20705014  1.0
  Ni  Ni1007  1  0.83333333  0.72131768  0.20705014  1.0
  Ni  Ni1008  1  0.33333333  0.06806435  0.23387681  1.0
  Ni  Ni1009  1  0.33333333  0.40139768  0.23387681  1.0
  Ni  Ni1010  1  0.33333333  0.73473102  0.23387681  1.0
  Ni  Ni1011  1  0.66666667  0.06806435  0.23387681  1.0
  Ni  Ni1012  1  0.66666667  0.40139768  0.23387681  1.0
  Ni  Ni1013  1  0.66666667  0.73473102  0.23387681  1.0
  Ni  Ni1014  1  1.00000000  0.06806435  0.23387681  1.0
  Ni  Ni1015  1  1.00000000  0.40139768  0.23387681  1.0
  Ni  Ni1016  1  1.00000000  0.73473102  0.23387681  1.0
  Ni  Ni1017  1  0.16666667  0.28235006  0.16244824  1.0
  Ni  Ni1018  1  0.16666667  0.61568340  0.16244824  1.0
  Ni  Ni1019  1  0.16666667  0.94901673  0.16244824  1.0
  Ni  Ni1020  1  0.50000000  0.28235006  0.16244824  1.0
  Ni  Ni1021  1  0.50000000  0.61568340  0.16244824  1.0
  Ni  Ni1022  1  0.50000000  0.94901673  0.16244824  1.0
  Ni  Ni1023  1  0.83333333  0.28235006  0.16244824  1.0
  Ni  Ni1024  1  0.83333333  0.61568340  0.16244824  1.0
  Ni  Ni1025  1  0.83333333  0.94901673  0.16244824  1.0
  Ni  Ni1026  1  0.05203555  0.17073610  0.15792252  1.0
  Ni  Ni1027  1  0.05203555  0.50406943  0.15792252  1.0
  Ni  Ni1028  1  0.05203555  0.83740276  0.15792252  1.0
  Ni  Ni1029  1  0.38536889  0.17073610  0.15792252  1.0
  Ni  Ni1030  1  0.38536889  0.50406943  0.15792252  1.0
  Ni  Ni1031  1  0.38536889  0.83740276  0.15792252  1.0
  Ni  Ni1032  1  0.71870222  0.17073610  0.15792252  1.0
  Ni  Ni1033  1  0.71870222  0.50406943  0.15792252  1.0
  Ni  Ni1034  1  0.71870222  0.83740276  0.15792252  1.0
  Ni  Ni1035  1  0.21870222  0.28978371  0.22935109  1.0
  Ni  Ni1036  1  0.21870222  0.62311705  0.22935109  1.0
  Ni  Ni1037  1  0.21870222  0.95645038  0.22935110  1.0
  Ni  Ni1038  1  0.55203556  0.28978371  0.22935109  1.0
  Ni  Ni1039  1  0.55203556  0.62311705  0.22935109  1.0
  Ni  Ni1040  1  0.55203556  0.95645038  0.22935110  1.0
  Ni  Ni1041  1  0.88536889  0.28978371  0.22935109  1.0
  Ni  Ni1042  1  0.88536889  0.62311705  0.22935109  1.0
  Ni  Ni1043  1  0.88536889  0.95645038  0.22935109  1.0
  Ni  Ni1044  1  0.28129778  0.17073610  0.15792252  1.0
  Ni  Ni1045  1  0.28129778  0.50406943  0.15792252  1.0
  Ni  Ni1046  1  0.28129778  0.83740276  0.15792252  1.0
  Ni  Ni1047  1  0.61463111  0.17073610  0.15792252  1.0
  Ni  Ni1048  1  0.61463111  0.50406943  0.15792252  1.0
  Ni  Ni1049  1  0.61463111  0.83740276  0.15792252  1.0
  Ni  Ni1050  1  0.94796444  0.17073610  0.15792252  1.0
  Ni  Ni1051  1  0.94796445  0.50406943  0.15792252  1.0
  Ni  Ni1052  1  0.94796444  0.83740276  0.15792252  1.0
  Ni  Ni1053  1  0.11463111  0.28978371  0.22935110  1.0
  Ni  Ni1054  1  0.11463111  0.62311705  0.22935110  1.0
  Ni  Ni1055  1  0.11463111  0.95645038  0.22935110  1.0
  Ni  Ni1056  1  0.44796445  0.28978371  0.22935110  1.0
  Ni  Ni1057  1  0.44796445  0.62311705  0.22935109  1.0
  Ni  Ni1058  1  0.44796445  0.95645038  0.22935110  1.0
  Ni  Ni1059  1  0.78129778  0.28978371  0.22935110  1.0
  Ni  Ni1060  1  0.78129778  0.62311705  0.22935110  1.0
  Ni  Ni1061  1  0.78129778  0.95645038  0.22935109  1.0
  Ni  Ni1062  1  0.33333333  0.03832975  0.27847871  1.0
  Ni  Ni1063  1  0.33333333  0.37166308  0.27847871  1.0
  Ni  Ni1064  1  0.33333333  0.70499641  0.27847871  1.0
  Ni  Ni1065  1  0.66666667  0.03832975  0.27847871  1.0
  Ni  Ni1066  1  0.66666667  0.37166308  0.27847871  1.0
  Ni  Ni1067  1  0.66666667  0.70499641  0.27847871  1.0
  Ni  Ni1068  1  1.00000000  0.03832975  0.27847871  1.0
  Ni  Ni1069  1  1.00000000  0.37166308  0.27847871  1.0
  Ni  Ni1070  1  1.00000000  0.70499641  0.27847871  1.0
  Ni  Ni1071  1  0.16666667  0.25261546  0.20705014  1.0
  Ni  Ni1072  1  0.16666667  0.58594879  0.20705014  1.0
  Ni  Ni1073  1  0.16666667  0.91928213  0.20705014  1.0
  Ni  Ni1074  1  0.50000000  0.25261546  0.20705014  1.0
  Ni  Ni1075  1  0.50000000  0.58594879  0.20705014  1.0
  Ni  Ni1076  1  0.50000000  0.91928213  0.20705014  1.0
  Ni  Ni1077  1  0.83333333  0.25261546  0.20705014  1.0
  Ni  Ni1078  1  0.83333333  0.58594879  0.20705014  1.0
  Ni  Ni1079  1  0.83333333  0.91928213  0.20705014  1.0
  Ni  Ni1080  1  0.00000000  0.05839514  0.34990729  1.0
  Ni  Ni1081  1  0.00000000  0.39172848  0.34990729  1.0
  Ni  Ni1082  1  0.00000000  0.72506181  0.34990729  1.0
  Ni  Ni1083  1  0.33333333  0.05839514  0.34990729  1.0
  Ni  Ni1084  1  0.33333333  0.39172848  0.34990729  1.0
  Ni  Ni1085  1  0.33333333  0.72506181  0.34990729  1.0
  Ni  Ni1086  1  0.66666667  0.05839514  0.34990729  1.0
  Ni  Ni1087  1  0.66666667  0.39172848  0.34990729  1.0
  Ni  Ni1088  1  0.66666667  0.72506181  0.34990729  1.0
  Ni  Ni1089  1  0.16666667  0.17744276  0.42133586  1.0
  Ni  Ni1090  1  0.16666667  0.51077610  0.42133586  1.0
  Ni  Ni1091  1  0.16666667  0.84410943  0.42133586  1.0
  Ni  Ni1092  1  0.50000000  0.17744276  0.42133586  1.0
  Ni  Ni1093  1  0.50000000  0.51077610  0.42133586  1.0
  Ni  Ni1094  1  0.50000000  0.84410943  0.42133586  1.0
  Ni  Ni1095  1  0.83333333  0.17744276  0.42133586  1.0
  Ni  Ni1096  1  0.83333333  0.51077610  0.42133586  1.0
  Ni  Ni1097  1  0.83333333  0.84410943  0.42133586  1.0
  Ni  Ni1098  1  0.25000000  0.28458562  0.38562157  1.0
  Ni  Ni1099  1  0.25000000  0.61791895  0.38562157  1.0
  Ni  Ni1100  1  0.25000000  0.95125229  0.38562157  1.0
  Ni  Ni1101  1  0.58333333  0.28458562  0.38562157  1.0
  Ni  Ni1102  1  0.58333333  0.61791895  0.38562157  1.0
  Ni  Ni1103  1  0.58333333  0.95125229  0.38562157  1.0
  Ni  Ni1104  1  0.91666667  0.28458562  0.38562157  1.0
  Ni  Ni1105  1  0.91666667  0.61791895  0.38562157  1.0
  Ni  Ni1106  1  0.91666667  0.95125229  0.38562157  1.0
  Ni  Ni1107  1  0.08333333  0.16553800  0.31419300  1.0
  Ni  Ni1108  1  0.08333333  0.49887133  0.31419300  1.0
  Ni  Ni1109  1  0.08333333  0.83220467  0.31419300  1.0
  Ni  Ni1110  1  0.41666667  0.16553800  0.31419300  1.0
  Ni  Ni1111  1  0.41666667  0.49887133  0.31419300  1.0
  Ni  Ni1112  1  0.41666667  0.83220467  0.31419300  1.0
  Ni  Ni1113  1  0.75000000  0.16553800  0.31419300  1.0
  Ni  Ni1114  1  0.75000000  0.49887133  0.31419300  1.0
  Ni  Ni1115  1  0.75000000  0.83220467  0.31419300  1.0
  Ni  Ni1116  1  0.08333333  0.28458562  0.38562157  1.0
  Ni  Ni1117  1  0.08333333  0.61791895  0.38562157  1.0
  Ni  Ni1118  1  0.08333333  0.95125229  0.38562157  1.0
  Ni  Ni1119  1  0.41666667  0.28458562  0.38562157  1.0
  Ni  Ni1120  1  0.41666667  0.61791895  0.38562157  1.0
  Ni  Ni1121  1  0.41666667  0.95125229  0.38562157  1.0
  Ni  Ni1122  1  0.75000000  0.28458562  0.38562157  1.0
  Ni  Ni1123  1  0.75000000  0.61791895  0.38562157  1.0
  Ni  Ni1124  1  0.75000000  0.95125229  0.38562157  1.0
  Ni  Ni1125  1  0.25000000  0.16553800  0.31419300  1.0
  Ni  Ni1126  1  0.25000000  0.49887133  0.31419300  1.0
  Ni  Ni1127  1  0.25000000  0.83220467  0.31419300  1.0
  Ni  Ni1128  1  0.58333333  0.16553800  0.31419300  1.0
  Ni  Ni1129  1  0.58333333  0.49887133  0.31419300  1.0
  Ni  Ni1130  1  0.58333333  0.83220467  0.31419300  1.0
  Ni  Ni1131  1  0.91666667  0.16553800  0.31419300  1.0
  Ni  Ni1132  1  0.91666667  0.49887133  0.31419300  1.0
  Ni  Ni1133  1  0.91666667  0.83220467  0.31419300  1.0
  Ni  Ni1134  1  0.33333333  0.01077610  0.42133586  1.0
  Ni  Ni1135  1  0.33333333  0.34410943  0.42133586  1.0
  Ni  Ni1136  1  0.33333333  0.67744276  0.42133586  1.0
  Ni  Ni1137  1  0.66666667  0.01077610  0.42133586  1.0
  Ni  Ni1138  1  0.66666667  0.34410943  0.42133586  1.0
  Ni  Ni1139  1  0.66666667  0.67744276  0.42133586  1.0
  Ni  Ni1140  1  1.00000000  0.01077610  0.42133586  1.0
  Ni  Ni1141  1  1.00000000  0.34410943  0.42133586  1.0
  Ni  Ni1142  1  1.00000000  0.67744276  0.42133586  1.0
  Ni  Ni1143  1  0.16666667  0.22506181  0.34990729  1.0
  Ni  Ni1144  1  0.16666667  0.55839514  0.34990729  1.0
  Ni  Ni1145  1  0.16666667  0.89172848  0.34990729  1.0
  Ni  Ni1146  1  0.50000000  0.22506181  0.34990729  1.0
  Ni  Ni1147  1  0.50000000  0.55839514  0.34990729  1.0
  Ni  Ni1148  1  0.50000000  0.89172848  0.34990729  1.0
  Ni  Ni1149  1  0.83333333  0.22506181  0.34990729  1.0
  Ni  Ni1150  1  0.83333333  0.55839514  0.34990729  1.0
  Ni  Ni1151  1  0.83333333  0.89172848  0.34990729  1.0
  Ni  Ni1152  1  0.33333333  0.14396403  0.32308062  1.0
  Ni  Ni1153  1  0.33333333  0.47729736  0.32308062  1.0
  Ni  Ni1154  1  0.33333333  0.81063070  0.32308062  1.0
  Ni  Ni1155  1  0.66666667  0.14396403  0.32308062  1.0
  Ni  Ni1156  1  0.66666667  0.47729736  0.32308062  1.0
  Ni  Ni1157  1  0.66666667  0.81063070  0.32308062  1.0
  Ni  Ni1158  1  1.00000000  0.14396403  0.32308062  1.0
  Ni  Ni1159  1  1.00000000  0.47729736  0.32308062  1.0
  Ni  Ni1160  1  0.00000000  0.81063070  0.32308062  1.0
  Ni  Ni1161  1  0.16666667  0.26301165  0.39450919  1.0
  Ni  Ni1162  1  0.16666667  0.59634498  0.39450919  1.0
  Ni  Ni1163  1  0.16666667  0.92967832  0.39450919  1.0
  Ni  Ni1164  1  0.50000000  0.26301165  0.39450919  1.0
  Ni  Ni1165  1  0.50000000  0.59634498  0.39450919  1.0
  Ni  Ni1166  1  0.50000000  0.92967832  0.39450919  1.0
  Ni  Ni1167  1  0.83333333  0.26301165  0.39450919  1.0
  Ni  Ni1168  1  0.83333333  0.59634498  0.39450919  1.0
  Ni  Ni1169  1  0.83333333  0.92967832  0.39450919  1.0
  Ni  Ni1170  1  0.11463111  0.25557800  0.32760633  1.0
  Ni  Ni1171  1  0.11463111  0.58891133  0.32760633  1.0
  Ni  Ni1172  1  0.11463111  0.92224467  0.32760633  1.0
  Ni  Ni1173  1  0.44796444  0.25557800  0.32760633  1.0
  Ni  Ni1174  1  0.44796444  0.58891133  0.32760633  1.0
  Ni  Ni1175  1  0.44796445  0.92224467  0.32760633  1.0
  Ni  Ni1176  1  0.78129778  0.25557800  0.32760633  1.0
  Ni  Ni1177  1  0.78129778  0.58891133  0.32760633  1.0
  Ni  Ni1178  1  0.78129778  0.92224467  0.32760633  1.0
  Ni  Ni1179  1  0.28129778  0.04129229  0.39903490  1.0
  Ni  Ni1180  1  0.28129778  0.37462562  0.39903490  1.0
  Ni  Ni1181  1  0.28129778  0.70795895  0.39903490  1.0
  Ni  Ni1182  1  0.61463111  0.04129229  0.39903490  1.0
  Ni  Ni1183  1  0.61463111  0.37462562  0.39903490  1.0
  Ni  Ni1184  1  0.61463111  0.70795895  0.39903490  1.0
  Ni  Ni1185  1  0.94796445  0.04129229  0.39903490  1.0
  Ni  Ni1186  1  0.94796445  0.37462562  0.39903490  1.0
  Ni  Ni1187  1  0.94796445  0.70795895  0.39903490  1.0
  Ni  Ni1188  1  0.21870222  0.25557800  0.32760633  1.0
  Ni  Ni1189  1  0.21870222  0.58891133  0.32760633  1.0
  Ni  Ni1190  1  0.21870222  0.92224467  0.32760633  1.0
  Ni  Ni1191  1  0.55203556  0.25557800  0.32760633  1.0
  Ni  Ni1192  1  0.55203556  0.58891133  0.32760633  1.0
  Ni  Ni1193  1  0.55203556  0.92224467  0.32760633  1.0
  Ni  Ni1194  1  0.88536889  0.25557800  0.32760633  1.0
  Ni  Ni1195  1  0.88536889  0.58891133  0.32760633  1.0
  Ni  Ni1196  1  0.88536889  0.92224467  0.32760633  1.0
  Ni  Ni1197  1  0.05203556  0.04129229  0.39903490  1.0
  Ni  Ni1198  1  0.05203556  0.37462562  0.39903490  1.0
  Ni  Ni1199  1  0.05203556  0.70795895  0.39903490  1.0
  Ni  Ni1200  1  0.38536889  0.04129229  0.39903490  1.0
  Ni  Ni1201  1  0.38536889  0.37462562  0.39903490  1.0
  Ni  Ni1202  1  0.38536889  0.70795895  0.39903490  1.0
  Ni  Ni1203  1  0.71870222  0.04129229  0.39903490  1.0
  Ni  Ni1204  1  0.71870222  0.37462562  0.39903490  1.0
  Ni  Ni1205  1  0.71870222  0.70795895  0.39903490  1.0
  Ni  Ni1206  1  0.00000000  0.07846054  0.42133586  1.0
  Ni  Ni1207  1  0.00000000  0.41179387  0.42133586  1.0
  Ni  Ni1208  1  0.00000000  0.74512721  0.42133586  1.0
  Ni  Ni1209  1  0.33333333  0.07846054  0.42133586  1.0
  Ni  Ni1210  1  0.33333333  0.41179387  0.42133586  1.0
  Ni  Ni1211  1  0.33333333  0.74512721  0.42133586  1.0
  Ni  Ni1212  1  0.66666667  0.07846054  0.42133586  1.0
  Ni  Ni1213  1  0.66666667  0.41179387  0.42133586  1.0
  Ni  Ni1214  1  0.66666667  0.74512721  0.42133586  1.0
  Ni  Ni1215  1  0.16666667  0.29274625  0.34990729  1.0
  Ni  Ni1216  1  0.16666667  0.62607959  0.34990729  1.0
  Ni  Ni1217  1  0.16666667  0.95941292  0.34990729  1.0
  Ni  Ni1218  1  0.50000000  0.29274625  0.34990729  1.0
  Ni  Ni1219  1  0.50000000  0.62607959  0.34990729  1.0
  Ni  Ni1220  1  0.50000000  0.95941292  0.34990729  1.0
  Ni  Ni1221  1  0.83333333  0.29274625  0.34990729  1.0
  Ni  Ni1222  1  0.83333333  0.62607959  0.34990729  1.0
  Ni  Ni1223  1  0.83333333  0.95941292  0.34990729  1.0
  Ni  Ni1224  1  0.33333333  0.30615959  0.37673395  1.0
  Ni  Ni1225  1  0.33333333  0.63949292  0.37673395  1.0
  Ni  Ni1226  1  0.33333333  0.97282625  0.37673395  1.0
  Ni  Ni1227  1  0.66666667  0.30615959  0.37673395  1.0
  Ni  Ni1228  1  0.66666667  0.63949292  0.37673395  1.0
  Ni  Ni1229  1  0.66666667  0.97282625  0.37673395  1.0
  Ni  Ni1230  1  1.00000000  0.30615959  0.37673395  1.0
  Ni  Ni1231  1  1.00000000  0.63949292  0.37673395  1.0
  Ni  Ni1232  1  0.00000000  0.97282625  0.37673395  1.0
  Ni  Ni1233  1  0.16666667  0.18711197  0.30530538  1.0
  Ni  Ni1234  1  0.16666667  0.52044530  0.30530538  1.0
  Ni  Ni1235  1  0.16666667  0.85377864  0.30530538  1.0
  Ni  Ni1236  1  0.50000000  0.18711197  0.30530538  1.0
  Ni  Ni1237  1  0.50000000  0.52044530  0.30530538  1.0
  Ni  Ni1238  1  0.50000000  0.85377864  0.30530538  1.0
  Ni  Ni1239  1  0.83333333  0.18711197  0.30530538  1.0
  Ni  Ni1240  1  0.83333333  0.52044530  0.30530538  1.0
  Ni  Ni1241  1  0.83333333  0.85377864  0.30530538  1.0
  Ni  Ni1242  1  0.05203556  0.07549800  0.30077967  1.0
  Ni  Ni1243  1  0.05203556  0.40883133  0.30077967  1.0
  Ni  Ni1244  1  0.05203556  0.74216467  0.30077967  1.0
  Ni  Ni1245  1  0.38536889  0.07549800  0.30077967  1.0
  Ni  Ni1246  1  0.38536889  0.40883133  0.30077967  1.0
  Ni  Ni1247  1  0.38536889  0.74216467  0.30077967  1.0
  Ni  Ni1248  1  0.71870222  0.07549800  0.30077967  1.0
  Ni  Ni1249  1  0.71870222  0.40883133  0.30077967  1.0
  Ni  Ni1250  1  0.71870222  0.74216467  0.30077967  1.0
  Ni  Ni1251  1  0.21870222  0.19454562  0.37220824  1.0
  Ni  Ni1252  1  0.21870222  0.52787895  0.37220824  1.0
  Ni  Ni1253  1  0.21870222  0.86121229  0.37220824  1.0
  Ni  Ni1254  1  0.55203556  0.19454562  0.37220824  1.0
  Ni  Ni1255  1  0.55203556  0.52787895  0.37220824  1.0
  Ni  Ni1256  1  0.55203556  0.86121229  0.37220824  1.0
  Ni  Ni1257  1  0.88536889  0.19454562  0.37220824  1.0
  Ni  Ni1258  1  0.88536889  0.52787895  0.37220824  1.0
  Ni  Ni1259  1  0.88536889  0.86121229  0.37220824  1.0
  Ni  Ni1260  1  0.28129778  0.07549800  0.30077967  1.0
  Ni  Ni1261  1  0.28129778  0.40883133  0.30077967  1.0
  Ni  Ni1262  1  0.28129778  0.74216467  0.30077967  1.0
  Ni  Ni1263  1  0.61463111  0.07549800  0.30077967  1.0
  Ni  Ni1264  1  0.61463111  0.40883133  0.30077967  1.0
  Ni  Ni1265  1  0.61463111  0.74216467  0.30077967  1.0
  Ni  Ni1266  1  0.94796445  0.07549800  0.30077967  1.0
  Ni  Ni1267  1  0.94796445  0.40883133  0.30077967  1.0
  Ni  Ni1268  1  0.94796444  0.74216467  0.30077967  1.0
  Ni  Ni1269  1  0.11463111  0.19454562  0.37220824  1.0
  Ni  Ni1270  1  0.11463111  0.52787895  0.37220824  1.0
  Ni  Ni1271  1  0.11463111  0.86121229  0.37220824  1.0
  Ni  Ni1272  1  0.44796445  0.19454562  0.37220824  1.0
  Ni  Ni1273  1  0.44796445  0.52787895  0.37220824  1.0
  Ni  Ni1274  1  0.44796445  0.86121229  0.37220824  1.0
  Ni  Ni1275  1  0.78129778  0.19454562  0.37220824  1.0
  Ni  Ni1276  1  0.78129778  0.52787895  0.37220824  1.0
  Ni  Ni1277  1  0.78129778  0.86121229  0.37220824  1.0
  Ni  Ni1278  1  0.33333333  0.27642499  0.42133586  1.0
  Ni  Ni1279  1  0.33333333  0.60975832  0.42133586  1.0
  Ni  Ni1280  1  0.33333333  0.94309165  0.42133586  1.0
  Ni  Ni1281  1  0.66666667  0.27642499  0.42133586  1.0
  Ni  Ni1282  1  0.66666667  0.60975832  0.42133586  1.0
  Ni  Ni1283  1  0.66666667  0.94309165  0.42133586  1.0
  Ni  Ni1284  1  1.00000000  0.27642499  0.42133586  1.0
  Ni  Ni1285  1  1.00000000  0.60975832  0.42133586  1.0
  Ni  Ni1286  1  0.00000000  0.94309165  0.42133586  1.0
  Ni  Ni1287  1  0.16666667  0.15737737  0.34990729  1.0
  Ni  Ni1288  1  0.16666667  0.49071070  0.34990729  1.0
  Ni  Ni1289  1  0.16666667  0.82404403  0.34990729  1.0
  Ni  Ni1290  1  0.50000000  0.15737737  0.34990729  1.0
  Ni  Ni1291  1  0.50000000  0.49071070  0.34990729  1.0
  Ni  Ni1292  1  0.50000000  0.82404403  0.34990729  1.0
  Ni  Ni1293  1  0.83333333  0.15737737  0.34990729  1.0
  Ni  Ni1294  1  0.83333333  0.49071070  0.34990729  1.0
  Ni  Ni1295  1  0.83333333  0.82404403  0.34990729  1.0
