# generated using pymatgen
data_CdNi
_symmetry_space_group_name_H-M   'P 1'
_cell_length_a   36.38291998
_cell_length_b   44.55979466
_cell_length_c   27.11822743
_cell_angle_alpha   90.00000000
_cell_angle_beta   90.00000000
_cell_angle_gamma   114.09484255
_symmetry_Int_Tables_number   1
_chemical_formula_structural   CdNi
_chemical_formula_sum   'Cd432 Ni432'
_cell_volume   40133.90403108
_cell_formula_units_Z   432
loop_
 _symmetry_equiv_pos_site_id
 _symmetry_equiv_pos_as_xyz
  1  'x, y, z'
loop_
 _atom_site_type_symbol
 _atom_site_label
 _atom_site_symmetry_multiplicity
 _atom_site_fract_x
 _atom_site_fract_y
 _atom_site_fract_z
 _atom_site_occupancy
  Cd  Cd0  1  0.21071273  0.09644813  0.03934440  1.0
  Cd  Cd1  1  0.21071273  0.42978147  0.03934440  1.0
  Cd  Cd2  1  0.21071273  0.76311480  0.03934440  1.0
  Cd  Cd3  1  0.54404607  0.09644813  0.03934440  1.0
  Cd  Cd4  1  0.54404607  0.42978147  0.03934440  1.0
  Cd  Cd5  1  0.54404607  0.76311480  0.03934440  1.0
  Cd  Cd6  1  0.87737940  0.09644813  0.03934440  1.0
  Cd  Cd7  1  0.87737940  0.42978147  0.03934440  1.0
  Cd  Cd8  1  0.87737940  0.76311480  0.03934440  1.0
  Cd  Cd9  1  0.31071273  0.29644813  0.13934440  1.0
  Cd  Cd10  1  0.31071273  0.62978147  0.13934440  1.0
  Cd  Cd11  1  0.31071273  0.96311480  0.13934440  1.0
  Cd  Cd12  1  0.64404607  0.29644813  0.13934440  1.0
  Cd  Cd13  1  0.64404607  0.62978147  0.13934440  1.0
  Cd  Cd14  1  0.64404607  0.96311480  0.13934440  1.0
  Cd  Cd15  1  0.97737940  0.29644813  0.13934440  1.0
  Cd  Cd16  1  0.97737940  0.62978147  0.13934440  1.0
  Cd  Cd17  1  0.97737940  0.96311480  0.13934440  1.0
  Cd  Cd18  1  0.11071273  0.06311480  0.18934440  1.0
  Cd  Cd19  1  0.11071273  0.39644813  0.18934440  1.0
  Cd  Cd20  1  0.11071273  0.72978147  0.18934440  1.0
  Cd  Cd21  1  0.44404607  0.06311480  0.18934440  1.0
  Cd  Cd22  1  0.44404607  0.39644813  0.18934440  1.0
  Cd  Cd23  1  0.44404607  0.72978147  0.18934440  1.0
  Cd  Cd24  1  0.77737940  0.06311480  0.18934440  1.0
  Cd  Cd25  1  0.77737940  0.39644813  0.18934440  1.0
  Cd  Cd26  1  0.77737940  0.72978147  0.18934440  1.0
  Cd  Cd27  1  0.01071273  0.19644813  0.08934440  1.0
  Cd  Cd28  1  0.01071273  0.52978147  0.08934440  1.0
  Cd  Cd29  1  0.01071273  0.86311480  0.08934440  1.0
  Cd  Cd30  1  0.34404607  0.19644813  0.08934440  1.0
  Cd  Cd31  1  0.34404607  0.52978147  0.08934440  1.0
  Cd  Cd32  1  0.34404607  0.86311480  0.08934440  1.0
  Cd  Cd33  1  0.67737940  0.19644813  0.08934440  1.0
  Cd  Cd34  1  0.67737940  0.52978147  0.08934440  1.0
  Cd  Cd35  1  0.67737940  0.86311480  0.08934440  1.0
  Cd  Cd36  1  0.14028473  0.13166213  0.14498640  1.0
  Cd  Cd37  1  0.14028473  0.46499547  0.14498640  1.0
  Cd  Cd38  1  0.14028473  0.79832880  0.14498640  1.0
  Cd  Cd39  1  0.47361807  0.13166213  0.14498640  1.0
  Cd  Cd40  1  0.47361807  0.46499547  0.14498640  1.0
  Cd  Cd41  1  0.47361807  0.79832880  0.14498640  1.0
  Cd  Cd42  1  0.80695140  0.13166213  0.14498640  1.0
  Cd  Cd43  1  0.80695140  0.46499547  0.14498640  1.0
  Cd  Cd44  1  0.80695140  0.79832880  0.14498640  1.0
  Cd  Cd45  1  0.04028473  0.26499547  0.04498640  1.0
  Cd  Cd46  1  0.04028473  0.59832880  0.04498640  1.0
  Cd  Cd47  1  0.04028473  0.93166213  0.04498640  1.0
  Cd  Cd48  1  0.37361807  0.26499547  0.04498640  1.0
  Cd  Cd49  1  0.37361807  0.59832880  0.04498640  1.0
  Cd  Cd50  1  0.37361807  0.93166213  0.04498640  1.0
  Cd  Cd51  1  0.70695140  0.26499547  0.04498640  1.0
  Cd  Cd52  1  0.70695140  0.59832880  0.04498640  1.0
  Cd  Cd53  1  0.70695140  0.93166213  0.04498640  1.0
  Cd  Cd54  1  0.25789173  0.03354280  0.08652340  1.0
  Cd  Cd55  1  0.25789173  0.36687613  0.08652340  1.0
  Cd  Cd56  1  0.25789173  0.70020947  0.08652340  1.0
  Cd  Cd57  1  0.59122507  0.03354280  0.08652340  1.0
  Cd  Cd58  1  0.59122507  0.36687613  0.08652340  1.0
  Cd  Cd59  1  0.59122507  0.70020947  0.08652340  1.0
  Cd  Cd60  1  0.92455840  0.03354280  0.08652340  1.0
  Cd  Cd61  1  0.92455840  0.36687613  0.08652340  1.0
  Cd  Cd62  1  0.92455840  0.70020947  0.08652340  1.0
  Cd  Cd63  1  0.02455840  0.23354280  0.18652340  1.0
  Cd  Cd64  1  0.02455840  0.56687613  0.18652340  1.0
  Cd  Cd65  1  0.02455840  0.90020947  0.18652340  1.0
  Cd  Cd66  1  0.35789173  0.23354280  0.18652340  1.0
  Cd  Cd67  1  0.35789173  0.56687613  0.18652340  1.0
  Cd  Cd68  1  0.35789173  0.90020947  0.18652340  1.0
  Cd  Cd69  1  0.69122507  0.23354280  0.18652340  1.0
  Cd  Cd70  1  0.69122507  0.56687613  0.18652340  1.0
  Cd  Cd71  1  0.69122507  0.90020947  0.18652340  1.0
  Cd  Cd72  1  0.18746373  0.22602013  0.19216540  1.0
  Cd  Cd73  1  0.18746373  0.55935347  0.19216540  1.0
  Cd  Cd74  1  0.18746373  0.89268680  0.19216540  1.0
  Cd  Cd75  1  0.52079707  0.22602013  0.19216540  1.0
  Cd  Cd76  1  0.52079707  0.55935347  0.19216540  1.0
  Cd  Cd77  1  0.52079707  0.89268680  0.19216540  1.0
  Cd  Cd78  1  0.85413040  0.22602013  0.19216540  1.0
  Cd  Cd79  1  0.85413040  0.55935347  0.19216540  1.0
  Cd  Cd80  1  0.85413040  0.89268680  0.19216540  1.0
  Cd  Cd81  1  0.08746373  0.02602013  0.09216540  1.0
  Cd  Cd82  1  0.08746373  0.35935347  0.09216540  1.0
  Cd  Cd83  1  0.08746373  0.69268680  0.09216540  1.0
  Cd  Cd84  1  0.42079707  0.02602013  0.09216540  1.0
  Cd  Cd85  1  0.42079707  0.35935347  0.09216540  1.0
  Cd  Cd86  1  0.42079707  0.69268680  0.09216540  1.0
  Cd  Cd87  1  0.75413040  0.02602013  0.09216540  1.0
  Cd  Cd88  1  0.75413040  0.35935347  0.09216540  1.0
  Cd  Cd89  1  0.75413040  0.69268680  0.09216540  1.0
  Cd  Cd90  1  0.30507073  0.12790080  0.13370240  1.0
  Cd  Cd91  1  0.30507073  0.46123413  0.13370240  1.0
  Cd  Cd92  1  0.30507073  0.79456747  0.13370240  1.0
  Cd  Cd93  1  0.63840407  0.12790080  0.13370240  1.0
  Cd  Cd94  1  0.63840407  0.46123413  0.13370240  1.0
  Cd  Cd95  1  0.63840407  0.79456747  0.13370240  1.0
  Cd  Cd96  1  0.97173740  0.12790080  0.13370240  1.0
  Cd  Cd97  1  0.97173740  0.46123413  0.13370240  1.0
  Cd  Cd98  1  0.97173740  0.79456747  0.13370240  1.0
  Cd  Cd99  1  0.20507073  0.26123413  0.03370240  1.0
  Cd  Cd100  1  0.20507073  0.59456747  0.03370240  1.0
  Cd  Cd101  1  0.20507073  0.92790080  0.03370240  1.0
  Cd  Cd102  1  0.53840407  0.26123413  0.03370240  1.0
  Cd  Cd103  1  0.53840407  0.59456747  0.03370240  1.0
  Cd  Cd104  1  0.53840407  0.92790080  0.03370240  1.0
  Cd  Cd105  1  0.87173740  0.26123413  0.03370240  1.0
  Cd  Cd106  1  0.87173740  0.59456747  0.03370240  1.0
  Cd  Cd107  1  0.87173740  0.92790080  0.03370240  1.0
  Cd  Cd108  1  0.00507073  0.02790080  0.08370240  1.0
  Cd  Cd109  1  0.00507073  0.36123413  0.08370240  1.0
  Cd  Cd110  1  0.00507073  0.69456747  0.08370240  1.0
  Cd  Cd111  1  0.33840407  0.02790080  0.08370240  1.0
  Cd  Cd112  1  0.33840407  0.36123413  0.08370240  1.0
  Cd  Cd113  1  0.33840407  0.69456747  0.08370240  1.0
  Cd  Cd114  1  0.67173740  0.02790080  0.08370240  1.0
  Cd  Cd115  1  0.67173740  0.36123413  0.08370240  1.0
  Cd  Cd116  1  0.67173740  0.69456747  0.08370240  1.0
  Cd  Cd117  1  0.10507073  0.22790080  0.18370240  1.0
  Cd  Cd118  1  0.10507073  0.56123413  0.18370240  1.0
  Cd  Cd119  1  0.10507073  0.89456747  0.18370240  1.0
  Cd  Cd120  1  0.43840407  0.22790080  0.18370240  1.0
  Cd  Cd121  1  0.43840407  0.56123413  0.18370240  1.0
  Cd  Cd122  1  0.43840407  0.89456747  0.18370240  1.0
  Cd  Cd123  1  0.77173740  0.22790080  0.18370240  1.0
  Cd  Cd124  1  0.77173740  0.56123413  0.18370240  1.0
  Cd  Cd125  1  0.77173740  0.89456747  0.18370240  1.0
  Cd  Cd126  1  0.17361807  0.03166213  0.09498640  1.0
  Cd  Cd127  1  0.17361807  0.36499547  0.09498640  1.0
  Cd  Cd128  1  0.17361807  0.69832880  0.09498640  1.0
  Cd  Cd129  1  0.50695140  0.03166213  0.09498640  1.0
  Cd  Cd130  1  0.50695140  0.36499547  0.09498640  1.0
  Cd  Cd131  1  0.50695140  0.69832880  0.09498640  1.0
  Cd  Cd132  1  0.84028473  0.03166213  0.09498640  1.0
  Cd  Cd133  1  0.84028473  0.36499547  0.09498640  1.0
  Cd  Cd134  1  0.84028473  0.69832880  0.09498640  1.0
  Cd  Cd135  1  0.27361807  0.23166213  0.19498640  1.0
  Cd  Cd136  1  0.27361807  0.56499547  0.19498640  1.0
  Cd  Cd137  1  0.27361807  0.89832880  0.19498640  1.0
  Cd  Cd138  1  0.60695140  0.23166213  0.19498640  1.0
  Cd  Cd139  1  0.60695140  0.56499547  0.19498640  1.0
  Cd  Cd140  1  0.60695140  0.89832880  0.19498640  1.0
  Cd  Cd141  1  0.94028473  0.23166213  0.19498640  1.0
  Cd  Cd142  1  0.94028473  0.56499547  0.19498640  1.0
  Cd  Cd143  1  0.94028473  0.89832880  0.19498640  1.0
  Cd  Cd144  1  0.26797607  0.06311480  0.18934440  1.0
  Cd  Cd145  1  0.26797607  0.39644813  0.18934440  1.0
  Cd  Cd146  1  0.26797607  0.72978147  0.18934440  1.0
  Cd  Cd147  1  0.60130940  0.06311480  0.18934440  1.0
  Cd  Cd148  1  0.60130940  0.39644813  0.18934440  1.0
  Cd  Cd149  1  0.60130940  0.72978147  0.18934440  1.0
  Cd  Cd150  1  0.93464273  0.06311480  0.18934440  1.0
  Cd  Cd151  1  0.93464273  0.39644813  0.18934440  1.0
  Cd  Cd152  1  0.93464273  0.72978147  0.18934440  1.0
  Cd  Cd153  1  0.16797607  0.19644813  0.08934440  1.0
  Cd  Cd154  1  0.16797607  0.52978147  0.08934440  1.0
  Cd  Cd155  1  0.16797607  0.86311480  0.08934440  1.0
  Cd  Cd156  1  0.50130940  0.19644813  0.08934440  1.0
  Cd  Cd157  1  0.50130940  0.52978147  0.08934440  1.0
  Cd  Cd158  1  0.50130940  0.86311480  0.08934440  1.0
  Cd  Cd159  1  0.83464273  0.19644813  0.08934440  1.0
  Cd  Cd160  1  0.83464273  0.52978147  0.08934440  1.0
  Cd  Cd161  1  0.83464273  0.86311480  0.08934440  1.0
  Cd  Cd162  1  0.12079707  0.25935347  0.04216540  1.0
  Cd  Cd163  1  0.12079707  0.59268680  0.04216540  1.0
  Cd  Cd164  1  0.12079707  0.92602013  0.04216540  1.0
  Cd  Cd165  1  0.45413040  0.25935347  0.04216540  1.0
  Cd  Cd166  1  0.45413040  0.59268680  0.04216540  1.0
  Cd  Cd167  1  0.45413040  0.92602013  0.04216540  1.0
  Cd  Cd168  1  0.78746373  0.25935347  0.04216540  1.0
  Cd  Cd169  1  0.78746373  0.59268680  0.04216540  1.0
  Cd  Cd170  1  0.78746373  0.92602013  0.04216540  1.0
  Cd  Cd171  1  0.22079707  0.12602013  0.14216540  1.0
  Cd  Cd172  1  0.22079707  0.45935347  0.14216540  1.0
  Cd  Cd173  1  0.22079707  0.79268680  0.14216540  1.0
  Cd  Cd174  1  0.55413040  0.12602013  0.14216540  1.0
  Cd  Cd175  1  0.55413040  0.45935347  0.14216540  1.0
  Cd  Cd176  1  0.55413040  0.79268680  0.14216540  1.0
  Cd  Cd177  1  0.88746373  0.12602013  0.14216540  1.0
  Cd  Cd178  1  0.88746373  0.45935347  0.14216540  1.0
  Cd  Cd179  1  0.88746373  0.79268680  0.14216540  1.0
  Cd  Cd180  1  0.05789173  0.13354280  0.13652340  1.0
  Cd  Cd181  1  0.05789173  0.46687613  0.13652340  1.0
  Cd  Cd182  1  0.05789173  0.80020947  0.13652340  1.0
  Cd  Cd183  1  0.39122507  0.13354280  0.13652340  1.0
  Cd  Cd184  1  0.39122507  0.46687613  0.13652340  1.0
  Cd  Cd185  1  0.39122507  0.80020947  0.13652340  1.0
  Cd  Cd186  1  0.72455840  0.13354280  0.13652340  1.0
  Cd  Cd187  1  0.72455840  0.46687613  0.13652340  1.0
  Cd  Cd188  1  0.72455840  0.80020947  0.13652340  1.0
  Cd  Cd189  1  0.29122507  0.26687613  0.03652340  1.0
  Cd  Cd190  1  0.29122507  0.60020947  0.03652340  1.0
  Cd  Cd191  1  0.29122507  0.93354280  0.03652340  1.0
  Cd  Cd192  1  0.62455840  0.26687613  0.03652340  1.0
  Cd  Cd193  1  0.62455840  0.60020947  0.03652340  1.0
  Cd  Cd194  1  0.62455840  0.93354280  0.03652340  1.0
  Cd  Cd195  1  0.95789173  0.26687613  0.03652340  1.0
  Cd  Cd196  1  0.95789173  0.60020947  0.03652340  1.0
  Cd  Cd197  1  0.95789173  0.93354280  0.03652340  1.0
  Cd  Cd198  1  0.03464273  0.09644813  0.03934440  1.0
  Cd  Cd199  1  0.03464273  0.42978147  0.03934440  1.0
  Cd  Cd200  1  0.03464273  0.76311480  0.03934440  1.0
  Cd  Cd201  1  0.36797607  0.09644813  0.03934440  1.0
  Cd  Cd202  1  0.36797607  0.42978147  0.03934440  1.0
  Cd  Cd203  1  0.36797607  0.76311480  0.03934440  1.0
  Cd  Cd204  1  0.70130940  0.09644813  0.03934440  1.0
  Cd  Cd205  1  0.70130940  0.42978147  0.03934440  1.0
  Cd  Cd206  1  0.70130940  0.76311480  0.03934440  1.0
  Cd  Cd207  1  0.13464273  0.29644813  0.13934440  1.0
  Cd  Cd208  1  0.13464273  0.62978147  0.13934440  1.0
  Cd  Cd209  1  0.13464273  0.96311480  0.13934440  1.0
  Cd  Cd210  1  0.46797607  0.29644813  0.13934440  1.0
  Cd  Cd211  1  0.46797607  0.62978147  0.13934440  1.0
  Cd  Cd212  1  0.46797607  0.96311480  0.13934440  1.0
  Cd  Cd213  1  0.80130940  0.29644813  0.13934440  1.0
  Cd  Cd214  1  0.80130940  0.62978147  0.13934440  1.0
  Cd  Cd215  1  0.80130940  0.96311480  0.13934440  1.0
  Cd  Cd216  1  0.07737940  0.16311480  0.23934440  1.0
  Cd  Cd217  1  0.07737940  0.49644813  0.23934440  1.0
  Cd  Cd218  1  0.07737940  0.82978147  0.23934440  1.0
  Cd  Cd219  1  0.41071273  0.16311480  0.23934440  1.0
  Cd  Cd220  1  0.41071273  0.49644813  0.23934440  1.0
  Cd  Cd221  1  0.41071273  0.82978147  0.23934440  1.0
  Cd  Cd222  1  0.74404607  0.16311480  0.23934440  1.0
  Cd  Cd223  1  0.74404607  0.49644813  0.23934440  1.0
  Cd  Cd224  1  0.74404607  0.82978147  0.23934440  1.0
  Cd  Cd225  1  0.17737940  0.02978147  0.33934440  1.0
  Cd  Cd226  1  0.17737940  0.36311480  0.33934440  1.0
  Cd  Cd227  1  0.17737940  0.69644813  0.33934440  1.0
  Cd  Cd228  1  0.51071273  0.02978147  0.33934440  1.0
  Cd  Cd229  1  0.51071273  0.36311480  0.33934440  1.0
  Cd  Cd230  1  0.51071273  0.69644813  0.33934440  1.0
  Cd  Cd231  1  0.84404607  0.02978147  0.33934440  1.0
  Cd  Cd232  1  0.84404607  0.36311480  0.33934440  1.0
  Cd  Cd233  1  0.84404607  0.69644813  0.33934440  1.0
  Cd  Cd234  1  0.31071273  0.12978147  0.38934440  1.0
  Cd  Cd235  1  0.31071273  0.46311480  0.38934440  1.0
  Cd  Cd236  1  0.31071273  0.79644813  0.38934440  1.0
  Cd  Cd237  1  0.64404607  0.12978147  0.38934440  1.0
  Cd  Cd238  1  0.64404607  0.46311480  0.38934440  1.0
  Cd  Cd239  1  0.64404607  0.79644813  0.38934440  1.0
  Cd  Cd240  1  0.97737940  0.12978147  0.38934440  1.0
  Cd  Cd241  1  0.97737940  0.46311480  0.38934440  1.0
  Cd  Cd242  1  0.97737940  0.79644813  0.38934440  1.0
  Cd  Cd243  1  0.21071273  0.26311480  0.28934440  1.0
  Cd  Cd244  1  0.21071273  0.59644813  0.28934440  1.0
  Cd  Cd245  1  0.21071273  0.92978147  0.28934440  1.0
  Cd  Cd246  1  0.54404607  0.26311480  0.28934440  1.0
  Cd  Cd247  1  0.54404607  0.59644813  0.28934440  1.0
  Cd  Cd248  1  0.54404607  0.92978147  0.28934440  1.0
  Cd  Cd249  1  0.87737940  0.26311480  0.28934440  1.0
  Cd  Cd250  1  0.87737940  0.59644813  0.28934440  1.0
  Cd  Cd251  1  0.87737940  0.92978147  0.28934440  1.0
  Cd  Cd252  1  0.00695140  0.19832880  0.34498640  1.0
  Cd  Cd253  1  0.00695140  0.53166213  0.34498640  1.0
  Cd  Cd254  1  0.00695140  0.86499547  0.34498640  1.0
  Cd  Cd255  1  0.34028473  0.19832880  0.34498640  1.0
  Cd  Cd256  1  0.34028473  0.53166213  0.34498640  1.0
  Cd  Cd257  1  0.34028473  0.86499547  0.34498640  1.0
  Cd  Cd258  1  0.67361807  0.19832880  0.34498640  1.0
  Cd  Cd259  1  0.67361807  0.53166213  0.34498640  1.0
  Cd  Cd260  1  0.67361807  0.86499547  0.34498640  1.0
  Cd  Cd261  1  0.24028473  0.33166213  0.24498640  1.0
  Cd  Cd262  1  0.24028473  0.66499547  0.24498640  1.0
  Cd  Cd263  1  0.24028473  0.99832880  0.24498640  1.0
  Cd  Cd264  1  0.57361807  0.33166213  0.24498640  1.0
  Cd  Cd265  1  0.57361807  0.66499547  0.24498640  1.0
  Cd  Cd266  1  0.57361807  0.99832880  0.24498640  1.0
  Cd  Cd267  1  0.90695140  0.33166213  0.24498640  1.0
  Cd  Cd268  1  0.90695140  0.66499547  0.24498640  1.0
  Cd  Cd269  1  0.90695140  0.99832880  0.24498640  1.0
  Cd  Cd270  1  0.12455840  0.10020947  0.28652340  1.0
  Cd  Cd271  1  0.12455840  0.43354280  0.28652340  1.0
  Cd  Cd272  1  0.12455840  0.76687613  0.28652340  1.0
  Cd  Cd273  1  0.45789173  0.10020947  0.28652340  1.0
  Cd  Cd274  1  0.45789173  0.43354280  0.28652340  1.0
  Cd  Cd275  1  0.45789173  0.76687613  0.28652340  1.0
  Cd  Cd276  1  0.79122507  0.10020947  0.28652340  1.0
  Cd  Cd277  1  0.79122507  0.43354280  0.28652340  1.0
  Cd  Cd278  1  0.79122507  0.76687613  0.28652340  1.0
  Cd  Cd279  1  0.22455840  0.30020947  0.38652340  1.0
  Cd  Cd280  1  0.22455840  0.63354280  0.38652340  1.0
  Cd  Cd281  1  0.22455840  0.96687613  0.38652340  1.0
  Cd  Cd282  1  0.55789173  0.30020947  0.38652340  1.0
  Cd  Cd283  1  0.55789173  0.63354280  0.38652340  1.0
  Cd  Cd284  1  0.55789173  0.96687613  0.38652340  1.0
  Cd  Cd285  1  0.89122507  0.30020947  0.38652340  1.0
  Cd  Cd286  1  0.89122507  0.63354280  0.38652340  1.0
  Cd  Cd287  1  0.89122507  0.96687613  0.38652340  1.0
  Cd  Cd288  1  0.05413040  0.29268680  0.39216540  1.0
  Cd  Cd289  1  0.05413040  0.62602013  0.39216540  1.0
  Cd  Cd290  1  0.05413040  0.95935347  0.39216540  1.0
  Cd  Cd291  1  0.38746373  0.29268680  0.39216540  1.0
  Cd  Cd292  1  0.38746373  0.62602013  0.39216540  1.0
  Cd  Cd293  1  0.38746373  0.95935347  0.39216540  1.0
  Cd  Cd294  1  0.72079707  0.29268680  0.39216540  1.0
  Cd  Cd295  1  0.72079707  0.62602013  0.39216540  1.0
  Cd  Cd296  1  0.72079707  0.95935347  0.39216540  1.0
  Cd  Cd297  1  0.28746373  0.09268680  0.29216540  1.0
  Cd  Cd298  1  0.28746373  0.42602013  0.29216540  1.0
  Cd  Cd299  1  0.28746373  0.75935347  0.29216540  1.0
  Cd  Cd300  1  0.62079707  0.09268680  0.29216540  1.0
  Cd  Cd301  1  0.62079707  0.42602013  0.29216540  1.0
  Cd  Cd302  1  0.62079707  0.75935347  0.29216540  1.0
  Cd  Cd303  1  0.95413040  0.09268680  0.29216540  1.0
  Cd  Cd304  1  0.95413040  0.42602013  0.29216540  1.0
  Cd  Cd305  1  0.95413040  0.75935347  0.29216540  1.0
  Cd  Cd306  1  0.17173740  0.19456747  0.33370240  1.0
  Cd  Cd307  1  0.17173740  0.52790080  0.33370240  1.0
  Cd  Cd308  1  0.17173740  0.86123413  0.33370240  1.0
  Cd  Cd309  1  0.50507073  0.19456747  0.33370240  1.0
  Cd  Cd310  1  0.50507073  0.52790080  0.33370240  1.0
  Cd  Cd311  1  0.50507073  0.86123413  0.33370240  1.0
  Cd  Cd312  1  0.83840407  0.19456747  0.33370240  1.0
  Cd  Cd313  1  0.83840407  0.52790080  0.33370240  1.0
  Cd  Cd314  1  0.83840407  0.86123413  0.33370240  1.0
  Cd  Cd315  1  0.07173740  0.32790080  0.23370240  1.0
  Cd  Cd316  1  0.07173740  0.66123413  0.23370240  1.0
  Cd  Cd317  1  0.07173740  0.99456747  0.23370240  1.0
  Cd  Cd318  1  0.40507073  0.32790080  0.23370240  1.0
  Cd  Cd319  1  0.40507073  0.66123413  0.23370240  1.0
  Cd  Cd320  1  0.40507073  0.99456747  0.23370240  1.0
  Cd  Cd321  1  0.73840407  0.32790080  0.23370240  1.0
  Cd  Cd322  1  0.73840407  0.66123413  0.23370240  1.0
  Cd  Cd323  1  0.73840407  0.99456747  0.23370240  1.0
  Cd  Cd324  1  0.20507073  0.09456747  0.28370240  1.0
  Cd  Cd325  1  0.20507073  0.42790080  0.28370240  1.0
  Cd  Cd326  1  0.20507073  0.76123413  0.28370240  1.0
  Cd  Cd327  1  0.53840407  0.09456747  0.28370240  1.0
  Cd  Cd328  1  0.53840407  0.42790080  0.28370240  1.0
  Cd  Cd329  1  0.53840407  0.76123413  0.28370240  1.0
  Cd  Cd330  1  0.87173740  0.09456747  0.28370240  1.0
  Cd  Cd331  1  0.87173740  0.42790080  0.28370240  1.0
  Cd  Cd332  1  0.87173740  0.76123413  0.28370240  1.0
  Cd  Cd333  1  0.30507073  0.29456747  0.38370240  1.0
  Cd  Cd334  1  0.30507073  0.62790080  0.38370240  1.0
  Cd  Cd335  1  0.30507073  0.96123413  0.38370240  1.0
  Cd  Cd336  1  0.63840407  0.29456747  0.38370240  1.0
  Cd  Cd337  1  0.63840407  0.62790080  0.38370240  1.0
  Cd  Cd338  1  0.63840407  0.96123413  0.38370240  1.0
  Cd  Cd339  1  0.97173740  0.29456747  0.38370240  1.0
  Cd  Cd340  1  0.97173740  0.62790080  0.38370240  1.0
  Cd  Cd341  1  0.97173740  0.96123413  0.38370240  1.0
  Cd  Cd342  1  0.04028473  0.09832880  0.29498640  1.0
  Cd  Cd343  1  0.04028473  0.43166213  0.29498640  1.0
  Cd  Cd344  1  0.04028473  0.76499547  0.29498640  1.0
  Cd  Cd345  1  0.37361807  0.09832880  0.29498640  1.0
  Cd  Cd346  1  0.37361807  0.43166213  0.29498640  1.0
  Cd  Cd347  1  0.37361807  0.76499547  0.29498640  1.0
  Cd  Cd348  1  0.70695140  0.09832880  0.29498640  1.0
  Cd  Cd349  1  0.70695140  0.43166213  0.29498640  1.0
  Cd  Cd350  1  0.70695140  0.76499547  0.29498640  1.0
  Cd  Cd351  1  0.14028473  0.29832880  0.39498640  1.0
  Cd  Cd352  1  0.14028473  0.63166213  0.39498640  1.0
  Cd  Cd353  1  0.14028473  0.96499547  0.39498640  1.0
  Cd  Cd354  1  0.47361807  0.29832880  0.39498640  1.0
  Cd  Cd355  1  0.47361807  0.63166213  0.39498640  1.0
  Cd  Cd356  1  0.47361807  0.96499547  0.39498640  1.0
  Cd  Cd357  1  0.80695140  0.29832880  0.39498640  1.0
  Cd  Cd358  1  0.80695140  0.63166213  0.39498640  1.0
  Cd  Cd359  1  0.80695140  0.96499547  0.39498640  1.0
  Cd  Cd360  1  0.13464273  0.12978147  0.38934440  1.0
  Cd  Cd361  1  0.13464273  0.46311480  0.38934440  1.0
  Cd  Cd362  1  0.13464273  0.79644813  0.38934440  1.0
  Cd  Cd363  1  0.46797607  0.12978147  0.38934440  1.0
  Cd  Cd364  1  0.46797607  0.46311480  0.38934440  1.0
  Cd  Cd365  1  0.46797607  0.79644813  0.38934440  1.0
  Cd  Cd366  1  0.80130940  0.12978147  0.38934440  1.0
  Cd  Cd367  1  0.80130940  0.46311480  0.38934440  1.0
  Cd  Cd368  1  0.80130940  0.79644813  0.38934440  1.0
  Cd  Cd369  1  0.03464273  0.26311480  0.28934440  1.0
  Cd  Cd370  1  0.03464273  0.59644813  0.28934440  1.0
  Cd  Cd371  1  0.03464273  0.92978147  0.28934440  1.0
  Cd  Cd372  1  0.36797607  0.26311480  0.28934440  1.0
  Cd  Cd373  1  0.36797607  0.59644813  0.28934440  1.0
  Cd  Cd374  1  0.36797607  0.92978147  0.28934440  1.0
  Cd  Cd375  1  0.70130940  0.26311480  0.28934440  1.0
  Cd  Cd376  1  0.70130940  0.59644813  0.28934440  1.0
  Cd  Cd377  1  0.70130940  0.92978147  0.28934440  1.0
  Cd  Cd378  1  0.32079707  0.32602013  0.24216540  1.0
  Cd  Cd379  1  0.32079707  0.65935347  0.24216540  1.0
  Cd  Cd380  1  0.32079707  0.99268680  0.24216540  1.0
  Cd  Cd381  1  0.65413040  0.32602013  0.24216540  1.0
  Cd  Cd382  1  0.65413040  0.65935347  0.24216540  1.0
  Cd  Cd383  1  0.65413040  0.99268680  0.24216540  1.0
  Cd  Cd384  1  0.98746373  0.32602013  0.24216540  1.0
  Cd  Cd385  1  0.98746373  0.65935347  0.24216540  1.0
  Cd  Cd386  1  0.98746373  0.99268680  0.24216540  1.0
  Cd  Cd387  1  0.08746373  0.19268680  0.34216540  1.0
  Cd  Cd388  1  0.08746373  0.52602013  0.34216540  1.0
  Cd  Cd389  1  0.08746373  0.85935347  0.34216540  1.0
  Cd  Cd390  1  0.42079707  0.19268680  0.34216540  1.0
  Cd  Cd391  1  0.42079707  0.52602013  0.34216540  1.0
  Cd  Cd392  1  0.42079707  0.85935347  0.34216540  1.0
  Cd  Cd393  1  0.75413040  0.19268680  0.34216540  1.0
  Cd  Cd394  1  0.75413040  0.52602013  0.34216540  1.0
  Cd  Cd395  1  0.75413040  0.85935347  0.34216540  1.0
  Cd  Cd396  1  0.25789173  0.20020947  0.33652340  1.0
  Cd  Cd397  1  0.25789173  0.53354280  0.33652340  1.0
  Cd  Cd398  1  0.25789173  0.86687613  0.33652340  1.0
  Cd  Cd399  1  0.59122507  0.20020947  0.33652340  1.0
  Cd  Cd400  1  0.59122507  0.53354280  0.33652340  1.0
  Cd  Cd401  1  0.59122507  0.86687613  0.33652340  1.0
  Cd  Cd402  1  0.92455840  0.20020947  0.33652340  1.0
  Cd  Cd403  1  0.92455840  0.53354280  0.33652340  1.0
  Cd  Cd404  1  0.92455840  0.86687613  0.33652340  1.0
  Cd  Cd405  1  0.15789173  0.00020947  0.23652340  1.0
  Cd  Cd406  1  0.15789173  0.33354280  0.23652340  1.0
  Cd  Cd407  1  0.15789173  0.66687613  0.23652340  1.0
  Cd  Cd408  1  0.49122507  0.00020947  0.23652340  1.0
  Cd  Cd409  1  0.49122507  0.33354280  0.23652340  1.0
  Cd  Cd410  1  0.49122507  0.66687613  0.23652340  1.0
  Cd  Cd411  1  0.82455840  0.00020947  0.23652340  1.0
  Cd  Cd412  1  0.82455840  0.33354280  0.23652340  1.0
  Cd  Cd413  1  0.82455840  0.66687613  0.23652340  1.0
  Cd  Cd414  1  0.23464273  0.16311480  0.23934440  1.0
  Cd  Cd415  1  0.23464273  0.49644813  0.23934440  1.0
  Cd  Cd416  1  0.23464273  0.82978147  0.23934440  1.0
  Cd  Cd417  1  0.56797607  0.16311480  0.23934440  1.0
  Cd  Cd418  1  0.56797607  0.49644813  0.23934440  1.0
  Cd  Cd419  1  0.56797607  0.82978147  0.23934440  1.0
  Cd  Cd420  1  0.90130940  0.16311480  0.23934440  1.0
  Cd  Cd421  1  0.90130940  0.49644813  0.23934440  1.0
  Cd  Cd422  1  0.90130940  0.82978147  0.23934440  1.0
  Cd  Cd423  1  0.00130940  0.02978147  0.33934440  1.0
  Cd  Cd424  1  0.00130940  0.36311480  0.33934440  1.0
  Cd  Cd425  1  0.00130940  0.69644813  0.33934440  1.0
  Cd  Cd426  1  0.33464273  0.02978147  0.33934440  1.0
  Cd  Cd427  1  0.33464273  0.36311480  0.33934440  1.0
  Cd  Cd428  1  0.33464273  0.69644813  0.33934440  1.0
  Cd  Cd429  1  0.66797607  0.02978147  0.33934440  1.0
  Cd  Cd430  1  0.66797607  0.36311480  0.33934440  1.0
  Cd  Cd431  1  0.66797607  0.69644813  0.33934440  1.0
  Ni  Ni432  1  0.19426280  0.02513693  0.00368880  1.0
  Ni  Ni433  1  0.19426280  0.35847027  0.00368880  1.0
  Ni  Ni434  1  0.19426280  0.69180360  0.00368880  1.0
  Ni  Ni435  1  0.52759613  0.02513693  0.00368880  1.0
  Ni  Ni436  1  0.52759613  0.35847027  0.00368880  1.0
  Ni  Ni437  1  0.52759613  0.69180360  0.00368880  1.0
  Ni  Ni438  1  0.86092947  0.02513693  0.00368880  1.0
  Ni  Ni439  1  0.86092947  0.35847027  0.00368880  1.0
  Ni  Ni440  1  0.86092947  0.69180360  0.00368880  1.0
  Ni  Ni441  1  0.29426280  0.22513693  0.10368880  1.0
  Ni  Ni442  1  0.29426280  0.55847027  0.10368880  1.0
  Ni  Ni443  1  0.29426280  0.89180360  0.10368880  1.0
  Ni  Ni444  1  0.62759613  0.22513693  0.10368880  1.0
  Ni  Ni445  1  0.62759613  0.55847027  0.10368880  1.0
  Ni  Ni446  1  0.62759613  0.89180360  0.10368880  1.0
  Ni  Ni447  1  0.96092947  0.22513693  0.10368880  1.0
  Ni  Ni448  1  0.96092947  0.55847027  0.10368880  1.0
  Ni  Ni449  1  0.96092947  0.89180360  0.10368880  1.0
  Ni  Ni450  1  0.24180360  0.28688520  0.18237760  1.0
  Ni  Ni451  1  0.24180360  0.62021853  0.18237760  1.0
  Ni  Ni452  1  0.24180360  0.95355187  0.18237760  1.0
  Ni  Ni453  1  0.57513693  0.28688520  0.18237760  1.0
  Ni  Ni454  1  0.57513693  0.62021853  0.18237760  1.0
  Ni  Ni455  1  0.57513693  0.95355187  0.18237760  1.0
  Ni  Ni456  1  0.90847027  0.28688520  0.18237760  1.0
  Ni  Ni457  1  0.90847027  0.62021853  0.18237760  1.0
  Ni  Ni458  1  0.90847027  0.95355187  0.18237760  1.0
  Ni  Ni459  1  0.14180360  0.08688520  0.08237760  1.0
  Ni  Ni460  1  0.14180360  0.42021853  0.08237760  1.0
  Ni  Ni461  1  0.14180360  0.75355187  0.08237760  1.0
  Ni  Ni462  1  0.47513693  0.08688520  0.08237760  1.0
  Ni  Ni463  1  0.47513693  0.42021853  0.08237760  1.0
  Ni  Ni464  1  0.47513693  0.75355187  0.08237760  1.0
  Ni  Ni465  1  0.80847027  0.08688520  0.08237760  1.0
  Ni  Ni466  1  0.80847027  0.42021853  0.08237760  1.0
  Ni  Ni467  1  0.80847027  0.75355187  0.08237760  1.0
  Ni  Ni468  1  0.25136653  0.30601107  0.09631120  1.0
  Ni  Ni469  1  0.25136653  0.63934440  0.09631120  1.0
  Ni  Ni470  1  0.25136653  0.97267773  0.09631120  1.0
  Ni  Ni471  1  0.58469987  0.30601107  0.09631120  1.0
  Ni  Ni472  1  0.58469987  0.63934440  0.09631120  1.0
  Ni  Ni473  1  0.58469987  0.97267773  0.09631120  1.0
  Ni  Ni474  1  0.91803320  0.30601107  0.09631120  1.0
  Ni  Ni475  1  0.91803320  0.63934440  0.09631120  1.0
  Ni  Ni476  1  0.91803320  0.97267773  0.09631120  1.0
  Ni  Ni477  1  0.01803320  0.17267773  0.19631120  1.0
  Ni  Ni478  1  0.01803320  0.50601107  0.19631120  1.0
  Ni  Ni479  1  0.01803320  0.83934440  0.19631120  1.0
  Ni  Ni480  1  0.35136653  0.17267773  0.19631120  1.0
  Ni  Ni481  1  0.35136653  0.50601107  0.19631120  1.0
  Ni  Ni482  1  0.35136653  0.83934440  0.19631120  1.0
  Ni  Ni483  1  0.68469987  0.17267773  0.19631120  1.0
  Ni  Ni484  1  0.68469987  0.50601107  0.19631120  1.0
  Ni  Ni485  1  0.68469987  0.83934440  0.19631120  1.0
  Ni  Ni486  1  0.21311480  0.32513693  0.15368880  1.0
  Ni  Ni487  1  0.21311480  0.65847027  0.15368880  1.0
  Ni  Ni488  1  0.21311480  0.99180360  0.15368880  1.0
  Ni  Ni489  1  0.54644813  0.32513693  0.15368880  1.0
  Ni  Ni490  1  0.54644813  0.65847027  0.15368880  1.0
  Ni  Ni491  1  0.54644813  0.99180360  0.15368880  1.0
  Ni  Ni492  1  0.87978147  0.32513693  0.15368880  1.0
  Ni  Ni493  1  0.87978147  0.65847027  0.15368880  1.0
  Ni  Ni494  1  0.87978147  0.99180360  0.15368880  1.0
  Ni  Ni495  1  0.11311480  0.12513693  0.05368880  1.0
  Ni  Ni496  1  0.11311480  0.45847027  0.05368880  1.0
  Ni  Ni497  1  0.11311480  0.79180360  0.05368880  1.0
  Ni  Ni498  1  0.44644813  0.12513693  0.05368880  1.0
  Ni  Ni499  1  0.44644813  0.45847027  0.05368880  1.0
  Ni  Ni500  1  0.44644813  0.79180360  0.05368880  1.0
  Ni  Ni501  1  0.77978147  0.12513693  0.05368880  1.0
  Ni  Ni502  1  0.77978147  0.45847027  0.05368880  1.0
  Ni  Ni503  1  0.77978147  0.79180360  0.05368880  1.0
  Ni  Ni504  1  0.12732227  0.32021853  0.03237760  1.0
  Ni  Ni505  1  0.12732227  0.65355187  0.03237760  1.0
  Ni  Ni506  1  0.12732227  0.98688520  0.03237760  1.0
  Ni  Ni507  1  0.46065560  0.32021853  0.03237760  1.0
  Ni  Ni508  1  0.46065560  0.65355187  0.03237760  1.0
  Ni  Ni509  1  0.46065560  0.98688520  0.03237760  1.0
  Ni  Ni510  1  0.79398893  0.32021853  0.03237760  1.0
  Ni  Ni511  1  0.79398893  0.65355187  0.03237760  1.0
  Ni  Ni512  1  0.79398893  0.98688520  0.03237760  1.0
  Ni  Ni513  1  0.22732227  0.18688520  0.13237760  1.0
  Ni  Ni514  1  0.22732227  0.52021853  0.13237760  1.0
  Ni  Ni515  1  0.22732227  0.85355187  0.13237760  1.0
  Ni  Ni516  1  0.56065560  0.18688520  0.13237760  1.0
  Ni  Ni517  1  0.56065560  0.52021853  0.13237760  1.0
  Ni  Ni518  1  0.56065560  0.85355187  0.13237760  1.0
  Ni  Ni519  1  0.89398893  0.18688520  0.13237760  1.0
  Ni  Ni520  1  0.89398893  0.52021853  0.13237760  1.0
  Ni  Ni521  1  0.89398893  0.85355187  0.13237760  1.0
  Ni  Ni522  1  0.03224067  0.03442600  0.17500000  1.0
  Ni  Ni523  1  0.03224067  0.36775933  0.17500000  1.0
  Ni  Ni524  1  0.03224067  0.70109267  0.17500000  1.0
  Ni  Ni525  1  0.36557400  0.03442600  0.17500000  1.0
  Ni  Ni526  1  0.36557400  0.36775933  0.17500000  1.0
  Ni  Ni527  1  0.36557400  0.70109267  0.17500000  1.0
  Ni  Ni528  1  0.69890733  0.03442600  0.17500000  1.0
  Ni  Ni529  1  0.69890733  0.36775933  0.17500000  1.0
  Ni  Ni530  1  0.69890733  0.70109267  0.17500000  1.0
  Ni  Ni531  1  0.26557400  0.16775933  0.07500000  1.0
  Ni  Ni532  1  0.26557400  0.50109267  0.07500000  1.0
  Ni  Ni533  1  0.26557400  0.83442600  0.07500000  1.0
  Ni  Ni534  1  0.59890733  0.16775933  0.07500000  1.0
  Ni  Ni535  1  0.59890733  0.50109267  0.07500000  1.0
  Ni  Ni536  1  0.59890733  0.83442600  0.07500000  1.0
  Ni  Ni537  1  0.93224067  0.16775933  0.07500000  1.0
  Ni  Ni538  1  0.93224067  0.50109267  0.07500000  1.0
  Ni  Ni539  1  0.93224067  0.83442600  0.07500000  1.0
  Ni  Ni540  1  0.00355187  0.07267773  0.14631120  1.0
  Ni  Ni541  1  0.00355187  0.40601107  0.14631120  1.0
  Ni  Ni542  1  0.00355187  0.73934440  0.14631120  1.0
  Ni  Ni543  1  0.33688520  0.07267773  0.14631120  1.0
  Ni  Ni544  1  0.33688520  0.40601107  0.14631120  1.0
  Ni  Ni545  1  0.33688520  0.73934440  0.14631120  1.0
  Ni  Ni546  1  0.67021853  0.07267773  0.14631120  1.0
  Ni  Ni547  1  0.67021853  0.40601107  0.14631120  1.0
  Ni  Ni548  1  0.67021853  0.73934440  0.14631120  1.0
  Ni  Ni549  1  0.23688520  0.20601107  0.04631120  1.0
  Ni  Ni550  1  0.23688520  0.53934440  0.04631120  1.0
  Ni  Ni551  1  0.23688520  0.87267773  0.04631120  1.0
  Ni  Ni552  1  0.57021853  0.20601107  0.04631120  1.0
  Ni  Ni553  1  0.57021853  0.53934440  0.04631120  1.0
  Ni  Ni554  1  0.57021853  0.87267773  0.04631120  1.0
  Ni  Ni555  1  0.90355187  0.20601107  0.04631120  1.0
  Ni  Ni556  1  0.90355187  0.53934440  0.04631120  1.0
  Ni  Ni557  1  0.90355187  0.87267773  0.04631120  1.0
  Ni  Ni558  1  0.18442600  0.26775933  0.12500000  1.0
  Ni  Ni559  1  0.18442600  0.60109267  0.12500000  1.0
  Ni  Ni560  1  0.18442600  0.93442600  0.12500000  1.0
  Ni  Ni561  1  0.51775933  0.26775933  0.12500000  1.0
  Ni  Ni562  1  0.51775933  0.60109267  0.12500000  1.0
  Ni  Ni563  1  0.51775933  0.93442600  0.12500000  1.0
  Ni  Ni564  1  0.85109267  0.26775933  0.12500000  1.0
  Ni  Ni565  1  0.85109267  0.60109267  0.12500000  1.0
  Ni  Ni566  1  0.85109267  0.93442600  0.12500000  1.0
  Ni  Ni567  1  0.08442600  0.06775933  0.02500000  1.0
  Ni  Ni568  1  0.08442600  0.40109267  0.02500000  1.0
  Ni  Ni569  1  0.08442600  0.73442600  0.02500000  1.0
  Ni  Ni570  1  0.41775933  0.06775933  0.02500000  1.0
  Ni  Ni571  1  0.41775933  0.40109267  0.02500000  1.0
  Ni  Ni572  1  0.41775933  0.73442600  0.02500000  1.0
  Ni  Ni573  1  0.75109267  0.06775933  0.02500000  1.0
  Ni  Ni574  1  0.75109267  0.40109267  0.02500000  1.0
  Ni  Ni575  1  0.75109267  0.73442600  0.02500000  1.0
  Ni  Ni576  1  0.23934440  0.07978147  0.11434440  1.0
  Ni  Ni577  1  0.23934440  0.41311480  0.11434440  1.0
  Ni  Ni578  1  0.23934440  0.74644813  0.11434440  1.0
  Ni  Ni579  1  0.57267773  0.07978147  0.11434440  1.0
  Ni  Ni580  1  0.57267773  0.41311480  0.11434440  1.0
  Ni  Ni581  1  0.57267773  0.74644813  0.11434440  1.0
  Ni  Ni582  1  0.90601107  0.07978147  0.11434440  1.0
  Ni  Ni583  1  0.90601107  0.41311480  0.11434440  1.0
  Ni  Ni584  1  0.90601107  0.74644813  0.11434440  1.0
  Ni  Ni585  1  0.13934440  0.21311480  0.01434440  1.0
  Ni  Ni586  1  0.13934440  0.54644813  0.01434440  1.0
  Ni  Ni587  1  0.13934440  0.87978147  0.01434440  1.0
  Ni  Ni588  1  0.47267773  0.21311480  0.01434440  1.0
  Ni  Ni589  1  0.47267773  0.54644813  0.01434440  1.0
  Ni  Ni590  1  0.47267773  0.87978147  0.01434440  1.0
  Ni  Ni591  1  0.80601107  0.21311480  0.01434440  1.0
  Ni  Ni592  1  0.80601107  0.54644813  0.01434440  1.0
  Ni  Ni593  1  0.80601107  0.87978147  0.01434440  1.0
  Ni  Ni594  1  0.30601107  0.04644813  0.01434440  1.0
  Ni  Ni595  1  0.30601107  0.37978147  0.01434440  1.0
  Ni  Ni596  1  0.30601107  0.71311480  0.01434440  1.0
  Ni  Ni597  1  0.63934440  0.04644813  0.01434440  1.0
  Ni  Ni598  1  0.63934440  0.37978147  0.01434440  1.0
  Ni  Ni599  1  0.63934440  0.71311480  0.01434440  1.0
  Ni  Ni600  1  0.97267773  0.04644813  0.01434440  1.0
  Ni  Ni601  1  0.97267773  0.37978147  0.01434440  1.0
  Ni  Ni602  1  0.97267773  0.71311480  0.01434440  1.0
  Ni  Ni603  1  0.07267773  0.24644813  0.11434440  1.0
  Ni  Ni604  1  0.07267773  0.57978147  0.11434440  1.0
  Ni  Ni605  1  0.07267773  0.91311480  0.11434440  1.0
  Ni  Ni606  1  0.40601107  0.24644813  0.11434440  1.0
  Ni  Ni607  1  0.40601107  0.57978147  0.11434440  1.0
  Ni  Ni608  1  0.40601107  0.91311480  0.11434440  1.0
  Ni  Ni609  1  0.73934440  0.24644813  0.11434440  1.0
  Ni  Ni610  1  0.73934440  0.57978147  0.11434440  1.0
  Ni  Ni611  1  0.73934440  0.91311480  0.11434440  1.0
  Ni  Ni612  1  0.12267773  0.17978147  0.16434440  1.0
  Ni  Ni613  1  0.12267773  0.51311480  0.16434440  1.0
  Ni  Ni614  1  0.12267773  0.84644813  0.16434440  1.0
  Ni  Ni615  1  0.45601107  0.17978147  0.16434440  1.0
  Ni  Ni616  1  0.45601107  0.51311480  0.16434440  1.0
  Ni  Ni617  1  0.45601107  0.84644813  0.16434440  1.0
  Ni  Ni618  1  0.78934440  0.17978147  0.16434440  1.0
  Ni  Ni619  1  0.78934440  0.51311480  0.16434440  1.0
  Ni  Ni620  1  0.78934440  0.84644813  0.16434440  1.0
  Ni  Ni621  1  0.02267773  0.31311480  0.06434440  1.0
  Ni  Ni622  1  0.02267773  0.64644813  0.06434440  1.0
  Ni  Ni623  1  0.02267773  0.97978147  0.06434440  1.0
  Ni  Ni624  1  0.35601107  0.31311480  0.06434440  1.0
  Ni  Ni625  1  0.35601107  0.64644813  0.06434440  1.0
  Ni  Ni626  1  0.35601107  0.97978147  0.06434440  1.0
  Ni  Ni627  1  0.68934440  0.31311480  0.06434440  1.0
  Ni  Ni628  1  0.68934440  0.64644813  0.06434440  1.0
  Ni  Ni629  1  0.68934440  0.97978147  0.06434440  1.0
  Ni  Ni630  1  0.02267773  0.14644813  0.06434440  1.0
  Ni  Ni631  1  0.02267773  0.47978147  0.06434440  1.0
  Ni  Ni632  1  0.02267773  0.81311480  0.06434440  1.0
  Ni  Ni633  1  0.35601107  0.14644813  0.06434440  1.0
  Ni  Ni634  1  0.35601107  0.47978147  0.06434440  1.0
  Ni  Ni635  1  0.35601107  0.81311480  0.06434440  1.0
  Ni  Ni636  1  0.68934440  0.14644813  0.06434440  1.0
  Ni  Ni637  1  0.68934440  0.47978147  0.06434440  1.0
  Ni  Ni638  1  0.68934440  0.81311480  0.06434440  1.0
  Ni  Ni639  1  0.12267773  0.01311480  0.16434440  1.0
  Ni  Ni640  1  0.12267773  0.34644813  0.16434440  1.0
  Ni  Ni641  1  0.12267773  0.67978147  0.16434440  1.0
  Ni  Ni642  1  0.45601107  0.01311480  0.16434440  1.0
  Ni  Ni643  1  0.45601107  0.34644813  0.16434440  1.0
  Ni  Ni644  1  0.45601107  0.67978147  0.16434440  1.0
  Ni  Ni645  1  0.78934440  0.01311480  0.16434440  1.0
  Ni  Ni646  1  0.78934440  0.34644813  0.16434440  1.0
  Ni  Ni647  1  0.78934440  0.67978147  0.16434440  1.0
  Ni  Ni648  1  0.06092947  0.09180360  0.20368880  1.0
  Ni  Ni649  1  0.06092947  0.42513693  0.20368880  1.0
  Ni  Ni650  1  0.06092947  0.75847027  0.20368880  1.0
  Ni  Ni651  1  0.39426280  0.09180360  0.20368880  1.0
  Ni  Ni652  1  0.39426280  0.42513693  0.20368880  1.0
  Ni  Ni653  1  0.39426280  0.75847027  0.20368880  1.0
  Ni  Ni654  1  0.72759613  0.09180360  0.20368880  1.0
  Ni  Ni655  1  0.72759613  0.42513693  0.20368880  1.0
  Ni  Ni656  1  0.72759613  0.75847027  0.20368880  1.0
  Ni  Ni657  1  0.16092947  0.29180360  0.30368880  1.0
  Ni  Ni658  1  0.16092947  0.62513693  0.30368880  1.0
  Ni  Ni659  1  0.16092947  0.95847027  0.30368880  1.0
  Ni  Ni660  1  0.49426280  0.29180360  0.30368880  1.0
  Ni  Ni661  1  0.49426280  0.62513693  0.30368880  1.0
  Ni  Ni662  1  0.49426280  0.95847027  0.30368880  1.0
  Ni  Ni663  1  0.82759613  0.29180360  0.30368880  1.0
  Ni  Ni664  1  0.82759613  0.62513693  0.30368880  1.0
  Ni  Ni665  1  0.82759613  0.95847027  0.30368880  1.0
  Ni  Ni666  1  0.10847027  0.02021853  0.38237760  1.0
  Ni  Ni667  1  0.10847027  0.35355187  0.38237760  1.0
  Ni  Ni668  1  0.10847027  0.68688520  0.38237760  1.0
  Ni  Ni669  1  0.44180360  0.02021853  0.38237760  1.0
  Ni  Ni670  1  0.44180360  0.35355187  0.38237760  1.0
  Ni  Ni671  1  0.44180360  0.68688520  0.38237760  1.0
  Ni  Ni672  1  0.77513693  0.02021853  0.38237760  1.0
  Ni  Ni673  1  0.77513693  0.35355187  0.38237760  1.0
  Ni  Ni674  1  0.77513693  0.68688520  0.38237760  1.0
  Ni  Ni675  1  0.00847027  0.15355187  0.28237760  1.0
  Ni  Ni676  1  0.00847027  0.48688520  0.28237760  1.0
  Ni  Ni677  1  0.00847027  0.82021853  0.28237760  1.0
  Ni  Ni678  1  0.34180360  0.15355187  0.28237760  1.0
  Ni  Ni679  1  0.34180360  0.48688520  0.28237760  1.0
  Ni  Ni680  1  0.34180360  0.82021853  0.28237760  1.0
  Ni  Ni681  1  0.67513693  0.15355187  0.28237760  1.0
  Ni  Ni682  1  0.67513693  0.48688520  0.28237760  1.0
  Ni  Ni683  1  0.67513693  0.82021853  0.28237760  1.0
  Ni  Ni684  1  0.11803320  0.03934440  0.29631120  1.0
  Ni  Ni685  1  0.11803320  0.37267773  0.29631120  1.0
  Ni  Ni686  1  0.11803320  0.70601107  0.29631120  1.0
  Ni  Ni687  1  0.45136653  0.03934440  0.29631120  1.0
  Ni  Ni688  1  0.45136653  0.37267773  0.29631120  1.0
  Ni  Ni689  1  0.45136653  0.70601107  0.29631120  1.0
  Ni  Ni690  1  0.78469987  0.03934440  0.29631120  1.0
  Ni  Ni691  1  0.78469987  0.37267773  0.29631120  1.0
  Ni  Ni692  1  0.78469987  0.70601107  0.29631120  1.0
  Ni  Ni693  1  0.21803320  0.23934440  0.39631120  1.0
  Ni  Ni694  1  0.21803320  0.57267773  0.39631120  1.0
  Ni  Ni695  1  0.21803320  0.90601107  0.39631120  1.0
  Ni  Ni696  1  0.55136653  0.23934440  0.39631120  1.0
  Ni  Ni697  1  0.55136653  0.57267773  0.39631120  1.0
  Ni  Ni698  1  0.55136653  0.90601107  0.39631120  1.0
  Ni  Ni699  1  0.88469987  0.23934440  0.39631120  1.0
  Ni  Ni700  1  0.88469987  0.57267773  0.39631120  1.0
  Ni  Ni701  1  0.88469987  0.90601107  0.39631120  1.0
  Ni  Ni702  1  0.07978147  0.05847027  0.35368880  1.0
  Ni  Ni703  1  0.07978147  0.39180360  0.35368880  1.0
  Ni  Ni704  1  0.07978147  0.72513693  0.35368880  1.0
  Ni  Ni705  1  0.41311480  0.05847027  0.35368880  1.0
  Ni  Ni706  1  0.41311480  0.39180360  0.35368880  1.0
  Ni  Ni707  1  0.41311480  0.72513693  0.35368880  1.0
  Ni  Ni708  1  0.74644813  0.05847027  0.35368880  1.0
  Ni  Ni709  1  0.74644813  0.39180360  0.35368880  1.0
  Ni  Ni710  1  0.74644813  0.72513693  0.35368880  1.0
  Ni  Ni711  1  0.31311480  0.19180360  0.25368880  1.0
  Ni  Ni712  1  0.31311480  0.52513693  0.25368880  1.0
  Ni  Ni713  1  0.31311480  0.85847027  0.25368880  1.0
  Ni  Ni714  1  0.64644813  0.19180360  0.25368880  1.0
  Ni  Ni715  1  0.64644813  0.52513693  0.25368880  1.0
  Ni  Ni716  1  0.64644813  0.85847027  0.25368880  1.0
  Ni  Ni717  1  0.97978147  0.19180360  0.25368880  1.0
  Ni  Ni718  1  0.97978147  0.52513693  0.25368880  1.0
  Ni  Ni719  1  0.97978147  0.85847027  0.25368880  1.0
  Ni  Ni720  1  0.32732227  0.05355187  0.23237760  1.0
  Ni  Ni721  1  0.32732227  0.38688520  0.23237760  1.0
  Ni  Ni722  1  0.32732227  0.72021853  0.23237760  1.0
  Ni  Ni723  1  0.66065560  0.05355187  0.23237760  1.0
  Ni  Ni724  1  0.66065560  0.38688520  0.23237760  1.0
  Ni  Ni725  1  0.66065560  0.72021853  0.23237760  1.0
  Ni  Ni726  1  0.99398893  0.05355187  0.23237760  1.0
  Ni  Ni727  1  0.99398893  0.38688520  0.23237760  1.0
  Ni  Ni728  1  0.99398893  0.72021853  0.23237760  1.0
  Ni  Ni729  1  0.09398893  0.25355187  0.33237760  1.0
  Ni  Ni730  1  0.09398893  0.58688520  0.33237760  1.0
  Ni  Ni731  1  0.09398893  0.92021853  0.33237760  1.0
  Ni  Ni732  1  0.42732227  0.25355187  0.33237760  1.0
  Ni  Ni733  1  0.42732227  0.58688520  0.33237760  1.0
  Ni  Ni734  1  0.42732227  0.92021853  0.33237760  1.0
  Ni  Ni735  1  0.76065560  0.25355187  0.33237760  1.0
  Ni  Ni736  1  0.76065560  0.58688520  0.33237760  1.0
  Ni  Ni737  1  0.76065560  0.92021853  0.33237760  1.0
  Ni  Ni738  1  0.23224067  0.10109267  0.37500000  1.0
  Ni  Ni739  1  0.23224067  0.43442600  0.37500000  1.0
  Ni  Ni740  1  0.23224067  0.76775933  0.37500000  1.0
  Ni  Ni741  1  0.56557400  0.10109267  0.37500000  1.0
  Ni  Ni742  1  0.56557400  0.43442600  0.37500000  1.0
  Ni  Ni743  1  0.56557400  0.76775933  0.37500000  1.0
  Ni  Ni744  1  0.89890733  0.10109267  0.37500000  1.0
  Ni  Ni745  1  0.89890733  0.43442600  0.37500000  1.0
  Ni  Ni746  1  0.89890733  0.76775933  0.37500000  1.0
  Ni  Ni747  1  0.13224067  0.23442600  0.27500000  1.0
  Ni  Ni748  1  0.13224067  0.56775933  0.27500000  1.0
  Ni  Ni749  1  0.13224067  0.90109267  0.27500000  1.0
  Ni  Ni750  1  0.46557400  0.23442600  0.27500000  1.0
  Ni  Ni751  1  0.46557400  0.56775933  0.27500000  1.0
  Ni  Ni752  1  0.46557400  0.90109267  0.27500000  1.0
  Ni  Ni753  1  0.79890733  0.23442600  0.27500000  1.0
  Ni  Ni754  1  0.79890733  0.56775933  0.27500000  1.0
  Ni  Ni755  1  0.79890733  0.90109267  0.27500000  1.0
  Ni  Ni756  1  0.20355187  0.13934440  0.34631120  1.0
  Ni  Ni757  1  0.20355187  0.47267773  0.34631120  1.0
  Ni  Ni758  1  0.20355187  0.80601107  0.34631120  1.0
  Ni  Ni759  1  0.53688520  0.13934440  0.34631120  1.0
  Ni  Ni760  1  0.53688520  0.47267773  0.34631120  1.0
  Ni  Ni761  1  0.53688520  0.80601107  0.34631120  1.0
  Ni  Ni762  1  0.87021853  0.13934440  0.34631120  1.0
  Ni  Ni763  1  0.87021853  0.47267773  0.34631120  1.0
  Ni  Ni764  1  0.87021853  0.80601107  0.34631120  1.0
  Ni  Ni765  1  0.10355187  0.27267773  0.24631120  1.0
  Ni  Ni766  1  0.10355187  0.60601107  0.24631120  1.0
  Ni  Ni767  1  0.10355187  0.93934440  0.24631120  1.0
  Ni  Ni768  1  0.43688520  0.27267773  0.24631120  1.0
  Ni  Ni769  1  0.43688520  0.60601107  0.24631120  1.0
  Ni  Ni770  1  0.43688520  0.93934440  0.24631120  1.0
  Ni  Ni771  1  0.77021853  0.27267773  0.24631120  1.0
  Ni  Ni772  1  0.77021853  0.60601107  0.24631120  1.0
  Ni  Ni773  1  0.77021853  0.93934440  0.24631120  1.0
  Ni  Ni774  1  0.05109267  0.00109267  0.32500000  1.0
  Ni  Ni775  1  0.05109267  0.33442600  0.32500000  1.0
  Ni  Ni776  1  0.05109267  0.66775933  0.32500000  1.0
  Ni  Ni777  1  0.38442600  0.00109267  0.32500000  1.0
  Ni  Ni778  1  0.38442600  0.33442600  0.32500000  1.0
  Ni  Ni779  1  0.38442600  0.66775933  0.32500000  1.0
  Ni  Ni780  1  0.71775933  0.00109267  0.32500000  1.0
  Ni  Ni781  1  0.71775933  0.33442600  0.32500000  1.0
  Ni  Ni782  1  0.71775933  0.66775933  0.32500000  1.0
  Ni  Ni783  1  0.28442600  0.13442600  0.22500000  1.0
  Ni  Ni784  1  0.28442600  0.46775933  0.22500000  1.0
  Ni  Ni785  1  0.28442600  0.80109267  0.22500000  1.0
  Ni  Ni786  1  0.61775933  0.13442600  0.22500000  1.0
  Ni  Ni787  1  0.61775933  0.46775933  0.22500000  1.0
  Ni  Ni788  1  0.61775933  0.80109267  0.22500000  1.0
  Ni  Ni789  1  0.95109267  0.13442600  0.22500000  1.0
  Ni  Ni790  1  0.95109267  0.46775933  0.22500000  1.0
  Ni  Ni791  1  0.95109267  0.80109267  0.22500000  1.0
  Ni  Ni792  1  0.10601107  0.14644813  0.31434440  1.0
  Ni  Ni793  1  0.10601107  0.47978147  0.31434440  1.0
  Ni  Ni794  1  0.10601107  0.81311480  0.31434440  1.0
  Ni  Ni795  1  0.43934440  0.14644813  0.31434440  1.0
  Ni  Ni796  1  0.43934440  0.47978147  0.31434440  1.0
  Ni  Ni797  1  0.43934440  0.81311480  0.31434440  1.0
  Ni  Ni798  1  0.77267773  0.14644813  0.31434440  1.0
  Ni  Ni799  1  0.77267773  0.47978147  0.31434440  1.0
  Ni  Ni800  1  0.77267773  0.81311480  0.31434440  1.0
  Ni  Ni801  1  0.00601107  0.27978147  0.21434440  1.0
  Ni  Ni802  1  0.00601107  0.61311480  0.21434440  1.0
  Ni  Ni803  1  0.00601107  0.94644813  0.21434440  1.0
  Ni  Ni804  1  0.33934440  0.27978147  0.21434440  1.0
  Ni  Ni805  1  0.33934440  0.61311480  0.21434440  1.0
  Ni  Ni806  1  0.33934440  0.94644813  0.21434440  1.0
  Ni  Ni807  1  0.67267773  0.27978147  0.21434440  1.0
  Ni  Ni808  1  0.67267773  0.61311480  0.21434440  1.0
  Ni  Ni809  1  0.67267773  0.94644813  0.21434440  1.0
  Ni  Ni810  1  0.17267773  0.11311480  0.21434440  1.0
  Ni  Ni811  1  0.17267773  0.44644813  0.21434440  1.0
  Ni  Ni812  1  0.17267773  0.77978147  0.21434440  1.0
  Ni  Ni813  1  0.50601107  0.11311480  0.21434440  1.0
  Ni  Ni814  1  0.50601107  0.44644813  0.21434440  1.0
  Ni  Ni815  1  0.50601107  0.77978147  0.21434440  1.0
  Ni  Ni816  1  0.83934440  0.11311480  0.21434440  1.0
  Ni  Ni817  1  0.83934440  0.44644813  0.21434440  1.0
  Ni  Ni818  1  0.83934440  0.77978147  0.21434440  1.0
  Ni  Ni819  1  0.27267773  0.31311480  0.31434440  1.0
  Ni  Ni820  1  0.27267773  0.64644813  0.31434440  1.0
  Ni  Ni821  1  0.27267773  0.97978147  0.31434440  1.0
  Ni  Ni822  1  0.60601107  0.31311480  0.31434440  1.0
  Ni  Ni823  1  0.60601107  0.64644813  0.31434440  1.0
  Ni  Ni824  1  0.60601107  0.97978147  0.31434440  1.0
  Ni  Ni825  1  0.93934440  0.31311480  0.31434440  1.0
  Ni  Ni826  1  0.93934440  0.64644813  0.31434440  1.0
  Ni  Ni827  1  0.93934440  0.97978147  0.31434440  1.0
  Ni  Ni828  1  0.32267773  0.24644813  0.36434440  1.0
  Ni  Ni829  1  0.32267773  0.57978147  0.36434440  1.0
  Ni  Ni830  1  0.32267773  0.91311480  0.36434440  1.0
  Ni  Ni831  1  0.65601107  0.24644813  0.36434440  1.0
  Ni  Ni832  1  0.65601107  0.57978147  0.36434440  1.0
  Ni  Ni833  1  0.65601107  0.91311480  0.36434440  1.0
  Ni  Ni834  1  0.98934440  0.24644813  0.36434440  1.0
  Ni  Ni835  1  0.98934440  0.57978147  0.36434440  1.0
  Ni  Ni836  1  0.98934440  0.91311480  0.36434440  1.0
  Ni  Ni837  1  0.22267773  0.04644813  0.26434440  1.0
  Ni  Ni838  1  0.22267773  0.37978147  0.26434440  1.0
  Ni  Ni839  1  0.22267773  0.71311480  0.26434440  1.0
  Ni  Ni840  1  0.55601107  0.04644813  0.26434440  1.0
  Ni  Ni841  1  0.55601107  0.37978147  0.26434440  1.0
  Ni  Ni842  1  0.55601107  0.71311480  0.26434440  1.0
  Ni  Ni843  1  0.88934440  0.04644813  0.26434440  1.0
  Ni  Ni844  1  0.88934440  0.37978147  0.26434440  1.0
  Ni  Ni845  1  0.88934440  0.71311480  0.26434440  1.0
  Ni  Ni846  1  0.22267773  0.21311480  0.26434440  1.0
  Ni  Ni847  1  0.22267773  0.54644813  0.26434440  1.0
  Ni  Ni848  1  0.22267773  0.87978147  0.26434440  1.0
  Ni  Ni849  1  0.55601107  0.21311480  0.26434440  1.0
  Ni  Ni850  1  0.55601107  0.54644813  0.26434440  1.0
  Ni  Ni851  1  0.55601107  0.87978147  0.26434440  1.0
  Ni  Ni852  1  0.88934440  0.21311480  0.26434440  1.0
  Ni  Ni853  1  0.88934440  0.54644813  0.26434440  1.0
  Ni  Ni854  1  0.88934440  0.87978147  0.26434440  1.0
  Ni  Ni855  1  0.32267773  0.07978147  0.36434440  1.0
  Ni  Ni856  1  0.32267773  0.41311480  0.36434440  1.0
  Ni  Ni857  1  0.32267773  0.74644813  0.36434440  1.0
  Ni  Ni858  1  0.65601107  0.07978147  0.36434440  1.0
  Ni  Ni859  1  0.65601107  0.41311480  0.36434440  1.0
  Ni  Ni860  1  0.65601107  0.74644813  0.36434440  1.0
  Ni  Ni861  1  0.98934440  0.07978147  0.36434440  1.0
  Ni  Ni862  1  0.98934440  0.41311480  0.36434440  1.0
  Ni  Ni863  1  0.98934440  0.74644813  0.36434440  1.0
