# generated using pymatgen
data_CdNi
_symmetry_space_group_name_H-M   'P 1'
_cell_length_a   34.35158401
_cell_length_b   42.07192634
_cell_length_c   25.60415900
_cell_angle_alpha   90.00000000
_cell_angle_beta   90.00000000
_cell_angle_gamma   114.09484255
_symmetry_Int_Tables_number   1
_chemical_formula_structural   CdNi
_chemical_formula_sum   'Cd432 Ni432'
_cell_volume   33779.95430904
_cell_formula_units_Z   432
loop_
 _symmetry_equiv_pos_site_id
 _symmetry_equiv_pos_as_xyz
  1  'x, y, z'
loop_
 _atom_site_type_symbol
 _atom_site_label
 _atom_site_symmetry_multiplicity
 _atom_site_fract_x
 _atom_site_fract_y
 _atom_site_fract_z
 _atom_site_occupancy
  Cd  Cd0  1  0.17330783  0.02436383  0.07309150  1.0
  Cd  Cd1  1  0.17330783  0.35769717  0.07309150  1.0
  Cd  Cd2  1  0.17330783  0.69103050  0.07309150  1.0
  Cd  Cd3  1  0.50664117  0.02436383  0.07309150  1.0
  Cd  Cd4  1  0.50664117  0.35769717  0.07309150  1.0
  Cd  Cd5  1  0.50664117  0.69103050  0.07309150  1.0
  Cd  Cd6  1  0.83997450  0.02436383  0.07309150  1.0
  Cd  Cd7  1  0.83997450  0.35769717  0.07309150  1.0
  Cd  Cd8  1  0.83997450  0.69103050  0.07309150  1.0
  Cd  Cd9  1  0.27330783  0.22436383  0.17309150  1.0
  Cd  Cd10  1  0.27330783  0.55769717  0.17309150  1.0
  Cd  Cd11  1  0.27330783  0.89103050  0.17309150  1.0
  Cd  Cd12  1  0.60664117  0.22436383  0.17309150  1.0
  Cd  Cd13  1  0.60664117  0.55769717  0.17309150  1.0
  Cd  Cd14  1  0.60664117  0.89103050  0.17309150  1.0
  Cd  Cd15  1  0.93997450  0.22436383  0.17309150  1.0
  Cd  Cd16  1  0.93997450  0.55769717  0.17309150  1.0
  Cd  Cd17  1  0.93997450  0.89103050  0.17309150  1.0
  Cd  Cd18  1  0.01339437  0.03787023  0.11361070  1.0
  Cd  Cd19  1  0.01339437  0.37120357  0.11361070  1.0
  Cd  Cd20  1  0.01339437  0.70453690  0.11361070  1.0
  Cd  Cd21  1  0.34672770  0.03787023  0.11361070  1.0
  Cd  Cd22  1  0.34672770  0.37120357  0.11361070  1.0
  Cd  Cd23  1  0.34672770  0.70453690  0.11361070  1.0
  Cd  Cd24  1  0.68006103  0.03787023  0.11361070  1.0
  Cd  Cd25  1  0.68006103  0.37120357  0.11361070  1.0
  Cd  Cd26  1  0.68006103  0.70453690  0.11361070  1.0
  Cd  Cd27  1  0.24672770  0.17120357  0.01361070  1.0
  Cd  Cd28  1  0.24672770  0.50453690  0.01361070  1.0
  Cd  Cd29  1  0.24672770  0.83787023  0.01361070  1.0
  Cd  Cd30  1  0.58006103  0.17120357  0.01361070  1.0
  Cd  Cd31  1  0.58006103  0.50453690  0.01361070  1.0
  Cd  Cd32  1  0.58006103  0.83787023  0.01361070  1.0
  Cd  Cd33  1  0.91339437  0.17120357  0.01361070  1.0
  Cd  Cd34  1  0.91339437  0.50453690  0.01361070  1.0
  Cd  Cd35  1  0.91339437  0.83787023  0.01361070  1.0
  Cd  Cd36  1  0.09313477  0.06445037  0.19335110  1.0
  Cd  Cd37  1  0.09313477  0.39778370  0.19335110  1.0
  Cd  Cd38  1  0.09313477  0.73111703  0.19335110  1.0
  Cd  Cd39  1  0.42646810  0.06445037  0.19335110  1.0
  Cd  Cd40  1  0.42646810  0.39778370  0.19335110  1.0
  Cd  Cd41  1  0.42646810  0.73111703  0.19335110  1.0
  Cd  Cd42  1  0.75980143  0.06445037  0.19335110  1.0
  Cd  Cd43  1  0.75980143  0.39778370  0.19335110  1.0
  Cd  Cd44  1  0.75980143  0.73111703  0.19335110  1.0
  Cd  Cd45  1  0.32646810  0.19778370  0.09335110  1.0
  Cd  Cd46  1  0.32646810  0.53111703  0.09335110  1.0
  Cd  Cd47  1  0.32646810  0.86445037  0.09335110  1.0
  Cd  Cd48  1  0.65980143  0.19778370  0.09335110  1.0
  Cd  Cd49  1  0.65980143  0.53111703  0.09335110  1.0
  Cd  Cd50  1  0.65980143  0.86445037  0.09335110  1.0
  Cd  Cd51  1  0.99313477  0.19778370  0.09335110  1.0
  Cd  Cd52  1  0.99313477  0.53111703  0.09335110  1.0
  Cd  Cd53  1  0.99313477  0.86445037  0.09335110  1.0
  Cd  Cd54  1  0.29356743  0.06445037  0.19335110  1.0
  Cd  Cd55  1  0.29356743  0.39778370  0.19335110  1.0
  Cd  Cd56  1  0.29356743  0.73111703  0.19335110  1.0
  Cd  Cd57  1  0.62690077  0.06445037  0.19335110  1.0
  Cd  Cd58  1  0.62690077  0.39778370  0.19335110  1.0
  Cd  Cd59  1  0.62690077  0.73111703  0.19335110  1.0
  Cd  Cd60  1  0.96023410  0.06445037  0.19335110  1.0
  Cd  Cd61  1  0.96023410  0.39778370  0.19335110  1.0
  Cd  Cd62  1  0.96023410  0.73111703  0.19335110  1.0
  Cd  Cd63  1  0.19356743  0.19778370  0.09335110  1.0
  Cd  Cd64  1  0.19356743  0.53111703  0.09335110  1.0
  Cd  Cd65  1  0.19356743  0.86445037  0.09335110  1.0
  Cd  Cd66  1  0.52690077  0.19778370  0.09335110  1.0
  Cd  Cd67  1  0.52690077  0.53111703  0.09335110  1.0
  Cd  Cd68  1  0.52690077  0.86445037  0.09335110  1.0
  Cd  Cd69  1  0.86023410  0.19778370  0.09335110  1.0
  Cd  Cd70  1  0.86023410  0.53111703  0.09335110  1.0
  Cd  Cd71  1  0.86023410  0.86445037  0.09335110  1.0
  Cd  Cd72  1  0.05326457  0.11761063  0.15348090  1.0
  Cd  Cd73  1  0.05326457  0.45094397  0.15348090  1.0
  Cd  Cd74  1  0.05326457  0.78427730  0.15348090  1.0
  Cd  Cd75  1  0.38659790  0.11761063  0.15348090  1.0
  Cd  Cd76  1  0.38659790  0.45094397  0.15348090  1.0
  Cd  Cd77  1  0.38659790  0.78427730  0.15348090  1.0
  Cd  Cd78  1  0.71993123  0.11761063  0.15348090  1.0
  Cd  Cd79  1  0.71993123  0.45094397  0.15348090  1.0
  Cd  Cd80  1  0.71993123  0.78427730  0.15348090  1.0
  Cd  Cd81  1  0.28659790  0.25094397  0.05348090  1.0
  Cd  Cd82  1  0.28659790  0.58427730  0.05348090  1.0
  Cd  Cd83  1  0.28659790  0.91761063  0.05348090  1.0
  Cd  Cd84  1  0.61993123  0.25094397  0.05348090  1.0
  Cd  Cd85  1  0.61993123  0.58427730  0.05348090  1.0
  Cd  Cd86  1  0.61993123  0.91761063  0.05348090  1.0
  Cd  Cd87  1  0.95326457  0.25094397  0.05348090  1.0
  Cd  Cd88  1  0.95326457  0.58427730  0.05348090  1.0
  Cd  Cd89  1  0.95326457  0.91761063  0.05348090  1.0
  Cd  Cd90  1  0.13343763  0.27795677  0.03322130  1.0
  Cd  Cd91  1  0.13343763  0.61129010  0.03322130  1.0
  Cd  Cd92  1  0.13343763  0.94462343  0.03322130  1.0
  Cd  Cd93  1  0.46677097  0.27795677  0.03322130  1.0
  Cd  Cd94  1  0.46677097  0.61129010  0.03322130  1.0
  Cd  Cd95  1  0.46677097  0.94462343  0.03322130  1.0
  Cd  Cd96  1  0.80010430  0.27795677  0.03322130  1.0
  Cd  Cd97  1  0.80010430  0.61129010  0.03322130  1.0
  Cd  Cd98  1  0.80010430  0.94462343  0.03322130  1.0
  Cd  Cd99  1  0.23343763  0.14462343  0.13322130  1.0
  Cd  Cd100  1  0.23343763  0.47795677  0.13322130  1.0
  Cd  Cd101  1  0.23343763  0.81129010  0.13322130  1.0
  Cd  Cd102  1  0.56677097  0.14462343  0.13322130  1.0
  Cd  Cd103  1  0.56677097  0.47795677  0.13322130  1.0
  Cd  Cd104  1  0.56677097  0.81129010  0.13322130  1.0
  Cd  Cd105  1  0.90010430  0.14462343  0.13322130  1.0
  Cd  Cd106  1  0.90010430  0.47795677  0.13322130  1.0
  Cd  Cd107  1  0.90010430  0.81129010  0.13322130  1.0
  Cd  Cd108  1  0.21339437  0.27120357  0.06361070  1.0
  Cd  Cd109  1  0.21339437  0.60453690  0.06361070  1.0
  Cd  Cd110  1  0.21339437  0.93787023  0.06361070  1.0
  Cd  Cd111  1  0.54672770  0.27120357  0.06361070  1.0
  Cd  Cd112  1  0.54672770  0.60453690  0.06361070  1.0
  Cd  Cd113  1  0.54672770  0.93787023  0.06361070  1.0
  Cd  Cd114  1  0.88006103  0.27120357  0.06361070  1.0
  Cd  Cd115  1  0.88006103  0.60453690  0.06361070  1.0
  Cd  Cd116  1  0.88006103  0.93787023  0.06361070  1.0
  Cd  Cd117  1  0.31339437  0.13787023  0.16361070  1.0
  Cd  Cd118  1  0.31339437  0.47120357  0.16361070  1.0
  Cd  Cd119  1  0.31339437  0.80453690  0.16361070  1.0
  Cd  Cd120  1  0.64672770  0.13787023  0.16361070  1.0
  Cd  Cd121  1  0.64672770  0.47120357  0.16361070  1.0
  Cd  Cd122  1  0.64672770  0.80453690  0.16361070  1.0
  Cd  Cd123  1  0.98006103  0.13787023  0.16361070  1.0
  Cd  Cd124  1  0.98006103  0.47120357  0.16361070  1.0
  Cd  Cd125  1  0.98006103  0.80453690  0.16361070  1.0
  Cd  Cd126  1  0.03997450  0.25769717  0.02309150  1.0
  Cd  Cd127  1  0.03997450  0.59103050  0.02309150  1.0
  Cd  Cd128  1  0.03997450  0.92436383  0.02309150  1.0
  Cd  Cd129  1  0.37330783  0.25769717  0.02309150  1.0
  Cd  Cd130  1  0.37330783  0.59103050  0.02309150  1.0
  Cd  Cd131  1  0.37330783  0.92436383  0.02309150  1.0
  Cd  Cd132  1  0.70664117  0.25769717  0.02309150  1.0
  Cd  Cd133  1  0.70664117  0.59103050  0.02309150  1.0
  Cd  Cd134  1  0.70664117  0.92436383  0.02309150  1.0
  Cd  Cd135  1  0.13997450  0.12436383  0.12309150  1.0
  Cd  Cd136  1  0.13997450  0.45769717  0.12309150  1.0
  Cd  Cd137  1  0.13997450  0.79103050  0.12309150  1.0
  Cd  Cd138  1  0.47330783  0.12436383  0.12309150  1.0
  Cd  Cd139  1  0.47330783  0.45769717  0.12309150  1.0
  Cd  Cd140  1  0.47330783  0.79103050  0.12309150  1.0
  Cd  Cd141  1  0.80664117  0.12436383  0.12309150  1.0
  Cd  Cd142  1  0.80664117  0.45769717  0.12309150  1.0
  Cd  Cd143  1  0.80664117  0.79103050  0.12309150  1.0
  Cd  Cd144  1  0.16023410  0.29778370  0.14335110  1.0
  Cd  Cd145  1  0.16023410  0.63111703  0.14335110  1.0
  Cd  Cd146  1  0.16023410  0.96445037  0.14335110  1.0
  Cd  Cd147  1  0.49356743  0.29778370  0.14335110  1.0
  Cd  Cd148  1  0.49356743  0.63111703  0.14335110  1.0
  Cd  Cd149  1  0.49356743  0.96445037  0.14335110  1.0
  Cd  Cd150  1  0.82690077  0.29778370  0.14335110  1.0
  Cd  Cd151  1  0.82690077  0.63111703  0.14335110  1.0
  Cd  Cd152  1  0.82690077  0.96445037  0.14335110  1.0
  Cd  Cd153  1  0.06023410  0.09778370  0.04335110  1.0
  Cd  Cd154  1  0.06023410  0.43111703  0.04335110  1.0
  Cd  Cd155  1  0.06023410  0.76445037  0.04335110  1.0
  Cd  Cd156  1  0.39356743  0.09778370  0.04335110  1.0
  Cd  Cd157  1  0.39356743  0.43111703  0.04335110  1.0
  Cd  Cd158  1  0.39356743  0.76445037  0.04335110  1.0
  Cd  Cd159  1  0.72690077  0.09778370  0.04335110  1.0
  Cd  Cd160  1  0.72690077  0.43111703  0.04335110  1.0
  Cd  Cd161  1  0.72690077  0.76445037  0.04335110  1.0
  Cd  Cd162  1  0.29313477  0.29778370  0.14335110  1.0
  Cd  Cd163  1  0.29313477  0.63111703  0.14335110  1.0
  Cd  Cd164  1  0.29313477  0.96445037  0.14335110  1.0
  Cd  Cd165  1  0.62646810  0.29778370  0.14335110  1.0
  Cd  Cd166  1  0.62646810  0.63111703  0.14335110  1.0
  Cd  Cd167  1  0.62646810  0.96445037  0.14335110  1.0
  Cd  Cd168  1  0.95980143  0.29778370  0.14335110  1.0
  Cd  Cd169  1  0.95980143  0.63111703  0.14335110  1.0
  Cd  Cd170  1  0.95980143  0.96445037  0.14335110  1.0
  Cd  Cd171  1  0.19313477  0.09778370  0.04335110  1.0
  Cd  Cd172  1  0.19313477  0.43111703  0.04335110  1.0
  Cd  Cd173  1  0.19313477  0.76445037  0.04335110  1.0
  Cd  Cd174  1  0.52646810  0.09778370  0.04335110  1.0
  Cd  Cd175  1  0.52646810  0.43111703  0.04335110  1.0
  Cd  Cd176  1  0.52646810  0.76445037  0.04335110  1.0
  Cd  Cd177  1  0.85980143  0.09778370  0.04335110  1.0
  Cd  Cd178  1  0.85980143  0.43111703  0.04335110  1.0
  Cd  Cd179  1  0.85980143  0.76445037  0.04335110  1.0
  Cd  Cd180  1  0.20010430  0.24462343  0.18322130  1.0
  Cd  Cd181  1  0.20010430  0.57795677  0.18322130  1.0
  Cd  Cd182  1  0.20010430  0.91129010  0.18322130  1.0
  Cd  Cd183  1  0.53343763  0.24462343  0.18322130  1.0
  Cd  Cd184  1  0.53343763  0.57795677  0.18322130  1.0
  Cd  Cd185  1  0.53343763  0.91129010  0.18322130  1.0
  Cd  Cd186  1  0.86677097  0.24462343  0.18322130  1.0
  Cd  Cd187  1  0.86677097  0.57795677  0.18322130  1.0
  Cd  Cd188  1  0.86677097  0.91129010  0.18322130  1.0
  Cd  Cd189  1  0.10010430  0.04462343  0.08322130  1.0
  Cd  Cd190  1  0.10010430  0.37795677  0.08322130  1.0
  Cd  Cd191  1  0.10010430  0.71129010  0.08322130  1.0
  Cd  Cd192  1  0.43343763  0.04462343  0.08322130  1.0
  Cd  Cd193  1  0.43343763  0.37795677  0.08322130  1.0
  Cd  Cd194  1  0.43343763  0.71129010  0.08322130  1.0
  Cd  Cd195  1  0.76677097  0.04462343  0.08322130  1.0
  Cd  Cd196  1  0.76677097  0.37795677  0.08322130  1.0
  Cd  Cd197  1  0.76677097  0.71129010  0.08322130  1.0
  Cd  Cd198  1  0.25326457  0.01761063  0.10348090  1.0
  Cd  Cd199  1  0.25326457  0.35094397  0.10348090  1.0
  Cd  Cd200  1  0.25326457  0.68427730  0.10348090  1.0
  Cd  Cd201  1  0.58659790  0.01761063  0.10348090  1.0
  Cd  Cd202  1  0.58659790  0.35094397  0.10348090  1.0
  Cd  Cd203  1  0.58659790  0.68427730  0.10348090  1.0
  Cd  Cd204  1  0.91993123  0.01761063  0.10348090  1.0
  Cd  Cd205  1  0.91993123  0.35094397  0.10348090  1.0
  Cd  Cd206  1  0.91993123  0.68427730  0.10348090  1.0
  Cd  Cd207  1  0.15326457  0.15094397  0.00348090  1.0
  Cd  Cd208  1  0.15326457  0.48427730  0.00348090  1.0
  Cd  Cd209  1  0.15326457  0.81761063  0.00348090  1.0
  Cd  Cd210  1  0.48659790  0.15094397  0.00348090  1.0
  Cd  Cd211  1  0.48659790  0.48427730  0.00348090  1.0
  Cd  Cd212  1  0.48659790  0.81761063  0.00348090  1.0
  Cd  Cd213  1  0.81993123  0.15094397  0.00348090  1.0
  Cd  Cd214  1  0.81993123  0.48427730  0.00348090  1.0
  Cd  Cd215  1  0.81993123  0.81761063  0.00348090  1.0
  Cd  Cd216  1  0.03997450  0.09103050  0.27309150  1.0
  Cd  Cd217  1  0.03997450  0.42436383  0.27309150  1.0
  Cd  Cd218  1  0.03997450  0.75769717  0.27309150  1.0
  Cd  Cd219  1  0.37330783  0.09103050  0.27309150  1.0
  Cd  Cd220  1  0.37330783  0.42436383  0.27309150  1.0
  Cd  Cd221  1  0.37330783  0.75769717  0.27309150  1.0
  Cd  Cd222  1  0.70664117  0.09103050  0.27309150  1.0
  Cd  Cd223  1  0.70664117  0.42436383  0.27309150  1.0
  Cd  Cd224  1  0.70664117  0.75769717  0.27309150  1.0
  Cd  Cd225  1  0.13997450  0.29103050  0.37309150  1.0
  Cd  Cd226  1  0.13997450  0.62436383  0.37309150  1.0
  Cd  Cd227  1  0.13997450  0.95769717  0.37309150  1.0
  Cd  Cd228  1  0.47330783  0.29103050  0.37309150  1.0
  Cd  Cd229  1  0.47330783  0.62436383  0.37309150  1.0
  Cd  Cd230  1  0.47330783  0.95769717  0.37309150  1.0
  Cd  Cd231  1  0.80664117  0.29103050  0.37309150  1.0
  Cd  Cd232  1  0.80664117  0.62436383  0.37309150  1.0
  Cd  Cd233  1  0.80664117  0.95769717  0.37309150  1.0
  Cd  Cd234  1  0.21339437  0.10453690  0.31361070  1.0
  Cd  Cd235  1  0.21339437  0.43787023  0.31361070  1.0
  Cd  Cd236  1  0.21339437  0.77120357  0.31361070  1.0
  Cd  Cd237  1  0.54672770  0.10453690  0.31361070  1.0
  Cd  Cd238  1  0.54672770  0.43787023  0.31361070  1.0
  Cd  Cd239  1  0.54672770  0.77120357  0.31361070  1.0
  Cd  Cd240  1  0.88006103  0.10453690  0.31361070  1.0
  Cd  Cd241  1  0.88006103  0.43787023  0.31361070  1.0
  Cd  Cd242  1  0.88006103  0.77120357  0.31361070  1.0
  Cd  Cd243  1  0.11339437  0.23787023  0.21361070  1.0
  Cd  Cd244  1  0.11339437  0.57120357  0.21361070  1.0
  Cd  Cd245  1  0.11339437  0.90453690  0.21361070  1.0
  Cd  Cd246  1  0.44672770  0.23787023  0.21361070  1.0
  Cd  Cd247  1  0.44672770  0.57120357  0.21361070  1.0
  Cd  Cd248  1  0.44672770  0.90453690  0.21361070  1.0
  Cd  Cd249  1  0.78006103  0.23787023  0.21361070  1.0
  Cd  Cd250  1  0.78006103  0.57120357  0.21361070  1.0
  Cd  Cd251  1  0.78006103  0.90453690  0.21361070  1.0
  Cd  Cd252  1  0.29313477  0.13111703  0.39335110  1.0
  Cd  Cd253  1  0.29313477  0.46445037  0.39335110  1.0
  Cd  Cd254  1  0.29313477  0.79778370  0.39335110  1.0
  Cd  Cd255  1  0.62646810  0.13111703  0.39335110  1.0
  Cd  Cd256  1  0.62646810  0.46445037  0.39335110  1.0
  Cd  Cd257  1  0.62646810  0.79778370  0.39335110  1.0
  Cd  Cd258  1  0.95980143  0.13111703  0.39335110  1.0
  Cd  Cd259  1  0.95980143  0.46445037  0.39335110  1.0
  Cd  Cd260  1  0.95980143  0.79778370  0.39335110  1.0
  Cd  Cd261  1  0.19313477  0.26445037  0.29335110  1.0
  Cd  Cd262  1  0.19313477  0.59778370  0.29335110  1.0
  Cd  Cd263  1  0.19313477  0.93111703  0.29335110  1.0
  Cd  Cd264  1  0.52646810  0.26445037  0.29335110  1.0
  Cd  Cd265  1  0.52646810  0.59778370  0.29335110  1.0
  Cd  Cd266  1  0.52646810  0.93111703  0.29335110  1.0
  Cd  Cd267  1  0.85980143  0.26445037  0.29335110  1.0
  Cd  Cd268  1  0.85980143  0.59778370  0.29335110  1.0
  Cd  Cd269  1  0.85980143  0.93111703  0.29335110  1.0
  Cd  Cd270  1  0.16023410  0.13111703  0.39335110  1.0
  Cd  Cd271  1  0.16023410  0.46445037  0.39335110  1.0
  Cd  Cd272  1  0.16023410  0.79778370  0.39335110  1.0
  Cd  Cd273  1  0.49356743  0.13111703  0.39335110  1.0
  Cd  Cd274  1  0.49356743  0.46445037  0.39335110  1.0
  Cd  Cd275  1  0.49356743  0.79778370  0.39335110  1.0
  Cd  Cd276  1  0.82690077  0.13111703  0.39335110  1.0
  Cd  Cd277  1  0.82690077  0.46445037  0.39335110  1.0
  Cd  Cd278  1  0.82690077  0.79778370  0.39335110  1.0
  Cd  Cd279  1  0.06023410  0.26445037  0.29335110  1.0
  Cd  Cd280  1  0.06023410  0.59778370  0.29335110  1.0
  Cd  Cd281  1  0.06023410  0.93111703  0.29335110  1.0
  Cd  Cd282  1  0.39356743  0.26445037  0.29335110  1.0
  Cd  Cd283  1  0.39356743  0.59778370  0.29335110  1.0
  Cd  Cd284  1  0.39356743  0.93111703  0.29335110  1.0
  Cd  Cd285  1  0.72690077  0.26445037  0.29335110  1.0
  Cd  Cd286  1  0.72690077  0.59778370  0.29335110  1.0
  Cd  Cd287  1  0.72690077  0.93111703  0.29335110  1.0
  Cd  Cd288  1  0.25326457  0.18427730  0.35348090  1.0
  Cd  Cd289  1  0.25326457  0.51761063  0.35348090  1.0
  Cd  Cd290  1  0.25326457  0.85094397  0.35348090  1.0
  Cd  Cd291  1  0.58659790  0.18427730  0.35348090  1.0
  Cd  Cd292  1  0.58659790  0.51761063  0.35348090  1.0
  Cd  Cd293  1  0.58659790  0.85094397  0.35348090  1.0
  Cd  Cd294  1  0.91993123  0.18427730  0.35348090  1.0
  Cd  Cd295  1  0.91993123  0.51761063  0.35348090  1.0
  Cd  Cd296  1  0.91993123  0.85094397  0.35348090  1.0
  Cd  Cd297  1  0.15326457  0.31761063  0.25348090  1.0
  Cd  Cd298  1  0.15326457  0.65094397  0.25348090  1.0
  Cd  Cd299  1  0.15326457  0.98427730  0.25348090  1.0
  Cd  Cd300  1  0.48659790  0.31761063  0.25348090  1.0
  Cd  Cd301  1  0.48659790  0.65094397  0.25348090  1.0
  Cd  Cd302  1  0.48659790  0.98427730  0.25348090  1.0
  Cd  Cd303  1  0.81993123  0.31761063  0.25348090  1.0
  Cd  Cd304  1  0.81993123  0.65094397  0.25348090  1.0
  Cd  Cd305  1  0.81993123  0.98427730  0.25348090  1.0
  Cd  Cd306  1  0.00010430  0.01129010  0.23322130  1.0
  Cd  Cd307  1  0.00010430  0.34462343  0.23322130  1.0
  Cd  Cd308  1  0.00010430  0.67795677  0.23322130  1.0
  Cd  Cd309  1  0.33343763  0.01129010  0.23322130  1.0
  Cd  Cd310  1  0.33343763  0.34462343  0.23322130  1.0
  Cd  Cd311  1  0.33343763  0.67795677  0.23322130  1.0
  Cd  Cd312  1  0.66677097  0.01129010  0.23322130  1.0
  Cd  Cd313  1  0.66677097  0.34462343  0.23322130  1.0
  Cd  Cd314  1  0.66677097  0.67795677  0.23322130  1.0
  Cd  Cd315  1  0.10010430  0.21129010  0.33322130  1.0
  Cd  Cd316  1  0.10010430  0.54462343  0.33322130  1.0
  Cd  Cd317  1  0.10010430  0.87795677  0.33322130  1.0
  Cd  Cd318  1  0.43343763  0.21129010  0.33322130  1.0
  Cd  Cd319  1  0.43343763  0.54462343  0.33322130  1.0
  Cd  Cd320  1  0.43343763  0.87795677  0.33322130  1.0
  Cd  Cd321  1  0.76677097  0.21129010  0.33322130  1.0
  Cd  Cd322  1  0.76677097  0.54462343  0.33322130  1.0
  Cd  Cd323  1  0.76677097  0.87795677  0.33322130  1.0
  Cd  Cd324  1  0.08006103  0.00453690  0.26361070  1.0
  Cd  Cd325  1  0.08006103  0.33787023  0.26361070  1.0
  Cd  Cd326  1  0.08006103  0.67120357  0.26361070  1.0
  Cd  Cd327  1  0.41339437  0.00453690  0.26361070  1.0
  Cd  Cd328  1  0.41339437  0.33787023  0.26361070  1.0
  Cd  Cd329  1  0.41339437  0.67120357  0.26361070  1.0
  Cd  Cd330  1  0.74672770  0.00453690  0.26361070  1.0
  Cd  Cd331  1  0.74672770  0.33787023  0.26361070  1.0
  Cd  Cd332  1  0.74672770  0.67120357  0.26361070  1.0
  Cd  Cd333  1  0.18006103  0.20453690  0.36361070  1.0
  Cd  Cd334  1  0.18006103  0.53787023  0.36361070  1.0
  Cd  Cd335  1  0.18006103  0.87120357  0.36361070  1.0
  Cd  Cd336  1  0.51339437  0.20453690  0.36361070  1.0
  Cd  Cd337  1  0.51339437  0.53787023  0.36361070  1.0
  Cd  Cd338  1  0.51339437  0.87120357  0.36361070  1.0
  Cd  Cd339  1  0.84672770  0.20453690  0.36361070  1.0
  Cd  Cd340  1  0.84672770  0.53787023  0.36361070  1.0
  Cd  Cd341  1  0.84672770  0.87120357  0.36361070  1.0
  Cd  Cd342  1  0.23997450  0.32436383  0.22309150  1.0
  Cd  Cd343  1  0.23997450  0.65769717  0.22309150  1.0
  Cd  Cd344  1  0.23997450  0.99103050  0.22309150  1.0
  Cd  Cd345  1  0.57330783  0.32436383  0.22309150  1.0
  Cd  Cd346  1  0.57330783  0.65769717  0.22309150  1.0
  Cd  Cd347  1  0.57330783  0.99103050  0.22309150  1.0
  Cd  Cd348  1  0.90664117  0.32436383  0.22309150  1.0
  Cd  Cd349  1  0.90664117  0.65769717  0.22309150  1.0
  Cd  Cd350  1  0.90664117  0.99103050  0.22309150  1.0
  Cd  Cd351  1  0.00664117  0.19103050  0.32309150  1.0
  Cd  Cd352  1  0.00664117  0.52436383  0.32309150  1.0
  Cd  Cd353  1  0.00664117  0.85769717  0.32309150  1.0
  Cd  Cd354  1  0.33997450  0.19103050  0.32309150  1.0
  Cd  Cd355  1  0.33997450  0.52436383  0.32309150  1.0
  Cd  Cd356  1  0.33997450  0.85769717  0.32309150  1.0
  Cd  Cd357  1  0.67330783  0.19103050  0.32309150  1.0
  Cd  Cd358  1  0.67330783  0.52436383  0.32309150  1.0
  Cd  Cd359  1  0.67330783  0.85769717  0.32309150  1.0
  Cd  Cd360  1  0.02690077  0.03111703  0.34335110  1.0
  Cd  Cd361  1  0.02690077  0.36445037  0.34335110  1.0
  Cd  Cd362  1  0.02690077  0.69778370  0.34335110  1.0
  Cd  Cd363  1  0.36023410  0.03111703  0.34335110  1.0
  Cd  Cd364  1  0.36023410  0.36445037  0.34335110  1.0
  Cd  Cd365  1  0.36023410  0.69778370  0.34335110  1.0
  Cd  Cd366  1  0.69356743  0.03111703  0.34335110  1.0
  Cd  Cd367  1  0.69356743  0.36445037  0.34335110  1.0
  Cd  Cd368  1  0.69356743  0.69778370  0.34335110  1.0
  Cd  Cd369  1  0.26023410  0.16445037  0.24335110  1.0
  Cd  Cd370  1  0.26023410  0.49778370  0.24335110  1.0
  Cd  Cd371  1  0.26023410  0.83111703  0.24335110  1.0
  Cd  Cd372  1  0.59356743  0.16445037  0.24335110  1.0
  Cd  Cd373  1  0.59356743  0.49778370  0.24335110  1.0
  Cd  Cd374  1  0.59356743  0.83111703  0.24335110  1.0
  Cd  Cd375  1  0.92690077  0.16445037  0.24335110  1.0
  Cd  Cd376  1  0.92690077  0.49778370  0.24335110  1.0
  Cd  Cd377  1  0.92690077  0.83111703  0.24335110  1.0
  Cd  Cd378  1  0.15980143  0.03111703  0.34335110  1.0
  Cd  Cd379  1  0.15980143  0.36445037  0.34335110  1.0
  Cd  Cd380  1  0.15980143  0.69778370  0.34335110  1.0
  Cd  Cd381  1  0.49313477  0.03111703  0.34335110  1.0
  Cd  Cd382  1  0.49313477  0.36445037  0.34335110  1.0
  Cd  Cd383  1  0.49313477  0.69778370  0.34335110  1.0
  Cd  Cd384  1  0.82646810  0.03111703  0.34335110  1.0
  Cd  Cd385  1  0.82646810  0.36445037  0.34335110  1.0
  Cd  Cd386  1  0.82646810  0.69778370  0.34335110  1.0
  Cd  Cd387  1  0.05980143  0.16445037  0.24335110  1.0
  Cd  Cd388  1  0.05980143  0.49778370  0.24335110  1.0
  Cd  Cd389  1  0.05980143  0.83111703  0.24335110  1.0
  Cd  Cd390  1  0.39313477  0.16445037  0.24335110  1.0
  Cd  Cd391  1  0.39313477  0.49778370  0.24335110  1.0
  Cd  Cd392  1  0.39313477  0.83111703  0.24335110  1.0
  Cd  Cd393  1  0.72646810  0.16445037  0.24335110  1.0
  Cd  Cd394  1  0.72646810  0.49778370  0.24335110  1.0
  Cd  Cd395  1  0.72646810  0.83111703  0.24335110  1.0
  Cd  Cd396  1  0.06677097  0.31129010  0.38322130  1.0
  Cd  Cd397  1  0.06677097  0.64462343  0.38322130  1.0
  Cd  Cd398  1  0.06677097  0.97795677  0.38322130  1.0
  Cd  Cd399  1  0.40010430  0.31129010  0.38322130  1.0
  Cd  Cd400  1  0.40010430  0.64462343  0.38322130  1.0
  Cd  Cd401  1  0.40010430  0.97795677  0.38322130  1.0
  Cd  Cd402  1  0.73343763  0.31129010  0.38322130  1.0
  Cd  Cd403  1  0.73343763  0.64462343  0.38322130  1.0
  Cd  Cd404  1  0.73343763  0.97795677  0.38322130  1.0
  Cd  Cd405  1  0.30010430  0.11129010  0.28322130  1.0
  Cd  Cd406  1  0.30010430  0.44462343  0.28322130  1.0
  Cd  Cd407  1  0.30010430  0.77795677  0.28322130  1.0
  Cd  Cd408  1  0.63343763  0.11129010  0.28322130  1.0
  Cd  Cd409  1  0.63343763  0.44462343  0.28322130  1.0
  Cd  Cd410  1  0.63343763  0.77795677  0.28322130  1.0
  Cd  Cd411  1  0.96677097  0.11129010  0.28322130  1.0
  Cd  Cd412  1  0.96677097  0.44462343  0.28322130  1.0
  Cd  Cd413  1  0.96677097  0.77795677  0.28322130  1.0
  Cd  Cd414  1  0.11993123  0.08427730  0.30348090  1.0
  Cd  Cd415  1  0.11993123  0.41761063  0.30348090  1.0
  Cd  Cd416  1  0.11993123  0.75094397  0.30348090  1.0
  Cd  Cd417  1  0.45326457  0.08427730  0.30348090  1.0
  Cd  Cd418  1  0.45326457  0.41761063  0.30348090  1.0
  Cd  Cd419  1  0.45326457  0.75094397  0.30348090  1.0
  Cd  Cd420  1  0.78659790  0.08427730  0.30348090  1.0
  Cd  Cd421  1  0.78659790  0.41761063  0.30348090  1.0
  Cd  Cd422  1  0.78659790  0.75094397  0.30348090  1.0
  Cd  Cd423  1  0.01993123  0.21761063  0.20348090  1.0
  Cd  Cd424  1  0.01993123  0.55094397  0.20348090  1.0
  Cd  Cd425  1  0.01993123  0.88427730  0.20348090  1.0
  Cd  Cd426  1  0.35326457  0.21761063  0.20348090  1.0
  Cd  Cd427  1  0.35326457  0.55094397  0.20348090  1.0
  Cd  Cd428  1  0.35326457  0.88427730  0.20348090  1.0
  Cd  Cd429  1  0.68659790  0.21761063  0.20348090  1.0
  Cd  Cd430  1  0.68659790  0.55094397  0.20348090  1.0
  Cd  Cd431  1  0.68659790  0.88427730  0.20348090  1.0
  Ni  Ni432  1  0.12668443  0.18111703  0.16835110  1.0
  Ni  Ni433  1  0.12668443  0.51445037  0.16835110  1.0
  Ni  Ni434  1  0.12668443  0.84778370  0.16835110  1.0
  Ni  Ni435  1  0.46001777  0.18111703  0.16835110  1.0
  Ni  Ni436  1  0.46001777  0.51445037  0.16835110  1.0
  Ni  Ni437  1  0.46001777  0.84778370  0.16835110  1.0
  Ni  Ni438  1  0.79335110  0.18111703  0.16835110  1.0
  Ni  Ni439  1  0.79335110  0.51445037  0.16835110  1.0
  Ni  Ni440  1  0.79335110  0.84778370  0.16835110  1.0
  Ni  Ni441  1  0.02668443  0.31445037  0.06835110  1.0
  Ni  Ni442  1  0.02668443  0.64778370  0.06835110  1.0
  Ni  Ni443  1  0.02668443  0.98111703  0.06835110  1.0
  Ni  Ni444  1  0.36001777  0.31445037  0.06835110  1.0
  Ni  Ni445  1  0.36001777  0.64778370  0.06835110  1.0
  Ni  Ni446  1  0.36001777  0.98111703  0.06835110  1.0
  Ni  Ni447  1  0.69335110  0.31445037  0.06835110  1.0
  Ni  Ni448  1  0.69335110  0.64778370  0.06835110  1.0
  Ni  Ni449  1  0.69335110  0.98111703  0.06835110  1.0
  Ni  Ni450  1  0.31001777  0.04778370  0.01835110  1.0
  Ni  Ni451  1  0.31001777  0.38111703  0.01835110  1.0
  Ni  Ni452  1  0.31001777  0.71445037  0.01835110  1.0
  Ni  Ni453  1  0.64335110  0.04778370  0.01835110  1.0
  Ni  Ni454  1  0.64335110  0.38111703  0.01835110  1.0
  Ni  Ni455  1  0.64335110  0.71445037  0.01835110  1.0
  Ni  Ni456  1  0.97668443  0.04778370  0.01835110  1.0
  Ni  Ni457  1  0.97668443  0.38111703  0.01835110  1.0
  Ni  Ni458  1  0.97668443  0.71445037  0.01835110  1.0
  Ni  Ni459  1  0.07668443  0.24778370  0.11835110  1.0
  Ni  Ni460  1  0.07668443  0.58111703  0.11835110  1.0
  Ni  Ni461  1  0.07668443  0.91445037  0.11835110  1.0
  Ni  Ni462  1  0.41001777  0.24778370  0.11835110  1.0
  Ni  Ni463  1  0.41001777  0.58111703  0.11835110  1.0
  Ni  Ni464  1  0.41001777  0.91445037  0.11835110  1.0
  Ni  Ni465  1  0.74335110  0.24778370  0.11835110  1.0
  Ni  Ni466  1  0.74335110  0.58111703  0.11835110  1.0
  Ni  Ni467  1  0.74335110  0.91445037  0.11835110  1.0
  Ni  Ni468  1  0.24335110  0.08111703  0.11835110  1.0
  Ni  Ni469  1  0.24335110  0.41445037  0.11835110  1.0
  Ni  Ni470  1  0.24335110  0.74778370  0.11835110  1.0
  Ni  Ni471  1  0.57668443  0.08111703  0.11835110  1.0
  Ni  Ni472  1  0.57668443  0.41445037  0.11835110  1.0
  Ni  Ni473  1  0.57668443  0.74778370  0.11835110  1.0
  Ni  Ni474  1  0.91001777  0.08111703  0.11835110  1.0
  Ni  Ni475  1  0.91001777  0.41445037  0.11835110  1.0
  Ni  Ni476  1  0.91001777  0.74778370  0.11835110  1.0
  Ni  Ni477  1  0.14335110  0.21445037  0.01835110  1.0
  Ni  Ni478  1  0.14335110  0.54778370  0.01835110  1.0
  Ni  Ni479  1  0.14335110  0.88111703  0.01835110  1.0
  Ni  Ni480  1  0.47668443  0.21445037  0.01835110  1.0
  Ni  Ni481  1  0.47668443  0.54778370  0.01835110  1.0
  Ni  Ni482  1  0.47668443  0.88111703  0.01835110  1.0
  Ni  Ni483  1  0.81001777  0.21445037  0.01835110  1.0
  Ni  Ni484  1  0.81001777  0.54778370  0.01835110  1.0
  Ni  Ni485  1  0.81001777  0.88111703  0.01835110  1.0
  Ni  Ni486  1  0.02668443  0.14778370  0.06835110  1.0
  Ni  Ni487  1  0.02668443  0.48111703  0.06835110  1.0
  Ni  Ni488  1  0.02668443  0.81445037  0.06835110  1.0
  Ni  Ni489  1  0.36001777  0.14778370  0.06835110  1.0
  Ni  Ni490  1  0.36001777  0.48111703  0.06835110  1.0
  Ni  Ni491  1  0.36001777  0.81445037  0.06835110  1.0
  Ni  Ni492  1  0.69335110  0.14778370  0.06835110  1.0
  Ni  Ni493  1  0.69335110  0.48111703  0.06835110  1.0
  Ni  Ni494  1  0.69335110  0.81445037  0.06835110  1.0
  Ni  Ni495  1  0.12668443  0.01445037  0.16835110  1.0
  Ni  Ni496  1  0.12668443  0.34778370  0.16835110  1.0
  Ni  Ni497  1  0.12668443  0.68111703  0.16835110  1.0
  Ni  Ni498  1  0.46001777  0.01445037  0.16835110  1.0
  Ni  Ni499  1  0.46001777  0.34778370  0.16835110  1.0
  Ni  Ni500  1  0.46001777  0.68111703  0.16835110  1.0
  Ni  Ni501  1  0.79335110  0.01445037  0.16835110  1.0
  Ni  Ni502  1  0.79335110  0.34778370  0.16835110  1.0
  Ni  Ni503  1  0.79335110  0.68111703  0.16835110  1.0
  Ni  Ni504  1  0.07253688  0.20819081  0.04651910  1.0
  Ni  Ni505  1  0.07253688  0.54152414  0.04651910  1.0
  Ni  Ni506  1  0.07253688  0.87485748  0.04651910  1.0
  Ni  Ni507  1  0.40587021  0.20819081  0.04651910  1.0
  Ni  Ni508  1  0.40587021  0.54152414  0.04651910  1.0
  Ni  Ni509  1  0.40587021  0.87485748  0.04651910  1.0
  Ni  Ni510  1  0.73920354  0.20819081  0.04651910  1.0
  Ni  Ni511  1  0.73920354  0.54152414  0.04651910  1.0
  Ni  Ni512  1  0.73920354  0.87485748  0.04651910  1.0
  Ni  Ni513  1  0.17253688  0.07485748  0.14651910  1.0
  Ni  Ni514  1  0.17253688  0.40819081  0.14651910  1.0
  Ni  Ni515  1  0.17253688  0.74152414  0.14651910  1.0
  Ni  Ni516  1  0.50587021  0.07485748  0.14651910  1.0
  Ni  Ni517  1  0.50587021  0.40819081  0.14651910  1.0
  Ni  Ni518  1  0.50587021  0.74152414  0.14651910  1.0
  Ni  Ni519  1  0.83920354  0.07485748  0.14651910  1.0
  Ni  Ni520  1  0.83920354  0.40819081  0.14651910  1.0
  Ni  Ni521  1  0.83920354  0.74152414  0.14651910  1.0
  Ni  Ni522  1  0.20375821  0.03322903  0.17774043  1.0
  Ni  Ni523  1  0.20375821  0.36656237  0.17774043  1.0
  Ni  Ni524  1  0.20375821  0.69989570  0.17774043  1.0
  Ni  Ni525  1  0.53709154  0.03322903  0.17774043  1.0
  Ni  Ni526  1  0.53709154  0.36656237  0.17774043  1.0
  Ni  Ni527  1  0.53709154  0.69989570  0.17774043  1.0
  Ni  Ni528  1  0.87042488  0.03322903  0.17774043  1.0
  Ni  Ni529  1  0.87042488  0.36656237  0.17774043  1.0
  Ni  Ni530  1  0.87042488  0.69989570  0.17774043  1.0
  Ni  Ni531  1  0.10375821  0.16656237  0.07774043  1.0
  Ni  Ni532  1  0.10375821  0.49989570  0.07774043  1.0
  Ni  Ni533  1  0.10375821  0.83322903  0.07774043  1.0
  Ni  Ni534  1  0.43709154  0.16656237  0.07774043  1.0
  Ni  Ni535  1  0.43709154  0.49989570  0.07774043  1.0
  Ni  Ni536  1  0.43709154  0.83322903  0.07774043  1.0
  Ni  Ni537  1  0.77042488  0.16656237  0.07774043  1.0
  Ni  Ni538  1  0.77042488  0.49989570  0.07774043  1.0
  Ni  Ni539  1  0.77042488  0.83322903  0.07774043  1.0
  Ni  Ni540  1  0.29546310  0.32070992  0.04018310  1.0
  Ni  Ni541  1  0.29546310  0.65404325  0.04018310  1.0
  Ni  Ni542  1  0.29546310  0.98737659  0.04018310  1.0
  Ni  Ni543  1  0.62879643  0.32070992  0.04018310  1.0
  Ni  Ni544  1  0.62879643  0.65404325  0.04018310  1.0
  Ni  Ni545  1  0.62879643  0.98737659  0.04018310  1.0
  Ni  Ni546  1  0.96212977  0.32070992  0.04018310  1.0
  Ni  Ni547  1  0.96212977  0.65404325  0.04018310  1.0
  Ni  Ni548  1  0.96212977  0.98737659  0.04018310  1.0
  Ni  Ni549  1  0.06212977  0.18737659  0.14018310  1.0
  Ni  Ni550  1  0.06212977  0.52070992  0.14018310  1.0
  Ni  Ni551  1  0.06212977  0.85404325  0.14018310  1.0
  Ni  Ni552  1  0.39546310  0.18737659  0.14018310  1.0
  Ni  Ni553  1  0.39546310  0.52070992  0.14018310  1.0
  Ni  Ni554  1  0.39546310  0.85404325  0.14018310  1.0
  Ni  Ni555  1  0.72879643  0.18737659  0.14018310  1.0
  Ni  Ni556  1  0.72879643  0.52070992  0.14018310  1.0
  Ni  Ni557  1  0.72879643  0.85404325  0.14018310  1.0
  Ni  Ni558  1  0.13497954  0.22900503  0.10896177  1.0
  Ni  Ni559  1  0.13497954  0.56233837  0.10896177  1.0
  Ni  Ni560  1  0.13497954  0.89567170  0.10896177  1.0
  Ni  Ni561  1  0.46831288  0.22900503  0.10896177  1.0
  Ni  Ni562  1  0.46831288  0.56233837  0.10896177  1.0
  Ni  Ni563  1  0.46831288  0.89567170  0.10896177  1.0
  Ni  Ni564  1  0.80164621  0.22900503  0.10896177  1.0
  Ni  Ni565  1  0.80164621  0.56233837  0.10896177  1.0
  Ni  Ni566  1  0.80164621  0.89567170  0.10896177  1.0
  Ni  Ni567  1  0.03497954  0.02900503  0.00896177  1.0
  Ni  Ni568  1  0.03497954  0.36233837  0.00896177  1.0
  Ni  Ni569  1  0.03497954  0.69567170  0.00896177  1.0
  Ni  Ni570  1  0.36831288  0.02900503  0.00896177  1.0
  Ni  Ni571  1  0.36831288  0.36233837  0.00896177  1.0
  Ni  Ni572  1  0.36831288  0.69567170  0.00896177  1.0
  Ni  Ni573  1  0.70164621  0.02900503  0.00896177  1.0
  Ni  Ni574  1  0.70164621  0.36233837  0.00896177  1.0
  Ni  Ni575  1  0.70164621  0.69567170  0.00896177  1.0
  Ni  Ni576  1  0.31416532  0.08737659  0.09018310  1.0
  Ni  Ni577  1  0.31416532  0.42070992  0.09018310  1.0
  Ni  Ni578  1  0.31416532  0.75404326  0.09018310  1.0
  Ni  Ni579  1  0.64749866  0.08737659  0.09018310  1.0
  Ni  Ni580  1  0.64749866  0.42070992  0.09018310  1.0
  Ni  Ni581  1  0.64749866  0.75404326  0.09018310  1.0
  Ni  Ni582  1  0.98083199  0.08737659  0.09018310  1.0
  Ni  Ni583  1  0.98083199  0.42070992  0.09018310  1.0
  Ni  Ni584  1  0.98083199  0.75404326  0.09018310  1.0
  Ni  Ni585  1  0.08083199  0.28737659  0.19018310  1.0
  Ni  Ni586  1  0.08083199  0.62070992  0.19018310  1.0
  Ni  Ni587  1  0.08083199  0.95404326  0.19018310  1.0
  Ni  Ni588  1  0.41416532  0.28737659  0.19018310  1.0
  Ni  Ni589  1  0.41416532  0.62070992  0.19018310  1.0
  Ni  Ni590  1  0.41416532  0.95404326  0.19018310  1.0
  Ni  Ni591  1  0.74749866  0.28737659  0.19018310  1.0
  Ni  Ni592  1  0.74749866  0.62070992  0.19018310  1.0
  Ni  Ni593  1  0.74749866  0.95404326  0.19018310  1.0
  Ni  Ni594  1  0.28294399  0.12900503  0.05896177  1.0
  Ni  Ni595  1  0.28294399  0.46233837  0.05896177  1.0
  Ni  Ni596  1  0.28294399  0.79567170  0.05896177  1.0
  Ni  Ni597  1  0.61627732  0.12900503  0.05896177  1.0
  Ni  Ni598  1  0.61627732  0.46233837  0.05896177  1.0
  Ni  Ni599  1  0.61627732  0.79567170  0.05896177  1.0
  Ni  Ni600  1  0.94961066  0.12900503  0.05896177  1.0
  Ni  Ni601  1  0.94961066  0.46233837  0.05896177  1.0
  Ni  Ni602  1  0.94961066  0.79567170  0.05896177  1.0
  Ni  Ni603  1  0.04961066  0.32900503  0.15896177  1.0
  Ni  Ni604  1  0.04961066  0.66233837  0.15896177  1.0
  Ni  Ni605  1  0.04961066  0.99567170  0.15896177  1.0
  Ni  Ni606  1  0.38294399  0.32900503  0.15896177  1.0
  Ni  Ni607  1  0.38294399  0.66233837  0.15896177  1.0
  Ni  Ni608  1  0.38294399  0.99567170  0.15896177  1.0
  Ni  Ni609  1  0.71627732  0.32900503  0.15896177  1.0
  Ni  Ni610  1  0.71627732  0.66233837  0.15896177  1.0
  Ni  Ni611  1  0.71627732  0.99567170  0.15896177  1.0
  Ni  Ni612  1  0.19123910  0.17485748  0.19651910  1.0
  Ni  Ni613  1  0.19123910  0.50819081  0.19651910  1.0
  Ni  Ni614  1  0.19123910  0.84152415  0.19651910  1.0
  Ni  Ni615  1  0.52457243  0.17485748  0.19651910  1.0
  Ni  Ni616  1  0.52457243  0.50819081  0.19651910  1.0
  Ni  Ni617  1  0.52457243  0.84152415  0.19651910  1.0
  Ni  Ni618  1  0.85790577  0.17485748  0.19651910  1.0
  Ni  Ni619  1  0.85790577  0.50819081  0.19651910  1.0
  Ni  Ni620  1  0.85790577  0.84152415  0.19651910  1.0
  Ni  Ni621  1  0.09123910  0.30819081  0.09651910  1.0
  Ni  Ni622  1  0.09123910  0.64152415  0.09651910  1.0
  Ni  Ni623  1  0.09123910  0.97485748  0.09651910  1.0
  Ni  Ni624  1  0.42457243  0.30819081  0.09651910  1.0
  Ni  Ni625  1  0.42457243  0.64152415  0.09651910  1.0
  Ni  Ni626  1  0.42457243  0.97485748  0.09651910  1.0
  Ni  Ni627  1  0.75790577  0.30819081  0.09651910  1.0
  Ni  Ni628  1  0.75790577  0.64152415  0.09651910  1.0
  Ni  Ni629  1  0.75790577  0.97485748  0.09651910  1.0
  Ni  Ni630  1  0.25172266  0.06656237  0.02774043  1.0
  Ni  Ni631  1  0.25172266  0.39989570  0.02774043  1.0
  Ni  Ni632  1  0.25172266  0.73322903  0.02774043  1.0
  Ni  Ni633  1  0.58505599  0.06656237  0.02774043  1.0
  Ni  Ni634  1  0.58505599  0.39989570  0.02774043  1.0
  Ni  Ni635  1  0.58505599  0.73322903  0.02774043  1.0
  Ni  Ni636  1  0.91838932  0.06656237  0.02774043  1.0
  Ni  Ni637  1  0.91838932  0.39989570  0.02774043  1.0
  Ni  Ni638  1  0.91838932  0.73322903  0.02774043  1.0
  Ni  Ni639  1  0.01838932  0.26656237  0.12774043  1.0
  Ni  Ni640  1  0.01838932  0.59989570  0.12774043  1.0
  Ni  Ni641  1  0.01838932  0.93322903  0.12774043  1.0
  Ni  Ni642  1  0.35172266  0.26656237  0.12774043  1.0
  Ni  Ni643  1  0.35172266  0.59989570  0.12774043  1.0
  Ni  Ni644  1  0.35172266  0.93322903  0.12774043  1.0
  Ni  Ni645  1  0.68505599  0.26656237  0.12774043  1.0
  Ni  Ni646  1  0.68505599  0.59989570  0.12774043  1.0
  Ni  Ni647  1  0.68505599  0.93322903  0.12774043  1.0
  Ni  Ni648  1  0.32668443  0.24778370  0.36835110  1.0
  Ni  Ni649  1  0.32668443  0.58111703  0.36835110  1.0
  Ni  Ni650  1  0.32668443  0.91445037  0.36835110  1.0
  Ni  Ni651  1  0.66001777  0.24778370  0.36835110  1.0
  Ni  Ni652  1  0.66001777  0.58111703  0.36835110  1.0
  Ni  Ni653  1  0.66001777  0.91445037  0.36835110  1.0
  Ni  Ni654  1  0.99335110  0.24778370  0.36835110  1.0
  Ni  Ni655  1  0.99335110  0.58111703  0.36835110  1.0
  Ni  Ni656  1  0.99335110  0.91445037  0.36835110  1.0
  Ni  Ni657  1  0.22668443  0.04778370  0.26835110  1.0
  Ni  Ni658  1  0.22668443  0.38111703  0.26835110  1.0
  Ni  Ni659  1  0.22668443  0.71445037  0.26835110  1.0
  Ni  Ni660  1  0.56001777  0.04778370  0.26835110  1.0
  Ni  Ni661  1  0.56001777  0.38111703  0.26835110  1.0
  Ni  Ni662  1  0.56001777  0.71445037  0.26835110  1.0
  Ni  Ni663  1  0.89335110  0.04778370  0.26835110  1.0
  Ni  Ni664  1  0.89335110  0.38111703  0.26835110  1.0
  Ni  Ni665  1  0.89335110  0.71445037  0.26835110  1.0
  Ni  Ni666  1  0.17668443  0.11445037  0.21835110  1.0
  Ni  Ni667  1  0.17668443  0.44778370  0.21835110  1.0
  Ni  Ni668  1  0.17668443  0.78111703  0.21835110  1.0
  Ni  Ni669  1  0.51001777  0.11445037  0.21835110  1.0
  Ni  Ni670  1  0.51001777  0.44778370  0.21835110  1.0
  Ni  Ni671  1  0.51001777  0.78111703  0.21835110  1.0
  Ni  Ni672  1  0.84335110  0.11445037  0.21835110  1.0
  Ni  Ni673  1  0.84335110  0.44778370  0.21835110  1.0
  Ni  Ni674  1  0.84335110  0.78111703  0.21835110  1.0
  Ni  Ni675  1  0.27668443  0.31445037  0.31835110  1.0
  Ni  Ni676  1  0.27668443  0.64778370  0.31835110  1.0
  Ni  Ni677  1  0.27668443  0.98111703  0.31835110  1.0
  Ni  Ni678  1  0.61001777  0.31445037  0.31835110  1.0
  Ni  Ni679  1  0.61001777  0.64778370  0.31835110  1.0
  Ni  Ni680  1  0.61001777  0.98111703  0.31835110  1.0
  Ni  Ni681  1  0.94335110  0.31445037  0.31835110  1.0
  Ni  Ni682  1  0.94335110  0.64778370  0.31835110  1.0
  Ni  Ni683  1  0.94335110  0.98111703  0.31835110  1.0
  Ni  Ni684  1  0.11001777  0.14778370  0.31835110  1.0
  Ni  Ni685  1  0.11001777  0.48111703  0.31835110  1.0
  Ni  Ni686  1  0.11001777  0.81445037  0.31835110  1.0
  Ni  Ni687  1  0.44335110  0.14778370  0.31835110  1.0
  Ni  Ni688  1  0.44335110  0.48111703  0.31835110  1.0
  Ni  Ni689  1  0.44335110  0.81445037  0.31835110  1.0
  Ni  Ni690  1  0.77668443  0.14778370  0.31835110  1.0
  Ni  Ni691  1  0.77668443  0.48111703  0.31835110  1.0
  Ni  Ni692  1  0.77668443  0.81445037  0.31835110  1.0
  Ni  Ni693  1  0.01001777  0.28111703  0.21835110  1.0
  Ni  Ni694  1  0.01001777  0.61445037  0.21835110  1.0
  Ni  Ni695  1  0.01001777  0.94778370  0.21835110  1.0
  Ni  Ni696  1  0.34335110  0.28111703  0.21835110  1.0
  Ni  Ni697  1  0.34335110  0.61445037  0.21835110  1.0
  Ni  Ni698  1  0.34335110  0.94778370  0.21835110  1.0
  Ni  Ni699  1  0.67668443  0.28111703  0.21835110  1.0
  Ni  Ni700  1  0.67668443  0.61445037  0.21835110  1.0
  Ni  Ni701  1  0.67668443  0.94778370  0.21835110  1.0
  Ni  Ni702  1  0.22668443  0.21445037  0.26835110  1.0
  Ni  Ni703  1  0.22668443  0.54778370  0.26835110  1.0
  Ni  Ni704  1  0.22668443  0.88111703  0.26835110  1.0
  Ni  Ni705  1  0.56001777  0.21445037  0.26835110  1.0
  Ni  Ni706  1  0.56001777  0.54778370  0.26835110  1.0
  Ni  Ni707  1  0.56001777  0.88111703  0.26835110  1.0
  Ni  Ni708  1  0.89335110  0.21445037  0.26835110  1.0
  Ni  Ni709  1  0.89335110  0.54778370  0.26835110  1.0
  Ni  Ni710  1  0.89335110  0.88111703  0.26835110  1.0
  Ni  Ni711  1  0.32668443  0.08111703  0.36835110  1.0
  Ni  Ni712  1  0.32668443  0.41445037  0.36835110  1.0
  Ni  Ni713  1  0.32668443  0.74778370  0.36835110  1.0
  Ni  Ni714  1  0.66001777  0.08111703  0.36835110  1.0
  Ni  Ni715  1  0.66001777  0.41445037  0.36835110  1.0
  Ni  Ni716  1  0.66001777  0.74778370  0.36835110  1.0
  Ni  Ni717  1  0.99335110  0.08111703  0.36835110  1.0
  Ni  Ni718  1  0.99335110  0.41445037  0.36835110  1.0
  Ni  Ni719  1  0.99335110  0.74778370  0.36835110  1.0
  Ni  Ni720  1  0.27253688  0.27485748  0.24651910  1.0
  Ni  Ni721  1  0.27253688  0.60819081  0.24651910  1.0
  Ni  Ni722  1  0.27253688  0.94152414  0.24651910  1.0
  Ni  Ni723  1  0.60587021  0.27485748  0.24651910  1.0
  Ni  Ni724  1  0.60587021  0.60819081  0.24651910  1.0
  Ni  Ni725  1  0.60587021  0.94152414  0.24651910  1.0
  Ni  Ni726  1  0.93920354  0.27485748  0.24651910  1.0
  Ni  Ni727  1  0.93920354  0.60819081  0.24651910  1.0
  Ni  Ni728  1  0.93920354  0.94152414  0.24651910  1.0
  Ni  Ni729  1  0.03920354  0.14152414  0.34651910  1.0
  Ni  Ni730  1  0.03920354  0.47485748  0.34651910  1.0
  Ni  Ni731  1  0.03920354  0.80819081  0.34651910  1.0
  Ni  Ni732  1  0.37253688  0.14152414  0.34651910  1.0
  Ni  Ni733  1  0.37253688  0.47485748  0.34651910  1.0
  Ni  Ni734  1  0.37253688  0.80819081  0.34651910  1.0
  Ni  Ni735  1  0.70587021  0.14152414  0.34651910  1.0
  Ni  Ni736  1  0.70587021  0.47485748  0.34651910  1.0
  Ni  Ni737  1  0.70587021  0.80819081  0.34651910  1.0
  Ni  Ni738  1  0.07042488  0.09989570  0.37774043  1.0
  Ni  Ni739  1  0.07042488  0.43322903  0.37774043  1.0
  Ni  Ni740  1  0.07042488  0.76656237  0.37774043  1.0
  Ni  Ni741  1  0.40375821  0.09989570  0.37774043  1.0
  Ni  Ni742  1  0.40375821  0.43322903  0.37774043  1.0
  Ni  Ni743  1  0.40375821  0.76656237  0.37774043  1.0
  Ni  Ni744  1  0.73709154  0.09989570  0.37774043  1.0
  Ni  Ni745  1  0.73709154  0.43322903  0.37774043  1.0
  Ni  Ni746  1  0.73709154  0.76656237  0.37774043  1.0
  Ni  Ni747  1  0.30375821  0.23322903  0.27774043  1.0
  Ni  Ni748  1  0.30375821  0.56656237  0.27774043  1.0
  Ni  Ni749  1  0.30375821  0.89989570  0.27774043  1.0
  Ni  Ni750  1  0.63709154  0.23322903  0.27774043  1.0
  Ni  Ni751  1  0.63709154  0.56656237  0.27774043  1.0
  Ni  Ni752  1  0.63709154  0.89989570  0.27774043  1.0
  Ni  Ni753  1  0.97042488  0.23322903  0.27774043  1.0
  Ni  Ni754  1  0.97042488  0.56656237  0.27774043  1.0
  Ni  Ni755  1  0.97042488  0.89989570  0.27774043  1.0
  Ni  Ni756  1  0.16212977  0.05404325  0.24018310  1.0
  Ni  Ni757  1  0.16212977  0.38737659  0.24018310  1.0
  Ni  Ni758  1  0.16212977  0.72070992  0.24018310  1.0
  Ni  Ni759  1  0.49546310  0.05404325  0.24018310  1.0
  Ni  Ni760  1  0.49546310  0.38737659  0.24018310  1.0
  Ni  Ni761  1  0.49546310  0.72070992  0.24018310  1.0
  Ni  Ni762  1  0.82879643  0.05404325  0.24018310  1.0
  Ni  Ni763  1  0.82879643  0.38737659  0.24018310  1.0
  Ni  Ni764  1  0.82879643  0.72070992  0.24018310  1.0
  Ni  Ni765  1  0.26212977  0.25404325  0.34018310  1.0
  Ni  Ni766  1  0.26212977  0.58737659  0.34018310  1.0
  Ni  Ni767  1  0.26212977  0.92070992  0.34018310  1.0
  Ni  Ni768  1  0.59546310  0.25404325  0.34018310  1.0
  Ni  Ni769  1  0.59546310  0.58737659  0.34018310  1.0
  Ni  Ni770  1  0.59546310  0.92070992  0.34018310  1.0
  Ni  Ni771  1  0.92879643  0.25404325  0.34018310  1.0
  Ni  Ni772  1  0.92879643  0.58737659  0.34018310  1.0
  Ni  Ni773  1  0.92879643  0.92070992  0.34018310  1.0
  Ni  Ni774  1  0.00164621  0.29567170  0.30896177  1.0
  Ni  Ni775  1  0.00164621  0.62900503  0.30896177  1.0
  Ni  Ni776  1  0.00164621  0.96233837  0.30896177  1.0
  Ni  Ni777  1  0.33497954  0.29567170  0.30896177  1.0
  Ni  Ni778  1  0.33497954  0.62900503  0.30896177  1.0
  Ni  Ni779  1  0.33497954  0.96233837  0.30896177  1.0
  Ni  Ni780  1  0.66831288  0.29567170  0.30896177  1.0
  Ni  Ni781  1  0.66831288  0.62900503  0.30896177  1.0
  Ni  Ni782  1  0.66831288  0.96233837  0.30896177  1.0
  Ni  Ni783  1  0.23497954  0.09567170  0.20896177  1.0
  Ni  Ni784  1  0.23497954  0.42900503  0.20896177  1.0
  Ni  Ni785  1  0.23497954  0.76233837  0.20896177  1.0
  Ni  Ni786  1  0.56831288  0.09567170  0.20896177  1.0
  Ni  Ni787  1  0.56831288  0.42900503  0.20896177  1.0
  Ni  Ni788  1  0.56831288  0.76233837  0.20896177  1.0
  Ni  Ni789  1  0.90164621  0.09567170  0.20896177  1.0
  Ni  Ni790  1  0.90164621  0.42900503  0.20896177  1.0
  Ni  Ni791  1  0.90164621  0.76233837  0.20896177  1.0
  Ni  Ni792  1  0.18083199  0.15404326  0.29018310  1.0
  Ni  Ni793  1  0.18083199  0.48737659  0.29018310  1.0
  Ni  Ni794  1  0.18083199  0.82070992  0.29018310  1.0
  Ni  Ni795  1  0.51416532  0.15404326  0.29018310  1.0
  Ni  Ni796  1  0.51416532  0.48737659  0.29018310  1.0
  Ni  Ni797  1  0.51416532  0.82070992  0.29018310  1.0
  Ni  Ni798  1  0.84749866  0.15404326  0.29018310  1.0
  Ni  Ni799  1  0.84749866  0.48737659  0.29018310  1.0
  Ni  Ni800  1  0.84749866  0.82070992  0.29018310  1.0
  Ni  Ni801  1  0.28083199  0.02070992  0.39018310  1.0
  Ni  Ni802  1  0.28083199  0.35404326  0.39018310  1.0
  Ni  Ni803  1  0.28083199  0.68737659  0.39018310  1.0
  Ni  Ni804  1  0.61416532  0.02070992  0.39018310  1.0
  Ni  Ni805  1  0.61416532  0.35404326  0.39018310  1.0
  Ni  Ni806  1  0.61416532  0.68737659  0.39018310  1.0
  Ni  Ni807  1  0.94749866  0.02070992  0.39018310  1.0
  Ni  Ni808  1  0.94749866  0.35404326  0.39018310  1.0
  Ni  Ni809  1  0.94749866  0.68737659  0.39018310  1.0
  Ni  Ni810  1  0.14961066  0.19567170  0.25896177  1.0
  Ni  Ni811  1  0.14961066  0.52900503  0.25896177  1.0
  Ni  Ni812  1  0.14961066  0.86233837  0.25896177  1.0
  Ni  Ni813  1  0.48294399  0.19567170  0.25896177  1.0
  Ni  Ni814  1  0.48294399  0.52900503  0.25896177  1.0
  Ni  Ni815  1  0.48294399  0.86233837  0.25896177  1.0
  Ni  Ni816  1  0.81627732  0.19567170  0.25896177  1.0
  Ni  Ni817  1  0.81627732  0.52900503  0.25896177  1.0
  Ni  Ni818  1  0.81627732  0.86233837  0.25896177  1.0
  Ni  Ni819  1  0.24961066  0.06233837  0.35896177  1.0
  Ni  Ni820  1  0.24961066  0.39567170  0.35896177  1.0
  Ni  Ni821  1  0.24961066  0.72900503  0.35896177  1.0
  Ni  Ni822  1  0.58294399  0.06233837  0.35896177  1.0
  Ni  Ni823  1  0.58294399  0.39567170  0.35896177  1.0
  Ni  Ni824  1  0.58294399  0.72900503  0.35896177  1.0
  Ni  Ni825  1  0.91627732  0.06233837  0.35896177  1.0
  Ni  Ni826  1  0.91627732  0.39567170  0.35896177  1.0
  Ni  Ni827  1  0.91627732  0.72900503  0.35896177  1.0
  Ni  Ni828  1  0.05790577  0.24152415  0.39651910  1.0
  Ni  Ni829  1  0.05790577  0.57485748  0.39651910  1.0
  Ni  Ni830  1  0.05790577  0.90819081  0.39651910  1.0
  Ni  Ni831  1  0.39123910  0.24152415  0.39651910  1.0
  Ni  Ni832  1  0.39123910  0.57485748  0.39651910  1.0
  Ni  Ni833  1  0.39123910  0.90819081  0.39651910  1.0
  Ni  Ni834  1  0.72457243  0.24152415  0.39651910  1.0
  Ni  Ni835  1  0.72457243  0.57485748  0.39651910  1.0
  Ni  Ni836  1  0.72457243  0.90819081  0.39651910  1.0
  Ni  Ni837  1  0.29123910  0.04152415  0.29651910  1.0
  Ni  Ni838  1  0.29123910  0.37485748  0.29651910  1.0
  Ni  Ni839  1  0.29123910  0.70819081  0.29651910  1.0
  Ni  Ni840  1  0.62457243  0.04152415  0.29651910  1.0
  Ni  Ni841  1  0.62457243  0.37485748  0.29651910  1.0
  Ni  Ni842  1  0.62457243  0.70819081  0.29651910  1.0
  Ni  Ni843  1  0.95790577  0.04152415  0.29651910  1.0
  Ni  Ni844  1  0.95790577  0.37485748  0.29651910  1.0
  Ni  Ni845  1  0.95790577  0.70819081  0.29651910  1.0
  Ni  Ni846  1  0.11838932  0.13322903  0.22774043  1.0
  Ni  Ni847  1  0.11838932  0.46656237  0.22774043  1.0
  Ni  Ni848  1  0.11838932  0.79989570  0.22774043  1.0
  Ni  Ni849  1  0.45172266  0.13322903  0.22774043  1.0
  Ni  Ni850  1  0.45172266  0.46656237  0.22774043  1.0
  Ni  Ni851  1  0.45172266  0.79989570  0.22774043  1.0
  Ni  Ni852  1  0.78505599  0.13322903  0.22774043  1.0
  Ni  Ni853  1  0.78505599  0.46656237  0.22774043  1.0
  Ni  Ni854  1  0.78505599  0.79989570  0.22774043  1.0
  Ni  Ni855  1  0.21838932  0.33322903  0.32774043  1.0
  Ni  Ni856  1  0.21838932  0.66656237  0.32774043  1.0
  Ni  Ni857  1  0.21838932  0.99989570  0.32774043  1.0
  Ni  Ni858  1  0.55172266  0.33322903  0.32774043  1.0
  Ni  Ni859  1  0.55172266  0.66656237  0.32774043  1.0
  Ni  Ni860  1  0.55172266  0.99989570  0.32774043  1.0
  Ni  Ni861  1  0.88505599  0.33322903  0.32774043  1.0
  Ni  Ni862  1  0.88505599  0.66656237  0.32774043  1.0
  Ni  Ni863  1  0.88505599  0.99989570  0.32774043  1.0
