# generated using pymatgen
data_CdNi
_symmetry_space_group_name_H-M   'P 1'
_cell_length_a   25.72660944
_cell_length_b   63.01706594
_cell_length_c   35.35784270
_cell_angle_alpha   101.42175366
_cell_angle_beta   90.00000000
_cell_angle_gamma   90.00000000
_symmetry_Int_Tables_number   1
_chemical_formula_structural   CdNi
_chemical_formula_sum   'Cd648 Ni648'
_cell_volume   56187.46564352
_cell_formula_units_Z   648
loop_
 _symmetry_equiv_pos_site_id
 _symmetry_equiv_pos_as_xyz
  1  'x, y, z'
loop_
 _atom_site_type_symbol
 _atom_site_label
 _atom_site_symmetry_multiplicity
 _atom_site_fract_x
 _atom_site_fract_y
 _atom_site_fract_z
 _atom_site_occupancy
  Cd  Cd0  1  0.07863167  0.22887714  0.03168429  1.0
  Cd  Cd1  1  0.07863167  0.56221048  0.03168429  1.0
  Cd  Cd2  1  0.07863167  0.89554381  0.03168429  1.0
  Cd  Cd3  1  0.41196500  0.22887714  0.03168429  1.0
  Cd  Cd4  1  0.41196500  0.56221048  0.03168429  1.0
  Cd  Cd5  1  0.41196500  0.89554381  0.03168429  1.0
  Cd  Cd6  1  0.74529833  0.22887714  0.03168429  1.0
  Cd  Cd7  1  0.74529833  0.56221048  0.03168429  1.0
  Cd  Cd8  1  0.74529833  0.89554381  0.03168429  1.0
  Cd  Cd9  1  0.24529833  0.01459143  0.10311286  1.0
  Cd  Cd10  1  0.24529833  0.34792476  0.10311286  1.0
  Cd  Cd11  1  0.24529833  0.68125810  0.10311286  1.0
  Cd  Cd12  1  0.57863167  0.01459143  0.10311286  1.0
  Cd  Cd13  1  0.57863167  0.34792476  0.10311286  1.0
  Cd  Cd14  1  0.57863167  0.68125810  0.10311286  1.0
  Cd  Cd15  1  0.91196500  0.01459143  0.10311286  1.0
  Cd  Cd16  1  0.91196500  0.34792476  0.10311286  1.0
  Cd  Cd17  1  0.91196500  0.68125810  0.10311286  1.0
  Cd  Cd18  1  0.24529833  0.09792476  0.10311286  1.0
  Cd  Cd19  1  0.24529833  0.43125810  0.10311286  1.0
  Cd  Cd20  1  0.24529833  0.76459143  0.10311286  1.0
  Cd  Cd21  1  0.57863167  0.09792476  0.10311286  1.0
  Cd  Cd22  1  0.57863167  0.43125810  0.10311286  1.0
  Cd  Cd23  1  0.57863167  0.76459143  0.10311286  1.0
  Cd  Cd24  1  0.91196500  0.09792476  0.10311286  1.0
  Cd  Cd25  1  0.91196500  0.43125810  0.10311286  1.0
  Cd  Cd26  1  0.91196500  0.76459143  0.10311286  1.0
  Cd  Cd27  1  0.07863167  0.31221048  0.03168429  1.0
  Cd  Cd28  1  0.07863167  0.64554381  0.03168429  1.0
  Cd  Cd29  1  0.07863167  0.97887714  0.03168429  1.0
  Cd  Cd30  1  0.41196500  0.31221048  0.03168429  1.0
  Cd  Cd31  1  0.41196500  0.64554381  0.03168429  1.0
  Cd  Cd32  1  0.41196500  0.97887714  0.03168429  1.0
  Cd  Cd33  1  0.74529833  0.31221048  0.03168429  1.0
  Cd  Cd34  1  0.74529833  0.64554381  0.03168429  1.0
  Cd  Cd35  1  0.74529833  0.97887714  0.03168429  1.0
  Cd  Cd36  1  0.25470167  0.22887714  0.03168429  1.0
  Cd  Cd37  1  0.25470167  0.56221048  0.03168429  1.0
  Cd  Cd38  1  0.25470167  0.89554381  0.03168429  1.0
  Cd  Cd39  1  0.58803500  0.22887714  0.03168429  1.0
  Cd  Cd40  1  0.58803500  0.56221048  0.03168429  1.0
  Cd  Cd41  1  0.58803500  0.89554381  0.03168429  1.0
  Cd  Cd42  1  0.92136833  0.22887714  0.03168429  1.0
  Cd  Cd43  1  0.92136833  0.56221048  0.03168429  1.0
  Cd  Cd44  1  0.92136833  0.89554381  0.03168429  1.0
  Cd  Cd45  1  0.08803500  0.01459143  0.10311286  1.0
  Cd  Cd46  1  0.08803500  0.34792476  0.10311286  1.0
  Cd  Cd47  1  0.08803500  0.68125810  0.10311286  1.0
  Cd  Cd48  1  0.42136833  0.01459143  0.10311286  1.0
  Cd  Cd49  1  0.42136833  0.34792476  0.10311286  1.0
  Cd  Cd50  1  0.42136833  0.68125810  0.10311286  1.0
  Cd  Cd51  1  0.75470167  0.01459143  0.10311286  1.0
  Cd  Cd52  1  0.75470167  0.34792476  0.10311286  1.0
  Cd  Cd53  1  0.75470167  0.68125810  0.10311286  1.0
  Cd  Cd54  1  0.00000000  0.12240595  0.07344357  1.0
  Cd  Cd55  1  0.00000000  0.45573929  0.07344357  1.0
  Cd  Cd56  1  0.00000000  0.78907262  0.07344357  1.0
  Cd  Cd57  1  0.33333333  0.12240595  0.07344357  1.0
  Cd  Cd58  1  0.33333333  0.45573929  0.07344357  1.0
  Cd  Cd59  1  0.33333333  0.78907262  0.07344357  1.0
  Cd  Cd60  1  0.66666667  0.12240595  0.07344357  1.0
  Cd  Cd61  1  0.66666667  0.45573929  0.07344357  1.0
  Cd  Cd62  1  0.66666667  0.78907262  0.07344357  1.0
  Cd  Cd63  1  0.16666667  0.00335833  0.00201500  1.0
  Cd  Cd64  1  0.16666667  0.33669167  0.00201500  1.0
  Cd  Cd65  1  0.16666667  0.67002500  0.00201500  1.0
  Cd  Cd66  1  0.50000000  0.00335833  0.00201500  1.0
  Cd  Cd67  1  0.50000000  0.33669167  0.00201500  1.0
  Cd  Cd68  1  0.50000000  0.67002500  0.00201500  1.0
  Cd  Cd69  1  0.83333333  0.00335833  0.00201500  1.0
  Cd  Cd70  1  0.83333333  0.33669167  0.00201500  1.0
  Cd  Cd71  1  0.83333333  0.67002500  0.00201500  1.0
  Cd  Cd72  1  0.00000000  0.28504262  0.06538357  1.0
  Cd  Cd73  1  0.00000000  0.61837595  0.06538357  1.0
  Cd  Cd74  1  0.00000000  0.95170929  0.06538357  1.0
  Cd  Cd75  1  0.33333333  0.28504262  0.06538357  1.0
  Cd  Cd76  1  0.33333333  0.61837595  0.06538357  1.0
  Cd  Cd77  1  0.33333333  0.95170929  0.06538357  1.0
  Cd  Cd78  1  0.66666667  0.28504262  0.06538357  1.0
  Cd  Cd79  1  0.66666667  0.61837595  0.06538357  1.0
  Cd  Cd80  1  0.66666667  0.95170929  0.06538357  1.0
  Cd  Cd81  1  0.16666667  0.07075690  0.13681214  1.0
  Cd  Cd82  1  0.16666667  0.40409024  0.13681214  1.0
  Cd  Cd83  1  0.16666667  0.73742357  0.13681214  1.0
  Cd  Cd84  1  0.50000000  0.07075690  0.13681214  1.0
  Cd  Cd85  1  0.50000000  0.40409024  0.13681214  1.0
  Cd  Cd86  1  0.50000000  0.73742357  0.13681214  1.0
  Cd  Cd87  1  0.83333333  0.07075690  0.13681214  1.0
  Cd  Cd88  1  0.83333333  0.40409024  0.13681214  1.0
  Cd  Cd89  1  0.83333333  0.73742357  0.13681214  1.0
  Cd  Cd90  1  0.07863167  0.17857143  0.10714286  1.0
  Cd  Cd91  1  0.07863167  0.51190476  0.10714286  1.0
  Cd  Cd92  1  0.07863167  0.84523810  0.10714286  1.0
  Cd  Cd93  1  0.41196500  0.17857143  0.10714286  1.0
  Cd  Cd94  1  0.41196500  0.51190476  0.10714286  1.0
  Cd  Cd95  1  0.41196500  0.84523810  0.10714286  1.0
  Cd  Cd96  1  0.74529833  0.17857143  0.10714286  1.0
  Cd  Cd97  1  0.74529833  0.51190476  0.10714286  1.0
  Cd  Cd98  1  0.74529833  0.84523810  0.10714286  1.0
  Cd  Cd99  1  0.24529833  0.05952381  0.03571429  1.0
  Cd  Cd100  1  0.24529833  0.39285714  0.03571429  1.0
  Cd  Cd101  1  0.24529833  0.72619048  0.03571429  1.0
  Cd  Cd102  1  0.57863167  0.05952381  0.03571429  1.0
  Cd  Cd103  1  0.57863167  0.39285714  0.03571429  1.0
  Cd  Cd104  1  0.57863167  0.72619048  0.03571429  1.0
  Cd  Cd105  1  0.91196500  0.05952381  0.03571429  1.0
  Cd  Cd106  1  0.91196500  0.39285714  0.03571429  1.0
  Cd  Cd107  1  0.91196500  0.72619048  0.03571429  1.0
  Cd  Cd108  1  0.24529833  0.14285714  0.03571429  1.0
  Cd  Cd109  1  0.24529833  0.47619048  0.03571429  1.0
  Cd  Cd110  1  0.24529833  0.80952381  0.03571429  1.0
  Cd  Cd111  1  0.57863167  0.14285714  0.03571429  1.0
  Cd  Cd112  1  0.57863167  0.47619048  0.03571429  1.0
  Cd  Cd113  1  0.57863167  0.80952381  0.03571429  1.0
  Cd  Cd114  1  0.91196500  0.14285714  0.03571429  1.0
  Cd  Cd115  1  0.91196500  0.47619048  0.03571429  1.0
  Cd  Cd116  1  0.91196500  0.80952381  0.03571429  1.0
  Cd  Cd117  1  0.07863167  0.26190476  0.10714286  1.0
  Cd  Cd118  1  0.07863167  0.59523810  0.10714286  1.0
  Cd  Cd119  1  0.07863167  0.92857143  0.10714286  1.0
  Cd  Cd120  1  0.41196500  0.26190476  0.10714286  1.0
  Cd  Cd121  1  0.41196500  0.59523810  0.10714286  1.0
  Cd  Cd122  1  0.41196500  0.92857143  0.10714286  1.0
  Cd  Cd123  1  0.74529833  0.26190476  0.10714286  1.0
  Cd  Cd124  1  0.74529833  0.59523810  0.10714286  1.0
  Cd  Cd125  1  0.74529833  0.92857143  0.10714286  1.0
  Cd  Cd126  1  0.08803500  0.09792476  0.10311286  1.0
  Cd  Cd127  1  0.08803500  0.43125810  0.10311286  1.0
  Cd  Cd128  1  0.08803500  0.76459143  0.10311286  1.0
  Cd  Cd129  1  0.42136833  0.09792476  0.10311286  1.0
  Cd  Cd130  1  0.42136833  0.43125810  0.10311286  1.0
  Cd  Cd131  1  0.42136833  0.76459143  0.10311286  1.0
  Cd  Cd132  1  0.75470167  0.09792476  0.10311286  1.0
  Cd  Cd133  1  0.75470167  0.43125810  0.10311286  1.0
  Cd  Cd134  1  0.75470167  0.76459143  0.10311286  1.0
  Cd  Cd135  1  0.25470167  0.31221048  0.03168429  1.0
  Cd  Cd136  1  0.25470167  0.64554381  0.03168429  1.0
  Cd  Cd137  1  0.25470167  0.97887714  0.03168429  1.0
  Cd  Cd138  1  0.58803500  0.31221048  0.03168429  1.0
  Cd  Cd139  1  0.58803500  0.64554381  0.03168429  1.0
  Cd  Cd140  1  0.58803500  0.97887714  0.03168429  1.0
  Cd  Cd141  1  0.92136833  0.31221048  0.03168429  1.0
  Cd  Cd142  1  0.92136833  0.64554381  0.03168429  1.0
  Cd  Cd143  1  0.92136833  0.97887714  0.03168429  1.0
  Cd  Cd144  1  0.08803500  0.14285714  0.03571429  1.0
  Cd  Cd145  1  0.08803500  0.47619048  0.03571429  1.0
  Cd  Cd146  1  0.08803500  0.80952381  0.03571429  1.0
  Cd  Cd147  1  0.42136833  0.14285714  0.03571429  1.0
  Cd  Cd148  1  0.42136833  0.47619048  0.03571429  1.0
  Cd  Cd149  1  0.42136833  0.80952381  0.03571429  1.0
  Cd  Cd150  1  0.75470167  0.14285714  0.03571429  1.0
  Cd  Cd151  1  0.75470167  0.47619048  0.03571429  1.0
  Cd  Cd152  1  0.75470167  0.80952381  0.03571429  1.0
  Cd  Cd153  1  0.25470167  0.26190476  0.10714286  1.0
  Cd  Cd154  1  0.25470167  0.59523810  0.10714286  1.0
  Cd  Cd155  1  0.25470167  0.92857143  0.10714286  1.0
  Cd  Cd156  1  0.58803500  0.26190476  0.10714286  1.0
  Cd  Cd157  1  0.58803500  0.59523810  0.10714286  1.0
  Cd  Cd158  1  0.58803500  0.92857143  0.10714286  1.0
  Cd  Cd159  1  0.92136833  0.26190476  0.10714286  1.0
  Cd  Cd160  1  0.92136833  0.59523810  0.10714286  1.0
  Cd  Cd161  1  0.92136833  0.92857143  0.10714286  1.0
  Cd  Cd162  1  0.00000000  0.03504262  0.06538357  1.0
  Cd  Cd163  1  0.00000000  0.36837595  0.06538357  1.0
  Cd  Cd164  1  0.00000000  0.70170929  0.06538357  1.0
  Cd  Cd165  1  0.33333333  0.03504262  0.06538357  1.0
  Cd  Cd166  1  0.33333333  0.36837595  0.06538357  1.0
  Cd  Cd167  1  0.33333333  0.70170929  0.06538357  1.0
  Cd  Cd168  1  0.66666667  0.03504262  0.06538357  1.0
  Cd  Cd169  1  0.66666667  0.36837595  0.06538357  1.0
  Cd  Cd170  1  0.66666667  0.70170929  0.06538357  1.0
  Cd  Cd171  1  0.16666667  0.15409024  0.13681214  1.0
  Cd  Cd172  1  0.16666667  0.48742357  0.13681214  1.0
  Cd  Cd173  1  0.16666667  0.82075690  0.13681214  1.0
  Cd  Cd174  1  0.50000000  0.15409024  0.13681214  1.0
  Cd  Cd175  1  0.50000000  0.48742357  0.13681214  1.0
  Cd  Cd176  1  0.50000000  0.82075690  0.13681214  1.0
  Cd  Cd177  1  0.83333333  0.15409024  0.13681214  1.0
  Cd  Cd178  1  0.83333333  0.48742357  0.13681214  1.0
  Cd  Cd179  1  0.83333333  0.82075690  0.13681214  1.0
  Cd  Cd180  1  0.33333333  0.20573929  0.07344357  1.0
  Cd  Cd181  1  0.33333333  0.53907262  0.07344357  1.0
  Cd  Cd182  1  0.33333333  0.87240595  0.07344357  1.0
  Cd  Cd183  1  0.66666667  0.20573929  0.07344357  1.0
  Cd  Cd184  1  0.66666667  0.53907262  0.07344357  1.0
  Cd  Cd185  1  0.66666667  0.87240595  0.07344357  1.0
  Cd  Cd186  1  1.00000000  0.20573929  0.07344357  1.0
  Cd  Cd187  1  1.00000000  0.53907262  0.07344357  1.0
  Cd  Cd188  1  1.00000000  0.87240595  0.07344357  1.0
  Cd  Cd189  1  0.16666667  0.08669167  0.00201500  1.0
  Cd  Cd190  1  0.16666667  0.42002500  0.00201500  1.0
  Cd  Cd191  1  0.16666667  0.75335833  0.00201500  1.0
  Cd  Cd192  1  0.50000000  0.08669167  0.00201500  1.0
  Cd  Cd193  1  0.50000000  0.42002500  0.00201500  1.0
  Cd  Cd194  1  0.50000000  0.75335833  0.00201500  1.0
  Cd  Cd195  1  0.83333333  0.08669167  0.00201500  1.0
  Cd  Cd196  1  0.83333333  0.42002500  0.00201500  1.0
  Cd  Cd197  1  0.83333333  0.75335833  0.00201500  1.0
  Cd  Cd198  1  0.25470167  0.17857143  0.10714286  1.0
  Cd  Cd199  1  0.25470167  0.51190476  0.10714286  1.0
  Cd  Cd200  1  0.25470167  0.84523810  0.10714286  1.0
  Cd  Cd201  1  0.58803500  0.17857143  0.10714286  1.0
  Cd  Cd202  1  0.58803500  0.51190476  0.10714286  1.0
  Cd  Cd203  1  0.58803500  0.84523810  0.10714286  1.0
  Cd  Cd204  1  0.92136833  0.17857143  0.10714286  1.0
  Cd  Cd205  1  0.92136833  0.51190476  0.10714286  1.0
  Cd  Cd206  1  0.92136833  0.84523810  0.10714286  1.0
  Cd  Cd207  1  0.08803500  0.05952381  0.03571429  1.0
  Cd  Cd208  1  0.08803500  0.39285714  0.03571429  1.0
  Cd  Cd209  1  0.08803500  0.72619048  0.03571429  1.0
  Cd  Cd210  1  0.42136833  0.05952381  0.03571429  1.0
  Cd  Cd211  1  0.42136833  0.39285714  0.03571429  1.0
  Cd  Cd212  1  0.42136833  0.72619048  0.03571429  1.0
  Cd  Cd213  1  0.75470167  0.05952381  0.03571429  1.0
  Cd  Cd214  1  0.75470167  0.39285714  0.03571429  1.0
  Cd  Cd215  1  0.75470167  0.72619048  0.03571429  1.0
  Cd  Cd216  1  0.07863167  0.13363905  0.17454143  1.0
  Cd  Cd217  1  0.07863167  0.46697238  0.17454143  1.0
  Cd  Cd218  1  0.07863167  0.80030571  0.17454143  1.0
  Cd  Cd219  1  0.41196500  0.13363905  0.17454143  1.0
  Cd  Cd220  1  0.41196500  0.46697238  0.17454143  1.0
  Cd  Cd221  1  0.41196500  0.80030571  0.17454143  1.0
  Cd  Cd222  1  0.74529833  0.13363905  0.17454143  1.0
  Cd  Cd223  1  0.74529833  0.46697238  0.17454143  1.0
  Cd  Cd224  1  0.74529833  0.80030571  0.17454143  1.0
  Cd  Cd225  1  0.24529833  0.25268667  0.24597000  1.0
  Cd  Cd226  1  0.24529833  0.58602000  0.24597000  1.0
  Cd  Cd227  1  0.24529833  0.91935333  0.24597000  1.0
  Cd  Cd228  1  0.57863167  0.25268667  0.24597000  1.0
  Cd  Cd229  1  0.57863167  0.58602000  0.24597000  1.0
  Cd  Cd230  1  0.57863167  0.91935333  0.24597000  1.0
  Cd  Cd231  1  0.91196500  0.25268667  0.24597000  1.0
  Cd  Cd232  1  0.91196500  0.58602000  0.24597000  1.0
  Cd  Cd233  1  0.91196500  0.91935333  0.24597000  1.0
  Cd  Cd234  1  0.24529833  0.00268667  0.24597000  1.0
  Cd  Cd235  1  0.24529833  0.33602000  0.24597000  1.0
  Cd  Cd236  1  0.24529833  0.66935333  0.24597000  1.0
  Cd  Cd237  1  0.57863167  0.00268667  0.24597000  1.0
  Cd  Cd238  1  0.57863167  0.33602000  0.24597000  1.0
  Cd  Cd239  1  0.57863167  0.66935333  0.24597000  1.0
  Cd  Cd240  1  0.91196500  0.00268667  0.24597000  1.0
  Cd  Cd241  1  0.91196500  0.33602000  0.24597000  1.0
  Cd  Cd242  1  0.91196500  0.66935333  0.24597000  1.0
  Cd  Cd243  1  0.07863167  0.21697238  0.17454143  1.0
  Cd  Cd244  1  0.07863167  0.55030571  0.17454143  1.0
  Cd  Cd245  1  0.07863167  0.88363905  0.17454143  1.0
  Cd  Cd246  1  0.41196500  0.21697238  0.17454143  1.0
  Cd  Cd247  1  0.41196500  0.55030571  0.17454143  1.0
  Cd  Cd248  1  0.41196500  0.88363905  0.17454143  1.0
  Cd  Cd249  1  0.74529833  0.21697238  0.17454143  1.0
  Cd  Cd250  1  0.74529833  0.55030571  0.17454143  1.0
  Cd  Cd251  1  0.74529833  0.88363905  0.17454143  1.0
  Cd  Cd252  1  0.25470167  0.13363905  0.17454143  1.0
  Cd  Cd253  1  0.25470167  0.46697238  0.17454143  1.0
  Cd  Cd254  1  0.25470167  0.80030571  0.17454143  1.0
  Cd  Cd255  1  0.58803500  0.13363905  0.17454143  1.0
  Cd  Cd256  1  0.58803500  0.46697238  0.17454143  1.0
  Cd  Cd257  1  0.58803500  0.80030571  0.17454143  1.0
  Cd  Cd258  1  0.92136833  0.13363905  0.17454143  1.0
  Cd  Cd259  1  0.92136833  0.46697238  0.17454143  1.0
  Cd  Cd260  1  0.92136833  0.80030571  0.17454143  1.0
  Cd  Cd261  1  0.08803500  0.25268667  0.24597000  1.0
  Cd  Cd262  1  0.08803500  0.58602000  0.24597000  1.0
  Cd  Cd263  1  0.08803500  0.91935333  0.24597000  1.0
  Cd  Cd264  1  0.42136833  0.25268667  0.24597000  1.0
  Cd  Cd265  1  0.42136833  0.58602000  0.24597000  1.0
  Cd  Cd266  1  0.42136833  0.91935333  0.24597000  1.0
  Cd  Cd267  1  0.75470167  0.25268667  0.24597000  1.0
  Cd  Cd268  1  0.75470167  0.58602000  0.24597000  1.0
  Cd  Cd269  1  0.75470167  0.91935333  0.24597000  1.0
  Cd  Cd270  1  0.00000000  0.02716786  0.21630071  1.0
  Cd  Cd271  1  0.00000000  0.36050119  0.21630071  1.0
  Cd  Cd272  1  0.00000000  0.69383452  0.21630071  1.0
  Cd  Cd273  1  0.33333333  0.02716786  0.21630071  1.0
  Cd  Cd274  1  0.33333333  0.36050119  0.21630071  1.0
  Cd  Cd275  1  0.33333333  0.69383452  0.21630071  1.0
  Cd  Cd276  1  0.66666667  0.02716786  0.21630071  1.0
  Cd  Cd277  1  0.66666667  0.36050119  0.21630071  1.0
  Cd  Cd278  1  0.66666667  0.69383452  0.21630071  1.0
  Cd  Cd279  1  0.16666667  0.24145357  0.14487214  1.0
  Cd  Cd280  1  0.16666667  0.57478690  0.14487214  1.0
  Cd  Cd281  1  0.16666667  0.90812024  0.14487214  1.0
  Cd  Cd282  1  0.50000000  0.24145357  0.14487214  1.0
  Cd  Cd283  1  0.50000000  0.57478690  0.14487214  1.0
  Cd  Cd284  1  0.50000000  0.90812024  0.14487214  1.0
  Cd  Cd285  1  0.83333333  0.24145357  0.14487214  1.0
  Cd  Cd286  1  0.83333333  0.57478690  0.14487214  1.0
  Cd  Cd287  1  0.83333333  0.90812024  0.14487214  1.0
  Cd  Cd288  1  0.00000000  0.18980452  0.20824071  1.0
  Cd  Cd289  1  0.00000000  0.52313786  0.20824071  1.0
  Cd  Cd290  1  0.00000000  0.85647119  0.20824071  1.0
  Cd  Cd291  1  0.33333333  0.18980452  0.20824071  1.0
  Cd  Cd292  1  0.33333333  0.52313786  0.20824071  1.0
  Cd  Cd293  1  0.33333333  0.85647119  0.20824071  1.0
  Cd  Cd294  1  0.66666667  0.18980452  0.20824071  1.0
  Cd  Cd295  1  0.66666667  0.52313786  0.20824071  1.0
  Cd  Cd296  1  0.66666667  0.85647119  0.20824071  1.0
  Cd  Cd297  1  0.16666667  0.30885214  0.27966929  1.0
  Cd  Cd298  1  0.16666667  0.64218548  0.27966929  1.0
  Cd  Cd299  1  0.16666667  0.97551881  0.27966929  1.0
  Cd  Cd300  1  0.50000000  0.30885214  0.27966929  1.0
  Cd  Cd301  1  0.50000000  0.64218548  0.27966929  1.0
  Cd  Cd302  1  0.50000000  0.97551881  0.27966929  1.0
  Cd  Cd303  1  0.83333333  0.30885214  0.27966929  1.0
  Cd  Cd304  1  0.83333333  0.64218548  0.27966929  1.0
  Cd  Cd305  1  0.83333333  0.97551881  0.27966929  1.0
  Cd  Cd306  1  0.07863167  0.08333333  0.25000000  1.0
  Cd  Cd307  1  0.07863167  0.41666667  0.25000000  1.0
  Cd  Cd308  1  0.07863167  0.75000000  0.25000000  1.0
  Cd  Cd309  1  0.41196500  0.08333333  0.25000000  1.0
  Cd  Cd310  1  0.41196500  0.41666667  0.25000000  1.0
  Cd  Cd311  1  0.41196500  0.75000000  0.25000000  1.0
  Cd  Cd312  1  0.74529833  0.08333333  0.25000000  1.0
  Cd  Cd313  1  0.74529833  0.41666667  0.25000000  1.0
  Cd  Cd314  1  0.74529833  0.75000000  0.25000000  1.0
  Cd  Cd315  1  0.24529833  0.29761905  0.17857143  1.0
  Cd  Cd316  1  0.24529833  0.63095238  0.17857143  1.0
  Cd  Cd317  1  0.24529833  0.96428571  0.17857143  1.0
  Cd  Cd318  1  0.57863167  0.29761905  0.17857143  1.0
  Cd  Cd319  1  0.57863167  0.63095238  0.17857143  1.0
  Cd  Cd320  1  0.57863167  0.96428571  0.17857143  1.0
  Cd  Cd321  1  0.91196500  0.29761905  0.17857143  1.0
  Cd  Cd322  1  0.91196500  0.63095238  0.17857143  1.0
  Cd  Cd323  1  0.91196500  0.96428571  0.17857143  1.0
  Cd  Cd324  1  0.24529833  0.04761905  0.17857143  1.0
  Cd  Cd325  1  0.24529833  0.38095238  0.17857143  1.0
  Cd  Cd326  1  0.24529833  0.71428571  0.17857143  1.0
  Cd  Cd327  1  0.57863167  0.04761905  0.17857143  1.0
  Cd  Cd328  1  0.57863167  0.38095238  0.17857143  1.0
  Cd  Cd329  1  0.57863167  0.71428571  0.17857143  1.0
  Cd  Cd330  1  0.91196500  0.04761905  0.17857143  1.0
  Cd  Cd331  1  0.91196500  0.38095238  0.17857143  1.0
  Cd  Cd332  1  0.91196500  0.71428571  0.17857143  1.0
  Cd  Cd333  1  0.07863167  0.16666667  0.25000000  1.0
  Cd  Cd334  1  0.07863167  0.50000000  0.25000000  1.0
  Cd  Cd335  1  0.07863167  0.83333333  0.25000000  1.0
  Cd  Cd336  1  0.41196500  0.16666667  0.25000000  1.0
  Cd  Cd337  1  0.41196500  0.50000000  0.25000000  1.0
  Cd  Cd338  1  0.41196500  0.83333333  0.25000000  1.0
  Cd  Cd339  1  0.74529833  0.16666667  0.25000000  1.0
  Cd  Cd340  1  0.74529833  0.50000000  0.25000000  1.0
  Cd  Cd341  1  0.74529833  0.83333333  0.25000000  1.0
  Cd  Cd342  1  0.08803500  0.00268667  0.24597000  1.0
  Cd  Cd343  1  0.08803500  0.33602000  0.24597000  1.0
  Cd  Cd344  1  0.08803500  0.66935333  0.24597000  1.0
  Cd  Cd345  1  0.42136833  0.00268667  0.24597000  1.0
  Cd  Cd346  1  0.42136833  0.33602000  0.24597000  1.0
  Cd  Cd347  1  0.42136833  0.66935333  0.24597000  1.0
  Cd  Cd348  1  0.75470167  0.00268667  0.24597000  1.0
  Cd  Cd349  1  0.75470167  0.33602000  0.24597000  1.0
  Cd  Cd350  1  0.75470167  0.66935333  0.24597000  1.0
  Cd  Cd351  1  0.25470167  0.21697238  0.17454143  1.0
  Cd  Cd352  1  0.25470167  0.55030571  0.17454143  1.0
  Cd  Cd353  1  0.25470167  0.88363905  0.17454143  1.0
  Cd  Cd354  1  0.58803500  0.21697238  0.17454143  1.0
  Cd  Cd355  1  0.58803500  0.55030571  0.17454143  1.0
  Cd  Cd356  1  0.58803500  0.88363905  0.17454143  1.0
  Cd  Cd357  1  0.92136833  0.21697238  0.17454143  1.0
  Cd  Cd358  1  0.92136833  0.55030571  0.17454143  1.0
  Cd  Cd359  1  0.92136833  0.88363905  0.17454143  1.0
  Cd  Cd360  1  0.08803500  0.04761905  0.17857143  1.0
  Cd  Cd361  1  0.08803500  0.38095238  0.17857143  1.0
  Cd  Cd362  1  0.08803500  0.71428571  0.17857143  1.0
  Cd  Cd363  1  0.42136833  0.04761905  0.17857143  1.0
  Cd  Cd364  1  0.42136833  0.38095238  0.17857143  1.0
  Cd  Cd365  1  0.42136833  0.71428571  0.17857143  1.0
  Cd  Cd366  1  0.75470167  0.04761905  0.17857143  1.0
  Cd  Cd367  1  0.75470167  0.38095238  0.17857143  1.0
  Cd  Cd368  1  0.75470167  0.71428571  0.17857143  1.0
  Cd  Cd369  1  0.25470167  0.16666667  0.25000000  1.0
  Cd  Cd370  1  0.25470167  0.50000000  0.25000000  1.0
  Cd  Cd371  1  0.25470167  0.83333333  0.25000000  1.0
  Cd  Cd372  1  0.58803500  0.16666667  0.25000000  1.0
  Cd  Cd373  1  0.58803500  0.50000000  0.25000000  1.0
  Cd  Cd374  1  0.58803500  0.83333333  0.25000000  1.0
  Cd  Cd375  1  0.92136833  0.16666667  0.25000000  1.0
  Cd  Cd376  1  0.92136833  0.50000000  0.25000000  1.0
  Cd  Cd377  1  0.92136833  0.83333333  0.25000000  1.0
  Cd  Cd378  1  0.00000000  0.27313786  0.20824071  1.0
  Cd  Cd379  1  0.00000000  0.60647119  0.20824071  1.0
  Cd  Cd380  1  0.00000000  0.93980452  0.20824071  1.0
  Cd  Cd381  1  0.33333333  0.27313786  0.20824071  1.0
  Cd  Cd382  1  0.33333333  0.60647119  0.20824071  1.0
  Cd  Cd383  1  0.33333333  0.93980452  0.20824071  1.0
  Cd  Cd384  1  0.66666667  0.27313786  0.20824071  1.0
  Cd  Cd385  1  0.66666667  0.60647119  0.20824071  1.0
  Cd  Cd386  1  0.66666667  0.93980452  0.20824071  1.0
  Cd  Cd387  1  0.16666667  0.05885214  0.27966929  1.0
  Cd  Cd388  1  0.16666667  0.39218548  0.27966929  1.0
  Cd  Cd389  1  0.16666667  0.72551881  0.27966929  1.0
  Cd  Cd390  1  0.50000000  0.05885214  0.27966929  1.0
  Cd  Cd391  1  0.50000000  0.39218548  0.27966929  1.0
  Cd  Cd392  1  0.50000000  0.72551881  0.27966929  1.0
  Cd  Cd393  1  0.83333333  0.05885214  0.27966929  1.0
  Cd  Cd394  1  0.83333333  0.39218548  0.27966929  1.0
  Cd  Cd395  1  0.83333333  0.72551881  0.27966929  1.0
  Cd  Cd396  1  0.33333333  0.11050119  0.21630071  1.0
  Cd  Cd397  1  0.33333333  0.44383452  0.21630071  1.0
  Cd  Cd398  1  0.33333333  0.77716786  0.21630071  1.0
  Cd  Cd399  1  0.66666667  0.11050119  0.21630071  1.0
  Cd  Cd400  1  0.66666667  0.44383452  0.21630071  1.0
  Cd  Cd401  1  0.66666667  0.77716786  0.21630071  1.0
  Cd  Cd402  1  1.00000000  0.11050119  0.21630071  1.0
  Cd  Cd403  1  1.00000000  0.44383452  0.21630071  1.0
  Cd  Cd404  1  1.00000000  0.77716786  0.21630071  1.0
  Cd  Cd405  1  0.16666667  0.32478690  0.14487214  1.0
  Cd  Cd406  1  0.16666667  0.65812024  0.14487214  1.0
  Cd  Cd407  1  0.16666667  0.99145357  0.14487214  1.0
  Cd  Cd408  1  0.50000000  0.32478690  0.14487214  1.0
  Cd  Cd409  1  0.50000000  0.65812024  0.14487214  1.0
  Cd  Cd410  1  0.50000000  0.99145357  0.14487214  1.0
  Cd  Cd411  1  0.83333333  0.32478690  0.14487214  1.0
  Cd  Cd412  1  0.83333333  0.65812024  0.14487214  1.0
  Cd  Cd413  1  0.83333333  0.99145357  0.14487214  1.0
  Cd  Cd414  1  0.25470167  0.08333333  0.25000000  1.0
  Cd  Cd415  1  0.25470167  0.41666667  0.25000000  1.0
  Cd  Cd416  1  0.25470167  0.75000000  0.25000000  1.0
  Cd  Cd417  1  0.58803500  0.08333333  0.25000000  1.0
  Cd  Cd418  1  0.58803500  0.41666667  0.25000000  1.0
  Cd  Cd419  1  0.58803500  0.75000000  0.25000000  1.0
  Cd  Cd420  1  0.92136833  0.08333333  0.25000000  1.0
  Cd  Cd421  1  0.92136833  0.41666667  0.25000000  1.0
  Cd  Cd422  1  0.92136833  0.75000000  0.25000000  1.0
  Cd  Cd423  1  0.08803500  0.29761905  0.17857143  1.0
  Cd  Cd424  1  0.08803500  0.63095238  0.17857143  1.0
  Cd  Cd425  1  0.08803500  0.96428571  0.17857143  1.0
  Cd  Cd426  1  0.42136833  0.29761905  0.17857143  1.0
  Cd  Cd427  1  0.42136833  0.63095238  0.17857143  1.0
  Cd  Cd428  1  0.42136833  0.96428571  0.17857143  1.0
  Cd  Cd429  1  0.75470167  0.29761905  0.17857143  1.0
  Cd  Cd430  1  0.75470167  0.63095238  0.17857143  1.0
  Cd  Cd431  1  0.75470167  0.96428571  0.17857143  1.0
  Cd  Cd432  1  0.07863167  0.03840095  0.31739857  1.0
  Cd  Cd433  1  0.07863167  0.37173429  0.31739857  1.0
  Cd  Cd434  1  0.07863167  0.70506762  0.31739857  1.0
  Cd  Cd435  1  0.41196500  0.03840095  0.31739857  1.0
  Cd  Cd436  1  0.41196500  0.37173429  0.31739857  1.0
  Cd  Cd437  1  0.41196500  0.70506762  0.31739857  1.0
  Cd  Cd438  1  0.74529833  0.03840095  0.31739857  1.0
  Cd  Cd439  1  0.74529833  0.37173429  0.31739857  1.0
  Cd  Cd440  1  0.74529833  0.70506762  0.31739857  1.0
  Cd  Cd441  1  0.24529833  0.15744857  0.38882714  1.0
  Cd  Cd442  1  0.24529833  0.49078190  0.38882714  1.0
  Cd  Cd443  1  0.24529833  0.82411524  0.38882714  1.0
  Cd  Cd444  1  0.57863167  0.15744857  0.38882714  1.0
  Cd  Cd445  1  0.57863167  0.49078190  0.38882714  1.0
  Cd  Cd446  1  0.57863167  0.82411524  0.38882714  1.0
  Cd  Cd447  1  0.91196500  0.15744857  0.38882714  1.0
  Cd  Cd448  1  0.91196500  0.49078190  0.38882714  1.0
  Cd  Cd449  1  0.91196500  0.82411524  0.38882714  1.0
  Cd  Cd450  1  0.24529833  0.24078190  0.38882714  1.0
  Cd  Cd451  1  0.24529833  0.57411524  0.38882714  1.0
  Cd  Cd452  1  0.24529833  0.90744857  0.38882714  1.0
  Cd  Cd453  1  0.57863167  0.24078190  0.38882714  1.0
  Cd  Cd454  1  0.57863167  0.57411524  0.38882714  1.0
  Cd  Cd455  1  0.57863167  0.90744857  0.38882714  1.0
  Cd  Cd456  1  0.91196500  0.24078190  0.38882714  1.0
  Cd  Cd457  1  0.91196500  0.57411524  0.38882714  1.0
  Cd  Cd458  1  0.91196500  0.90744857  0.38882714  1.0
  Cd  Cd459  1  0.07863167  0.12173429  0.31739857  1.0
  Cd  Cd460  1  0.07863167  0.45506762  0.31739857  1.0
  Cd  Cd461  1  0.07863167  0.78840095  0.31739857  1.0
  Cd  Cd462  1  0.41196500  0.12173429  0.31739857  1.0
  Cd  Cd463  1  0.41196500  0.45506762  0.31739857  1.0
  Cd  Cd464  1  0.41196500  0.78840095  0.31739857  1.0
  Cd  Cd465  1  0.74529833  0.12173429  0.31739857  1.0
  Cd  Cd466  1  0.74529833  0.45506762  0.31739857  1.0
  Cd  Cd467  1  0.74529833  0.78840095  0.31739857  1.0
  Cd  Cd468  1  0.25470167  0.03840095  0.31739857  1.0
  Cd  Cd469  1  0.25470167  0.37173429  0.31739857  1.0
  Cd  Cd470  1  0.25470167  0.70506762  0.31739857  1.0
  Cd  Cd471  1  0.58803500  0.03840095  0.31739857  1.0
  Cd  Cd472  1  0.58803500  0.37173429  0.31739857  1.0
  Cd  Cd473  1  0.58803500  0.70506762  0.31739857  1.0
  Cd  Cd474  1  0.92136833  0.03840095  0.31739857  1.0
  Cd  Cd475  1  0.92136833  0.37173429  0.31739857  1.0
  Cd  Cd476  1  0.92136833  0.70506762  0.31739857  1.0
  Cd  Cd477  1  0.08803500  0.15744857  0.38882714  1.0
  Cd  Cd478  1  0.08803500  0.49078190  0.38882714  1.0
  Cd  Cd479  1  0.08803500  0.82411524  0.38882714  1.0
  Cd  Cd480  1  0.42136833  0.15744857  0.38882714  1.0
  Cd  Cd481  1  0.42136833  0.49078190  0.38882714  1.0
  Cd  Cd482  1  0.42136833  0.82411524  0.38882714  1.0
  Cd  Cd483  1  0.75470167  0.15744857  0.38882714  1.0
  Cd  Cd484  1  0.75470167  0.49078190  0.38882714  1.0
  Cd  Cd485  1  0.75470167  0.82411524  0.38882714  1.0
  Cd  Cd486  1  0.00000000  0.26526310  0.35915786  1.0
  Cd  Cd487  1  0.00000000  0.59859643  0.35915786  1.0
  Cd  Cd488  1  0.00000000  0.93192976  0.35915786  1.0
  Cd  Cd489  1  0.33333333  0.26526310  0.35915786  1.0
  Cd  Cd490  1  0.33333333  0.59859643  0.35915786  1.0
  Cd  Cd491  1  0.33333333  0.93192976  0.35915786  1.0
  Cd  Cd492  1  0.66666667  0.26526310  0.35915786  1.0
  Cd  Cd493  1  0.66666667  0.59859643  0.35915786  1.0
  Cd  Cd494  1  0.66666667  0.93192976  0.35915786  1.0
  Cd  Cd495  1  0.16666667  0.14621548  0.28772929  1.0
  Cd  Cd496  1  0.16666667  0.47954881  0.28772929  1.0
  Cd  Cd497  1  0.16666667  0.81288214  0.28772929  1.0
  Cd  Cd498  1  0.50000000  0.14621548  0.28772929  1.0
  Cd  Cd499  1  0.50000000  0.47954881  0.28772929  1.0
  Cd  Cd500  1  0.50000000  0.81288214  0.28772929  1.0
  Cd  Cd501  1  0.83333333  0.14621548  0.28772929  1.0
  Cd  Cd502  1  0.83333333  0.47954881  0.28772929  1.0
  Cd  Cd503  1  0.83333333  0.81288214  0.28772929  1.0
  Cd  Cd504  1  0.00000000  0.09456643  0.35109786  1.0
  Cd  Cd505  1  0.00000000  0.42789976  0.35109786  1.0
  Cd  Cd506  1  0.00000000  0.76123310  0.35109786  1.0
  Cd  Cd507  1  0.33333333  0.09456643  0.35109786  1.0
  Cd  Cd508  1  0.33333333  0.42789976  0.35109786  1.0
  Cd  Cd509  1  0.33333333  0.76123310  0.35109786  1.0
  Cd  Cd510  1  0.66666667  0.09456643  0.35109786  1.0
  Cd  Cd511  1  0.66666667  0.42789976  0.35109786  1.0
  Cd  Cd512  1  0.66666667  0.76123310  0.35109786  1.0
  Cd  Cd513  1  0.16666667  0.21361405  0.42252643  1.0
  Cd  Cd514  1  0.16666667  0.54694738  0.42252643  1.0
  Cd  Cd515  1  0.16666667  0.88028071  0.42252643  1.0
  Cd  Cd516  1  0.50000000  0.21361405  0.42252643  1.0
  Cd  Cd517  1  0.50000000  0.54694738  0.42252643  1.0
  Cd  Cd518  1  0.50000000  0.88028071  0.42252643  1.0
  Cd  Cd519  1  0.83333333  0.21361405  0.42252643  1.0
  Cd  Cd520  1  0.83333333  0.54694738  0.42252643  1.0
  Cd  Cd521  1  0.83333333  0.88028071  0.42252643  1.0
  Cd  Cd522  1  0.07863167  0.32142857  0.39285714  1.0
  Cd  Cd523  1  0.07863167  0.65476190  0.39285714  1.0
  Cd  Cd524  1  0.07863167  0.98809524  0.39285714  1.0
  Cd  Cd525  1  0.41196500  0.32142857  0.39285714  1.0
  Cd  Cd526  1  0.41196500  0.65476190  0.39285714  1.0
  Cd  Cd527  1  0.41196500  0.98809524  0.39285714  1.0
  Cd  Cd528  1  0.74529833  0.32142857  0.39285714  1.0
  Cd  Cd529  1  0.74529833  0.65476190  0.39285714  1.0
  Cd  Cd530  1  0.74529833  0.98809524  0.39285714  1.0
  Cd  Cd531  1  0.24529833  0.20238095  0.32142857  1.0
  Cd  Cd532  1  0.24529833  0.53571429  0.32142857  1.0
  Cd  Cd533  1  0.24529833  0.86904762  0.32142857  1.0
  Cd  Cd534  1  0.57863167  0.20238095  0.32142857  1.0
  Cd  Cd535  1  0.57863167  0.53571429  0.32142857  1.0
  Cd  Cd536  1  0.57863167  0.86904762  0.32142857  1.0
  Cd  Cd537  1  0.91196500  0.20238095  0.32142857  1.0
  Cd  Cd538  1  0.91196500  0.53571429  0.32142857  1.0
  Cd  Cd539  1  0.91196500  0.86904762  0.32142857  1.0
  Cd  Cd540  1  0.24529833  0.28571429  0.32142857  1.0
  Cd  Cd541  1  0.24529833  0.61904762  0.32142857  1.0
  Cd  Cd542  1  0.24529833  0.95238095  0.32142857  1.0
  Cd  Cd543  1  0.57863167  0.28571429  0.32142857  1.0
  Cd  Cd544  1  0.57863167  0.61904762  0.32142857  1.0
  Cd  Cd545  1  0.57863167  0.95238095  0.32142857  1.0
  Cd  Cd546  1  0.91196500  0.28571429  0.32142857  1.0
  Cd  Cd547  1  0.91196500  0.61904762  0.32142857  1.0
  Cd  Cd548  1  0.91196500  0.95238095  0.32142857  1.0
  Cd  Cd549  1  0.07863167  0.07142857  0.39285714  1.0
  Cd  Cd550  1  0.07863167  0.40476190  0.39285714  1.0
  Cd  Cd551  1  0.07863167  0.73809524  0.39285714  1.0
  Cd  Cd552  1  0.41196500  0.07142857  0.39285714  1.0
  Cd  Cd553  1  0.41196500  0.40476190  0.39285714  1.0
  Cd  Cd554  1  0.41196500  0.73809524  0.39285714  1.0
  Cd  Cd555  1  0.74529833  0.07142857  0.39285714  1.0
  Cd  Cd556  1  0.74529833  0.40476190  0.39285714  1.0
  Cd  Cd557  1  0.74529833  0.73809524  0.39285714  1.0
  Cd  Cd558  1  0.08803500  0.24078190  0.38882714  1.0
  Cd  Cd559  1  0.08803500  0.57411524  0.38882714  1.0
  Cd  Cd560  1  0.08803500  0.90744857  0.38882714  1.0
  Cd  Cd561  1  0.42136833  0.24078190  0.38882714  1.0
  Cd  Cd562  1  0.42136833  0.57411524  0.38882714  1.0
  Cd  Cd563  1  0.42136833  0.90744857  0.38882714  1.0
  Cd  Cd564  1  0.75470167  0.24078190  0.38882714  1.0
  Cd  Cd565  1  0.75470167  0.57411524  0.38882714  1.0
  Cd  Cd566  1  0.75470167  0.90744857  0.38882714  1.0
  Cd  Cd567  1  0.25470167  0.12173429  0.31739857  1.0
  Cd  Cd568  1  0.25470167  0.45506762  0.31739857  1.0
  Cd  Cd569  1  0.25470167  0.78840095  0.31739857  1.0
  Cd  Cd570  1  0.58803500  0.12173429  0.31739857  1.0
  Cd  Cd571  1  0.58803500  0.45506762  0.31739857  1.0
  Cd  Cd572  1  0.58803500  0.78840095  0.31739857  1.0
  Cd  Cd573  1  0.92136833  0.12173429  0.31739857  1.0
  Cd  Cd574  1  0.92136833  0.45506762  0.31739857  1.0
  Cd  Cd575  1  0.92136833  0.78840095  0.31739857  1.0
  Cd  Cd576  1  0.08803500  0.28571429  0.32142857  1.0
  Cd  Cd577  1  0.08803500  0.61904762  0.32142857  1.0
  Cd  Cd578  1  0.08803500  0.95238095  0.32142857  1.0
  Cd  Cd579  1  0.42136833  0.28571429  0.32142857  1.0
  Cd  Cd580  1  0.42136833  0.61904762  0.32142857  1.0
  Cd  Cd581  1  0.42136833  0.95238095  0.32142857  1.0
  Cd  Cd582  1  0.75470167  0.28571429  0.32142857  1.0
  Cd  Cd583  1  0.75470167  0.61904762  0.32142857  1.0
  Cd  Cd584  1  0.75470167  0.95238095  0.32142857  1.0
  Cd  Cd585  1  0.25470167  0.07142857  0.39285714  1.0
  Cd  Cd586  1  0.25470167  0.40476190  0.39285714  1.0
  Cd  Cd587  1  0.25470167  0.73809524  0.39285714  1.0
  Cd  Cd588  1  0.58803500  0.07142857  0.39285714  1.0
  Cd  Cd589  1  0.58803500  0.40476190  0.39285714  1.0
  Cd  Cd590  1  0.58803500  0.73809524  0.39285714  1.0
  Cd  Cd591  1  0.92136833  0.07142857  0.39285714  1.0
  Cd  Cd592  1  0.92136833  0.40476190  0.39285714  1.0
  Cd  Cd593  1  0.92136833  0.73809524  0.39285714  1.0
  Cd  Cd594  1  0.00000000  0.17789976  0.35109786  1.0
  Cd  Cd595  1  0.00000000  0.51123310  0.35109786  1.0
  Cd  Cd596  1  0.00000000  0.84456643  0.35109786  1.0
  Cd  Cd597  1  0.33333333  0.17789976  0.35109786  1.0
  Cd  Cd598  1  0.33333333  0.51123310  0.35109786  1.0
  Cd  Cd599  1  0.33333333  0.84456643  0.35109786  1.0
  Cd  Cd600  1  0.66666667  0.17789976  0.35109786  1.0
  Cd  Cd601  1  0.66666667  0.51123310  0.35109786  1.0
  Cd  Cd602  1  0.66666667  0.84456643  0.35109786  1.0
  Cd  Cd603  1  0.16666667  0.29694738  0.42252643  1.0
  Cd  Cd604  1  0.16666667  0.63028071  0.42252643  1.0
  Cd  Cd605  1  0.16666667  0.96361405  0.42252643  1.0
  Cd  Cd606  1  0.50000000  0.29694738  0.42252643  1.0
  Cd  Cd607  1  0.50000000  0.63028071  0.42252643  1.0
  Cd  Cd608  1  0.50000000  0.96361405  0.42252643  1.0
  Cd  Cd609  1  0.83333333  0.29694738  0.42252643  1.0
  Cd  Cd610  1  0.83333333  0.63028071  0.42252643  1.0
  Cd  Cd611  1  0.83333333  0.96361405  0.42252643  1.0
  Cd  Cd612  1  0.33333333  0.01526310  0.35915786  1.0
  Cd  Cd613  1  0.33333333  0.34859643  0.35915786  1.0
  Cd  Cd614  1  0.33333333  0.68192976  0.35915786  1.0
  Cd  Cd615  1  0.66666667  0.01526310  0.35915786  1.0
  Cd  Cd616  1  0.66666667  0.34859643  0.35915786  1.0
  Cd  Cd617  1  0.66666667  0.68192976  0.35915786  1.0
  Cd  Cd618  1  1.00000000  0.01526310  0.35915786  1.0
  Cd  Cd619  1  1.00000000  0.34859643  0.35915786  1.0
  Cd  Cd620  1  1.00000000  0.68192976  0.35915786  1.0
  Cd  Cd621  1  0.16666667  0.22954881  0.28772929  1.0
  Cd  Cd622  1  0.16666667  0.56288214  0.28772929  1.0
  Cd  Cd623  1  0.16666667  0.89621548  0.28772929  1.0
  Cd  Cd624  1  0.50000000  0.22954881  0.28772929  1.0
  Cd  Cd625  1  0.50000000  0.56288214  0.28772929  1.0
  Cd  Cd626  1  0.50000000  0.89621548  0.28772929  1.0
  Cd  Cd627  1  0.83333333  0.22954881  0.28772929  1.0
  Cd  Cd628  1  0.83333333  0.56288214  0.28772929  1.0
  Cd  Cd629  1  0.83333333  0.89621548  0.28772929  1.0
  Cd  Cd630  1  0.25470167  0.32142857  0.39285714  1.0
  Cd  Cd631  1  0.25470167  0.65476190  0.39285714  1.0
  Cd  Cd632  1  0.25470167  0.98809524  0.39285714  1.0
  Cd  Cd633  1  0.58803500  0.32142857  0.39285714  1.0
  Cd  Cd634  1  0.58803500  0.65476190  0.39285714  1.0
  Cd  Cd635  1  0.58803500  0.98809524  0.39285714  1.0
  Cd  Cd636  1  0.92136833  0.32142857  0.39285714  1.0
  Cd  Cd637  1  0.92136833  0.65476190  0.39285714  1.0
  Cd  Cd638  1  0.92136833  0.98809524  0.39285714  1.0
  Cd  Cd639  1  0.08803500  0.20238095  0.32142857  1.0
  Cd  Cd640  1  0.08803500  0.53571429  0.32142857  1.0
  Cd  Cd641  1  0.08803500  0.86904762  0.32142857  1.0
  Cd  Cd642  1  0.42136833  0.20238095  0.32142857  1.0
  Cd  Cd643  1  0.42136833  0.53571429  0.32142857  1.0
  Cd  Cd644  1  0.42136833  0.86904762  0.32142857  1.0
  Cd  Cd645  1  0.75470167  0.20238095  0.32142857  1.0
  Cd  Cd646  1  0.75470167  0.53571429  0.32142857  1.0
  Cd  Cd647  1  0.75470167  0.86904762  0.32142857  1.0
  Ni  Ni648  1  0.00000000  0.09667924  0.14084214  1.0
  Ni  Ni649  1  0.00000000  0.43001257  0.14084214  1.0
  Ni  Ni650  1  0.00000000  0.76334590  0.14084214  1.0
  Ni  Ni651  1  0.33333333  0.09667924  0.14084214  1.0
  Ni  Ni652  1  0.33333333  0.43001257  0.14084214  1.0
  Ni  Ni653  1  0.33333333  0.76334590  0.14084214  1.0
  Ni  Ni654  1  0.66666667  0.09667924  0.14084214  1.0
  Ni  Ni655  1  0.66666667  0.43001257  0.14084214  1.0
  Ni  Ni656  1  0.66666667  0.76334590  0.14084214  1.0
  Ni  Ni657  1  0.16666667  0.31096495  0.06941357  1.0
  Ni  Ni658  1  0.16666667  0.64429829  0.06941357  1.0
  Ni  Ni659  1  0.16666667  0.97763162  0.06941357  1.0
  Ni  Ni660  1  0.50000000  0.31096495  0.06941357  1.0
  Ni  Ni661  1  0.50000000  0.64429829  0.06941357  1.0
  Ni  Ni662  1  0.50000000  0.97763162  0.06941357  1.0
  Ni  Ni663  1  0.83333333  0.31096495  0.06941357  1.0
  Ni  Ni664  1  0.83333333  0.64429829  0.06941357  1.0
  Ni  Ni665  1  0.83333333  0.97763162  0.06941357  1.0
  Ni  Ni666  1  0.00000000  0.32618724  0.09985814  1.0
  Ni  Ni667  1  0.00000000  0.65952057  0.09985814  1.0
  Ni  Ni668  1  0.00000000  0.99285390  0.09985814  1.0
  Ni  Ni669  1  0.33333333  0.32618724  0.09985814  1.0
  Ni  Ni670  1  0.33333333  0.65952057  0.09985814  1.0
  Ni  Ni671  1  0.33333333  0.99285390  0.09985814  1.0
  Ni  Ni672  1  0.66666667  0.32618724  0.09985814  1.0
  Ni  Ni673  1  0.66666667  0.65952057  0.09985814  1.0
  Ni  Ni674  1  0.66666667  0.99285390  0.09985814  1.0
  Ni  Ni675  1  0.16666667  0.20713962  0.02842957  1.0
  Ni  Ni676  1  0.16666667  0.54047295  0.02842957  1.0
  Ni  Ni677  1  0.16666667  0.87380629  0.02842957  1.0
  Ni  Ni678  1  0.50000000  0.20713962  0.02842957  1.0
  Ni  Ni679  1  0.50000000  0.54047295  0.02842957  1.0
  Ni  Ni680  1  0.50000000  0.87380629  0.02842957  1.0
  Ni  Ni681  1  0.83333333  0.20713962  0.02842957  1.0
  Ni  Ni682  1  0.83333333  0.54047295  0.02842957  1.0
  Ni  Ni683  1  0.83333333  0.87380629  0.02842957  1.0
  Ni  Ni684  1  0.28551867  0.09492267  0.01847700  1.0
  Ni  Ni685  1  0.28551867  0.42825600  0.01847700  1.0
  Ni  Ni686  1  0.28551867  0.76158933  0.01847700  1.0
  Ni  Ni687  1  0.61885200  0.09492267  0.01847700  1.0
  Ni  Ni688  1  0.61885200  0.42825600  0.01847700  1.0
  Ni  Ni689  1  0.61885200  0.76158933  0.01847700  1.0
  Ni  Ni690  1  0.95218533  0.09492267  0.01847700  1.0
  Ni  Ni691  1  0.95218533  0.42825600  0.01847700  1.0
  Ni  Ni692  1  0.95218533  0.76158933  0.01847700  1.0
  Ni  Ni693  1  0.11885200  0.21397029  0.08990557  1.0
  Ni  Ni694  1  0.11885200  0.54730362  0.08990557  1.0
  Ni  Ni695  1  0.11885200  0.88063695  0.08990557  1.0
  Ni  Ni696  1  0.45218533  0.21397029  0.08990557  1.0
  Ni  Ni697  1  0.45218533  0.54730362  0.08990557  1.0
  Ni  Ni698  1  0.45218533  0.88063695  0.08990557  1.0
  Ni  Ni699  1  0.78551867  0.21397029  0.08990557  1.0
  Ni  Ni700  1  0.78551867  0.54730362  0.08990557  1.0
  Ni  Ni701  1  0.78551867  0.88063695  0.08990557  1.0
  Ni  Ni702  1  0.04781467  0.09492267  0.01847700  1.0
  Ni  Ni703  1  0.04781467  0.42825600  0.01847700  1.0
  Ni  Ni704  1  0.04781467  0.76158933  0.01847700  1.0
  Ni  Ni705  1  0.38114800  0.09492267  0.01847700  1.0
  Ni  Ni706  1  0.38114800  0.42825600  0.01847700  1.0
  Ni  Ni707  1  0.38114800  0.76158933  0.01847700  1.0
  Ni  Ni708  1  0.71448133  0.09492267  0.01847700  1.0
  Ni  Ni709  1  0.71448133  0.42825600  0.01847700  1.0
  Ni  Ni710  1  0.71448133  0.76158933  0.01847700  1.0
  Ni  Ni711  1  0.21448133  0.21397029  0.08990557  1.0
  Ni  Ni712  1  0.21448133  0.54730362  0.08990557  1.0
  Ni  Ni713  1  0.21448133  0.88063695  0.08990557  1.0
  Ni  Ni714  1  0.54781467  0.21397029  0.08990557  1.0
  Ni  Ni715  1  0.54781467  0.54730362  0.08990557  1.0
  Ni  Ni716  1  0.54781467  0.88063695  0.08990557  1.0
  Ni  Ni717  1  0.88114800  0.21397029  0.08990557  1.0
  Ni  Ni718  1  0.88114800  0.54730362  0.08990557  1.0
  Ni  Ni719  1  0.88114800  0.88063695  0.08990557  1.0
  Ni  Ni720  1  0.04781467  0.06252590  0.12035014  1.0
  Ni  Ni721  1  0.04781467  0.39585924  0.12035014  1.0
  Ni  Ni722  1  0.04781467  0.72919257  0.12035014  1.0
  Ni  Ni723  1  0.38114800  0.06252590  0.12035014  1.0
  Ni  Ni724  1  0.38114800  0.39585924  0.12035014  1.0
  Ni  Ni725  1  0.38114800  0.72919257  0.12035014  1.0
  Ni  Ni726  1  0.71448133  0.06252590  0.12035014  1.0
  Ni  Ni727  1  0.71448133  0.39585924  0.12035014  1.0
  Ni  Ni728  1  0.71448133  0.72919257  0.12035014  1.0
  Ni  Ni729  1  0.21448133  0.27681162  0.04892157  1.0
  Ni  Ni730  1  0.21448133  0.61014495  0.04892157  1.0
  Ni  Ni731  1  0.21448133  0.94347829  0.04892157  1.0
  Ni  Ni732  1  0.54781467  0.27681162  0.04892157  1.0
  Ni  Ni733  1  0.54781467  0.61014495  0.04892157  1.0
  Ni  Ni734  1  0.54781467  0.94347829  0.04892157  1.0
  Ni  Ni735  1  0.88114800  0.27681162  0.04892157  1.0
  Ni  Ni736  1  0.88114800  0.61014495  0.04892157  1.0
  Ni  Ni737  1  0.88114800  0.94347829  0.04892157  1.0
  Ni  Ni738  1  0.28551867  0.06252590  0.12035014  1.0
  Ni  Ni739  1  0.28551867  0.39585924  0.12035014  1.0
  Ni  Ni740  1  0.28551867  0.72919257  0.12035014  1.0
  Ni  Ni741  1  0.61885200  0.06252590  0.12035014  1.0
  Ni  Ni742  1  0.61885200  0.39585924  0.12035014  1.0
  Ni  Ni743  1  0.61885200  0.72919257  0.12035014  1.0
  Ni  Ni744  1  0.95218533  0.06252590  0.12035014  1.0
  Ni  Ni745  1  0.95218533  0.39585924  0.12035014  1.0
  Ni  Ni746  1  0.95218533  0.72919257  0.12035014  1.0
  Ni  Ni747  1  0.11885200  0.27681162  0.04892157  1.0
  Ni  Ni748  1  0.11885200  0.61014495  0.04892157  1.0
  Ni  Ni749  1  0.11885200  0.94347829  0.04892157  1.0
  Ni  Ni750  1  0.45218533  0.27681162  0.04892157  1.0
  Ni  Ni751  1  0.45218533  0.61014495  0.04892157  1.0
  Ni  Ni752  1  0.45218533  0.94347829  0.04892157  1.0
  Ni  Ni753  1  0.78551867  0.27681162  0.04892157  1.0
  Ni  Ni754  1  0.78551867  0.61014495  0.04892157  1.0
  Ni  Ni755  1  0.78551867  0.94347829  0.04892157  1.0
  Ni  Ni756  1  0.33333333  0.16459467  0.03896900  1.0
  Ni  Ni757  1  0.33333333  0.49792800  0.03896900  1.0
  Ni  Ni758  1  0.33333333  0.83126133  0.03896900  1.0
  Ni  Ni759  1  0.66666667  0.16459467  0.03896900  1.0
  Ni  Ni760  1  0.66666667  0.49792800  0.03896900  1.0
  Ni  Ni761  1  0.66666667  0.83126133  0.03896900  1.0
  Ni  Ni762  1  1.00000000  0.16459467  0.03896900  1.0
  Ni  Ni763  1  1.00000000  0.49792800  0.03896900  1.0
  Ni  Ni764  1  1.00000000  0.83126133  0.03896900  1.0
  Ni  Ni765  1  0.16666667  0.28364229  0.11039757  1.0
  Ni  Ni766  1  0.16666667  0.61697562  0.11039757  1.0
  Ni  Ni767  1  0.16666667  0.95030895  0.11039757  1.0
  Ni  Ni768  1  0.50000000  0.28364229  0.11039757  1.0
  Ni  Ni769  1  0.50000000  0.61697562  0.11039757  1.0
  Ni  Ni770  1  0.50000000  0.95030895  0.11039757  1.0
  Ni  Ni771  1  0.83333333  0.28364229  0.11039757  1.0
  Ni  Ni772  1  0.83333333  0.61697562  0.11039757  1.0
  Ni  Ni773  1  0.83333333  0.95030895  0.11039757  1.0
  Ni  Ni774  1  0.33333333  0.29886457  0.14084214  1.0
  Ni  Ni775  1  0.33333333  0.63219790  0.14084214  1.0
  Ni  Ni776  1  0.33333333  0.96553124  0.14084214  1.0
  Ni  Ni777  1  0.66666667  0.29886457  0.14084214  1.0
  Ni  Ni778  1  0.66666667  0.63219790  0.14084214  1.0
  Ni  Ni779  1  0.66666667  0.96553124  0.14084214  1.0
  Ni  Ni780  1  1.00000000  0.29886457  0.14084214  1.0
  Ni  Ni781  1  0.00000000  0.63219790  0.14084214  1.0
  Ni  Ni782  1  0.00000000  0.96553124  0.14084214  1.0
  Ni  Ni783  1  0.16666667  0.17981695  0.06941357  1.0
  Ni  Ni784  1  0.16666667  0.51315029  0.06941357  1.0
  Ni  Ni785  1  0.16666667  0.84648362  0.06941357  1.0
  Ni  Ni786  1  0.50000000  0.17981695  0.06941357  1.0
  Ni  Ni787  1  0.50000000  0.51315029  0.06941357  1.0
  Ni  Ni788  1  0.50000000  0.84648362  0.06941357  1.0
  Ni  Ni789  1  0.83333333  0.17981695  0.06941357  1.0
  Ni  Ni790  1  0.83333333  0.51315029  0.06941357  1.0
  Ni  Ni791  1  0.83333333  0.84648362  0.06941357  1.0
  Ni  Ni792  1  0.08333333  0.13824810  0.10512786  1.0
  Ni  Ni793  1  0.08333333  0.47158143  0.10512786  1.0
  Ni  Ni794  1  0.08333333  0.80491476  0.10512786  1.0
  Ni  Ni795  1  0.41666667  0.13824810  0.10512786  1.0
  Ni  Ni796  1  0.41666667  0.47158143  0.10512786  1.0
  Ni  Ni797  1  0.41666667  0.80491476  0.10512786  1.0
  Ni  Ni798  1  0.75000000  0.13824810  0.10512786  1.0
  Ni  Ni799  1  0.75000000  0.47158143  0.10512786  1.0
  Ni  Ni800  1  0.75000000  0.80491476  0.10512786  1.0
  Ni  Ni801  1  0.25000000  0.01920048  0.03369929  1.0
  Ni  Ni802  1  0.25000000  0.35253381  0.03369929  1.0
  Ni  Ni803  1  0.25000000  0.68586714  0.03369929  1.0
  Ni  Ni804  1  0.58333333  0.01920048  0.03369929  1.0
  Ni  Ni805  1  0.58333333  0.35253381  0.03369929  1.0
  Ni  Ni806  1  0.58333333  0.68586714  0.03369929  1.0
  Ni  Ni807  1  0.91666667  0.01920048  0.03369929  1.0
  Ni  Ni808  1  0.91666667  0.35253381  0.03369929  1.0
  Ni  Ni809  1  0.91666667  0.68586714  0.03369929  1.0
  Ni  Ni810  1  0.25000000  0.13824810  0.10512786  1.0
  Ni  Ni811  1  0.25000000  0.47158143  0.10512786  1.0
  Ni  Ni812  1  0.25000000  0.80491476  0.10512786  1.0
  Ni  Ni813  1  0.58333333  0.13824810  0.10512786  1.0
  Ni  Ni814  1  0.58333333  0.47158143  0.10512786  1.0
  Ni  Ni815  1  0.58333333  0.80491476  0.10512786  1.0
  Ni  Ni816  1  0.91666667  0.13824810  0.10512786  1.0
  Ni  Ni817  1  0.91666667  0.47158143  0.10512786  1.0
  Ni  Ni818  1  0.91666667  0.80491476  0.10512786  1.0
  Ni  Ni819  1  0.08333333  0.01920048  0.03369929  1.0
  Ni  Ni820  1  0.08333333  0.35253381  0.03369929  1.0
  Ni  Ni821  1  0.08333333  0.68586714  0.03369929  1.0
  Ni  Ni822  1  0.41666667  0.01920048  0.03369929  1.0
  Ni  Ni823  1  0.41666667  0.35253381  0.03369929  1.0
  Ni  Ni824  1  0.41666667  0.68586714  0.03369929  1.0
  Ni  Ni825  1  0.75000000  0.01920048  0.03369929  1.0
  Ni  Ni826  1  0.75000000  0.35253381  0.03369929  1.0
  Ni  Ni827  1  0.75000000  0.68586714  0.03369929  1.0
  Ni  Ni828  1  0.00000000  0.24539095  0.06941357  1.0
  Ni  Ni829  1  0.00000000  0.57872429  0.06941357  1.0
  Ni  Ni830  1  0.00000000  0.91205762  0.06941357  1.0
  Ni  Ni831  1  0.33333333  0.24539095  0.06941357  1.0
  Ni  Ni832  1  0.33333333  0.57872429  0.06941357  1.0
  Ni  Ni833  1  0.33333333  0.91205762  0.06941357  1.0
  Ni  Ni834  1  0.66666667  0.24539095  0.06941357  1.0
  Ni  Ni835  1  0.66666667  0.57872429  0.06941357  1.0
  Ni  Ni836  1  0.66666667  0.91205762  0.06941357  1.0
  Ni  Ni837  1  0.16666667  0.03110524  0.14084214  1.0
  Ni  Ni838  1  0.16666667  0.36443857  0.14084214  1.0
  Ni  Ni839  1  0.16666667  0.69777190  0.14084214  1.0
  Ni  Ni840  1  0.50000000  0.03110524  0.14084214  1.0
  Ni  Ni841  1  0.50000000  0.36443857  0.14084214  1.0
  Ni  Ni842  1  0.50000000  0.69777190  0.14084214  1.0
  Ni  Ni843  1  0.83333333  0.03110524  0.14084214  1.0
  Ni  Ni844  1  0.83333333  0.36443857  0.14084214  1.0
  Ni  Ni845  1  0.83333333  0.69777190  0.14084214  1.0
  Ni  Ni846  1  0.00000000  0.19777190  0.14084214  1.0
  Ni  Ni847  1  0.00000000  0.53110524  0.14084214  1.0
  Ni  Ni848  1  0.00000000  0.86443857  0.14084214  1.0
  Ni  Ni849  1  0.33333333  0.19777190  0.14084214  1.0
  Ni  Ni850  1  0.33333333  0.53110524  0.14084214  1.0
  Ni  Ni851  1  0.33333333  0.86443857  0.14084214  1.0
  Ni  Ni852  1  0.66666667  0.19777190  0.14084214  1.0
  Ni  Ni853  1  0.66666667  0.53110524  0.14084214  1.0
  Ni  Ni854  1  0.66666667  0.86443857  0.14084214  1.0
  Ni  Ni855  1  0.16666667  0.07872429  0.06941357  1.0
  Ni  Ni856  1  0.16666667  0.41205762  0.06941357  1.0
  Ni  Ni857  1  0.16666667  0.74539095  0.06941357  1.0
  Ni  Ni858  1  0.50000000  0.07872429  0.06941357  1.0
  Ni  Ni859  1  0.50000000  0.41205762  0.06941357  1.0
  Ni  Ni860  1  0.50000000  0.74539095  0.06941357  1.0
  Ni  Ni861  1  0.83333333  0.07872429  0.06941357  1.0
  Ni  Ni862  1  0.83333333  0.41205762  0.06941357  1.0
  Ni  Ni863  1  0.83333333  0.74539095  0.06941357  1.0
  Ni  Ni864  1  0.00000000  0.00144114  0.28369929  1.0
  Ni  Ni865  1  0.00000000  0.33477448  0.28369929  1.0
  Ni  Ni866  1  0.00000000  0.66810781  0.28369929  1.0
  Ni  Ni867  1  0.33333333  0.00144114  0.28369929  1.0
  Ni  Ni868  1  0.33333333  0.33477448  0.28369929  1.0
  Ni  Ni869  1  0.33333333  0.66810781  0.28369929  1.0
  Ni  Ni870  1  0.66666667  0.00144114  0.28369929  1.0
  Ni  Ni871  1  0.66666667  0.33477448  0.28369929  1.0
  Ni  Ni872  1  0.66666667  0.66810781  0.28369929  1.0
  Ni  Ni873  1  0.16666667  0.21572686  0.21227071  1.0
  Ni  Ni874  1  0.16666667  0.54906019  0.21227071  1.0
  Ni  Ni875  1  0.16666667  0.88239352  0.21227071  1.0
  Ni  Ni876  1  0.50000000  0.21572686  0.21227071  1.0
  Ni  Ni877  1  0.50000000  0.54906019  0.21227071  1.0
  Ni  Ni878  1  0.50000000  0.88239352  0.21227071  1.0
  Ni  Ni879  1  0.83333333  0.21572686  0.21227071  1.0
  Ni  Ni880  1  0.83333333  0.54906019  0.21227071  1.0
  Ni  Ni881  1  0.83333333  0.88239352  0.21227071  1.0
  Ni  Ni882  1  0.00000000  0.23094914  0.24271529  1.0
  Ni  Ni883  1  0.00000000  0.56428248  0.24271529  1.0
  Ni  Ni884  1  0.00000000  0.89761581  0.24271529  1.0
  Ni  Ni885  1  0.33333333  0.23094914  0.24271529  1.0
  Ni  Ni886  1  0.33333333  0.56428248  0.24271529  1.0
  Ni  Ni887  1  0.33333333  0.89761581  0.24271529  1.0
  Ni  Ni888  1  0.66666667  0.23094914  0.24271529  1.0
  Ni  Ni889  1  0.66666667  0.56428248  0.24271529  1.0
  Ni  Ni890  1  0.66666667  0.89761581  0.24271529  1.0
  Ni  Ni891  1  0.16666667  0.11190152  0.17128671  1.0
  Ni  Ni892  1  0.16666667  0.44523486  0.17128671  1.0
  Ni  Ni893  1  0.16666667  0.77856819  0.17128671  1.0
  Ni  Ni894  1  0.50000000  0.11190152  0.17128671  1.0
  Ni  Ni895  1  0.50000000  0.44523486  0.17128671  1.0
  Ni  Ni896  1  0.50000000  0.77856819  0.17128671  1.0
  Ni  Ni897  1  0.83333333  0.11190152  0.17128671  1.0
  Ni  Ni898  1  0.83333333  0.44523486  0.17128671  1.0
  Ni  Ni899  1  0.83333333  0.77856819  0.17128671  1.0
  Ni  Ni900  1  0.28551867  0.33301790  0.16133414  1.0
  Ni  Ni901  1  0.28551867  0.66635124  0.16133414  1.0
  Ni  Ni902  1  0.28551867  0.99968457  0.16133414  1.0
  Ni  Ni903  1  0.61885200  0.33301790  0.16133414  1.0
  Ni  Ni904  1  0.61885200  0.66635124  0.16133414  1.0
  Ni  Ni905  1  0.61885200  0.99968457  0.16133414  1.0
  Ni  Ni906  1  0.95218533  0.33301790  0.16133414  1.0
  Ni  Ni907  1  0.95218533  0.66635124  0.16133414  1.0
  Ni  Ni908  1  0.95218533  0.99968457  0.16133414  1.0
  Ni  Ni909  1  0.11885200  0.11873219  0.23276271  1.0
  Ni  Ni910  1  0.11885200  0.45206552  0.23276271  1.0
  Ni  Ni911  1  0.11885200  0.78539886  0.23276271  1.0
  Ni  Ni912  1  0.45218533  0.11873219  0.23276271  1.0
  Ni  Ni913  1  0.45218533  0.45206552  0.23276271  1.0
  Ni  Ni914  1  0.45218533  0.78539886  0.23276271  1.0
  Ni  Ni915  1  0.78551867  0.11873219  0.23276271  1.0
  Ni  Ni916  1  0.78551867  0.45206552  0.23276271  1.0
  Ni  Ni917  1  0.78551867  0.78539886  0.23276271  1.0
  Ni  Ni918  1  0.04781467  0.33301790  0.16133414  1.0
  Ni  Ni919  1  0.04781467  0.66635124  0.16133414  1.0
  Ni  Ni920  1  0.04781467  0.99968457  0.16133414  1.0
  Ni  Ni921  1  0.38114800  0.33301790  0.16133414  1.0
  Ni  Ni922  1  0.38114800  0.66635124  0.16133414  1.0
  Ni  Ni923  1  0.38114800  0.99968457  0.16133414  1.0
  Ni  Ni924  1  0.71448133  0.33301790  0.16133414  1.0
  Ni  Ni925  1  0.71448133  0.66635124  0.16133414  1.0
  Ni  Ni926  1  0.71448133  0.99968457  0.16133414  1.0
  Ni  Ni927  1  0.21448133  0.11873219  0.23276271  1.0
  Ni  Ni928  1  0.21448133  0.45206552  0.23276271  1.0
  Ni  Ni929  1  0.21448133  0.78539886  0.23276271  1.0
  Ni  Ni930  1  0.54781467  0.11873219  0.23276271  1.0
  Ni  Ni931  1  0.54781467  0.45206552  0.23276271  1.0
  Ni  Ni932  1  0.54781467  0.78539886  0.23276271  1.0
  Ni  Ni933  1  0.88114800  0.11873219  0.23276271  1.0
  Ni  Ni934  1  0.88114800  0.45206552  0.23276271  1.0
  Ni  Ni935  1  0.88114800  0.78539886  0.23276271  1.0
  Ni  Ni936  1  0.04781467  0.30062114  0.26320729  1.0
  Ni  Ni937  1  0.04781467  0.63395448  0.26320729  1.0
  Ni  Ni938  1  0.04781467  0.96728781  0.26320729  1.0
  Ni  Ni939  1  0.38114800  0.30062114  0.26320729  1.0
  Ni  Ni940  1  0.38114800  0.63395448  0.26320729  1.0
  Ni  Ni941  1  0.38114800  0.96728781  0.26320729  1.0
  Ni  Ni942  1  0.71448133  0.30062114  0.26320729  1.0
  Ni  Ni943  1  0.71448133  0.63395448  0.26320729  1.0
  Ni  Ni944  1  0.71448133  0.96728781  0.26320729  1.0
  Ni  Ni945  1  0.21448133  0.18157352  0.19177871  1.0
  Ni  Ni946  1  0.21448133  0.51490686  0.19177871  1.0
  Ni  Ni947  1  0.21448133  0.84824019  0.19177871  1.0
  Ni  Ni948  1  0.54781467  0.18157352  0.19177871  1.0
  Ni  Ni949  1  0.54781467  0.51490686  0.19177871  1.0
  Ni  Ni950  1  0.54781467  0.84824019  0.19177871  1.0
  Ni  Ni951  1  0.88114800  0.18157352  0.19177871  1.0
  Ni  Ni952  1  0.88114800  0.51490686  0.19177871  1.0
  Ni  Ni953  1  0.88114800  0.84824019  0.19177871  1.0
  Ni  Ni954  1  0.28551867  0.30062114  0.26320729  1.0
  Ni  Ni955  1  0.28551867  0.63395448  0.26320729  1.0
  Ni  Ni956  1  0.28551867  0.96728781  0.26320729  1.0
  Ni  Ni957  1  0.61885200  0.30062114  0.26320729  1.0
  Ni  Ni958  1  0.61885200  0.63395448  0.26320729  1.0
  Ni  Ni959  1  0.61885200  0.96728781  0.26320729  1.0
  Ni  Ni960  1  0.95218533  0.30062114  0.26320729  1.0
  Ni  Ni961  1  0.95218533  0.63395448  0.26320729  1.0
  Ni  Ni962  1  0.95218533  0.96728781  0.26320729  1.0
  Ni  Ni963  1  0.11885200  0.18157352  0.19177871  1.0
  Ni  Ni964  1  0.11885200  0.51490686  0.19177871  1.0
  Ni  Ni965  1  0.11885200  0.84824019  0.19177871  1.0
  Ni  Ni966  1  0.45218533  0.18157352  0.19177871  1.0
  Ni  Ni967  1  0.45218533  0.51490686  0.19177871  1.0
  Ni  Ni968  1  0.45218533  0.84824019  0.19177871  1.0
  Ni  Ni969  1  0.78551867  0.18157352  0.19177871  1.0
  Ni  Ni970  1  0.78551867  0.51490686  0.19177871  1.0
  Ni  Ni971  1  0.78551867  0.84824019  0.19177871  1.0
  Ni  Ni972  1  0.00000000  0.06935657  0.18182614  1.0
  Ni  Ni973  1  0.00000000  0.40268990  0.18182614  1.0
  Ni  Ni974  1  0.00000000  0.73602324  0.18182614  1.0
  Ni  Ni975  1  0.33333333  0.06935657  0.18182614  1.0
  Ni  Ni976  1  0.33333333  0.40268990  0.18182614  1.0
  Ni  Ni977  1  0.33333333  0.73602324  0.18182614  1.0
  Ni  Ni978  1  0.66666667  0.06935657  0.18182614  1.0
  Ni  Ni979  1  0.66666667  0.40268990  0.18182614  1.0
  Ni  Ni980  1  0.66666667  0.73602324  0.18182614  1.0
  Ni  Ni981  1  0.16666667  0.18840419  0.25325471  1.0
  Ni  Ni982  1  0.16666667  0.52173752  0.25325471  1.0
  Ni  Ni983  1  0.16666667  0.85507086  0.25325471  1.0
  Ni  Ni984  1  0.50000000  0.18840419  0.25325471  1.0
  Ni  Ni985  1  0.50000000  0.52173752  0.25325471  1.0
  Ni  Ni986  1  0.50000000  0.85507086  0.25325471  1.0
  Ni  Ni987  1  0.83333333  0.18840419  0.25325471  1.0
  Ni  Ni988  1  0.83333333  0.52173752  0.25325471  1.0
  Ni  Ni989  1  0.83333333  0.85507086  0.25325471  1.0
  Ni  Ni990  1  0.00000000  0.20362648  0.28369929  1.0
  Ni  Ni991  1  0.00000000  0.53695981  0.28369929  1.0
  Ni  Ni992  1  0.00000000  0.87029314  0.28369929  1.0
  Ni  Ni993  1  0.33333333  0.20362648  0.28369929  1.0
  Ni  Ni994  1  0.33333333  0.53695981  0.28369929  1.0
  Ni  Ni995  1  0.33333333  0.87029314  0.28369929  1.0
  Ni  Ni996  1  0.66666667  0.20362648  0.28369929  1.0
  Ni  Ni997  1  0.66666667  0.53695981  0.28369929  1.0
  Ni  Ni998  1  0.66666667  0.87029314  0.28369929  1.0
  Ni  Ni999  1  0.16666667  0.08457886  0.21227071  1.0
  Ni  Ni1000  1  0.16666667  0.41791219  0.21227071  1.0
  Ni  Ni1001  1  0.16666667  0.75124552  0.21227071  1.0
  Ni  Ni1002  1  0.50000000  0.08457886  0.21227071  1.0
  Ni  Ni1003  1  0.50000000  0.41791219  0.21227071  1.0
  Ni  Ni1004  1  0.50000000  0.75124552  0.21227071  1.0
  Ni  Ni1005  1  0.83333333  0.08457886  0.21227071  1.0
  Ni  Ni1006  1  0.83333333  0.41791219  0.21227071  1.0
  Ni  Ni1007  1  0.83333333  0.75124552  0.21227071  1.0
  Ni  Ni1008  1  0.08333333  0.04301000  0.24798500  1.0
  Ni  Ni1009  1  0.08333333  0.37634333  0.24798500  1.0
  Ni  Ni1010  1  0.08333333  0.70967667  0.24798500  1.0
  Ni  Ni1011  1  0.41666667  0.04301000  0.24798500  1.0
  Ni  Ni1012  1  0.41666667  0.37634333  0.24798500  1.0
  Ni  Ni1013  1  0.41666667  0.70967667  0.24798500  1.0
  Ni  Ni1014  1  0.75000000  0.04301000  0.24798500  1.0
  Ni  Ni1015  1  0.75000000  0.37634333  0.24798500  1.0
  Ni  Ni1016  1  0.75000000  0.70967667  0.24798500  1.0
  Ni  Ni1017  1  0.25000000  0.25729571  0.17655643  1.0
  Ni  Ni1018  1  0.25000000  0.59062905  0.17655643  1.0
  Ni  Ni1019  1  0.25000000  0.92396238  0.17655643  1.0
  Ni  Ni1020  1  0.58333333  0.25729571  0.17655643  1.0
  Ni  Ni1021  1  0.58333333  0.59062905  0.17655643  1.0
  Ni  Ni1022  1  0.58333333  0.92396238  0.17655643  1.0
  Ni  Ni1023  1  0.91666667  0.25729571  0.17655643  1.0
  Ni  Ni1024  1  0.91666667  0.59062905  0.17655643  1.0
  Ni  Ni1025  1  0.91666667  0.92396238  0.17655643  1.0
  Ni  Ni1026  1  0.25000000  0.04301000  0.24798500  1.0
  Ni  Ni1027  1  0.25000000  0.37634333  0.24798500  1.0
  Ni  Ni1028  1  0.25000000  0.70967667  0.24798500  1.0
  Ni  Ni1029  1  0.58333333  0.04301000  0.24798500  1.0
  Ni  Ni1030  1  0.58333333  0.37634333  0.24798500  1.0
  Ni  Ni1031  1  0.58333333  0.70967667  0.24798500  1.0
  Ni  Ni1032  1  0.91666667  0.04301000  0.24798500  1.0
  Ni  Ni1033  1  0.91666667  0.37634333  0.24798500  1.0
  Ni  Ni1034  1  0.91666667  0.70967667  0.24798500  1.0
  Ni  Ni1035  1  0.08333333  0.25729571  0.17655643  1.0
  Ni  Ni1036  1  0.08333333  0.59062905  0.17655643  1.0
  Ni  Ni1037  1  0.08333333  0.92396238  0.17655643  1.0
  Ni  Ni1038  1  0.41666667  0.25729571  0.17655643  1.0
  Ni  Ni1039  1  0.41666667  0.59062905  0.17655643  1.0
  Ni  Ni1040  1  0.41666667  0.92396238  0.17655643  1.0
  Ni  Ni1041  1  0.75000000  0.25729571  0.17655643  1.0
  Ni  Ni1042  1  0.75000000  0.59062905  0.17655643  1.0
  Ni  Ni1043  1  0.75000000  0.92396238  0.17655643  1.0
  Ni  Ni1044  1  0.00000000  0.15015286  0.21227071  1.0
  Ni  Ni1045  1  0.00000000  0.48348619  0.21227071  1.0
  Ni  Ni1046  1  0.00000000  0.81681952  0.21227071  1.0
  Ni  Ni1047  1  0.33333333  0.15015286  0.21227071  1.0
  Ni  Ni1048  1  0.33333333  0.48348619  0.21227071  1.0
  Ni  Ni1049  1  0.33333333  0.81681952  0.21227071  1.0
  Ni  Ni1050  1  0.66666667  0.15015286  0.21227071  1.0
  Ni  Ni1051  1  0.66666667  0.48348619  0.21227071  1.0
  Ni  Ni1052  1  0.66666667  0.81681952  0.21227071  1.0
  Ni  Ni1053  1  0.16666667  0.26920048  0.28369929  1.0
  Ni  Ni1054  1  0.16666667  0.60253381  0.28369929  1.0
  Ni  Ni1055  1  0.16666667  0.93586714  0.28369929  1.0
  Ni  Ni1056  1  0.50000000  0.26920048  0.28369929  1.0
  Ni  Ni1057  1  0.50000000  0.60253381  0.28369929  1.0
  Ni  Ni1058  1  0.50000000  0.93586714  0.28369929  1.0
  Ni  Ni1059  1  0.83333333  0.26920048  0.28369929  1.0
  Ni  Ni1060  1  0.83333333  0.60253381  0.28369929  1.0
  Ni  Ni1061  1  0.83333333  0.93586714  0.28369929  1.0
  Ni  Ni1062  1  0.00000000  0.10253381  0.28369929  1.0
  Ni  Ni1063  1  0.00000000  0.43586714  0.28369929  1.0
  Ni  Ni1064  1  0.00000000  0.76920048  0.28369929  1.0
  Ni  Ni1065  1  0.33333333  0.10253381  0.28369929  1.0
  Ni  Ni1066  1  0.33333333  0.43586714  0.28369929  1.0
  Ni  Ni1067  1  0.33333333  0.76920048  0.28369929  1.0
  Ni  Ni1068  1  0.66666667  0.10253381  0.28369929  1.0
  Ni  Ni1069  1  0.66666667  0.43586714  0.28369929  1.0
  Ni  Ni1070  1  0.66666667  0.76920048  0.28369929  1.0
  Ni  Ni1071  1  0.16666667  0.31681952  0.21227071  1.0
  Ni  Ni1072  1  0.16666667  0.65015286  0.21227071  1.0
  Ni  Ni1073  1  0.16666667  0.98348619  0.21227071  1.0
  Ni  Ni1074  1  0.50000000  0.31681952  0.21227071  1.0
  Ni  Ni1075  1  0.50000000  0.65015286  0.21227071  1.0
  Ni  Ni1076  1  0.50000000  0.98348619  0.21227071  1.0
  Ni  Ni1077  1  0.83333333  0.31681952  0.21227071  1.0
  Ni  Ni1078  1  0.83333333  0.65015286  0.21227071  1.0
  Ni  Ni1079  1  0.83333333  0.98348619  0.21227071  1.0
  Ni  Ni1080  1  0.00000000  0.23953638  0.42655643  1.0
  Ni  Ni1081  1  0.00000000  0.57286971  0.42655643  1.0
  Ni  Ni1082  1  0.00000000  0.90620305  0.42655643  1.0
  Ni  Ni1083  1  0.33333333  0.23953638  0.42655643  1.0
  Ni  Ni1084  1  0.33333333  0.57286971  0.42655643  1.0
  Ni  Ni1085  1  0.33333333  0.90620305  0.42655643  1.0
  Ni  Ni1086  1  0.66666667  0.23953638  0.42655643  1.0
  Ni  Ni1087  1  0.66666667  0.57286971  0.42655643  1.0
  Ni  Ni1088  1  0.66666667  0.90620305  0.42655643  1.0
  Ni  Ni1089  1  0.16666667  0.12048876  0.35512786  1.0
  Ni  Ni1090  1  0.16666667  0.45382210  0.35512786  1.0
  Ni  Ni1091  1  0.16666667  0.78715543  0.35512786  1.0
  Ni  Ni1092  1  0.50000000  0.12048876  0.35512786  1.0
  Ni  Ni1093  1  0.50000000  0.45382210  0.35512786  1.0
  Ni  Ni1094  1  0.50000000  0.78715543  0.35512786  1.0
  Ni  Ni1095  1  0.83333333  0.12048876  0.35512786  1.0
  Ni  Ni1096  1  0.83333333  0.45382210  0.35512786  1.0
  Ni  Ni1097  1  0.83333333  0.78715543  0.35512786  1.0
  Ni  Ni1098  1  0.00000000  0.13571105  0.38557243  1.0
  Ni  Ni1099  1  0.00000000  0.46904438  0.38557243  1.0
  Ni  Ni1100  1  0.00000000  0.80237771  0.38557243  1.0
  Ni  Ni1101  1  0.33333333  0.13571105  0.38557243  1.0
  Ni  Ni1102  1  0.33333333  0.46904438  0.38557243  1.0
  Ni  Ni1103  1  0.33333333  0.80237771  0.38557243  1.0
  Ni  Ni1104  1  0.66666667  0.13571105  0.38557243  1.0
  Ni  Ni1105  1  0.66666667  0.46904438  0.38557243  1.0
  Ni  Ni1106  1  0.66666667  0.80237771  0.38557243  1.0
  Ni  Ni1107  1  0.16666667  0.01666343  0.31414386  1.0
  Ni  Ni1108  1  0.16666667  0.34999676  0.31414386  1.0
  Ni  Ni1109  1  0.16666667  0.68333010  0.31414386  1.0
  Ni  Ni1110  1  0.50000000  0.01666343  0.31414386  1.0
  Ni  Ni1111  1  0.50000000  0.34999676  0.31414386  1.0
  Ni  Ni1112  1  0.50000000  0.68333010  0.31414386  1.0
  Ni  Ni1113  1  0.83333333  0.01666343  0.31414386  1.0
  Ni  Ni1114  1  0.83333333  0.34999676  0.31414386  1.0
  Ni  Ni1115  1  0.83333333  0.68333010  0.31414386  1.0
  Ni  Ni1116  1  0.28551867  0.23777981  0.30419129  1.0
  Ni  Ni1117  1  0.28551867  0.57111314  0.30419129  1.0
  Ni  Ni1118  1  0.28551867  0.90444648  0.30419129  1.0
  Ni  Ni1119  1  0.61885200  0.23777981  0.30419129  1.0
  Ni  Ni1120  1  0.61885200  0.57111314  0.30419129  1.0
  Ni  Ni1121  1  0.61885200  0.90444648  0.30419129  1.0
  Ni  Ni1122  1  0.95218533  0.23777981  0.30419129  1.0
  Ni  Ni1123  1  0.95218533  0.57111314  0.30419129  1.0
  Ni  Ni1124  1  0.95218533  0.90444648  0.30419129  1.0
  Ni  Ni1125  1  0.11885200  0.02349410  0.37561986  1.0
  Ni  Ni1126  1  0.11885200  0.35682743  0.37561986  1.0
  Ni  Ni1127  1  0.11885200  0.69016076  0.37561986  1.0
  Ni  Ni1128  1  0.45218533  0.02349410  0.37561986  1.0
  Ni  Ni1129  1  0.45218533  0.35682743  0.37561986  1.0
  Ni  Ni1130  1  0.45218533  0.69016076  0.37561986  1.0
  Ni  Ni1131  1  0.78551867  0.02349410  0.37561986  1.0
  Ni  Ni1132  1  0.78551867  0.35682743  0.37561986  1.0
  Ni  Ni1133  1  0.78551867  0.69016076  0.37561986  1.0
  Ni  Ni1134  1  0.04781467  0.23777981  0.30419129  1.0
  Ni  Ni1135  1  0.04781467  0.57111314  0.30419129  1.0
  Ni  Ni1136  1  0.04781467  0.90444648  0.30419129  1.0
  Ni  Ni1137  1  0.38114800  0.23777981  0.30419129  1.0
  Ni  Ni1138  1  0.38114800  0.57111314  0.30419129  1.0
  Ni  Ni1139  1  0.38114800  0.90444648  0.30419129  1.0
  Ni  Ni1140  1  0.71448133  0.23777981  0.30419129  1.0
  Ni  Ni1141  1  0.71448133  0.57111314  0.30419129  1.0
  Ni  Ni1142  1  0.71448133  0.90444648  0.30419129  1.0
  Ni  Ni1143  1  0.21448133  0.02349410  0.37561986  1.0
  Ni  Ni1144  1  0.21448133  0.35682743  0.37561986  1.0
  Ni  Ni1145  1  0.21448133  0.69016076  0.37561986  1.0
  Ni  Ni1146  1  0.54781467  0.02349410  0.37561986  1.0
  Ni  Ni1147  1  0.54781467  0.35682743  0.37561986  1.0
  Ni  Ni1148  1  0.54781467  0.69016076  0.37561986  1.0
  Ni  Ni1149  1  0.88114800  0.02349410  0.37561986  1.0
  Ni  Ni1150  1  0.88114800  0.35682743  0.37561986  1.0
  Ni  Ni1151  1  0.88114800  0.69016076  0.37561986  1.0
  Ni  Ni1152  1  0.04781467  0.20538305  0.40606443  1.0
  Ni  Ni1153  1  0.04781467  0.53871638  0.40606443  1.0
  Ni  Ni1154  1  0.04781467  0.87204971  0.40606443  1.0
  Ni  Ni1155  1  0.38114800  0.20538305  0.40606443  1.0
  Ni  Ni1156  1  0.38114800  0.53871638  0.40606443  1.0
  Ni  Ni1157  1  0.38114800  0.87204971  0.40606443  1.0
  Ni  Ni1158  1  0.71448133  0.20538305  0.40606443  1.0
  Ni  Ni1159  1  0.71448133  0.53871638  0.40606443  1.0
  Ni  Ni1160  1  0.71448133  0.87204971  0.40606443  1.0
  Ni  Ni1161  1  0.21448133  0.08633543  0.33463586  1.0
  Ni  Ni1162  1  0.21448133  0.41966876  0.33463586  1.0
  Ni  Ni1163  1  0.21448133  0.75300210  0.33463586  1.0
  Ni  Ni1164  1  0.54781467  0.08633543  0.33463586  1.0
  Ni  Ni1165  1  0.54781467  0.41966876  0.33463586  1.0
  Ni  Ni1166  1  0.54781467  0.75300210  0.33463586  1.0
  Ni  Ni1167  1  0.88114800  0.08633543  0.33463586  1.0
  Ni  Ni1168  1  0.88114800  0.41966876  0.33463586  1.0
  Ni  Ni1169  1  0.88114800  0.75300210  0.33463586  1.0
  Ni  Ni1170  1  0.28551867  0.20538305  0.40606443  1.0
  Ni  Ni1171  1  0.28551867  0.53871638  0.40606443  1.0
  Ni  Ni1172  1  0.28551867  0.87204971  0.40606443  1.0
  Ni  Ni1173  1  0.61885200  0.20538305  0.40606443  1.0
  Ni  Ni1174  1  0.61885200  0.53871638  0.40606443  1.0
  Ni  Ni1175  1  0.61885200  0.87204971  0.40606443  1.0
  Ni  Ni1176  1  0.95218533  0.20538305  0.40606443  1.0
  Ni  Ni1177  1  0.95218533  0.53871638  0.40606443  1.0
  Ni  Ni1178  1  0.95218533  0.87204971  0.40606443  1.0
  Ni  Ni1179  1  0.11885200  0.08633543  0.33463586  1.0
  Ni  Ni1180  1  0.11885200  0.41966876  0.33463586  1.0
  Ni  Ni1181  1  0.11885200  0.75300210  0.33463586  1.0
  Ni  Ni1182  1  0.45218533  0.08633543  0.33463586  1.0
  Ni  Ni1183  1  0.45218533  0.41966876  0.33463586  1.0
  Ni  Ni1184  1  0.45218533  0.75300210  0.33463586  1.0
  Ni  Ni1185  1  0.78551867  0.08633543  0.33463586  1.0
  Ni  Ni1186  1  0.78551867  0.41966876  0.33463586  1.0
  Ni  Ni1187  1  0.78551867  0.75300210  0.33463586  1.0
  Ni  Ni1188  1  0.00000000  0.30745181  0.32468329  1.0
  Ni  Ni1189  1  0.00000000  0.64078514  0.32468329  1.0
  Ni  Ni1190  1  0.00000000  0.97411848  0.32468329  1.0
  Ni  Ni1191  1  0.33333333  0.30745181  0.32468329  1.0
  Ni  Ni1192  1  0.33333333  0.64078514  0.32468329  1.0
  Ni  Ni1193  1  0.33333333  0.97411848  0.32468329  1.0
  Ni  Ni1194  1  0.66666667  0.30745181  0.32468329  1.0
  Ni  Ni1195  1  0.66666667  0.64078514  0.32468329  1.0
  Ni  Ni1196  1  0.66666667  0.97411848  0.32468329  1.0
  Ni  Ni1197  1  0.16666667  0.09316610  0.39611186  1.0
  Ni  Ni1198  1  0.16666667  0.42649943  0.39611186  1.0
  Ni  Ni1199  1  0.16666667  0.75983276  0.39611186  1.0
  Ni  Ni1200  1  0.50000000  0.09316610  0.39611186  1.0
  Ni  Ni1201  1  0.50000000  0.42649943  0.39611186  1.0
  Ni  Ni1202  1  0.50000000  0.75983276  0.39611186  1.0
  Ni  Ni1203  1  0.83333333  0.09316610  0.39611186  1.0
  Ni  Ni1204  1  0.83333333  0.42649943  0.39611186  1.0
  Ni  Ni1205  1  0.83333333  0.75983276  0.39611186  1.0
  Ni  Ni1206  1  0.33333333  0.10838838  0.42655643  1.0
  Ni  Ni1207  1  0.33333333  0.44172171  0.42655643  1.0
  Ni  Ni1208  1  0.33333333  0.77505505  0.42655643  1.0
  Ni  Ni1209  1  0.66666667  0.10838838  0.42655643  1.0
  Ni  Ni1210  1  0.66666667  0.44172171  0.42655643  1.0
  Ni  Ni1211  1  0.66666667  0.77505505  0.42655643  1.0
  Ni  Ni1212  1  1.00000000  0.10838838  0.42655643  1.0
  Ni  Ni1213  1  1.00000000  0.44172171  0.42655643  1.0
  Ni  Ni1214  1  1.00000000  0.77505505  0.42655643  1.0
  Ni  Ni1215  1  0.16666667  0.32267410  0.35512786  1.0
  Ni  Ni1216  1  0.16666667  0.65600743  0.35512786  1.0
  Ni  Ni1217  1  0.16666667  0.98934076  0.35512786  1.0
  Ni  Ni1218  1  0.50000000  0.32267410  0.35512786  1.0
  Ni  Ni1219  1  0.50000000  0.65600743  0.35512786  1.0
  Ni  Ni1220  1  0.50000000  0.98934076  0.35512786  1.0
  Ni  Ni1221  1  0.83333333  0.32267410  0.35512786  1.0
  Ni  Ni1222  1  0.83333333  0.65600743  0.35512786  1.0
  Ni  Ni1223  1  0.83333333  0.98934076  0.35512786  1.0
  Ni  Ni1224  1  0.08333333  0.28110524  0.39084214  1.0
  Ni  Ni1225  1  0.08333333  0.61443857  0.39084214  1.0
  Ni  Ni1226  1  0.08333333  0.94777190  0.39084214  1.0
  Ni  Ni1227  1  0.41666667  0.28110524  0.39084214  1.0
  Ni  Ni1228  1  0.41666667  0.61443857  0.39084214  1.0
  Ni  Ni1229  1  0.41666667  0.94777190  0.39084214  1.0
  Ni  Ni1230  1  0.75000000  0.28110524  0.39084214  1.0
  Ni  Ni1231  1  0.75000000  0.61443857  0.39084214  1.0
  Ni  Ni1232  1  0.75000000  0.94777190  0.39084214  1.0
  Ni  Ni1233  1  0.25000000  0.16205762  0.31941357  1.0
  Ni  Ni1234  1  0.25000000  0.49539095  0.31941357  1.0
  Ni  Ni1235  1  0.25000000  0.82872429  0.31941357  1.0
  Ni  Ni1236  1  0.58333333  0.16205762  0.31941357  1.0
  Ni  Ni1237  1  0.58333333  0.49539095  0.31941357  1.0
  Ni  Ni1238  1  0.58333333  0.82872429  0.31941357  1.0
  Ni  Ni1239  1  0.91666667  0.16205762  0.31941357  1.0
  Ni  Ni1240  1  0.91666667  0.49539095  0.31941357  1.0
  Ni  Ni1241  1  0.91666667  0.82872429  0.31941357  1.0
  Ni  Ni1242  1  0.25000000  0.28110524  0.39084214  1.0
  Ni  Ni1243  1  0.25000000  0.61443857  0.39084214  1.0
  Ni  Ni1244  1  0.25000000  0.94777190  0.39084214  1.0
  Ni  Ni1245  1  0.58333333  0.28110524  0.39084214  1.0
  Ni  Ni1246  1  0.58333333  0.61443857  0.39084214  1.0
  Ni  Ni1247  1  0.58333333  0.94777190  0.39084214  1.0
  Ni  Ni1248  1  0.91666667  0.28110524  0.39084214  1.0
  Ni  Ni1249  1  0.91666667  0.61443857  0.39084214  1.0
  Ni  Ni1250  1  0.91666667  0.94777190  0.39084214  1.0
  Ni  Ni1251  1  0.08333333  0.16205762  0.31941357  1.0
  Ni  Ni1252  1  0.08333333  0.49539095  0.31941357  1.0
  Ni  Ni1253  1  0.08333333  0.82872429  0.31941357  1.0
  Ni  Ni1254  1  0.41666667  0.16205762  0.31941357  1.0
  Ni  Ni1255  1  0.41666667  0.49539095  0.31941357  1.0
  Ni  Ni1256  1  0.41666667  0.82872429  0.31941357  1.0
  Ni  Ni1257  1  0.75000000  0.16205762  0.31941357  1.0
  Ni  Ni1258  1  0.75000000  0.49539095  0.31941357  1.0
  Ni  Ni1259  1  0.75000000  0.82872429  0.31941357  1.0
  Ni  Ni1260  1  0.00000000  0.05491476  0.35512786  1.0
  Ni  Ni1261  1  0.00000000  0.38824810  0.35512786  1.0
  Ni  Ni1262  1  0.00000000  0.72158143  0.35512786  1.0
  Ni  Ni1263  1  0.33333333  0.05491476  0.35512786  1.0
  Ni  Ni1264  1  0.33333333  0.38824810  0.35512786  1.0
  Ni  Ni1265  1  0.33333333  0.72158143  0.35512786  1.0
  Ni  Ni1266  1  0.66666667  0.05491476  0.35512786  1.0
  Ni  Ni1267  1  0.66666667  0.38824810  0.35512786  1.0
  Ni  Ni1268  1  0.66666667  0.72158143  0.35512786  1.0
  Ni  Ni1269  1  0.16666667  0.17396238  0.42655643  1.0
  Ni  Ni1270  1  0.16666667  0.50729571  0.42655643  1.0
  Ni  Ni1271  1  0.16666667  0.84062905  0.42655643  1.0
  Ni  Ni1272  1  0.50000000  0.17396238  0.42655643  1.0
  Ni  Ni1273  1  0.50000000  0.50729571  0.42655643  1.0
  Ni  Ni1274  1  0.50000000  0.84062905  0.42655643  1.0
  Ni  Ni1275  1  0.83333333  0.17396238  0.42655643  1.0
  Ni  Ni1276  1  0.83333333  0.50729571  0.42655643  1.0
  Ni  Ni1277  1  0.83333333  0.84062905  0.42655643  1.0
  Ni  Ni1278  1  0.00000000  0.00729571  0.42655643  1.0
  Ni  Ni1279  1  0.00000000  0.34062905  0.42655643  1.0
  Ni  Ni1280  1  0.00000000  0.67396238  0.42655643  1.0
  Ni  Ni1281  1  0.33333333  0.00729571  0.42655643  1.0
  Ni  Ni1282  1  0.33333333  0.34062905  0.42655643  1.0
  Ni  Ni1283  1  0.33333333  0.67396238  0.42655643  1.0
  Ni  Ni1284  1  0.66666667  0.00729571  0.42655643  1.0
  Ni  Ni1285  1  0.66666667  0.34062905  0.42655643  1.0
  Ni  Ni1286  1  0.66666667  0.67396238  0.42655643  1.0
  Ni  Ni1287  1  0.16666667  0.22158143  0.35512786  1.0
  Ni  Ni1288  1  0.16666667  0.55491476  0.35512786  1.0
  Ni  Ni1289  1  0.16666667  0.88824810  0.35512786  1.0
  Ni  Ni1290  1  0.50000000  0.22158143  0.35512786  1.0
  Ni  Ni1291  1  0.50000000  0.55491476  0.35512786  1.0
  Ni  Ni1292  1  0.50000000  0.88824810  0.35512786  1.0
  Ni  Ni1293  1  0.83333333  0.22158143  0.35512786  1.0
  Ni  Ni1294  1  0.83333333  0.55491476  0.35512786  1.0
  Ni  Ni1295  1  0.83333333  0.88824810  0.35512786  1.0
