# generated using pymatgen
data_Fe3Ni2
_symmetry_space_group_name_H-M   'P 1'
_cell_length_a   10.61431908
_cell_length_b   109.31874804
_cell_length_c   37.52728500
_cell_angle_alpha   93.93683222
_cell_angle_beta   135.00000000
_cell_angle_gamma   87.21733536
_symmetry_Int_Tables_number   1
_chemical_formula_structural   Fe3Ni2
_chemical_formula_sum   'Fe648 Ni432'
_cell_volume   30718.00040749
_cell_formula_units_Z   216
loop_
 _symmetry_equiv_pos_site_id
 _symmetry_equiv_pos_as_xyz
  1  'x, y, z'
loop_
 _atom_site_type_symbol
 _atom_site_label
 _atom_site_symmetry_multiplicity
 _atom_site_fract_x
 _atom_site_fract_y
 _atom_site_fract_z
 _atom_site_occupancy
  Fe  Fe0  1  0.00000000  0.14926733  0.00328300  1.0
  Fe  Fe1  1  0.00000000  0.48260067  0.00328300  1.0
  Fe  Fe2  1  0.00000000  0.81593400  0.00328300  1.0
  Fe  Fe3  1  0.33333333  0.14926733  0.00328300  1.0
  Fe  Fe4  1  0.33333333  0.48260067  0.00328300  1.0
  Fe  Fe5  1  0.33333333  0.81593400  0.00328300  1.0
  Fe  Fe6  1  0.66666667  0.14926733  0.00328300  1.0
  Fe  Fe7  1  0.66666667  0.48260067  0.00328300  1.0
  Fe  Fe8  1  0.66666667  0.81593400  0.00328300  1.0
  Fe  Fe9  1  0.00000000  0.31593400  0.03661633  1.0
  Fe  Fe10  1  0.00000000  0.64926733  0.03661633  1.0
  Fe  Fe11  1  0.00000000  0.98260067  0.03661633  1.0
  Fe  Fe12  1  0.33333333  0.31593400  0.03661633  1.0
  Fe  Fe13  1  0.33333333  0.64926733  0.03661633  1.0
  Fe  Fe14  1  0.33333333  0.98260067  0.03661633  1.0
  Fe  Fe15  1  0.66666667  0.31593400  0.03661633  1.0
  Fe  Fe16  1  0.66666667  0.64926733  0.03661633  1.0
  Fe  Fe17  1  0.66666667  0.98260067  0.03661633  1.0
  Fe  Fe18  1  0.00000000  0.01739933  0.04357607  1.0
  Fe  Fe19  1  0.00000000  0.35073267  0.04357607  1.0
  Fe  Fe20  1  0.00000000  0.68406600  0.04357607  1.0
  Fe  Fe21  1  0.33333333  0.01739933  0.04357607  1.0
  Fe  Fe22  1  0.33333333  0.35073267  0.04357607  1.0
  Fe  Fe23  1  0.33333333  0.68406600  0.04357607  1.0
  Fe  Fe24  1  0.66666667  0.01739933  0.04357607  1.0
  Fe  Fe25  1  0.66666667  0.35073267  0.04357607  1.0
  Fe  Fe26  1  0.66666667  0.68406600  0.04357607  1.0
  Fe  Fe27  1  0.00000000  0.18406600  0.01024273  1.0
  Fe  Fe28  1  0.00000000  0.51739933  0.01024273  1.0
  Fe  Fe29  1  0.00000000  0.85073267  0.01024273  1.0
  Fe  Fe30  1  0.33333333  0.18406600  0.01024273  1.0
  Fe  Fe31  1  0.33333333  0.51739933  0.01024273  1.0
  Fe  Fe32  1  0.33333333  0.85073267  0.01024273  1.0
  Fe  Fe33  1  0.66666667  0.18406600  0.01024273  1.0
  Fe  Fe34  1  0.66666667  0.51739933  0.01024273  1.0
  Fe  Fe35  1  0.66666667  0.85073267  0.01024273  1.0
  Fe  Fe36  1  0.00000000  0.05021533  0.05013927  1.0
  Fe  Fe37  1  0.00000000  0.38354867  0.05013927  1.0
  Fe  Fe38  1  0.00000000  0.71688200  0.05013927  1.0
  Fe  Fe39  1  0.33333333  0.05021533  0.05013927  1.0
  Fe  Fe40  1  0.33333333  0.38354867  0.05013927  1.0
  Fe  Fe41  1  0.33333333  0.71688200  0.05013927  1.0
  Fe  Fe42  1  0.66666667  0.05021533  0.05013927  1.0
  Fe  Fe43  1  0.66666667  0.38354867  0.05013927  1.0
  Fe  Fe44  1  0.66666667  0.71688200  0.05013927  1.0
  Fe  Fe45  1  0.00000000  0.21688200  0.01680593  1.0
  Fe  Fe46  1  0.00000000  0.55021533  0.01680593  1.0
  Fe  Fe47  1  0.00000000  0.88354867  0.01680593  1.0
  Fe  Fe48  1  0.33333333  0.21688200  0.01680593  1.0
  Fe  Fe49  1  0.33333333  0.55021533  0.01680593  1.0
  Fe  Fe50  1  0.33333333  0.88354867  0.01680593  1.0
  Fe  Fe51  1  0.66666667  0.21688200  0.01680593  1.0
  Fe  Fe52  1  0.66666667  0.55021533  0.01680593  1.0
  Fe  Fe53  1  0.66666667  0.88354867  0.01680593  1.0
  Fe  Fe54  1  0.00000000  0.08333333  0.05676287  1.0
  Fe  Fe55  1  0.00000000  0.41666667  0.05676287  1.0
  Fe  Fe56  1  0.00000000  0.75000000  0.05676287  1.0
  Fe  Fe57  1  0.33333333  0.08333333  0.05676287  1.0
  Fe  Fe58  1  0.33333333  0.41666667  0.05676287  1.0
  Fe  Fe59  1  0.33333333  0.75000000  0.05676287  1.0
  Fe  Fe60  1  0.66666667  0.08333333  0.05676287  1.0
  Fe  Fe61  1  0.66666667  0.41666667  0.05676287  1.0
  Fe  Fe62  1  0.66666667  0.75000000  0.05676287  1.0
  Fe  Fe63  1  0.00000000  0.25000000  0.02342953  1.0
  Fe  Fe64  1  0.00000000  0.58333333  0.02342953  1.0
  Fe  Fe65  1  0.00000000  0.91666667  0.02342953  1.0
  Fe  Fe66  1  0.33333333  0.25000000  0.02342953  1.0
  Fe  Fe67  1  0.33333333  0.58333333  0.02342953  1.0
  Fe  Fe68  1  0.33333333  0.91666667  0.02342953  1.0
  Fe  Fe69  1  0.66666667  0.25000000  0.02342953  1.0
  Fe  Fe70  1  0.66666667  0.58333333  0.02342953  1.0
  Fe  Fe71  1  0.66666667  0.91666667  0.02342953  1.0
  Fe  Fe72  1  0.00000000  0.11645133  0.06338647  1.0
  Fe  Fe73  1  0.00000000  0.44978467  0.06338647  1.0
  Fe  Fe74  1  0.00000000  0.78311800  0.06338647  1.0
  Fe  Fe75  1  0.33333333  0.11645133  0.06338647  1.0
  Fe  Fe76  1  0.33333333  0.44978467  0.06338647  1.0
  Fe  Fe77  1  0.33333333  0.78311800  0.06338647  1.0
  Fe  Fe78  1  0.66666667  0.11645133  0.06338647  1.0
  Fe  Fe79  1  0.66666667  0.44978467  0.06338647  1.0
  Fe  Fe80  1  0.66666667  0.78311800  0.06338647  1.0
  Fe  Fe81  1  0.00000000  0.28311800  0.03005313  1.0
  Fe  Fe82  1  0.00000000  0.61645133  0.03005313  1.0
  Fe  Fe83  1  0.00000000  0.94978467  0.03005313  1.0
  Fe  Fe84  1  0.33333333  0.28311800  0.03005313  1.0
  Fe  Fe85  1  0.33333333  0.61645133  0.03005313  1.0
  Fe  Fe86  1  0.33333333  0.94978467  0.03005313  1.0
  Fe  Fe87  1  0.66666667  0.28311800  0.03005313  1.0
  Fe  Fe88  1  0.66666667  0.61645133  0.03005313  1.0
  Fe  Fe89  1  0.66666667  0.94978467  0.03005313  1.0
  Fe  Fe90  1  0.16666667  0.00000000  0.04009620  1.0
  Fe  Fe91  1  0.16666667  0.33333333  0.04009620  1.0
  Fe  Fe92  1  0.16666667  0.66666667  0.04009620  1.0
  Fe  Fe93  1  0.50000000  0.00000000  0.04009620  1.0
  Fe  Fe94  1  0.50000000  0.33333333  0.04009620  1.0
  Fe  Fe95  1  0.50000000  0.66666667  0.04009620  1.0
  Fe  Fe96  1  0.83333333  0.00000000  0.04009620  1.0
  Fe  Fe97  1  0.83333333  0.33333333  0.04009620  1.0
  Fe  Fe98  1  0.83333333  0.66666667  0.04009620  1.0
  Fe  Fe99  1  0.16666667  0.16666667  0.00676287  1.0
  Fe  Fe100  1  0.16666667  0.50000000  0.00676287  1.0
  Fe  Fe101  1  0.16666667  0.83333333  0.00676287  1.0
  Fe  Fe102  1  0.50000000  0.16666667  0.00676287  1.0
  Fe  Fe103  1  0.50000000  0.50000000  0.00676287  1.0
  Fe  Fe104  1  0.50000000  0.83333333  0.00676287  1.0
  Fe  Fe105  1  0.83333333  0.16666667  0.00676287  1.0
  Fe  Fe106  1  0.83333333  0.50000000  0.00676287  1.0
  Fe  Fe107  1  0.83333333  0.83333333  0.00676287  1.0
  Ni  Ni108  1  0.16666667  0.03381433  0.04685907  1.0
  Ni  Ni109  1  0.16666667  0.36714767  0.04685907  1.0
  Ni  Ni110  1  0.16666667  0.70048100  0.04685907  1.0
  Ni  Ni111  1  0.50000000  0.03381433  0.04685907  1.0
  Ni  Ni112  1  0.50000000  0.36714767  0.04685907  1.0
  Ni  Ni113  1  0.50000000  0.70048100  0.04685907  1.0
  Ni  Ni114  1  0.83333333  0.03381433  0.04685907  1.0
  Ni  Ni115  1  0.83333333  0.36714767  0.04685907  1.0
  Ni  Ni116  1  0.83333333  0.70048100  0.04685907  1.0
  Ni  Ni117  1  0.16666667  0.20048100  0.01352573  1.0
  Ni  Ni118  1  0.16666667  0.53381433  0.01352573  1.0
  Ni  Ni119  1  0.16666667  0.86714767  0.01352573  1.0
  Ni  Ni120  1  0.50000000  0.20048100  0.01352573  1.0
  Ni  Ni121  1  0.50000000  0.53381433  0.01352573  1.0
  Ni  Ni122  1  0.50000000  0.86714767  0.01352573  1.0
  Ni  Ni123  1  0.83333333  0.20048100  0.01352573  1.0
  Ni  Ni124  1  0.83333333  0.53381433  0.01352573  1.0
  Ni  Ni125  1  0.83333333  0.86714767  0.01352573  1.0
  Ni  Ni126  1  0.16666667  0.06669567  0.05343533  1.0
  Ni  Ni127  1  0.16666667  0.40002900  0.05343533  1.0
  Ni  Ni128  1  0.16666667  0.73336233  0.05343533  1.0
  Ni  Ni129  1  0.50000000  0.06669567  0.05343533  1.0
  Ni  Ni130  1  0.50000000  0.40002900  0.05343533  1.0
  Ni  Ni131  1  0.50000000  0.73336233  0.05343533  1.0
  Ni  Ni132  1  0.83333333  0.06669567  0.05343533  1.0
  Ni  Ni133  1  0.83333333  0.40002900  0.05343533  1.0
  Ni  Ni134  1  0.83333333  0.73336233  0.05343533  1.0
  Ni  Ni135  1  0.16666667  0.23336233  0.02010200  1.0
  Ni  Ni136  1  0.16666667  0.56669567  0.02010200  1.0
  Ni  Ni137  1  0.16666667  0.90002900  0.02010200  1.0
  Ni  Ni138  1  0.50000000  0.23336233  0.02010200  1.0
  Ni  Ni139  1  0.50000000  0.56669567  0.02010200  1.0
  Ni  Ni140  1  0.50000000  0.90002900  0.02010200  1.0
  Ni  Ni141  1  0.83333333  0.23336233  0.02010200  1.0
  Ni  Ni142  1  0.83333333  0.56669567  0.02010200  1.0
  Ni  Ni143  1  0.83333333  0.90002900  0.02010200  1.0
  Ni  Ni144  1  0.16666667  0.09997100  0.06009040  1.0
  Ni  Ni145  1  0.16666667  0.43330433  0.06009040  1.0
  Ni  Ni146  1  0.16666667  0.76663767  0.06009040  1.0
  Ni  Ni147  1  0.50000000  0.09997100  0.06009040  1.0
  Ni  Ni148  1  0.50000000  0.43330433  0.06009040  1.0
  Ni  Ni149  1  0.50000000  0.76663767  0.06009040  1.0
  Ni  Ni150  1  0.83333333  0.09997100  0.06009040  1.0
  Ni  Ni151  1  0.83333333  0.43330433  0.06009040  1.0
  Ni  Ni152  1  0.83333333  0.76663767  0.06009040  1.0
  Ni  Ni153  1  0.16666667  0.26663767  0.02675707  1.0
  Ni  Ni154  1  0.16666667  0.59997100  0.02675707  1.0
  Ni  Ni155  1  0.16666667  0.93330433  0.02675707  1.0
  Ni  Ni156  1  0.50000000  0.26663767  0.02675707  1.0
  Ni  Ni157  1  0.50000000  0.59997100  0.02675707  1.0
  Ni  Ni158  1  0.50000000  0.93330433  0.02675707  1.0
  Ni  Ni159  1  0.83333333  0.26663767  0.02675707  1.0
  Ni  Ni160  1  0.83333333  0.59997100  0.02675707  1.0
  Ni  Ni161  1  0.83333333  0.93330433  0.02675707  1.0
  Ni  Ni162  1  0.16666667  0.13285233  0.00000000  1.0
  Ni  Ni163  1  0.16666667  0.46618567  0.00000000  1.0
  Ni  Ni164  1  0.16666667  0.79951900  0.00000000  1.0
  Ni  Ni165  1  0.50000000  0.13285233  0.00000000  1.0
  Ni  Ni166  1  0.50000000  0.46618567  0.00000000  1.0
  Ni  Ni167  1  0.50000000  0.79951900  0.00000000  1.0
  Ni  Ni168  1  0.83333333  0.13285233  0.00000000  1.0
  Ni  Ni169  1  0.83333333  0.46618567  0.00000000  1.0
  Ni  Ni170  1  0.83333333  0.79951900  0.00000000  1.0
  Ni  Ni171  1  0.16666667  0.29951900  0.03333333  1.0
  Ni  Ni172  1  0.16666667  0.63285233  0.03333333  1.0
  Ni  Ni173  1  0.16666667  0.96618567  0.03333333  1.0
  Ni  Ni174  1  0.50000000  0.29951900  0.03333333  1.0
  Ni  Ni175  1  0.50000000  0.63285233  0.03333333  1.0
  Ni  Ni176  1  0.50000000  0.96618567  0.03333333  1.0
  Ni  Ni177  1  0.83333333  0.29951900  0.03333333  1.0
  Ni  Ni178  1  0.83333333  0.63285233  0.03333333  1.0
  Ni  Ni179  1  0.83333333  0.96618567  0.03333333  1.0
  Fe  Fe180  1  0.00000000  0.14926733  0.06994967  1.0
  Fe  Fe181  1  0.00000000  0.48260067  0.06994967  1.0
  Fe  Fe182  1  0.00000000  0.81593400  0.06994967  1.0
  Fe  Fe183  1  0.33333333  0.14926733  0.06994967  1.0
  Fe  Fe184  1  0.33333333  0.48260067  0.06994967  1.0
  Fe  Fe185  1  0.33333333  0.81593400  0.06994967  1.0
  Fe  Fe186  1  0.66666667  0.14926733  0.06994967  1.0
  Fe  Fe187  1  0.66666667  0.48260067  0.06994967  1.0
  Fe  Fe188  1  0.66666667  0.81593400  0.06994967  1.0
  Fe  Fe189  1  0.00000000  0.31593400  0.10328300  1.0
  Fe  Fe190  1  0.00000000  0.64926733  0.10328300  1.0
  Fe  Fe191  1  0.00000000  0.98260067  0.10328300  1.0
  Fe  Fe192  1  0.33333333  0.31593400  0.10328300  1.0
  Fe  Fe193  1  0.33333333  0.64926733  0.10328300  1.0
  Fe  Fe194  1  0.33333333  0.98260067  0.10328300  1.0
  Fe  Fe195  1  0.66666667  0.31593400  0.10328300  1.0
  Fe  Fe196  1  0.66666667  0.64926733  0.10328300  1.0
  Fe  Fe197  1  0.66666667  0.98260067  0.10328300  1.0
  Fe  Fe198  1  0.00000000  0.01739933  0.11024273  1.0
  Fe  Fe199  1  0.00000000  0.35073267  0.11024273  1.0
  Fe  Fe200  1  0.00000000  0.68406600  0.11024273  1.0
  Fe  Fe201  1  0.33333333  0.01739933  0.11024273  1.0
  Fe  Fe202  1  0.33333333  0.35073267  0.11024273  1.0
  Fe  Fe203  1  0.33333333  0.68406600  0.11024273  1.0
  Fe  Fe204  1  0.66666667  0.01739933  0.11024273  1.0
  Fe  Fe205  1  0.66666667  0.35073267  0.11024273  1.0
  Fe  Fe206  1  0.66666667  0.68406600  0.11024273  1.0
  Fe  Fe207  1  0.00000000  0.18406600  0.07690940  1.0
  Fe  Fe208  1  0.00000000  0.51739933  0.07690940  1.0
  Fe  Fe209  1  0.00000000  0.85073267  0.07690940  1.0
  Fe  Fe210  1  0.33333333  0.18406600  0.07690940  1.0
  Fe  Fe211  1  0.33333333  0.51739933  0.07690940  1.0
  Fe  Fe212  1  0.33333333  0.85073267  0.07690940  1.0
  Fe  Fe213  1  0.66666667  0.18406600  0.07690940  1.0
  Fe  Fe214  1  0.66666667  0.51739933  0.07690940  1.0
  Fe  Fe215  1  0.66666667  0.85073267  0.07690940  1.0
  Fe  Fe216  1  0.00000000  0.05021533  0.11680593  1.0
  Fe  Fe217  1  0.00000000  0.38354867  0.11680593  1.0
  Fe  Fe218  1  0.00000000  0.71688200  0.11680593  1.0
  Fe  Fe219  1  0.33333333  0.05021533  0.11680593  1.0
  Fe  Fe220  1  0.33333333  0.38354867  0.11680593  1.0
  Fe  Fe221  1  0.33333333  0.71688200  0.11680593  1.0
  Fe  Fe222  1  0.66666667  0.05021533  0.11680593  1.0
  Fe  Fe223  1  0.66666667  0.38354867  0.11680593  1.0
  Fe  Fe224  1  0.66666667  0.71688200  0.11680593  1.0
  Fe  Fe225  1  0.00000000  0.21688200  0.08347260  1.0
  Fe  Fe226  1  0.00000000  0.55021533  0.08347260  1.0
  Fe  Fe227  1  0.00000000  0.88354867  0.08347260  1.0
  Fe  Fe228  1  0.33333333  0.21688200  0.08347260  1.0
  Fe  Fe229  1  0.33333333  0.55021533  0.08347260  1.0
  Fe  Fe230  1  0.33333333  0.88354867  0.08347260  1.0
  Fe  Fe231  1  0.66666667  0.21688200  0.08347260  1.0
  Fe  Fe232  1  0.66666667  0.55021533  0.08347260  1.0
  Fe  Fe233  1  0.66666667  0.88354867  0.08347260  1.0
  Fe  Fe234  1  0.00000000  0.08333333  0.12342953  1.0
  Fe  Fe235  1  0.00000000  0.41666667  0.12342953  1.0
  Fe  Fe236  1  0.00000000  0.75000000  0.12342953  1.0
  Fe  Fe237  1  0.33333333  0.08333333  0.12342953  1.0
  Fe  Fe238  1  0.33333333  0.41666667  0.12342953  1.0
  Fe  Fe239  1  0.33333333  0.75000000  0.12342953  1.0
  Fe  Fe240  1  0.66666667  0.08333333  0.12342953  1.0
  Fe  Fe241  1  0.66666667  0.41666667  0.12342953  1.0
  Fe  Fe242  1  0.66666667  0.75000000  0.12342953  1.0
  Fe  Fe243  1  0.00000000  0.25000000  0.09009620  1.0
  Fe  Fe244  1  0.00000000  0.58333333  0.09009620  1.0
  Fe  Fe245  1  0.00000000  0.91666667  0.09009620  1.0
  Fe  Fe246  1  0.33333333  0.25000000  0.09009620  1.0
  Fe  Fe247  1  0.33333333  0.58333333  0.09009620  1.0
  Fe  Fe248  1  0.33333333  0.91666667  0.09009620  1.0
  Fe  Fe249  1  0.66666667  0.25000000  0.09009620  1.0
  Fe  Fe250  1  0.66666667  0.58333333  0.09009620  1.0
  Fe  Fe251  1  0.66666667  0.91666667  0.09009620  1.0
  Fe  Fe252  1  0.00000000  0.11645133  0.13005313  1.0
  Fe  Fe253  1  0.00000000  0.44978467  0.13005313  1.0
  Fe  Fe254  1  0.00000000  0.78311800  0.13005313  1.0
  Fe  Fe255  1  0.33333333  0.11645133  0.13005313  1.0
  Fe  Fe256  1  0.33333333  0.44978467  0.13005313  1.0
  Fe  Fe257  1  0.33333333  0.78311800  0.13005313  1.0
  Fe  Fe258  1  0.66666667  0.11645133  0.13005313  1.0
  Fe  Fe259  1  0.66666667  0.44978467  0.13005313  1.0
  Fe  Fe260  1  0.66666667  0.78311800  0.13005313  1.0
  Fe  Fe261  1  0.00000000  0.28311800  0.09671980  1.0
  Fe  Fe262  1  0.00000000  0.61645133  0.09671980  1.0
  Fe  Fe263  1  0.00000000  0.94978467  0.09671980  1.0
  Fe  Fe264  1  0.33333333  0.28311800  0.09671980  1.0
  Fe  Fe265  1  0.33333333  0.61645133  0.09671980  1.0
  Fe  Fe266  1  0.33333333  0.94978467  0.09671980  1.0
  Fe  Fe267  1  0.66666667  0.28311800  0.09671980  1.0
  Fe  Fe268  1  0.66666667  0.61645133  0.09671980  1.0
  Fe  Fe269  1  0.66666667  0.94978467  0.09671980  1.0
  Fe  Fe270  1  0.16666667  0.00000000  0.10676287  1.0
  Fe  Fe271  1  0.16666667  0.33333333  0.10676287  1.0
  Fe  Fe272  1  0.16666667  0.66666667  0.10676287  1.0
  Fe  Fe273  1  0.50000000  0.00000000  0.10676287  1.0
  Fe  Fe274  1  0.50000000  0.33333333  0.10676287  1.0
  Fe  Fe275  1  0.50000000  0.66666667  0.10676287  1.0
  Fe  Fe276  1  0.83333333  0.00000000  0.10676287  1.0
  Fe  Fe277  1  0.83333333  0.33333333  0.10676287  1.0
  Fe  Fe278  1  0.83333333  0.66666667  0.10676287  1.0
  Fe  Fe279  1  0.16666667  0.16666667  0.07342953  1.0
  Fe  Fe280  1  0.16666667  0.50000000  0.07342953  1.0
  Fe  Fe281  1  0.16666667  0.83333333  0.07342953  1.0
  Fe  Fe282  1  0.50000000  0.16666667  0.07342953  1.0
  Fe  Fe283  1  0.50000000  0.50000000  0.07342953  1.0
  Fe  Fe284  1  0.50000000  0.83333333  0.07342953  1.0
  Fe  Fe285  1  0.83333333  0.16666667  0.07342953  1.0
  Fe  Fe286  1  0.83333333  0.50000000  0.07342953  1.0
  Fe  Fe287  1  0.83333333  0.83333333  0.07342953  1.0
  Ni  Ni288  1  0.16666667  0.03381433  0.11352573  1.0
  Ni  Ni289  1  0.16666667  0.36714767  0.11352573  1.0
  Ni  Ni290  1  0.16666667  0.70048100  0.11352573  1.0
  Ni  Ni291  1  0.50000000  0.03381433  0.11352573  1.0
  Ni  Ni292  1  0.50000000  0.36714767  0.11352573  1.0
  Ni  Ni293  1  0.50000000  0.70048100  0.11352573  1.0
  Ni  Ni294  1  0.83333333  0.03381433  0.11352573  1.0
  Ni  Ni295  1  0.83333333  0.36714767  0.11352573  1.0
  Ni  Ni296  1  0.83333333  0.70048100  0.11352573  1.0
  Ni  Ni297  1  0.16666667  0.20048100  0.08019240  1.0
  Ni  Ni298  1  0.16666667  0.53381433  0.08019240  1.0
  Ni  Ni299  1  0.16666667  0.86714767  0.08019240  1.0
  Ni  Ni300  1  0.50000000  0.20048100  0.08019240  1.0
  Ni  Ni301  1  0.50000000  0.53381433  0.08019240  1.0
  Ni  Ni302  1  0.50000000  0.86714767  0.08019240  1.0
  Ni  Ni303  1  0.83333333  0.20048100  0.08019240  1.0
  Ni  Ni304  1  0.83333333  0.53381433  0.08019240  1.0
  Ni  Ni305  1  0.83333333  0.86714767  0.08019240  1.0
  Ni  Ni306  1  0.16666667  0.06669567  0.12010200  1.0
  Ni  Ni307  1  0.16666667  0.40002900  0.12010200  1.0
  Ni  Ni308  1  0.16666667  0.73336233  0.12010200  1.0
  Ni  Ni309  1  0.50000000  0.06669567  0.12010200  1.0
  Ni  Ni310  1  0.50000000  0.40002900  0.12010200  1.0
  Ni  Ni311  1  0.50000000  0.73336233  0.12010200  1.0
  Ni  Ni312  1  0.83333333  0.06669567  0.12010200  1.0
  Ni  Ni313  1  0.83333333  0.40002900  0.12010200  1.0
  Ni  Ni314  1  0.83333333  0.73336233  0.12010200  1.0
  Ni  Ni315  1  0.16666667  0.23336233  0.08676867  1.0
  Ni  Ni316  1  0.16666667  0.56669567  0.08676867  1.0
  Ni  Ni317  1  0.16666667  0.90002900  0.08676867  1.0
  Ni  Ni318  1  0.50000000  0.23336233  0.08676867  1.0
  Ni  Ni319  1  0.50000000  0.56669567  0.08676867  1.0
  Ni  Ni320  1  0.50000000  0.90002900  0.08676867  1.0
  Ni  Ni321  1  0.83333333  0.23336233  0.08676867  1.0
  Ni  Ni322  1  0.83333333  0.56669567  0.08676867  1.0
  Ni  Ni323  1  0.83333333  0.90002900  0.08676867  1.0
  Ni  Ni324  1  0.16666667  0.09997100  0.12675707  1.0
  Ni  Ni325  1  0.16666667  0.43330433  0.12675707  1.0
  Ni  Ni326  1  0.16666667  0.76663767  0.12675707  1.0
  Ni  Ni327  1  0.50000000  0.09997100  0.12675707  1.0
  Ni  Ni328  1  0.50000000  0.43330433  0.12675707  1.0
  Ni  Ni329  1  0.50000000  0.76663767  0.12675707  1.0
  Ni  Ni330  1  0.83333333  0.09997100  0.12675707  1.0
  Ni  Ni331  1  0.83333333  0.43330433  0.12675707  1.0
  Ni  Ni332  1  0.83333333  0.76663767  0.12675707  1.0
  Ni  Ni333  1  0.16666667  0.26663767  0.09342373  1.0
  Ni  Ni334  1  0.16666667  0.59997100  0.09342373  1.0
  Ni  Ni335  1  0.16666667  0.93330433  0.09342373  1.0
  Ni  Ni336  1  0.50000000  0.26663767  0.09342373  1.0
  Ni  Ni337  1  0.50000000  0.59997100  0.09342373  1.0
  Ni  Ni338  1  0.50000000  0.93330433  0.09342373  1.0
  Ni  Ni339  1  0.83333333  0.26663767  0.09342373  1.0
  Ni  Ni340  1  0.83333333  0.59997100  0.09342373  1.0
  Ni  Ni341  1  0.83333333  0.93330433  0.09342373  1.0
  Ni  Ni342  1  0.16666667  0.13285233  0.06666667  1.0
  Ni  Ni343  1  0.16666667  0.46618567  0.06666667  1.0
  Ni  Ni344  1  0.16666667  0.79951900  0.06666667  1.0
  Ni  Ni345  1  0.50000000  0.13285233  0.06666667  1.0
  Ni  Ni346  1  0.50000000  0.46618567  0.06666667  1.0
  Ni  Ni347  1  0.50000000  0.79951900  0.06666667  1.0
  Ni  Ni348  1  0.83333333  0.13285233  0.06666667  1.0
  Ni  Ni349  1  0.83333333  0.46618567  0.06666667  1.0
  Ni  Ni350  1  0.83333333  0.79951900  0.06666667  1.0
  Ni  Ni351  1  0.16666667  0.29951900  0.10000000  1.0
  Ni  Ni352  1  0.16666667  0.63285233  0.10000000  1.0
  Ni  Ni353  1  0.16666667  0.96618567  0.10000000  1.0
  Ni  Ni354  1  0.50000000  0.29951900  0.10000000  1.0
  Ni  Ni355  1  0.50000000  0.63285233  0.10000000  1.0
  Ni  Ni356  1  0.50000000  0.96618567  0.10000000  1.0
  Ni  Ni357  1  0.83333333  0.29951900  0.10000000  1.0
  Ni  Ni358  1  0.83333333  0.63285233  0.10000000  1.0
  Ni  Ni359  1  0.83333333  0.96618567  0.10000000  1.0
  Fe  Fe360  1  0.00000000  0.14926733  0.13661633  1.0
  Fe  Fe361  1  0.00000000  0.48260067  0.13661633  1.0
  Fe  Fe362  1  0.00000000  0.81593400  0.13661633  1.0
  Fe  Fe363  1  0.33333333  0.14926733  0.13661633  1.0
  Fe  Fe364  1  0.33333333  0.48260067  0.13661633  1.0
  Fe  Fe365  1  0.33333333  0.81593400  0.13661633  1.0
  Fe  Fe366  1  0.66666667  0.14926733  0.13661633  1.0
  Fe  Fe367  1  0.66666667  0.48260067  0.13661633  1.0
  Fe  Fe368  1  0.66666667  0.81593400  0.13661633  1.0
  Fe  Fe369  1  0.00000000  0.31593400  0.16994967  1.0
  Fe  Fe370  1  0.00000000  0.64926733  0.16994967  1.0
  Fe  Fe371  1  0.00000000  0.98260067  0.16994967  1.0
  Fe  Fe372  1  0.33333333  0.31593400  0.16994967  1.0
  Fe  Fe373  1  0.33333333  0.64926733  0.16994967  1.0
  Fe  Fe374  1  0.33333333  0.98260067  0.16994967  1.0
  Fe  Fe375  1  0.66666667  0.31593400  0.16994967  1.0
  Fe  Fe376  1  0.66666667  0.64926733  0.16994967  1.0
  Fe  Fe377  1  0.66666667  0.98260067  0.16994967  1.0
  Fe  Fe378  1  0.00000000  0.01739933  0.17690940  1.0
  Fe  Fe379  1  0.00000000  0.35073267  0.17690940  1.0
  Fe  Fe380  1  0.00000000  0.68406600  0.17690940  1.0
  Fe  Fe381  1  0.33333333  0.01739933  0.17690940  1.0
  Fe  Fe382  1  0.33333333  0.35073267  0.17690940  1.0
  Fe  Fe383  1  0.33333333  0.68406600  0.17690940  1.0
  Fe  Fe384  1  0.66666667  0.01739933  0.17690940  1.0
  Fe  Fe385  1  0.66666667  0.35073267  0.17690940  1.0
  Fe  Fe386  1  0.66666667  0.68406600  0.17690940  1.0
  Fe  Fe387  1  0.00000000  0.18406600  0.14357607  1.0
  Fe  Fe388  1  0.00000000  0.51739933  0.14357607  1.0
  Fe  Fe389  1  0.00000000  0.85073267  0.14357607  1.0
  Fe  Fe390  1  0.33333333  0.18406600  0.14357607  1.0
  Fe  Fe391  1  0.33333333  0.51739933  0.14357607  1.0
  Fe  Fe392  1  0.33333333  0.85073267  0.14357607  1.0
  Fe  Fe393  1  0.66666667  0.18406600  0.14357607  1.0
  Fe  Fe394  1  0.66666667  0.51739933  0.14357607  1.0
  Fe  Fe395  1  0.66666667  0.85073267  0.14357607  1.0
  Fe  Fe396  1  0.00000000  0.05021533  0.18347260  1.0
  Fe  Fe397  1  0.00000000  0.38354867  0.18347260  1.0
  Fe  Fe398  1  0.00000000  0.71688200  0.18347260  1.0
  Fe  Fe399  1  0.33333333  0.05021533  0.18347260  1.0
  Fe  Fe400  1  0.33333333  0.38354867  0.18347260  1.0
  Fe  Fe401  1  0.33333333  0.71688200  0.18347260  1.0
  Fe  Fe402  1  0.66666667  0.05021533  0.18347260  1.0
  Fe  Fe403  1  0.66666667  0.38354867  0.18347260  1.0
  Fe  Fe404  1  0.66666667  0.71688200  0.18347260  1.0
  Fe  Fe405  1  0.00000000  0.21688200  0.15013927  1.0
  Fe  Fe406  1  0.00000000  0.55021533  0.15013927  1.0
  Fe  Fe407  1  0.00000000  0.88354867  0.15013927  1.0
  Fe  Fe408  1  0.33333333  0.21688200  0.15013927  1.0
  Fe  Fe409  1  0.33333333  0.55021533  0.15013927  1.0
  Fe  Fe410  1  0.33333333  0.88354867  0.15013927  1.0
  Fe  Fe411  1  0.66666667  0.21688200  0.15013927  1.0
  Fe  Fe412  1  0.66666667  0.55021533  0.15013927  1.0
  Fe  Fe413  1  0.66666667  0.88354867  0.15013927  1.0
  Fe  Fe414  1  0.00000000  0.08333333  0.19009620  1.0
  Fe  Fe415  1  0.00000000  0.41666667  0.19009620  1.0
  Fe  Fe416  1  0.00000000  0.75000000  0.19009620  1.0
  Fe  Fe417  1  0.33333333  0.08333333  0.19009620  1.0
  Fe  Fe418  1  0.33333333  0.41666667  0.19009620  1.0
  Fe  Fe419  1  0.33333333  0.75000000  0.19009620  1.0
  Fe  Fe420  1  0.66666667  0.08333333  0.19009620  1.0
  Fe  Fe421  1  0.66666667  0.41666667  0.19009620  1.0
  Fe  Fe422  1  0.66666667  0.75000000  0.19009620  1.0
  Fe  Fe423  1  0.00000000  0.25000000  0.15676287  1.0
  Fe  Fe424  1  0.00000000  0.58333333  0.15676287  1.0
  Fe  Fe425  1  0.00000000  0.91666667  0.15676287  1.0
  Fe  Fe426  1  0.33333333  0.25000000  0.15676287  1.0
  Fe  Fe427  1  0.33333333  0.58333333  0.15676287  1.0
  Fe  Fe428  1  0.33333333  0.91666667  0.15676287  1.0
  Fe  Fe429  1  0.66666667  0.25000000  0.15676287  1.0
  Fe  Fe430  1  0.66666667  0.58333333  0.15676287  1.0
  Fe  Fe431  1  0.66666667  0.91666667  0.15676287  1.0
  Fe  Fe432  1  0.00000000  0.11645133  0.19671980  1.0
  Fe  Fe433  1  0.00000000  0.44978467  0.19671980  1.0
  Fe  Fe434  1  0.00000000  0.78311800  0.19671980  1.0
  Fe  Fe435  1  0.33333333  0.11645133  0.19671980  1.0
  Fe  Fe436  1  0.33333333  0.44978467  0.19671980  1.0
  Fe  Fe437  1  0.33333333  0.78311800  0.19671980  1.0
  Fe  Fe438  1  0.66666667  0.11645133  0.19671980  1.0
  Fe  Fe439  1  0.66666667  0.44978467  0.19671980  1.0
  Fe  Fe440  1  0.66666667  0.78311800  0.19671980  1.0
  Fe  Fe441  1  0.00000000  0.28311800  0.16338647  1.0
  Fe  Fe442  1  0.00000000  0.61645133  0.16338647  1.0
  Fe  Fe443  1  0.00000000  0.94978467  0.16338647  1.0
  Fe  Fe444  1  0.33333333  0.28311800  0.16338647  1.0
  Fe  Fe445  1  0.33333333  0.61645133  0.16338647  1.0
  Fe  Fe446  1  0.33333333  0.94978467  0.16338647  1.0
  Fe  Fe447  1  0.66666667  0.28311800  0.16338647  1.0
  Fe  Fe448  1  0.66666667  0.61645133  0.16338647  1.0
  Fe  Fe449  1  0.66666667  0.94978467  0.16338647  1.0
  Fe  Fe450  1  0.16666667  0.00000000  0.17342953  1.0
  Fe  Fe451  1  0.16666667  0.33333333  0.17342953  1.0
  Fe  Fe452  1  0.16666667  0.66666667  0.17342953  1.0
  Fe  Fe453  1  0.50000000  0.00000000  0.17342953  1.0
  Fe  Fe454  1  0.50000000  0.33333333  0.17342953  1.0
  Fe  Fe455  1  0.50000000  0.66666667  0.17342953  1.0
  Fe  Fe456  1  0.83333333  0.00000000  0.17342953  1.0
  Fe  Fe457  1  0.83333333  0.33333333  0.17342953  1.0
  Fe  Fe458  1  0.83333333  0.66666667  0.17342953  1.0
  Fe  Fe459  1  0.16666667  0.16666667  0.14009620  1.0
  Fe  Fe460  1  0.16666667  0.50000000  0.14009620  1.0
  Fe  Fe461  1  0.16666667  0.83333333  0.14009620  1.0
  Fe  Fe462  1  0.50000000  0.16666667  0.14009620  1.0
  Fe  Fe463  1  0.50000000  0.50000000  0.14009620  1.0
  Fe  Fe464  1  0.50000000  0.83333333  0.14009620  1.0
  Fe  Fe465  1  0.83333333  0.16666667  0.14009620  1.0
  Fe  Fe466  1  0.83333333  0.50000000  0.14009620  1.0
  Fe  Fe467  1  0.83333333  0.83333333  0.14009620  1.0
  Ni  Ni468  1  0.16666667  0.03381433  0.18019240  1.0
  Ni  Ni469  1  0.16666667  0.36714767  0.18019240  1.0
  Ni  Ni470  1  0.16666667  0.70048100  0.18019240  1.0
  Ni  Ni471  1  0.50000000  0.03381433  0.18019240  1.0
  Ni  Ni472  1  0.50000000  0.36714767  0.18019240  1.0
  Ni  Ni473  1  0.50000000  0.70048100  0.18019240  1.0
  Ni  Ni474  1  0.83333333  0.03381433  0.18019240  1.0
  Ni  Ni475  1  0.83333333  0.36714767  0.18019240  1.0
  Ni  Ni476  1  0.83333333  0.70048100  0.18019240  1.0
  Ni  Ni477  1  0.16666667  0.20048100  0.14685907  1.0
  Ni  Ni478  1  0.16666667  0.53381433  0.14685907  1.0
  Ni  Ni479  1  0.16666667  0.86714767  0.14685907  1.0
  Ni  Ni480  1  0.50000000  0.20048100  0.14685907  1.0
  Ni  Ni481  1  0.50000000  0.53381433  0.14685907  1.0
  Ni  Ni482  1  0.50000000  0.86714767  0.14685907  1.0
  Ni  Ni483  1  0.83333333  0.20048100  0.14685907  1.0
  Ni  Ni484  1  0.83333333  0.53381433  0.14685907  1.0
  Ni  Ni485  1  0.83333333  0.86714767  0.14685907  1.0
  Ni  Ni486  1  0.16666667  0.06669567  0.18676867  1.0
  Ni  Ni487  1  0.16666667  0.40002900  0.18676867  1.0
  Ni  Ni488  1  0.16666667  0.73336233  0.18676867  1.0
  Ni  Ni489  1  0.50000000  0.06669567  0.18676867  1.0
  Ni  Ni490  1  0.50000000  0.40002900  0.18676867  1.0
  Ni  Ni491  1  0.50000000  0.73336233  0.18676867  1.0
  Ni  Ni492  1  0.83333333  0.06669567  0.18676867  1.0
  Ni  Ni493  1  0.83333333  0.40002900  0.18676867  1.0
  Ni  Ni494  1  0.83333333  0.73336233  0.18676867  1.0
  Ni  Ni495  1  0.16666667  0.23336233  0.15343533  1.0
  Ni  Ni496  1  0.16666667  0.56669567  0.15343533  1.0
  Ni  Ni497  1  0.16666667  0.90002900  0.15343533  1.0
  Ni  Ni498  1  0.50000000  0.23336233  0.15343533  1.0
  Ni  Ni499  1  0.50000000  0.56669567  0.15343533  1.0
  Ni  Ni500  1  0.50000000  0.90002900  0.15343533  1.0
  Ni  Ni501  1  0.83333333  0.23336233  0.15343533  1.0
  Ni  Ni502  1  0.83333333  0.56669567  0.15343533  1.0
  Ni  Ni503  1  0.83333333  0.90002900  0.15343533  1.0
  Ni  Ni504  1  0.16666667  0.09997100  0.19342373  1.0
  Ni  Ni505  1  0.16666667  0.43330433  0.19342373  1.0
  Ni  Ni506  1  0.16666667  0.76663767  0.19342373  1.0
  Ni  Ni507  1  0.50000000  0.09997100  0.19342373  1.0
  Ni  Ni508  1  0.50000000  0.43330433  0.19342373  1.0
  Ni  Ni509  1  0.50000000  0.76663767  0.19342373  1.0
  Ni  Ni510  1  0.83333333  0.09997100  0.19342373  1.0
  Ni  Ni511  1  0.83333333  0.43330433  0.19342373  1.0
  Ni  Ni512  1  0.83333333  0.76663767  0.19342373  1.0
  Ni  Ni513  1  0.16666667  0.26663767  0.16009040  1.0
  Ni  Ni514  1  0.16666667  0.59997100  0.16009040  1.0
  Ni  Ni515  1  0.16666667  0.93330433  0.16009040  1.0
  Ni  Ni516  1  0.50000000  0.26663767  0.16009040  1.0
  Ni  Ni517  1  0.50000000  0.59997100  0.16009040  1.0
  Ni  Ni518  1  0.50000000  0.93330433  0.16009040  1.0
  Ni  Ni519  1  0.83333333  0.26663767  0.16009040  1.0
  Ni  Ni520  1  0.83333333  0.59997100  0.16009040  1.0
  Ni  Ni521  1  0.83333333  0.93330433  0.16009040  1.0
  Ni  Ni522  1  0.16666667  0.13285233  0.13333333  1.0
  Ni  Ni523  1  0.16666667  0.46618567  0.13333333  1.0
  Ni  Ni524  1  0.16666667  0.79951900  0.13333333  1.0
  Ni  Ni525  1  0.50000000  0.13285233  0.13333333  1.0
  Ni  Ni526  1  0.50000000  0.46618567  0.13333333  1.0
  Ni  Ni527  1  0.50000000  0.79951900  0.13333333  1.0
  Ni  Ni528  1  0.83333333  0.13285233  0.13333333  1.0
  Ni  Ni529  1  0.83333333  0.46618567  0.13333333  1.0
  Ni  Ni530  1  0.83333333  0.79951900  0.13333333  1.0
  Ni  Ni531  1  0.16666667  0.29951900  0.16666667  1.0
  Ni  Ni532  1  0.16666667  0.63285233  0.16666667  1.0
  Ni  Ni533  1  0.16666667  0.96618567  0.16666667  1.0
  Ni  Ni534  1  0.50000000  0.29951900  0.16666667  1.0
  Ni  Ni535  1  0.50000000  0.63285233  0.16666667  1.0
  Ni  Ni536  1  0.50000000  0.96618567  0.16666667  1.0
  Ni  Ni537  1  0.83333333  0.29951900  0.16666667  1.0
  Ni  Ni538  1  0.83333333  0.63285233  0.16666667  1.0
  Ni  Ni539  1  0.83333333  0.96618567  0.16666667  1.0
  Fe  Fe540  1  0.00000000  0.14926733  0.20328300  1.0
  Fe  Fe541  1  0.00000000  0.48260067  0.20328300  1.0
  Fe  Fe542  1  0.00000000  0.81593400  0.20328300  1.0
  Fe  Fe543  1  0.33333333  0.14926733  0.20328300  1.0
  Fe  Fe544  1  0.33333333  0.48260067  0.20328300  1.0
  Fe  Fe545  1  0.33333333  0.81593400  0.20328300  1.0
  Fe  Fe546  1  0.66666667  0.14926733  0.20328300  1.0
  Fe  Fe547  1  0.66666667  0.48260067  0.20328300  1.0
  Fe  Fe548  1  0.66666667  0.81593400  0.20328300  1.0
  Fe  Fe549  1  0.00000000  0.31593400  0.23661633  1.0
  Fe  Fe550  1  0.00000000  0.64926733  0.23661633  1.0
  Fe  Fe551  1  0.00000000  0.98260067  0.23661633  1.0
  Fe  Fe552  1  0.33333333  0.31593400  0.23661633  1.0
  Fe  Fe553  1  0.33333333  0.64926733  0.23661633  1.0
  Fe  Fe554  1  0.33333333  0.98260067  0.23661633  1.0
  Fe  Fe555  1  0.66666667  0.31593400  0.23661633  1.0
  Fe  Fe556  1  0.66666667  0.64926733  0.23661633  1.0
  Fe  Fe557  1  0.66666667  0.98260067  0.23661633  1.0
  Fe  Fe558  1  0.00000000  0.01739933  0.24357607  1.0
  Fe  Fe559  1  0.00000000  0.35073267  0.24357607  1.0
  Fe  Fe560  1  0.00000000  0.68406600  0.24357607  1.0
  Fe  Fe561  1  0.33333333  0.01739933  0.24357607  1.0
  Fe  Fe562  1  0.33333333  0.35073267  0.24357607  1.0
  Fe  Fe563  1  0.33333333  0.68406600  0.24357607  1.0
  Fe  Fe564  1  0.66666667  0.01739933  0.24357607  1.0
  Fe  Fe565  1  0.66666667  0.35073267  0.24357607  1.0
  Fe  Fe566  1  0.66666667  0.68406600  0.24357607  1.0
  Fe  Fe567  1  0.00000000  0.18406600  0.21024273  1.0
  Fe  Fe568  1  0.00000000  0.51739933  0.21024273  1.0
  Fe  Fe569  1  0.00000000  0.85073267  0.21024273  1.0
  Fe  Fe570  1  0.33333333  0.18406600  0.21024273  1.0
  Fe  Fe571  1  0.33333333  0.51739933  0.21024273  1.0
  Fe  Fe572  1  0.33333333  0.85073267  0.21024273  1.0
  Fe  Fe573  1  0.66666667  0.18406600  0.21024273  1.0
  Fe  Fe574  1  0.66666667  0.51739933  0.21024273  1.0
  Fe  Fe575  1  0.66666667  0.85073267  0.21024273  1.0
  Fe  Fe576  1  0.00000000  0.05021533  0.25013927  1.0
  Fe  Fe577  1  0.00000000  0.38354867  0.25013927  1.0
  Fe  Fe578  1  0.00000000  0.71688200  0.25013927  1.0
  Fe  Fe579  1  0.33333333  0.05021533  0.25013927  1.0
  Fe  Fe580  1  0.33333333  0.38354867  0.25013927  1.0
  Fe  Fe581  1  0.33333333  0.71688200  0.25013927  1.0
  Fe  Fe582  1  0.66666667  0.05021533  0.25013927  1.0
  Fe  Fe583  1  0.66666667  0.38354867  0.25013927  1.0
  Fe  Fe584  1  0.66666667  0.71688200  0.25013927  1.0
  Fe  Fe585  1  0.00000000  0.21688200  0.21680593  1.0
  Fe  Fe586  1  0.00000000  0.55021533  0.21680593  1.0
  Fe  Fe587  1  0.00000000  0.88354867  0.21680593  1.0
  Fe  Fe588  1  0.33333333  0.21688200  0.21680593  1.0
  Fe  Fe589  1  0.33333333  0.55021533  0.21680593  1.0
  Fe  Fe590  1  0.33333333  0.88354867  0.21680593  1.0
  Fe  Fe591  1  0.66666667  0.21688200  0.21680593  1.0
  Fe  Fe592  1  0.66666667  0.55021533  0.21680593  1.0
  Fe  Fe593  1  0.66666667  0.88354867  0.21680593  1.0
  Fe  Fe594  1  0.00000000  0.08333333  0.25676287  1.0
  Fe  Fe595  1  0.00000000  0.41666667  0.25676287  1.0
  Fe  Fe596  1  0.00000000  0.75000000  0.25676287  1.0
  Fe  Fe597  1  0.33333333  0.08333333  0.25676287  1.0
  Fe  Fe598  1  0.33333333  0.41666667  0.25676287  1.0
  Fe  Fe599  1  0.33333333  0.75000000  0.25676287  1.0
  Fe  Fe600  1  0.66666667  0.08333333  0.25676287  1.0
  Fe  Fe601  1  0.66666667  0.41666667  0.25676287  1.0
  Fe  Fe602  1  0.66666667  0.75000000  0.25676287  1.0
  Fe  Fe603  1  0.00000000  0.25000000  0.22342953  1.0
  Fe  Fe604  1  0.00000000  0.58333333  0.22342953  1.0
  Fe  Fe605  1  0.00000000  0.91666667  0.22342953  1.0
  Fe  Fe606  1  0.33333333  0.25000000  0.22342953  1.0
  Fe  Fe607  1  0.33333333  0.58333333  0.22342953  1.0
  Fe  Fe608  1  0.33333333  0.91666667  0.22342953  1.0
  Fe  Fe609  1  0.66666667  0.25000000  0.22342953  1.0
  Fe  Fe610  1  0.66666667  0.58333333  0.22342953  1.0
  Fe  Fe611  1  0.66666667  0.91666667  0.22342953  1.0
  Fe  Fe612  1  0.00000000  0.11645133  0.26338647  1.0
  Fe  Fe613  1  0.00000000  0.44978467  0.26338647  1.0
  Fe  Fe614  1  0.00000000  0.78311800  0.26338647  1.0
  Fe  Fe615  1  0.33333333  0.11645133  0.26338647  1.0
  Fe  Fe616  1  0.33333333  0.44978467  0.26338647  1.0
  Fe  Fe617  1  0.33333333  0.78311800  0.26338647  1.0
  Fe  Fe618  1  0.66666667  0.11645133  0.26338647  1.0
  Fe  Fe619  1  0.66666667  0.44978467  0.26338647  1.0
  Fe  Fe620  1  0.66666667  0.78311800  0.26338647  1.0
  Fe  Fe621  1  0.00000000  0.28311800  0.23005313  1.0
  Fe  Fe622  1  0.00000000  0.61645133  0.23005313  1.0
  Fe  Fe623  1  0.00000000  0.94978467  0.23005313  1.0
  Fe  Fe624  1  0.33333333  0.28311800  0.23005313  1.0
  Fe  Fe625  1  0.33333333  0.61645133  0.23005313  1.0
  Fe  Fe626  1  0.33333333  0.94978467  0.23005313  1.0
  Fe  Fe627  1  0.66666667  0.28311800  0.23005313  1.0
  Fe  Fe628  1  0.66666667  0.61645133  0.23005313  1.0
  Fe  Fe629  1  0.66666667  0.94978467  0.23005313  1.0
  Fe  Fe630  1  0.16666667  0.00000000  0.24009620  1.0
  Fe  Fe631  1  0.16666667  0.33333333  0.24009620  1.0
  Fe  Fe632  1  0.16666667  0.66666667  0.24009620  1.0
  Fe  Fe633  1  0.50000000  0.00000000  0.24009620  1.0
  Fe  Fe634  1  0.50000000  0.33333333  0.24009620  1.0
  Fe  Fe635  1  0.50000000  0.66666667  0.24009620  1.0
  Fe  Fe636  1  0.83333333  0.00000000  0.24009620  1.0
  Fe  Fe637  1  0.83333333  0.33333333  0.24009620  1.0
  Fe  Fe638  1  0.83333333  0.66666667  0.24009620  1.0
  Fe  Fe639  1  0.16666667  0.16666667  0.20676287  1.0
  Fe  Fe640  1  0.16666667  0.50000000  0.20676287  1.0
  Fe  Fe641  1  0.16666667  0.83333333  0.20676287  1.0
  Fe  Fe642  1  0.50000000  0.16666667  0.20676287  1.0
  Fe  Fe643  1  0.50000000  0.50000000  0.20676287  1.0
  Fe  Fe644  1  0.50000000  0.83333333  0.20676287  1.0
  Fe  Fe645  1  0.83333333  0.16666667  0.20676287  1.0
  Fe  Fe646  1  0.83333333  0.50000000  0.20676287  1.0
  Fe  Fe647  1  0.83333333  0.83333333  0.20676287  1.0
  Ni  Ni648  1  0.16666667  0.03381433  0.24685907  1.0
  Ni  Ni649  1  0.16666667  0.36714767  0.24685907  1.0
  Ni  Ni650  1  0.16666667  0.70048100  0.24685907  1.0
  Ni  Ni651  1  0.50000000  0.03381433  0.24685907  1.0
  Ni  Ni652  1  0.50000000  0.36714767  0.24685907  1.0
  Ni  Ni653  1  0.50000000  0.70048100  0.24685907  1.0
  Ni  Ni654  1  0.83333333  0.03381433  0.24685907  1.0
  Ni  Ni655  1  0.83333333  0.36714767  0.24685907  1.0
  Ni  Ni656  1  0.83333333  0.70048100  0.24685907  1.0
  Ni  Ni657  1  0.16666667  0.20048100  0.21352573  1.0
  Ni  Ni658  1  0.16666667  0.53381433  0.21352573  1.0
  Ni  Ni659  1  0.16666667  0.86714767  0.21352573  1.0
  Ni  Ni660  1  0.50000000  0.20048100  0.21352573  1.0
  Ni  Ni661  1  0.50000000  0.53381433  0.21352573  1.0
  Ni  Ni662  1  0.50000000  0.86714767  0.21352573  1.0
  Ni  Ni663  1  0.83333333  0.20048100  0.21352573  1.0
  Ni  Ni664  1  0.83333333  0.53381433  0.21352573  1.0
  Ni  Ni665  1  0.83333333  0.86714767  0.21352573  1.0
  Ni  Ni666  1  0.16666667  0.06669567  0.25343533  1.0
  Ni  Ni667  1  0.16666667  0.40002900  0.25343533  1.0
  Ni  Ni668  1  0.16666667  0.73336233  0.25343533  1.0
  Ni  Ni669  1  0.50000000  0.06669567  0.25343533  1.0
  Ni  Ni670  1  0.50000000  0.40002900  0.25343533  1.0
  Ni  Ni671  1  0.50000000  0.73336233  0.25343533  1.0
  Ni  Ni672  1  0.83333333  0.06669567  0.25343533  1.0
  Ni  Ni673  1  0.83333333  0.40002900  0.25343533  1.0
  Ni  Ni674  1  0.83333333  0.73336233  0.25343533  1.0
  Ni  Ni675  1  0.16666667  0.23336233  0.22010200  1.0
  Ni  Ni676  1  0.16666667  0.56669567  0.22010200  1.0
  Ni  Ni677  1  0.16666667  0.90002900  0.22010200  1.0
  Ni  Ni678  1  0.50000000  0.23336233  0.22010200  1.0
  Ni  Ni679  1  0.50000000  0.56669567  0.22010200  1.0
  Ni  Ni680  1  0.50000000  0.90002900  0.22010200  1.0
  Ni  Ni681  1  0.83333333  0.23336233  0.22010200  1.0
  Ni  Ni682  1  0.83333333  0.56669567  0.22010200  1.0
  Ni  Ni683  1  0.83333333  0.90002900  0.22010200  1.0
  Ni  Ni684  1  0.16666667  0.09997100  0.26009040  1.0
  Ni  Ni685  1  0.16666667  0.43330433  0.26009040  1.0
  Ni  Ni686  1  0.16666667  0.76663767  0.26009040  1.0
  Ni  Ni687  1  0.50000000  0.09997100  0.26009040  1.0
  Ni  Ni688  1  0.50000000  0.43330433  0.26009040  1.0
  Ni  Ni689  1  0.50000000  0.76663767  0.26009040  1.0
  Ni  Ni690  1  0.83333333  0.09997100  0.26009040  1.0
  Ni  Ni691  1  0.83333333  0.43330433  0.26009040  1.0
  Ni  Ni692  1  0.83333333  0.76663767  0.26009040  1.0
  Ni  Ni693  1  0.16666667  0.26663767  0.22675707  1.0
  Ni  Ni694  1  0.16666667  0.59997100  0.22675707  1.0
  Ni  Ni695  1  0.16666667  0.93330433  0.22675707  1.0
  Ni  Ni696  1  0.50000000  0.26663767  0.22675707  1.0
  Ni  Ni697  1  0.50000000  0.59997100  0.22675707  1.0
  Ni  Ni698  1  0.50000000  0.93330433  0.22675707  1.0
  Ni  Ni699  1  0.83333333  0.26663767  0.22675707  1.0
  Ni  Ni700  1  0.83333333  0.59997100  0.22675707  1.0
  Ni  Ni701  1  0.83333333  0.93330433  0.22675707  1.0
  Ni  Ni702  1  0.16666667  0.13285233  0.20000000  1.0
  Ni  Ni703  1  0.16666667  0.46618567  0.20000000  1.0
  Ni  Ni704  1  0.16666667  0.79951900  0.20000000  1.0
  Ni  Ni705  1  0.50000000  0.13285233  0.20000000  1.0
  Ni  Ni706  1  0.50000000  0.46618567  0.20000000  1.0
  Ni  Ni707  1  0.50000000  0.79951900  0.20000000  1.0
  Ni  Ni708  1  0.83333333  0.13285233  0.20000000  1.0
  Ni  Ni709  1  0.83333333  0.46618567  0.20000000  1.0
  Ni  Ni710  1  0.83333333  0.79951900  0.20000000  1.0
  Ni  Ni711  1  0.16666667  0.29951900  0.23333333  1.0
  Ni  Ni712  1  0.16666667  0.63285233  0.23333333  1.0
  Ni  Ni713  1  0.16666667  0.96618567  0.23333333  1.0
  Ni  Ni714  1  0.50000000  0.29951900  0.23333333  1.0
  Ni  Ni715  1  0.50000000  0.63285233  0.23333333  1.0
  Ni  Ni716  1  0.50000000  0.96618567  0.23333333  1.0
  Ni  Ni717  1  0.83333333  0.29951900  0.23333333  1.0
  Ni  Ni718  1  0.83333333  0.63285233  0.23333333  1.0
  Ni  Ni719  1  0.83333333  0.96618567  0.23333333  1.0
  Fe  Fe720  1  0.00000000  0.14926733  0.26994967  1.0
  Fe  Fe721  1  0.00000000  0.48260067  0.26994967  1.0
  Fe  Fe722  1  0.00000000  0.81593400  0.26994967  1.0
  Fe  Fe723  1  0.33333333  0.14926733  0.26994967  1.0
  Fe  Fe724  1  0.33333333  0.48260067  0.26994967  1.0
  Fe  Fe725  1  0.33333333  0.81593400  0.26994967  1.0
  Fe  Fe726  1  0.66666667  0.14926733  0.26994967  1.0
  Fe  Fe727  1  0.66666667  0.48260067  0.26994967  1.0
  Fe  Fe728  1  0.66666667  0.81593400  0.26994967  1.0
  Fe  Fe729  1  0.00000000  0.31593400  0.30328300  1.0
  Fe  Fe730  1  0.00000000  0.64926733  0.30328300  1.0
  Fe  Fe731  1  0.00000000  0.98260067  0.30328300  1.0
  Fe  Fe732  1  0.33333333  0.31593400  0.30328300  1.0
  Fe  Fe733  1  0.33333333  0.64926733  0.30328300  1.0
  Fe  Fe734  1  0.33333333  0.98260067  0.30328300  1.0
  Fe  Fe735  1  0.66666667  0.31593400  0.30328300  1.0
  Fe  Fe736  1  0.66666667  0.64926733  0.30328300  1.0
  Fe  Fe737  1  0.66666667  0.98260067  0.30328300  1.0
  Fe  Fe738  1  0.00000000  0.01739933  0.31024273  1.0
  Fe  Fe739  1  0.00000000  0.35073267  0.31024273  1.0
  Fe  Fe740  1  0.00000000  0.68406600  0.31024273  1.0
  Fe  Fe741  1  0.33333333  0.01739933  0.31024273  1.0
  Fe  Fe742  1  0.33333333  0.35073267  0.31024273  1.0
  Fe  Fe743  1  0.33333333  0.68406600  0.31024273  1.0
  Fe  Fe744  1  0.66666667  0.01739933  0.31024273  1.0
  Fe  Fe745  1  0.66666667  0.35073267  0.31024273  1.0
  Fe  Fe746  1  0.66666667  0.68406600  0.31024273  1.0
  Fe  Fe747  1  0.00000000  0.18406600  0.27690940  1.0
  Fe  Fe748  1  0.00000000  0.51739933  0.27690940  1.0
  Fe  Fe749  1  0.00000000  0.85073267  0.27690940  1.0
  Fe  Fe750  1  0.33333333  0.18406600  0.27690940  1.0
  Fe  Fe751  1  0.33333333  0.51739933  0.27690940  1.0
  Fe  Fe752  1  0.33333333  0.85073267  0.27690940  1.0
  Fe  Fe753  1  0.66666667  0.18406600  0.27690940  1.0
  Fe  Fe754  1  0.66666667  0.51739933  0.27690940  1.0
  Fe  Fe755  1  0.66666667  0.85073267  0.27690940  1.0
  Fe  Fe756  1  0.00000000  0.05021533  0.31680593  1.0
  Fe  Fe757  1  0.00000000  0.38354867  0.31680593  1.0
  Fe  Fe758  1  0.00000000  0.71688200  0.31680593  1.0
  Fe  Fe759  1  0.33333333  0.05021533  0.31680593  1.0
  Fe  Fe760  1  0.33333333  0.38354867  0.31680593  1.0
  Fe  Fe761  1  0.33333333  0.71688200  0.31680593  1.0
  Fe  Fe762  1  0.66666667  0.05021533  0.31680593  1.0
  Fe  Fe763  1  0.66666667  0.38354867  0.31680593  1.0
  Fe  Fe764  1  0.66666667  0.71688200  0.31680593  1.0
  Fe  Fe765  1  0.00000000  0.21688200  0.28347260  1.0
  Fe  Fe766  1  0.00000000  0.55021533  0.28347260  1.0
  Fe  Fe767  1  0.00000000  0.88354867  0.28347260  1.0
  Fe  Fe768  1  0.33333333  0.21688200  0.28347260  1.0
  Fe  Fe769  1  0.33333333  0.55021533  0.28347260  1.0
  Fe  Fe770  1  0.33333333  0.88354867  0.28347260  1.0
  Fe  Fe771  1  0.66666667  0.21688200  0.28347260  1.0
  Fe  Fe772  1  0.66666667  0.55021533  0.28347260  1.0
  Fe  Fe773  1  0.66666667  0.88354867  0.28347260  1.0
  Fe  Fe774  1  0.00000000  0.08333333  0.32342953  1.0
  Fe  Fe775  1  0.00000000  0.41666667  0.32342953  1.0
  Fe  Fe776  1  0.00000000  0.75000000  0.32342953  1.0
  Fe  Fe777  1  0.33333333  0.08333333  0.32342953  1.0
  Fe  Fe778  1  0.33333333  0.41666667  0.32342953  1.0
  Fe  Fe779  1  0.33333333  0.75000000  0.32342953  1.0
  Fe  Fe780  1  0.66666667  0.08333333  0.32342953  1.0
  Fe  Fe781  1  0.66666667  0.41666667  0.32342953  1.0
  Fe  Fe782  1  0.66666667  0.75000000  0.32342953  1.0
  Fe  Fe783  1  0.00000000  0.25000000  0.29009620  1.0
  Fe  Fe784  1  0.00000000  0.58333333  0.29009620  1.0
  Fe  Fe785  1  0.00000000  0.91666667  0.29009620  1.0
  Fe  Fe786  1  0.33333333  0.25000000  0.29009620  1.0
  Fe  Fe787  1  0.33333333  0.58333333  0.29009620  1.0
  Fe  Fe788  1  0.33333333  0.91666667  0.29009620  1.0
  Fe  Fe789  1  0.66666667  0.25000000  0.29009620  1.0
  Fe  Fe790  1  0.66666667  0.58333333  0.29009620  1.0
  Fe  Fe791  1  0.66666667  0.91666667  0.29009620  1.0
  Fe  Fe792  1  0.00000000  0.11645133  0.33005313  1.0
  Fe  Fe793  1  0.00000000  0.44978467  0.33005313  1.0
  Fe  Fe794  1  0.00000000  0.78311800  0.33005313  1.0
  Fe  Fe795  1  0.33333333  0.11645133  0.33005313  1.0
  Fe  Fe796  1  0.33333333  0.44978467  0.33005313  1.0
  Fe  Fe797  1  0.33333333  0.78311800  0.33005313  1.0
  Fe  Fe798  1  0.66666667  0.11645133  0.33005313  1.0
  Fe  Fe799  1  0.66666667  0.44978467  0.33005313  1.0
  Fe  Fe800  1  0.66666667  0.78311800  0.33005313  1.0
  Fe  Fe801  1  0.00000000  0.28311800  0.29671980  1.0
  Fe  Fe802  1  0.00000000  0.61645133  0.29671980  1.0
  Fe  Fe803  1  0.00000000  0.94978467  0.29671980  1.0
  Fe  Fe804  1  0.33333333  0.28311800  0.29671980  1.0
  Fe  Fe805  1  0.33333333  0.61645133  0.29671980  1.0
  Fe  Fe806  1  0.33333333  0.94978467  0.29671980  1.0
  Fe  Fe807  1  0.66666667  0.28311800  0.29671980  1.0
  Fe  Fe808  1  0.66666667  0.61645133  0.29671980  1.0
  Fe  Fe809  1  0.66666667  0.94978467  0.29671980  1.0
  Fe  Fe810  1  0.16666667  0.00000000  0.30676287  1.0
  Fe  Fe811  1  0.16666667  0.33333333  0.30676287  1.0
  Fe  Fe812  1  0.16666667  0.66666667  0.30676287  1.0
  Fe  Fe813  1  0.50000000  0.00000000  0.30676287  1.0
  Fe  Fe814  1  0.50000000  0.33333333  0.30676287  1.0
  Fe  Fe815  1  0.50000000  0.66666667  0.30676287  1.0
  Fe  Fe816  1  0.83333333  0.00000000  0.30676287  1.0
  Fe  Fe817  1  0.83333333  0.33333333  0.30676287  1.0
  Fe  Fe818  1  0.83333333  0.66666667  0.30676287  1.0
  Fe  Fe819  1  0.16666667  0.16666667  0.27342953  1.0
  Fe  Fe820  1  0.16666667  0.50000000  0.27342953  1.0
  Fe  Fe821  1  0.16666667  0.83333333  0.27342953  1.0
  Fe  Fe822  1  0.50000000  0.16666667  0.27342953  1.0
  Fe  Fe823  1  0.50000000  0.50000000  0.27342953  1.0
  Fe  Fe824  1  0.50000000  0.83333333  0.27342953  1.0
  Fe  Fe825  1  0.83333333  0.16666667  0.27342953  1.0
  Fe  Fe826  1  0.83333333  0.50000000  0.27342953  1.0
  Fe  Fe827  1  0.83333333  0.83333333  0.27342953  1.0
  Ni  Ni828  1  0.16666667  0.03381433  0.31352573  1.0
  Ni  Ni829  1  0.16666667  0.36714767  0.31352573  1.0
  Ni  Ni830  1  0.16666667  0.70048100  0.31352573  1.0
  Ni  Ni831  1  0.50000000  0.03381433  0.31352573  1.0
  Ni  Ni832  1  0.50000000  0.36714767  0.31352573  1.0
  Ni  Ni833  1  0.50000000  0.70048100  0.31352573  1.0
  Ni  Ni834  1  0.83333333  0.03381433  0.31352573  1.0
  Ni  Ni835  1  0.83333333  0.36714767  0.31352573  1.0
  Ni  Ni836  1  0.83333333  0.70048100  0.31352573  1.0
  Ni  Ni837  1  0.16666667  0.20048100  0.28019240  1.0
  Ni  Ni838  1  0.16666667  0.53381433  0.28019240  1.0
  Ni  Ni839  1  0.16666667  0.86714767  0.28019240  1.0
  Ni  Ni840  1  0.50000000  0.20048100  0.28019240  1.0
  Ni  Ni841  1  0.50000000  0.53381433  0.28019240  1.0
  Ni  Ni842  1  0.50000000  0.86714767  0.28019240  1.0
  Ni  Ni843  1  0.83333333  0.20048100  0.28019240  1.0
  Ni  Ni844  1  0.83333333  0.53381433  0.28019240  1.0
  Ni  Ni845  1  0.83333333  0.86714767  0.28019240  1.0
  Ni  Ni846  1  0.16666667  0.06669567  0.32010200  1.0
  Ni  Ni847  1  0.16666667  0.40002900  0.32010200  1.0
  Ni  Ni848  1  0.16666667  0.73336233  0.32010200  1.0
  Ni  Ni849  1  0.50000000  0.06669567  0.32010200  1.0
  Ni  Ni850  1  0.50000000  0.40002900  0.32010200  1.0
  Ni  Ni851  1  0.50000000  0.73336233  0.32010200  1.0
  Ni  Ni852  1  0.83333333  0.06669567  0.32010200  1.0
  Ni  Ni853  1  0.83333333  0.40002900  0.32010200  1.0
  Ni  Ni854  1  0.83333333  0.73336233  0.32010200  1.0
  Ni  Ni855  1  0.16666667  0.23336233  0.28676867  1.0
  Ni  Ni856  1  0.16666667  0.56669567  0.28676867  1.0
  Ni  Ni857  1  0.16666667  0.90002900  0.28676867  1.0
  Ni  Ni858  1  0.50000000  0.23336233  0.28676867  1.0
  Ni  Ni859  1  0.50000000  0.56669567  0.28676867  1.0
  Ni  Ni860  1  0.50000000  0.90002900  0.28676867  1.0
  Ni  Ni861  1  0.83333333  0.23336233  0.28676867  1.0
  Ni  Ni862  1  0.83333333  0.56669567  0.28676867  1.0
  Ni  Ni863  1  0.83333333  0.90002900  0.28676867  1.0
  Ni  Ni864  1  0.16666667  0.09997100  0.32675707  1.0
  Ni  Ni865  1  0.16666667  0.43330433  0.32675707  1.0
  Ni  Ni866  1  0.16666667  0.76663767  0.32675707  1.0
  Ni  Ni867  1  0.50000000  0.09997100  0.32675707  1.0
  Ni  Ni868  1  0.50000000  0.43330433  0.32675707  1.0
  Ni  Ni869  1  0.50000000  0.76663767  0.32675707  1.0
  Ni  Ni870  1  0.83333333  0.09997100  0.32675707  1.0
  Ni  Ni871  1  0.83333333  0.43330433  0.32675707  1.0
  Ni  Ni872  1  0.83333333  0.76663767  0.32675707  1.0
  Ni  Ni873  1  0.16666667  0.26663767  0.29342373  1.0
  Ni  Ni874  1  0.16666667  0.59997100  0.29342373  1.0
  Ni  Ni875  1  0.16666667  0.93330433  0.29342373  1.0
  Ni  Ni876  1  0.50000000  0.26663767  0.29342373  1.0
  Ni  Ni877  1  0.50000000  0.59997100  0.29342373  1.0
  Ni  Ni878  1  0.50000000  0.93330433  0.29342373  1.0
  Ni  Ni879  1  0.83333333  0.26663767  0.29342373  1.0
  Ni  Ni880  1  0.83333333  0.59997100  0.29342373  1.0
  Ni  Ni881  1  0.83333333  0.93330433  0.29342373  1.0
  Ni  Ni882  1  0.16666667  0.13285233  0.26666667  1.0
  Ni  Ni883  1  0.16666667  0.46618567  0.26666667  1.0
  Ni  Ni884  1  0.16666667  0.79951900  0.26666667  1.0
  Ni  Ni885  1  0.50000000  0.13285233  0.26666667  1.0
  Ni  Ni886  1  0.50000000  0.46618567  0.26666667  1.0
  Ni  Ni887  1  0.50000000  0.79951900  0.26666667  1.0
  Ni  Ni888  1  0.83333333  0.13285233  0.26666667  1.0
  Ni  Ni889  1  0.83333333  0.46618567  0.26666667  1.0
  Ni  Ni890  1  0.83333333  0.79951900  0.26666667  1.0
  Ni  Ni891  1  0.16666667  0.29951900  0.30000000  1.0
  Ni  Ni892  1  0.16666667  0.63285233  0.30000000  1.0
  Ni  Ni893  1  0.16666667  0.96618567  0.30000000  1.0
  Ni  Ni894  1  0.50000000  0.29951900  0.30000000  1.0
  Ni  Ni895  1  0.50000000  0.63285233  0.30000000  1.0
  Ni  Ni896  1  0.50000000  0.96618567  0.30000000  1.0
  Ni  Ni897  1  0.83333333  0.29951900  0.30000000  1.0
  Ni  Ni898  1  0.83333333  0.63285233  0.30000000  1.0
  Ni  Ni899  1  0.83333333  0.96618567  0.30000000  1.0
  Fe  Fe900  1  0.00000000  0.14926733  0.33661633  1.0
  Fe  Fe901  1  0.00000000  0.48260067  0.33661633  1.0
  Fe  Fe902  1  0.00000000  0.81593400  0.33661633  1.0
  Fe  Fe903  1  0.33333333  0.14926733  0.33661633  1.0
  Fe  Fe904  1  0.33333333  0.48260067  0.33661633  1.0
  Fe  Fe905  1  0.33333333  0.81593400  0.33661633  1.0
  Fe  Fe906  1  0.66666667  0.14926733  0.33661633  1.0
  Fe  Fe907  1  0.66666667  0.48260067  0.33661633  1.0
  Fe  Fe908  1  0.66666667  0.81593400  0.33661633  1.0
  Fe  Fe909  1  0.00000000  0.31593400  0.36994967  1.0
  Fe  Fe910  1  0.00000000  0.64926733  0.36994967  1.0
  Fe  Fe911  1  0.00000000  0.98260067  0.36994967  1.0
  Fe  Fe912  1  0.33333333  0.31593400  0.36994967  1.0
  Fe  Fe913  1  0.33333333  0.64926733  0.36994967  1.0
  Fe  Fe914  1  0.33333333  0.98260067  0.36994967  1.0
  Fe  Fe915  1  0.66666667  0.31593400  0.36994967  1.0
  Fe  Fe916  1  0.66666667  0.64926733  0.36994967  1.0
  Fe  Fe917  1  0.66666667  0.98260067  0.36994967  1.0
  Fe  Fe918  1  0.00000000  0.01739933  0.37690940  1.0
  Fe  Fe919  1  0.00000000  0.35073267  0.37690940  1.0
  Fe  Fe920  1  0.00000000  0.68406600  0.37690940  1.0
  Fe  Fe921  1  0.33333333  0.01739933  0.37690940  1.0
  Fe  Fe922  1  0.33333333  0.35073267  0.37690940  1.0
  Fe  Fe923  1  0.33333333  0.68406600  0.37690940  1.0
  Fe  Fe924  1  0.66666667  0.01739933  0.37690940  1.0
  Fe  Fe925  1  0.66666667  0.35073267  0.37690940  1.0
  Fe  Fe926  1  0.66666667  0.68406600  0.37690940  1.0
  Fe  Fe927  1  0.00000000  0.18406600  0.34357607  1.0
  Fe  Fe928  1  0.00000000  0.51739933  0.34357607  1.0
  Fe  Fe929  1  0.00000000  0.85073267  0.34357607  1.0
  Fe  Fe930  1  0.33333333  0.18406600  0.34357607  1.0
  Fe  Fe931  1  0.33333333  0.51739933  0.34357607  1.0
  Fe  Fe932  1  0.33333333  0.85073267  0.34357607  1.0
  Fe  Fe933  1  0.66666667  0.18406600  0.34357607  1.0
  Fe  Fe934  1  0.66666667  0.51739933  0.34357607  1.0
  Fe  Fe935  1  0.66666667  0.85073267  0.34357607  1.0
  Fe  Fe936  1  0.00000000  0.05021533  0.38347260  1.0
  Fe  Fe937  1  0.00000000  0.38354867  0.38347260  1.0
  Fe  Fe938  1  0.00000000  0.71688200  0.38347260  1.0
  Fe  Fe939  1  0.33333333  0.05021533  0.38347260  1.0
  Fe  Fe940  1  0.33333333  0.38354867  0.38347260  1.0
  Fe  Fe941  1  0.33333333  0.71688200  0.38347260  1.0
  Fe  Fe942  1  0.66666667  0.05021533  0.38347260  1.0
  Fe  Fe943  1  0.66666667  0.38354867  0.38347260  1.0
  Fe  Fe944  1  0.66666667  0.71688200  0.38347260  1.0
  Fe  Fe945  1  0.00000000  0.21688200  0.35013927  1.0
  Fe  Fe946  1  0.00000000  0.55021533  0.35013927  1.0
  Fe  Fe947  1  0.00000000  0.88354867  0.35013927  1.0
  Fe  Fe948  1  0.33333333  0.21688200  0.35013927  1.0
  Fe  Fe949  1  0.33333333  0.55021533  0.35013927  1.0
  Fe  Fe950  1  0.33333333  0.88354867  0.35013927  1.0
  Fe  Fe951  1  0.66666667  0.21688200  0.35013927  1.0
  Fe  Fe952  1  0.66666667  0.55021533  0.35013927  1.0
  Fe  Fe953  1  0.66666667  0.88354867  0.35013927  1.0
  Fe  Fe954  1  0.00000000  0.08333333  0.39009620  1.0
  Fe  Fe955  1  0.00000000  0.41666667  0.39009620  1.0
  Fe  Fe956  1  0.00000000  0.75000000  0.39009620  1.0
  Fe  Fe957  1  0.33333333  0.08333333  0.39009620  1.0
  Fe  Fe958  1  0.33333333  0.41666667  0.39009620  1.0
  Fe  Fe959  1  0.33333333  0.75000000  0.39009620  1.0
  Fe  Fe960  1  0.66666667  0.08333333  0.39009620  1.0
  Fe  Fe961  1  0.66666667  0.41666667  0.39009620  1.0
  Fe  Fe962  1  0.66666667  0.75000000  0.39009620  1.0
  Fe  Fe963  1  0.00000000  0.25000000  0.35676287  1.0
  Fe  Fe964  1  0.00000000  0.58333333  0.35676287  1.0
  Fe  Fe965  1  0.00000000  0.91666667  0.35676287  1.0
  Fe  Fe966  1  0.33333333  0.25000000  0.35676287  1.0
  Fe  Fe967  1  0.33333333  0.58333333  0.35676287  1.0
  Fe  Fe968  1  0.33333333  0.91666667  0.35676287  1.0
  Fe  Fe969  1  0.66666667  0.25000000  0.35676287  1.0
  Fe  Fe970  1  0.66666667  0.58333333  0.35676287  1.0
  Fe  Fe971  1  0.66666667  0.91666667  0.35676287  1.0
  Fe  Fe972  1  0.00000000  0.11645133  0.39671980  1.0
  Fe  Fe973  1  0.00000000  0.44978467  0.39671980  1.0
  Fe  Fe974  1  0.00000000  0.78311800  0.39671980  1.0
  Fe  Fe975  1  0.33333333  0.11645133  0.39671980  1.0
  Fe  Fe976  1  0.33333333  0.44978467  0.39671980  1.0
  Fe  Fe977  1  0.33333333  0.78311800  0.39671980  1.0
  Fe  Fe978  1  0.66666667  0.11645133  0.39671980  1.0
  Fe  Fe979  1  0.66666667  0.44978467  0.39671980  1.0
  Fe  Fe980  1  0.66666667  0.78311800  0.39671980  1.0
  Fe  Fe981  1  0.00000000  0.28311800  0.36338647  1.0
  Fe  Fe982  1  0.00000000  0.61645133  0.36338647  1.0
  Fe  Fe983  1  0.00000000  0.94978467  0.36338647  1.0
  Fe  Fe984  1  0.33333333  0.28311800  0.36338647  1.0
  Fe  Fe985  1  0.33333333  0.61645133  0.36338647  1.0
  Fe  Fe986  1  0.33333333  0.94978467  0.36338647  1.0
  Fe  Fe987  1  0.66666667  0.28311800  0.36338647  1.0
  Fe  Fe988  1  0.66666667  0.61645133  0.36338647  1.0
  Fe  Fe989  1  0.66666667  0.94978467  0.36338647  1.0
  Fe  Fe990  1  0.16666667  0.00000000  0.37342953  1.0
  Fe  Fe991  1  0.16666667  0.33333333  0.37342953  1.0
  Fe  Fe992  1  0.16666667  0.66666667  0.37342953  1.0
  Fe  Fe993  1  0.50000000  0.00000000  0.37342953  1.0
  Fe  Fe994  1  0.50000000  0.33333333  0.37342953  1.0
  Fe  Fe995  1  0.50000000  0.66666667  0.37342953  1.0
  Fe  Fe996  1  0.83333333  0.00000000  0.37342953  1.0
  Fe  Fe997  1  0.83333333  0.33333333  0.37342953  1.0
  Fe  Fe998  1  0.83333333  0.66666667  0.37342953  1.0
  Fe  Fe999  1  0.16666667  0.16666667  0.34009620  1.0
  Fe  Fe1000  1  0.16666667  0.50000000  0.34009620  1.0
  Fe  Fe1001  1  0.16666667  0.83333333  0.34009620  1.0
  Fe  Fe1002  1  0.50000000  0.16666667  0.34009620  1.0
  Fe  Fe1003  1  0.50000000  0.50000000  0.34009620  1.0
  Fe  Fe1004  1  0.50000000  0.83333333  0.34009620  1.0
  Fe  Fe1005  1  0.83333333  0.16666667  0.34009620  1.0
  Fe  Fe1006  1  0.83333333  0.50000000  0.34009620  1.0
  Fe  Fe1007  1  0.83333333  0.83333333  0.34009620  1.0
  Ni  Ni1008  1  0.16666667  0.03381433  0.38019240  1.0
  Ni  Ni1009  1  0.16666667  0.36714767  0.38019240  1.0
  Ni  Ni1010  1  0.16666667  0.70048100  0.38019240  1.0
  Ni  Ni1011  1  0.50000000  0.03381433  0.38019240  1.0
  Ni  Ni1012  1  0.50000000  0.36714767  0.38019240  1.0
  Ni  Ni1013  1  0.50000000  0.70048100  0.38019240  1.0
  Ni  Ni1014  1  0.83333333  0.03381433  0.38019240  1.0
  Ni  Ni1015  1  0.83333333  0.36714767  0.38019240  1.0
  Ni  Ni1016  1  0.83333333  0.70048100  0.38019240  1.0
  Ni  Ni1017  1  0.16666667  0.20048100  0.34685907  1.0
  Ni  Ni1018  1  0.16666667  0.53381433  0.34685907  1.0
  Ni  Ni1019  1  0.16666667  0.86714767  0.34685907  1.0
  Ni  Ni1020  1  0.50000000  0.20048100  0.34685907  1.0
  Ni  Ni1021  1  0.50000000  0.53381433  0.34685907  1.0
  Ni  Ni1022  1  0.50000000  0.86714767  0.34685907  1.0
  Ni  Ni1023  1  0.83333333  0.20048100  0.34685907  1.0
  Ni  Ni1024  1  0.83333333  0.53381433  0.34685907  1.0
  Ni  Ni1025  1  0.83333333  0.86714767  0.34685907  1.0
  Ni  Ni1026  1  0.16666667  0.06669567  0.38676867  1.0
  Ni  Ni1027  1  0.16666667  0.40002900  0.38676867  1.0
  Ni  Ni1028  1  0.16666667  0.73336233  0.38676867  1.0
  Ni  Ni1029  1  0.50000000  0.06669567  0.38676867  1.0
  Ni  Ni1030  1  0.50000000  0.40002900  0.38676867  1.0
  Ni  Ni1031  1  0.50000000  0.73336233  0.38676867  1.0
  Ni  Ni1032  1  0.83333333  0.06669567  0.38676867  1.0
  Ni  Ni1033  1  0.83333333  0.40002900  0.38676867  1.0
  Ni  Ni1034  1  0.83333333  0.73336233  0.38676867  1.0
  Ni  Ni1035  1  0.16666667  0.23336233  0.35343533  1.0
  Ni  Ni1036  1  0.16666667  0.56669567  0.35343533  1.0
  Ni  Ni1037  1  0.16666667  0.90002900  0.35343533  1.0
  Ni  Ni1038  1  0.50000000  0.23336233  0.35343533  1.0
  Ni  Ni1039  1  0.50000000  0.56669567  0.35343533  1.0
  Ni  Ni1040  1  0.50000000  0.90002900  0.35343533  1.0
  Ni  Ni1041  1  0.83333333  0.23336233  0.35343533  1.0
  Ni  Ni1042  1  0.83333333  0.56669567  0.35343533  1.0
  Ni  Ni1043  1  0.83333333  0.90002900  0.35343533  1.0
  Ni  Ni1044  1  0.16666667  0.09997100  0.39342373  1.0
  Ni  Ni1045  1  0.16666667  0.43330433  0.39342373  1.0
  Ni  Ni1046  1  0.16666667  0.76663767  0.39342373  1.0
  Ni  Ni1047  1  0.50000000  0.09997100  0.39342373  1.0
  Ni  Ni1048  1  0.50000000  0.43330433  0.39342373  1.0
  Ni  Ni1049  1  0.50000000  0.76663767  0.39342373  1.0
  Ni  Ni1050  1  0.83333333  0.09997100  0.39342373  1.0
  Ni  Ni1051  1  0.83333333  0.43330433  0.39342373  1.0
  Ni  Ni1052  1  0.83333333  0.76663767  0.39342373  1.0
  Ni  Ni1053  1  0.16666667  0.26663767  0.36009040  1.0
  Ni  Ni1054  1  0.16666667  0.59997100  0.36009040  1.0
  Ni  Ni1055  1  0.16666667  0.93330433  0.36009040  1.0
  Ni  Ni1056  1  0.50000000  0.26663767  0.36009040  1.0
  Ni  Ni1057  1  0.50000000  0.59997100  0.36009040  1.0
  Ni  Ni1058  1  0.50000000  0.93330433  0.36009040  1.0
  Ni  Ni1059  1  0.83333333  0.26663767  0.36009040  1.0
  Ni  Ni1060  1  0.83333333  0.59997100  0.36009040  1.0
  Ni  Ni1061  1  0.83333333  0.93330433  0.36009040  1.0
  Ni  Ni1062  1  0.16666667  0.13285233  0.33333333  1.0
  Ni  Ni1063  1  0.16666667  0.46618567  0.33333333  1.0
  Ni  Ni1064  1  0.16666667  0.79951900  0.33333333  1.0
  Ni  Ni1065  1  0.50000000  0.13285233  0.33333333  1.0
  Ni  Ni1066  1  0.50000000  0.46618567  0.33333333  1.0
  Ni  Ni1067  1  0.50000000  0.79951900  0.33333333  1.0
  Ni  Ni1068  1  0.83333333  0.13285233  0.33333333  1.0
  Ni  Ni1069  1  0.83333333  0.46618567  0.33333333  1.0
  Ni  Ni1070  1  0.83333333  0.79951900  0.33333333  1.0
  Ni  Ni1071  1  0.16666667  0.29951900  0.36666667  1.0
  Ni  Ni1072  1  0.16666667  0.63285233  0.36666667  1.0
  Ni  Ni1073  1  0.16666667  0.96618567  0.36666667  1.0
  Ni  Ni1074  1  0.50000000  0.29951900  0.36666667  1.0
  Ni  Ni1075  1  0.50000000  0.63285233  0.36666667  1.0
  Ni  Ni1076  1  0.50000000  0.96618567  0.36666667  1.0
  Ni  Ni1077  1  0.83333333  0.29951900  0.36666667  1.0
  Ni  Ni1078  1  0.83333333  0.63285233  0.36666667  1.0
  Ni  Ni1079  1  0.83333333  0.96618567  0.36666667  1.0
