# generated using pymatgen
data_Fe3Ni2
_symmetry_space_group_name_H-M   'P 1'
_cell_length_a   16.78271205
_cell_length_b   55.04449184
_cell_length_c   26.94541527
_cell_angle_alpha   92.90270364
_cell_angle_beta   94.76364169
_cell_angle_gamma   97.00508498
_symmetry_Int_Tables_number   1
_chemical_formula_structural   Fe3Ni2
_chemical_formula_sum   'Fe540 Ni360'
_cell_volume   24574.40032599
_cell_formula_units_Z   180
loop_
 _symmetry_equiv_pos_site_id
 _symmetry_equiv_pos_as_xyz
  1  'x, y, z'
loop_
 _atom_site_type_symbol
 _atom_site_label
 _atom_site_symmetry_multiplicity
 _atom_site_fract_x
 _atom_site_fract_y
 _atom_site_fract_z
 _atom_site_occupancy
  Fe  Fe0  1  0.12438944  0.29853467  0.03731683  1.0
  Fe  Fe1  1  0.12438944  0.63186800  0.03731683  1.0
  Fe  Fe2  1  0.12438944  0.96520133  0.03731683  1.0
  Fe  Fe3  1  0.45772278  0.29853467  0.03731683  1.0
  Fe  Fe4  1  0.45772278  0.63186800  0.03731683  1.0
  Fe  Fe5  1  0.45772278  0.96520133  0.03731683  1.0
  Fe  Fe6  1  0.79105611  0.29853467  0.03731683  1.0
  Fe  Fe7  1  0.79105611  0.63186800  0.03731683  1.0
  Fe  Fe8  1  0.79105611  0.96520133  0.03731683  1.0
  Fe  Fe9  1  0.26327833  0.29853467  0.07898350  1.0
  Fe  Fe10  1  0.26327833  0.63186800  0.07898350  1.0
  Fe  Fe11  1  0.26327833  0.96520133  0.07898350  1.0
  Fe  Fe12  1  0.59661167  0.29853467  0.07898350  1.0
  Fe  Fe13  1  0.59661167  0.63186800  0.07898350  1.0
  Fe  Fe14  1  0.59661167  0.96520133  0.07898350  1.0
  Fe  Fe15  1  0.92994500  0.29853467  0.07898350  1.0
  Fe  Fe16  1  0.92994500  0.63186800  0.07898350  1.0
  Fe  Fe17  1  0.92994500  0.96520133  0.07898350  1.0
  Fe  Fe18  1  0.01449944  0.03479867  0.00434983  1.0
  Fe  Fe19  1  0.01449944  0.36813200  0.00434983  1.0
  Fe  Fe20  1  0.01449944  0.70146533  0.00434983  1.0
  Fe  Fe21  1  0.34783278  0.03479867  0.00434983  1.0
  Fe  Fe22  1  0.34783278  0.36813200  0.00434983  1.0
  Fe  Fe23  1  0.34783278  0.70146533  0.00434983  1.0
  Fe  Fe24  1  0.68116611  0.03479867  0.00434983  1.0
  Fe  Fe25  1  0.68116611  0.36813200  0.00434983  1.0
  Fe  Fe26  1  0.68116611  0.70146533  0.00434983  1.0
  Fe  Fe27  1  0.15338833  0.03479867  0.04601650  1.0
  Fe  Fe28  1  0.15338833  0.36813200  0.04601650  1.0
  Fe  Fe29  1  0.15338833  0.70146533  0.04601650  1.0
  Fe  Fe30  1  0.48672167  0.03479867  0.04601650  1.0
  Fe  Fe31  1  0.48672167  0.36813200  0.04601650  1.0
  Fe  Fe32  1  0.48672167  0.70146533  0.04601650  1.0
  Fe  Fe33  1  0.82005500  0.03479867  0.04601650  1.0
  Fe  Fe34  1  0.82005500  0.36813200  0.04601650  1.0
  Fe  Fe35  1  0.82005500  0.70146533  0.04601650  1.0
  Fe  Fe36  1  0.04184611  0.10043067  0.01255383  1.0
  Fe  Fe37  1  0.04184611  0.43376400  0.01255383  1.0
  Fe  Fe38  1  0.04184611  0.76709733  0.01255383  1.0
  Fe  Fe39  1  0.37517944  0.10043067  0.01255383  1.0
  Fe  Fe40  1  0.37517944  0.43376400  0.01255383  1.0
  Fe  Fe41  1  0.37517944  0.76709733  0.01255383  1.0
  Fe  Fe42  1  0.70851278  0.10043067  0.01255383  1.0
  Fe  Fe43  1  0.70851278  0.43376400  0.01255383  1.0
  Fe  Fe44  1  0.70851278  0.76709733  0.01255383  1.0
  Fe  Fe45  1  0.18073500  0.10043067  0.05422050  1.0
  Fe  Fe46  1  0.18073500  0.43376400  0.05422050  1.0
  Fe  Fe47  1  0.18073500  0.76709733  0.05422050  1.0
  Fe  Fe48  1  0.51406833  0.10043067  0.05422050  1.0
  Fe  Fe49  1  0.51406833  0.43376400  0.05422050  1.0
  Fe  Fe50  1  0.51406833  0.76709733  0.05422050  1.0
  Fe  Fe51  1  0.84740167  0.10043067  0.05422050  1.0
  Fe  Fe52  1  0.84740167  0.43376400  0.05422050  1.0
  Fe  Fe53  1  0.84740167  0.76709733  0.05422050  1.0
  Fe  Fe54  1  0.06944444  0.16666667  0.02083333  1.0
  Fe  Fe55  1  0.06944444  0.50000000  0.02083333  1.0
  Fe  Fe56  1  0.06944444  0.83333333  0.02083333  1.0
  Fe  Fe57  1  0.40277778  0.16666667  0.02083333  1.0
  Fe  Fe58  1  0.40277778  0.50000000  0.02083333  1.0
  Fe  Fe59  1  0.40277778  0.83333333  0.02083333  1.0
  Fe  Fe60  1  0.73611111  0.16666667  0.02083333  1.0
  Fe  Fe61  1  0.73611111  0.50000000  0.02083333  1.0
  Fe  Fe62  1  0.73611111  0.83333333  0.02083333  1.0
  Fe  Fe63  1  0.20833333  0.16666667  0.06250000  1.0
  Fe  Fe64  1  0.20833333  0.50000000  0.06250000  1.0
  Fe  Fe65  1  0.20833333  0.83333333  0.06250000  1.0
  Fe  Fe66  1  0.54166667  0.16666667  0.06250000  1.0
  Fe  Fe67  1  0.54166667  0.50000000  0.06250000  1.0
  Fe  Fe68  1  0.54166667  0.83333333  0.06250000  1.0
  Fe  Fe69  1  0.87500000  0.16666667  0.06250000  1.0
  Fe  Fe70  1  0.87500000  0.50000000  0.06250000  1.0
  Fe  Fe71  1  0.87500000  0.83333333  0.06250000  1.0
  Fe  Fe72  1  0.09704278  0.23290267  0.02911283  1.0
  Fe  Fe73  1  0.09704278  0.56623600  0.02911283  1.0
  Fe  Fe74  1  0.09704278  0.89956933  0.02911283  1.0
  Fe  Fe75  1  0.43037611  0.23290267  0.02911283  1.0
  Fe  Fe76  1  0.43037611  0.56623600  0.02911283  1.0
  Fe  Fe77  1  0.43037611  0.89956933  0.02911283  1.0
  Fe  Fe78  1  0.76370944  0.23290267  0.02911283  1.0
  Fe  Fe79  1  0.76370944  0.56623600  0.02911283  1.0
  Fe  Fe80  1  0.76370944  0.89956933  0.02911283  1.0
  Fe  Fe81  1  0.23593167  0.23290267  0.07077950  1.0
  Fe  Fe82  1  0.23593167  0.56623600  0.07077950  1.0
  Fe  Fe83  1  0.23593167  0.89956933  0.07077950  1.0
  Fe  Fe84  1  0.56926500  0.23290267  0.07077950  1.0
  Fe  Fe85  1  0.56926500  0.56623600  0.07077950  1.0
  Fe  Fe86  1  0.56926500  0.89956933  0.07077950  1.0
  Fe  Fe87  1  0.90259833  0.23290267  0.07077950  1.0
  Fe  Fe88  1  0.90259833  0.56623600  0.07077950  1.0
  Fe  Fe89  1  0.90259833  0.89956933  0.07077950  1.0
  Fe  Fe90  1  0.04166667  0.00000000  0.06250000  1.0
  Fe  Fe91  1  0.04166667  0.33333333  0.06250000  1.0
  Fe  Fe92  1  0.04166667  0.66666667  0.06250000  1.0
  Fe  Fe93  1  0.37500000  0.00000000  0.06250000  1.0
  Fe  Fe94  1  0.37500000  0.33333333  0.06250000  1.0
  Fe  Fe95  1  0.37500000  0.66666667  0.06250000  1.0
  Fe  Fe96  1  0.70833333  0.00000000  0.06250000  1.0
  Fe  Fe97  1  0.70833333  0.33333333  0.06250000  1.0
  Fe  Fe98  1  0.70833333  0.66666667  0.06250000  1.0
  Fe  Fe99  1  0.23611111  0.33333333  0.02083333  1.0
  Fe  Fe100  1  0.23611111  0.66666667  0.02083333  1.0
  Fe  Fe101  1  0.23611111  1.00000000  0.02083333  1.0
  Fe  Fe102  1  0.56944444  0.33333333  0.02083333  1.0
  Fe  Fe103  1  0.56944444  0.66666667  0.02083333  1.0
  Fe  Fe104  1  0.56944444  1.00000000  0.02083333  1.0
  Fe  Fe105  1  0.90277778  0.33333333  0.02083333  1.0
  Fe  Fe106  1  0.90277778  0.66666667  0.02083333  1.0
  Fe  Fe107  1  0.90277778  1.00000000  0.02083333  1.0
  Fe  Fe108  1  0.06883389  0.29853467  0.12065017  1.0
  Fe  Fe109  1  0.06883389  0.63186800  0.12065017  1.0
  Fe  Fe110  1  0.06883389  0.96520133  0.12065017  1.0
  Fe  Fe111  1  0.40216722  0.29853467  0.12065017  1.0
  Fe  Fe112  1  0.40216722  0.63186800  0.12065017  1.0
  Fe  Fe113  1  0.40216722  0.96520133  0.12065017  1.0
  Fe  Fe114  1  0.73550056  0.29853467  0.12065017  1.0
  Fe  Fe115  1  0.73550056  0.63186800  0.12065017  1.0
  Fe  Fe116  1  0.73550056  0.96520133  0.12065017  1.0
  Fe  Fe117  1  0.20772278  0.29853467  0.16231683  1.0
  Fe  Fe118  1  0.20772278  0.63186800  0.16231683  1.0
  Fe  Fe119  1  0.20772278  0.96520133  0.16231683  1.0
  Fe  Fe120  1  0.54105611  0.29853467  0.16231683  1.0
  Fe  Fe121  1  0.54105611  0.63186800  0.16231683  1.0
  Fe  Fe122  1  0.54105611  0.96520133  0.16231683  1.0
  Fe  Fe123  1  0.87438944  0.29853467  0.16231683  1.0
  Fe  Fe124  1  0.87438944  0.63186800  0.16231683  1.0
  Fe  Fe125  1  0.87438944  0.96520133  0.16231683  1.0
  Fe  Fe126  1  0.29227722  0.03479867  0.08768317  1.0
  Fe  Fe127  1  0.29227722  0.36813200  0.08768317  1.0
  Fe  Fe128  1  0.29227722  0.70146533  0.08768317  1.0
  Fe  Fe129  1  0.62561056  0.03479867  0.08768317  1.0
  Fe  Fe130  1  0.62561056  0.36813200  0.08768317  1.0
  Fe  Fe131  1  0.62561056  0.70146533  0.08768317  1.0
  Fe  Fe132  1  0.95894389  0.03479867  0.08768317  1.0
  Fe  Fe133  1  0.95894389  0.36813200  0.08768317  1.0
  Fe  Fe134  1  0.95894389  0.70146533  0.08768317  1.0
  Fe  Fe135  1  0.09783278  0.03479867  0.12934983  1.0
  Fe  Fe136  1  0.09783278  0.36813200  0.12934983  1.0
  Fe  Fe137  1  0.09783278  0.70146533  0.12934983  1.0
  Fe  Fe138  1  0.43116611  0.03479867  0.12934983  1.0
  Fe  Fe139  1  0.43116611  0.36813200  0.12934983  1.0
  Fe  Fe140  1  0.43116611  0.70146533  0.12934983  1.0
  Fe  Fe141  1  0.76449944  0.03479867  0.12934983  1.0
  Fe  Fe142  1  0.76449944  0.36813200  0.12934983  1.0
  Fe  Fe143  1  0.76449944  0.70146533  0.12934983  1.0
  Fe  Fe144  1  0.31962389  0.10043067  0.09588717  1.0
  Fe  Fe145  1  0.31962389  0.43376400  0.09588717  1.0
  Fe  Fe146  1  0.31962389  0.76709733  0.09588717  1.0
  Fe  Fe147  1  0.65295722  0.10043067  0.09588717  1.0
  Fe  Fe148  1  0.65295722  0.43376400  0.09588717  1.0
  Fe  Fe149  1  0.65295722  0.76709733  0.09588717  1.0
  Fe  Fe150  1  0.98629056  0.10043067  0.09588717  1.0
  Fe  Fe151  1  0.98629056  0.43376400  0.09588717  1.0
  Fe  Fe152  1  0.98629056  0.76709733  0.09588717  1.0
  Fe  Fe153  1  0.12517944  0.10043067  0.13755383  1.0
  Fe  Fe154  1  0.12517944  0.43376400  0.13755383  1.0
  Fe  Fe155  1  0.12517944  0.76709733  0.13755383  1.0
  Fe  Fe156  1  0.45851278  0.10043067  0.13755383  1.0
  Fe  Fe157  1  0.45851278  0.43376400  0.13755383  1.0
  Fe  Fe158  1  0.45851278  0.76709733  0.13755383  1.0
  Fe  Fe159  1  0.79184611  0.10043067  0.13755383  1.0
  Fe  Fe160  1  0.79184611  0.43376400  0.13755383  1.0
  Fe  Fe161  1  0.79184611  0.76709733  0.13755383  1.0
  Fe  Fe162  1  0.01388889  0.16666667  0.10416667  1.0
  Fe  Fe163  1  0.01388889  0.50000000  0.10416667  1.0
  Fe  Fe164  1  0.01388889  0.83333333  0.10416667  1.0
  Fe  Fe165  1  0.34722222  0.16666667  0.10416667  1.0
  Fe  Fe166  1  0.34722222  0.50000000  0.10416667  1.0
  Fe  Fe167  1  0.34722222  0.83333333  0.10416667  1.0
  Fe  Fe168  1  0.68055556  0.16666667  0.10416667  1.0
  Fe  Fe169  1  0.68055556  0.50000000  0.10416667  1.0
  Fe  Fe170  1  0.68055556  0.83333333  0.10416667  1.0
  Fe  Fe171  1  0.15277778  0.16666667  0.14583333  1.0
  Fe  Fe172  1  0.15277778  0.50000000  0.14583333  1.0
  Fe  Fe173  1  0.15277778  0.83333333  0.14583333  1.0
  Fe  Fe174  1  0.48611111  0.16666667  0.14583333  1.0
  Fe  Fe175  1  0.48611111  0.50000000  0.14583333  1.0
  Fe  Fe176  1  0.48611111  0.83333333  0.14583333  1.0
  Fe  Fe177  1  0.81944444  0.16666667  0.14583333  1.0
  Fe  Fe178  1  0.81944444  0.50000000  0.14583333  1.0
  Fe  Fe179  1  0.81944444  0.83333333  0.14583333  1.0
  Fe  Fe180  1  0.04148722  0.23290267  0.11244617  1.0
  Fe  Fe181  1  0.04148722  0.56623600  0.11244617  1.0
  Fe  Fe182  1  0.04148722  0.89956933  0.11244617  1.0
  Fe  Fe183  1  0.37482056  0.23290267  0.11244617  1.0
  Fe  Fe184  1  0.37482056  0.56623600  0.11244617  1.0
  Fe  Fe185  1  0.37482056  0.89956933  0.11244617  1.0
  Fe  Fe186  1  0.70815389  0.23290267  0.11244617  1.0
  Fe  Fe187  1  0.70815389  0.56623600  0.11244617  1.0
  Fe  Fe188  1  0.70815389  0.89956933  0.11244617  1.0
  Fe  Fe189  1  0.18037611  0.23290267  0.15411283  1.0
  Fe  Fe190  1  0.18037611  0.56623600  0.15411283  1.0
  Fe  Fe191  1  0.18037611  0.89956933  0.15411283  1.0
  Fe  Fe192  1  0.51370944  0.23290267  0.15411283  1.0
  Fe  Fe193  1  0.51370944  0.56623600  0.15411283  1.0
  Fe  Fe194  1  0.51370944  0.89956933  0.15411283  1.0
  Fe  Fe195  1  0.84704278  0.23290267  0.15411283  1.0
  Fe  Fe196  1  0.84704278  0.56623600  0.15411283  1.0
  Fe  Fe197  1  0.84704278  0.89956933  0.15411283  1.0
  Fe  Fe198  1  0.31944444  0.00000000  0.14583333  1.0
  Fe  Fe199  1  0.31944444  0.33333333  0.14583333  1.0
  Fe  Fe200  1  0.31944444  0.66666667  0.14583333  1.0
  Fe  Fe201  1  0.65277778  0.00000000  0.14583333  1.0
  Fe  Fe202  1  0.65277778  0.33333333  0.14583333  1.0
  Fe  Fe203  1  0.65277778  0.66666667  0.14583333  1.0
  Fe  Fe204  1  0.98611111  0.00000000  0.14583333  1.0
  Fe  Fe205  1  0.98611111  0.33333333  0.14583333  1.0
  Fe  Fe206  1  0.98611111  0.66666667  0.14583333  1.0
  Fe  Fe207  1  0.18055556  0.33333333  0.10416667  1.0
  Fe  Fe208  1  0.18055556  0.66666667  0.10416667  1.0
  Fe  Fe209  1  0.18055556  1.00000000  0.10416667  1.0
  Fe  Fe210  1  0.51388889  0.33333333  0.10416667  1.0
  Fe  Fe211  1  0.51388889  0.66666667  0.10416667  1.0
  Fe  Fe212  1  0.51388889  1.00000000  0.10416667  1.0
  Fe  Fe213  1  0.84722222  0.33333333  0.10416667  1.0
  Fe  Fe214  1  0.84722222  0.66666667  0.10416667  1.0
  Fe  Fe215  1  0.84722222  1.00000000  0.10416667  1.0
  Fe  Fe216  1  0.01327833  0.29853467  0.20398350  1.0
  Fe  Fe217  1  0.01327833  0.63186800  0.20398350  1.0
  Fe  Fe218  1  0.01327833  0.96520133  0.20398350  1.0
  Fe  Fe219  1  0.34661167  0.29853467  0.20398350  1.0
  Fe  Fe220  1  0.34661167  0.63186800  0.20398350  1.0
  Fe  Fe221  1  0.34661167  0.96520133  0.20398350  1.0
  Fe  Fe222  1  0.67994500  0.29853467  0.20398350  1.0
  Fe  Fe223  1  0.67994500  0.63186800  0.20398350  1.0
  Fe  Fe224  1  0.67994500  0.96520133  0.20398350  1.0
  Fe  Fe225  1  0.15216722  0.29853467  0.24565017  1.0
  Fe  Fe226  1  0.15216722  0.63186800  0.24565017  1.0
  Fe  Fe227  1  0.15216722  0.96520133  0.24565017  1.0
  Fe  Fe228  1  0.48550056  0.29853467  0.24565017  1.0
  Fe  Fe229  1  0.48550056  0.63186800  0.24565017  1.0
  Fe  Fe230  1  0.48550056  0.96520133  0.24565017  1.0
  Fe  Fe231  1  0.81883389  0.29853467  0.24565017  1.0
  Fe  Fe232  1  0.81883389  0.63186800  0.24565017  1.0
  Fe  Fe233  1  0.81883389  0.96520133  0.24565017  1.0
  Fe  Fe234  1  0.23672167  0.03479867  0.17101650  1.0
  Fe  Fe235  1  0.23672167  0.36813200  0.17101650  1.0
  Fe  Fe236  1  0.23672167  0.70146533  0.17101650  1.0
  Fe  Fe237  1  0.57005500  0.03479867  0.17101650  1.0
  Fe  Fe238  1  0.57005500  0.36813200  0.17101650  1.0
  Fe  Fe239  1  0.57005500  0.70146533  0.17101650  1.0
  Fe  Fe240  1  0.90338833  0.03479867  0.17101650  1.0
  Fe  Fe241  1  0.90338833  0.36813200  0.17101650  1.0
  Fe  Fe242  1  0.90338833  0.70146533  0.17101650  1.0
  Fe  Fe243  1  0.04227722  0.03479867  0.21268317  1.0
  Fe  Fe244  1  0.04227722  0.36813200  0.21268317  1.0
  Fe  Fe245  1  0.04227722  0.70146533  0.21268317  1.0
  Fe  Fe246  1  0.37561056  0.03479867  0.21268317  1.0
  Fe  Fe247  1  0.37561056  0.36813200  0.21268317  1.0
  Fe  Fe248  1  0.37561056  0.70146533  0.21268317  1.0
  Fe  Fe249  1  0.70894389  0.03479867  0.21268317  1.0
  Fe  Fe250  1  0.70894389  0.36813200  0.21268317  1.0
  Fe  Fe251  1  0.70894389  0.70146533  0.21268317  1.0
  Fe  Fe252  1  0.26406833  0.10043067  0.17922050  1.0
  Fe  Fe253  1  0.26406833  0.43376400  0.17922050  1.0
  Fe  Fe254  1  0.26406833  0.76709733  0.17922050  1.0
  Fe  Fe255  1  0.59740167  0.10043067  0.17922050  1.0
  Fe  Fe256  1  0.59740167  0.43376400  0.17922050  1.0
  Fe  Fe257  1  0.59740167  0.76709733  0.17922050  1.0
  Fe  Fe258  1  0.93073500  0.10043067  0.17922050  1.0
  Fe  Fe259  1  0.93073500  0.43376400  0.17922050  1.0
  Fe  Fe260  1  0.93073500  0.76709733  0.17922050  1.0
  Fe  Fe261  1  0.06962389  0.10043067  0.22088717  1.0
  Fe  Fe262  1  0.06962389  0.43376400  0.22088717  1.0
  Fe  Fe263  1  0.06962389  0.76709733  0.22088717  1.0
  Fe  Fe264  1  0.40295722  0.10043067  0.22088717  1.0
  Fe  Fe265  1  0.40295722  0.43376400  0.22088717  1.0
  Fe  Fe266  1  0.40295722  0.76709733  0.22088717  1.0
  Fe  Fe267  1  0.73629056  0.10043067  0.22088717  1.0
  Fe  Fe268  1  0.73629056  0.43376400  0.22088717  1.0
  Fe  Fe269  1  0.73629056  0.76709733  0.22088717  1.0
  Fe  Fe270  1  0.29166667  0.16666667  0.18750000  1.0
  Fe  Fe271  1  0.29166667  0.50000000  0.18750000  1.0
  Fe  Fe272  1  0.29166667  0.83333333  0.18750000  1.0
  Fe  Fe273  1  0.62500000  0.16666667  0.18750000  1.0
  Fe  Fe274  1  0.62500000  0.50000000  0.18750000  1.0
  Fe  Fe275  1  0.62500000  0.83333333  0.18750000  1.0
  Fe  Fe276  1  0.95833333  0.16666667  0.18750000  1.0
  Fe  Fe277  1  0.95833333  0.50000000  0.18750000  1.0
  Fe  Fe278  1  0.95833333  0.83333333  0.18750000  1.0
  Fe  Fe279  1  0.09722222  0.16666667  0.22916667  1.0
  Fe  Fe280  1  0.09722222  0.50000000  0.22916667  1.0
  Fe  Fe281  1  0.09722222  0.83333333  0.22916667  1.0
  Fe  Fe282  1  0.43055556  0.16666667  0.22916667  1.0
  Fe  Fe283  1  0.43055556  0.50000000  0.22916667  1.0
  Fe  Fe284  1  0.43055556  0.83333333  0.22916667  1.0
  Fe  Fe285  1  0.76388889  0.16666667  0.22916667  1.0
  Fe  Fe286  1  0.76388889  0.50000000  0.22916667  1.0
  Fe  Fe287  1  0.76388889  0.83333333  0.22916667  1.0
  Fe  Fe288  1  0.31926500  0.23290267  0.19577950  1.0
  Fe  Fe289  1  0.31926500  0.56623600  0.19577950  1.0
  Fe  Fe290  1  0.31926500  0.89956933  0.19577950  1.0
  Fe  Fe291  1  0.65259833  0.23290267  0.19577950  1.0
  Fe  Fe292  1  0.65259833  0.56623600  0.19577950  1.0
  Fe  Fe293  1  0.65259833  0.89956933  0.19577950  1.0
  Fe  Fe294  1  0.98593167  0.23290267  0.19577950  1.0
  Fe  Fe295  1  0.98593167  0.56623600  0.19577950  1.0
  Fe  Fe296  1  0.98593167  0.89956933  0.19577950  1.0
  Fe  Fe297  1  0.12482056  0.23290267  0.23744617  1.0
  Fe  Fe298  1  0.12482056  0.56623600  0.23744617  1.0
  Fe  Fe299  1  0.12482056  0.89956933  0.23744617  1.0
  Fe  Fe300  1  0.45815389  0.23290267  0.23744617  1.0
  Fe  Fe301  1  0.45815389  0.56623600  0.23744617  1.0
  Fe  Fe302  1  0.45815389  0.89956933  0.23744617  1.0
  Fe  Fe303  1  0.79148722  0.23290267  0.23744617  1.0
  Fe  Fe304  1  0.79148722  0.56623600  0.23744617  1.0
  Fe  Fe305  1  0.79148722  0.89956933  0.23744617  1.0
  Fe  Fe306  1  0.26388889  0.00000000  0.22916667  1.0
  Fe  Fe307  1  0.26388889  0.33333333  0.22916667  1.0
  Fe  Fe308  1  0.26388889  0.66666667  0.22916667  1.0
  Fe  Fe309  1  0.59722222  0.00000000  0.22916667  1.0
  Fe  Fe310  1  0.59722222  0.33333333  0.22916667  1.0
  Fe  Fe311  1  0.59722222  0.66666667  0.22916667  1.0
  Fe  Fe312  1  0.93055556  0.00000000  0.22916667  1.0
  Fe  Fe313  1  0.93055556  0.33333333  0.22916667  1.0
  Fe  Fe314  1  0.93055556  0.66666667  0.22916667  1.0
  Fe  Fe315  1  0.12500000  0.33333333  0.18750000  1.0
  Fe  Fe316  1  0.12500000  0.66666667  0.18750000  1.0
  Fe  Fe317  1  0.12500000  1.00000000  0.18750000  1.0
  Fe  Fe318  1  0.45833333  0.33333333  0.18750000  1.0
  Fe  Fe319  1  0.45833333  0.66666667  0.18750000  1.0
  Fe  Fe320  1  0.45833333  1.00000000  0.18750000  1.0
  Fe  Fe321  1  0.79166667  0.33333333  0.18750000  1.0
  Fe  Fe322  1  0.79166667  0.66666667  0.18750000  1.0
  Fe  Fe323  1  0.79166667  1.00000000  0.18750000  1.0
  Fe  Fe324  1  0.29105611  0.29853467  0.28731683  1.0
  Fe  Fe325  1  0.29105611  0.63186800  0.28731683  1.0
  Fe  Fe326  1  0.29105611  0.96520133  0.28731683  1.0
  Fe  Fe327  1  0.62438944  0.29853467  0.28731683  1.0
  Fe  Fe328  1  0.62438944  0.63186800  0.28731683  1.0
  Fe  Fe329  1  0.62438944  0.96520133  0.28731683  1.0
  Fe  Fe330  1  0.95772278  0.29853467  0.28731683  1.0
  Fe  Fe331  1  0.95772278  0.63186800  0.28731683  1.0
  Fe  Fe332  1  0.95772278  0.96520133  0.28731683  1.0
  Fe  Fe333  1  0.09661167  0.29853467  0.32898350  1.0
  Fe  Fe334  1  0.09661167  0.63186800  0.32898350  1.0
  Fe  Fe335  1  0.09661167  0.96520133  0.32898350  1.0
  Fe  Fe336  1  0.42994500  0.29853467  0.32898350  1.0
  Fe  Fe337  1  0.42994500  0.63186800  0.32898350  1.0
  Fe  Fe338  1  0.42994500  0.96520133  0.32898350  1.0
  Fe  Fe339  1  0.76327833  0.29853467  0.32898350  1.0
  Fe  Fe340  1  0.76327833  0.63186800  0.32898350  1.0
  Fe  Fe341  1  0.76327833  0.96520133  0.32898350  1.0
  Fe  Fe342  1  0.18116611  0.03479867  0.25434983  1.0
  Fe  Fe343  1  0.18116611  0.36813200  0.25434983  1.0
  Fe  Fe344  1  0.18116611  0.70146533  0.25434983  1.0
  Fe  Fe345  1  0.51449944  0.03479867  0.25434983  1.0
  Fe  Fe346  1  0.51449944  0.36813200  0.25434983  1.0
  Fe  Fe347  1  0.51449944  0.70146533  0.25434983  1.0
  Fe  Fe348  1  0.84783278  0.03479867  0.25434983  1.0
  Fe  Fe349  1  0.84783278  0.36813200  0.25434983  1.0
  Fe  Fe350  1  0.84783278  0.70146533  0.25434983  1.0
  Fe  Fe351  1  0.32005500  0.03479867  0.29601650  1.0
  Fe  Fe352  1  0.32005500  0.36813200  0.29601650  1.0
  Fe  Fe353  1  0.32005500  0.70146533  0.29601650  1.0
  Fe  Fe354  1  0.65338833  0.03479867  0.29601650  1.0
  Fe  Fe355  1  0.65338833  0.36813200  0.29601650  1.0
  Fe  Fe356  1  0.65338833  0.70146533  0.29601650  1.0
  Fe  Fe357  1  0.98672167  0.03479867  0.29601650  1.0
  Fe  Fe358  1  0.98672167  0.36813200  0.29601650  1.0
  Fe  Fe359  1  0.98672167  0.70146533  0.29601650  1.0
  Fe  Fe360  1  0.20851278  0.10043067  0.26255383  1.0
  Fe  Fe361  1  0.20851278  0.43376400  0.26255383  1.0
  Fe  Fe362  1  0.20851278  0.76709733  0.26255383  1.0
  Fe  Fe363  1  0.54184611  0.10043067  0.26255383  1.0
  Fe  Fe364  1  0.54184611  0.43376400  0.26255383  1.0
  Fe  Fe365  1  0.54184611  0.76709733  0.26255383  1.0
  Fe  Fe366  1  0.87517944  0.10043067  0.26255383  1.0
  Fe  Fe367  1  0.87517944  0.43376400  0.26255383  1.0
  Fe  Fe368  1  0.87517944  0.76709733  0.26255383  1.0
  Fe  Fe369  1  0.01406833  0.10043067  0.30422050  1.0
  Fe  Fe370  1  0.01406833  0.43376400  0.30422050  1.0
  Fe  Fe371  1  0.01406833  0.76709733  0.30422050  1.0
  Fe  Fe372  1  0.34740167  0.10043067  0.30422050  1.0
  Fe  Fe373  1  0.34740167  0.43376400  0.30422050  1.0
  Fe  Fe374  1  0.34740167  0.76709733  0.30422050  1.0
  Fe  Fe375  1  0.68073500  0.10043067  0.30422050  1.0
  Fe  Fe376  1  0.68073500  0.43376400  0.30422050  1.0
  Fe  Fe377  1  0.68073500  0.76709733  0.30422050  1.0
  Fe  Fe378  1  0.23611111  0.16666667  0.27083333  1.0
  Fe  Fe379  1  0.23611111  0.50000000  0.27083333  1.0
  Fe  Fe380  1  0.23611111  0.83333333  0.27083333  1.0
  Fe  Fe381  1  0.56944444  0.16666667  0.27083333  1.0
  Fe  Fe382  1  0.56944444  0.50000000  0.27083333  1.0
  Fe  Fe383  1  0.56944444  0.83333333  0.27083333  1.0
  Fe  Fe384  1  0.90277778  0.16666667  0.27083333  1.0
  Fe  Fe385  1  0.90277778  0.50000000  0.27083333  1.0
  Fe  Fe386  1  0.90277778  0.83333333  0.27083333  1.0
  Fe  Fe387  1  0.04166667  0.16666667  0.31250000  1.0
  Fe  Fe388  1  0.04166667  0.50000000  0.31250000  1.0
  Fe  Fe389  1  0.04166667  0.83333333  0.31250000  1.0
  Fe  Fe390  1  0.37500000  0.16666667  0.31250000  1.0
  Fe  Fe391  1  0.37500000  0.50000000  0.31250000  1.0
  Fe  Fe392  1  0.37500000  0.83333333  0.31250000  1.0
  Fe  Fe393  1  0.70833333  0.16666667  0.31250000  1.0
  Fe  Fe394  1  0.70833333  0.50000000  0.31250000  1.0
  Fe  Fe395  1  0.70833333  0.83333333  0.31250000  1.0
  Fe  Fe396  1  0.26370944  0.23290267  0.27911283  1.0
  Fe  Fe397  1  0.26370944  0.56623600  0.27911283  1.0
  Fe  Fe398  1  0.26370944  0.89956933  0.27911283  1.0
  Fe  Fe399  1  0.59704278  0.23290267  0.27911283  1.0
  Fe  Fe400  1  0.59704278  0.56623600  0.27911283  1.0
  Fe  Fe401  1  0.59704278  0.89956933  0.27911283  1.0
  Fe  Fe402  1  0.93037611  0.23290267  0.27911283  1.0
  Fe  Fe403  1  0.93037611  0.56623600  0.27911283  1.0
  Fe  Fe404  1  0.93037611  0.89956933  0.27911283  1.0
  Fe  Fe405  1  0.06926500  0.23290267  0.32077950  1.0
  Fe  Fe406  1  0.06926500  0.56623600  0.32077950  1.0
  Fe  Fe407  1  0.06926500  0.89956933  0.32077950  1.0
  Fe  Fe408  1  0.40259833  0.23290267  0.32077950  1.0
  Fe  Fe409  1  0.40259833  0.56623600  0.32077950  1.0
  Fe  Fe410  1  0.40259833  0.89956933  0.32077950  1.0
  Fe  Fe411  1  0.73593167  0.23290267  0.32077950  1.0
  Fe  Fe412  1  0.73593167  0.56623600  0.32077950  1.0
  Fe  Fe413  1  0.73593167  0.89956933  0.32077950  1.0
  Fe  Fe414  1  0.20833333  0.00000000  0.31250000  1.0
  Fe  Fe415  1  0.20833333  0.33333333  0.31250000  1.0
  Fe  Fe416  1  0.20833333  0.66666667  0.31250000  1.0
  Fe  Fe417  1  0.54166667  0.00000000  0.31250000  1.0
  Fe  Fe418  1  0.54166667  0.33333333  0.31250000  1.0
  Fe  Fe419  1  0.54166667  0.66666667  0.31250000  1.0
  Fe  Fe420  1  0.87500000  0.00000000  0.31250000  1.0
  Fe  Fe421  1  0.87500000  0.33333333  0.31250000  1.0
  Fe  Fe422  1  0.87500000  0.66666667  0.31250000  1.0
  Fe  Fe423  1  0.06944444  0.33333333  0.27083333  1.0
  Fe  Fe424  1  0.06944444  0.66666667  0.27083333  1.0
  Fe  Fe425  1  0.06944444  1.00000000  0.27083333  1.0
  Fe  Fe426  1  0.40277778  0.33333333  0.27083333  1.0
  Fe  Fe427  1  0.40277778  0.66666667  0.27083333  1.0
  Fe  Fe428  1  0.40277778  1.00000000  0.27083333  1.0
  Fe  Fe429  1  0.73611111  0.33333333  0.27083333  1.0
  Fe  Fe430  1  0.73611111  0.66666667  0.27083333  1.0
  Fe  Fe431  1  0.73611111  1.00000000  0.27083333  1.0
  Fe  Fe432  1  0.23550056  0.29853467  0.37065017  1.0
  Fe  Fe433  1  0.23550056  0.63186800  0.37065017  1.0
  Fe  Fe434  1  0.23550056  0.96520133  0.37065017  1.0
  Fe  Fe435  1  0.56883389  0.29853467  0.37065017  1.0
  Fe  Fe436  1  0.56883389  0.63186800  0.37065017  1.0
  Fe  Fe437  1  0.56883389  0.96520133  0.37065017  1.0
  Fe  Fe438  1  0.90216722  0.29853467  0.37065017  1.0
  Fe  Fe439  1  0.90216722  0.63186800  0.37065017  1.0
  Fe  Fe440  1  0.90216722  0.96520133  0.37065017  1.0
  Fe  Fe441  1  0.04105611  0.29853467  0.41231683  1.0
  Fe  Fe442  1  0.04105611  0.63186800  0.41231683  1.0
  Fe  Fe443  1  0.04105611  0.96520133  0.41231683  1.0
  Fe  Fe444  1  0.37438944  0.29853467  0.41231683  1.0
  Fe  Fe445  1  0.37438944  0.63186800  0.41231683  1.0
  Fe  Fe446  1  0.37438944  0.96520133  0.41231683  1.0
  Fe  Fe447  1  0.70772278  0.29853467  0.41231683  1.0
  Fe  Fe448  1  0.70772278  0.63186800  0.41231683  1.0
  Fe  Fe449  1  0.70772278  0.96520133  0.41231683  1.0
  Fe  Fe450  1  0.12561056  0.03479867  0.33768317  1.0
  Fe  Fe451  1  0.12561056  0.36813200  0.33768317  1.0
  Fe  Fe452  1  0.12561056  0.70146533  0.33768317  1.0
  Fe  Fe453  1  0.45894389  0.03479867  0.33768317  1.0
  Fe  Fe454  1  0.45894389  0.36813200  0.33768317  1.0
  Fe  Fe455  1  0.45894389  0.70146533  0.33768317  1.0
  Fe  Fe456  1  0.79227722  0.03479867  0.33768317  1.0
  Fe  Fe457  1  0.79227722  0.36813200  0.33768317  1.0
  Fe  Fe458  1  0.79227722  0.70146533  0.33768317  1.0
  Fe  Fe459  1  0.26449944  0.03479867  0.37934983  1.0
  Fe  Fe460  1  0.26449944  0.36813200  0.37934983  1.0
  Fe  Fe461  1  0.26449944  0.70146533  0.37934983  1.0
  Fe  Fe462  1  0.59783278  0.03479867  0.37934983  1.0
  Fe  Fe463  1  0.59783278  0.36813200  0.37934983  1.0
  Fe  Fe464  1  0.59783278  0.70146533  0.37934983  1.0
  Fe  Fe465  1  0.93116611  0.03479867  0.37934983  1.0
  Fe  Fe466  1  0.93116611  0.36813200  0.37934983  1.0
  Fe  Fe467  1  0.93116611  0.70146533  0.37934983  1.0
  Fe  Fe468  1  0.15295722  0.10043067  0.34588717  1.0
  Fe  Fe469  1  0.15295722  0.43376400  0.34588717  1.0
  Fe  Fe470  1  0.15295722  0.76709733  0.34588717  1.0
  Fe  Fe471  1  0.48629056  0.10043067  0.34588717  1.0
  Fe  Fe472  1  0.48629056  0.43376400  0.34588717  1.0
  Fe  Fe473  1  0.48629056  0.76709733  0.34588717  1.0
  Fe  Fe474  1  0.81962389  0.10043067  0.34588717  1.0
  Fe  Fe475  1  0.81962389  0.43376400  0.34588717  1.0
  Fe  Fe476  1  0.81962389  0.76709733  0.34588717  1.0
  Fe  Fe477  1  0.29184611  0.10043067  0.38755383  1.0
  Fe  Fe478  1  0.29184611  0.43376400  0.38755383  1.0
  Fe  Fe479  1  0.29184611  0.76709733  0.38755383  1.0
  Fe  Fe480  1  0.62517944  0.10043067  0.38755383  1.0
  Fe  Fe481  1  0.62517944  0.43376400  0.38755383  1.0
  Fe  Fe482  1  0.62517944  0.76709733  0.38755383  1.0
  Fe  Fe483  1  0.95851278  0.10043067  0.38755383  1.0
  Fe  Fe484  1  0.95851278  0.43376400  0.38755383  1.0
  Fe  Fe485  1  0.95851278  0.76709733  0.38755383  1.0
  Fe  Fe486  1  0.18055556  0.16666667  0.35416667  1.0
  Fe  Fe487  1  0.18055556  0.50000000  0.35416667  1.0
  Fe  Fe488  1  0.18055556  0.83333333  0.35416667  1.0
  Fe  Fe489  1  0.51388889  0.16666667  0.35416667  1.0
  Fe  Fe490  1  0.51388889  0.50000000  0.35416667  1.0
  Fe  Fe491  1  0.51388889  0.83333333  0.35416667  1.0
  Fe  Fe492  1  0.84722222  0.16666667  0.35416667  1.0
  Fe  Fe493  1  0.84722222  0.50000000  0.35416667  1.0
  Fe  Fe494  1  0.84722222  0.83333333  0.35416667  1.0
  Fe  Fe495  1  0.31944444  0.16666667  0.39583333  1.0
  Fe  Fe496  1  0.31944444  0.50000000  0.39583333  1.0
  Fe  Fe497  1  0.31944444  0.83333333  0.39583333  1.0
  Fe  Fe498  1  0.65277778  0.16666667  0.39583333  1.0
  Fe  Fe499  1  0.65277778  0.50000000  0.39583333  1.0
  Fe  Fe500  1  0.65277778  0.83333333  0.39583333  1.0
  Fe  Fe501  1  0.98611111  0.16666667  0.39583333  1.0
  Fe  Fe502  1  0.98611111  0.50000000  0.39583333  1.0
  Fe  Fe503  1  0.98611111  0.83333333  0.39583333  1.0
  Fe  Fe504  1  0.20815389  0.23290267  0.36244617  1.0
  Fe  Fe505  1  0.20815389  0.56623600  0.36244617  1.0
  Fe  Fe506  1  0.20815389  0.89956933  0.36244617  1.0
  Fe  Fe507  1  0.54148722  0.23290267  0.36244617  1.0
  Fe  Fe508  1  0.54148722  0.56623600  0.36244617  1.0
  Fe  Fe509  1  0.54148722  0.89956933  0.36244617  1.0
  Fe  Fe510  1  0.87482056  0.23290267  0.36244617  1.0
  Fe  Fe511  1  0.87482056  0.56623600  0.36244617  1.0
  Fe  Fe512  1  0.87482056  0.89956933  0.36244617  1.0
  Fe  Fe513  1  0.01370944  0.23290267  0.40411283  1.0
  Fe  Fe514  1  0.01370944  0.56623600  0.40411283  1.0
  Fe  Fe515  1  0.01370944  0.89956933  0.40411283  1.0
  Fe  Fe516  1  0.34704278  0.23290267  0.40411283  1.0
  Fe  Fe517  1  0.34704278  0.56623600  0.40411283  1.0
  Fe  Fe518  1  0.34704278  0.89956933  0.40411283  1.0
  Fe  Fe519  1  0.68037611  0.23290267  0.40411283  1.0
  Fe  Fe520  1  0.68037611  0.56623600  0.40411283  1.0
  Fe  Fe521  1  0.68037611  0.89956933  0.40411283  1.0
  Fe  Fe522  1  0.15277778  0.00000000  0.39583333  1.0
  Fe  Fe523  1  0.15277778  0.33333333  0.39583333  1.0
  Fe  Fe524  1  0.15277778  0.66666667  0.39583333  1.0
  Fe  Fe525  1  0.48611111  0.00000000  0.39583333  1.0
  Fe  Fe526  1  0.48611111  0.33333333  0.39583333  1.0
  Fe  Fe527  1  0.48611111  0.66666667  0.39583333  1.0
  Fe  Fe528  1  0.81944444  0.00000000  0.39583333  1.0
  Fe  Fe529  1  0.81944444  0.33333333  0.39583333  1.0
  Fe  Fe530  1  0.81944444  0.66666667  0.39583333  1.0
  Fe  Fe531  1  0.01388889  0.33333333  0.35416667  1.0
  Fe  Fe532  1  0.01388889  0.66666667  0.35416667  1.0
  Fe  Fe533  1  0.01388889  1.00000000  0.35416667  1.0
  Fe  Fe534  1  0.34722222  0.33333333  0.35416667  1.0
  Fe  Fe535  1  0.34722222  0.66666667  0.35416667  1.0
  Fe  Fe536  1  0.34722222  1.00000000  0.35416667  1.0
  Fe  Fe537  1  0.68055556  0.33333333  0.35416667  1.0
  Fe  Fe538  1  0.68055556  0.66666667  0.35416667  1.0
  Fe  Fe539  1  0.68055556  1.00000000  0.35416667  1.0
  Ni  Ni540  1  0.06984528  0.06762867  0.07095358  1.0
  Ni  Ni541  1  0.06984528  0.40096200  0.07095358  1.0
  Ni  Ni542  1  0.06984528  0.73429533  0.07095358  1.0
  Ni  Ni543  1  0.40317861  0.06762867  0.07095358  1.0
  Ni  Ni544  1  0.40317861  0.40096200  0.07095358  1.0
  Ni  Ni545  1  0.40317861  0.73429533  0.07095358  1.0
  Ni  Ni546  1  0.73651194  0.06762867  0.07095358  1.0
  Ni  Ni547  1  0.73651194  0.40096200  0.07095358  1.0
  Ni  Ni548  1  0.73651194  0.73429533  0.07095358  1.0
  Ni  Ni549  1  0.26428972  0.06762867  0.02928692  1.0
  Ni  Ni550  1  0.26428972  0.40096200  0.02928692  1.0
  Ni  Ni551  1  0.26428972  0.73429533  0.02928692  1.0
  Ni  Ni552  1  0.59762306  0.06762867  0.02928692  1.0
  Ni  Ni553  1  0.59762306  0.40096200  0.02928692  1.0
  Ni  Ni554  1  0.59762306  0.73429533  0.02928692  1.0
  Ni  Ni555  1  0.93095639  0.06762867  0.02928692  1.0
  Ni  Ni556  1  0.93095639  0.40096200  0.02928692  1.0
  Ni  Ni557  1  0.93095639  0.73429533  0.02928692  1.0
  Ni  Ni558  1  0.09724639  0.13339133  0.07917392  1.0
  Ni  Ni559  1  0.09724639  0.46672467  0.07917392  1.0
  Ni  Ni560  1  0.09724639  0.80005800  0.07917392  1.0
  Ni  Ni561  1  0.43057972  0.13339133  0.07917392  1.0
  Ni  Ni562  1  0.43057972  0.46672467  0.07917392  1.0
  Ni  Ni563  1  0.43057972  0.80005800  0.07917392  1.0
  Ni  Ni564  1  0.76391306  0.13339133  0.07917392  1.0
  Ni  Ni565  1  0.76391306  0.46672467  0.07917392  1.0
  Ni  Ni566  1  0.76391306  0.80005800  0.07917392  1.0
  Ni  Ni567  1  0.29169083  0.13339133  0.03750725  1.0
  Ni  Ni568  1  0.29169083  0.46672467  0.03750725  1.0
  Ni  Ni569  1  0.29169083  0.80005800  0.03750725  1.0
  Ni  Ni570  1  0.62502417  0.13339133  0.03750725  1.0
  Ni  Ni571  1  0.62502417  0.46672467  0.03750725  1.0
  Ni  Ni572  1  0.62502417  0.80005800  0.03750725  1.0
  Ni  Ni573  1  0.95835750  0.13339133  0.03750725  1.0
  Ni  Ni574  1  0.95835750  0.46672467  0.03750725  1.0
  Ni  Ni575  1  0.95835750  0.80005800  0.03750725  1.0
  Ni  Ni576  1  0.18053139  0.19994200  0.00415942  1.0
  Ni  Ni577  1  0.18053139  0.53327533  0.00415942  1.0
  Ni  Ni578  1  0.18053139  0.86660867  0.00415942  1.0
  Ni  Ni579  1  0.51386472  0.19994200  0.00415942  1.0
  Ni  Ni580  1  0.51386472  0.53327533  0.00415942  1.0
  Ni  Ni581  1  0.51386472  0.86660867  0.00415942  1.0
  Ni  Ni582  1  0.84719806  0.19994200  0.00415942  1.0
  Ni  Ni583  1  0.84719806  0.53327533  0.00415942  1.0
  Ni  Ni584  1  0.84719806  0.86660867  0.00415942  1.0
  Ni  Ni585  1  0.31942028  0.19994200  0.04582608  1.0
  Ni  Ni586  1  0.31942028  0.53327533  0.04582608  1.0
  Ni  Ni587  1  0.31942028  0.86660867  0.04582608  1.0
  Ni  Ni588  1  0.65275361  0.19994200  0.04582608  1.0
  Ni  Ni589  1  0.65275361  0.53327533  0.04582608  1.0
  Ni  Ni590  1  0.65275361  0.86660867  0.04582608  1.0
  Ni  Ni591  1  0.98608694  0.19994200  0.04582608  1.0
  Ni  Ni592  1  0.98608694  0.53327533  0.04582608  1.0
  Ni  Ni593  1  0.98608694  0.86660867  0.04582608  1.0
  Ni  Ni594  1  0.20793250  0.26570467  0.01237975  1.0
  Ni  Ni595  1  0.20793250  0.59903800  0.01237975  1.0
  Ni  Ni596  1  0.20793250  0.93237133  0.01237975  1.0
  Ni  Ni597  1  0.54126583  0.26570467  0.01237975  1.0
  Ni  Ni598  1  0.54126583  0.59903800  0.01237975  1.0
  Ni  Ni599  1  0.54126583  0.93237133  0.01237975  1.0
  Ni  Ni600  1  0.87459917  0.26570467  0.01237975  1.0
  Ni  Ni601  1  0.87459917  0.59903800  0.01237975  1.0
  Ni  Ni602  1  0.87459917  0.93237133  0.01237975  1.0
  Ni  Ni603  1  0.01348806  0.26570467  0.05404642  1.0
  Ni  Ni604  1  0.01348806  0.59903800  0.05404642  1.0
  Ni  Ni605  1  0.01348806  0.93237133  0.05404642  1.0
  Ni  Ni606  1  0.34682139  0.26570467  0.05404642  1.0
  Ni  Ni607  1  0.34682139  0.59903800  0.05404642  1.0
  Ni  Ni608  1  0.34682139  0.93237133  0.05404642  1.0
  Ni  Ni609  1  0.68015472  0.26570467  0.05404642  1.0
  Ni  Ni610  1  0.68015472  0.59903800  0.05404642  1.0
  Ni  Ni611  1  0.68015472  0.93237133  0.05404642  1.0
  Ni  Ni612  1  0.01428972  0.06762867  0.15428692  1.0
  Ni  Ni613  1  0.01428972  0.40096200  0.15428692  1.0
  Ni  Ni614  1  0.01428972  0.73429533  0.15428692  1.0
  Ni  Ni615  1  0.34762306  0.06762867  0.15428692  1.0
  Ni  Ni616  1  0.34762306  0.40096200  0.15428692  1.0
  Ni  Ni617  1  0.34762306  0.73429533  0.15428692  1.0
  Ni  Ni618  1  0.68095639  0.06762867  0.15428692  1.0
  Ni  Ni619  1  0.68095639  0.40096200  0.15428692  1.0
  Ni  Ni620  1  0.68095639  0.73429533  0.15428692  1.0
  Ni  Ni621  1  0.20873417  0.06762867  0.11262025  1.0
  Ni  Ni622  1  0.20873417  0.40096200  0.11262025  1.0
  Ni  Ni623  1  0.20873417  0.73429533  0.11262025  1.0
  Ni  Ni624  1  0.54206750  0.06762867  0.11262025  1.0
  Ni  Ni625  1  0.54206750  0.40096200  0.11262025  1.0
  Ni  Ni626  1  0.54206750  0.73429533  0.11262025  1.0
  Ni  Ni627  1  0.87540083  0.06762867  0.11262025  1.0
  Ni  Ni628  1  0.87540083  0.40096200  0.11262025  1.0
  Ni  Ni629  1  0.87540083  0.73429533  0.11262025  1.0
  Ni  Ni630  1  0.04169083  0.13339133  0.16250725  1.0
  Ni  Ni631  1  0.04169083  0.46672467  0.16250725  1.0
  Ni  Ni632  1  0.04169083  0.80005800  0.16250725  1.0
  Ni  Ni633  1  0.37502417  0.13339133  0.16250725  1.0
  Ni  Ni634  1  0.37502417  0.46672467  0.16250725  1.0
  Ni  Ni635  1  0.37502417  0.80005800  0.16250725  1.0
  Ni  Ni636  1  0.70835750  0.13339133  0.16250725  1.0
  Ni  Ni637  1  0.70835750  0.46672467  0.16250725  1.0
  Ni  Ni638  1  0.70835750  0.80005800  0.16250725  1.0
  Ni  Ni639  1  0.23613528  0.13339133  0.12084058  1.0
  Ni  Ni640  1  0.23613528  0.46672467  0.12084058  1.0
  Ni  Ni641  1  0.23613528  0.80005800  0.12084058  1.0
  Ni  Ni642  1  0.56946861  0.13339133  0.12084058  1.0
  Ni  Ni643  1  0.56946861  0.46672467  0.12084058  1.0
  Ni  Ni644  1  0.56946861  0.80005800  0.12084058  1.0
  Ni  Ni645  1  0.90280194  0.13339133  0.12084058  1.0
  Ni  Ni646  1  0.90280194  0.46672467  0.12084058  1.0
  Ni  Ni647  1  0.90280194  0.80005800  0.12084058  1.0
  Ni  Ni648  1  0.12497583  0.19994200  0.08749275  1.0
  Ni  Ni649  1  0.12497583  0.53327533  0.08749275  1.0
  Ni  Ni650  1  0.12497583  0.86660867  0.08749275  1.0
  Ni  Ni651  1  0.45830917  0.19994200  0.08749275  1.0
  Ni  Ni652  1  0.45830917  0.53327533  0.08749275  1.0
  Ni  Ni653  1  0.45830917  0.86660867  0.08749275  1.0
  Ni  Ni654  1  0.79164250  0.19994200  0.08749275  1.0
  Ni  Ni655  1  0.79164250  0.53327533  0.08749275  1.0
  Ni  Ni656  1  0.79164250  0.86660867  0.08749275  1.0
  Ni  Ni657  1  0.26386472  0.19994200  0.12915942  1.0
  Ni  Ni658  1  0.26386472  0.53327533  0.12915942  1.0
  Ni  Ni659  1  0.26386472  0.86660867  0.12915942  1.0
  Ni  Ni660  1  0.59719806  0.19994200  0.12915942  1.0
  Ni  Ni661  1  0.59719806  0.53327533  0.12915942  1.0
  Ni  Ni662  1  0.59719806  0.86660867  0.12915942  1.0
  Ni  Ni663  1  0.93053139  0.19994200  0.12915942  1.0
  Ni  Ni664  1  0.93053139  0.53327533  0.12915942  1.0
  Ni  Ni665  1  0.93053139  0.86660867  0.12915942  1.0
  Ni  Ni666  1  0.15237694  0.26570467  0.09571308  1.0
  Ni  Ni667  1  0.15237694  0.59903800  0.09571308  1.0
  Ni  Ni668  1  0.15237694  0.93237133  0.09571308  1.0
  Ni  Ni669  1  0.48571028  0.26570467  0.09571308  1.0
  Ni  Ni670  1  0.48571028  0.59903800  0.09571308  1.0
  Ni  Ni671  1  0.48571028  0.93237133  0.09571308  1.0
  Ni  Ni672  1  0.81904361  0.26570467  0.09571308  1.0
  Ni  Ni673  1  0.81904361  0.59903800  0.09571308  1.0
  Ni  Ni674  1  0.81904361  0.93237133  0.09571308  1.0
  Ni  Ni675  1  0.29126583  0.26570467  0.13737975  1.0
  Ni  Ni676  1  0.29126583  0.59903800  0.13737975  1.0
  Ni  Ni677  1  0.29126583  0.93237133  0.13737975  1.0
  Ni  Ni678  1  0.62459917  0.26570467  0.13737975  1.0
  Ni  Ni679  1  0.62459917  0.59903800  0.13737975  1.0
  Ni  Ni680  1  0.62459917  0.93237133  0.13737975  1.0
  Ni  Ni681  1  0.95793250  0.26570467  0.13737975  1.0
  Ni  Ni682  1  0.95793250  0.59903800  0.13737975  1.0
  Ni  Ni683  1  0.95793250  0.93237133  0.13737975  1.0
  Ni  Ni684  1  0.29206750  0.06762867  0.23762025  1.0
  Ni  Ni685  1  0.29206750  0.40096200  0.23762025  1.0
  Ni  Ni686  1  0.29206750  0.73429533  0.23762025  1.0
  Ni  Ni687  1  0.62540083  0.06762867  0.23762025  1.0
  Ni  Ni688  1  0.62540083  0.40096200  0.23762025  1.0
  Ni  Ni689  1  0.62540083  0.73429533  0.23762025  1.0
  Ni  Ni690  1  0.95873417  0.06762867  0.23762025  1.0
  Ni  Ni691  1  0.95873417  0.40096200  0.23762025  1.0
  Ni  Ni692  1  0.95873417  0.73429533  0.23762025  1.0
  Ni  Ni693  1  0.15317861  0.06762867  0.19595358  1.0
  Ni  Ni694  1  0.15317861  0.40096200  0.19595358  1.0
  Ni  Ni695  1  0.15317861  0.73429533  0.19595358  1.0
  Ni  Ni696  1  0.48651194  0.06762867  0.19595358  1.0
  Ni  Ni697  1  0.48651194  0.40096200  0.19595358  1.0
  Ni  Ni698  1  0.48651194  0.73429533  0.19595358  1.0
  Ni  Ni699  1  0.81984528  0.06762867  0.19595358  1.0
  Ni  Ni700  1  0.81984528  0.40096200  0.19595358  1.0
  Ni  Ni701  1  0.81984528  0.73429533  0.19595358  1.0
  Ni  Ni702  1  0.31946861  0.13339133  0.24584058  1.0
  Ni  Ni703  1  0.31946861  0.46672467  0.24584058  1.0
  Ni  Ni704  1  0.31946861  0.80005800  0.24584058  1.0
  Ni  Ni705  1  0.65280194  0.13339133  0.24584058  1.0
  Ni  Ni706  1  0.65280194  0.46672467  0.24584058  1.0
  Ni  Ni707  1  0.65280194  0.80005800  0.24584058  1.0
  Ni  Ni708  1  0.98613528  0.13339133  0.24584058  1.0
  Ni  Ni709  1  0.98613528  0.46672467  0.24584058  1.0
  Ni  Ni710  1  0.98613528  0.80005800  0.24584058  1.0
  Ni  Ni711  1  0.18057972  0.13339133  0.20417392  1.0
  Ni  Ni712  1  0.18057972  0.46672467  0.20417392  1.0
  Ni  Ni713  1  0.18057972  0.80005800  0.20417392  1.0
  Ni  Ni714  1  0.51391306  0.13339133  0.20417392  1.0
  Ni  Ni715  1  0.51391306  0.46672467  0.20417392  1.0
  Ni  Ni716  1  0.51391306  0.80005800  0.20417392  1.0
  Ni  Ni717  1  0.84724639  0.13339133  0.20417392  1.0
  Ni  Ni718  1  0.84724639  0.46672467  0.20417392  1.0
  Ni  Ni719  1  0.84724639  0.80005800  0.20417392  1.0
  Ni  Ni720  1  0.06942028  0.19994200  0.17082608  1.0
  Ni  Ni721  1  0.06942028  0.53327533  0.17082608  1.0
  Ni  Ni722  1  0.06942028  0.86660867  0.17082608  1.0
  Ni  Ni723  1  0.40275361  0.19994200  0.17082608  1.0
  Ni  Ni724  1  0.40275361  0.53327533  0.17082608  1.0
  Ni  Ni725  1  0.40275361  0.86660867  0.17082608  1.0
  Ni  Ni726  1  0.73608694  0.19994200  0.17082608  1.0
  Ni  Ni727  1  0.73608694  0.53327533  0.17082608  1.0
  Ni  Ni728  1  0.73608694  0.86660867  0.17082608  1.0
  Ni  Ni729  1  0.20830917  0.19994200  0.21249275  1.0
  Ni  Ni730  1  0.20830917  0.53327533  0.21249275  1.0
  Ni  Ni731  1  0.20830917  0.86660867  0.21249275  1.0
  Ni  Ni732  1  0.54164250  0.19994200  0.21249275  1.0
  Ni  Ni733  1  0.54164250  0.53327533  0.21249275  1.0
  Ni  Ni734  1  0.54164250  0.86660867  0.21249275  1.0
  Ni  Ni735  1  0.87497583  0.19994200  0.21249275  1.0
  Ni  Ni736  1  0.87497583  0.53327533  0.21249275  1.0
  Ni  Ni737  1  0.87497583  0.86660867  0.21249275  1.0
  Ni  Ni738  1  0.09682139  0.26570467  0.17904642  1.0
  Ni  Ni739  1  0.09682139  0.59903800  0.17904642  1.0
  Ni  Ni740  1  0.09682139  0.93237133  0.17904642  1.0
  Ni  Ni741  1  0.43015472  0.26570467  0.17904642  1.0
  Ni  Ni742  1  0.43015472  0.59903800  0.17904642  1.0
  Ni  Ni743  1  0.43015472  0.93237133  0.17904642  1.0
  Ni  Ni744  1  0.76348806  0.26570467  0.17904642  1.0
  Ni  Ni745  1  0.76348806  0.59903800  0.17904642  1.0
  Ni  Ni746  1  0.76348806  0.93237133  0.17904642  1.0
  Ni  Ni747  1  0.23571028  0.26570467  0.22071308  1.0
  Ni  Ni748  1  0.23571028  0.59903800  0.22071308  1.0
  Ni  Ni749  1  0.23571028  0.93237133  0.22071308  1.0
  Ni  Ni750  1  0.56904361  0.26570467  0.22071308  1.0
  Ni  Ni751  1  0.56904361  0.59903800  0.22071308  1.0
  Ni  Ni752  1  0.56904361  0.93237133  0.22071308  1.0
  Ni  Ni753  1  0.90237694  0.26570467  0.22071308  1.0
  Ni  Ni754  1  0.90237694  0.59903800  0.22071308  1.0
  Ni  Ni755  1  0.90237694  0.93237133  0.22071308  1.0
  Ni  Ni756  1  0.23651194  0.06762867  0.32095358  1.0
  Ni  Ni757  1  0.23651194  0.40096200  0.32095358  1.0
  Ni  Ni758  1  0.23651194  0.73429533  0.32095358  1.0
  Ni  Ni759  1  0.56984528  0.06762867  0.32095358  1.0
  Ni  Ni760  1  0.56984528  0.40096200  0.32095358  1.0
  Ni  Ni761  1  0.56984528  0.73429533  0.32095358  1.0
  Ni  Ni762  1  0.90317861  0.06762867  0.32095358  1.0
  Ni  Ni763  1  0.90317861  0.40096200  0.32095358  1.0
  Ni  Ni764  1  0.90317861  0.73429533  0.32095358  1.0
  Ni  Ni765  1  0.09762306  0.06762867  0.27928692  1.0
  Ni  Ni766  1  0.09762306  0.40096200  0.27928692  1.0
  Ni  Ni767  1  0.09762306  0.73429533  0.27928692  1.0
  Ni  Ni768  1  0.43095639  0.06762867  0.27928692  1.0
  Ni  Ni769  1  0.43095639  0.40096200  0.27928692  1.0
  Ni  Ni770  1  0.43095639  0.73429533  0.27928692  1.0
  Ni  Ni771  1  0.76428972  0.06762867  0.27928692  1.0
  Ni  Ni772  1  0.76428972  0.40096200  0.27928692  1.0
  Ni  Ni773  1  0.76428972  0.73429533  0.27928692  1.0
  Ni  Ni774  1  0.26391306  0.13339133  0.32917392  1.0
  Ni  Ni775  1  0.26391306  0.46672467  0.32917392  1.0
  Ni  Ni776  1  0.26391306  0.80005800  0.32917392  1.0
  Ni  Ni777  1  0.59724639  0.13339133  0.32917392  1.0
  Ni  Ni778  1  0.59724639  0.46672467  0.32917392  1.0
  Ni  Ni779  1  0.59724639  0.80005800  0.32917392  1.0
  Ni  Ni780  1  0.93057972  0.13339133  0.32917392  1.0
  Ni  Ni781  1  0.93057972  0.46672467  0.32917392  1.0
  Ni  Ni782  1  0.93057972  0.80005800  0.32917392  1.0
  Ni  Ni783  1  0.12502417  0.13339133  0.28750725  1.0
  Ni  Ni784  1  0.12502417  0.46672467  0.28750725  1.0
  Ni  Ni785  1  0.12502417  0.80005800  0.28750725  1.0
  Ni  Ni786  1  0.45835750  0.13339133  0.28750725  1.0
  Ni  Ni787  1  0.45835750  0.46672467  0.28750725  1.0
  Ni  Ni788  1  0.45835750  0.80005800  0.28750725  1.0
  Ni  Ni789  1  0.79169083  0.13339133  0.28750725  1.0
  Ni  Ni790  1  0.79169083  0.46672467  0.28750725  1.0
  Ni  Ni791  1  0.79169083  0.80005800  0.28750725  1.0
  Ni  Ni792  1  0.01386472  0.19994200  0.25415942  1.0
  Ni  Ni793  1  0.01386472  0.53327533  0.25415942  1.0
  Ni  Ni794  1  0.01386472  0.86660867  0.25415942  1.0
  Ni  Ni795  1  0.34719806  0.19994200  0.25415942  1.0
  Ni  Ni796  1  0.34719806  0.53327533  0.25415942  1.0
  Ni  Ni797  1  0.34719806  0.86660867  0.25415942  1.0
  Ni  Ni798  1  0.68053139  0.19994200  0.25415942  1.0
  Ni  Ni799  1  0.68053139  0.53327533  0.25415942  1.0
  Ni  Ni800  1  0.68053139  0.86660867  0.25415942  1.0
  Ni  Ni801  1  0.15275361  0.19994200  0.29582608  1.0
  Ni  Ni802  1  0.15275361  0.53327533  0.29582608  1.0
  Ni  Ni803  1  0.15275361  0.86660867  0.29582608  1.0
  Ni  Ni804  1  0.48608694  0.19994200  0.29582608  1.0
  Ni  Ni805  1  0.48608694  0.53327533  0.29582608  1.0
  Ni  Ni806  1  0.48608694  0.86660867  0.29582608  1.0
  Ni  Ni807  1  0.81942028  0.19994200  0.29582608  1.0
  Ni  Ni808  1  0.81942028  0.53327533  0.29582608  1.0
  Ni  Ni809  1  0.81942028  0.86660867  0.29582608  1.0
  Ni  Ni810  1  0.04126583  0.26570467  0.26237975  1.0
  Ni  Ni811  1  0.04126583  0.59903800  0.26237975  1.0
  Ni  Ni812  1  0.04126583  0.93237133  0.26237975  1.0
  Ni  Ni813  1  0.37459917  0.26570467  0.26237975  1.0
  Ni  Ni814  1  0.37459917  0.59903800  0.26237975  1.0
  Ni  Ni815  1  0.37459917  0.93237133  0.26237975  1.0
  Ni  Ni816  1  0.70793250  0.26570467  0.26237975  1.0
  Ni  Ni817  1  0.70793250  0.59903800  0.26237975  1.0
  Ni  Ni818  1  0.70793250  0.93237133  0.26237975  1.0
  Ni  Ni819  1  0.18015472  0.26570467  0.30404642  1.0
  Ni  Ni820  1  0.18015472  0.59903800  0.30404642  1.0
  Ni  Ni821  1  0.18015472  0.93237133  0.30404642  1.0
  Ni  Ni822  1  0.51348806  0.26570467  0.30404642  1.0
  Ni  Ni823  1  0.51348806  0.59903800  0.30404642  1.0
  Ni  Ni824  1  0.51348806  0.93237133  0.30404642  1.0
  Ni  Ni825  1  0.84682139  0.26570467  0.30404642  1.0
  Ni  Ni826  1  0.84682139  0.59903800  0.30404642  1.0
  Ni  Ni827  1  0.84682139  0.93237133  0.30404642  1.0
  Ni  Ni828  1  0.18095639  0.06762867  0.40428692  1.0
  Ni  Ni829  1  0.18095639  0.40096200  0.40428692  1.0
  Ni  Ni830  1  0.18095639  0.73429533  0.40428692  1.0
  Ni  Ni831  1  0.51428972  0.06762867  0.40428692  1.0
  Ni  Ni832  1  0.51428972  0.40096200  0.40428692  1.0
  Ni  Ni833  1  0.51428972  0.73429533  0.40428692  1.0
  Ni  Ni834  1  0.84762306  0.06762867  0.40428692  1.0
  Ni  Ni835  1  0.84762306  0.40096200  0.40428692  1.0
  Ni  Ni836  1  0.84762306  0.73429533  0.40428692  1.0
  Ni  Ni837  1  0.04206750  0.06762867  0.36262025  1.0
  Ni  Ni838  1  0.04206750  0.40096200  0.36262025  1.0
  Ni  Ni839  1  0.04206750  0.73429533  0.36262025  1.0
  Ni  Ni840  1  0.37540083  0.06762867  0.36262025  1.0
  Ni  Ni841  1  0.37540083  0.40096200  0.36262025  1.0
  Ni  Ni842  1  0.37540083  0.73429533  0.36262025  1.0
  Ni  Ni843  1  0.70873417  0.06762867  0.36262025  1.0
  Ni  Ni844  1  0.70873417  0.40096200  0.36262025  1.0
  Ni  Ni845  1  0.70873417  0.73429533  0.36262025  1.0
  Ni  Ni846  1  0.20835750  0.13339133  0.41250725  1.0
  Ni  Ni847  1  0.20835750  0.46672467  0.41250725  1.0
  Ni  Ni848  1  0.20835750  0.80005800  0.41250725  1.0
  Ni  Ni849  1  0.54169083  0.13339133  0.41250725  1.0
  Ni  Ni850  1  0.54169083  0.46672467  0.41250725  1.0
  Ni  Ni851  1  0.54169083  0.80005800  0.41250725  1.0
  Ni  Ni852  1  0.87502417  0.13339133  0.41250725  1.0
  Ni  Ni853  1  0.87502417  0.46672467  0.41250725  1.0
  Ni  Ni854  1  0.87502417  0.80005800  0.41250725  1.0
  Ni  Ni855  1  0.06946861  0.13339133  0.37084058  1.0
  Ni  Ni856  1  0.06946861  0.46672467  0.37084058  1.0
  Ni  Ni857  1  0.06946861  0.80005800  0.37084058  1.0
  Ni  Ni858  1  0.40280194  0.13339133  0.37084058  1.0
  Ni  Ni859  1  0.40280194  0.46672467  0.37084058  1.0
  Ni  Ni860  1  0.40280194  0.80005800  0.37084058  1.0
  Ni  Ni861  1  0.73613528  0.13339133  0.37084058  1.0
  Ni  Ni862  1  0.73613528  0.46672467  0.37084058  1.0
  Ni  Ni863  1  0.73613528  0.80005800  0.37084058  1.0
  Ni  Ni864  1  0.29164250  0.19994200  0.33749275  1.0
  Ni  Ni865  1  0.29164250  0.53327533  0.33749275  1.0
  Ni  Ni866  1  0.29164250  0.86660867  0.33749275  1.0
  Ni  Ni867  1  0.62497583  0.19994200  0.33749275  1.0
  Ni  Ni868  1  0.62497583  0.53327533  0.33749275  1.0
  Ni  Ni869  1  0.62497583  0.86660867  0.33749275  1.0
  Ni  Ni870  1  0.95830917  0.19994200  0.33749275  1.0
  Ni  Ni871  1  0.95830917  0.53327533  0.33749275  1.0
  Ni  Ni872  1  0.95830917  0.86660867  0.33749275  1.0
  Ni  Ni873  1  0.09719806  0.19994200  0.37915942  1.0
  Ni  Ni874  1  0.09719806  0.53327533  0.37915942  1.0
  Ni  Ni875  1  0.09719806  0.86660867  0.37915942  1.0
  Ni  Ni876  1  0.43053139  0.19994200  0.37915942  1.0
  Ni  Ni877  1  0.43053139  0.53327533  0.37915942  1.0
  Ni  Ni878  1  0.43053139  0.86660867  0.37915942  1.0
  Ni  Ni879  1  0.76386472  0.19994200  0.37915942  1.0
  Ni  Ni880  1  0.76386472  0.53327533  0.37915942  1.0
  Ni  Ni881  1  0.76386472  0.86660867  0.37915942  1.0
  Ni  Ni882  1  0.31904361  0.26570467  0.34571308  1.0
  Ni  Ni883  1  0.31904361  0.59903800  0.34571308  1.0
  Ni  Ni884  1  0.31904361  0.93237133  0.34571308  1.0
  Ni  Ni885  1  0.65237694  0.26570467  0.34571308  1.0
  Ni  Ni886  1  0.65237694  0.59903800  0.34571308  1.0
  Ni  Ni887  1  0.65237694  0.93237133  0.34571308  1.0
  Ni  Ni888  1  0.98571028  0.26570467  0.34571308  1.0
  Ni  Ni889  1  0.98571028  0.59903800  0.34571308  1.0
  Ni  Ni890  1  0.98571028  0.93237133  0.34571308  1.0
  Ni  Ni891  1  0.12459917  0.26570467  0.38737975  1.0
  Ni  Ni892  1  0.12459917  0.59903800  0.38737975  1.0
  Ni  Ni893  1  0.12459917  0.93237133  0.38737975  1.0
  Ni  Ni894  1  0.45793250  0.26570467  0.38737975  1.0
  Ni  Ni895  1  0.45793250  0.59903800  0.38737975  1.0
  Ni  Ni896  1  0.45793250  0.93237133  0.38737975  1.0
  Ni  Ni897  1  0.79126583  0.26570467  0.38737975  1.0
  Ni  Ni898  1  0.79126583  0.59903800  0.38737975  1.0
  Ni  Ni899  1  0.79126583  0.93237133  0.38737975  1.0
