# generated using pymatgen
data_Ga21Ni5
_symmetry_space_group_name_H-M   'P 1'
_cell_length_a   39.25139842
_cell_length_b   48.55107748
_cell_length_c   57.26890225
_cell_angle_alpha   29.25037593
_cell_angle_beta   83.61908164
_cell_angle_gamma   86.94949417
_symmetry_Int_Tables_number   1
_chemical_formula_structural   Ga21Ni5
_chemical_formula_sum   'Ga1134 Ni270'
_cell_volume   52781.48541630
_cell_formula_units_Z   54
loop_
 _symmetry_equiv_pos_site_id
 _symmetry_equiv_pos_as_xyz
  1  'x, y, z'
loop_
 _atom_site_type_symbol
 _atom_site_label
 _atom_site_symmetry_multiplicity
 _atom_site_fract_x
 _atom_site_fract_y
 _atom_site_fract_z
 _atom_site_occupancy
  Ga  Ga0  1  0.33223717  0.10562717  0.14080907  1.0
  Ga  Ga1  1  0.33223717  0.43896050  0.14080907  1.0
  Ga  Ga2  1  0.33223717  0.77229383  0.14080907  1.0
  Ga  Ga3  1  0.66557050  0.10562717  0.14080907  1.0
  Ga  Ga4  1  0.66557050  0.43896050  0.14080907  1.0
  Ga  Ga5  1  0.66557050  0.77229383  0.14080907  1.0
  Ga  Ga6  1  0.99890383  0.10562717  0.14080907  1.0
  Ga  Ga7  1  0.99890383  0.43896050  0.14080907  1.0
  Ga  Ga8  1  0.99890383  0.77229383  0.14080907  1.0
  Ga  Ga9  1  0.16557050  0.27229383  0.06938050  1.0
  Ga  Ga10  1  0.16557050  0.60562717  0.06938050  1.0
  Ga  Ga11  1  0.16557050  0.93896050  0.06938050  1.0
  Ga  Ga12  1  0.49890383  0.27229383  0.06938050  1.0
  Ga  Ga13  1  0.49890383  0.60562717  0.06938050  1.0
  Ga  Ga14  1  0.49890383  0.93896050  0.06938050  1.0
  Ga  Ga15  1  0.83223717  0.27229383  0.06938050  1.0
  Ga  Ga16  1  0.83223717  0.60562717  0.06938050  1.0
  Ga  Ga17  1  0.83223717  0.93896050  0.06938050  1.0
  Ga  Ga18  1  0.28234367  0.28234367  0.11148186  1.0
  Ga  Ga19  1  0.28234367  0.61567700  0.11148186  1.0
  Ga  Ga20  1  0.28234367  0.94901033  0.11148186  1.0
  Ga  Ga21  1  0.61567700  0.28234367  0.11148186  1.0
  Ga  Ga22  1  0.61567700  0.61567700  0.11148186  1.0
  Ga  Ga23  1  0.61567700  0.94901033  0.11148186  1.0
  Ga  Ga24  1  0.94901033  0.28234367  0.11148186  1.0
  Ga  Ga25  1  0.94901033  0.61567700  0.11148186  1.0
  Ga  Ga26  1  0.94901033  0.94901033  0.11148186  1.0
  Ga  Ga27  1  0.11567700  0.11567700  0.04005329  1.0
  Ga  Ga28  1  0.11567700  0.44901033  0.04005329  1.0
  Ga  Ga29  1  0.11567700  0.78234367  0.04005329  1.0
  Ga  Ga30  1  0.44901033  0.11567700  0.04005329  1.0
  Ga  Ga31  1  0.44901033  0.44901033  0.04005329  1.0
  Ga  Ga32  1  0.44901033  0.78234367  0.04005329  1.0
  Ga  Ga33  1  0.78234367  0.11567700  0.04005329  1.0
  Ga  Ga34  1  0.78234367  0.44901033  0.04005329  1.0
  Ga  Ga35  1  0.78234367  0.78234367  0.04005329  1.0
  Ga  Ga36  1  0.21893217  0.11220883  0.04086979  1.0
  Ga  Ga37  1  0.21893217  0.44554217  0.04086979  1.0
  Ga  Ga38  1  0.21893217  0.77887550  0.04086979  1.0
  Ga  Ga39  1  0.55226550  0.11220883  0.04086979  1.0
  Ga  Ga40  1  0.55226550  0.44554217  0.04086979  1.0
  Ga  Ga41  1  0.55226550  0.77887550  0.04086979  1.0
  Ga  Ga42  1  0.88559883  0.11220883  0.04086979  1.0
  Ga  Ga43  1  0.88559883  0.44554217  0.04086979  1.0
  Ga  Ga44  1  0.88559883  0.77887550  0.04086979  1.0
  Ga  Ga45  1  0.05226550  0.27887550  0.11229836  1.0
  Ga  Ga46  1  0.05226550  0.61220883  0.11229836  1.0
  Ga  Ga47  1  0.05226550  0.94554217  0.11229836  1.0
  Ga  Ga48  1  0.38559883  0.27887550  0.11229836  1.0
  Ga  Ga49  1  0.38559883  0.61220883  0.11229836  1.0
  Ga  Ga50  1  0.38559883  0.94554217  0.11229836  1.0
  Ga  Ga51  1  0.71893217  0.27887550  0.11229836  1.0
  Ga  Ga52  1  0.71893217  0.61220883  0.11229836  1.0
  Ga  Ga53  1  0.71893217  0.94554217  0.11229836  1.0
  Ga  Ga54  1  0.16702933  0.04575267  0.07528814  1.0
  Ga  Ga55  1  0.16702933  0.37908600  0.07528814  1.0
  Ga  Ga56  1  0.16702933  0.71241933  0.07528814  1.0
  Ga  Ga57  1  0.50036267  0.04575267  0.07528814  1.0
  Ga  Ga58  1  0.50036267  0.37908600  0.07528814  1.0
  Ga  Ga59  1  0.50036267  0.71241933  0.07528814  1.0
  Ga  Ga60  1  0.83369600  0.04575267  0.07528814  1.0
  Ga  Ga61  1  0.83369600  0.37908600  0.07528814  1.0
  Ga  Ga62  1  0.83369600  0.71241933  0.07528814  1.0
  Ga  Ga63  1  0.00036267  0.21241933  0.00385957  1.0
  Ga  Ga64  1  0.00036267  0.54575267  0.00385957  1.0
  Ga  Ga65  1  0.00036267  0.87908600  0.00385957  1.0
  Ga  Ga66  1  0.33369600  0.21241933  0.00385957  1.0
  Ga  Ga67  1  0.33369600  0.54575267  0.00385957  1.0
  Ga  Ga68  1  0.33369600  0.87908600  0.00385957  1.0
  Ga  Ga69  1  0.66702933  0.21241933  0.00385957  1.0
  Ga  Ga70  1  0.66702933  0.54575267  0.00385957  1.0
  Ga  Ga71  1  0.66702933  0.87908600  0.00385957  1.0
  Ga  Ga72  1  0.21559583  0.00431917  0.04436493  1.0
  Ga  Ga73  1  0.21559583  0.33765250  0.04436493  1.0
  Ga  Ga74  1  0.21559583  0.67098583  0.04436493  1.0
  Ga  Ga75  1  0.54892917  0.00431917  0.04436493  1.0
  Ga  Ga76  1  0.54892917  0.33765250  0.04436493  1.0
  Ga  Ga77  1  0.54892917  0.67098583  0.04436493  1.0
  Ga  Ga78  1  0.88226250  0.00431917  0.04436493  1.0
  Ga  Ga79  1  0.88226250  0.33765250  0.04436493  1.0
  Ga  Ga80  1  0.88226250  0.67098583  0.04436493  1.0
  Ga  Ga81  1  0.04892917  0.17098583  0.11579350  1.0
  Ga  Ga82  1  0.04892917  0.50431917  0.11579350  1.0
  Ga  Ga83  1  0.04892917  0.83765250  0.11579350  1.0
  Ga  Ga84  1  0.38226250  0.17098583  0.11579350  1.0
  Ga  Ga85  1  0.38226250  0.50431917  0.11579350  1.0
  Ga  Ga86  1  0.38226250  0.83765250  0.11579350  1.0
  Ga  Ga87  1  0.71559583  0.17098583  0.11579350  1.0
  Ga  Ga88  1  0.71559583  0.50431917  0.11579350  1.0
  Ga  Ga89  1  0.71559583  0.83765250  0.11579350  1.0
  Ga  Ga90  1  0.28046867  0.15919200  0.12390500  1.0
  Ga  Ga91  1  0.28046867  0.49252533  0.12390500  1.0
  Ga  Ga92  1  0.28046867  0.82585867  0.12390500  1.0
  Ga  Ga93  1  0.61380200  0.15919200  0.12390500  1.0
  Ga  Ga94  1  0.61380200  0.49252533  0.12390500  1.0
  Ga  Ga95  1  0.61380200  0.82585867  0.12390500  1.0
  Ga  Ga96  1  0.94713533  0.15919200  0.12390500  1.0
  Ga  Ga97  1  0.94713533  0.49252533  0.12390500  1.0
  Ga  Ga98  1  0.94713533  0.82585867  0.12390500  1.0
  Ga  Ga99  1  0.11380200  0.32585867  0.05247643  1.0
  Ga  Ga100  1  0.11380200  0.65919200  0.05247643  1.0
  Ga  Ga101  1  0.11380200  0.99252533  0.05247643  1.0
  Ga  Ga102  1  0.44713533  0.32585867  0.05247643  1.0
  Ga  Ga103  1  0.44713533  0.65919200  0.05247643  1.0
  Ga  Ga104  1  0.44713533  0.99252533  0.05247643  1.0
  Ga  Ga105  1  0.78046867  0.32585867  0.05247643  1.0
  Ga  Ga106  1  0.78046867  0.65919200  0.05247643  1.0
  Ga  Ga107  1  0.78046867  0.99252533  0.05247643  1.0
  Ga  Ga108  1  0.21983033  0.00777367  0.13682286  1.0
  Ga  Ga109  1  0.21983033  0.34110700  0.13682286  1.0
  Ga  Ga110  1  0.21983033  0.67444033  0.13682286  1.0
  Ga  Ga111  1  0.55316367  0.00777367  0.13682286  1.0
  Ga  Ga112  1  0.55316367  0.34110700  0.13682286  1.0
  Ga  Ga113  1  0.55316367  0.67444033  0.13682286  1.0
  Ga  Ga114  1  0.88649700  0.00777367  0.13682286  1.0
  Ga  Ga115  1  0.88649700  0.34110700  0.13682286  1.0
  Ga  Ga116  1  0.88649700  0.67444033  0.13682286  1.0
  Ga  Ga117  1  0.05316367  0.17444033  0.06539429  1.0
  Ga  Ga118  1  0.05316367  0.50777367  0.06539429  1.0
  Ga  Ga119  1  0.05316367  0.84110700  0.06539429  1.0
  Ga  Ga120  1  0.38649700  0.17444033  0.06539429  1.0
  Ga  Ga121  1  0.38649700  0.50777367  0.06539429  1.0
  Ga  Ga122  1  0.38649700  0.84110700  0.06539429  1.0
  Ga  Ga123  1  0.71983033  0.17444033  0.06539429  1.0
  Ga  Ga124  1  0.71983033  0.50777367  0.06539429  1.0
  Ga  Ga125  1  0.71983033  0.84110700  0.06539429  1.0
  Ga  Ga126  1  0.27662417  0.15456750  0.03228279  1.0
  Ga  Ga127  1  0.27662417  0.48790083  0.03228279  1.0
  Ga  Ga128  1  0.27662417  0.82123417  0.03228279  1.0
  Ga  Ga129  1  0.60995750  0.15456750  0.03228279  1.0
  Ga  Ga130  1  0.60995750  0.48790083  0.03228279  1.0
  Ga  Ga131  1  0.60995750  0.82123417  0.03228279  1.0
  Ga  Ga132  1  0.94329083  0.15456750  0.03228279  1.0
  Ga  Ga133  1  0.94329083  0.48790083  0.03228279  1.0
  Ga  Ga134  1  0.94329083  0.82123417  0.03228279  1.0
  Ga  Ga135  1  0.10995750  0.32123417  0.10371136  1.0
  Ga  Ga136  1  0.10995750  0.65456750  0.10371136  1.0
  Ga  Ga137  1  0.10995750  0.98790083  0.10371136  1.0
  Ga  Ga138  1  0.44329083  0.32123417  0.10371136  1.0
  Ga  Ga139  1  0.44329083  0.65456750  0.10371136  1.0
  Ga  Ga140  1  0.44329083  0.98790083  0.10371136  1.0
  Ga  Ga141  1  0.77662417  0.32123417  0.10371136  1.0
  Ga  Ga142  1  0.77662417  0.65456750  0.10371136  1.0
  Ga  Ga143  1  0.77662417  0.98790083  0.10371136  1.0
  Ga  Ga144  1  0.27305767  0.06100100  0.01677743  1.0
  Ga  Ga145  1  0.27305767  0.39433433  0.01677743  1.0
  Ga  Ga146  1  0.27305767  0.72766767  0.01677743  1.0
  Ga  Ga147  1  0.60639100  0.06100100  0.01677743  1.0
  Ga  Ga148  1  0.60639100  0.39433433  0.01677743  1.0
  Ga  Ga149  1  0.60639100  0.72766767  0.01677743  1.0
  Ga  Ga150  1  0.93972433  0.06100100  0.01677743  1.0
  Ga  Ga151  1  0.93972433  0.39433433  0.01677743  1.0
  Ga  Ga152  1  0.93972433  0.72766767  0.01677743  1.0
  Ga  Ga153  1  0.10639100  0.22766767  0.08820600  1.0
  Ga  Ga154  1  0.10639100  0.56100100  0.08820600  1.0
  Ga  Ga155  1  0.10639100  0.89433433  0.08820600  1.0
  Ga  Ga156  1  0.43972433  0.22766767  0.08820600  1.0
  Ga  Ga157  1  0.43972433  0.56100100  0.08820600  1.0
  Ga  Ga158  1  0.43972433  0.89433433  0.08820600  1.0
  Ga  Ga159  1  0.77305767  0.22766767  0.08820600  1.0
  Ga  Ga160  1  0.77305767  0.56100100  0.08820600  1.0
  Ga  Ga161  1  0.77305767  0.89433433  0.08820600  1.0
  Ga  Ga162  1  0.28011867  0.17339533  0.06709257  1.0
  Ga  Ga163  1  0.28011867  0.50672867  0.06709257  1.0
  Ga  Ga164  1  0.28011867  0.84006200  0.06709257  1.0
  Ga  Ga165  1  0.61345200  0.17339533  0.06709257  1.0
  Ga  Ga166  1  0.61345200  0.50672867  0.06709257  1.0
  Ga  Ga167  1  0.61345200  0.84006200  0.06709257  1.0
  Ga  Ga168  1  0.94678533  0.17339533  0.06709257  1.0
  Ga  Ga169  1  0.94678533  0.50672867  0.06709257  1.0
  Ga  Ga170  1  0.94678533  0.84006200  0.06709257  1.0
  Ga  Ga171  1  0.11345200  0.00672867  0.13852114  1.0
  Ga  Ga172  1  0.11345200  0.34006200  0.13852114  1.0
  Ga  Ga173  1  0.11345200  0.67339533  0.13852114  1.0
  Ga  Ga174  1  0.44678533  0.00672867  0.13852114  1.0
  Ga  Ga175  1  0.44678533  0.34006200  0.13852114  1.0
  Ga  Ga176  1  0.44678533  0.67339533  0.13852114  1.0
  Ga  Ga177  1  0.78011867  0.00672867  0.13852114  1.0
  Ga  Ga178  1  0.78011867  0.34006200  0.13852114  1.0
  Ga  Ga179  1  0.78011867  0.67339533  0.13852114  1.0
  Ga  Ga180  1  0.22597550  0.22597550  0.08732407  1.0
  Ga  Ga181  1  0.22597550  0.55930883  0.08732407  1.0
  Ga  Ga182  1  0.22597550  0.89264217  0.08732407  1.0
  Ga  Ga183  1  0.55930883  0.22597550  0.08732407  1.0
  Ga  Ga184  1  0.55930883  0.55930883  0.08732407  1.0
  Ga  Ga185  1  0.55930883  0.89264217  0.08732407  1.0
  Ga  Ga186  1  0.89264217  0.22597550  0.08732407  1.0
  Ga  Ga187  1  0.89264217  0.55930883  0.08732407  1.0
  Ga  Ga188  1  0.89264217  0.89264217  0.08732407  1.0
  Ga  Ga189  1  0.05930883  0.05930883  0.01589550  1.0
  Ga  Ga190  1  0.05930883  0.39264217  0.01589550  1.0
  Ga  Ga191  1  0.05930883  0.72597550  0.01589550  1.0
  Ga  Ga192  1  0.39264217  0.05930883  0.01589550  1.0
  Ga  Ga193  1  0.39264217  0.39264217  0.01589550  1.0
  Ga  Ga194  1  0.39264217  0.72597550  0.01589550  1.0
  Ga  Ga195  1  0.72597550  0.05930883  0.01589550  1.0
  Ga  Ga196  1  0.72597550  0.39264217  0.01589550  1.0
  Ga  Ga197  1  0.72597550  0.72597550  0.01589550  1.0
  Ga  Ga198  1  0.22675700  0.00014700  0.09560329  1.0
  Ga  Ga199  1  0.22675700  0.33348033  0.09560329  1.0
  Ga  Ga200  1  0.22675700  0.66681367  0.09560329  1.0
  Ga  Ga201  1  0.56009033  0.00014700  0.09560329  1.0
  Ga  Ga202  1  0.56009033  0.33348033  0.09560329  1.0
  Ga  Ga203  1  0.56009033  0.66681367  0.09560329  1.0
  Ga  Ga204  1  0.89342367  0.00014700  0.09560329  1.0
  Ga  Ga205  1  0.89342367  0.33348033  0.09560329  1.0
  Ga  Ga206  1  0.89342367  0.66681367  0.09560329  1.0
  Ga  Ga207  1  0.06009033  0.16681367  0.02417471  1.0
  Ga  Ga208  1  0.06009033  0.50014700  0.02417471  1.0
  Ga  Ga209  1  0.06009033  0.83348033  0.02417471  1.0
  Ga  Ga210  1  0.39342367  0.16681367  0.02417471  1.0
  Ga  Ga211  1  0.39342367  0.50014700  0.02417471  1.0
  Ga  Ga212  1  0.39342367  0.83348033  0.02417471  1.0
  Ga  Ga213  1  0.72675700  0.16681367  0.02417471  1.0
  Ga  Ga214  1  0.72675700  0.50014700  0.02417471  1.0
  Ga  Ga215  1  0.72675700  0.83348033  0.02417471  1.0
  Ga  Ga216  1  0.16783533  0.16783533  0.02782414  1.0
  Ga  Ga217  1  0.16783533  0.50116867  0.02782414  1.0
  Ga  Ga218  1  0.16783533  0.83450200  0.02782414  1.0
  Ga  Ga219  1  0.50116867  0.16783533  0.02782414  1.0
  Ga  Ga220  1  0.50116867  0.50116867  0.02782414  1.0
  Ga  Ga221  1  0.50116867  0.83450200  0.02782414  1.0
  Ga  Ga222  1  0.83450200  0.16783533  0.02782414  1.0
  Ga  Ga223  1  0.83450200  0.50116867  0.02782414  1.0
  Ga  Ga224  1  0.83450200  0.83450200  0.02782414  1.0
  Ga  Ga225  1  0.00116867  0.00116867  0.09925271  1.0
  Ga  Ga226  1  0.00116867  0.33450200  0.09925271  1.0
  Ga  Ga227  1  0.00116867  0.66783533  0.09925271  1.0
  Ga  Ga228  1  0.33450200  0.00116867  0.09925271  1.0
  Ga  Ga229  1  0.33450200  0.33450200  0.09925271  1.0
  Ga  Ga230  1  0.33450200  0.66783533  0.09925271  1.0
  Ga  Ga231  1  0.66783533  0.00116867  0.09925271  1.0
  Ga  Ga232  1  0.66783533  0.33450200  0.09925271  1.0
  Ga  Ga233  1  0.66783533  0.66783533  0.09925271  1.0
  Ga  Ga234  1  0.32945150  0.24514917  0.07485821  1.0
  Ga  Ga235  1  0.32945150  0.57848250  0.07485821  1.0
  Ga  Ga236  1  0.32945150  0.91181583  0.07485821  1.0
  Ga  Ga237  1  0.66278483  0.24514917  0.07485821  1.0
  Ga  Ga238  1  0.66278483  0.57848250  0.07485821  1.0
  Ga  Ga239  1  0.66278483  0.91181583  0.07485821  1.0
  Ga  Ga240  1  0.99611817  0.24514917  0.07485821  1.0
  Ga  Ga241  1  0.99611817  0.57848250  0.07485821  1.0
  Ga  Ga242  1  0.99611817  0.91181583  0.07485821  1.0
  Ga  Ga243  1  0.16278483  0.07848250  0.00342964  1.0
  Ga  Ga244  1  0.16278483  0.41181583  0.00342964  1.0
  Ga  Ga245  1  0.16278483  0.74514917  0.00342964  1.0
  Ga  Ga246  1  0.49611817  0.07848250  0.00342964  1.0
  Ga  Ga247  1  0.49611817  0.41181583  0.00342964  1.0
  Ga  Ga248  1  0.49611817  0.74514917  0.00342964  1.0
  Ga  Ga249  1  0.82945150  0.07848250  0.00342964  1.0
  Ga  Ga250  1  0.82945150  0.41181583  0.00342964  1.0
  Ga  Ga251  1  0.82945150  0.74514917  0.00342964  1.0
  Ga  Ga252  1  0.28730033  0.03826933  0.12739143  1.0
  Ga  Ga253  1  0.28730033  0.37160267  0.12739143  1.0
  Ga  Ga254  1  0.28730033  0.70493600  0.12739143  1.0
  Ga  Ga255  1  0.62063367  0.03826933  0.12739143  1.0
  Ga  Ga256  1  0.62063367  0.37160267  0.12739143  1.0
  Ga  Ga257  1  0.62063367  0.70493600  0.12739143  1.0
  Ga  Ga258  1  0.95396700  0.03826933  0.12739143  1.0
  Ga  Ga259  1  0.95396700  0.37160267  0.12739143  1.0
  Ga  Ga260  1  0.95396700  0.70493600  0.12739143  1.0
  Ga  Ga261  1  0.12063367  0.20493600  0.05596286  1.0
  Ga  Ga262  1  0.12063367  0.53826933  0.05596286  1.0
  Ga  Ga263  1  0.12063367  0.87160267  0.05596286  1.0
  Ga  Ga264  1  0.45396700  0.20493600  0.05596286  1.0
  Ga  Ga265  1  0.45396700  0.53826933  0.05596286  1.0
  Ga  Ga266  1  0.45396700  0.87160267  0.05596286  1.0
  Ga  Ga267  1  0.78730033  0.20493600  0.05596286  1.0
  Ga  Ga268  1  0.78730033  0.53826933  0.05596286  1.0
  Ga  Ga269  1  0.78730033  0.87160267  0.05596286  1.0
  Ga  Ga270  1  0.21416367  0.21416367  0.04767914  1.0
  Ga  Ga271  1  0.21416367  0.54749700  0.04767914  1.0
  Ga  Ga272  1  0.21416367  0.88083033  0.04767914  1.0
  Ga  Ga273  1  0.54749700  0.21416367  0.04767914  1.0
  Ga  Ga274  1  0.54749700  0.54749700  0.04767914  1.0
  Ga  Ga275  1  0.54749700  0.88083033  0.04767914  1.0
  Ga  Ga276  1  0.88083033  0.21416367  0.04767914  1.0
  Ga  Ga277  1  0.88083033  0.54749700  0.04767914  1.0
  Ga  Ga278  1  0.88083033  0.88083033  0.04767914  1.0
  Ga  Ga279  1  0.04749700  0.04749700  0.11910771  1.0
  Ga  Ga280  1  0.04749700  0.38083033  0.11910771  1.0
  Ga  Ga281  1  0.04749700  0.71416367  0.11910771  1.0
  Ga  Ga282  1  0.38083033  0.04749700  0.11910771  1.0
  Ga  Ga283  1  0.38083033  0.38083033  0.11910771  1.0
  Ga  Ga284  1  0.38083033  0.71416367  0.11910771  1.0
  Ga  Ga285  1  0.71416367  0.04749700  0.11910771  1.0
  Ga  Ga286  1  0.71416367  0.38083033  0.11910771  1.0
  Ga  Ga287  1  0.71416367  0.71416367  0.11910771  1.0
  Ga  Ga288  1  0.33286983  0.33286983  0.04400764  1.0
  Ga  Ga289  1  0.33286983  0.66620317  0.04400764  1.0
  Ga  Ga290  1  0.33286983  0.99953650  0.04400764  1.0
  Ga  Ga291  1  0.66620317  0.33286983  0.04400764  1.0
  Ga  Ga292  1  0.66620317  0.66620317  0.04400764  1.0
  Ga  Ga293  1  0.66620317  0.99953650  0.04400764  1.0
  Ga  Ga294  1  0.99953650  0.33286983  0.04400764  1.0
  Ga  Ga295  1  0.99953650  0.66620317  0.04400764  1.0
  Ga  Ga296  1  0.99953650  0.99953650  0.04400764  1.0
  Ga  Ga297  1  0.16620317  0.16620317  0.11543621  1.0
  Ga  Ga298  1  0.16620317  0.49953650  0.11543621  1.0
  Ga  Ga299  1  0.16620317  0.83286983  0.11543621  1.0
  Ga  Ga300  1  0.49953650  0.16620317  0.11543621  1.0
  Ga  Ga301  1  0.49953650  0.49953650  0.11543621  1.0
  Ga  Ga302  1  0.49953650  0.83286983  0.11543621  1.0
  Ga  Ga303  1  0.83286983  0.16620317  0.11543621  1.0
  Ga  Ga304  1  0.83286983  0.49953650  0.11543621  1.0
  Ga  Ga305  1  0.83286983  0.83286983  0.11543621  1.0
  Ga  Ga306  1  0.16691950  0.27236183  0.12118964  1.0
  Ga  Ga307  1  0.16691950  0.60569517  0.12118964  1.0
  Ga  Ga308  1  0.16691950  0.93902850  0.12118964  1.0
  Ga  Ga309  1  0.50025283  0.27236183  0.12118964  1.0
  Ga  Ga310  1  0.50025283  0.60569517  0.12118964  1.0
  Ga  Ga311  1  0.50025283  0.93902850  0.12118964  1.0
  Ga  Ga312  1  0.83358617  0.27236183  0.12118964  1.0
  Ga  Ga313  1  0.83358617  0.60569517  0.12118964  1.0
  Ga  Ga314  1  0.83358617  0.93902850  0.12118964  1.0
  Ga  Ga315  1  0.00025283  0.10569517  0.04976107  1.0
  Ga  Ga316  1  0.00025283  0.43902850  0.04976107  1.0
  Ga  Ga317  1  0.00025283  0.77236183  0.04976107  1.0
  Ga  Ga318  1  0.33358617  0.10569517  0.04976107  1.0
  Ga  Ga319  1  0.33358617  0.43902850  0.04976107  1.0
  Ga  Ga320  1  0.33358617  0.77236183  0.04976107  1.0
  Ga  Ga321  1  0.66691950  0.10569517  0.04976107  1.0
  Ga  Ga322  1  0.66691950  0.43902850  0.04976107  1.0
  Ga  Ga323  1  0.66691950  0.77236183  0.04976107  1.0
  Ga  Ga324  1  0.21964067  0.11419833  0.09130643  1.0
  Ga  Ga325  1  0.21964067  0.44753167  0.09130643  1.0
  Ga  Ga326  1  0.21964067  0.78086500  0.09130643  1.0
  Ga  Ga327  1  0.55297400  0.11419833  0.09130643  1.0
  Ga  Ga328  1  0.55297400  0.44753167  0.09130643  1.0
  Ga  Ga329  1  0.55297400  0.78086500  0.09130643  1.0
  Ga  Ga330  1  0.88630733  0.11419833  0.09130643  1.0
  Ga  Ga331  1  0.88630733  0.44753167  0.09130643  1.0
  Ga  Ga332  1  0.88630733  0.78086500  0.09130643  1.0
  Ga  Ga333  1  0.05297400  0.28086500  0.01987786  1.0
  Ga  Ga334  1  0.05297400  0.61419833  0.01987786  1.0
  Ga  Ga335  1  0.05297400  0.94753167  0.01987786  1.0
  Ga  Ga336  1  0.38630733  0.28086500  0.01987786  1.0
  Ga  Ga337  1  0.38630733  0.61419833  0.01987786  1.0
  Ga  Ga338  1  0.38630733  0.94753167  0.01987786  1.0
  Ga  Ga339  1  0.71964067  0.28086500  0.01987786  1.0
  Ga  Ga340  1  0.71964067  0.61419833  0.01987786  1.0
  Ga  Ga341  1  0.71964067  0.94753167  0.01987786  1.0
  Ga  Ga342  1  0.27943233  0.27943233  0.02110586  1.0
  Ga  Ga343  1  0.27943233  0.61276567  0.02110586  1.0
  Ga  Ga344  1  0.27943233  0.94609900  0.02110586  1.0
  Ga  Ga345  1  0.61276567  0.27943233  0.02110586  1.0
  Ga  Ga346  1  0.61276567  0.61276567  0.02110586  1.0
  Ga  Ga347  1  0.61276567  0.94609900  0.02110586  1.0
  Ga  Ga348  1  0.94609900  0.27943233  0.02110586  1.0
  Ga  Ga349  1  0.94609900  0.61276567  0.02110586  1.0
  Ga  Ga350  1  0.94609900  0.94609900  0.02110586  1.0
  Ga  Ga351  1  0.11276567  0.11276567  0.09253443  1.0
  Ga  Ga352  1  0.11276567  0.44609900  0.09253443  1.0
  Ga  Ga353  1  0.11276567  0.77943233  0.09253443  1.0
  Ga  Ga354  1  0.44609900  0.11276567  0.09253443  1.0
  Ga  Ga355  1  0.44609900  0.44609900  0.09253443  1.0
  Ga  Ga356  1  0.44609900  0.77943233  0.09253443  1.0
  Ga  Ga357  1  0.77943233  0.11276567  0.09253443  1.0
  Ga  Ga358  1  0.77943233  0.44609900  0.09253443  1.0
  Ga  Ga359  1  0.77943233  0.77943233  0.09253443  1.0
  Ga  Ga360  1  0.22714050  0.22714050  0.13414179  1.0
  Ga  Ga361  1  0.22714050  0.56047383  0.13414179  1.0
  Ga  Ga362  1  0.22714050  0.89380717  0.13414179  1.0
  Ga  Ga363  1  0.56047383  0.22714050  0.13414179  1.0
  Ga  Ga364  1  0.56047383  0.56047383  0.13414179  1.0
  Ga  Ga365  1  0.56047383  0.89380717  0.13414179  1.0
  Ga  Ga366  1  0.89380717  0.22714050  0.13414179  1.0
  Ga  Ga367  1  0.89380717  0.56047383  0.13414179  1.0
  Ga  Ga368  1  0.89380717  0.89380717  0.13414179  1.0
  Ga  Ga369  1  0.06047383  0.06047383  0.06271321  1.0
  Ga  Ga370  1  0.06047383  0.39380717  0.06271321  1.0
  Ga  Ga371  1  0.06047383  0.72714050  0.06271321  1.0
  Ga  Ga372  1  0.39380717  0.06047383  0.06271321  1.0
  Ga  Ga373  1  0.39380717  0.39380717  0.06271321  1.0
  Ga  Ga374  1  0.39380717  0.72714050  0.06271321  1.0
  Ga  Ga375  1  0.72714050  0.06047383  0.06271321  1.0
  Ga  Ga376  1  0.72714050  0.39380717  0.06271321  1.0
  Ga  Ga377  1  0.72714050  0.72714050  0.06271321  1.0
  Ni  Ni378  1  0.27905067  0.05574400  0.06999200  1.0
  Ni  Ni379  1  0.27905067  0.38907733  0.06999200  1.0
  Ni  Ni380  1  0.27905067  0.72241067  0.06999200  1.0
  Ni  Ni381  1  0.61238400  0.05574400  0.06999200  1.0
  Ni  Ni382  1  0.61238400  0.38907733  0.06999200  1.0
  Ni  Ni383  1  0.61238400  0.72241067  0.06999200  1.0
  Ni  Ni384  1  0.94571733  0.05574400  0.06999200  1.0
  Ni  Ni385  1  0.94571733  0.38907733  0.06999200  1.0
  Ni  Ni386  1  0.94571733  0.72241067  0.06999200  1.0
  Ni  Ni387  1  0.11238400  0.22241067  0.14142057  1.0
  Ni  Ni388  1  0.11238400  0.55574400  0.14142057  1.0
  Ni  Ni389  1  0.11238400  0.88907733  0.14142057  1.0
  Ni  Ni390  1  0.44571733  0.22241067  0.14142057  1.0
  Ni  Ni391  1  0.44571733  0.55574400  0.14142057  1.0
  Ni  Ni392  1  0.44571733  0.88907733  0.14142057  1.0
  Ni  Ni393  1  0.77905067  0.22241067  0.14142057  1.0
  Ni  Ni394  1  0.77905067  0.55574400  0.14142057  1.0
  Ni  Ni395  1  0.77905067  0.88907733  0.14142057  1.0
  Ni  Ni396  1  0.16739733  0.05737067  0.11644914  1.0
  Ni  Ni397  1  0.16739733  0.39070400  0.11644914  1.0
  Ni  Ni398  1  0.16739733  0.72403733  0.11644914  1.0
  Ni  Ni399  1  0.50073067  0.05737067  0.11644914  1.0
  Ni  Ni400  1  0.50073067  0.39070400  0.11644914  1.0
  Ni  Ni401  1  0.50073067  0.72403733  0.11644914  1.0
  Ni  Ni402  1  0.83406400  0.05737067  0.11644914  1.0
  Ni  Ni403  1  0.83406400  0.39070400  0.11644914  1.0
  Ni  Ni404  1  0.83406400  0.72403733  0.11644914  1.0
  Ni  Ni405  1  0.00073067  0.22403733  0.04502057  1.0
  Ni  Ni406  1  0.00073067  0.55737067  0.04502057  1.0
  Ni  Ni407  1  0.00073067  0.89070400  0.04502057  1.0
  Ni  Ni408  1  0.33406400  0.22403733  0.04502057  1.0
  Ni  Ni409  1  0.33406400  0.55737067  0.04502057  1.0
  Ni  Ni410  1  0.33406400  0.89070400  0.04502057  1.0
  Ni  Ni411  1  0.66739733  0.22403733  0.04502057  1.0
  Ni  Ni412  1  0.66739733  0.55737067  0.04502057  1.0
  Ni  Ni413  1  0.66739733  0.89070400  0.04502057  1.0
  Ni  Ni414  1  0.27614783  0.27614783  0.07113236  1.0
  Ni  Ni415  1  0.27614783  0.60948117  0.07113236  1.0
  Ni  Ni416  1  0.27614783  0.94281450  0.07113236  1.0
  Ni  Ni417  1  0.60948117  0.27614783  0.07113236  1.0
  Ni  Ni418  1  0.60948117  0.60948117  0.07113236  1.0
  Ni  Ni419  1  0.60948117  0.94281450  0.07113236  1.0
  Ni  Ni420  1  0.94281450  0.27614783  0.07113236  1.0
  Ni  Ni421  1  0.94281450  0.60948117  0.07113236  1.0
  Ni  Ni422  1  0.94281450  0.94281450  0.07113236  1.0
  Ni  Ni423  1  0.10948117  0.10948117  0.14256093  1.0
  Ni  Ni424  1  0.10948117  0.44281450  0.14256093  1.0
  Ni  Ni425  1  0.10948117  0.77614783  0.14256093  1.0
  Ni  Ni426  1  0.44281450  0.10948117  0.14256093  1.0
  Ni  Ni427  1  0.44281450  0.44281450  0.14256093  1.0
  Ni  Ni428  1  0.44281450  0.77614783  0.14256093  1.0
  Ni  Ni429  1  0.77614783  0.10948117  0.14256093  1.0
  Ni  Ni430  1  0.77614783  0.44281450  0.14256093  1.0
  Ni  Ni431  1  0.77614783  0.77614783  0.14256093  1.0
  Ni  Ni432  1  0.22101350  0.11098683  0.13942750  1.0
  Ni  Ni433  1  0.22101350  0.44432017  0.13942750  1.0
  Ni  Ni434  1  0.22101350  0.77765350  0.13942750  1.0
  Ni  Ni435  1  0.55434683  0.11098683  0.13942750  1.0
  Ni  Ni436  1  0.55434683  0.44432017  0.13942750  1.0
  Ni  Ni437  1  0.55434683  0.77765350  0.13942750  1.0
  Ni  Ni438  1  0.88768017  0.11098683  0.13942750  1.0
  Ni  Ni439  1  0.88768017  0.44432017  0.13942750  1.0
  Ni  Ni440  1  0.88768017  0.77765350  0.13942750  1.0
  Ni  Ni441  1  0.05434683  0.27765350  0.06799893  1.0
  Ni  Ni442  1  0.05434683  0.61098683  0.06799893  1.0
  Ni  Ni443  1  0.05434683  0.94432017  0.06799893  1.0
  Ni  Ni444  1  0.38768017  0.27765350  0.06799893  1.0
  Ni  Ni445  1  0.38768017  0.61098683  0.06799893  1.0
  Ni  Ni446  1  0.38768017  0.94432017  0.06799893  1.0
  Ni  Ni447  1  0.72101350  0.27765350  0.06799893  1.0
  Ni  Ni448  1  0.72101350  0.61098683  0.06799893  1.0
  Ni  Ni449  1  0.72101350  0.94432017  0.06799893  1.0
  Ni  Ni450  1  0.33266683  0.10936017  0.09297036  1.0
  Ni  Ni451  1  0.33266683  0.44269350  0.09297036  1.0
  Ni  Ni452  1  0.33266683  0.77602683  0.09297036  1.0
  Ni  Ni453  1  0.66600017  0.10936017  0.09297036  1.0
  Ni  Ni454  1  0.66600017  0.44269350  0.09297036  1.0
  Ni  Ni455  1  0.66600017  0.77602683  0.09297036  1.0
  Ni  Ni456  1  0.99933350  0.10936017  0.09297036  1.0
  Ni  Ni457  1  0.99933350  0.44269350  0.09297036  1.0
  Ni  Ni458  1  0.99933350  0.77602683  0.09297036  1.0
  Ni  Ni459  1  0.16600017  0.27602683  0.02154179  1.0
  Ni  Ni460  1  0.16600017  0.60936017  0.02154179  1.0
  Ni  Ni461  1  0.16600017  0.94269350  0.02154179  1.0
  Ni  Ni462  1  0.49933350  0.27602683  0.02154179  1.0
  Ni  Ni463  1  0.49933350  0.60936017  0.02154179  1.0
  Ni  Ni464  1  0.49933350  0.94269350  0.02154179  1.0
  Ni  Ni465  1  0.83266683  0.27602683  0.02154179  1.0
  Ni  Ni466  1  0.83266683  0.60936017  0.02154179  1.0
  Ni  Ni467  1  0.83266683  0.94269350  0.02154179  1.0
  Ga  Ga468  1  0.33223717  0.10562717  0.28366621  1.0
  Ga  Ga469  1  0.33223717  0.43896050  0.28366621  1.0
  Ga  Ga470  1  0.33223717  0.77229383  0.28366621  1.0
  Ga  Ga471  1  0.66557050  0.10562717  0.28366621  1.0
  Ga  Ga472  1  0.66557050  0.43896050  0.28366621  1.0
  Ga  Ga473  1  0.66557050  0.77229383  0.28366621  1.0
  Ga  Ga474  1  0.99890383  0.10562717  0.28366621  1.0
  Ga  Ga475  1  0.99890383  0.43896050  0.28366621  1.0
  Ga  Ga476  1  0.99890383  0.77229383  0.28366621  1.0
  Ga  Ga477  1  0.16557050  0.27229383  0.21223764  1.0
  Ga  Ga478  1  0.16557050  0.60562717  0.21223764  1.0
  Ga  Ga479  1  0.16557050  0.93896050  0.21223764  1.0
  Ga  Ga480  1  0.49890383  0.27229383  0.21223764  1.0
  Ga  Ga481  1  0.49890383  0.60562717  0.21223764  1.0
  Ga  Ga482  1  0.49890383  0.93896050  0.21223764  1.0
  Ga  Ga483  1  0.83223717  0.27229383  0.21223764  1.0
  Ga  Ga484  1  0.83223717  0.60562717  0.21223764  1.0
  Ga  Ga485  1  0.83223717  0.93896050  0.21223764  1.0
  Ga  Ga486  1  0.28234367  0.28234367  0.25433900  1.0
  Ga  Ga487  1  0.28234367  0.61567700  0.25433900  1.0
  Ga  Ga488  1  0.28234367  0.94901033  0.25433900  1.0
  Ga  Ga489  1  0.61567700  0.28234367  0.25433900  1.0
  Ga  Ga490  1  0.61567700  0.61567700  0.25433900  1.0
  Ga  Ga491  1  0.61567700  0.94901033  0.25433900  1.0
  Ga  Ga492  1  0.94901033  0.28234367  0.25433900  1.0
  Ga  Ga493  1  0.94901033  0.61567700  0.25433900  1.0
  Ga  Ga494  1  0.94901033  0.94901033  0.25433900  1.0
  Ga  Ga495  1  0.11567700  0.11567700  0.18291043  1.0
  Ga  Ga496  1  0.11567700  0.44901033  0.18291043  1.0
  Ga  Ga497  1  0.11567700  0.78234367  0.18291043  1.0
  Ga  Ga498  1  0.44901033  0.11567700  0.18291043  1.0
  Ga  Ga499  1  0.44901033  0.44901033  0.18291043  1.0
  Ga  Ga500  1  0.44901033  0.78234367  0.18291043  1.0
  Ga  Ga501  1  0.78234367  0.11567700  0.18291043  1.0
  Ga  Ga502  1  0.78234367  0.44901033  0.18291043  1.0
  Ga  Ga503  1  0.78234367  0.78234367  0.18291043  1.0
  Ga  Ga504  1  0.21893217  0.11220883  0.18372693  1.0
  Ga  Ga505  1  0.21893217  0.44554217  0.18372693  1.0
  Ga  Ga506  1  0.21893217  0.77887550  0.18372693  1.0
  Ga  Ga507  1  0.55226550  0.11220883  0.18372693  1.0
  Ga  Ga508  1  0.55226550  0.44554217  0.18372693  1.0
  Ga  Ga509  1  0.55226550  0.77887550  0.18372693  1.0
  Ga  Ga510  1  0.88559883  0.11220883  0.18372693  1.0
  Ga  Ga511  1  0.88559883  0.44554217  0.18372693  1.0
  Ga  Ga512  1  0.88559883  0.77887550  0.18372693  1.0
  Ga  Ga513  1  0.05226550  0.27887550  0.25515550  1.0
  Ga  Ga514  1  0.05226550  0.61220883  0.25515550  1.0
  Ga  Ga515  1  0.05226550  0.94554217  0.25515550  1.0
  Ga  Ga516  1  0.38559883  0.27887550  0.25515550  1.0
  Ga  Ga517  1  0.38559883  0.61220883  0.25515550  1.0
  Ga  Ga518  1  0.38559883  0.94554217  0.25515550  1.0
  Ga  Ga519  1  0.71893217  0.27887550  0.25515550  1.0
  Ga  Ga520  1  0.71893217  0.61220883  0.25515550  1.0
  Ga  Ga521  1  0.71893217  0.94554217  0.25515550  1.0
  Ga  Ga522  1  0.16702933  0.04575267  0.21814529  1.0
  Ga  Ga523  1  0.16702933  0.37908600  0.21814529  1.0
  Ga  Ga524  1  0.16702933  0.71241933  0.21814529  1.0
  Ga  Ga525  1  0.50036267  0.04575267  0.21814529  1.0
  Ga  Ga526  1  0.50036267  0.37908600  0.21814529  1.0
  Ga  Ga527  1  0.50036267  0.71241933  0.21814529  1.0
  Ga  Ga528  1  0.83369600  0.04575267  0.21814529  1.0
  Ga  Ga529  1  0.83369600  0.37908600  0.21814529  1.0
  Ga  Ga530  1  0.83369600  0.71241933  0.21814529  1.0
  Ga  Ga531  1  0.00036267  0.21241933  0.14671671  1.0
  Ga  Ga532  1  0.00036267  0.54575267  0.14671671  1.0
  Ga  Ga533  1  0.00036267  0.87908600  0.14671671  1.0
  Ga  Ga534  1  0.33369600  0.21241933  0.14671671  1.0
  Ga  Ga535  1  0.33369600  0.54575267  0.14671671  1.0
  Ga  Ga536  1  0.33369600  0.87908600  0.14671671  1.0
  Ga  Ga537  1  0.66702933  0.21241933  0.14671671  1.0
  Ga  Ga538  1  0.66702933  0.54575267  0.14671671  1.0
  Ga  Ga539  1  0.66702933  0.87908600  0.14671671  1.0
  Ga  Ga540  1  0.21559583  0.00431917  0.18722207  1.0
  Ga  Ga541  1  0.21559583  0.33765250  0.18722207  1.0
  Ga  Ga542  1  0.21559583  0.67098583  0.18722207  1.0
  Ga  Ga543  1  0.54892917  0.00431917  0.18722207  1.0
  Ga  Ga544  1  0.54892917  0.33765250  0.18722207  1.0
  Ga  Ga545  1  0.54892917  0.67098583  0.18722207  1.0
  Ga  Ga546  1  0.88226250  0.00431917  0.18722207  1.0
  Ga  Ga547  1  0.88226250  0.33765250  0.18722207  1.0
  Ga  Ga548  1  0.88226250  0.67098583  0.18722207  1.0
  Ga  Ga549  1  0.04892917  0.17098583  0.25865064  1.0
  Ga  Ga550  1  0.04892917  0.50431917  0.25865064  1.0
  Ga  Ga551  1  0.04892917  0.83765250  0.25865064  1.0
  Ga  Ga552  1  0.38226250  0.17098583  0.25865064  1.0
  Ga  Ga553  1  0.38226250  0.50431917  0.25865064  1.0
  Ga  Ga554  1  0.38226250  0.83765250  0.25865064  1.0
  Ga  Ga555  1  0.71559583  0.17098583  0.25865064  1.0
  Ga  Ga556  1  0.71559583  0.50431917  0.25865064  1.0
  Ga  Ga557  1  0.71559583  0.83765250  0.25865064  1.0
  Ga  Ga558  1  0.28046867  0.15919200  0.26676214  1.0
  Ga  Ga559  1  0.28046867  0.49252533  0.26676214  1.0
  Ga  Ga560  1  0.28046867  0.82585867  0.26676214  1.0
  Ga  Ga561  1  0.61380200  0.15919200  0.26676214  1.0
  Ga  Ga562  1  0.61380200  0.49252533  0.26676214  1.0
  Ga  Ga563  1  0.61380200  0.82585867  0.26676214  1.0
  Ga  Ga564  1  0.94713533  0.15919200  0.26676214  1.0
  Ga  Ga565  1  0.94713533  0.49252533  0.26676214  1.0
  Ga  Ga566  1  0.94713533  0.82585867  0.26676214  1.0
  Ga  Ga567  1  0.11380200  0.32585867  0.19533357  1.0
  Ga  Ga568  1  0.11380200  0.65919200  0.19533357  1.0
  Ga  Ga569  1  0.11380200  0.99252533  0.19533357  1.0
  Ga  Ga570  1  0.44713533  0.32585867  0.19533357  1.0
  Ga  Ga571  1  0.44713533  0.65919200  0.19533357  1.0
  Ga  Ga572  1  0.44713533  0.99252533  0.19533357  1.0
  Ga  Ga573  1  0.78046867  0.32585867  0.19533357  1.0
  Ga  Ga574  1  0.78046867  0.65919200  0.19533357  1.0
  Ga  Ga575  1  0.78046867  0.99252533  0.19533357  1.0
  Ga  Ga576  1  0.21983033  0.00777367  0.27968000  1.0
  Ga  Ga577  1  0.21983033  0.34110700  0.27968000  1.0
  Ga  Ga578  1  0.21983033  0.67444033  0.27968000  1.0
  Ga  Ga579  1  0.55316367  0.00777367  0.27968000  1.0
  Ga  Ga580  1  0.55316367  0.34110700  0.27968000  1.0
  Ga  Ga581  1  0.55316367  0.67444033  0.27968000  1.0
  Ga  Ga582  1  0.88649700  0.00777367  0.27968000  1.0
  Ga  Ga583  1  0.88649700  0.34110700  0.27968000  1.0
  Ga  Ga584  1  0.88649700  0.67444033  0.27968000  1.0
  Ga  Ga585  1  0.05316367  0.17444033  0.20825143  1.0
  Ga  Ga586  1  0.05316367  0.50777367  0.20825143  1.0
  Ga  Ga587  1  0.05316367  0.84110700  0.20825143  1.0
  Ga  Ga588  1  0.38649700  0.17444033  0.20825143  1.0
  Ga  Ga589  1  0.38649700  0.50777367  0.20825143  1.0
  Ga  Ga590  1  0.38649700  0.84110700  0.20825143  1.0
  Ga  Ga591  1  0.71983033  0.17444033  0.20825143  1.0
  Ga  Ga592  1  0.71983033  0.50777367  0.20825143  1.0
  Ga  Ga593  1  0.71983033  0.84110700  0.20825143  1.0
  Ga  Ga594  1  0.27662417  0.15456750  0.17513993  1.0
  Ga  Ga595  1  0.27662417  0.48790083  0.17513993  1.0
  Ga  Ga596  1  0.27662417  0.82123417  0.17513993  1.0
  Ga  Ga597  1  0.60995750  0.15456750  0.17513993  1.0
  Ga  Ga598  1  0.60995750  0.48790083  0.17513993  1.0
  Ga  Ga599  1  0.60995750  0.82123417  0.17513993  1.0
  Ga  Ga600  1  0.94329083  0.15456750  0.17513993  1.0
  Ga  Ga601  1  0.94329083  0.48790083  0.17513993  1.0
  Ga  Ga602  1  0.94329083  0.82123417  0.17513993  1.0
  Ga  Ga603  1  0.10995750  0.32123417  0.24656850  1.0
  Ga  Ga604  1  0.10995750  0.65456750  0.24656850  1.0
  Ga  Ga605  1  0.10995750  0.98790083  0.24656850  1.0
  Ga  Ga606  1  0.44329083  0.32123417  0.24656850  1.0
  Ga  Ga607  1  0.44329083  0.65456750  0.24656850  1.0
  Ga  Ga608  1  0.44329083  0.98790083  0.24656850  1.0
  Ga  Ga609  1  0.77662417  0.32123417  0.24656850  1.0
  Ga  Ga610  1  0.77662417  0.65456750  0.24656850  1.0
  Ga  Ga611  1  0.77662417  0.98790083  0.24656850  1.0
  Ga  Ga612  1  0.27305767  0.06100100  0.15963457  1.0
  Ga  Ga613  1  0.27305767  0.39433433  0.15963457  1.0
  Ga  Ga614  1  0.27305767  0.72766767  0.15963457  1.0
  Ga  Ga615  1  0.60639100  0.06100100  0.15963457  1.0
  Ga  Ga616  1  0.60639100  0.39433433  0.15963457  1.0
  Ga  Ga617  1  0.60639100  0.72766767  0.15963457  1.0
  Ga  Ga618  1  0.93972433  0.06100100  0.15963457  1.0
  Ga  Ga619  1  0.93972433  0.39433433  0.15963457  1.0
  Ga  Ga620  1  0.93972433  0.72766767  0.15963457  1.0
  Ga  Ga621  1  0.10639100  0.22766767  0.23106314  1.0
  Ga  Ga622  1  0.10639100  0.56100100  0.23106314  1.0
  Ga  Ga623  1  0.10639100  0.89433433  0.23106314  1.0
  Ga  Ga624  1  0.43972433  0.22766767  0.23106314  1.0
  Ga  Ga625  1  0.43972433  0.56100100  0.23106314  1.0
  Ga  Ga626  1  0.43972433  0.89433433  0.23106314  1.0
  Ga  Ga627  1  0.77305767  0.22766767  0.23106314  1.0
  Ga  Ga628  1  0.77305767  0.56100100  0.23106314  1.0
  Ga  Ga629  1  0.77305767  0.89433433  0.23106314  1.0
  Ga  Ga630  1  0.28011867  0.17339533  0.20994971  1.0
  Ga  Ga631  1  0.28011867  0.50672867  0.20994971  1.0
  Ga  Ga632  1  0.28011867  0.84006200  0.20994971  1.0
  Ga  Ga633  1  0.61345200  0.17339533  0.20994971  1.0
  Ga  Ga634  1  0.61345200  0.50672867  0.20994971  1.0
  Ga  Ga635  1  0.61345200  0.84006200  0.20994971  1.0
  Ga  Ga636  1  0.94678533  0.17339533  0.20994971  1.0
  Ga  Ga637  1  0.94678533  0.50672867  0.20994971  1.0
  Ga  Ga638  1  0.94678533  0.84006200  0.20994971  1.0
  Ga  Ga639  1  0.11345200  0.00672867  0.28137829  1.0
  Ga  Ga640  1  0.11345200  0.34006200  0.28137829  1.0
  Ga  Ga641  1  0.11345200  0.67339533  0.28137829  1.0
  Ga  Ga642  1  0.44678533  0.00672867  0.28137829  1.0
  Ga  Ga643  1  0.44678533  0.34006200  0.28137829  1.0
  Ga  Ga644  1  0.44678533  0.67339533  0.28137829  1.0
  Ga  Ga645  1  0.78011867  0.00672867  0.28137829  1.0
  Ga  Ga646  1  0.78011867  0.34006200  0.28137829  1.0
  Ga  Ga647  1  0.78011867  0.67339533  0.28137829  1.0
  Ga  Ga648  1  0.22597550  0.22597550  0.23018121  1.0
  Ga  Ga649  1  0.22597550  0.55930883  0.23018121  1.0
  Ga  Ga650  1  0.22597550  0.89264217  0.23018121  1.0
  Ga  Ga651  1  0.55930883  0.22597550  0.23018121  1.0
  Ga  Ga652  1  0.55930883  0.55930883  0.23018121  1.0
  Ga  Ga653  1  0.55930883  0.89264217  0.23018121  1.0
  Ga  Ga654  1  0.89264217  0.22597550  0.23018121  1.0
  Ga  Ga655  1  0.89264217  0.55930883  0.23018121  1.0
  Ga  Ga656  1  0.89264217  0.89264217  0.23018121  1.0
  Ga  Ga657  1  0.05930883  0.05930883  0.15875264  1.0
  Ga  Ga658  1  0.05930883  0.39264217  0.15875264  1.0
  Ga  Ga659  1  0.05930883  0.72597550  0.15875264  1.0
  Ga  Ga660  1  0.39264217  0.05930883  0.15875264  1.0
  Ga  Ga661  1  0.39264217  0.39264217  0.15875264  1.0
  Ga  Ga662  1  0.39264217  0.72597550  0.15875264  1.0
  Ga  Ga663  1  0.72597550  0.05930883  0.15875264  1.0
  Ga  Ga664  1  0.72597550  0.39264217  0.15875264  1.0
  Ga  Ga665  1  0.72597550  0.72597550  0.15875264  1.0
  Ga  Ga666  1  0.22675700  0.00014700  0.23846043  1.0
  Ga  Ga667  1  0.22675700  0.33348033  0.23846043  1.0
  Ga  Ga668  1  0.22675700  0.66681367  0.23846043  1.0
  Ga  Ga669  1  0.56009033  0.00014700  0.23846043  1.0
  Ga  Ga670  1  0.56009033  0.33348033  0.23846043  1.0
  Ga  Ga671  1  0.56009033  0.66681367  0.23846043  1.0
  Ga  Ga672  1  0.89342367  0.00014700  0.23846043  1.0
  Ga  Ga673  1  0.89342367  0.33348033  0.23846043  1.0
  Ga  Ga674  1  0.89342367  0.66681367  0.23846043  1.0
  Ga  Ga675  1  0.06009033  0.16681367  0.16703186  1.0
  Ga  Ga676  1  0.06009033  0.50014700  0.16703186  1.0
  Ga  Ga677  1  0.06009033  0.83348033  0.16703186  1.0
  Ga  Ga678  1  0.39342367  0.16681367  0.16703186  1.0
  Ga  Ga679  1  0.39342367  0.50014700  0.16703186  1.0
  Ga  Ga680  1  0.39342367  0.83348033  0.16703186  1.0
  Ga  Ga681  1  0.72675700  0.16681367  0.16703186  1.0
  Ga  Ga682  1  0.72675700  0.50014700  0.16703186  1.0
  Ga  Ga683  1  0.72675700  0.83348033  0.16703186  1.0
  Ga  Ga684  1  0.16783533  0.16783533  0.17068129  1.0
  Ga  Ga685  1  0.16783533  0.50116867  0.17068129  1.0
  Ga  Ga686  1  0.16783533  0.83450200  0.17068129  1.0
  Ga  Ga687  1  0.50116867  0.16783533  0.17068129  1.0
  Ga  Ga688  1  0.50116867  0.50116867  0.17068129  1.0
  Ga  Ga689  1  0.50116867  0.83450200  0.17068129  1.0
  Ga  Ga690  1  0.83450200  0.16783533  0.17068129  1.0
  Ga  Ga691  1  0.83450200  0.50116867  0.17068129  1.0
  Ga  Ga692  1  0.83450200  0.83450200  0.17068129  1.0
  Ga  Ga693  1  0.00116867  0.00116867  0.24210986  1.0
  Ga  Ga694  1  0.00116867  0.33450200  0.24210986  1.0
  Ga  Ga695  1  0.00116867  0.66783533  0.24210986  1.0
  Ga  Ga696  1  0.33450200  0.00116867  0.24210986  1.0
  Ga  Ga697  1  0.33450200  0.33450200  0.24210986  1.0
  Ga  Ga698  1  0.33450200  0.66783533  0.24210986  1.0
  Ga  Ga699  1  0.66783533  0.00116867  0.24210986  1.0
  Ga  Ga700  1  0.66783533  0.33450200  0.24210986  1.0
  Ga  Ga701  1  0.66783533  0.66783533  0.24210986  1.0
  Ga  Ga702  1  0.32945150  0.24514917  0.21771536  1.0
  Ga  Ga703  1  0.32945150  0.57848250  0.21771536  1.0
  Ga  Ga704  1  0.32945150  0.91181583  0.21771536  1.0
  Ga  Ga705  1  0.66278483  0.24514917  0.21771536  1.0
  Ga  Ga706  1  0.66278483  0.57848250  0.21771536  1.0
  Ga  Ga707  1  0.66278483  0.91181583  0.21771536  1.0
  Ga  Ga708  1  0.99611817  0.24514917  0.21771536  1.0
  Ga  Ga709  1  0.99611817  0.57848250  0.21771536  1.0
  Ga  Ga710  1  0.99611817  0.91181583  0.21771536  1.0
  Ga  Ga711  1  0.16278483  0.07848250  0.14628679  1.0
  Ga  Ga712  1  0.16278483  0.41181583  0.14628679  1.0
  Ga  Ga713  1  0.16278483  0.74514917  0.14628679  1.0
  Ga  Ga714  1  0.49611817  0.07848250  0.14628679  1.0
  Ga  Ga715  1  0.49611817  0.41181583  0.14628679  1.0
  Ga  Ga716  1  0.49611817  0.74514917  0.14628679  1.0
  Ga  Ga717  1  0.82945150  0.07848250  0.14628679  1.0
  Ga  Ga718  1  0.82945150  0.41181583  0.14628679  1.0
  Ga  Ga719  1  0.82945150  0.74514917  0.14628679  1.0
  Ga  Ga720  1  0.28730033  0.03826933  0.27024857  1.0
  Ga  Ga721  1  0.28730033  0.37160267  0.27024857  1.0
  Ga  Ga722  1  0.28730033  0.70493600  0.27024857  1.0
  Ga  Ga723  1  0.62063367  0.03826933  0.27024857  1.0
  Ga  Ga724  1  0.62063367  0.37160267  0.27024857  1.0
  Ga  Ga725  1  0.62063367  0.70493600  0.27024857  1.0
  Ga  Ga726  1  0.95396700  0.03826933  0.27024857  1.0
  Ga  Ga727  1  0.95396700  0.37160267  0.27024857  1.0
  Ga  Ga728  1  0.95396700  0.70493600  0.27024857  1.0
  Ga  Ga729  1  0.12063367  0.20493600  0.19882000  1.0
  Ga  Ga730  1  0.12063367  0.53826933  0.19882000  1.0
  Ga  Ga731  1  0.12063367  0.87160267  0.19882000  1.0
  Ga  Ga732  1  0.45396700  0.20493600  0.19882000  1.0
  Ga  Ga733  1  0.45396700  0.53826933  0.19882000  1.0
  Ga  Ga734  1  0.45396700  0.87160267  0.19882000  1.0
  Ga  Ga735  1  0.78730033  0.20493600  0.19882000  1.0
  Ga  Ga736  1  0.78730033  0.53826933  0.19882000  1.0
  Ga  Ga737  1  0.78730033  0.87160267  0.19882000  1.0
  Ga  Ga738  1  0.21416367  0.21416367  0.19053629  1.0
  Ga  Ga739  1  0.21416367  0.54749700  0.19053629  1.0
  Ga  Ga740  1  0.21416367  0.88083033  0.19053629  1.0
  Ga  Ga741  1  0.54749700  0.21416367  0.19053629  1.0
  Ga  Ga742  1  0.54749700  0.54749700  0.19053629  1.0
  Ga  Ga743  1  0.54749700  0.88083033  0.19053629  1.0
  Ga  Ga744  1  0.88083033  0.21416367  0.19053629  1.0
  Ga  Ga745  1  0.88083033  0.54749700  0.19053629  1.0
  Ga  Ga746  1  0.88083033  0.88083033  0.19053629  1.0
  Ga  Ga747  1  0.04749700  0.04749700  0.26196486  1.0
  Ga  Ga748  1  0.04749700  0.38083033  0.26196486  1.0
  Ga  Ga749  1  0.04749700  0.71416367  0.26196486  1.0
  Ga  Ga750  1  0.38083033  0.04749700  0.26196486  1.0
  Ga  Ga751  1  0.38083033  0.38083033  0.26196486  1.0
  Ga  Ga752  1  0.38083033  0.71416367  0.26196486  1.0
  Ga  Ga753  1  0.71416367  0.04749700  0.26196486  1.0
  Ga  Ga754  1  0.71416367  0.38083033  0.26196486  1.0
  Ga  Ga755  1  0.71416367  0.71416367  0.26196486  1.0
  Ga  Ga756  1  0.33286983  0.33286983  0.18686479  1.0
  Ga  Ga757  1  0.33286983  0.66620317  0.18686479  1.0
  Ga  Ga758  1  0.33286983  0.99953650  0.18686479  1.0
  Ga  Ga759  1  0.66620317  0.33286983  0.18686479  1.0
  Ga  Ga760  1  0.66620317  0.66620317  0.18686479  1.0
  Ga  Ga761  1  0.66620317  0.99953650  0.18686479  1.0
  Ga  Ga762  1  0.99953650  0.33286983  0.18686479  1.0
  Ga  Ga763  1  0.99953650  0.66620317  0.18686479  1.0
  Ga  Ga764  1  0.99953650  0.99953650  0.18686479  1.0
  Ga  Ga765  1  0.16620317  0.16620317  0.25829336  1.0
  Ga  Ga766  1  0.16620317  0.49953650  0.25829336  1.0
  Ga  Ga767  1  0.16620317  0.83286983  0.25829336  1.0
  Ga  Ga768  1  0.49953650  0.16620317  0.25829336  1.0
  Ga  Ga769  1  0.49953650  0.49953650  0.25829336  1.0
  Ga  Ga770  1  0.49953650  0.83286983  0.25829336  1.0
  Ga  Ga771  1  0.83286983  0.16620317  0.25829336  1.0
  Ga  Ga772  1  0.83286983  0.49953650  0.25829336  1.0
  Ga  Ga773  1  0.83286983  0.83286983  0.25829336  1.0
  Ga  Ga774  1  0.16691950  0.27236183  0.26404679  1.0
  Ga  Ga775  1  0.16691950  0.60569517  0.26404679  1.0
  Ga  Ga776  1  0.16691950  0.93902850  0.26404679  1.0
  Ga  Ga777  1  0.50025283  0.27236183  0.26404679  1.0
  Ga  Ga778  1  0.50025283  0.60569517  0.26404679  1.0
  Ga  Ga779  1  0.50025283  0.93902850  0.26404679  1.0
  Ga  Ga780  1  0.83358617  0.27236183  0.26404679  1.0
  Ga  Ga781  1  0.83358617  0.60569517  0.26404679  1.0
  Ga  Ga782  1  0.83358617  0.93902850  0.26404679  1.0
  Ga  Ga783  1  0.00025283  0.10569517  0.19261821  1.0
  Ga  Ga784  1  0.00025283  0.43902850  0.19261821  1.0
  Ga  Ga785  1  0.00025283  0.77236183  0.19261821  1.0
  Ga  Ga786  1  0.33358617  0.10569517  0.19261821  1.0
  Ga  Ga787  1  0.33358617  0.43902850  0.19261821  1.0
  Ga  Ga788  1  0.33358617  0.77236183  0.19261821  1.0
  Ga  Ga789  1  0.66691950  0.10569517  0.19261821  1.0
  Ga  Ga790  1  0.66691950  0.43902850  0.19261821  1.0
  Ga  Ga791  1  0.66691950  0.77236183  0.19261821  1.0
  Ga  Ga792  1  0.21964067  0.11419833  0.23416357  1.0
  Ga  Ga793  1  0.21964067  0.44753167  0.23416357  1.0
  Ga  Ga794  1  0.21964067  0.78086500  0.23416357  1.0
  Ga  Ga795  1  0.55297400  0.11419833  0.23416357  1.0
  Ga  Ga796  1  0.55297400  0.44753167  0.23416357  1.0
  Ga  Ga797  1  0.55297400  0.78086500  0.23416357  1.0
  Ga  Ga798  1  0.88630733  0.11419833  0.23416357  1.0
  Ga  Ga799  1  0.88630733  0.44753167  0.23416357  1.0
  Ga  Ga800  1  0.88630733  0.78086500  0.23416357  1.0
  Ga  Ga801  1  0.05297400  0.28086500  0.16273500  1.0
  Ga  Ga802  1  0.05297400  0.61419833  0.16273500  1.0
  Ga  Ga803  1  0.05297400  0.94753167  0.16273500  1.0
  Ga  Ga804  1  0.38630733  0.28086500  0.16273500  1.0
  Ga  Ga805  1  0.38630733  0.61419833  0.16273500  1.0
  Ga  Ga806  1  0.38630733  0.94753167  0.16273500  1.0
  Ga  Ga807  1  0.71964067  0.28086500  0.16273500  1.0
  Ga  Ga808  1  0.71964067  0.61419833  0.16273500  1.0
  Ga  Ga809  1  0.71964067  0.94753167  0.16273500  1.0
  Ga  Ga810  1  0.27943233  0.27943233  0.16396300  1.0
  Ga  Ga811  1  0.27943233  0.61276567  0.16396300  1.0
  Ga  Ga812  1  0.27943233  0.94609900  0.16396300  1.0
  Ga  Ga813  1  0.61276567  0.27943233  0.16396300  1.0
  Ga  Ga814  1  0.61276567  0.61276567  0.16396300  1.0
  Ga  Ga815  1  0.61276567  0.94609900  0.16396300  1.0
  Ga  Ga816  1  0.94609900  0.27943233  0.16396300  1.0
  Ga  Ga817  1  0.94609900  0.61276567  0.16396300  1.0
  Ga  Ga818  1  0.94609900  0.94609900  0.16396300  1.0
  Ga  Ga819  1  0.11276567  0.11276567  0.23539157  1.0
  Ga  Ga820  1  0.11276567  0.44609900  0.23539157  1.0
  Ga  Ga821  1  0.11276567  0.77943233  0.23539157  1.0
  Ga  Ga822  1  0.44609900  0.11276567  0.23539157  1.0
  Ga  Ga823  1  0.44609900  0.44609900  0.23539157  1.0
  Ga  Ga824  1  0.44609900  0.77943233  0.23539157  1.0
  Ga  Ga825  1  0.77943233  0.11276567  0.23539157  1.0
  Ga  Ga826  1  0.77943233  0.44609900  0.23539157  1.0
  Ga  Ga827  1  0.77943233  0.77943233  0.23539157  1.0
  Ga  Ga828  1  0.22714050  0.22714050  0.27699893  1.0
  Ga  Ga829  1  0.22714050  0.56047383  0.27699893  1.0
  Ga  Ga830  1  0.22714050  0.89380717  0.27699893  1.0
  Ga  Ga831  1  0.56047383  0.22714050  0.27699893  1.0
  Ga  Ga832  1  0.56047383  0.56047383  0.27699893  1.0
  Ga  Ga833  1  0.56047383  0.89380717  0.27699893  1.0
  Ga  Ga834  1  0.89380717  0.22714050  0.27699893  1.0
  Ga  Ga835  1  0.89380717  0.56047383  0.27699893  1.0
  Ga  Ga836  1  0.89380717  0.89380717  0.27699893  1.0
  Ga  Ga837  1  0.06047383  0.06047383  0.20557036  1.0
  Ga  Ga838  1  0.06047383  0.39380717  0.20557036  1.0
  Ga  Ga839  1  0.06047383  0.72714050  0.20557036  1.0
  Ga  Ga840  1  0.39380717  0.06047383  0.20557036  1.0
  Ga  Ga841  1  0.39380717  0.39380717  0.20557036  1.0
  Ga  Ga842  1  0.39380717  0.72714050  0.20557036  1.0
  Ga  Ga843  1  0.72714050  0.06047383  0.20557036  1.0
  Ga  Ga844  1  0.72714050  0.39380717  0.20557036  1.0
  Ga  Ga845  1  0.72714050  0.72714050  0.20557036  1.0
  Ni  Ni846  1  0.27905067  0.05574400  0.21284914  1.0
  Ni  Ni847  1  0.27905067  0.38907733  0.21284914  1.0
  Ni  Ni848  1  0.27905067  0.72241067  0.21284914  1.0
  Ni  Ni849  1  0.61238400  0.05574400  0.21284914  1.0
  Ni  Ni850  1  0.61238400  0.38907733  0.21284914  1.0
  Ni  Ni851  1  0.61238400  0.72241067  0.21284914  1.0
  Ni  Ni852  1  0.94571733  0.05574400  0.21284914  1.0
  Ni  Ni853  1  0.94571733  0.38907733  0.21284914  1.0
  Ni  Ni854  1  0.94571733  0.72241067  0.21284914  1.0
  Ni  Ni855  1  0.11238400  0.22241067  0.28427771  1.0
  Ni  Ni856  1  0.11238400  0.55574400  0.28427771  1.0
  Ni  Ni857  1  0.11238400  0.88907733  0.28427771  1.0
  Ni  Ni858  1  0.44571733  0.22241067  0.28427771  1.0
  Ni  Ni859  1  0.44571733  0.55574400  0.28427771  1.0
  Ni  Ni860  1  0.44571733  0.88907733  0.28427771  1.0
  Ni  Ni861  1  0.77905067  0.22241067  0.28427771  1.0
  Ni  Ni862  1  0.77905067  0.55574400  0.28427771  1.0
  Ni  Ni863  1  0.77905067  0.88907733  0.28427771  1.0
  Ni  Ni864  1  0.16739733  0.05737067  0.25930629  1.0
  Ni  Ni865  1  0.16739733  0.39070400  0.25930629  1.0
  Ni  Ni866  1  0.16739733  0.72403733  0.25930629  1.0
  Ni  Ni867  1  0.50073067  0.05737067  0.25930629  1.0
  Ni  Ni868  1  0.50073067  0.39070400  0.25930629  1.0
  Ni  Ni869  1  0.50073067  0.72403733  0.25930629  1.0
  Ni  Ni870  1  0.83406400  0.05737067  0.25930629  1.0
  Ni  Ni871  1  0.83406400  0.39070400  0.25930629  1.0
  Ni  Ni872  1  0.83406400  0.72403733  0.25930629  1.0
  Ni  Ni873  1  0.00073067  0.22403733  0.18787771  1.0
  Ni  Ni874  1  0.00073067  0.55737067  0.18787771  1.0
  Ni  Ni875  1  0.00073067  0.89070400  0.18787771  1.0
  Ni  Ni876  1  0.33406400  0.22403733  0.18787771  1.0
  Ni  Ni877  1  0.33406400  0.55737067  0.18787771  1.0
  Ni  Ni878  1  0.33406400  0.89070400  0.18787771  1.0
  Ni  Ni879  1  0.66739733  0.22403733  0.18787771  1.0
  Ni  Ni880  1  0.66739733  0.55737067  0.18787771  1.0
  Ni  Ni881  1  0.66739733  0.89070400  0.18787771  1.0
  Ni  Ni882  1  0.27614783  0.27614783  0.21398950  1.0
  Ni  Ni883  1  0.27614783  0.60948117  0.21398950  1.0
  Ni  Ni884  1  0.27614783  0.94281450  0.21398950  1.0
  Ni  Ni885  1  0.60948117  0.27614783  0.21398950  1.0
  Ni  Ni886  1  0.60948117  0.60948117  0.21398950  1.0
  Ni  Ni887  1  0.60948117  0.94281450  0.21398950  1.0
  Ni  Ni888  1  0.94281450  0.27614783  0.21398950  1.0
  Ni  Ni889  1  0.94281450  0.60948117  0.21398950  1.0
  Ni  Ni890  1  0.94281450  0.94281450  0.21398950  1.0
  Ni  Ni891  1  0.10948117  0.10948117  0.28541807  1.0
  Ni  Ni892  1  0.10948117  0.44281450  0.28541807  1.0
  Ni  Ni893  1  0.10948117  0.77614783  0.28541807  1.0
  Ni  Ni894  1  0.44281450  0.10948117  0.28541807  1.0
  Ni  Ni895  1  0.44281450  0.44281450  0.28541807  1.0
  Ni  Ni896  1  0.44281450  0.77614783  0.28541807  1.0
  Ni  Ni897  1  0.77614783  0.10948117  0.28541807  1.0
  Ni  Ni898  1  0.77614783  0.44281450  0.28541807  1.0
  Ni  Ni899  1  0.77614783  0.77614783  0.28541807  1.0
  Ni  Ni900  1  0.22101350  0.11098683  0.28228464  1.0
  Ni  Ni901  1  0.22101350  0.44432017  0.28228464  1.0
  Ni  Ni902  1  0.22101350  0.77765350  0.28228464  1.0
  Ni  Ni903  1  0.55434683  0.11098683  0.28228464  1.0
  Ni  Ni904  1  0.55434683  0.44432017  0.28228464  1.0
  Ni  Ni905  1  0.55434683  0.77765350  0.28228464  1.0
  Ni  Ni906  1  0.88768017  0.11098683  0.28228464  1.0
  Ni  Ni907  1  0.88768017  0.44432017  0.28228464  1.0
  Ni  Ni908  1  0.88768017  0.77765350  0.28228464  1.0
  Ni  Ni909  1  0.05434683  0.27765350  0.21085607  1.0
  Ni  Ni910  1  0.05434683  0.61098683  0.21085607  1.0
  Ni  Ni911  1  0.05434683  0.94432017  0.21085607  1.0
  Ni  Ni912  1  0.38768017  0.27765350  0.21085607  1.0
  Ni  Ni913  1  0.38768017  0.61098683  0.21085607  1.0
  Ni  Ni914  1  0.38768017  0.94432017  0.21085607  1.0
  Ni  Ni915  1  0.72101350  0.27765350  0.21085607  1.0
  Ni  Ni916  1  0.72101350  0.61098683  0.21085607  1.0
  Ni  Ni917  1  0.72101350  0.94432017  0.21085607  1.0
  Ni  Ni918  1  0.33266683  0.10936017  0.23582750  1.0
  Ni  Ni919  1  0.33266683  0.44269350  0.23582750  1.0
  Ni  Ni920  1  0.33266683  0.77602683  0.23582750  1.0
  Ni  Ni921  1  0.66600017  0.10936017  0.23582750  1.0
  Ni  Ni922  1  0.66600017  0.44269350  0.23582750  1.0
  Ni  Ni923  1  0.66600017  0.77602683  0.23582750  1.0
  Ni  Ni924  1  0.99933350  0.10936017  0.23582750  1.0
  Ni  Ni925  1  0.99933350  0.44269350  0.23582750  1.0
  Ni  Ni926  1  0.99933350  0.77602683  0.23582750  1.0
  Ni  Ni927  1  0.16600017  0.27602683  0.16439893  1.0
  Ni  Ni928  1  0.16600017  0.60936017  0.16439893  1.0
  Ni  Ni929  1  0.16600017  0.94269350  0.16439893  1.0
  Ni  Ni930  1  0.49933350  0.27602683  0.16439893  1.0
  Ni  Ni931  1  0.49933350  0.60936017  0.16439893  1.0
  Ni  Ni932  1  0.49933350  0.94269350  0.16439893  1.0
  Ni  Ni933  1  0.83266683  0.27602683  0.16439893  1.0
  Ni  Ni934  1  0.83266683  0.60936017  0.16439893  1.0
  Ni  Ni935  1  0.83266683  0.94269350  0.16439893  1.0
  Ga  Ga936  1  0.33223717  0.10562717  0.42652336  1.0
  Ga  Ga937  1  0.33223717  0.43896050  0.42652336  1.0
  Ga  Ga938  1  0.33223717  0.77229383  0.42652336  1.0
  Ga  Ga939  1  0.66557050  0.10562717  0.42652336  1.0
  Ga  Ga940  1  0.66557050  0.43896050  0.42652336  1.0
  Ga  Ga941  1  0.66557050  0.77229383  0.42652336  1.0
  Ga  Ga942  1  0.99890383  0.10562717  0.42652336  1.0
  Ga  Ga943  1  0.99890383  0.43896050  0.42652336  1.0
  Ga  Ga944  1  0.99890383  0.77229383  0.42652336  1.0
  Ga  Ga945  1  0.16557050  0.27229383  0.35509479  1.0
  Ga  Ga946  1  0.16557050  0.60562717  0.35509479  1.0
  Ga  Ga947  1  0.16557050  0.93896050  0.35509479  1.0
  Ga  Ga948  1  0.49890383  0.27229383  0.35509479  1.0
  Ga  Ga949  1  0.49890383  0.60562717  0.35509479  1.0
  Ga  Ga950  1  0.49890383  0.93896050  0.35509479  1.0
  Ga  Ga951  1  0.83223717  0.27229383  0.35509479  1.0
  Ga  Ga952  1  0.83223717  0.60562717  0.35509479  1.0
  Ga  Ga953  1  0.83223717  0.93896050  0.35509479  1.0
  Ga  Ga954  1  0.28234367  0.28234367  0.39719614  1.0
  Ga  Ga955  1  0.28234367  0.61567700  0.39719614  1.0
  Ga  Ga956  1  0.28234367  0.94901033  0.39719614  1.0
  Ga  Ga957  1  0.61567700  0.28234367  0.39719614  1.0
  Ga  Ga958  1  0.61567700  0.61567700  0.39719614  1.0
  Ga  Ga959  1  0.61567700  0.94901033  0.39719614  1.0
  Ga  Ga960  1  0.94901033  0.28234367  0.39719614  1.0
  Ga  Ga961  1  0.94901033  0.61567700  0.39719614  1.0
  Ga  Ga962  1  0.94901033  0.94901033  0.39719614  1.0
  Ga  Ga963  1  0.11567700  0.11567700  0.32576757  1.0
  Ga  Ga964  1  0.11567700  0.44901033  0.32576757  1.0
  Ga  Ga965  1  0.11567700  0.78234367  0.32576757  1.0
  Ga  Ga966  1  0.44901033  0.11567700  0.32576757  1.0
  Ga  Ga967  1  0.44901033  0.44901033  0.32576757  1.0
  Ga  Ga968  1  0.44901033  0.78234367  0.32576757  1.0
  Ga  Ga969  1  0.78234367  0.11567700  0.32576757  1.0
  Ga  Ga970  1  0.78234367  0.44901033  0.32576757  1.0
  Ga  Ga971  1  0.78234367  0.78234367  0.32576757  1.0
  Ga  Ga972  1  0.21893217  0.11220883  0.32658407  1.0
  Ga  Ga973  1  0.21893217  0.44554217  0.32658407  1.0
  Ga  Ga974  1  0.21893217  0.77887550  0.32658407  1.0
  Ga  Ga975  1  0.55226550  0.11220883  0.32658407  1.0
  Ga  Ga976  1  0.55226550  0.44554217  0.32658407  1.0
  Ga  Ga977  1  0.55226550  0.77887550  0.32658407  1.0
  Ga  Ga978  1  0.88559883  0.11220883  0.32658407  1.0
  Ga  Ga979  1  0.88559883  0.44554217  0.32658407  1.0
  Ga  Ga980  1  0.88559883  0.77887550  0.32658407  1.0
  Ga  Ga981  1  0.05226550  0.27887550  0.39801264  1.0
  Ga  Ga982  1  0.05226550  0.61220883  0.39801264  1.0
  Ga  Ga983  1  0.05226550  0.94554217  0.39801264  1.0
  Ga  Ga984  1  0.38559883  0.27887550  0.39801264  1.0
  Ga  Ga985  1  0.38559883  0.61220883  0.39801264  1.0
  Ga  Ga986  1  0.38559883  0.94554217  0.39801264  1.0
  Ga  Ga987  1  0.71893217  0.27887550  0.39801264  1.0
  Ga  Ga988  1  0.71893217  0.61220883  0.39801264  1.0
  Ga  Ga989  1  0.71893217  0.94554217  0.39801264  1.0
  Ga  Ga990  1  0.16702933  0.04575267  0.36100243  1.0
  Ga  Ga991  1  0.16702933  0.37908600  0.36100243  1.0
  Ga  Ga992  1  0.16702933  0.71241933  0.36100243  1.0
  Ga  Ga993  1  0.50036267  0.04575267  0.36100243  1.0
  Ga  Ga994  1  0.50036267  0.37908600  0.36100243  1.0
  Ga  Ga995  1  0.50036267  0.71241933  0.36100243  1.0
  Ga  Ga996  1  0.83369600  0.04575267  0.36100243  1.0
  Ga  Ga997  1  0.83369600  0.37908600  0.36100243  1.0
  Ga  Ga998  1  0.83369600  0.71241933  0.36100243  1.0
  Ga  Ga999  1  0.00036267  0.21241933  0.28957386  1.0
  Ga  Ga1000  1  0.00036267  0.54575267  0.28957386  1.0
  Ga  Ga1001  1  0.00036267  0.87908600  0.28957386  1.0
  Ga  Ga1002  1  0.33369600  0.21241933  0.28957386  1.0
  Ga  Ga1003  1  0.33369600  0.54575267  0.28957386  1.0
  Ga  Ga1004  1  0.33369600  0.87908600  0.28957386  1.0
  Ga  Ga1005  1  0.66702933  0.21241933  0.28957386  1.0
  Ga  Ga1006  1  0.66702933  0.54575267  0.28957386  1.0
  Ga  Ga1007  1  0.66702933  0.87908600  0.28957386  1.0
  Ga  Ga1008  1  0.21559583  0.00431917  0.33007921  1.0
  Ga  Ga1009  1  0.21559583  0.33765250  0.33007921  1.0
  Ga  Ga1010  1  0.21559583  0.67098583  0.33007921  1.0
  Ga  Ga1011  1  0.54892917  0.00431917  0.33007921  1.0
  Ga  Ga1012  1  0.54892917  0.33765250  0.33007921  1.0
  Ga  Ga1013  1  0.54892917  0.67098583  0.33007921  1.0
  Ga  Ga1014  1  0.88226250  0.00431917  0.33007921  1.0
  Ga  Ga1015  1  0.88226250  0.33765250  0.33007921  1.0
  Ga  Ga1016  1  0.88226250  0.67098583  0.33007921  1.0
  Ga  Ga1017  1  0.04892917  0.17098583  0.40150779  1.0
  Ga  Ga1018  1  0.04892917  0.50431917  0.40150779  1.0
  Ga  Ga1019  1  0.04892917  0.83765250  0.40150779  1.0
  Ga  Ga1020  1  0.38226250  0.17098583  0.40150779  1.0
  Ga  Ga1021  1  0.38226250  0.50431917  0.40150779  1.0
  Ga  Ga1022  1  0.38226250  0.83765250  0.40150779  1.0
  Ga  Ga1023  1  0.71559583  0.17098583  0.40150779  1.0
  Ga  Ga1024  1  0.71559583  0.50431917  0.40150779  1.0
  Ga  Ga1025  1  0.71559583  0.83765250  0.40150779  1.0
  Ga  Ga1026  1  0.28046867  0.15919200  0.40961929  1.0
  Ga  Ga1027  1  0.28046867  0.49252533  0.40961929  1.0
  Ga  Ga1028  1  0.28046867  0.82585867  0.40961929  1.0
  Ga  Ga1029  1  0.61380200  0.15919200  0.40961929  1.0
  Ga  Ga1030  1  0.61380200  0.49252533  0.40961929  1.0
  Ga  Ga1031  1  0.61380200  0.82585867  0.40961929  1.0
  Ga  Ga1032  1  0.94713533  0.15919200  0.40961929  1.0
  Ga  Ga1033  1  0.94713533  0.49252533  0.40961929  1.0
  Ga  Ga1034  1  0.94713533  0.82585867  0.40961929  1.0
  Ga  Ga1035  1  0.11380200  0.32585867  0.33819071  1.0
  Ga  Ga1036  1  0.11380200  0.65919200  0.33819071  1.0
  Ga  Ga1037  1  0.11380200  0.99252533  0.33819071  1.0
  Ga  Ga1038  1  0.44713533  0.32585867  0.33819071  1.0
  Ga  Ga1039  1  0.44713533  0.65919200  0.33819071  1.0
  Ga  Ga1040  1  0.44713533  0.99252533  0.33819071  1.0
  Ga  Ga1041  1  0.78046867  0.32585867  0.33819071  1.0
  Ga  Ga1042  1  0.78046867  0.65919200  0.33819071  1.0
  Ga  Ga1043  1  0.78046867  0.99252533  0.33819071  1.0
  Ga  Ga1044  1  0.21983033  0.00777367  0.42253714  1.0
  Ga  Ga1045  1  0.21983033  0.34110700  0.42253714  1.0
  Ga  Ga1046  1  0.21983033  0.67444033  0.42253714  1.0
  Ga  Ga1047  1  0.55316367  0.00777367  0.42253714  1.0
  Ga  Ga1048  1  0.55316367  0.34110700  0.42253714  1.0
  Ga  Ga1049  1  0.55316367  0.67444033  0.42253714  1.0
  Ga  Ga1050  1  0.88649700  0.00777367  0.42253714  1.0
  Ga  Ga1051  1  0.88649700  0.34110700  0.42253714  1.0
  Ga  Ga1052  1  0.88649700  0.67444033  0.42253714  1.0
  Ga  Ga1053  1  0.05316367  0.17444033  0.35110857  1.0
  Ga  Ga1054  1  0.05316367  0.50777367  0.35110857  1.0
  Ga  Ga1055  1  0.05316367  0.84110700  0.35110857  1.0
  Ga  Ga1056  1  0.38649700  0.17444033  0.35110857  1.0
  Ga  Ga1057  1  0.38649700  0.50777367  0.35110857  1.0
  Ga  Ga1058  1  0.38649700  0.84110700  0.35110857  1.0
  Ga  Ga1059  1  0.71983033  0.17444033  0.35110857  1.0
  Ga  Ga1060  1  0.71983033  0.50777367  0.35110857  1.0
  Ga  Ga1061  1  0.71983033  0.84110700  0.35110857  1.0
  Ga  Ga1062  1  0.27662417  0.15456750  0.31799707  1.0
  Ga  Ga1063  1  0.27662417  0.48790083  0.31799707  1.0
  Ga  Ga1064  1  0.27662417  0.82123417  0.31799707  1.0
  Ga  Ga1065  1  0.60995750  0.15456750  0.31799707  1.0
  Ga  Ga1066  1  0.60995750  0.48790083  0.31799707  1.0
  Ga  Ga1067  1  0.60995750  0.82123417  0.31799707  1.0
  Ga  Ga1068  1  0.94329083  0.15456750  0.31799707  1.0
  Ga  Ga1069  1  0.94329083  0.48790083  0.31799707  1.0
  Ga  Ga1070  1  0.94329083  0.82123417  0.31799707  1.0
  Ga  Ga1071  1  0.10995750  0.32123417  0.38942564  1.0
  Ga  Ga1072  1  0.10995750  0.65456750  0.38942564  1.0
  Ga  Ga1073  1  0.10995750  0.98790083  0.38942564  1.0
  Ga  Ga1074  1  0.44329083  0.32123417  0.38942564  1.0
  Ga  Ga1075  1  0.44329083  0.65456750  0.38942564  1.0
  Ga  Ga1076  1  0.44329083  0.98790083  0.38942564  1.0
  Ga  Ga1077  1  0.77662417  0.32123417  0.38942564  1.0
  Ga  Ga1078  1  0.77662417  0.65456750  0.38942564  1.0
  Ga  Ga1079  1  0.77662417  0.98790083  0.38942564  1.0
  Ga  Ga1080  1  0.27305767  0.06100100  0.30249171  1.0
  Ga  Ga1081  1  0.27305767  0.39433433  0.30249171  1.0
  Ga  Ga1082  1  0.27305767  0.72766767  0.30249171  1.0
  Ga  Ga1083  1  0.60639100  0.06100100  0.30249171  1.0
  Ga  Ga1084  1  0.60639100  0.39433433  0.30249171  1.0
  Ga  Ga1085  1  0.60639100  0.72766767  0.30249171  1.0
  Ga  Ga1086  1  0.93972433  0.06100100  0.30249171  1.0
  Ga  Ga1087  1  0.93972433  0.39433433  0.30249171  1.0
  Ga  Ga1088  1  0.93972433  0.72766767  0.30249171  1.0
  Ga  Ga1089  1  0.10639100  0.22766767  0.37392029  1.0
  Ga  Ga1090  1  0.10639100  0.56100100  0.37392029  1.0
  Ga  Ga1091  1  0.10639100  0.89433433  0.37392029  1.0
  Ga  Ga1092  1  0.43972433  0.22766767  0.37392029  1.0
  Ga  Ga1093  1  0.43972433  0.56100100  0.37392029  1.0
  Ga  Ga1094  1  0.43972433  0.89433433  0.37392029  1.0
  Ga  Ga1095  1  0.77305767  0.22766767  0.37392029  1.0
  Ga  Ga1096  1  0.77305767  0.56100100  0.37392029  1.0
  Ga  Ga1097  1  0.77305767  0.89433433  0.37392029  1.0
  Ga  Ga1098  1  0.28011867  0.17339533  0.35280686  1.0
  Ga  Ga1099  1  0.28011867  0.50672867  0.35280686  1.0
  Ga  Ga1100  1  0.28011867  0.84006200  0.35280686  1.0
  Ga  Ga1101  1  0.61345200  0.17339533  0.35280686  1.0
  Ga  Ga1102  1  0.61345200  0.50672867  0.35280686  1.0
  Ga  Ga1103  1  0.61345200  0.84006200  0.35280686  1.0
  Ga  Ga1104  1  0.94678533  0.17339533  0.35280686  1.0
  Ga  Ga1105  1  0.94678533  0.50672867  0.35280686  1.0
  Ga  Ga1106  1  0.94678533  0.84006200  0.35280686  1.0
  Ga  Ga1107  1  0.11345200  0.00672867  0.42423543  1.0
  Ga  Ga1108  1  0.11345200  0.34006200  0.42423543  1.0
  Ga  Ga1109  1  0.11345200  0.67339533  0.42423543  1.0
  Ga  Ga1110  1  0.44678533  0.00672867  0.42423543  1.0
  Ga  Ga1111  1  0.44678533  0.34006200  0.42423543  1.0
  Ga  Ga1112  1  0.44678533  0.67339533  0.42423543  1.0
  Ga  Ga1113  1  0.78011867  0.00672867  0.42423543  1.0
  Ga  Ga1114  1  0.78011867  0.34006200  0.42423543  1.0
  Ga  Ga1115  1  0.78011867  0.67339533  0.42423543  1.0
  Ga  Ga1116  1  0.22597550  0.22597550  0.37303836  1.0
  Ga  Ga1117  1  0.22597550  0.55930883  0.37303836  1.0
  Ga  Ga1118  1  0.22597550  0.89264217  0.37303836  1.0
  Ga  Ga1119  1  0.55930883  0.22597550  0.37303836  1.0
  Ga  Ga1120  1  0.55930883  0.55930883  0.37303836  1.0
  Ga  Ga1121  1  0.55930883  0.89264217  0.37303836  1.0
  Ga  Ga1122  1  0.89264217  0.22597550  0.37303836  1.0
  Ga  Ga1123  1  0.89264217  0.55930883  0.37303836  1.0
  Ga  Ga1124  1  0.89264217  0.89264217  0.37303836  1.0
  Ga  Ga1125  1  0.05930883  0.05930883  0.30160979  1.0
  Ga  Ga1126  1  0.05930883  0.39264217  0.30160979  1.0
  Ga  Ga1127  1  0.05930883  0.72597550  0.30160979  1.0
  Ga  Ga1128  1  0.39264217  0.05930883  0.30160979  1.0
  Ga  Ga1129  1  0.39264217  0.39264217  0.30160979  1.0
  Ga  Ga1130  1  0.39264217  0.72597550  0.30160979  1.0
  Ga  Ga1131  1  0.72597550  0.05930883  0.30160979  1.0
  Ga  Ga1132  1  0.72597550  0.39264217  0.30160979  1.0
  Ga  Ga1133  1  0.72597550  0.72597550  0.30160979  1.0
  Ga  Ga1134  1  0.22675700  0.00014700  0.38131757  1.0
  Ga  Ga1135  1  0.22675700  0.33348033  0.38131757  1.0
  Ga  Ga1136  1  0.22675700  0.66681367  0.38131757  1.0
  Ga  Ga1137  1  0.56009033  0.00014700  0.38131757  1.0
  Ga  Ga1138  1  0.56009033  0.33348033  0.38131757  1.0
  Ga  Ga1139  1  0.56009033  0.66681367  0.38131757  1.0
  Ga  Ga1140  1  0.89342367  0.00014700  0.38131757  1.0
  Ga  Ga1141  1  0.89342367  0.33348033  0.38131757  1.0
  Ga  Ga1142  1  0.89342367  0.66681367  0.38131757  1.0
  Ga  Ga1143  1  0.06009033  0.16681367  0.30988900  1.0
  Ga  Ga1144  1  0.06009033  0.50014700  0.30988900  1.0
  Ga  Ga1145  1  0.06009033  0.83348033  0.30988900  1.0
  Ga  Ga1146  1  0.39342367  0.16681367  0.30988900  1.0
  Ga  Ga1147  1  0.39342367  0.50014700  0.30988900  1.0
  Ga  Ga1148  1  0.39342367  0.83348033  0.30988900  1.0
  Ga  Ga1149  1  0.72675700  0.16681367  0.30988900  1.0
  Ga  Ga1150  1  0.72675700  0.50014700  0.30988900  1.0
  Ga  Ga1151  1  0.72675700  0.83348033  0.30988900  1.0
  Ga  Ga1152  1  0.16783533  0.16783533  0.31353843  1.0
  Ga  Ga1153  1  0.16783533  0.50116867  0.31353843  1.0
  Ga  Ga1154  1  0.16783533  0.83450200  0.31353843  1.0
  Ga  Ga1155  1  0.50116867  0.16783533  0.31353843  1.0
  Ga  Ga1156  1  0.50116867  0.50116867  0.31353843  1.0
  Ga  Ga1157  1  0.50116867  0.83450200  0.31353843  1.0
  Ga  Ga1158  1  0.83450200  0.16783533  0.31353843  1.0
  Ga  Ga1159  1  0.83450200  0.50116867  0.31353843  1.0
  Ga  Ga1160  1  0.83450200  0.83450200  0.31353843  1.0
  Ga  Ga1161  1  0.00116867  0.00116867  0.38496700  1.0
  Ga  Ga1162  1  0.00116867  0.33450200  0.38496700  1.0
  Ga  Ga1163  1  0.00116867  0.66783533  0.38496700  1.0
  Ga  Ga1164  1  0.33450200  0.00116867  0.38496700  1.0
  Ga  Ga1165  1  0.33450200  0.33450200  0.38496700  1.0
  Ga  Ga1166  1  0.33450200  0.66783533  0.38496700  1.0
  Ga  Ga1167  1  0.66783533  0.00116867  0.38496700  1.0
  Ga  Ga1168  1  0.66783533  0.33450200  0.38496700  1.0
  Ga  Ga1169  1  0.66783533  0.66783533  0.38496700  1.0
  Ga  Ga1170  1  0.32945150  0.24514917  0.36057250  1.0
  Ga  Ga1171  1  0.32945150  0.57848250  0.36057250  1.0
  Ga  Ga1172  1  0.32945150  0.91181583  0.36057250  1.0
  Ga  Ga1173  1  0.66278483  0.24514917  0.36057250  1.0
  Ga  Ga1174  1  0.66278483  0.57848250  0.36057250  1.0
  Ga  Ga1175  1  0.66278483  0.91181583  0.36057250  1.0
  Ga  Ga1176  1  0.99611817  0.24514917  0.36057250  1.0
  Ga  Ga1177  1  0.99611817  0.57848250  0.36057250  1.0
  Ga  Ga1178  1  0.99611817  0.91181583  0.36057250  1.0
  Ga  Ga1179  1  0.16278483  0.07848250  0.28914393  1.0
  Ga  Ga1180  1  0.16278483  0.41181583  0.28914393  1.0
  Ga  Ga1181  1  0.16278483  0.74514917  0.28914393  1.0
  Ga  Ga1182  1  0.49611817  0.07848250  0.28914393  1.0
  Ga  Ga1183  1  0.49611817  0.41181583  0.28914393  1.0
  Ga  Ga1184  1  0.49611817  0.74514917  0.28914393  1.0
  Ga  Ga1185  1  0.82945150  0.07848250  0.28914393  1.0
  Ga  Ga1186  1  0.82945150  0.41181583  0.28914393  1.0
  Ga  Ga1187  1  0.82945150  0.74514917  0.28914393  1.0
  Ga  Ga1188  1  0.28730033  0.03826933  0.41310571  1.0
  Ga  Ga1189  1  0.28730033  0.37160267  0.41310571  1.0
  Ga  Ga1190  1  0.28730033  0.70493600  0.41310571  1.0
  Ga  Ga1191  1  0.62063367  0.03826933  0.41310571  1.0
  Ga  Ga1192  1  0.62063367  0.37160267  0.41310571  1.0
  Ga  Ga1193  1  0.62063367  0.70493600  0.41310571  1.0
  Ga  Ga1194  1  0.95396700  0.03826933  0.41310571  1.0
  Ga  Ga1195  1  0.95396700  0.37160267  0.41310571  1.0
  Ga  Ga1196  1  0.95396700  0.70493600  0.41310571  1.0
  Ga  Ga1197  1  0.12063367  0.20493600  0.34167714  1.0
  Ga  Ga1198  1  0.12063367  0.53826933  0.34167714  1.0
  Ga  Ga1199  1  0.12063367  0.87160267  0.34167714  1.0
  Ga  Ga1200  1  0.45396700  0.20493600  0.34167714  1.0
  Ga  Ga1201  1  0.45396700  0.53826933  0.34167714  1.0
  Ga  Ga1202  1  0.45396700  0.87160267  0.34167714  1.0
  Ga  Ga1203  1  0.78730033  0.20493600  0.34167714  1.0
  Ga  Ga1204  1  0.78730033  0.53826933  0.34167714  1.0
  Ga  Ga1205  1  0.78730033  0.87160267  0.34167714  1.0
  Ga  Ga1206  1  0.21416367  0.21416367  0.33339343  1.0
  Ga  Ga1207  1  0.21416367  0.54749700  0.33339343  1.0
  Ga  Ga1208  1  0.21416367  0.88083033  0.33339343  1.0
  Ga  Ga1209  1  0.54749700  0.21416367  0.33339343  1.0
  Ga  Ga1210  1  0.54749700  0.54749700  0.33339343  1.0
  Ga  Ga1211  1  0.54749700  0.88083033  0.33339343  1.0
  Ga  Ga1212  1  0.88083033  0.21416367  0.33339343  1.0
  Ga  Ga1213  1  0.88083033  0.54749700  0.33339343  1.0
  Ga  Ga1214  1  0.88083033  0.88083033  0.33339343  1.0
  Ga  Ga1215  1  0.04749700  0.04749700  0.40482200  1.0
  Ga  Ga1216  1  0.04749700  0.38083033  0.40482200  1.0
  Ga  Ga1217  1  0.04749700  0.71416367  0.40482200  1.0
  Ga  Ga1218  1  0.38083033  0.04749700  0.40482200  1.0
  Ga  Ga1219  1  0.38083033  0.38083033  0.40482200  1.0
  Ga  Ga1220  1  0.38083033  0.71416367  0.40482200  1.0
  Ga  Ga1221  1  0.71416367  0.04749700  0.40482200  1.0
  Ga  Ga1222  1  0.71416367  0.38083033  0.40482200  1.0
  Ga  Ga1223  1  0.71416367  0.71416367  0.40482200  1.0
  Ga  Ga1224  1  0.33286983  0.33286983  0.32972193  1.0
  Ga  Ga1225  1  0.33286983  0.66620317  0.32972193  1.0
  Ga  Ga1226  1  0.33286983  0.99953650  0.32972193  1.0
  Ga  Ga1227  1  0.66620317  0.33286983  0.32972193  1.0
  Ga  Ga1228  1  0.66620317  0.66620317  0.32972193  1.0
  Ga  Ga1229  1  0.66620317  0.99953650  0.32972193  1.0
  Ga  Ga1230  1  0.99953650  0.33286983  0.32972193  1.0
  Ga  Ga1231  1  0.99953650  0.66620317  0.32972193  1.0
  Ga  Ga1232  1  0.99953650  0.99953650  0.32972193  1.0
  Ga  Ga1233  1  0.16620317  0.16620317  0.40115050  1.0
  Ga  Ga1234  1  0.16620317  0.49953650  0.40115050  1.0
  Ga  Ga1235  1  0.16620317  0.83286983  0.40115050  1.0
  Ga  Ga1236  1  0.49953650  0.16620317  0.40115050  1.0
  Ga  Ga1237  1  0.49953650  0.49953650  0.40115050  1.0
  Ga  Ga1238  1  0.49953650  0.83286983  0.40115050  1.0
  Ga  Ga1239  1  0.83286983  0.16620317  0.40115050  1.0
  Ga  Ga1240  1  0.83286983  0.49953650  0.40115050  1.0
  Ga  Ga1241  1  0.83286983  0.83286983  0.40115050  1.0
  Ga  Ga1242  1  0.16691950  0.27236183  0.40690393  1.0
  Ga  Ga1243  1  0.16691950  0.60569517  0.40690393  1.0
  Ga  Ga1244  1  0.16691950  0.93902850  0.40690393  1.0
  Ga  Ga1245  1  0.50025283  0.27236183  0.40690393  1.0
  Ga  Ga1246  1  0.50025283  0.60569517  0.40690393  1.0
  Ga  Ga1247  1  0.50025283  0.93902850  0.40690393  1.0
  Ga  Ga1248  1  0.83358617  0.27236183  0.40690393  1.0
  Ga  Ga1249  1  0.83358617  0.60569517  0.40690393  1.0
  Ga  Ga1250  1  0.83358617  0.93902850  0.40690393  1.0
  Ga  Ga1251  1  0.00025283  0.10569517  0.33547536  1.0
  Ga  Ga1252  1  0.00025283  0.43902850  0.33547536  1.0
  Ga  Ga1253  1  0.00025283  0.77236183  0.33547536  1.0
  Ga  Ga1254  1  0.33358617  0.10569517  0.33547536  1.0
  Ga  Ga1255  1  0.33358617  0.43902850  0.33547536  1.0
  Ga  Ga1256  1  0.33358617  0.77236183  0.33547536  1.0
  Ga  Ga1257  1  0.66691950  0.10569517  0.33547536  1.0
  Ga  Ga1258  1  0.66691950  0.43902850  0.33547536  1.0
  Ga  Ga1259  1  0.66691950  0.77236183  0.33547536  1.0
  Ga  Ga1260  1  0.21964067  0.11419833  0.37702071  1.0
  Ga  Ga1261  1  0.21964067  0.44753167  0.37702071  1.0
  Ga  Ga1262  1  0.21964067  0.78086500  0.37702071  1.0
  Ga  Ga1263  1  0.55297400  0.11419833  0.37702071  1.0
  Ga  Ga1264  1  0.55297400  0.44753167  0.37702071  1.0
  Ga  Ga1265  1  0.55297400  0.78086500  0.37702071  1.0
  Ga  Ga1266  1  0.88630733  0.11419833  0.37702071  1.0
  Ga  Ga1267  1  0.88630733  0.44753167  0.37702071  1.0
  Ga  Ga1268  1  0.88630733  0.78086500  0.37702071  1.0
  Ga  Ga1269  1  0.05297400  0.28086500  0.30559214  1.0
  Ga  Ga1270  1  0.05297400  0.61419833  0.30559214  1.0
  Ga  Ga1271  1  0.05297400  0.94753167  0.30559214  1.0
  Ga  Ga1272  1  0.38630733  0.28086500  0.30559214  1.0
  Ga  Ga1273  1  0.38630733  0.61419833  0.30559214  1.0
  Ga  Ga1274  1  0.38630733  0.94753167  0.30559214  1.0
  Ga  Ga1275  1  0.71964067  0.28086500  0.30559214  1.0
  Ga  Ga1276  1  0.71964067  0.61419833  0.30559214  1.0
  Ga  Ga1277  1  0.71964067  0.94753167  0.30559214  1.0
  Ga  Ga1278  1  0.27943233  0.27943233  0.30682014  1.0
  Ga  Ga1279  1  0.27943233  0.61276567  0.30682014  1.0
  Ga  Ga1280  1  0.27943233  0.94609900  0.30682014  1.0
  Ga  Ga1281  1  0.61276567  0.27943233  0.30682014  1.0
  Ga  Ga1282  1  0.61276567  0.61276567  0.30682014  1.0
  Ga  Ga1283  1  0.61276567  0.94609900  0.30682014  1.0
  Ga  Ga1284  1  0.94609900  0.27943233  0.30682014  1.0
  Ga  Ga1285  1  0.94609900  0.61276567  0.30682014  1.0
  Ga  Ga1286  1  0.94609900  0.94609900  0.30682014  1.0
  Ga  Ga1287  1  0.11276567  0.11276567  0.37824871  1.0
  Ga  Ga1288  1  0.11276567  0.44609900  0.37824871  1.0
  Ga  Ga1289  1  0.11276567  0.77943233  0.37824871  1.0
  Ga  Ga1290  1  0.44609900  0.11276567  0.37824871  1.0
  Ga  Ga1291  1  0.44609900  0.44609900  0.37824871  1.0
  Ga  Ga1292  1  0.44609900  0.77943233  0.37824871  1.0
  Ga  Ga1293  1  0.77943233  0.11276567  0.37824871  1.0
  Ga  Ga1294  1  0.77943233  0.44609900  0.37824871  1.0
  Ga  Ga1295  1  0.77943233  0.77943233  0.37824871  1.0
  Ga  Ga1296  1  0.22714050  0.22714050  0.41985607  1.0
  Ga  Ga1297  1  0.22714050  0.56047383  0.41985607  1.0
  Ga  Ga1298  1  0.22714050  0.89380717  0.41985607  1.0
  Ga  Ga1299  1  0.56047383  0.22714050  0.41985607  1.0
  Ga  Ga1300  1  0.56047383  0.56047383  0.41985607  1.0
  Ga  Ga1301  1  0.56047383  0.89380717  0.41985607  1.0
  Ga  Ga1302  1  0.89380717  0.22714050  0.41985607  1.0
  Ga  Ga1303  1  0.89380717  0.56047383  0.41985607  1.0
  Ga  Ga1304  1  0.89380717  0.89380717  0.41985607  1.0
  Ga  Ga1305  1  0.06047383  0.06047383  0.34842750  1.0
  Ga  Ga1306  1  0.06047383  0.39380717  0.34842750  1.0
  Ga  Ga1307  1  0.06047383  0.72714050  0.34842750  1.0
  Ga  Ga1308  1  0.39380717  0.06047383  0.34842750  1.0
  Ga  Ga1309  1  0.39380717  0.39380717  0.34842750  1.0
  Ga  Ga1310  1  0.39380717  0.72714050  0.34842750  1.0
  Ga  Ga1311  1  0.72714050  0.06047383  0.34842750  1.0
  Ga  Ga1312  1  0.72714050  0.39380717  0.34842750  1.0
  Ga  Ga1313  1  0.72714050  0.72714050  0.34842750  1.0
  Ni  Ni1314  1  0.27905067  0.05574400  0.35570629  1.0
  Ni  Ni1315  1  0.27905067  0.38907733  0.35570629  1.0
  Ni  Ni1316  1  0.27905067  0.72241067  0.35570629  1.0
  Ni  Ni1317  1  0.61238400  0.05574400  0.35570629  1.0
  Ni  Ni1318  1  0.61238400  0.38907733  0.35570629  1.0
  Ni  Ni1319  1  0.61238400  0.72241067  0.35570629  1.0
  Ni  Ni1320  1  0.94571733  0.05574400  0.35570629  1.0
  Ni  Ni1321  1  0.94571733  0.38907733  0.35570629  1.0
  Ni  Ni1322  1  0.94571733  0.72241067  0.35570629  1.0
  Ni  Ni1323  1  0.11238400  0.22241067  0.42713486  1.0
  Ni  Ni1324  1  0.11238400  0.55574400  0.42713486  1.0
  Ni  Ni1325  1  0.11238400  0.88907733  0.42713486  1.0
  Ni  Ni1326  1  0.44571733  0.22241067  0.42713486  1.0
  Ni  Ni1327  1  0.44571733  0.55574400  0.42713486  1.0
  Ni  Ni1328  1  0.44571733  0.88907733  0.42713486  1.0
  Ni  Ni1329  1  0.77905067  0.22241067  0.42713486  1.0
  Ni  Ni1330  1  0.77905067  0.55574400  0.42713486  1.0
  Ni  Ni1331  1  0.77905067  0.88907733  0.42713486  1.0
  Ni  Ni1332  1  0.16739733  0.05737067  0.40216343  1.0
  Ni  Ni1333  1  0.16739733  0.39070400  0.40216343  1.0
  Ni  Ni1334  1  0.16739733  0.72403733  0.40216343  1.0
  Ni  Ni1335  1  0.50073067  0.05737067  0.40216343  1.0
  Ni  Ni1336  1  0.50073067  0.39070400  0.40216343  1.0
  Ni  Ni1337  1  0.50073067  0.72403733  0.40216343  1.0
  Ni  Ni1338  1  0.83406400  0.05737067  0.40216343  1.0
  Ni  Ni1339  1  0.83406400  0.39070400  0.40216343  1.0
  Ni  Ni1340  1  0.83406400  0.72403733  0.40216343  1.0
  Ni  Ni1341  1  0.00073067  0.22403733  0.33073486  1.0
  Ni  Ni1342  1  0.00073067  0.55737067  0.33073486  1.0
  Ni  Ni1343  1  0.00073067  0.89070400  0.33073486  1.0
  Ni  Ni1344  1  0.33406400  0.22403733  0.33073486  1.0
  Ni  Ni1345  1  0.33406400  0.55737067  0.33073486  1.0
  Ni  Ni1346  1  0.33406400  0.89070400  0.33073486  1.0
  Ni  Ni1347  1  0.66739733  0.22403733  0.33073486  1.0
  Ni  Ni1348  1  0.66739733  0.55737067  0.33073486  1.0
  Ni  Ni1349  1  0.66739733  0.89070400  0.33073486  1.0
  Ni  Ni1350  1  0.27614783  0.27614783  0.35684664  1.0
  Ni  Ni1351  1  0.27614783  0.60948117  0.35684664  1.0
  Ni  Ni1352  1  0.27614783  0.94281450  0.35684664  1.0
  Ni  Ni1353  1  0.60948117  0.27614783  0.35684664  1.0
  Ni  Ni1354  1  0.60948117  0.60948117  0.35684664  1.0
  Ni  Ni1355  1  0.60948117  0.94281450  0.35684664  1.0
  Ni  Ni1356  1  0.94281450  0.27614783  0.35684664  1.0
  Ni  Ni1357  1  0.94281450  0.60948117  0.35684664  1.0
  Ni  Ni1358  1  0.94281450  0.94281450  0.35684664  1.0
  Ni  Ni1359  1  0.10948117  0.10948117  0.42827521  1.0
  Ni  Ni1360  1  0.10948117  0.44281450  0.42827521  1.0
  Ni  Ni1361  1  0.10948117  0.77614783  0.42827521  1.0
  Ni  Ni1362  1  0.44281450  0.10948117  0.42827521  1.0
  Ni  Ni1363  1  0.44281450  0.44281450  0.42827521  1.0
  Ni  Ni1364  1  0.44281450  0.77614783  0.42827521  1.0
  Ni  Ni1365  1  0.77614783  0.10948117  0.42827521  1.0
  Ni  Ni1366  1  0.77614783  0.44281450  0.42827521  1.0
  Ni  Ni1367  1  0.77614783  0.77614783  0.42827521  1.0
  Ni  Ni1368  1  0.22101350  0.11098683  0.42514179  1.0
  Ni  Ni1369  1  0.22101350  0.44432017  0.42514179  1.0
  Ni  Ni1370  1  0.22101350  0.77765350  0.42514179  1.0
  Ni  Ni1371  1  0.55434683  0.11098683  0.42514179  1.0
  Ni  Ni1372  1  0.55434683  0.44432017  0.42514179  1.0
  Ni  Ni1373  1  0.55434683  0.77765350  0.42514179  1.0
  Ni  Ni1374  1  0.88768017  0.11098683  0.42514179  1.0
  Ni  Ni1375  1  0.88768017  0.44432017  0.42514179  1.0
  Ni  Ni1376  1  0.88768017  0.77765350  0.42514179  1.0
  Ni  Ni1377  1  0.05434683  0.27765350  0.35371321  1.0
  Ni  Ni1378  1  0.05434683  0.61098683  0.35371321  1.0
  Ni  Ni1379  1  0.05434683  0.94432017  0.35371321  1.0
  Ni  Ni1380  1  0.38768017  0.27765350  0.35371321  1.0
  Ni  Ni1381  1  0.38768017  0.61098683  0.35371321  1.0
  Ni  Ni1382  1  0.38768017  0.94432017  0.35371321  1.0
  Ni  Ni1383  1  0.72101350  0.27765350  0.35371321  1.0
  Ni  Ni1384  1  0.72101350  0.61098683  0.35371321  1.0
  Ni  Ni1385  1  0.72101350  0.94432017  0.35371321  1.0
  Ni  Ni1386  1  0.33266683  0.10936017  0.37868464  1.0
  Ni  Ni1387  1  0.33266683  0.44269350  0.37868464  1.0
  Ni  Ni1388  1  0.33266683  0.77602683  0.37868464  1.0
  Ni  Ni1389  1  0.66600017  0.10936017  0.37868464  1.0
  Ni  Ni1390  1  0.66600017  0.44269350  0.37868464  1.0
  Ni  Ni1391  1  0.66600017  0.77602683  0.37868464  1.0
  Ni  Ni1392  1  0.99933350  0.10936017  0.37868464  1.0
  Ni  Ni1393  1  0.99933350  0.44269350  0.37868464  1.0
  Ni  Ni1394  1  0.99933350  0.77602683  0.37868464  1.0
  Ni  Ni1395  1  0.16600017  0.27602683  0.30725607  1.0
  Ni  Ni1396  1  0.16600017  0.60936017  0.30725607  1.0
  Ni  Ni1397  1  0.16600017  0.94269350  0.30725607  1.0
  Ni  Ni1398  1  0.49933350  0.27602683  0.30725607  1.0
  Ni  Ni1399  1  0.49933350  0.60936017  0.30725607  1.0
  Ni  Ni1400  1  0.49933350  0.94269350  0.30725607  1.0
  Ni  Ni1401  1  0.83266683  0.27602683  0.30725607  1.0
  Ni  Ni1402  1  0.83266683  0.60936017  0.30725607  1.0
  Ni  Ni1403  1  0.83266683  0.94269350  0.30725607  1.0
