# generated using pymatgen
data_Ga21Ni5
_symmetry_space_group_name_H-M   'P 1'
_cell_length_a   71.30366437
_cell_length_b   48.55107748
_cell_length_c   73.63144575
_cell_angle_alpha   150.74962407
_cell_angle_beta   116.01207985
_cell_angle_gamma   42.95692948
_symmetry_Int_Tables_number   1
_chemical_formula_structural   Ga21Ni5
_chemical_formula_sum   'Ga1512 Ni360'
_cell_volume   67861.90982096
_cell_formula_units_Z   72
loop_
 _symmetry_equiv_pos_site_id
 _symmetry_equiv_pos_as_xyz
  1  'x, y, z'
loop_
 _atom_site_type_symbol
 _atom_site_label
 _atom_site_symmetry_multiplicity
 _atom_site_fract_x
 _atom_site_fract_y
 _atom_site_fract_z
 _atom_site_occupancy
  Ga  Ga0  1  0.00109617  0.10343483  0.10737267  1.0
  Ga  Ga1  1  0.00109617  0.43676817  0.10737267  1.0
  Ga  Ga2  1  0.00109617  0.77010150  0.10737267  1.0
  Ga  Ga3  1  0.33442950  0.10343483  0.10737267  1.0
  Ga  Ga4  1  0.33442950  0.43676817  0.10737267  1.0
  Ga  Ga5  1  0.33442950  0.77010150  0.10737267  1.0
  Ga  Ga6  1  0.66776283  0.10343483  0.10737267  1.0
  Ga  Ga7  1  0.66776283  0.43676817  0.10737267  1.0
  Ga  Ga8  1  0.66776283  0.77010150  0.10737267  1.0
  Ga  Ga9  1  0.16776283  0.27010150  0.05181711  1.0
  Ga  Ga10  1  0.16776283  0.60343483  0.05181711  1.0
  Ga  Ga11  1  0.16776283  0.93676817  0.05181711  1.0
  Ga  Ga12  1  0.50109617  0.27010150  0.05181711  1.0
  Ga  Ga13  1  0.50109617  0.60343483  0.05181711  1.0
  Ga  Ga14  1  0.50109617  0.93676817  0.05181711  1.0
  Ga  Ga15  1  0.83442950  0.27010150  0.05181711  1.0
  Ga  Ga16  1  0.83442950  0.60343483  0.05181711  1.0
  Ga  Ga17  1  0.83442950  0.93676817  0.05181711  1.0
  Ga  Ga18  1  0.05098967  0.18036433  0.09692039  1.0
  Ga  Ga19  1  0.05098967  0.51369767  0.09692039  1.0
  Ga  Ga20  1  0.05098967  0.84703100  0.09692039  1.0
  Ga  Ga21  1  0.38432300  0.18036433  0.09692039  1.0
  Ga  Ga22  1  0.38432300  0.51369767  0.09692039  1.0
  Ga  Ga23  1  0.38432300  0.84703100  0.09692039  1.0
  Ga  Ga24  1  0.71765633  0.18036433  0.09692039  1.0
  Ga  Ga25  1  0.71765633  0.51369767  0.09692039  1.0
  Ga  Ga26  1  0.71765633  0.84703100  0.09692039  1.0
  Ga  Ga27  1  0.21765633  0.01369767  0.04136483  1.0
  Ga  Ga28  1  0.21765633  0.34703100  0.04136483  1.0
  Ga  Ga29  1  0.21765633  0.68036433  0.04136483  1.0
  Ga  Ga30  1  0.55098967  0.01369767  0.04136483  1.0
  Ga  Ga31  1  0.55098967  0.34703100  0.04136483  1.0
  Ga  Ga32  1  0.55098967  0.68036433  0.04136483  1.0
  Ga  Ga33  1  0.88432300  0.01369767  0.04136483  1.0
  Ga  Ga34  1  0.88432300  0.34703100  0.04136483  1.0
  Ga  Ga35  1  0.88432300  0.68036433  0.04136483  1.0
  Ga  Ga36  1  0.11440117  0.21673983  0.10956656  1.0
  Ga  Ga37  1  0.11440117  0.55007317  0.10956656  1.0
  Ga  Ga38  1  0.11440117  0.88340650  0.10956656  1.0
  Ga  Ga39  1  0.44773450  0.21673983  0.10956656  1.0
  Ga  Ga40  1  0.44773450  0.55007317  0.10956656  1.0
  Ga  Ga41  1  0.44773450  0.88340650  0.10956656  1.0
  Ga  Ga42  1  0.78106783  0.21673983  0.10956656  1.0
  Ga  Ga43  1  0.78106783  0.55007317  0.10956656  1.0
  Ga  Ga44  1  0.78106783  0.88340650  0.10956656  1.0
  Ga  Ga45  1  0.28106783  0.05007317  0.05401100  1.0
  Ga  Ga46  1  0.28106783  0.38340650  0.05401100  1.0
  Ga  Ga47  1  0.28106783  0.71673983  0.05401100  1.0
  Ga  Ga48  1  0.61440117  0.05007317  0.05401100  1.0
  Ga  Ga49  1  0.61440117  0.38340650  0.05401100  1.0
  Ga  Ga50  1  0.61440117  0.71673983  0.05401100  1.0
  Ga  Ga51  1  0.94773450  0.05007317  0.05401100  1.0
  Ga  Ga52  1  0.94773450  0.38340650  0.05401100  1.0
  Ga  Ga53  1  0.94773450  0.71673983  0.05401100  1.0
  Ga  Ga54  1  0.16630400  0.04647800  0.04819483  1.0
  Ga  Ga55  1  0.16630400  0.37981133  0.04819483  1.0
  Ga  Ga56  1  0.16630400  0.71314467  0.04819483  1.0
  Ga  Ga57  1  0.49963733  0.04647800  0.04819483  1.0
  Ga  Ga58  1  0.49963733  0.37981133  0.04819483  1.0
  Ga  Ga59  1  0.49963733  0.71314467  0.04819483  1.0
  Ga  Ga60  1  0.83297067  0.04647800  0.04819483  1.0
  Ga  Ga61  1  0.83297067  0.37981133  0.04819483  1.0
  Ga  Ga62  1  0.83297067  0.71314467  0.04819483  1.0
  Ga  Ga63  1  0.33297067  0.21314467  0.10375039  1.0
  Ga  Ga64  1  0.33297067  0.54647800  0.10375039  1.0
  Ga  Ga65  1  0.33297067  0.87981133  0.10375039  1.0
  Ga  Ga66  1  0.66630400  0.21314467  0.10375039  1.0
  Ga  Ga67  1  0.66630400  0.54647800  0.10375039  1.0
  Ga  Ga68  1  0.66630400  0.87981133  0.10375039  1.0
  Ga  Ga69  1  0.99963733  0.21314467  0.10375039  1.0
  Ga  Ga70  1  0.99963733  0.54647800  0.10375039  1.0
  Ga  Ga71  1  0.99963733  0.87981133  0.10375039  1.0
  Ga  Ga72  1  0.11773750  0.10217750  0.10462389  1.0
  Ga  Ga73  1  0.11773750  0.43551083  0.10462389  1.0
  Ga  Ga74  1  0.11773750  0.76884417  0.10462389  1.0
  Ga  Ga75  1  0.45107083  0.10217750  0.10462389  1.0
  Ga  Ga76  1  0.45107083  0.43551083  0.10462389  1.0
  Ga  Ga77  1  0.45107083  0.76884417  0.10462389  1.0
  Ga  Ga78  1  0.78440417  0.10217750  0.10462389  1.0
  Ga  Ga79  1  0.78440417  0.43551083  0.10462389  1.0
  Ga  Ga80  1  0.78440417  0.76884417  0.10462389  1.0
  Ga  Ga81  1  0.28440417  0.26884417  0.04906833  1.0
  Ga  Ga82  1  0.28440417  0.60217750  0.04906833  1.0
  Ga  Ga83  1  0.28440417  0.93551083  0.04906833  1.0
  Ga  Ga84  1  0.61773750  0.26884417  0.04906833  1.0
  Ga  Ga85  1  0.61773750  0.60217750  0.04906833  1.0
  Ga  Ga86  1  0.61773750  0.93551083  0.04906833  1.0
  Ga  Ga87  1  0.95107083  0.26884417  0.04906833  1.0
  Ga  Ga88  1  0.95107083  0.60217750  0.04906833  1.0
  Ga  Ga89  1  0.95107083  0.93551083  0.04906833  1.0
  Ga  Ga90  1  0.05286467  0.05346267  0.08600794  1.0
  Ga  Ga91  1  0.05286467  0.38679600  0.08600794  1.0
  Ga  Ga92  1  0.05286467  0.72012933  0.08600794  1.0
  Ga  Ga93  1  0.38619800  0.05346267  0.08600794  1.0
  Ga  Ga94  1  0.38619800  0.38679600  0.08600794  1.0
  Ga  Ga95  1  0.38619800  0.72012933  0.08600794  1.0
  Ga  Ga96  1  0.71953133  0.05346267  0.08600794  1.0
  Ga  Ga97  1  0.71953133  0.38679600  0.08600794  1.0
  Ga  Ga98  1  0.71953133  0.72012933  0.08600794  1.0
  Ga  Ga99  1  0.21953133  0.22012933  0.03045239  1.0
  Ga  Ga100  1  0.21953133  0.55346267  0.03045239  1.0
  Ga  Ga101  1  0.21953133  0.88679600  0.03045239  1.0
  Ga  Ga102  1  0.55286467  0.22012933  0.03045239  1.0
  Ga  Ga103  1  0.55286467  0.55346267  0.03045239  1.0
  Ga  Ga104  1  0.55286467  0.88679600  0.03045239  1.0
  Ga  Ga105  1  0.88619800  0.22012933  0.03045239  1.0
  Ga  Ga106  1  0.88619800  0.55346267  0.03045239  1.0
  Ga  Ga107  1  0.88619800  0.88679600  0.03045239  1.0
  Ga  Ga108  1  0.11350300  0.11410100  0.03553517  1.0
  Ga  Ga109  1  0.11350300  0.44743433  0.03553517  1.0
  Ga  Ga110  1  0.11350300  0.78076767  0.03553517  1.0
  Ga  Ga111  1  0.44683633  0.11410100  0.03553517  1.0
  Ga  Ga112  1  0.44683633  0.44743433  0.03553517  1.0
  Ga  Ga113  1  0.44683633  0.78076767  0.03553517  1.0
  Ga  Ga114  1  0.78016967  0.11410100  0.03553517  1.0
  Ga  Ga115  1  0.78016967  0.44743433  0.03553517  1.0
  Ga  Ga116  1  0.78016967  0.78076767  0.03553517  1.0
  Ga  Ga117  1  0.28016967  0.28076767  0.09109072  1.0
  Ga  Ga118  1  0.28016967  0.61410100  0.09109072  1.0
  Ga  Ga119  1  0.28016967  0.94743433  0.09109072  1.0
  Ga  Ga120  1  0.61350300  0.28076767  0.09109072  1.0
  Ga  Ga121  1  0.61350300  0.61410100  0.09109072  1.0
  Ga  Ga122  1  0.61350300  0.94743433  0.09109072  1.0
  Ga  Ga123  1  0.94683633  0.28076767  0.09109072  1.0
  Ga  Ga124  1  0.94683633  0.61410100  0.09109072  1.0
  Ga  Ga125  1  0.94683633  0.94743433  0.09109072  1.0
  Ga  Ga126  1  0.05670917  0.04114917  0.04359556  1.0
  Ga  Ga127  1  0.05670917  0.37448250  0.04359556  1.0
  Ga  Ga128  1  0.05670917  0.70781583  0.04359556  1.0
  Ga  Ga129  1  0.39004250  0.04114917  0.04359556  1.0
  Ga  Ga130  1  0.39004250  0.37448250  0.04359556  1.0
  Ga  Ga131  1  0.39004250  0.70781583  0.04359556  1.0
  Ga  Ga132  1  0.72337583  0.04114917  0.04359556  1.0
  Ga  Ga133  1  0.72337583  0.37448250  0.04359556  1.0
  Ga  Ga134  1  0.72337583  0.70781583  0.04359556  1.0
  Ga  Ga135  1  0.22337583  0.20781583  0.09915111  1.0
  Ga  Ga136  1  0.22337583  0.54114917  0.09915111  1.0
  Ga  Ga137  1  0.22337583  0.87448250  0.09915111  1.0
  Ga  Ga138  1  0.55670917  0.20781583  0.09915111  1.0
  Ga  Ga139  1  0.55670917  0.54114917  0.09915111  1.0
  Ga  Ga140  1  0.55670917  0.87448250  0.09915111  1.0
  Ga  Ga141  1  0.89004250  0.20781583  0.09915111  1.0
  Ga  Ga142  1  0.89004250  0.54114917  0.09915111  1.0
  Ga  Ga143  1  0.89004250  0.87448250  0.09915111  1.0
  Ga  Ga144  1  0.06027567  0.27378300  0.05327761  1.0
  Ga  Ga145  1  0.06027567  0.60711633  0.05327761  1.0
  Ga  Ga146  1  0.06027567  0.94044967  0.05327761  1.0
  Ga  Ga147  1  0.39360900  0.27378300  0.05327761  1.0
  Ga  Ga148  1  0.39360900  0.60711633  0.05327761  1.0
  Ga  Ga149  1  0.39360900  0.94044967  0.05327761  1.0
  Ga  Ga150  1  0.72694233  0.27378300  0.05327761  1.0
  Ga  Ga151  1  0.72694233  0.60711633  0.05327761  1.0
  Ga  Ga152  1  0.72694233  0.94044967  0.05327761  1.0
  Ga  Ga153  1  0.22694233  0.10711633  0.10883317  1.0
  Ga  Ga154  1  0.22694233  0.44044967  0.10883317  1.0
  Ga  Ga155  1  0.22694233  0.77378300  0.10883317  1.0
  Ga  Ga156  1  0.56027567  0.10711633  0.10883317  1.0
  Ga  Ga157  1  0.56027567  0.44044967  0.10883317  1.0
  Ga  Ga158  1  0.56027567  0.77378300  0.10883317  1.0
  Ga  Ga159  1  0.89360900  0.10711633  0.10883317  1.0
  Ga  Ga160  1  0.89360900  0.44044967  0.10883317  1.0
  Ga  Ga161  1  0.89360900  0.77378300  0.10883317  1.0
  Ga  Ga162  1  0.05321467  0.06696600  0.01885094  1.0
  Ga  Ga163  1  0.05321467  0.40029933  0.01885094  1.0
  Ga  Ga164  1  0.05321467  0.73363267  0.01885094  1.0
  Ga  Ga165  1  0.38654800  0.06696600  0.01885094  1.0
  Ga  Ga166  1  0.38654800  0.40029933  0.01885094  1.0
  Ga  Ga167  1  0.38654800  0.73363267  0.01885094  1.0
  Ga  Ga168  1  0.71988133  0.06696600  0.01885094  1.0
  Ga  Ga169  1  0.71988133  0.40029933  0.01885094  1.0
  Ga  Ga170  1  0.71988133  0.73363267  0.01885094  1.0
  Ga  Ga171  1  0.21988133  0.23363267  0.07440650  1.0
  Ga  Ga172  1  0.21988133  0.56696600  0.07440650  1.0
  Ga  Ga173  1  0.21988133  0.90029933  0.07440650  1.0
  Ga  Ga174  1  0.55321467  0.23363267  0.07440650  1.0
  Ga  Ga175  1  0.55321467  0.56696600  0.07440650  1.0
  Ga  Ga176  1  0.55321467  0.90029933  0.07440650  1.0
  Ga  Ga177  1  0.88654800  0.23363267  0.07440650  1.0
  Ga  Ga178  1  0.88654800  0.56696600  0.07440650  1.0
  Ga  Ga179  1  0.88654800  0.90029933  0.07440650  1.0
  Ga  Ga180  1  0.10735783  0.01125983  0.07813100  1.0
  Ga  Ga181  1  0.10735783  0.34459317  0.07813100  1.0
  Ga  Ga182  1  0.10735783  0.67792650  0.07813100  1.0
  Ga  Ga183  1  0.44069117  0.01125983  0.07813100  1.0
  Ga  Ga184  1  0.44069117  0.34459317  0.07813100  1.0
  Ga  Ga185  1  0.44069117  0.67792650  0.07813100  1.0
  Ga  Ga186  1  0.77402450  0.01125983  0.07813100  1.0
  Ga  Ga187  1  0.77402450  0.34459317  0.07813100  1.0
  Ga  Ga188  1  0.77402450  0.67792650  0.07813100  1.0
  Ga  Ga189  1  0.27402450  0.17792650  0.02257544  1.0
  Ga  Ga190  1  0.27402450  0.51125983  0.02257544  1.0
  Ga  Ga191  1  0.27402450  0.84459317  0.02257544  1.0
  Ga  Ga192  1  0.60735783  0.17792650  0.02257544  1.0
  Ga  Ga193  1  0.60735783  0.51125983  0.02257544  1.0
  Ga  Ga194  1  0.60735783  0.84459317  0.02257544  1.0
  Ga  Ga195  1  0.94069117  0.17792650  0.02257544  1.0
  Ga  Ga196  1  0.94069117  0.51125983  0.02257544  1.0
  Ga  Ga197  1  0.94069117  0.84459317  0.02257544  1.0
  Ga  Ga198  1  0.10657633  0.12032767  0.07221261  1.0
  Ga  Ga199  1  0.10657633  0.45366100  0.07221261  1.0
  Ga  Ga200  1  0.10657633  0.78699433  0.07221261  1.0
  Ga  Ga201  1  0.43990967  0.12032767  0.07221261  1.0
  Ga  Ga202  1  0.43990967  0.45366100  0.07221261  1.0
  Ga  Ga203  1  0.43990967  0.78699433  0.07221261  1.0
  Ga  Ga204  1  0.77324300  0.12032767  0.07221261  1.0
  Ga  Ga205  1  0.77324300  0.45366100  0.07221261  1.0
  Ga  Ga206  1  0.77324300  0.78699433  0.07221261  1.0
  Ga  Ga207  1  0.27324300  0.28699433  0.01665706  1.0
  Ga  Ga208  1  0.27324300  0.62032767  0.01665706  1.0
  Ga  Ga209  1  0.27324300  0.95366100  0.01665706  1.0
  Ga  Ga210  1  0.60657633  0.28699433  0.01665706  1.0
  Ga  Ga211  1  0.60657633  0.62032767  0.01665706  1.0
  Ga  Ga212  1  0.60657633  0.95366100  0.01665706  1.0
  Ga  Ga213  1  0.93990967  0.28699433  0.01665706  1.0
  Ga  Ga214  1  0.93990967  0.62032767  0.01665706  1.0
  Ga  Ga215  1  0.93990967  0.95366100  0.01665706  1.0
  Ga  Ga216  1  0.16549800  0.17017267  0.08564861  1.0
  Ga  Ga217  1  0.16549800  0.50350600  0.08564861  1.0
  Ga  Ga218  1  0.16549800  0.83683933  0.08564861  1.0
  Ga  Ga219  1  0.49883133  0.17017267  0.08564861  1.0
  Ga  Ga220  1  0.49883133  0.50350600  0.08564861  1.0
  Ga  Ga221  1  0.49883133  0.83683933  0.08564861  1.0
  Ga  Ga222  1  0.83216467  0.17017267  0.08564861  1.0
  Ga  Ga223  1  0.83216467  0.50350600  0.08564861  1.0
  Ga  Ga224  1  0.83216467  0.83683933  0.08564861  1.0
  Ga  Ga225  1  0.33216467  0.00350600  0.03009306  1.0
  Ga  Ga226  1  0.33216467  0.33683933  0.03009306  1.0
  Ga  Ga227  1  0.33216467  0.67017267  0.03009306  1.0
  Ga  Ga228  1  0.66549800  0.00350600  0.03009306  1.0
  Ga  Ga229  1  0.66549800  0.33683933  0.03009306  1.0
  Ga  Ga230  1  0.66549800  0.67017267  0.03009306  1.0
  Ga  Ga231  1  0.99883133  0.00350600  0.03009306  1.0
  Ga  Ga232  1  0.99883133  0.33683933  0.03009306  1.0
  Ga  Ga233  1  0.99883133  0.67017267  0.03009306  1.0
  Ga  Ga234  1  0.00388183  0.23738550  0.04569956  1.0
  Ga  Ga235  1  0.00388183  0.57071883  0.04569956  1.0
  Ga  Ga236  1  0.00388183  0.90405217  0.04569956  1.0
  Ga  Ga237  1  0.33721517  0.23738550  0.04569956  1.0
  Ga  Ga238  1  0.33721517  0.57071883  0.04569956  1.0
  Ga  Ga239  1  0.33721517  0.90405217  0.04569956  1.0
  Ga  Ga240  1  0.67054850  0.23738550  0.04569956  1.0
  Ga  Ga241  1  0.67054850  0.57071883  0.04569956  1.0
  Ga  Ga242  1  0.67054850  0.90405217  0.04569956  1.0
  Ga  Ga243  1  0.17054850  0.07071883  0.10125511  1.0
  Ga  Ga244  1  0.17054850  0.40405217  0.10125511  1.0
  Ga  Ga245  1  0.17054850  0.73738550  0.10125511  1.0
  Ga  Ga246  1  0.50388183  0.07071883  0.10125511  1.0
  Ga  Ga247  1  0.50388183  0.40405217  0.10125511  1.0
  Ga  Ga248  1  0.50388183  0.73738550  0.10125511  1.0
  Ga  Ga249  1  0.83721517  0.07071883  0.10125511  1.0
  Ga  Ga250  1  0.83721517  0.40405217  0.10125511  1.0
  Ga  Ga251  1  0.83721517  0.73738550  0.10125511  1.0
  Ga  Ga252  1  0.04603300  0.27953667  0.08785072  1.0
  Ga  Ga253  1  0.04603300  0.61287000  0.08785072  1.0
  Ga  Ga254  1  0.04603300  0.94620333  0.08785072  1.0
  Ga  Ga255  1  0.37936633  0.27953667  0.08785072  1.0
  Ga  Ga256  1  0.37936633  0.61287000  0.08785072  1.0
  Ga  Ga257  1  0.37936633  0.94620333  0.08785072  1.0
  Ga  Ga258  1  0.71269967  0.27953667  0.08785072  1.0
  Ga  Ga259  1  0.71269967  0.61287000  0.08785072  1.0
  Ga  Ga260  1  0.71269967  0.94620333  0.08785072  1.0
  Ga  Ga261  1  0.21269967  0.11287000  0.03229517  1.0
  Ga  Ga262  1  0.21269967  0.44620333  0.03229517  1.0
  Ga  Ga263  1  0.21269967  0.77953667  0.03229517  1.0
  Ga  Ga264  1  0.54603300  0.11287000  0.03229517  1.0
  Ga  Ga265  1  0.54603300  0.44620333  0.03229517  1.0
  Ga  Ga266  1  0.54603300  0.77953667  0.03229517  1.0
  Ga  Ga267  1  0.87936633  0.11287000  0.03229517  1.0
  Ga  Ga268  1  0.87936633  0.44620333  0.03229517  1.0
  Ga  Ga269  1  0.87936633  0.77953667  0.03229517  1.0
  Ga  Ga270  1  0.11916967  0.30915767  0.10109139  1.0
  Ga  Ga271  1  0.11916967  0.64249100  0.10109139  1.0
  Ga  Ga272  1  0.11916967  0.97582433  0.10109139  1.0
  Ga  Ga273  1  0.45250300  0.30915767  0.10109139  1.0
  Ga  Ga274  1  0.45250300  0.64249100  0.10109139  1.0
  Ga  Ga275  1  0.45250300  0.97582433  0.10109139  1.0
  Ga  Ga276  1  0.78583633  0.30915767  0.10109139  1.0
  Ga  Ga277  1  0.78583633  0.64249100  0.10109139  1.0
  Ga  Ga278  1  0.78583633  0.97582433  0.10109139  1.0
  Ga  Ga279  1  0.28583633  0.14249100  0.04553583  1.0
  Ga  Ga280  1  0.28583633  0.47582433  0.04553583  1.0
  Ga  Ga281  1  0.28583633  0.80915767  0.04553583  1.0
  Ga  Ga282  1  0.61916967  0.14249100  0.04553583  1.0
  Ga  Ga283  1  0.61916967  0.47582433  0.04553583  1.0
  Ga  Ga284  1  0.61916967  0.80915767  0.04553583  1.0
  Ga  Ga285  1  0.95250300  0.14249100  0.04553583  1.0
  Ga  Ga286  1  0.95250300  0.47582433  0.04553583  1.0
  Ga  Ga287  1  0.95250300  0.80915767  0.04553583  1.0
  Ga  Ga288  1  0.00046350  0.33194283  0.07197333  1.0
  Ga  Ga289  1  0.00046350  0.66527617  0.07197333  1.0
  Ga  Ga290  1  0.00046350  0.99860950  0.07197333  1.0
  Ga  Ga291  1  0.33379683  0.33194283  0.07197333  1.0
  Ga  Ga292  1  0.33379683  0.66527617  0.07197333  1.0
  Ga  Ga293  1  0.33379683  0.99860950  0.07197333  1.0
  Ga  Ga294  1  0.66713017  0.33194283  0.07197333  1.0
  Ga  Ga295  1  0.66713017  0.66527617  0.07197333  1.0
  Ga  Ga296  1  0.66713017  0.99860950  0.07197333  1.0
  Ga  Ga297  1  0.16713017  0.16527617  0.01641778  1.0
  Ga  Ga298  1  0.16713017  0.49860950  0.01641778  1.0
  Ga  Ga299  1  0.16713017  0.83194283  0.01641778  1.0
  Ga  Ga300  1  0.50046350  0.16527617  0.01641778  1.0
  Ga  Ga301  1  0.50046350  0.49860950  0.01641778  1.0
  Ga  Ga302  1  0.50046350  0.83194283  0.01641778  1.0
  Ga  Ga303  1  0.83379683  0.16527617  0.01641778  1.0
  Ga  Ga304  1  0.83379683  0.49860950  0.01641778  1.0
  Ga  Ga305  1  0.83379683  0.83194283  0.01641778  1.0
  Ga  Ga306  1  0.16641383  0.27286750  0.01242044  1.0
  Ga  Ga307  1  0.16641383  0.60620083  0.01242044  1.0
  Ga  Ga308  1  0.16641383  0.93953417  0.01242044  1.0
  Ga  Ga309  1  0.49974717  0.27286750  0.01242044  1.0
  Ga  Ga310  1  0.49974717  0.60620083  0.01242044  1.0
  Ga  Ga311  1  0.49974717  0.93953417  0.01242044  1.0
  Ga  Ga312  1  0.83308050  0.27286750  0.01242044  1.0
  Ga  Ga313  1  0.83308050  0.60620083  0.01242044  1.0
  Ga  Ga314  1  0.83308050  0.93953417  0.01242044  1.0
  Ga  Ga315  1  0.33308050  0.10620083  0.06797600  1.0
  Ga  Ga316  1  0.33308050  0.43953417  0.06797600  1.0
  Ga  Ga317  1  0.33308050  0.77286750  0.06797600  1.0
  Ga  Ga318  1  0.66641383  0.10620083  0.06797600  1.0
  Ga  Ga319  1  0.66641383  0.43953417  0.06797600  1.0
  Ga  Ga320  1  0.66641383  0.77286750  0.06797600  1.0
  Ga  Ga321  1  0.99974717  0.10620083  0.06797600  1.0
  Ga  Ga322  1  0.99974717  0.43953417  0.06797600  1.0
  Ga  Ga323  1  0.99974717  0.77286750  0.06797600  1.0
  Ga  Ga324  1  0.11369267  0.22014633  0.07081039  1.0
  Ga  Ga325  1  0.11369267  0.55347967  0.07081039  1.0
  Ga  Ga326  1  0.11369267  0.88681300  0.07081039  1.0
  Ga  Ga327  1  0.44702600  0.22014633  0.07081039  1.0
  Ga  Ga328  1  0.44702600  0.55347967  0.07081039  1.0
  Ga  Ga329  1  0.44702600  0.88681300  0.07081039  1.0
  Ga  Ga330  1  0.78035933  0.22014633  0.07081039  1.0
  Ga  Ga331  1  0.78035933  0.55347967  0.07081039  1.0
  Ga  Ga332  1  0.78035933  0.88681300  0.07081039  1.0
  Ga  Ga333  1  0.28035933  0.05347967  0.01525483  1.0
  Ga  Ga334  1  0.28035933  0.38681300  0.01525483  1.0
  Ga  Ga335  1  0.28035933  0.72014633  0.01525483  1.0
  Ga  Ga336  1  0.61369267  0.05347967  0.01525483  1.0
  Ga  Ga337  1  0.61369267  0.38681300  0.01525483  1.0
  Ga  Ga338  1  0.61369267  0.72014633  0.01525483  1.0
  Ga  Ga339  1  0.94702600  0.05347967  0.01525483  1.0
  Ga  Ga340  1  0.94702600  0.38681300  0.01525483  1.0
  Ga  Ga341  1  0.94702600  0.72014633  0.01525483  1.0
  Ga  Ga342  1  0.05390100  0.17163033  0.05416083  1.0
  Ga  Ga343  1  0.05390100  0.50496367  0.05416083  1.0
  Ga  Ga344  1  0.05390100  0.83829700  0.05416083  1.0
  Ga  Ga345  1  0.38723433  0.17163033  0.05416083  1.0
  Ga  Ga346  1  0.38723433  0.50496367  0.05416083  1.0
  Ga  Ga347  1  0.38723433  0.83829700  0.05416083  1.0
  Ga  Ga348  1  0.72056767  0.17163033  0.05416083  1.0
  Ga  Ga349  1  0.72056767  0.50496367  0.05416083  1.0
  Ga  Ga350  1  0.72056767  0.83829700  0.05416083  1.0
  Ga  Ga351  1  0.22056767  0.00496367  0.10971639  1.0
  Ga  Ga352  1  0.22056767  0.33829700  0.10971639  1.0
  Ga  Ga353  1  0.22056767  0.67163033  0.10971639  1.0
  Ga  Ga354  1  0.55390100  0.00496367  0.10971639  1.0
  Ga  Ga355  1  0.55390100  0.33829700  0.10971639  1.0
  Ga  Ga356  1  0.55390100  0.67163033  0.10971639  1.0
  Ga  Ga357  1  0.88723433  0.00496367  0.10971639  1.0
  Ga  Ga358  1  0.88723433  0.33829700  0.10971639  1.0
  Ga  Ga359  1  0.88723433  0.67163033  0.10971639  1.0
  Ga  Ga360  1  0.10619283  0.01475483  0.04249389  1.0
  Ga  Ga361  1  0.10619283  0.34808817  0.04249389  1.0
  Ga  Ga362  1  0.10619283  0.68142150  0.04249389  1.0
  Ga  Ga363  1  0.43952617  0.01475483  0.04249389  1.0
  Ga  Ga364  1  0.43952617  0.34808817  0.04249389  1.0
  Ga  Ga365  1  0.43952617  0.68142150  0.04249389  1.0
  Ga  Ga366  1  0.77285950  0.01475483  0.04249389  1.0
  Ga  Ga367  1  0.77285950  0.34808817  0.04249389  1.0
  Ga  Ga368  1  0.77285950  0.68142150  0.04249389  1.0
  Ga  Ga369  1  0.27285950  0.18142150  0.09804944  1.0
  Ga  Ga370  1  0.27285950  0.51475483  0.09804944  1.0
  Ga  Ga371  1  0.27285950  0.84808817  0.09804944  1.0
  Ga  Ga372  1  0.60619283  0.18142150  0.09804944  1.0
  Ga  Ga373  1  0.60619283  0.51475483  0.09804944  1.0
  Ga  Ga374  1  0.60619283  0.84808817  0.09804944  1.0
  Ga  Ga375  1  0.93952617  0.18142150  0.09804944  1.0
  Ga  Ga376  1  0.93952617  0.51475483  0.09804944  1.0
  Ga  Ga377  1  0.93952617  0.84808817  0.09804944  1.0
  Ni  Ni378  1  0.05428267  0.28051200  0.01588383  1.0
  Ni  Ni379  1  0.05428267  0.61384533  0.01588383  1.0
  Ni  Ni380  1  0.05428267  0.94717867  0.01588383  1.0
  Ni  Ni381  1  0.38761600  0.28051200  0.01588383  1.0
  Ni  Ni382  1  0.38761600  0.61384533  0.01588383  1.0
  Ni  Ni383  1  0.38761600  0.94717867  0.01588383  1.0
  Ni  Ni384  1  0.72094933  0.28051200  0.01588383  1.0
  Ni  Ni385  1  0.72094933  0.61384533  0.01588383  1.0
  Ni  Ni386  1  0.72094933  0.94717867  0.01588383  1.0
  Ni  Ni387  1  0.22094933  0.11384533  0.07143939  1.0
  Ni  Ni388  1  0.22094933  0.44717867  0.07143939  1.0
  Ni  Ni389  1  0.22094933  0.78051200  0.07143939  1.0
  Ni  Ni390  1  0.55428267  0.11384533  0.07143939  1.0
  Ni  Ni391  1  0.55428267  0.44717867  0.07143939  1.0
  Ni  Ni392  1  0.55428267  0.78051200  0.07143939  1.0
  Ni  Ni393  1  0.88761600  0.11384533  0.07143939  1.0
  Ni  Ni394  1  0.88761600  0.44717867  0.07143939  1.0
  Ni  Ni395  1  0.88761600  0.78051200  0.07143939  1.0
  Ni  Ni396  1  0.16593600  0.05883200  0.01642606  1.0
  Ni  Ni397  1  0.16593600  0.39216533  0.01642606  1.0
  Ni  Ni398  1  0.16593600  0.72549867  0.01642606  1.0
  Ni  Ni399  1  0.49926933  0.05883200  0.01642606  1.0
  Ni  Ni400  1  0.49926933  0.39216533  0.01642606  1.0
  Ni  Ni401  1  0.49926933  0.72549867  0.01642606  1.0
  Ni  Ni402  1  0.83260267  0.05883200  0.01642606  1.0
  Ni  Ni403  1  0.83260267  0.39216533  0.01642606  1.0
  Ni  Ni404  1  0.83260267  0.72549867  0.01642606  1.0
  Ni  Ni405  1  0.33260267  0.22549867  0.07198161  1.0
  Ni  Ni406  1  0.33260267  0.55883200  0.07198161  1.0
  Ni  Ni407  1  0.33260267  0.89216533  0.07198161  1.0
  Ni  Ni408  1  0.66593600  0.22549867  0.07198161  1.0
  Ni  Ni409  1  0.66593600  0.55883200  0.07198161  1.0
  Ni  Ni410  1  0.66593600  0.89216533  0.07198161  1.0
  Ni  Ni411  1  0.99926933  0.22549867  0.07198161  1.0
  Ni  Ni412  1  0.99926933  0.55883200  0.07198161  1.0
  Ni  Ni413  1  0.99926933  0.89216533  0.07198161  1.0
  Ni  Ni414  1  0.05718550  0.16177683  0.01306167  1.0
  Ni  Ni415  1  0.05718550  0.49511017  0.01306167  1.0
  Ni  Ni416  1  0.05718550  0.82844350  0.01306167  1.0
  Ni  Ni417  1  0.39051883  0.16177683  0.01306167  1.0
  Ni  Ni418  1  0.39051883  0.49511017  0.01306167  1.0
  Ni  Ni419  1  0.39051883  0.82844350  0.01306167  1.0
  Ni  Ni420  1  0.72385217  0.16177683  0.01306167  1.0
  Ni  Ni421  1  0.72385217  0.49511017  0.01306167  1.0
  Ni  Ni422  1  0.72385217  0.82844350  0.01306167  1.0
  Ni  Ni423  1  0.22385217  0.32844350  0.06861722  1.0
  Ni  Ni424  1  0.22385217  0.66177683  0.06861722  1.0
  Ni  Ni425  1  0.22385217  0.99511017  0.06861722  1.0
  Ni  Ni426  1  0.55718550  0.32844350  0.06861722  1.0
  Ni  Ni427  1  0.55718550  0.66177683  0.06861722  1.0
  Ni  Ni428  1  0.55718550  0.99511017  0.06861722  1.0
  Ni  Ni429  1  0.89051883  0.32844350  0.06861722  1.0
  Ni  Ni430  1  0.89051883  0.66177683  0.06861722  1.0
  Ni  Ni431  1  0.89051883  0.99511017  0.06861722  1.0
  Ni  Ni432  1  0.11231983  0.21968050  0.03429811  1.0
  Ni  Ni433  1  0.11231983  0.55301383  0.03429811  1.0
  Ni  Ni434  1  0.11231983  0.88634717  0.03429811  1.0
  Ni  Ni435  1  0.44565317  0.21968050  0.03429811  1.0
  Ni  Ni436  1  0.44565317  0.55301383  0.03429811  1.0
  Ni  Ni437  1  0.44565317  0.88634717  0.03429811  1.0
  Ni  Ni438  1  0.77898650  0.21968050  0.03429811  1.0
  Ni  Ni439  1  0.77898650  0.55301383  0.03429811  1.0
  Ni  Ni440  1  0.77898650  0.88634717  0.03429811  1.0
  Ni  Ni441  1  0.27898650  0.05301383  0.08985367  1.0
  Ni  Ni442  1  0.27898650  0.38634717  0.08985367  1.0
  Ni  Ni443  1  0.27898650  0.71968050  0.08985367  1.0
  Ni  Ni444  1  0.61231983  0.05301383  0.08985367  1.0
  Ni  Ni445  1  0.61231983  0.38634717  0.08985367  1.0
  Ni  Ni446  1  0.61231983  0.71968050  0.08985367  1.0
  Ni  Ni447  1  0.94565317  0.05301383  0.08985367  1.0
  Ni  Ni448  1  0.94565317  0.38634717  0.08985367  1.0
  Ni  Ni449  1  0.94565317  0.71968050  0.08985367  1.0
  Ni  Ni450  1  0.00066650  0.10802717  0.03375589  1.0
  Ni  Ni451  1  0.00066650  0.44136050  0.03375589  1.0
  Ni  Ni452  1  0.00066650  0.77469383  0.03375589  1.0
  Ni  Ni453  1  0.33399983  0.10802717  0.03375589  1.0
  Ni  Ni454  1  0.33399983  0.44136050  0.03375589  1.0
  Ni  Ni455  1  0.33399983  0.77469383  0.03375589  1.0
  Ni  Ni456  1  0.66733317  0.10802717  0.03375589  1.0
  Ni  Ni457  1  0.66733317  0.44136050  0.03375589  1.0
  Ni  Ni458  1  0.66733317  0.77469383  0.03375589  1.0
  Ni  Ni459  1  0.16733317  0.27469383  0.08931144  1.0
  Ni  Ni460  1  0.16733317  0.60802717  0.08931144  1.0
  Ni  Ni461  1  0.16733317  0.94136050  0.08931144  1.0
  Ni  Ni462  1  0.50066650  0.27469383  0.08931144  1.0
  Ni  Ni463  1  0.50066650  0.60802717  0.08931144  1.0
  Ni  Ni464  1  0.50066650  0.94136050  0.08931144  1.0
  Ni  Ni465  1  0.83399983  0.27469383  0.08931144  1.0
  Ni  Ni466  1  0.83399983  0.60802717  0.08931144  1.0
  Ni  Ni467  1  0.83399983  0.94136050  0.08931144  1.0
  Ga  Ga468  1  0.00109617  0.10343483  0.21848378  1.0
  Ga  Ga469  1  0.00109617  0.43676817  0.21848378  1.0
  Ga  Ga470  1  0.00109617  0.77010150  0.21848378  1.0
  Ga  Ga471  1  0.33442950  0.10343483  0.21848378  1.0
  Ga  Ga472  1  0.33442950  0.43676817  0.21848378  1.0
  Ga  Ga473  1  0.33442950  0.77010150  0.21848378  1.0
  Ga  Ga474  1  0.66776283  0.10343483  0.21848378  1.0
  Ga  Ga475  1  0.66776283  0.43676817  0.21848378  1.0
  Ga  Ga476  1  0.66776283  0.77010150  0.21848378  1.0
  Ga  Ga477  1  0.16776283  0.27010150  0.16292822  1.0
  Ga  Ga478  1  0.16776283  0.60343483  0.16292822  1.0
  Ga  Ga479  1  0.16776283  0.93676817  0.16292822  1.0
  Ga  Ga480  1  0.50109617  0.27010150  0.16292822  1.0
  Ga  Ga481  1  0.50109617  0.60343483  0.16292822  1.0
  Ga  Ga482  1  0.50109617  0.93676817  0.16292822  1.0
  Ga  Ga483  1  0.83442950  0.27010150  0.16292822  1.0
  Ga  Ga484  1  0.83442950  0.60343483  0.16292822  1.0
  Ga  Ga485  1  0.83442950  0.93676817  0.16292822  1.0
  Ga  Ga486  1  0.05098967  0.18036433  0.20803150  1.0
  Ga  Ga487  1  0.05098967  0.51369767  0.20803150  1.0
  Ga  Ga488  1  0.05098967  0.84703100  0.20803150  1.0
  Ga  Ga489  1  0.38432300  0.18036433  0.20803150  1.0
  Ga  Ga490  1  0.38432300  0.51369767  0.20803150  1.0
  Ga  Ga491  1  0.38432300  0.84703100  0.20803150  1.0
  Ga  Ga492  1  0.71765633  0.18036433  0.20803150  1.0
  Ga  Ga493  1  0.71765633  0.51369767  0.20803150  1.0
  Ga  Ga494  1  0.71765633  0.84703100  0.20803150  1.0
  Ga  Ga495  1  0.21765633  0.01369767  0.15247594  1.0
  Ga  Ga496  1  0.21765633  0.34703100  0.15247594  1.0
  Ga  Ga497  1  0.21765633  0.68036433  0.15247594  1.0
  Ga  Ga498  1  0.55098967  0.01369767  0.15247594  1.0
  Ga  Ga499  1  0.55098967  0.34703100  0.15247594  1.0
  Ga  Ga500  1  0.55098967  0.68036433  0.15247594  1.0
  Ga  Ga501  1  0.88432300  0.01369767  0.15247594  1.0
  Ga  Ga502  1  0.88432300  0.34703100  0.15247594  1.0
  Ga  Ga503  1  0.88432300  0.68036433  0.15247594  1.0
  Ga  Ga504  1  0.11440117  0.21673983  0.22067767  1.0
  Ga  Ga505  1  0.11440117  0.55007317  0.22067767  1.0
  Ga  Ga506  1  0.11440117  0.88340650  0.22067767  1.0
  Ga  Ga507  1  0.44773450  0.21673983  0.22067767  1.0
  Ga  Ga508  1  0.44773450  0.55007317  0.22067767  1.0
  Ga  Ga509  1  0.44773450  0.88340650  0.22067767  1.0
  Ga  Ga510  1  0.78106783  0.21673983  0.22067767  1.0
  Ga  Ga511  1  0.78106783  0.55007317  0.22067767  1.0
  Ga  Ga512  1  0.78106783  0.88340650  0.22067767  1.0
  Ga  Ga513  1  0.28106783  0.05007317  0.16512211  1.0
  Ga  Ga514  1  0.28106783  0.38340650  0.16512211  1.0
  Ga  Ga515  1  0.28106783  0.71673983  0.16512211  1.0
  Ga  Ga516  1  0.61440117  0.05007317  0.16512211  1.0
  Ga  Ga517  1  0.61440117  0.38340650  0.16512211  1.0
  Ga  Ga518  1  0.61440117  0.71673983  0.16512211  1.0
  Ga  Ga519  1  0.94773450  0.05007317  0.16512211  1.0
  Ga  Ga520  1  0.94773450  0.38340650  0.16512211  1.0
  Ga  Ga521  1  0.94773450  0.71673983  0.16512211  1.0
  Ga  Ga522  1  0.16630400  0.04647800  0.15930594  1.0
  Ga  Ga523  1  0.16630400  0.37981133  0.15930594  1.0
  Ga  Ga524  1  0.16630400  0.71314467  0.15930594  1.0
  Ga  Ga525  1  0.49963733  0.04647800  0.15930594  1.0
  Ga  Ga526  1  0.49963733  0.37981133  0.15930594  1.0
  Ga  Ga527  1  0.49963733  0.71314467  0.15930594  1.0
  Ga  Ga528  1  0.83297067  0.04647800  0.15930594  1.0
  Ga  Ga529  1  0.83297067  0.37981133  0.15930594  1.0
  Ga  Ga530  1  0.83297067  0.71314467  0.15930594  1.0
  Ga  Ga531  1  0.33297067  0.21314467  0.21486150  1.0
  Ga  Ga532  1  0.33297067  0.54647800  0.21486150  1.0
  Ga  Ga533  1  0.33297067  0.87981133  0.21486150  1.0
  Ga  Ga534  1  0.66630400  0.21314467  0.21486150  1.0
  Ga  Ga535  1  0.66630400  0.54647800  0.21486150  1.0
  Ga  Ga536  1  0.66630400  0.87981133  0.21486150  1.0
  Ga  Ga537  1  0.99963733  0.21314467  0.21486150  1.0
  Ga  Ga538  1  0.99963733  0.54647800  0.21486150  1.0
  Ga  Ga539  1  0.99963733  0.87981133  0.21486150  1.0
  Ga  Ga540  1  0.11773750  0.10217750  0.21573500  1.0
  Ga  Ga541  1  0.11773750  0.43551083  0.21573500  1.0
  Ga  Ga542  1  0.11773750  0.76884417  0.21573500  1.0
  Ga  Ga543  1  0.45107083  0.10217750  0.21573500  1.0
  Ga  Ga544  1  0.45107083  0.43551083  0.21573500  1.0
  Ga  Ga545  1  0.45107083  0.76884417  0.21573500  1.0
  Ga  Ga546  1  0.78440417  0.10217750  0.21573500  1.0
  Ga  Ga547  1  0.78440417  0.43551083  0.21573500  1.0
  Ga  Ga548  1  0.78440417  0.76884417  0.21573500  1.0
  Ga  Ga549  1  0.28440417  0.26884417  0.16017944  1.0
  Ga  Ga550  1  0.28440417  0.60217750  0.16017944  1.0
  Ga  Ga551  1  0.28440417  0.93551083  0.16017944  1.0
  Ga  Ga552  1  0.61773750  0.26884417  0.16017944  1.0
  Ga  Ga553  1  0.61773750  0.60217750  0.16017944  1.0
  Ga  Ga554  1  0.61773750  0.93551083  0.16017944  1.0
  Ga  Ga555  1  0.95107083  0.26884417  0.16017944  1.0
  Ga  Ga556  1  0.95107083  0.60217750  0.16017944  1.0
  Ga  Ga557  1  0.95107083  0.93551083  0.16017944  1.0
  Ga  Ga558  1  0.05286467  0.05346267  0.19711906  1.0
  Ga  Ga559  1  0.05286467  0.38679600  0.19711906  1.0
  Ga  Ga560  1  0.05286467  0.72012933  0.19711906  1.0
  Ga  Ga561  1  0.38619800  0.05346267  0.19711906  1.0
  Ga  Ga562  1  0.38619800  0.38679600  0.19711906  1.0
  Ga  Ga563  1  0.38619800  0.72012933  0.19711906  1.0
  Ga  Ga564  1  0.71953133  0.05346267  0.19711906  1.0
  Ga  Ga565  1  0.71953133  0.38679600  0.19711906  1.0
  Ga  Ga566  1  0.71953133  0.72012933  0.19711906  1.0
  Ga  Ga567  1  0.21953133  0.22012933  0.14156350  1.0
  Ga  Ga568  1  0.21953133  0.55346267  0.14156350  1.0
  Ga  Ga569  1  0.21953133  0.88679600  0.14156350  1.0
  Ga  Ga570  1  0.55286467  0.22012933  0.14156350  1.0
  Ga  Ga571  1  0.55286467  0.55346267  0.14156350  1.0
  Ga  Ga572  1  0.55286467  0.88679600  0.14156350  1.0
  Ga  Ga573  1  0.88619800  0.22012933  0.14156350  1.0
  Ga  Ga574  1  0.88619800  0.55346267  0.14156350  1.0
  Ga  Ga575  1  0.88619800  0.88679600  0.14156350  1.0
  Ga  Ga576  1  0.11350300  0.11410100  0.14664628  1.0
  Ga  Ga577  1  0.11350300  0.44743433  0.14664628  1.0
  Ga  Ga578  1  0.11350300  0.78076767  0.14664628  1.0
  Ga  Ga579  1  0.44683633  0.11410100  0.14664628  1.0
  Ga  Ga580  1  0.44683633  0.44743433  0.14664628  1.0
  Ga  Ga581  1  0.44683633  0.78076767  0.14664628  1.0
  Ga  Ga582  1  0.78016967  0.11410100  0.14664628  1.0
  Ga  Ga583  1  0.78016967  0.44743433  0.14664628  1.0
  Ga  Ga584  1  0.78016967  0.78076767  0.14664628  1.0
  Ga  Ga585  1  0.28016967  0.28076767  0.20220183  1.0
  Ga  Ga586  1  0.28016967  0.61410100  0.20220183  1.0
  Ga  Ga587  1  0.28016967  0.94743433  0.20220183  1.0
  Ga  Ga588  1  0.61350300  0.28076767  0.20220183  1.0
  Ga  Ga589  1  0.61350300  0.61410100  0.20220183  1.0
  Ga  Ga590  1  0.61350300  0.94743433  0.20220183  1.0
  Ga  Ga591  1  0.94683633  0.28076767  0.20220183  1.0
  Ga  Ga592  1  0.94683633  0.61410100  0.20220183  1.0
  Ga  Ga593  1  0.94683633  0.94743433  0.20220183  1.0
  Ga  Ga594  1  0.05670917  0.04114917  0.15470667  1.0
  Ga  Ga595  1  0.05670917  0.37448250  0.15470667  1.0
  Ga  Ga596  1  0.05670917  0.70781583  0.15470667  1.0
  Ga  Ga597  1  0.39004250  0.04114917  0.15470667  1.0
  Ga  Ga598  1  0.39004250  0.37448250  0.15470667  1.0
  Ga  Ga599  1  0.39004250  0.70781583  0.15470667  1.0
  Ga  Ga600  1  0.72337583  0.04114917  0.15470667  1.0
  Ga  Ga601  1  0.72337583  0.37448250  0.15470667  1.0
  Ga  Ga602  1  0.72337583  0.70781583  0.15470667  1.0
  Ga  Ga603  1  0.22337583  0.20781583  0.21026222  1.0
  Ga  Ga604  1  0.22337583  0.54114917  0.21026222  1.0
  Ga  Ga605  1  0.22337583  0.87448250  0.21026222  1.0
  Ga  Ga606  1  0.55670917  0.20781583  0.21026222  1.0
  Ga  Ga607  1  0.55670917  0.54114917  0.21026222  1.0
  Ga  Ga608  1  0.55670917  0.87448250  0.21026222  1.0
  Ga  Ga609  1  0.89004250  0.20781583  0.21026222  1.0
  Ga  Ga610  1  0.89004250  0.54114917  0.21026222  1.0
  Ga  Ga611  1  0.89004250  0.87448250  0.21026222  1.0
  Ga  Ga612  1  0.06027567  0.27378300  0.16438872  1.0
  Ga  Ga613  1  0.06027567  0.60711633  0.16438872  1.0
  Ga  Ga614  1  0.06027567  0.94044967  0.16438872  1.0
  Ga  Ga615  1  0.39360900  0.27378300  0.16438872  1.0
  Ga  Ga616  1  0.39360900  0.60711633  0.16438872  1.0
  Ga  Ga617  1  0.39360900  0.94044967  0.16438872  1.0
  Ga  Ga618  1  0.72694233  0.27378300  0.16438872  1.0
  Ga  Ga619  1  0.72694233  0.60711633  0.16438872  1.0
  Ga  Ga620  1  0.72694233  0.94044967  0.16438872  1.0
  Ga  Ga621  1  0.22694233  0.10711633  0.21994428  1.0
  Ga  Ga622  1  0.22694233  0.44044967  0.21994428  1.0
  Ga  Ga623  1  0.22694233  0.77378300  0.21994428  1.0
  Ga  Ga624  1  0.56027567  0.10711633  0.21994428  1.0
  Ga  Ga625  1  0.56027567  0.44044967  0.21994428  1.0
  Ga  Ga626  1  0.56027567  0.77378300  0.21994428  1.0
  Ga  Ga627  1  0.89360900  0.10711633  0.21994428  1.0
  Ga  Ga628  1  0.89360900  0.44044967  0.21994428  1.0
  Ga  Ga629  1  0.89360900  0.77378300  0.21994428  1.0
  Ga  Ga630  1  0.05321467  0.06696600  0.12996206  1.0
  Ga  Ga631  1  0.05321467  0.40029933  0.12996206  1.0
  Ga  Ga632  1  0.05321467  0.73363267  0.12996206  1.0
  Ga  Ga633  1  0.38654800  0.06696600  0.12996206  1.0
  Ga  Ga634  1  0.38654800  0.40029933  0.12996206  1.0
  Ga  Ga635  1  0.38654800  0.73363267  0.12996206  1.0
  Ga  Ga636  1  0.71988133  0.06696600  0.12996206  1.0
  Ga  Ga637  1  0.71988133  0.40029933  0.12996206  1.0
  Ga  Ga638  1  0.71988133  0.73363267  0.12996206  1.0
  Ga  Ga639  1  0.21988133  0.23363267  0.18551761  1.0
  Ga  Ga640  1  0.21988133  0.56696600  0.18551761  1.0
  Ga  Ga641  1  0.21988133  0.90029933  0.18551761  1.0
  Ga  Ga642  1  0.55321467  0.23363267  0.18551761  1.0
  Ga  Ga643  1  0.55321467  0.56696600  0.18551761  1.0
  Ga  Ga644  1  0.55321467  0.90029933  0.18551761  1.0
  Ga  Ga645  1  0.88654800  0.23363267  0.18551761  1.0
  Ga  Ga646  1  0.88654800  0.56696600  0.18551761  1.0
  Ga  Ga647  1  0.88654800  0.90029933  0.18551761  1.0
  Ga  Ga648  1  0.10735783  0.01125983  0.18924211  1.0
  Ga  Ga649  1  0.10735783  0.34459317  0.18924211  1.0
  Ga  Ga650  1  0.10735783  0.67792650  0.18924211  1.0
  Ga  Ga651  1  0.44069117  0.01125983  0.18924211  1.0
  Ga  Ga652  1  0.44069117  0.34459317  0.18924211  1.0
  Ga  Ga653  1  0.44069117  0.67792650  0.18924211  1.0
  Ga  Ga654  1  0.77402450  0.01125983  0.18924211  1.0
  Ga  Ga655  1  0.77402450  0.34459317  0.18924211  1.0
  Ga  Ga656  1  0.77402450  0.67792650  0.18924211  1.0
  Ga  Ga657  1  0.27402450  0.17792650  0.13368656  1.0
  Ga  Ga658  1  0.27402450  0.51125983  0.13368656  1.0
  Ga  Ga659  1  0.27402450  0.84459317  0.13368656  1.0
  Ga  Ga660  1  0.60735783  0.17792650  0.13368656  1.0
  Ga  Ga661  1  0.60735783  0.51125983  0.13368656  1.0
  Ga  Ga662  1  0.60735783  0.84459317  0.13368656  1.0
  Ga  Ga663  1  0.94069117  0.17792650  0.13368656  1.0
  Ga  Ga664  1  0.94069117  0.51125983  0.13368656  1.0
  Ga  Ga665  1  0.94069117  0.84459317  0.13368656  1.0
  Ga  Ga666  1  0.10657633  0.12032767  0.18332372  1.0
  Ga  Ga667  1  0.10657633  0.45366100  0.18332372  1.0
  Ga  Ga668  1  0.10657633  0.78699433  0.18332372  1.0
  Ga  Ga669  1  0.43990967  0.12032767  0.18332372  1.0
  Ga  Ga670  1  0.43990967  0.45366100  0.18332372  1.0
  Ga  Ga671  1  0.43990967  0.78699433  0.18332372  1.0
  Ga  Ga672  1  0.77324300  0.12032767  0.18332372  1.0
  Ga  Ga673  1  0.77324300  0.45366100  0.18332372  1.0
  Ga  Ga674  1  0.77324300  0.78699433  0.18332372  1.0
  Ga  Ga675  1  0.27324300  0.28699433  0.12776817  1.0
  Ga  Ga676  1  0.27324300  0.62032767  0.12776817  1.0
  Ga  Ga677  1  0.27324300  0.95366100  0.12776817  1.0
  Ga  Ga678  1  0.60657633  0.28699433  0.12776817  1.0
  Ga  Ga679  1  0.60657633  0.62032767  0.12776817  1.0
  Ga  Ga680  1  0.60657633  0.95366100  0.12776817  1.0
  Ga  Ga681  1  0.93990967  0.28699433  0.12776817  1.0
  Ga  Ga682  1  0.93990967  0.62032767  0.12776817  1.0
  Ga  Ga683  1  0.93990967  0.95366100  0.12776817  1.0
  Ga  Ga684  1  0.16549800  0.17017267  0.19675972  1.0
  Ga  Ga685  1  0.16549800  0.50350600  0.19675972  1.0
  Ga  Ga686  1  0.16549800  0.83683933  0.19675972  1.0
  Ga  Ga687  1  0.49883133  0.17017267  0.19675972  1.0
  Ga  Ga688  1  0.49883133  0.50350600  0.19675972  1.0
  Ga  Ga689  1  0.49883133  0.83683933  0.19675972  1.0
  Ga  Ga690  1  0.83216467  0.17017267  0.19675972  1.0
  Ga  Ga691  1  0.83216467  0.50350600  0.19675972  1.0
  Ga  Ga692  1  0.83216467  0.83683933  0.19675972  1.0
  Ga  Ga693  1  0.33216467  0.00350600  0.14120417  1.0
  Ga  Ga694  1  0.33216467  0.33683933  0.14120417  1.0
  Ga  Ga695  1  0.33216467  0.67017267  0.14120417  1.0
  Ga  Ga696  1  0.66549800  0.00350600  0.14120417  1.0
  Ga  Ga697  1  0.66549800  0.33683933  0.14120417  1.0
  Ga  Ga698  1  0.66549800  0.67017267  0.14120417  1.0
  Ga  Ga699  1  0.99883133  0.00350600  0.14120417  1.0
  Ga  Ga700  1  0.99883133  0.33683933  0.14120417  1.0
  Ga  Ga701  1  0.99883133  0.67017267  0.14120417  1.0
  Ga  Ga702  1  0.00388183  0.23738550  0.15681067  1.0
  Ga  Ga703  1  0.00388183  0.57071883  0.15681067  1.0
  Ga  Ga704  1  0.00388183  0.90405217  0.15681067  1.0
  Ga  Ga705  1  0.33721517  0.23738550  0.15681067  1.0
  Ga  Ga706  1  0.33721517  0.57071883  0.15681067  1.0
  Ga  Ga707  1  0.33721517  0.90405217  0.15681067  1.0
  Ga  Ga708  1  0.67054850  0.23738550  0.15681067  1.0
  Ga  Ga709  1  0.67054850  0.57071883  0.15681067  1.0
  Ga  Ga710  1  0.67054850  0.90405217  0.15681067  1.0
  Ga  Ga711  1  0.17054850  0.07071883  0.21236622  1.0
  Ga  Ga712  1  0.17054850  0.40405217  0.21236622  1.0
  Ga  Ga713  1  0.17054850  0.73738550  0.21236622  1.0
  Ga  Ga714  1  0.50388183  0.07071883  0.21236622  1.0
  Ga  Ga715  1  0.50388183  0.40405217  0.21236622  1.0
  Ga  Ga716  1  0.50388183  0.73738550  0.21236622  1.0
  Ga  Ga717  1  0.83721517  0.07071883  0.21236622  1.0
  Ga  Ga718  1  0.83721517  0.40405217  0.21236622  1.0
  Ga  Ga719  1  0.83721517  0.73738550  0.21236622  1.0
  Ga  Ga720  1  0.04603300  0.27953667  0.19896183  1.0
  Ga  Ga721  1  0.04603300  0.61287000  0.19896183  1.0
  Ga  Ga722  1  0.04603300  0.94620333  0.19896183  1.0
  Ga  Ga723  1  0.37936633  0.27953667  0.19896183  1.0
  Ga  Ga724  1  0.37936633  0.61287000  0.19896183  1.0
  Ga  Ga725  1  0.37936633  0.94620333  0.19896183  1.0
  Ga  Ga726  1  0.71269967  0.27953667  0.19896183  1.0
  Ga  Ga727  1  0.71269967  0.61287000  0.19896183  1.0
  Ga  Ga728  1  0.71269967  0.94620333  0.19896183  1.0
  Ga  Ga729  1  0.21269967  0.11287000  0.14340628  1.0
  Ga  Ga730  1  0.21269967  0.44620333  0.14340628  1.0
  Ga  Ga731  1  0.21269967  0.77953667  0.14340628  1.0
  Ga  Ga732  1  0.54603300  0.11287000  0.14340628  1.0
  Ga  Ga733  1  0.54603300  0.44620333  0.14340628  1.0
  Ga  Ga734  1  0.54603300  0.77953667  0.14340628  1.0
  Ga  Ga735  1  0.87936633  0.11287000  0.14340628  1.0
  Ga  Ga736  1  0.87936633  0.44620333  0.14340628  1.0
  Ga  Ga737  1  0.87936633  0.77953667  0.14340628  1.0
  Ga  Ga738  1  0.11916967  0.30915767  0.21220250  1.0
  Ga  Ga739  1  0.11916967  0.64249100  0.21220250  1.0
  Ga  Ga740  1  0.11916967  0.97582433  0.21220250  1.0
  Ga  Ga741  1  0.45250300  0.30915767  0.21220250  1.0
  Ga  Ga742  1  0.45250300  0.64249100  0.21220250  1.0
  Ga  Ga743  1  0.45250300  0.97582433  0.21220250  1.0
  Ga  Ga744  1  0.78583633  0.30915767  0.21220250  1.0
  Ga  Ga745  1  0.78583633  0.64249100  0.21220250  1.0
  Ga  Ga746  1  0.78583633  0.97582433  0.21220250  1.0
  Ga  Ga747  1  0.28583633  0.14249100  0.15664694  1.0
  Ga  Ga748  1  0.28583633  0.47582433  0.15664694  1.0
  Ga  Ga749  1  0.28583633  0.80915767  0.15664694  1.0
  Ga  Ga750  1  0.61916967  0.14249100  0.15664694  1.0
  Ga  Ga751  1  0.61916967  0.47582433  0.15664694  1.0
  Ga  Ga752  1  0.61916967  0.80915767  0.15664694  1.0
  Ga  Ga753  1  0.95250300  0.14249100  0.15664694  1.0
  Ga  Ga754  1  0.95250300  0.47582433  0.15664694  1.0
  Ga  Ga755  1  0.95250300  0.80915767  0.15664694  1.0
  Ga  Ga756  1  0.00046350  0.33194283  0.18308444  1.0
  Ga  Ga757  1  0.00046350  0.66527617  0.18308444  1.0
  Ga  Ga758  1  0.00046350  0.99860950  0.18308444  1.0
  Ga  Ga759  1  0.33379683  0.33194283  0.18308444  1.0
  Ga  Ga760  1  0.33379683  0.66527617  0.18308444  1.0
  Ga  Ga761  1  0.33379683  0.99860950  0.18308444  1.0
  Ga  Ga762  1  0.66713017  0.33194283  0.18308444  1.0
  Ga  Ga763  1  0.66713017  0.66527617  0.18308444  1.0
  Ga  Ga764  1  0.66713017  0.99860950  0.18308444  1.0
  Ga  Ga765  1  0.16713017  0.16527617  0.12752889  1.0
  Ga  Ga766  1  0.16713017  0.49860950  0.12752889  1.0
  Ga  Ga767  1  0.16713017  0.83194283  0.12752889  1.0
  Ga  Ga768  1  0.50046350  0.16527617  0.12752889  1.0
  Ga  Ga769  1  0.50046350  0.49860950  0.12752889  1.0
  Ga  Ga770  1  0.50046350  0.83194283  0.12752889  1.0
  Ga  Ga771  1  0.83379683  0.16527617  0.12752889  1.0
  Ga  Ga772  1  0.83379683  0.49860950  0.12752889  1.0
  Ga  Ga773  1  0.83379683  0.83194283  0.12752889  1.0
  Ga  Ga774  1  0.16641383  0.27286750  0.12353156  1.0
  Ga  Ga775  1  0.16641383  0.60620083  0.12353156  1.0
  Ga  Ga776  1  0.16641383  0.93953417  0.12353156  1.0
  Ga  Ga777  1  0.49974717  0.27286750  0.12353156  1.0
  Ga  Ga778  1  0.49974717  0.60620083  0.12353156  1.0
  Ga  Ga779  1  0.49974717  0.93953417  0.12353156  1.0
  Ga  Ga780  1  0.83308050  0.27286750  0.12353156  1.0
  Ga  Ga781  1  0.83308050  0.60620083  0.12353156  1.0
  Ga  Ga782  1  0.83308050  0.93953417  0.12353156  1.0
  Ga  Ga783  1  0.33308050  0.10620083  0.17908711  1.0
  Ga  Ga784  1  0.33308050  0.43953417  0.17908711  1.0
  Ga  Ga785  1  0.33308050  0.77286750  0.17908711  1.0
  Ga  Ga786  1  0.66641383  0.10620083  0.17908711  1.0
  Ga  Ga787  1  0.66641383  0.43953417  0.17908711  1.0
  Ga  Ga788  1  0.66641383  0.77286750  0.17908711  1.0
  Ga  Ga789  1  0.99974717  0.10620083  0.17908711  1.0
  Ga  Ga790  1  0.99974717  0.43953417  0.17908711  1.0
  Ga  Ga791  1  0.99974717  0.77286750  0.17908711  1.0
  Ga  Ga792  1  0.11369267  0.22014633  0.18192150  1.0
  Ga  Ga793  1  0.11369267  0.55347967  0.18192150  1.0
  Ga  Ga794  1  0.11369267  0.88681300  0.18192150  1.0
  Ga  Ga795  1  0.44702600  0.22014633  0.18192150  1.0
  Ga  Ga796  1  0.44702600  0.55347967  0.18192150  1.0
  Ga  Ga797  1  0.44702600  0.88681300  0.18192150  1.0
  Ga  Ga798  1  0.78035933  0.22014633  0.18192150  1.0
  Ga  Ga799  1  0.78035933  0.55347967  0.18192150  1.0
  Ga  Ga800  1  0.78035933  0.88681300  0.18192150  1.0
  Ga  Ga801  1  0.28035933  0.05347967  0.12636594  1.0
  Ga  Ga802  1  0.28035933  0.38681300  0.12636594  1.0
  Ga  Ga803  1  0.28035933  0.72014633  0.12636594  1.0
  Ga  Ga804  1  0.61369267  0.05347967  0.12636594  1.0
  Ga  Ga805  1  0.61369267  0.38681300  0.12636594  1.0
  Ga  Ga806  1  0.61369267  0.72014633  0.12636594  1.0
  Ga  Ga807  1  0.94702600  0.05347967  0.12636594  1.0
  Ga  Ga808  1  0.94702600  0.38681300  0.12636594  1.0
  Ga  Ga809  1  0.94702600  0.72014633  0.12636594  1.0
  Ga  Ga810  1  0.05390100  0.17163033  0.16527194  1.0
  Ga  Ga811  1  0.05390100  0.50496367  0.16527194  1.0
  Ga  Ga812  1  0.05390100  0.83829700  0.16527194  1.0
  Ga  Ga813  1  0.38723433  0.17163033  0.16527194  1.0
  Ga  Ga814  1  0.38723433  0.50496367  0.16527194  1.0
  Ga  Ga815  1  0.38723433  0.83829700  0.16527194  1.0
  Ga  Ga816  1  0.72056767  0.17163033  0.16527194  1.0
  Ga  Ga817  1  0.72056767  0.50496367  0.16527194  1.0
  Ga  Ga818  1  0.72056767  0.83829700  0.16527194  1.0
  Ga  Ga819  1  0.22056767  0.00496367  0.22082750  1.0
  Ga  Ga820  1  0.22056767  0.33829700  0.22082750  1.0
  Ga  Ga821  1  0.22056767  0.67163033  0.22082750  1.0
  Ga  Ga822  1  0.55390100  0.00496367  0.22082750  1.0
  Ga  Ga823  1  0.55390100  0.33829700  0.22082750  1.0
  Ga  Ga824  1  0.55390100  0.67163033  0.22082750  1.0
  Ga  Ga825  1  0.88723433  0.00496367  0.22082750  1.0
  Ga  Ga826  1  0.88723433  0.33829700  0.22082750  1.0
  Ga  Ga827  1  0.88723433  0.67163033  0.22082750  1.0
  Ga  Ga828  1  0.10619283  0.01475483  0.15360500  1.0
  Ga  Ga829  1  0.10619283  0.34808817  0.15360500  1.0
  Ga  Ga830  1  0.10619283  0.68142150  0.15360500  1.0
  Ga  Ga831  1  0.43952617  0.01475483  0.15360500  1.0
  Ga  Ga832  1  0.43952617  0.34808817  0.15360500  1.0
  Ga  Ga833  1  0.43952617  0.68142150  0.15360500  1.0
  Ga  Ga834  1  0.77285950  0.01475483  0.15360500  1.0
  Ga  Ga835  1  0.77285950  0.34808817  0.15360500  1.0
  Ga  Ga836  1  0.77285950  0.68142150  0.15360500  1.0
  Ga  Ga837  1  0.27285950  0.18142150  0.20916056  1.0
  Ga  Ga838  1  0.27285950  0.51475483  0.20916056  1.0
  Ga  Ga839  1  0.27285950  0.84808817  0.20916056  1.0
  Ga  Ga840  1  0.60619283  0.18142150  0.20916056  1.0
  Ga  Ga841  1  0.60619283  0.51475483  0.20916056  1.0
  Ga  Ga842  1  0.60619283  0.84808817  0.20916056  1.0
  Ga  Ga843  1  0.93952617  0.18142150  0.20916056  1.0
  Ga  Ga844  1  0.93952617  0.51475483  0.20916056  1.0
  Ga  Ga845  1  0.93952617  0.84808817  0.20916056  1.0
  Ni  Ni846  1  0.05428267  0.28051200  0.12699494  1.0
  Ni  Ni847  1  0.05428267  0.61384533  0.12699494  1.0
  Ni  Ni848  1  0.05428267  0.94717867  0.12699494  1.0
  Ni  Ni849  1  0.38761600  0.28051200  0.12699494  1.0
  Ni  Ni850  1  0.38761600  0.61384533  0.12699494  1.0
  Ni  Ni851  1  0.38761600  0.94717867  0.12699494  1.0
  Ni  Ni852  1  0.72094933  0.28051200  0.12699494  1.0
  Ni  Ni853  1  0.72094933  0.61384533  0.12699494  1.0
  Ni  Ni854  1  0.72094933  0.94717867  0.12699494  1.0
  Ni  Ni855  1  0.22094933  0.11384533  0.18255050  1.0
  Ni  Ni856  1  0.22094933  0.44717867  0.18255050  1.0
  Ni  Ni857  1  0.22094933  0.78051200  0.18255050  1.0
  Ni  Ni858  1  0.55428267  0.11384533  0.18255050  1.0
  Ni  Ni859  1  0.55428267  0.44717867  0.18255050  1.0
  Ni  Ni860  1  0.55428267  0.78051200  0.18255050  1.0
  Ni  Ni861  1  0.88761600  0.11384533  0.18255050  1.0
  Ni  Ni862  1  0.88761600  0.44717867  0.18255050  1.0
  Ni  Ni863  1  0.88761600  0.78051200  0.18255050  1.0
  Ni  Ni864  1  0.16593600  0.05883200  0.12753717  1.0
  Ni  Ni865  1  0.16593600  0.39216533  0.12753717  1.0
  Ni  Ni866  1  0.16593600  0.72549867  0.12753717  1.0
  Ni  Ni867  1  0.49926933  0.05883200  0.12753717  1.0
  Ni  Ni868  1  0.49926933  0.39216533  0.12753717  1.0
  Ni  Ni869  1  0.49926933  0.72549867  0.12753717  1.0
  Ni  Ni870  1  0.83260267  0.05883200  0.12753717  1.0
  Ni  Ni871  1  0.83260267  0.39216533  0.12753717  1.0
  Ni  Ni872  1  0.83260267  0.72549867  0.12753717  1.0
  Ni  Ni873  1  0.33260267  0.22549867  0.18309272  1.0
  Ni  Ni874  1  0.33260267  0.55883200  0.18309272  1.0
  Ni  Ni875  1  0.33260267  0.89216533  0.18309272  1.0
  Ni  Ni876  1  0.66593600  0.22549867  0.18309272  1.0
  Ni  Ni877  1  0.66593600  0.55883200  0.18309272  1.0
  Ni  Ni878  1  0.66593600  0.89216533  0.18309272  1.0
  Ni  Ni879  1  0.99926933  0.22549867  0.18309272  1.0
  Ni  Ni880  1  0.99926933  0.55883200  0.18309272  1.0
  Ni  Ni881  1  0.99926933  0.89216533  0.18309272  1.0
  Ni  Ni882  1  0.05718550  0.16177683  0.12417278  1.0
  Ni  Ni883  1  0.05718550  0.49511017  0.12417278  1.0
  Ni  Ni884  1  0.05718550  0.82844350  0.12417278  1.0
  Ni  Ni885  1  0.39051883  0.16177683  0.12417278  1.0
  Ni  Ni886  1  0.39051883  0.49511017  0.12417278  1.0
  Ni  Ni887  1  0.39051883  0.82844350  0.12417278  1.0
  Ni  Ni888  1  0.72385217  0.16177683  0.12417278  1.0
  Ni  Ni889  1  0.72385217  0.49511017  0.12417278  1.0
  Ni  Ni890  1  0.72385217  0.82844350  0.12417278  1.0
  Ni  Ni891  1  0.22385217  0.32844350  0.17972833  1.0
  Ni  Ni892  1  0.22385217  0.66177683  0.17972833  1.0
  Ni  Ni893  1  0.22385217  0.99511017  0.17972833  1.0
  Ni  Ni894  1  0.55718550  0.32844350  0.17972833  1.0
  Ni  Ni895  1  0.55718550  0.66177683  0.17972833  1.0
  Ni  Ni896  1  0.55718550  0.99511017  0.17972833  1.0
  Ni  Ni897  1  0.89051883  0.32844350  0.17972833  1.0
  Ni  Ni898  1  0.89051883  0.66177683  0.17972833  1.0
  Ni  Ni899  1  0.89051883  0.99511017  0.17972833  1.0
  Ni  Ni900  1  0.11231983  0.21968050  0.14540922  1.0
  Ni  Ni901  1  0.11231983  0.55301383  0.14540922  1.0
  Ni  Ni902  1  0.11231983  0.88634717  0.14540922  1.0
  Ni  Ni903  1  0.44565317  0.21968050  0.14540922  1.0
  Ni  Ni904  1  0.44565317  0.55301383  0.14540922  1.0
  Ni  Ni905  1  0.44565317  0.88634717  0.14540922  1.0
  Ni  Ni906  1  0.77898650  0.21968050  0.14540922  1.0
  Ni  Ni907  1  0.77898650  0.55301383  0.14540922  1.0
  Ni  Ni908  1  0.77898650  0.88634717  0.14540922  1.0
  Ni  Ni909  1  0.27898650  0.05301383  0.20096478  1.0
  Ni  Ni910  1  0.27898650  0.38634717  0.20096478  1.0
  Ni  Ni911  1  0.27898650  0.71968050  0.20096478  1.0
  Ni  Ni912  1  0.61231983  0.05301383  0.20096478  1.0
  Ni  Ni913  1  0.61231983  0.38634717  0.20096478  1.0
  Ni  Ni914  1  0.61231983  0.71968050  0.20096478  1.0
  Ni  Ni915  1  0.94565317  0.05301383  0.20096478  1.0
  Ni  Ni916  1  0.94565317  0.38634717  0.20096478  1.0
  Ni  Ni917  1  0.94565317  0.71968050  0.20096478  1.0
  Ni  Ni918  1  0.00066650  0.10802717  0.14486700  1.0
  Ni  Ni919  1  0.00066650  0.44136050  0.14486700  1.0
  Ni  Ni920  1  0.00066650  0.77469383  0.14486700  1.0
  Ni  Ni921  1  0.33399983  0.10802717  0.14486700  1.0
  Ni  Ni922  1  0.33399983  0.44136050  0.14486700  1.0
  Ni  Ni923  1  0.33399983  0.77469383  0.14486700  1.0
  Ni  Ni924  1  0.66733317  0.10802717  0.14486700  1.0
  Ni  Ni925  1  0.66733317  0.44136050  0.14486700  1.0
  Ni  Ni926  1  0.66733317  0.77469383  0.14486700  1.0
  Ni  Ni927  1  0.16733317  0.27469383  0.20042256  1.0
  Ni  Ni928  1  0.16733317  0.60802717  0.20042256  1.0
  Ni  Ni929  1  0.16733317  0.94136050  0.20042256  1.0
  Ni  Ni930  1  0.50066650  0.27469383  0.20042256  1.0
  Ni  Ni931  1  0.50066650  0.60802717  0.20042256  1.0
  Ni  Ni932  1  0.50066650  0.94136050  0.20042256  1.0
  Ni  Ni933  1  0.83399983  0.27469383  0.20042256  1.0
  Ni  Ni934  1  0.83399983  0.60802717  0.20042256  1.0
  Ni  Ni935  1  0.83399983  0.94136050  0.20042256  1.0
  Ga  Ga936  1  0.00109617  0.10343483  0.32959489  1.0
  Ga  Ga937  1  0.00109617  0.43676817  0.32959489  1.0
  Ga  Ga938  1  0.00109617  0.77010150  0.32959489  1.0
  Ga  Ga939  1  0.33442950  0.10343483  0.32959489  1.0
  Ga  Ga940  1  0.33442950  0.43676817  0.32959489  1.0
  Ga  Ga941  1  0.33442950  0.77010150  0.32959489  1.0
  Ga  Ga942  1  0.66776283  0.10343483  0.32959489  1.0
  Ga  Ga943  1  0.66776283  0.43676817  0.32959489  1.0
  Ga  Ga944  1  0.66776283  0.77010150  0.32959489  1.0
  Ga  Ga945  1  0.16776283  0.27010150  0.27403933  1.0
  Ga  Ga946  1  0.16776283  0.60343483  0.27403933  1.0
  Ga  Ga947  1  0.16776283  0.93676817  0.27403933  1.0
  Ga  Ga948  1  0.50109617  0.27010150  0.27403933  1.0
  Ga  Ga949  1  0.50109617  0.60343483  0.27403933  1.0
  Ga  Ga950  1  0.50109617  0.93676817  0.27403933  1.0
  Ga  Ga951  1  0.83442950  0.27010150  0.27403933  1.0
  Ga  Ga952  1  0.83442950  0.60343483  0.27403933  1.0
  Ga  Ga953  1  0.83442950  0.93676817  0.27403933  1.0
  Ga  Ga954  1  0.05098967  0.18036433  0.31914261  1.0
  Ga  Ga955  1  0.05098967  0.51369767  0.31914261  1.0
  Ga  Ga956  1  0.05098967  0.84703100  0.31914261  1.0
  Ga  Ga957  1  0.38432300  0.18036433  0.31914261  1.0
  Ga  Ga958  1  0.38432300  0.51369767  0.31914261  1.0
  Ga  Ga959  1  0.38432300  0.84703100  0.31914261  1.0
  Ga  Ga960  1  0.71765633  0.18036433  0.31914261  1.0
  Ga  Ga961  1  0.71765633  0.51369767  0.31914261  1.0
  Ga  Ga962  1  0.71765633  0.84703100  0.31914261  1.0
  Ga  Ga963  1  0.21765633  0.01369767  0.26358706  1.0
  Ga  Ga964  1  0.21765633  0.34703100  0.26358706  1.0
  Ga  Ga965  1  0.21765633  0.68036433  0.26358706  1.0
  Ga  Ga966  1  0.55098967  0.01369767  0.26358706  1.0
  Ga  Ga967  1  0.55098967  0.34703100  0.26358706  1.0
  Ga  Ga968  1  0.55098967  0.68036433  0.26358706  1.0
  Ga  Ga969  1  0.88432300  0.01369767  0.26358706  1.0
  Ga  Ga970  1  0.88432300  0.34703100  0.26358706  1.0
  Ga  Ga971  1  0.88432300  0.68036433  0.26358706  1.0
  Ga  Ga972  1  0.11440117  0.21673983  0.33178878  1.0
  Ga  Ga973  1  0.11440117  0.55007317  0.33178878  1.0
  Ga  Ga974  1  0.11440117  0.88340650  0.33178878  1.0
  Ga  Ga975  1  0.44773450  0.21673983  0.33178878  1.0
  Ga  Ga976  1  0.44773450  0.55007317  0.33178878  1.0
  Ga  Ga977  1  0.44773450  0.88340650  0.33178878  1.0
  Ga  Ga978  1  0.78106783  0.21673983  0.33178878  1.0
  Ga  Ga979  1  0.78106783  0.55007317  0.33178878  1.0
  Ga  Ga980  1  0.78106783  0.88340650  0.33178878  1.0
  Ga  Ga981  1  0.28106783  0.05007317  0.27623322  1.0
  Ga  Ga982  1  0.28106783  0.38340650  0.27623322  1.0
  Ga  Ga983  1  0.28106783  0.71673983  0.27623322  1.0
  Ga  Ga984  1  0.61440117  0.05007317  0.27623322  1.0
  Ga  Ga985  1  0.61440117  0.38340650  0.27623322  1.0
  Ga  Ga986  1  0.61440117  0.71673983  0.27623322  1.0
  Ga  Ga987  1  0.94773450  0.05007317  0.27623322  1.0
  Ga  Ga988  1  0.94773450  0.38340650  0.27623322  1.0
  Ga  Ga989  1  0.94773450  0.71673983  0.27623322  1.0
  Ga  Ga990  1  0.16630400  0.04647800  0.27041706  1.0
  Ga  Ga991  1  0.16630400  0.37981133  0.27041706  1.0
  Ga  Ga992  1  0.16630400  0.71314467  0.27041706  1.0
  Ga  Ga993  1  0.49963733  0.04647800  0.27041706  1.0
  Ga  Ga994  1  0.49963733  0.37981133  0.27041706  1.0
  Ga  Ga995  1  0.49963733  0.71314467  0.27041706  1.0
  Ga  Ga996  1  0.83297067  0.04647800  0.27041706  1.0
  Ga  Ga997  1  0.83297067  0.37981133  0.27041706  1.0
  Ga  Ga998  1  0.83297067  0.71314467  0.27041706  1.0
  Ga  Ga999  1  0.33297067  0.21314467  0.32597261  1.0
  Ga  Ga1000  1  0.33297067  0.54647800  0.32597261  1.0
  Ga  Ga1001  1  0.33297067  0.87981133  0.32597261  1.0
  Ga  Ga1002  1  0.66630400  0.21314467  0.32597261  1.0
  Ga  Ga1003  1  0.66630400  0.54647800  0.32597261  1.0
  Ga  Ga1004  1  0.66630400  0.87981133  0.32597261  1.0
  Ga  Ga1005  1  0.99963733  0.21314467  0.32597261  1.0
  Ga  Ga1006  1  0.99963733  0.54647800  0.32597261  1.0
  Ga  Ga1007  1  0.99963733  0.87981133  0.32597261  1.0
  Ga  Ga1008  1  0.11773750  0.10217750  0.32684611  1.0
  Ga  Ga1009  1  0.11773750  0.43551083  0.32684611  1.0
  Ga  Ga1010  1  0.11773750  0.76884417  0.32684611  1.0
  Ga  Ga1011  1  0.45107083  0.10217750  0.32684611  1.0
  Ga  Ga1012  1  0.45107083  0.43551083  0.32684611  1.0
  Ga  Ga1013  1  0.45107083  0.76884417  0.32684611  1.0
  Ga  Ga1014  1  0.78440417  0.10217750  0.32684611  1.0
  Ga  Ga1015  1  0.78440417  0.43551083  0.32684611  1.0
  Ga  Ga1016  1  0.78440417  0.76884417  0.32684611  1.0
  Ga  Ga1017  1  0.28440417  0.26884417  0.27129056  1.0
  Ga  Ga1018  1  0.28440417  0.60217750  0.27129056  1.0
  Ga  Ga1019  1  0.28440417  0.93551083  0.27129056  1.0
  Ga  Ga1020  1  0.61773750  0.26884417  0.27129056  1.0
  Ga  Ga1021  1  0.61773750  0.60217750  0.27129056  1.0
  Ga  Ga1022  1  0.61773750  0.93551083  0.27129056  1.0
  Ga  Ga1023  1  0.95107083  0.26884417  0.27129056  1.0
  Ga  Ga1024  1  0.95107083  0.60217750  0.27129056  1.0
  Ga  Ga1025  1  0.95107083  0.93551083  0.27129056  1.0
  Ga  Ga1026  1  0.05286467  0.05346267  0.30823017  1.0
  Ga  Ga1027  1  0.05286467  0.38679600  0.30823017  1.0
  Ga  Ga1028  1  0.05286467  0.72012933  0.30823017  1.0
  Ga  Ga1029  1  0.38619800  0.05346267  0.30823017  1.0
  Ga  Ga1030  1  0.38619800  0.38679600  0.30823017  1.0
  Ga  Ga1031  1  0.38619800  0.72012933  0.30823017  1.0
  Ga  Ga1032  1  0.71953133  0.05346267  0.30823017  1.0
  Ga  Ga1033  1  0.71953133  0.38679600  0.30823017  1.0
  Ga  Ga1034  1  0.71953133  0.72012933  0.30823017  1.0
  Ga  Ga1035  1  0.21953133  0.22012933  0.25267461  1.0
  Ga  Ga1036  1  0.21953133  0.55346267  0.25267461  1.0
  Ga  Ga1037  1  0.21953133  0.88679600  0.25267461  1.0
  Ga  Ga1038  1  0.55286467  0.22012933  0.25267461  1.0
  Ga  Ga1039  1  0.55286467  0.55346267  0.25267461  1.0
  Ga  Ga1040  1  0.55286467  0.88679600  0.25267461  1.0
  Ga  Ga1041  1  0.88619800  0.22012933  0.25267461  1.0
  Ga  Ga1042  1  0.88619800  0.55346267  0.25267461  1.0
  Ga  Ga1043  1  0.88619800  0.88679600  0.25267461  1.0
  Ga  Ga1044  1  0.11350300  0.11410100  0.25775739  1.0
  Ga  Ga1045  1  0.11350300  0.44743433  0.25775739  1.0
  Ga  Ga1046  1  0.11350300  0.78076767  0.25775739  1.0
  Ga  Ga1047  1  0.44683633  0.11410100  0.25775739  1.0
  Ga  Ga1048  1  0.44683633  0.44743433  0.25775739  1.0
  Ga  Ga1049  1  0.44683633  0.78076767  0.25775739  1.0
  Ga  Ga1050  1  0.78016967  0.11410100  0.25775739  1.0
  Ga  Ga1051  1  0.78016967  0.44743433  0.25775739  1.0
  Ga  Ga1052  1  0.78016967  0.78076767  0.25775739  1.0
  Ga  Ga1053  1  0.28016967  0.28076767  0.31331294  1.0
  Ga  Ga1054  1  0.28016967  0.61410100  0.31331294  1.0
  Ga  Ga1055  1  0.28016967  0.94743433  0.31331294  1.0
  Ga  Ga1056  1  0.61350300  0.28076767  0.31331294  1.0
  Ga  Ga1057  1  0.61350300  0.61410100  0.31331294  1.0
  Ga  Ga1058  1  0.61350300  0.94743433  0.31331294  1.0
  Ga  Ga1059  1  0.94683633  0.28076767  0.31331294  1.0
  Ga  Ga1060  1  0.94683633  0.61410100  0.31331294  1.0
  Ga  Ga1061  1  0.94683633  0.94743433  0.31331294  1.0
  Ga  Ga1062  1  0.05670917  0.04114917  0.26581778  1.0
  Ga  Ga1063  1  0.05670917  0.37448250  0.26581778  1.0
  Ga  Ga1064  1  0.05670917  0.70781583  0.26581778  1.0
  Ga  Ga1065  1  0.39004250  0.04114917  0.26581778  1.0
  Ga  Ga1066  1  0.39004250  0.37448250  0.26581778  1.0
  Ga  Ga1067  1  0.39004250  0.70781583  0.26581778  1.0
  Ga  Ga1068  1  0.72337583  0.04114917  0.26581778  1.0
  Ga  Ga1069  1  0.72337583  0.37448250  0.26581778  1.0
  Ga  Ga1070  1  0.72337583  0.70781583  0.26581778  1.0
  Ga  Ga1071  1  0.22337583  0.20781583  0.32137333  1.0
  Ga  Ga1072  1  0.22337583  0.54114917  0.32137333  1.0
  Ga  Ga1073  1  0.22337583  0.87448250  0.32137333  1.0
  Ga  Ga1074  1  0.55670917  0.20781583  0.32137333  1.0
  Ga  Ga1075  1  0.55670917  0.54114917  0.32137333  1.0
  Ga  Ga1076  1  0.55670917  0.87448250  0.32137333  1.0
  Ga  Ga1077  1  0.89004250  0.20781583  0.32137333  1.0
  Ga  Ga1078  1  0.89004250  0.54114917  0.32137333  1.0
  Ga  Ga1079  1  0.89004250  0.87448250  0.32137333  1.0
  Ga  Ga1080  1  0.06027567  0.27378300  0.27549983  1.0
  Ga  Ga1081  1  0.06027567  0.60711633  0.27549983  1.0
  Ga  Ga1082  1  0.06027567  0.94044967  0.27549983  1.0
  Ga  Ga1083  1  0.39360900  0.27378300  0.27549983  1.0
  Ga  Ga1084  1  0.39360900  0.60711633  0.27549983  1.0
  Ga  Ga1085  1  0.39360900  0.94044967  0.27549983  1.0
  Ga  Ga1086  1  0.72694233  0.27378300  0.27549983  1.0
  Ga  Ga1087  1  0.72694233  0.60711633  0.27549983  1.0
  Ga  Ga1088  1  0.72694233  0.94044967  0.27549983  1.0
  Ga  Ga1089  1  0.22694233  0.10711633  0.33105539  1.0
  Ga  Ga1090  1  0.22694233  0.44044967  0.33105539  1.0
  Ga  Ga1091  1  0.22694233  0.77378300  0.33105539  1.0
  Ga  Ga1092  1  0.56027567  0.10711633  0.33105539  1.0
  Ga  Ga1093  1  0.56027567  0.44044967  0.33105539  1.0
  Ga  Ga1094  1  0.56027567  0.77378300  0.33105539  1.0
  Ga  Ga1095  1  0.89360900  0.10711633  0.33105539  1.0
  Ga  Ga1096  1  0.89360900  0.44044967  0.33105539  1.0
  Ga  Ga1097  1  0.89360900  0.77378300  0.33105539  1.0
  Ga  Ga1098  1  0.05321467  0.06696600  0.24107317  1.0
  Ga  Ga1099  1  0.05321467  0.40029933  0.24107317  1.0
  Ga  Ga1100  1  0.05321467  0.73363267  0.24107317  1.0
  Ga  Ga1101  1  0.38654800  0.06696600  0.24107317  1.0
  Ga  Ga1102  1  0.38654800  0.40029933  0.24107317  1.0
  Ga  Ga1103  1  0.38654800  0.73363267  0.24107317  1.0
  Ga  Ga1104  1  0.71988133  0.06696600  0.24107317  1.0
  Ga  Ga1105  1  0.71988133  0.40029933  0.24107317  1.0
  Ga  Ga1106  1  0.71988133  0.73363267  0.24107317  1.0
  Ga  Ga1107  1  0.21988133  0.23363267  0.29662872  1.0
  Ga  Ga1108  1  0.21988133  0.56696600  0.29662872  1.0
  Ga  Ga1109  1  0.21988133  0.90029933  0.29662872  1.0
  Ga  Ga1110  1  0.55321467  0.23363267  0.29662872  1.0
  Ga  Ga1111  1  0.55321467  0.56696600  0.29662872  1.0
  Ga  Ga1112  1  0.55321467  0.90029933  0.29662872  1.0
  Ga  Ga1113  1  0.88654800  0.23363267  0.29662872  1.0
  Ga  Ga1114  1  0.88654800  0.56696600  0.29662872  1.0
  Ga  Ga1115  1  0.88654800  0.90029933  0.29662872  1.0
  Ga  Ga1116  1  0.10735783  0.01125983  0.30035322  1.0
  Ga  Ga1117  1  0.10735783  0.34459317  0.30035322  1.0
  Ga  Ga1118  1  0.10735783  0.67792650  0.30035322  1.0
  Ga  Ga1119  1  0.44069117  0.01125983  0.30035322  1.0
  Ga  Ga1120  1  0.44069117  0.34459317  0.30035322  1.0
  Ga  Ga1121  1  0.44069117  0.67792650  0.30035322  1.0
  Ga  Ga1122  1  0.77402450  0.01125983  0.30035322  1.0
  Ga  Ga1123  1  0.77402450  0.34459317  0.30035322  1.0
  Ga  Ga1124  1  0.77402450  0.67792650  0.30035322  1.0
  Ga  Ga1125  1  0.27402450  0.17792650  0.24479767  1.0
  Ga  Ga1126  1  0.27402450  0.51125983  0.24479767  1.0
  Ga  Ga1127  1  0.27402450  0.84459317  0.24479767  1.0
  Ga  Ga1128  1  0.60735783  0.17792650  0.24479767  1.0
  Ga  Ga1129  1  0.60735783  0.51125983  0.24479767  1.0
  Ga  Ga1130  1  0.60735783  0.84459317  0.24479767  1.0
  Ga  Ga1131  1  0.94069117  0.17792650  0.24479767  1.0
  Ga  Ga1132  1  0.94069117  0.51125983  0.24479767  1.0
  Ga  Ga1133  1  0.94069117  0.84459317  0.24479767  1.0
  Ga  Ga1134  1  0.10657633  0.12032767  0.29443483  1.0
  Ga  Ga1135  1  0.10657633  0.45366100  0.29443483  1.0
  Ga  Ga1136  1  0.10657633  0.78699433  0.29443483  1.0
  Ga  Ga1137  1  0.43990967  0.12032767  0.29443483  1.0
  Ga  Ga1138  1  0.43990967  0.45366100  0.29443483  1.0
  Ga  Ga1139  1  0.43990967  0.78699433  0.29443483  1.0
  Ga  Ga1140  1  0.77324300  0.12032767  0.29443483  1.0
  Ga  Ga1141  1  0.77324300  0.45366100  0.29443483  1.0
  Ga  Ga1142  1  0.77324300  0.78699433  0.29443483  1.0
  Ga  Ga1143  1  0.27324300  0.28699433  0.23887928  1.0
  Ga  Ga1144  1  0.27324300  0.62032767  0.23887928  1.0
  Ga  Ga1145  1  0.27324300  0.95366100  0.23887928  1.0
  Ga  Ga1146  1  0.60657633  0.28699433  0.23887928  1.0
  Ga  Ga1147  1  0.60657633  0.62032767  0.23887928  1.0
  Ga  Ga1148  1  0.60657633  0.95366100  0.23887928  1.0
  Ga  Ga1149  1  0.93990967  0.28699433  0.23887928  1.0
  Ga  Ga1150  1  0.93990967  0.62032767  0.23887928  1.0
  Ga  Ga1151  1  0.93990967  0.95366100  0.23887928  1.0
  Ga  Ga1152  1  0.16549800  0.17017267  0.30787083  1.0
  Ga  Ga1153  1  0.16549800  0.50350600  0.30787083  1.0
  Ga  Ga1154  1  0.16549800  0.83683933  0.30787083  1.0
  Ga  Ga1155  1  0.49883133  0.17017267  0.30787083  1.0
  Ga  Ga1156  1  0.49883133  0.50350600  0.30787083  1.0
  Ga  Ga1157  1  0.49883133  0.83683933  0.30787083  1.0
  Ga  Ga1158  1  0.83216467  0.17017267  0.30787083  1.0
  Ga  Ga1159  1  0.83216467  0.50350600  0.30787083  1.0
  Ga  Ga1160  1  0.83216467  0.83683933  0.30787083  1.0
  Ga  Ga1161  1  0.33216467  0.00350600  0.25231528  1.0
  Ga  Ga1162  1  0.33216467  0.33683933  0.25231528  1.0
  Ga  Ga1163  1  0.33216467  0.67017267  0.25231528  1.0
  Ga  Ga1164  1  0.66549800  0.00350600  0.25231528  1.0
  Ga  Ga1165  1  0.66549800  0.33683933  0.25231528  1.0
  Ga  Ga1166  1  0.66549800  0.67017267  0.25231528  1.0
  Ga  Ga1167  1  0.99883133  0.00350600  0.25231528  1.0
  Ga  Ga1168  1  0.99883133  0.33683933  0.25231528  1.0
  Ga  Ga1169  1  0.99883133  0.67017267  0.25231528  1.0
  Ga  Ga1170  1  0.00388183  0.23738550  0.26792178  1.0
  Ga  Ga1171  1  0.00388183  0.57071883  0.26792178  1.0
  Ga  Ga1172  1  0.00388183  0.90405217  0.26792178  1.0
  Ga  Ga1173  1  0.33721517  0.23738550  0.26792178  1.0
  Ga  Ga1174  1  0.33721517  0.57071883  0.26792178  1.0
  Ga  Ga1175  1  0.33721517  0.90405217  0.26792178  1.0
  Ga  Ga1176  1  0.67054850  0.23738550  0.26792178  1.0
  Ga  Ga1177  1  0.67054850  0.57071883  0.26792178  1.0
  Ga  Ga1178  1  0.67054850  0.90405217  0.26792178  1.0
  Ga  Ga1179  1  0.17054850  0.07071883  0.32347733  1.0
  Ga  Ga1180  1  0.17054850  0.40405217  0.32347733  1.0
  Ga  Ga1181  1  0.17054850  0.73738550  0.32347733  1.0
  Ga  Ga1182  1  0.50388183  0.07071883  0.32347733  1.0
  Ga  Ga1183  1  0.50388183  0.40405217  0.32347733  1.0
  Ga  Ga1184  1  0.50388183  0.73738550  0.32347733  1.0
  Ga  Ga1185  1  0.83721517  0.07071883  0.32347733  1.0
  Ga  Ga1186  1  0.83721517  0.40405217  0.32347733  1.0
  Ga  Ga1187  1  0.83721517  0.73738550  0.32347733  1.0
  Ga  Ga1188  1  0.04603300  0.27953667  0.31007294  1.0
  Ga  Ga1189  1  0.04603300  0.61287000  0.31007294  1.0
  Ga  Ga1190  1  0.04603300  0.94620333  0.31007294  1.0
  Ga  Ga1191  1  0.37936633  0.27953667  0.31007294  1.0
  Ga  Ga1192  1  0.37936633  0.61287000  0.31007294  1.0
  Ga  Ga1193  1  0.37936633  0.94620333  0.31007294  1.0
  Ga  Ga1194  1  0.71269967  0.27953667  0.31007294  1.0
  Ga  Ga1195  1  0.71269967  0.61287000  0.31007294  1.0
  Ga  Ga1196  1  0.71269967  0.94620333  0.31007294  1.0
  Ga  Ga1197  1  0.21269967  0.11287000  0.25451739  1.0
  Ga  Ga1198  1  0.21269967  0.44620333  0.25451739  1.0
  Ga  Ga1199  1  0.21269967  0.77953667  0.25451739  1.0
  Ga  Ga1200  1  0.54603300  0.11287000  0.25451739  1.0
  Ga  Ga1201  1  0.54603300  0.44620333  0.25451739  1.0
  Ga  Ga1202  1  0.54603300  0.77953667  0.25451739  1.0
  Ga  Ga1203  1  0.87936633  0.11287000  0.25451739  1.0
  Ga  Ga1204  1  0.87936633  0.44620333  0.25451739  1.0
  Ga  Ga1205  1  0.87936633  0.77953667  0.25451739  1.0
  Ga  Ga1206  1  0.11916967  0.30915767  0.32331361  1.0
  Ga  Ga1207  1  0.11916967  0.64249100  0.32331361  1.0
  Ga  Ga1208  1  0.11916967  0.97582433  0.32331361  1.0
  Ga  Ga1209  1  0.45250300  0.30915767  0.32331361  1.0
  Ga  Ga1210  1  0.45250300  0.64249100  0.32331361  1.0
  Ga  Ga1211  1  0.45250300  0.97582433  0.32331361  1.0
  Ga  Ga1212  1  0.78583633  0.30915767  0.32331361  1.0
  Ga  Ga1213  1  0.78583633  0.64249100  0.32331361  1.0
  Ga  Ga1214  1  0.78583633  0.97582433  0.32331361  1.0
  Ga  Ga1215  1  0.28583633  0.14249100  0.26775806  1.0
  Ga  Ga1216  1  0.28583633  0.47582433  0.26775806  1.0
  Ga  Ga1217  1  0.28583633  0.80915767  0.26775806  1.0
  Ga  Ga1218  1  0.61916967  0.14249100  0.26775806  1.0
  Ga  Ga1219  1  0.61916967  0.47582433  0.26775806  1.0
  Ga  Ga1220  1  0.61916967  0.80915767  0.26775806  1.0
  Ga  Ga1221  1  0.95250300  0.14249100  0.26775806  1.0
  Ga  Ga1222  1  0.95250300  0.47582433  0.26775806  1.0
  Ga  Ga1223  1  0.95250300  0.80915767  0.26775806  1.0
  Ga  Ga1224  1  0.00046350  0.33194283  0.29419556  1.0
  Ga  Ga1225  1  0.00046350  0.66527617  0.29419556  1.0
  Ga  Ga1226  1  0.00046350  0.99860950  0.29419556  1.0
  Ga  Ga1227  1  0.33379683  0.33194283  0.29419556  1.0
  Ga  Ga1228  1  0.33379683  0.66527617  0.29419556  1.0
  Ga  Ga1229  1  0.33379683  0.99860950  0.29419556  1.0
  Ga  Ga1230  1  0.66713017  0.33194283  0.29419556  1.0
  Ga  Ga1231  1  0.66713017  0.66527617  0.29419556  1.0
  Ga  Ga1232  1  0.66713017  0.99860950  0.29419556  1.0
  Ga  Ga1233  1  0.16713017  0.16527617  0.23864000  1.0
  Ga  Ga1234  1  0.16713017  0.49860950  0.23864000  1.0
  Ga  Ga1235  1  0.16713017  0.83194283  0.23864000  1.0
  Ga  Ga1236  1  0.50046350  0.16527617  0.23864000  1.0
  Ga  Ga1237  1  0.50046350  0.49860950  0.23864000  1.0
  Ga  Ga1238  1  0.50046350  0.83194283  0.23864000  1.0
  Ga  Ga1239  1  0.83379683  0.16527617  0.23864000  1.0
  Ga  Ga1240  1  0.83379683  0.49860950  0.23864000  1.0
  Ga  Ga1241  1  0.83379683  0.83194283  0.23864000  1.0
  Ga  Ga1242  1  0.16641383  0.27286750  0.23464267  1.0
  Ga  Ga1243  1  0.16641383  0.60620083  0.23464267  1.0
  Ga  Ga1244  1  0.16641383  0.93953417  0.23464267  1.0
  Ga  Ga1245  1  0.49974717  0.27286750  0.23464267  1.0
  Ga  Ga1246  1  0.49974717  0.60620083  0.23464267  1.0
  Ga  Ga1247  1  0.49974717  0.93953417  0.23464267  1.0
  Ga  Ga1248  1  0.83308050  0.27286750  0.23464267  1.0
  Ga  Ga1249  1  0.83308050  0.60620083  0.23464267  1.0
  Ga  Ga1250  1  0.83308050  0.93953417  0.23464267  1.0
  Ga  Ga1251  1  0.33308050  0.10620083  0.29019822  1.0
  Ga  Ga1252  1  0.33308050  0.43953417  0.29019822  1.0
  Ga  Ga1253  1  0.33308050  0.77286750  0.29019822  1.0
  Ga  Ga1254  1  0.66641383  0.10620083  0.29019822  1.0
  Ga  Ga1255  1  0.66641383  0.43953417  0.29019822  1.0
  Ga  Ga1256  1  0.66641383  0.77286750  0.29019822  1.0
  Ga  Ga1257  1  0.99974717  0.10620083  0.29019822  1.0
  Ga  Ga1258  1  0.99974717  0.43953417  0.29019822  1.0
  Ga  Ga1259  1  0.99974717  0.77286750  0.29019822  1.0
  Ga  Ga1260  1  0.11369267  0.22014633  0.29303261  1.0
  Ga  Ga1261  1  0.11369267  0.55347967  0.29303261  1.0
  Ga  Ga1262  1  0.11369267  0.88681300  0.29303261  1.0
  Ga  Ga1263  1  0.44702600  0.22014633  0.29303261  1.0
  Ga  Ga1264  1  0.44702600  0.55347967  0.29303261  1.0
  Ga  Ga1265  1  0.44702600  0.88681300  0.29303261  1.0
  Ga  Ga1266  1  0.78035933  0.22014633  0.29303261  1.0
  Ga  Ga1267  1  0.78035933  0.55347967  0.29303261  1.0
  Ga  Ga1268  1  0.78035933  0.88681300  0.29303261  1.0
  Ga  Ga1269  1  0.28035933  0.05347967  0.23747706  1.0
  Ga  Ga1270  1  0.28035933  0.38681300  0.23747706  1.0
  Ga  Ga1271  1  0.28035933  0.72014633  0.23747706  1.0
  Ga  Ga1272  1  0.61369267  0.05347967  0.23747706  1.0
  Ga  Ga1273  1  0.61369267  0.38681300  0.23747706  1.0
  Ga  Ga1274  1  0.61369267  0.72014633  0.23747706  1.0
  Ga  Ga1275  1  0.94702600  0.05347967  0.23747706  1.0
  Ga  Ga1276  1  0.94702600  0.38681300  0.23747706  1.0
  Ga  Ga1277  1  0.94702600  0.72014633  0.23747706  1.0
  Ga  Ga1278  1  0.05390100  0.17163033  0.27638306  1.0
  Ga  Ga1279  1  0.05390100  0.50496367  0.27638306  1.0
  Ga  Ga1280  1  0.05390100  0.83829700  0.27638306  1.0
  Ga  Ga1281  1  0.38723433  0.17163033  0.27638306  1.0
  Ga  Ga1282  1  0.38723433  0.50496367  0.27638306  1.0
  Ga  Ga1283  1  0.38723433  0.83829700  0.27638306  1.0
  Ga  Ga1284  1  0.72056767  0.17163033  0.27638306  1.0
  Ga  Ga1285  1  0.72056767  0.50496367  0.27638306  1.0
  Ga  Ga1286  1  0.72056767  0.83829700  0.27638306  1.0
  Ga  Ga1287  1  0.22056767  0.00496367  0.33193861  1.0
  Ga  Ga1288  1  0.22056767  0.33829700  0.33193861  1.0
  Ga  Ga1289  1  0.22056767  0.67163033  0.33193861  1.0
  Ga  Ga1290  1  0.55390100  0.00496367  0.33193861  1.0
  Ga  Ga1291  1  0.55390100  0.33829700  0.33193861  1.0
  Ga  Ga1292  1  0.55390100  0.67163033  0.33193861  1.0
  Ga  Ga1293  1  0.88723433  0.00496367  0.33193861  1.0
  Ga  Ga1294  1  0.88723433  0.33829700  0.33193861  1.0
  Ga  Ga1295  1  0.88723433  0.67163033  0.33193861  1.0
  Ga  Ga1296  1  0.10619283  0.01475483  0.26471611  1.0
  Ga  Ga1297  1  0.10619283  0.34808817  0.26471611  1.0
  Ga  Ga1298  1  0.10619283  0.68142150  0.26471611  1.0
  Ga  Ga1299  1  0.43952617  0.01475483  0.26471611  1.0
  Ga  Ga1300  1  0.43952617  0.34808817  0.26471611  1.0
  Ga  Ga1301  1  0.43952617  0.68142150  0.26471611  1.0
  Ga  Ga1302  1  0.77285950  0.01475483  0.26471611  1.0
  Ga  Ga1303  1  0.77285950  0.34808817  0.26471611  1.0
  Ga  Ga1304  1  0.77285950  0.68142150  0.26471611  1.0
  Ga  Ga1305  1  0.27285950  0.18142150  0.32027167  1.0
  Ga  Ga1306  1  0.27285950  0.51475483  0.32027167  1.0
  Ga  Ga1307  1  0.27285950  0.84808817  0.32027167  1.0
  Ga  Ga1308  1  0.60619283  0.18142150  0.32027167  1.0
  Ga  Ga1309  1  0.60619283  0.51475483  0.32027167  1.0
  Ga  Ga1310  1  0.60619283  0.84808817  0.32027167  1.0
  Ga  Ga1311  1  0.93952617  0.18142150  0.32027167  1.0
  Ga  Ga1312  1  0.93952617  0.51475483  0.32027167  1.0
  Ga  Ga1313  1  0.93952617  0.84808817  0.32027167  1.0
  Ni  Ni1314  1  0.05428267  0.28051200  0.23810606  1.0
  Ni  Ni1315  1  0.05428267  0.61384533  0.23810606  1.0
  Ni  Ni1316  1  0.05428267  0.94717867  0.23810606  1.0
  Ni  Ni1317  1  0.38761600  0.28051200  0.23810606  1.0
  Ni  Ni1318  1  0.38761600  0.61384533  0.23810606  1.0
  Ni  Ni1319  1  0.38761600  0.94717867  0.23810606  1.0
  Ni  Ni1320  1  0.72094933  0.28051200  0.23810606  1.0
  Ni  Ni1321  1  0.72094933  0.61384533  0.23810606  1.0
  Ni  Ni1322  1  0.72094933  0.94717867  0.23810606  1.0
  Ni  Ni1323  1  0.22094933  0.11384533  0.29366161  1.0
  Ni  Ni1324  1  0.22094933  0.44717867  0.29366161  1.0
  Ni  Ni1325  1  0.22094933  0.78051200  0.29366161  1.0
  Ni  Ni1326  1  0.55428267  0.11384533  0.29366161  1.0
  Ni  Ni1327  1  0.55428267  0.44717867  0.29366161  1.0
  Ni  Ni1328  1  0.55428267  0.78051200  0.29366161  1.0
  Ni  Ni1329  1  0.88761600  0.11384533  0.29366161  1.0
  Ni  Ni1330  1  0.88761600  0.44717867  0.29366161  1.0
  Ni  Ni1331  1  0.88761600  0.78051200  0.29366161  1.0
  Ni  Ni1332  1  0.16593600  0.05883200  0.23864828  1.0
  Ni  Ni1333  1  0.16593600  0.39216533  0.23864828  1.0
  Ni  Ni1334  1  0.16593600  0.72549867  0.23864828  1.0
  Ni  Ni1335  1  0.49926933  0.05883200  0.23864828  1.0
  Ni  Ni1336  1  0.49926933  0.39216533  0.23864828  1.0
  Ni  Ni1337  1  0.49926933  0.72549867  0.23864828  1.0
  Ni  Ni1338  1  0.83260267  0.05883200  0.23864828  1.0
  Ni  Ni1339  1  0.83260267  0.39216533  0.23864828  1.0
  Ni  Ni1340  1  0.83260267  0.72549867  0.23864828  1.0
  Ni  Ni1341  1  0.33260267  0.22549867  0.29420383  1.0
  Ni  Ni1342  1  0.33260267  0.55883200  0.29420383  1.0
  Ni  Ni1343  1  0.33260267  0.89216533  0.29420383  1.0
  Ni  Ni1344  1  0.66593600  0.22549867  0.29420383  1.0
  Ni  Ni1345  1  0.66593600  0.55883200  0.29420383  1.0
  Ni  Ni1346  1  0.66593600  0.89216533  0.29420383  1.0
  Ni  Ni1347  1  0.99926933  0.22549867  0.29420383  1.0
  Ni  Ni1348  1  0.99926933  0.55883200  0.29420383  1.0
  Ni  Ni1349  1  0.99926933  0.89216533  0.29420383  1.0
  Ni  Ni1350  1  0.05718550  0.16177683  0.23528389  1.0
  Ni  Ni1351  1  0.05718550  0.49511017  0.23528389  1.0
  Ni  Ni1352  1  0.05718550  0.82844350  0.23528389  1.0
  Ni  Ni1353  1  0.39051883  0.16177683  0.23528389  1.0
  Ni  Ni1354  1  0.39051883  0.49511017  0.23528389  1.0
  Ni  Ni1355  1  0.39051883  0.82844350  0.23528389  1.0
  Ni  Ni1356  1  0.72385217  0.16177683  0.23528389  1.0
  Ni  Ni1357  1  0.72385217  0.49511017  0.23528389  1.0
  Ni  Ni1358  1  0.72385217  0.82844350  0.23528389  1.0
  Ni  Ni1359  1  0.22385217  0.32844350  0.29083944  1.0
  Ni  Ni1360  1  0.22385217  0.66177683  0.29083944  1.0
  Ni  Ni1361  1  0.22385217  0.99511017  0.29083944  1.0
  Ni  Ni1362  1  0.55718550  0.32844350  0.29083944  1.0
  Ni  Ni1363  1  0.55718550  0.66177683  0.29083944  1.0
  Ni  Ni1364  1  0.55718550  0.99511017  0.29083944  1.0
  Ni  Ni1365  1  0.89051883  0.32844350  0.29083944  1.0
  Ni  Ni1366  1  0.89051883  0.66177683  0.29083944  1.0
  Ni  Ni1367  1  0.89051883  0.99511017  0.29083944  1.0
  Ni  Ni1368  1  0.11231983  0.21968050  0.25652033  1.0
  Ni  Ni1369  1  0.11231983  0.55301383  0.25652033  1.0
  Ni  Ni1370  1  0.11231983  0.88634717  0.25652033  1.0
  Ni  Ni1371  1  0.44565317  0.21968050  0.25652033  1.0
  Ni  Ni1372  1  0.44565317  0.55301383  0.25652033  1.0
  Ni  Ni1373  1  0.44565317  0.88634717  0.25652033  1.0
  Ni  Ni1374  1  0.77898650  0.21968050  0.25652033  1.0
  Ni  Ni1375  1  0.77898650  0.55301383  0.25652033  1.0
  Ni  Ni1376  1  0.77898650  0.88634717  0.25652033  1.0
  Ni  Ni1377  1  0.27898650  0.05301383  0.31207589  1.0
  Ni  Ni1378  1  0.27898650  0.38634717  0.31207589  1.0
  Ni  Ni1379  1  0.27898650  0.71968050  0.31207589  1.0
  Ni  Ni1380  1  0.61231983  0.05301383  0.31207589  1.0
  Ni  Ni1381  1  0.61231983  0.38634717  0.31207589  1.0
  Ni  Ni1382  1  0.61231983  0.71968050  0.31207589  1.0
  Ni  Ni1383  1  0.94565317  0.05301383  0.31207589  1.0
  Ni  Ni1384  1  0.94565317  0.38634717  0.31207589  1.0
  Ni  Ni1385  1  0.94565317  0.71968050  0.31207589  1.0
  Ni  Ni1386  1  0.00066650  0.10802717  0.25597811  1.0
  Ni  Ni1387  1  0.00066650  0.44136050  0.25597811  1.0
  Ni  Ni1388  1  0.00066650  0.77469383  0.25597811  1.0
  Ni  Ni1389  1  0.33399983  0.10802717  0.25597811  1.0
  Ni  Ni1390  1  0.33399983  0.44136050  0.25597811  1.0
  Ni  Ni1391  1  0.33399983  0.77469383  0.25597811  1.0
  Ni  Ni1392  1  0.66733317  0.10802717  0.25597811  1.0
  Ni  Ni1393  1  0.66733317  0.44136050  0.25597811  1.0
  Ni  Ni1394  1  0.66733317  0.77469383  0.25597811  1.0
  Ni  Ni1395  1  0.16733317  0.27469383  0.31153367  1.0
  Ni  Ni1396  1  0.16733317  0.60802717  0.31153367  1.0
  Ni  Ni1397  1  0.16733317  0.94136050  0.31153367  1.0
  Ni  Ni1398  1  0.50066650  0.27469383  0.31153367  1.0
  Ni  Ni1399  1  0.50066650  0.60802717  0.31153367  1.0
  Ni  Ni1400  1  0.50066650  0.94136050  0.31153367  1.0
  Ni  Ni1401  1  0.83399983  0.27469383  0.31153367  1.0
  Ni  Ni1402  1  0.83399983  0.60802717  0.31153367  1.0
  Ni  Ni1403  1  0.83399983  0.94136050  0.31153367  1.0
  Ga  Ga1404  1  0.00109617  0.10343483  0.44070600  1.0
  Ga  Ga1405  1  0.00109617  0.43676817  0.44070600  1.0
  Ga  Ga1406  1  0.00109617  0.77010150  0.44070600  1.0
  Ga  Ga1407  1  0.33442950  0.10343483  0.44070600  1.0
  Ga  Ga1408  1  0.33442950  0.43676817  0.44070600  1.0
  Ga  Ga1409  1  0.33442950  0.77010150  0.44070600  1.0
  Ga  Ga1410  1  0.66776283  0.10343483  0.44070600  1.0
  Ga  Ga1411  1  0.66776283  0.43676817  0.44070600  1.0
  Ga  Ga1412  1  0.66776283  0.77010150  0.44070600  1.0
  Ga  Ga1413  1  0.16776283  0.27010150  0.38515044  1.0
  Ga  Ga1414  1  0.16776283  0.60343483  0.38515044  1.0
  Ga  Ga1415  1  0.16776283  0.93676817  0.38515044  1.0
  Ga  Ga1416  1  0.50109617  0.27010150  0.38515044  1.0
  Ga  Ga1417  1  0.50109617  0.60343483  0.38515044  1.0
  Ga  Ga1418  1  0.50109617  0.93676817  0.38515044  1.0
  Ga  Ga1419  1  0.83442950  0.27010150  0.38515044  1.0
  Ga  Ga1420  1  0.83442950  0.60343483  0.38515044  1.0
  Ga  Ga1421  1  0.83442950  0.93676817  0.38515044  1.0
  Ga  Ga1422  1  0.05098967  0.18036433  0.43025372  1.0
  Ga  Ga1423  1  0.05098967  0.51369767  0.43025372  1.0
  Ga  Ga1424  1  0.05098967  0.84703100  0.43025372  1.0
  Ga  Ga1425  1  0.38432300  0.18036433  0.43025372  1.0
  Ga  Ga1426  1  0.38432300  0.51369767  0.43025372  1.0
  Ga  Ga1427  1  0.38432300  0.84703100  0.43025372  1.0
  Ga  Ga1428  1  0.71765633  0.18036433  0.43025372  1.0
  Ga  Ga1429  1  0.71765633  0.51369767  0.43025372  1.0
  Ga  Ga1430  1  0.71765633  0.84703100  0.43025372  1.0
  Ga  Ga1431  1  0.21765633  0.01369767  0.37469817  1.0
  Ga  Ga1432  1  0.21765633  0.34703100  0.37469817  1.0
  Ga  Ga1433  1  0.21765633  0.68036433  0.37469817  1.0
  Ga  Ga1434  1  0.55098967  0.01369767  0.37469817  1.0
  Ga  Ga1435  1  0.55098967  0.34703100  0.37469817  1.0
  Ga  Ga1436  1  0.55098967  0.68036433  0.37469817  1.0
  Ga  Ga1437  1  0.88432300  0.01369767  0.37469817  1.0
  Ga  Ga1438  1  0.88432300  0.34703100  0.37469817  1.0
  Ga  Ga1439  1  0.88432300  0.68036433  0.37469817  1.0
  Ga  Ga1440  1  0.11440117  0.21673983  0.44289989  1.0
  Ga  Ga1441  1  0.11440117  0.55007317  0.44289989  1.0
  Ga  Ga1442  1  0.11440117  0.88340650  0.44289989  1.0
  Ga  Ga1443  1  0.44773450  0.21673983  0.44289989  1.0
  Ga  Ga1444  1  0.44773450  0.55007317  0.44289989  1.0
  Ga  Ga1445  1  0.44773450  0.88340650  0.44289989  1.0
  Ga  Ga1446  1  0.78106783  0.21673983  0.44289989  1.0
  Ga  Ga1447  1  0.78106783  0.55007317  0.44289989  1.0
  Ga  Ga1448  1  0.78106783  0.88340650  0.44289989  1.0
  Ga  Ga1449  1  0.28106783  0.05007317  0.38734433  1.0
  Ga  Ga1450  1  0.28106783  0.38340650  0.38734433  1.0
  Ga  Ga1451  1  0.28106783  0.71673983  0.38734433  1.0
  Ga  Ga1452  1  0.61440117  0.05007317  0.38734433  1.0
  Ga  Ga1453  1  0.61440117  0.38340650  0.38734433  1.0
  Ga  Ga1454  1  0.61440117  0.71673983  0.38734433  1.0
  Ga  Ga1455  1  0.94773450  0.05007317  0.38734433  1.0
  Ga  Ga1456  1  0.94773450  0.38340650  0.38734433  1.0
  Ga  Ga1457  1  0.94773450  0.71673983  0.38734433  1.0
  Ga  Ga1458  1  0.16630400  0.04647800  0.38152817  1.0
  Ga  Ga1459  1  0.16630400  0.37981133  0.38152817  1.0
  Ga  Ga1460  1  0.16630400  0.71314467  0.38152817  1.0
  Ga  Ga1461  1  0.49963733  0.04647800  0.38152817  1.0
  Ga  Ga1462  1  0.49963733  0.37981133  0.38152817  1.0
  Ga  Ga1463  1  0.49963733  0.71314467  0.38152817  1.0
  Ga  Ga1464  1  0.83297067  0.04647800  0.38152817  1.0
  Ga  Ga1465  1  0.83297067  0.37981133  0.38152817  1.0
  Ga  Ga1466  1  0.83297067  0.71314467  0.38152817  1.0
  Ga  Ga1467  1  0.33297067  0.21314467  0.43708372  1.0
  Ga  Ga1468  1  0.33297067  0.54647800  0.43708372  1.0
  Ga  Ga1469  1  0.33297067  0.87981133  0.43708372  1.0
  Ga  Ga1470  1  0.66630400  0.21314467  0.43708372  1.0
  Ga  Ga1471  1  0.66630400  0.54647800  0.43708372  1.0
  Ga  Ga1472  1  0.66630400  0.87981133  0.43708372  1.0
  Ga  Ga1473  1  0.99963733  0.21314467  0.43708372  1.0
  Ga  Ga1474  1  0.99963733  0.54647800  0.43708372  1.0
  Ga  Ga1475  1  0.99963733  0.87981133  0.43708372  1.0
  Ga  Ga1476  1  0.11773750  0.10217750  0.43795722  1.0
  Ga  Ga1477  1  0.11773750  0.43551083  0.43795722  1.0
  Ga  Ga1478  1  0.11773750  0.76884417  0.43795722  1.0
  Ga  Ga1479  1  0.45107083  0.10217750  0.43795722  1.0
  Ga  Ga1480  1  0.45107083  0.43551083  0.43795722  1.0
  Ga  Ga1481  1  0.45107083  0.76884417  0.43795722  1.0
  Ga  Ga1482  1  0.78440417  0.10217750  0.43795722  1.0
  Ga  Ga1483  1  0.78440417  0.43551083  0.43795722  1.0
  Ga  Ga1484  1  0.78440417  0.76884417  0.43795722  1.0
  Ga  Ga1485  1  0.28440417  0.26884417  0.38240167  1.0
  Ga  Ga1486  1  0.28440417  0.60217750  0.38240167  1.0
  Ga  Ga1487  1  0.28440417  0.93551083  0.38240167  1.0
  Ga  Ga1488  1  0.61773750  0.26884417  0.38240167  1.0
  Ga  Ga1489  1  0.61773750  0.60217750  0.38240167  1.0
  Ga  Ga1490  1  0.61773750  0.93551083  0.38240167  1.0
  Ga  Ga1491  1  0.95107083  0.26884417  0.38240167  1.0
  Ga  Ga1492  1  0.95107083  0.60217750  0.38240167  1.0
  Ga  Ga1493  1  0.95107083  0.93551083  0.38240167  1.0
  Ga  Ga1494  1  0.05286467  0.05346267  0.41934128  1.0
  Ga  Ga1495  1  0.05286467  0.38679600  0.41934128  1.0
  Ga  Ga1496  1  0.05286467  0.72012933  0.41934128  1.0
  Ga  Ga1497  1  0.38619800  0.05346267  0.41934128  1.0
  Ga  Ga1498  1  0.38619800  0.38679600  0.41934128  1.0
  Ga  Ga1499  1  0.38619800  0.72012933  0.41934128  1.0
  Ga  Ga1500  1  0.71953133  0.05346267  0.41934128  1.0
  Ga  Ga1501  1  0.71953133  0.38679600  0.41934128  1.0
  Ga  Ga1502  1  0.71953133  0.72012933  0.41934128  1.0
  Ga  Ga1503  1  0.21953133  0.22012933  0.36378572  1.0
  Ga  Ga1504  1  0.21953133  0.55346267  0.36378572  1.0
  Ga  Ga1505  1  0.21953133  0.88679600  0.36378572  1.0
  Ga  Ga1506  1  0.55286467  0.22012933  0.36378572  1.0
  Ga  Ga1507  1  0.55286467  0.55346267  0.36378572  1.0
  Ga  Ga1508  1  0.55286467  0.88679600  0.36378572  1.0
  Ga  Ga1509  1  0.88619800  0.22012933  0.36378572  1.0
  Ga  Ga1510  1  0.88619800  0.55346267  0.36378572  1.0
  Ga  Ga1511  1  0.88619800  0.88679600  0.36378572  1.0
  Ga  Ga1512  1  0.11350300  0.11410100  0.36886850  1.0
  Ga  Ga1513  1  0.11350300  0.44743433  0.36886850  1.0
  Ga  Ga1514  1  0.11350300  0.78076767  0.36886850  1.0
  Ga  Ga1515  1  0.44683633  0.11410100  0.36886850  1.0
  Ga  Ga1516  1  0.44683633  0.44743433  0.36886850  1.0
  Ga  Ga1517  1  0.44683633  0.78076767  0.36886850  1.0
  Ga  Ga1518  1  0.78016967  0.11410100  0.36886850  1.0
  Ga  Ga1519  1  0.78016967  0.44743433  0.36886850  1.0
  Ga  Ga1520  1  0.78016967  0.78076767  0.36886850  1.0
  Ga  Ga1521  1  0.28016967  0.28076767  0.42442406  1.0
  Ga  Ga1522  1  0.28016967  0.61410100  0.42442406  1.0
  Ga  Ga1523  1  0.28016967  0.94743433  0.42442406  1.0
  Ga  Ga1524  1  0.61350300  0.28076767  0.42442406  1.0
  Ga  Ga1525  1  0.61350300  0.61410100  0.42442406  1.0
  Ga  Ga1526  1  0.61350300  0.94743433  0.42442406  1.0
  Ga  Ga1527  1  0.94683633  0.28076767  0.42442406  1.0
  Ga  Ga1528  1  0.94683633  0.61410100  0.42442406  1.0
  Ga  Ga1529  1  0.94683633  0.94743433  0.42442406  1.0
  Ga  Ga1530  1  0.05670917  0.04114917  0.37692889  1.0
  Ga  Ga1531  1  0.05670917  0.37448250  0.37692889  1.0
  Ga  Ga1532  1  0.05670917  0.70781583  0.37692889  1.0
  Ga  Ga1533  1  0.39004250  0.04114917  0.37692889  1.0
  Ga  Ga1534  1  0.39004250  0.37448250  0.37692889  1.0
  Ga  Ga1535  1  0.39004250  0.70781583  0.37692889  1.0
  Ga  Ga1536  1  0.72337583  0.04114917  0.37692889  1.0
  Ga  Ga1537  1  0.72337583  0.37448250  0.37692889  1.0
  Ga  Ga1538  1  0.72337583  0.70781583  0.37692889  1.0
  Ga  Ga1539  1  0.22337583  0.20781583  0.43248444  1.0
  Ga  Ga1540  1  0.22337583  0.54114917  0.43248444  1.0
  Ga  Ga1541  1  0.22337583  0.87448250  0.43248444  1.0
  Ga  Ga1542  1  0.55670917  0.20781583  0.43248444  1.0
  Ga  Ga1543  1  0.55670917  0.54114917  0.43248444  1.0
  Ga  Ga1544  1  0.55670917  0.87448250  0.43248444  1.0
  Ga  Ga1545  1  0.89004250  0.20781583  0.43248444  1.0
  Ga  Ga1546  1  0.89004250  0.54114917  0.43248444  1.0
  Ga  Ga1547  1  0.89004250  0.87448250  0.43248444  1.0
  Ga  Ga1548  1  0.06027567  0.27378300  0.38661094  1.0
  Ga  Ga1549  1  0.06027567  0.60711633  0.38661094  1.0
  Ga  Ga1550  1  0.06027567  0.94044967  0.38661094  1.0
  Ga  Ga1551  1  0.39360900  0.27378300  0.38661094  1.0
  Ga  Ga1552  1  0.39360900  0.60711633  0.38661094  1.0
  Ga  Ga1553  1  0.39360900  0.94044967  0.38661094  1.0
  Ga  Ga1554  1  0.72694233  0.27378300  0.38661094  1.0
  Ga  Ga1555  1  0.72694233  0.60711633  0.38661094  1.0
  Ga  Ga1556  1  0.72694233  0.94044967  0.38661094  1.0
  Ga  Ga1557  1  0.22694233  0.10711633  0.44216650  1.0
  Ga  Ga1558  1  0.22694233  0.44044967  0.44216650  1.0
  Ga  Ga1559  1  0.22694233  0.77378300  0.44216650  1.0
  Ga  Ga1560  1  0.56027567  0.10711633  0.44216650  1.0
  Ga  Ga1561  1  0.56027567  0.44044967  0.44216650  1.0
  Ga  Ga1562  1  0.56027567  0.77378300  0.44216650  1.0
  Ga  Ga1563  1  0.89360900  0.10711633  0.44216650  1.0
  Ga  Ga1564  1  0.89360900  0.44044967  0.44216650  1.0
  Ga  Ga1565  1  0.89360900  0.77378300  0.44216650  1.0
  Ga  Ga1566  1  0.05321467  0.06696600  0.35218428  1.0
  Ga  Ga1567  1  0.05321467  0.40029933  0.35218428  1.0
  Ga  Ga1568  1  0.05321467  0.73363267  0.35218428  1.0
  Ga  Ga1569  1  0.38654800  0.06696600  0.35218428  1.0
  Ga  Ga1570  1  0.38654800  0.40029933  0.35218428  1.0
  Ga  Ga1571  1  0.38654800  0.73363267  0.35218428  1.0
  Ga  Ga1572  1  0.71988133  0.06696600  0.35218428  1.0
  Ga  Ga1573  1  0.71988133  0.40029933  0.35218428  1.0
  Ga  Ga1574  1  0.71988133  0.73363267  0.35218428  1.0
  Ga  Ga1575  1  0.21988133  0.23363267  0.40773983  1.0
  Ga  Ga1576  1  0.21988133  0.56696600  0.40773983  1.0
  Ga  Ga1577  1  0.21988133  0.90029933  0.40773983  1.0
  Ga  Ga1578  1  0.55321467  0.23363267  0.40773983  1.0
  Ga  Ga1579  1  0.55321467  0.56696600  0.40773983  1.0
  Ga  Ga1580  1  0.55321467  0.90029933  0.40773983  1.0
  Ga  Ga1581  1  0.88654800  0.23363267  0.40773983  1.0
  Ga  Ga1582  1  0.88654800  0.56696600  0.40773983  1.0
  Ga  Ga1583  1  0.88654800  0.90029933  0.40773983  1.0
  Ga  Ga1584  1  0.10735783  0.01125983  0.41146433  1.0
  Ga  Ga1585  1  0.10735783  0.34459317  0.41146433  1.0
  Ga  Ga1586  1  0.10735783  0.67792650  0.41146433  1.0
  Ga  Ga1587  1  0.44069117  0.01125983  0.41146433  1.0
  Ga  Ga1588  1  0.44069117  0.34459317  0.41146433  1.0
  Ga  Ga1589  1  0.44069117  0.67792650  0.41146433  1.0
  Ga  Ga1590  1  0.77402450  0.01125983  0.41146433  1.0
  Ga  Ga1591  1  0.77402450  0.34459317  0.41146433  1.0
  Ga  Ga1592  1  0.77402450  0.67792650  0.41146433  1.0
  Ga  Ga1593  1  0.27402450  0.17792650  0.35590878  1.0
  Ga  Ga1594  1  0.27402450  0.51125983  0.35590878  1.0
  Ga  Ga1595  1  0.27402450  0.84459317  0.35590878  1.0
  Ga  Ga1596  1  0.60735783  0.17792650  0.35590878  1.0
  Ga  Ga1597  1  0.60735783  0.51125983  0.35590878  1.0
  Ga  Ga1598  1  0.60735783  0.84459317  0.35590878  1.0
  Ga  Ga1599  1  0.94069117  0.17792650  0.35590878  1.0
  Ga  Ga1600  1  0.94069117  0.51125983  0.35590878  1.0
  Ga  Ga1601  1  0.94069117  0.84459317  0.35590878  1.0
  Ga  Ga1602  1  0.10657633  0.12032767  0.40554594  1.0
  Ga  Ga1603  1  0.10657633  0.45366100  0.40554594  1.0
  Ga  Ga1604  1  0.10657633  0.78699433  0.40554594  1.0
  Ga  Ga1605  1  0.43990967  0.12032767  0.40554594  1.0
  Ga  Ga1606  1  0.43990967  0.45366100  0.40554594  1.0
  Ga  Ga1607  1  0.43990967  0.78699433  0.40554594  1.0
  Ga  Ga1608  1  0.77324300  0.12032767  0.40554594  1.0
  Ga  Ga1609  1  0.77324300  0.45366100  0.40554594  1.0
  Ga  Ga1610  1  0.77324300  0.78699433  0.40554594  1.0
  Ga  Ga1611  1  0.27324300  0.28699433  0.34999039  1.0
  Ga  Ga1612  1  0.27324300  0.62032767  0.34999039  1.0
  Ga  Ga1613  1  0.27324300  0.95366100  0.34999039  1.0
  Ga  Ga1614  1  0.60657633  0.28699433  0.34999039  1.0
  Ga  Ga1615  1  0.60657633  0.62032767  0.34999039  1.0
  Ga  Ga1616  1  0.60657633  0.95366100  0.34999039  1.0
  Ga  Ga1617  1  0.93990967  0.28699433  0.34999039  1.0
  Ga  Ga1618  1  0.93990967  0.62032767  0.34999039  1.0
  Ga  Ga1619  1  0.93990967  0.95366100  0.34999039  1.0
  Ga  Ga1620  1  0.16549800  0.17017267  0.41898194  1.0
  Ga  Ga1621  1  0.16549800  0.50350600  0.41898194  1.0
  Ga  Ga1622  1  0.16549800  0.83683933  0.41898194  1.0
  Ga  Ga1623  1  0.49883133  0.17017267  0.41898194  1.0
  Ga  Ga1624  1  0.49883133  0.50350600  0.41898194  1.0
  Ga  Ga1625  1  0.49883133  0.83683933  0.41898194  1.0
  Ga  Ga1626  1  0.83216467  0.17017267  0.41898194  1.0
  Ga  Ga1627  1  0.83216467  0.50350600  0.41898194  1.0
  Ga  Ga1628  1  0.83216467  0.83683933  0.41898194  1.0
  Ga  Ga1629  1  0.33216467  0.00350600  0.36342639  1.0
  Ga  Ga1630  1  0.33216467  0.33683933  0.36342639  1.0
  Ga  Ga1631  1  0.33216467  0.67017267  0.36342639  1.0
  Ga  Ga1632  1  0.66549800  0.00350600  0.36342639  1.0
  Ga  Ga1633  1  0.66549800  0.33683933  0.36342639  1.0
  Ga  Ga1634  1  0.66549800  0.67017267  0.36342639  1.0
  Ga  Ga1635  1  0.99883133  0.00350600  0.36342639  1.0
  Ga  Ga1636  1  0.99883133  0.33683933  0.36342639  1.0
  Ga  Ga1637  1  0.99883133  0.67017267  0.36342639  1.0
  Ga  Ga1638  1  0.00388183  0.23738550  0.37903289  1.0
  Ga  Ga1639  1  0.00388183  0.57071883  0.37903289  1.0
  Ga  Ga1640  1  0.00388183  0.90405217  0.37903289  1.0
  Ga  Ga1641  1  0.33721517  0.23738550  0.37903289  1.0
  Ga  Ga1642  1  0.33721517  0.57071883  0.37903289  1.0
  Ga  Ga1643  1  0.33721517  0.90405217  0.37903289  1.0
  Ga  Ga1644  1  0.67054850  0.23738550  0.37903289  1.0
  Ga  Ga1645  1  0.67054850  0.57071883  0.37903289  1.0
  Ga  Ga1646  1  0.67054850  0.90405217  0.37903289  1.0
  Ga  Ga1647  1  0.17054850  0.07071883  0.43458844  1.0
  Ga  Ga1648  1  0.17054850  0.40405217  0.43458844  1.0
  Ga  Ga1649  1  0.17054850  0.73738550  0.43458844  1.0
  Ga  Ga1650  1  0.50388183  0.07071883  0.43458844  1.0
  Ga  Ga1651  1  0.50388183  0.40405217  0.43458844  1.0
  Ga  Ga1652  1  0.50388183  0.73738550  0.43458844  1.0
  Ga  Ga1653  1  0.83721517  0.07071883  0.43458844  1.0
  Ga  Ga1654  1  0.83721517  0.40405217  0.43458844  1.0
  Ga  Ga1655  1  0.83721517  0.73738550  0.43458844  1.0
  Ga  Ga1656  1  0.04603300  0.27953667  0.42118406  1.0
  Ga  Ga1657  1  0.04603300  0.61287000  0.42118406  1.0
  Ga  Ga1658  1  0.04603300  0.94620333  0.42118406  1.0
  Ga  Ga1659  1  0.37936633  0.27953667  0.42118406  1.0
  Ga  Ga1660  1  0.37936633  0.61287000  0.42118406  1.0
  Ga  Ga1661  1  0.37936633  0.94620333  0.42118406  1.0
  Ga  Ga1662  1  0.71269967  0.27953667  0.42118406  1.0
  Ga  Ga1663  1  0.71269967  0.61287000  0.42118406  1.0
  Ga  Ga1664  1  0.71269967  0.94620333  0.42118406  1.0
  Ga  Ga1665  1  0.21269967  0.11287000  0.36562850  1.0
  Ga  Ga1666  1  0.21269967  0.44620333  0.36562850  1.0
  Ga  Ga1667  1  0.21269967  0.77953667  0.36562850  1.0
  Ga  Ga1668  1  0.54603300  0.11287000  0.36562850  1.0
  Ga  Ga1669  1  0.54603300  0.44620333  0.36562850  1.0
  Ga  Ga1670  1  0.54603300  0.77953667  0.36562850  1.0
  Ga  Ga1671  1  0.87936633  0.11287000  0.36562850  1.0
  Ga  Ga1672  1  0.87936633  0.44620333  0.36562850  1.0
  Ga  Ga1673  1  0.87936633  0.77953667  0.36562850  1.0
  Ga  Ga1674  1  0.11916967  0.30915767  0.43442472  1.0
  Ga  Ga1675  1  0.11916967  0.64249100  0.43442472  1.0
  Ga  Ga1676  1  0.11916967  0.97582433  0.43442472  1.0
  Ga  Ga1677  1  0.45250300  0.30915767  0.43442472  1.0
  Ga  Ga1678  1  0.45250300  0.64249100  0.43442472  1.0
  Ga  Ga1679  1  0.45250300  0.97582433  0.43442472  1.0
  Ga  Ga1680  1  0.78583633  0.30915767  0.43442472  1.0
  Ga  Ga1681  1  0.78583633  0.64249100  0.43442472  1.0
  Ga  Ga1682  1  0.78583633  0.97582433  0.43442472  1.0
  Ga  Ga1683  1  0.28583633  0.14249100  0.37886917  1.0
  Ga  Ga1684  1  0.28583633  0.47582433  0.37886917  1.0
  Ga  Ga1685  1  0.28583633  0.80915767  0.37886917  1.0
  Ga  Ga1686  1  0.61916967  0.14249100  0.37886917  1.0
  Ga  Ga1687  1  0.61916967  0.47582433  0.37886917  1.0
  Ga  Ga1688  1  0.61916967  0.80915767  0.37886917  1.0
  Ga  Ga1689  1  0.95250300  0.14249100  0.37886917  1.0
  Ga  Ga1690  1  0.95250300  0.47582433  0.37886917  1.0
  Ga  Ga1691  1  0.95250300  0.80915767  0.37886917  1.0
  Ga  Ga1692  1  0.00046350  0.33194283  0.40530667  1.0
  Ga  Ga1693  1  0.00046350  0.66527617  0.40530667  1.0
  Ga  Ga1694  1  0.00046350  0.99860950  0.40530667  1.0
  Ga  Ga1695  1  0.33379683  0.33194283  0.40530667  1.0
  Ga  Ga1696  1  0.33379683  0.66527617  0.40530667  1.0
  Ga  Ga1697  1  0.33379683  0.99860950  0.40530667  1.0
  Ga  Ga1698  1  0.66713017  0.33194283  0.40530667  1.0
  Ga  Ga1699  1  0.66713017  0.66527617  0.40530667  1.0
  Ga  Ga1700  1  0.66713017  0.99860950  0.40530667  1.0
  Ga  Ga1701  1  0.16713017  0.16527617  0.34975111  1.0
  Ga  Ga1702  1  0.16713017  0.49860950  0.34975111  1.0
  Ga  Ga1703  1  0.16713017  0.83194283  0.34975111  1.0
  Ga  Ga1704  1  0.50046350  0.16527617  0.34975111  1.0
  Ga  Ga1705  1  0.50046350  0.49860950  0.34975111  1.0
  Ga  Ga1706  1  0.50046350  0.83194283  0.34975111  1.0
  Ga  Ga1707  1  0.83379683  0.16527617  0.34975111  1.0
  Ga  Ga1708  1  0.83379683  0.49860950  0.34975111  1.0
  Ga  Ga1709  1  0.83379683  0.83194283  0.34975111  1.0
  Ga  Ga1710  1  0.16641383  0.27286750  0.34575378  1.0
  Ga  Ga1711  1  0.16641383  0.60620083  0.34575378  1.0
  Ga  Ga1712  1  0.16641383  0.93953417  0.34575378  1.0
  Ga  Ga1713  1  0.49974717  0.27286750  0.34575378  1.0
  Ga  Ga1714  1  0.49974717  0.60620083  0.34575378  1.0
  Ga  Ga1715  1  0.49974717  0.93953417  0.34575378  1.0
  Ga  Ga1716  1  0.83308050  0.27286750  0.34575378  1.0
  Ga  Ga1717  1  0.83308050  0.60620083  0.34575378  1.0
  Ga  Ga1718  1  0.83308050  0.93953417  0.34575378  1.0
  Ga  Ga1719  1  0.33308050  0.10620083  0.40130933  1.0
  Ga  Ga1720  1  0.33308050  0.43953417  0.40130933  1.0
  Ga  Ga1721  1  0.33308050  0.77286750  0.40130933  1.0
  Ga  Ga1722  1  0.66641383  0.10620083  0.40130933  1.0
  Ga  Ga1723  1  0.66641383  0.43953417  0.40130933  1.0
  Ga  Ga1724  1  0.66641383  0.77286750  0.40130933  1.0
  Ga  Ga1725  1  0.99974717  0.10620083  0.40130933  1.0
  Ga  Ga1726  1  0.99974717  0.43953417  0.40130933  1.0
  Ga  Ga1727  1  0.99974717  0.77286750  0.40130933  1.0
  Ga  Ga1728  1  0.11369267  0.22014633  0.40414372  1.0
  Ga  Ga1729  1  0.11369267  0.55347967  0.40414372  1.0
  Ga  Ga1730  1  0.11369267  0.88681300  0.40414372  1.0
  Ga  Ga1731  1  0.44702600  0.22014633  0.40414372  1.0
  Ga  Ga1732  1  0.44702600  0.55347967  0.40414372  1.0
  Ga  Ga1733  1  0.44702600  0.88681300  0.40414372  1.0
  Ga  Ga1734  1  0.78035933  0.22014633  0.40414372  1.0
  Ga  Ga1735  1  0.78035933  0.55347967  0.40414372  1.0
  Ga  Ga1736  1  0.78035933  0.88681300  0.40414372  1.0
  Ga  Ga1737  1  0.28035933  0.05347967  0.34858817  1.0
  Ga  Ga1738  1  0.28035933  0.38681300  0.34858817  1.0
  Ga  Ga1739  1  0.28035933  0.72014633  0.34858817  1.0
  Ga  Ga1740  1  0.61369267  0.05347967  0.34858817  1.0
  Ga  Ga1741  1  0.61369267  0.38681300  0.34858817  1.0
  Ga  Ga1742  1  0.61369267  0.72014633  0.34858817  1.0
  Ga  Ga1743  1  0.94702600  0.05347967  0.34858817  1.0
  Ga  Ga1744  1  0.94702600  0.38681300  0.34858817  1.0
  Ga  Ga1745  1  0.94702600  0.72014633  0.34858817  1.0
  Ga  Ga1746  1  0.05390100  0.17163033  0.38749417  1.0
  Ga  Ga1747  1  0.05390100  0.50496367  0.38749417  1.0
  Ga  Ga1748  1  0.05390100  0.83829700  0.38749417  1.0
  Ga  Ga1749  1  0.38723433  0.17163033  0.38749417  1.0
  Ga  Ga1750  1  0.38723433  0.50496367  0.38749417  1.0
  Ga  Ga1751  1  0.38723433  0.83829700  0.38749417  1.0
  Ga  Ga1752  1  0.72056767  0.17163033  0.38749417  1.0
  Ga  Ga1753  1  0.72056767  0.50496367  0.38749417  1.0
  Ga  Ga1754  1  0.72056767  0.83829700  0.38749417  1.0
  Ga  Ga1755  1  0.22056767  0.00496367  0.44304972  1.0
  Ga  Ga1756  1  0.22056767  0.33829700  0.44304972  1.0
  Ga  Ga1757  1  0.22056767  0.67163033  0.44304972  1.0
  Ga  Ga1758  1  0.55390100  0.00496367  0.44304972  1.0
  Ga  Ga1759  1  0.55390100  0.33829700  0.44304972  1.0
  Ga  Ga1760  1  0.55390100  0.67163033  0.44304972  1.0
  Ga  Ga1761  1  0.88723433  0.00496367  0.44304972  1.0
  Ga  Ga1762  1  0.88723433  0.33829700  0.44304972  1.0
  Ga  Ga1763  1  0.88723433  0.67163033  0.44304972  1.0
  Ga  Ga1764  1  0.10619283  0.01475483  0.37582722  1.0
  Ga  Ga1765  1  0.10619283  0.34808817  0.37582722  1.0
  Ga  Ga1766  1  0.10619283  0.68142150  0.37582722  1.0
  Ga  Ga1767  1  0.43952617  0.01475483  0.37582722  1.0
  Ga  Ga1768  1  0.43952617  0.34808817  0.37582722  1.0
  Ga  Ga1769  1  0.43952617  0.68142150  0.37582722  1.0
  Ga  Ga1770  1  0.77285950  0.01475483  0.37582722  1.0
  Ga  Ga1771  1  0.77285950  0.34808817  0.37582722  1.0
  Ga  Ga1772  1  0.77285950  0.68142150  0.37582722  1.0
  Ga  Ga1773  1  0.27285950  0.18142150  0.43138278  1.0
  Ga  Ga1774  1  0.27285950  0.51475483  0.43138278  1.0
  Ga  Ga1775  1  0.27285950  0.84808817  0.43138278  1.0
  Ga  Ga1776  1  0.60619283  0.18142150  0.43138278  1.0
  Ga  Ga1777  1  0.60619283  0.51475483  0.43138278  1.0
  Ga  Ga1778  1  0.60619283  0.84808817  0.43138278  1.0
  Ga  Ga1779  1  0.93952617  0.18142150  0.43138278  1.0
  Ga  Ga1780  1  0.93952617  0.51475483  0.43138278  1.0
  Ga  Ga1781  1  0.93952617  0.84808817  0.43138278  1.0
  Ni  Ni1782  1  0.05428267  0.28051200  0.34921717  1.0
  Ni  Ni1783  1  0.05428267  0.61384533  0.34921717  1.0
  Ni  Ni1784  1  0.05428267  0.94717867  0.34921717  1.0
  Ni  Ni1785  1  0.38761600  0.28051200  0.34921717  1.0
  Ni  Ni1786  1  0.38761600  0.61384533  0.34921717  1.0
  Ni  Ni1787  1  0.38761600  0.94717867  0.34921717  1.0
  Ni  Ni1788  1  0.72094933  0.28051200  0.34921717  1.0
  Ni  Ni1789  1  0.72094933  0.61384533  0.34921717  1.0
  Ni  Ni1790  1  0.72094933  0.94717867  0.34921717  1.0
  Ni  Ni1791  1  0.22094933  0.11384533  0.40477272  1.0
  Ni  Ni1792  1  0.22094933  0.44717867  0.40477272  1.0
  Ni  Ni1793  1  0.22094933  0.78051200  0.40477272  1.0
  Ni  Ni1794  1  0.55428267  0.11384533  0.40477272  1.0
  Ni  Ni1795  1  0.55428267  0.44717867  0.40477272  1.0
  Ni  Ni1796  1  0.55428267  0.78051200  0.40477272  1.0
  Ni  Ni1797  1  0.88761600  0.11384533  0.40477272  1.0
  Ni  Ni1798  1  0.88761600  0.44717867  0.40477272  1.0
  Ni  Ni1799  1  0.88761600  0.78051200  0.40477272  1.0
  Ni  Ni1800  1  0.16593600  0.05883200  0.34975939  1.0
  Ni  Ni1801  1  0.16593600  0.39216533  0.34975939  1.0
  Ni  Ni1802  1  0.16593600  0.72549867  0.34975939  1.0
  Ni  Ni1803  1  0.49926933  0.05883200  0.34975939  1.0
  Ni  Ni1804  1  0.49926933  0.39216533  0.34975939  1.0
  Ni  Ni1805  1  0.49926933  0.72549867  0.34975939  1.0
  Ni  Ni1806  1  0.83260267  0.05883200  0.34975939  1.0
  Ni  Ni1807  1  0.83260267  0.39216533  0.34975939  1.0
  Ni  Ni1808  1  0.83260267  0.72549867  0.34975939  1.0
  Ni  Ni1809  1  0.33260267  0.22549867  0.40531494  1.0
  Ni  Ni1810  1  0.33260267  0.55883200  0.40531494  1.0
  Ni  Ni1811  1  0.33260267  0.89216533  0.40531494  1.0
  Ni  Ni1812  1  0.66593600  0.22549867  0.40531494  1.0
  Ni  Ni1813  1  0.66593600  0.55883200  0.40531494  1.0
  Ni  Ni1814  1  0.66593600  0.89216533  0.40531494  1.0
  Ni  Ni1815  1  0.99926933  0.22549867  0.40531494  1.0
  Ni  Ni1816  1  0.99926933  0.55883200  0.40531494  1.0
  Ni  Ni1817  1  0.99926933  0.89216533  0.40531494  1.0
  Ni  Ni1818  1  0.05718550  0.16177683  0.34639500  1.0
  Ni  Ni1819  1  0.05718550  0.49511017  0.34639500  1.0
  Ni  Ni1820  1  0.05718550  0.82844350  0.34639500  1.0
  Ni  Ni1821  1  0.39051883  0.16177683  0.34639500  1.0
  Ni  Ni1822  1  0.39051883  0.49511017  0.34639500  1.0
  Ni  Ni1823  1  0.39051883  0.82844350  0.34639500  1.0
  Ni  Ni1824  1  0.72385217  0.16177683  0.34639500  1.0
  Ni  Ni1825  1  0.72385217  0.49511017  0.34639500  1.0
  Ni  Ni1826  1  0.72385217  0.82844350  0.34639500  1.0
  Ni  Ni1827  1  0.22385217  0.32844350  0.40195056  1.0
  Ni  Ni1828  1  0.22385217  0.66177683  0.40195056  1.0
  Ni  Ni1829  1  0.22385217  0.99511017  0.40195056  1.0
  Ni  Ni1830  1  0.55718550  0.32844350  0.40195056  1.0
  Ni  Ni1831  1  0.55718550  0.66177683  0.40195056  1.0
  Ni  Ni1832  1  0.55718550  0.99511017  0.40195056  1.0
  Ni  Ni1833  1  0.89051883  0.32844350  0.40195056  1.0
  Ni  Ni1834  1  0.89051883  0.66177683  0.40195056  1.0
  Ni  Ni1835  1  0.89051883  0.99511017  0.40195056  1.0
  Ni  Ni1836  1  0.11231983  0.21968050  0.36763144  1.0
  Ni  Ni1837  1  0.11231983  0.55301383  0.36763144  1.0
  Ni  Ni1838  1  0.11231983  0.88634717  0.36763144  1.0
  Ni  Ni1839  1  0.44565317  0.21968050  0.36763144  1.0
  Ni  Ni1840  1  0.44565317  0.55301383  0.36763144  1.0
  Ni  Ni1841  1  0.44565317  0.88634717  0.36763144  1.0
  Ni  Ni1842  1  0.77898650  0.21968050  0.36763144  1.0
  Ni  Ni1843  1  0.77898650  0.55301383  0.36763144  1.0
  Ni  Ni1844  1  0.77898650  0.88634717  0.36763144  1.0
  Ni  Ni1845  1  0.27898650  0.05301383  0.42318700  1.0
  Ni  Ni1846  1  0.27898650  0.38634717  0.42318700  1.0
  Ni  Ni1847  1  0.27898650  0.71968050  0.42318700  1.0
  Ni  Ni1848  1  0.61231983  0.05301383  0.42318700  1.0
  Ni  Ni1849  1  0.61231983  0.38634717  0.42318700  1.0
  Ni  Ni1850  1  0.61231983  0.71968050  0.42318700  1.0
  Ni  Ni1851  1  0.94565317  0.05301383  0.42318700  1.0
  Ni  Ni1852  1  0.94565317  0.38634717  0.42318700  1.0
  Ni  Ni1853  1  0.94565317  0.71968050  0.42318700  1.0
  Ni  Ni1854  1  0.00066650  0.10802717  0.36708922  1.0
  Ni  Ni1855  1  0.00066650  0.44136050  0.36708922  1.0
  Ni  Ni1856  1  0.00066650  0.77469383  0.36708922  1.0
  Ni  Ni1857  1  0.33399983  0.10802717  0.36708922  1.0
  Ni  Ni1858  1  0.33399983  0.44136050  0.36708922  1.0
  Ni  Ni1859  1  0.33399983  0.77469383  0.36708922  1.0
  Ni  Ni1860  1  0.66733317  0.10802717  0.36708922  1.0
  Ni  Ni1861  1  0.66733317  0.44136050  0.36708922  1.0
  Ni  Ni1862  1  0.66733317  0.77469383  0.36708922  1.0
  Ni  Ni1863  1  0.16733317  0.27469383  0.42264478  1.0
  Ni  Ni1864  1  0.16733317  0.60802717  0.42264478  1.0
  Ni  Ni1865  1  0.16733317  0.94136050  0.42264478  1.0
  Ni  Ni1866  1  0.50066650  0.27469383  0.42264478  1.0
  Ni  Ni1867  1  0.50066650  0.60802717  0.42264478  1.0
  Ni  Ni1868  1  0.50066650  0.94136050  0.42264478  1.0
  Ni  Ni1869  1  0.83399983  0.27469383  0.42264478  1.0
  Ni  Ni1870  1  0.83399983  0.60802717  0.42264478  1.0
  Ni  Ni1871  1  0.83399983  0.94136050  0.42264478  1.0
