# generated using pymatgen
data_Ga21Ni5
_symmetry_space_group_name_H-M   'P 1'
_cell_length_a   24.54381524
_cell_length_b   39.25139845
_cell_length_c   32.87830292
_cell_angle_alpha   96.68793425
_cell_angle_beta   74.16841079
_cell_angle_gamma   96.38091834
_symmetry_Int_Tables_number   1
_chemical_formula_structural   Ga21Ni5
_chemical_formula_sum   'Ga756 Ni180'
_cell_volume   30160.84880932
_cell_formula_units_Z   36
loop_
 _symmetry_equiv_pos_site_id
 _symmetry_equiv_pos_as_xyz
  1  'x, y, z'
loop_
 _atom_site_type_symbol
 _atom_site_label
 _atom_site_symmetry_multiplicity
 _atom_site_fract_x
 _atom_site_fract_y
 _atom_site_fract_z
 _atom_site_occupancy
  Ga  Ga0  1  0.00892100  0.21988133  0.24197669  1.0
  Ga  Ga1  1  0.00892100  0.55321467  0.24197669  1.0
  Ga  Ga2  1  0.00892100  0.88654800  0.24197669  1.0
  Ga  Ga3  1  0.34225433  0.21988133  0.24197669  1.0
  Ga  Ga4  1  0.34225433  0.55321467  0.24197669  1.0
  Ga  Ga5  1  0.34225433  0.88654800  0.24197669  1.0
  Ga  Ga6  1  0.67558767  0.21988133  0.24197669  1.0
  Ga  Ga7  1  0.67558767  0.55321467  0.24197669  1.0
  Ga  Ga8  1  0.67558767  0.88654800  0.24197669  1.0
  Ga  Ga9  1  0.17558767  0.05321467  0.11697669  1.0
  Ga  Ga10  1  0.17558767  0.38654800  0.11697669  1.0
  Ga  Ga11  1  0.17558767  0.71988133  0.11697669  1.0
  Ga  Ga12  1  0.50892100  0.05321467  0.11697669  1.0
  Ga  Ga13  1  0.50892100  0.38654800  0.11697669  1.0
  Ga  Ga14  1  0.50892100  0.71988133  0.11697669  1.0
  Ga  Ga15  1  0.84225433  0.05321467  0.11697669  1.0
  Ga  Ga16  1  0.84225433  0.38654800  0.11697669  1.0
  Ga  Ga17  1  0.84225433  0.71988133  0.11697669  1.0
  Ga  Ga18  1  0.16128817  0.27402450  0.20254156  1.0
  Ga  Ga19  1  0.16128817  0.60735783  0.20254156  1.0
  Ga  Ga20  1  0.16128817  0.94069117  0.20254156  1.0
  Ga  Ga21  1  0.49462150  0.27402450  0.20254156  1.0
  Ga  Ga22  1  0.49462150  0.60735783  0.20254156  1.0
  Ga  Ga23  1  0.49462150  0.94069117  0.20254156  1.0
  Ga  Ga24  1  0.82795483  0.27402450  0.20254156  1.0
  Ga  Ga25  1  0.82795483  0.60735783  0.20254156  1.0
  Ga  Ga26  1  0.82795483  0.94069117  0.20254156  1.0
  Ga  Ga27  1  0.32795483  0.10735783  0.07754156  1.0
  Ga  Ga28  1  0.32795483  0.44069117  0.07754156  1.0
  Ga  Ga29  1  0.32795483  0.77402450  0.07754156  1.0
  Ga  Ga30  1  0.66128817  0.10735783  0.07754156  1.0
  Ga  Ga31  1  0.66128817  0.44069117  0.07754156  1.0
  Ga  Ga32  1  0.66128817  0.77402450  0.07754156  1.0
  Ga  Ga33  1  0.99462150  0.10735783  0.07754156  1.0
  Ga  Ga34  1  0.99462150  0.44069117  0.07754156  1.0
  Ga  Ga35  1  0.99462150  0.77402450  0.07754156  1.0
  Ga  Ga36  1  0.06228267  0.27324300  0.12191294  1.0
  Ga  Ga37  1  0.06228267  0.60657633  0.12191294  1.0
  Ga  Ga38  1  0.06228267  0.93990967  0.12191294  1.0
  Ga  Ga39  1  0.39561600  0.27324300  0.12191294  1.0
  Ga  Ga40  1  0.39561600  0.60657633  0.12191294  1.0
  Ga  Ga41  1  0.39561600  0.93990967  0.12191294  1.0
  Ga  Ga42  1  0.72894933  0.27324300  0.12191294  1.0
  Ga  Ga43  1  0.72894933  0.60657633  0.12191294  1.0
  Ga  Ga44  1  0.72894933  0.93990967  0.12191294  1.0
  Ga  Ga45  1  0.22894933  0.10657633  0.24691294  1.0
  Ga  Ga46  1  0.22894933  0.43990967  0.24691294  1.0
  Ga  Ga47  1  0.22894933  0.77324300  0.24691294  1.0
  Ga  Ga48  1  0.56228267  0.10657633  0.24691294  1.0
  Ga  Ga49  1  0.56228267  0.43990967  0.24691294  1.0
  Ga  Ga50  1  0.56228267  0.77324300  0.24691294  1.0
  Ga  Ga51  1  0.89561600  0.10657633  0.24691294  1.0
  Ga  Ga52  1  0.89561600  0.43990967  0.24691294  1.0
  Ga  Ga53  1  0.89561600  0.77324300  0.24691294  1.0
  Ga  Ga54  1  0.17371500  0.28016967  0.11619294  1.0
  Ga  Ga55  1  0.17371500  0.61350300  0.11619294  1.0
  Ga  Ga56  1  0.17371500  0.94683633  0.11619294  1.0
  Ga  Ga57  1  0.50704833  0.28016967  0.11619294  1.0
  Ga  Ga58  1  0.50704833  0.61350300  0.11619294  1.0
  Ga  Ga59  1  0.50704833  0.94683633  0.11619294  1.0
  Ga  Ga60  1  0.84038167  0.28016967  0.11619294  1.0
  Ga  Ga61  1  0.84038167  0.61350300  0.11619294  1.0
  Ga  Ga62  1  0.84038167  0.94683633  0.11619294  1.0
  Ga  Ga63  1  0.00704833  0.11350300  0.24119294  1.0
  Ga  Ga64  1  0.00704833  0.44683633  0.24119294  1.0
  Ga  Ga65  1  0.00704833  0.78016967  0.24119294  1.0
  Ga  Ga66  1  0.34038167  0.11350300  0.24119294  1.0
  Ga  Ga67  1  0.34038167  0.44683633  0.24119294  1.0
  Ga  Ga68  1  0.34038167  0.78016967  0.24119294  1.0
  Ga  Ga69  1  0.67371500  0.11350300  0.24119294  1.0
  Ga  Ga70  1  0.67371500  0.44683633  0.24119294  1.0
  Ga  Ga71  1  0.67371500  0.78016967  0.24119294  1.0
  Ga  Ga72  1  0.22337583  0.22337583  0.00609756  1.0
  Ga  Ga73  1  0.22337583  0.55670917  0.00609756  1.0
  Ga  Ga74  1  0.22337583  0.89004250  0.00609756  1.0
  Ga  Ga75  1  0.55670917  0.22337583  0.00609756  1.0
  Ga  Ga76  1  0.55670917  0.55670917  0.00609756  1.0
  Ga  Ga77  1  0.55670917  0.89004250  0.00609756  1.0
  Ga  Ga78  1  0.89004250  0.22337583  0.00609756  1.0
  Ga  Ga79  1  0.89004250  0.55670917  0.00609756  1.0
  Ga  Ga80  1  0.89004250  0.89004250  0.00609756  1.0
  Ga  Ga81  1  0.05670917  0.05670917  0.13109756  1.0
  Ga  Ga82  1  0.05670917  0.39004250  0.13109756  1.0
  Ga  Ga83  1  0.05670917  0.72337583  0.13109756  1.0
  Ga  Ga84  1  0.39004250  0.05670917  0.13109756  1.0
  Ga  Ga85  1  0.39004250  0.39004250  0.13109756  1.0
  Ga  Ga86  1  0.39004250  0.72337583  0.13109756  1.0
  Ga  Ga87  1  0.72337583  0.05670917  0.13109756  1.0
  Ga  Ga88  1  0.72337583  0.39004250  0.13109756  1.0
  Ga  Ga89  1  0.72337583  0.72337583  0.13109756  1.0
  Ga  Ga90  1  0.00006367  0.22694233  0.07627244  1.0
  Ga  Ga91  1  0.00006367  0.56027567  0.07627244  1.0
  Ga  Ga92  1  0.00006367  0.89360900  0.07627244  1.0
  Ga  Ga93  1  0.33339700  0.22694233  0.07627244  1.0
  Ga  Ga94  1  0.33339700  0.56027567  0.07627244  1.0
  Ga  Ga95  1  0.33339700  0.89360900  0.07627244  1.0
  Ga  Ga96  1  0.66673033  0.22694233  0.07627244  1.0
  Ga  Ga97  1  0.66673033  0.56027567  0.07627244  1.0
  Ga  Ga98  1  0.66673033  0.89360900  0.07627244  1.0
  Ga  Ga99  1  0.16673033  0.06027567  0.20127244  1.0
  Ga  Ga100  1  0.16673033  0.39360900  0.20127244  1.0
  Ga  Ga101  1  0.16673033  0.72694233  0.20127244  1.0
  Ga  Ga102  1  0.50006367  0.06027567  0.20127244  1.0
  Ga  Ga103  1  0.50006367  0.39360900  0.20127244  1.0
  Ga  Ga104  1  0.50006367  0.72694233  0.20127244  1.0
  Ga  Ga105  1  0.83339700  0.06027567  0.20127244  1.0
  Ga  Ga106  1  0.83339700  0.39360900  0.20127244  1.0
  Ga  Ga107  1  0.83339700  0.72694233  0.20127244  1.0
  Ga  Ga108  1  0.10609200  0.33297067  0.08770869  1.0
  Ga  Ga109  1  0.10609200  0.66630400  0.08770869  1.0
  Ga  Ga110  1  0.10609200  0.99963733  0.08770869  1.0
  Ga  Ga111  1  0.43942533  0.33297067  0.08770869  1.0
  Ga  Ga112  1  0.43942533  0.66630400  0.08770869  1.0
  Ga  Ga113  1  0.43942533  0.99963733  0.08770869  1.0
  Ga  Ga114  1  0.77275867  0.33297067  0.08770869  1.0
  Ga  Ga115  1  0.77275867  0.66630400  0.08770869  1.0
  Ga  Ga116  1  0.77275867  0.99963733  0.08770869  1.0
  Ga  Ga117  1  0.27275867  0.16630400  0.21270869  1.0
  Ga  Ga118  1  0.27275867  0.49963733  0.21270869  1.0
  Ga  Ga119  1  0.27275867  0.83297067  0.21270869  1.0
  Ga  Ga120  1  0.60609200  0.16630400  0.21270869  1.0
  Ga  Ga121  1  0.60609200  0.49963733  0.21270869  1.0
  Ga  Ga122  1  0.60609200  0.83297067  0.21270869  1.0
  Ga  Ga123  1  0.93942533  0.16630400  0.21270869  1.0
  Ga  Ga124  1  0.93942533  0.49963733  0.21270869  1.0
  Ga  Ga125  1  0.93942533  0.83297067  0.21270869  1.0
  Ga  Ga126  1  0.28440417  0.28440417  0.11878381  1.0
  Ga  Ga127  1  0.28440417  0.61773750  0.11878381  1.0
  Ga  Ga128  1  0.28440417  0.95107083  0.11878381  1.0
  Ga  Ga129  1  0.61773750  0.28440417  0.11878381  1.0
  Ga  Ga130  1  0.61773750  0.61773750  0.11878381  1.0
  Ga  Ga131  1  0.61773750  0.95107083  0.11878381  1.0
  Ga  Ga132  1  0.95107083  0.28440417  0.11878381  1.0
  Ga  Ga133  1  0.95107083  0.61773750  0.11878381  1.0
  Ga  Ga134  1  0.95107083  0.95107083  0.11878381  1.0
  Ga  Ga135  1  0.11773750  0.11773750  0.24378381  1.0
  Ga  Ga136  1  0.11773750  0.45107083  0.24378381  1.0
  Ga  Ga137  1  0.11773750  0.78440417  0.24378381  1.0
  Ga  Ga138  1  0.45107083  0.11773750  0.24378381  1.0
  Ga  Ga139  1  0.45107083  0.45107083  0.24378381  1.0
  Ga  Ga140  1  0.45107083  0.78440417  0.24378381  1.0
  Ga  Ga141  1  0.78440417  0.11773750  0.24378381  1.0
  Ga  Ga142  1  0.78440417  0.45107083  0.24378381  1.0
  Ga  Ga143  1  0.78440417  0.78440417  0.24378381  1.0
  Ga  Ga144  1  0.11307667  0.21953133  0.00262919  1.0
  Ga  Ga145  1  0.11307667  0.55286467  0.00262919  1.0
  Ga  Ga146  1  0.11307667  0.88619800  0.00262919  1.0
  Ga  Ga147  1  0.44641000  0.21953133  0.00262919  1.0
  Ga  Ga148  1  0.44641000  0.55286467  0.00262919  1.0
  Ga  Ga149  1  0.44641000  0.88619800  0.00262919  1.0
  Ga  Ga150  1  0.77974333  0.21953133  0.00262919  1.0
  Ga  Ga151  1  0.77974333  0.55286467  0.00262919  1.0
  Ga  Ga152  1  0.77974333  0.88619800  0.00262919  1.0
  Ga  Ga153  1  0.27974333  0.05286467  0.12762919  1.0
  Ga  Ga154  1  0.27974333  0.38619800  0.12762919  1.0
  Ga  Ga155  1  0.27974333  0.71953133  0.12762919  1.0
  Ga  Ga156  1  0.61307667  0.05286467  0.12762919  1.0
  Ga  Ga157  1  0.61307667  0.38619800  0.12762919  1.0
  Ga  Ga158  1  0.61307667  0.71953133  0.12762919  1.0
  Ga  Ga159  1  0.94641000  0.05286467  0.12762919  1.0
  Ga  Ga160  1  0.94641000  0.38619800  0.12762919  1.0
  Ga  Ga161  1  0.94641000  0.71953133  0.12762919  1.0
  Ga  Ga162  1  0.04538983  0.16776283  0.04280281  1.0
  Ga  Ga163  1  0.04538983  0.50109617  0.04280281  1.0
  Ga  Ga164  1  0.04538983  0.83442950  0.04280281  1.0
  Ga  Ga165  1  0.37872317  0.16776283  0.04280281  1.0
  Ga  Ga166  1  0.37872317  0.50109617  0.04280281  1.0
  Ga  Ga167  1  0.37872317  0.83442950  0.04280281  1.0
  Ga  Ga168  1  0.71205650  0.16776283  0.04280281  1.0
  Ga  Ga169  1  0.71205650  0.50109617  0.04280281  1.0
  Ga  Ga170  1  0.71205650  0.83442950  0.04280281  1.0
  Ga  Ga171  1  0.21205650  0.00109617  0.16780281  1.0
  Ga  Ga172  1  0.21205650  0.33442950  0.16780281  1.0
  Ga  Ga173  1  0.21205650  0.66776283  0.16780281  1.0
  Ga  Ga174  1  0.54538983  0.00109617  0.16780281  1.0
  Ga  Ga175  1  0.54538983  0.33442950  0.16780281  1.0
  Ga  Ga176  1  0.54538983  0.66776283  0.16780281  1.0
  Ga  Ga177  1  0.87872317  0.00109617  0.16780281  1.0
  Ga  Ga178  1  0.87872317  0.33442950  0.16780281  1.0
  Ga  Ga179  1  0.87872317  0.66776283  0.16780281  1.0
  Ga  Ga180  1  0.33039267  0.21765633  0.16026544  1.0
  Ga  Ga181  1  0.33039267  0.55098967  0.16026544  1.0
  Ga  Ga182  1  0.33039267  0.88432300  0.16026544  1.0
  Ga  Ga183  1  0.66372600  0.21765633  0.16026544  1.0
  Ga  Ga184  1  0.66372600  0.55098967  0.16026544  1.0
  Ga  Ga185  1  0.66372600  0.88432300  0.16026544  1.0
  Ga  Ga186  1  0.99705933  0.21765633  0.16026544  1.0
  Ga  Ga187  1  0.99705933  0.55098967  0.16026544  1.0
  Ga  Ga188  1  0.99705933  0.88432300  0.16026544  1.0
  Ga  Ga189  1  0.16372600  0.05098967  0.03526544  1.0
  Ga  Ga190  1  0.16372600  0.38432300  0.03526544  1.0
  Ga  Ga191  1  0.16372600  0.71765633  0.03526544  1.0
  Ga  Ga192  1  0.49705933  0.05098967  0.03526544  1.0
  Ga  Ga193  1  0.49705933  0.38432300  0.03526544  1.0
  Ga  Ga194  1  0.49705933  0.71765633  0.03526544  1.0
  Ga  Ga195  1  0.83039267  0.05098967  0.03526544  1.0
  Ga  Ga196  1  0.83039267  0.38432300  0.03526544  1.0
  Ga  Ga197  1  0.83039267  0.71765633  0.03526544  1.0
  Ga  Ga198  1  0.15869483  0.28106783  0.03786656  1.0
  Ga  Ga199  1  0.15869483  0.61440117  0.03786656  1.0
  Ga  Ga200  1  0.15869483  0.94773450  0.03786656  1.0
  Ga  Ga201  1  0.49202817  0.28106783  0.03786656  1.0
  Ga  Ga202  1  0.49202817  0.61440117  0.03786656  1.0
  Ga  Ga203  1  0.49202817  0.94773450  0.03786656  1.0
  Ga  Ga204  1  0.82536150  0.28106783  0.03786656  1.0
  Ga  Ga205  1  0.82536150  0.61440117  0.03786656  1.0
  Ga  Ga206  1  0.82536150  0.94773450  0.03786656  1.0
  Ga  Ga207  1  0.32536150  0.11440117  0.16286656  1.0
  Ga  Ga208  1  0.32536150  0.44773450  0.16286656  1.0
  Ga  Ga209  1  0.32536150  0.78106783  0.16286656  1.0
  Ga  Ga210  1  0.65869483  0.11440117  0.16286656  1.0
  Ga  Ga211  1  0.65869483  0.44773450  0.16286656  1.0
  Ga  Ga212  1  0.65869483  0.78106783  0.16286656  1.0
  Ga  Ga213  1  0.99202817  0.11440117  0.16286656  1.0
  Ga  Ga214  1  0.99202817  0.44773450  0.16286656  1.0
  Ga  Ga215  1  0.99202817  0.78106783  0.16286656  1.0
  Ga  Ga216  1  0.04515967  0.28583633  0.21140044  1.0
  Ga  Ga217  1  0.04515967  0.61916967  0.21140044  1.0
  Ga  Ga218  1  0.04515967  0.95250300  0.21140044  1.0
  Ga  Ga219  1  0.37849300  0.28583633  0.21140044  1.0
  Ga  Ga220  1  0.37849300  0.61916967  0.21140044  1.0
  Ga  Ga221  1  0.37849300  0.95250300  0.21140044  1.0
  Ga  Ga222  1  0.71182633  0.28583633  0.21140044  1.0
  Ga  Ga223  1  0.71182633  0.61916967  0.21140044  1.0
  Ga  Ga224  1  0.71182633  0.95250300  0.21140044  1.0
  Ga  Ga225  1  0.21182633  0.11916967  0.08640044  1.0
  Ga  Ga226  1  0.21182633  0.45250300  0.08640044  1.0
  Ga  Ga227  1  0.21182633  0.78583633  0.08640044  1.0
  Ga  Ga228  1  0.54515967  0.11916967  0.08640044  1.0
  Ga  Ga229  1  0.54515967  0.45250300  0.08640044  1.0
  Ga  Ga230  1  0.54515967  0.78583633  0.08640044  1.0
  Ga  Ga231  1  0.87849300  0.11916967  0.08640044  1.0
  Ga  Ga232  1  0.87849300  0.45250300  0.08640044  1.0
  Ga  Ga233  1  0.87849300  0.78583633  0.08640044  1.0
  Ga  Ga234  1  0.21269967  0.21269967  0.09332119  1.0
  Ga  Ga235  1  0.21269967  0.54603300  0.09332119  1.0
  Ga  Ga236  1  0.21269967  0.87936633  0.09332119  1.0
  Ga  Ga237  1  0.54603300  0.21269967  0.09332119  1.0
  Ga  Ga238  1  0.54603300  0.54603300  0.09332119  1.0
  Ga  Ga239  1  0.54603300  0.87936633  0.09332119  1.0
  Ga  Ga240  1  0.87936633  0.21269967  0.09332119  1.0
  Ga  Ga241  1  0.87936633  0.54603300  0.09332119  1.0
  Ga  Ga242  1  0.87936633  0.87936633  0.09332119  1.0
  Ga  Ga243  1  0.04603300  0.04603300  0.21832119  1.0
  Ga  Ga244  1  0.04603300  0.37936633  0.21832119  1.0
  Ga  Ga245  1  0.04603300  0.71269967  0.21832119  1.0
  Ga  Ga246  1  0.37936633  0.04603300  0.21832119  1.0
  Ga  Ga247  1  0.37936633  0.37936633  0.21832119  1.0
  Ga  Ga248  1  0.37936633  0.71269967  0.21832119  1.0
  Ga  Ga249  1  0.71269967  0.04603300  0.21832119  1.0
  Ga  Ga250  1  0.71269967  0.37936633  0.21832119  1.0
  Ga  Ga251  1  0.71269967  0.71269967  0.21832119  1.0
  Ga  Ga252  1  0.17054850  0.17054850  0.18816131  1.0
  Ga  Ga253  1  0.17054850  0.50388183  0.18816131  1.0
  Ga  Ga254  1  0.17054850  0.83721517  0.18816131  1.0
  Ga  Ga255  1  0.50388183  0.17054850  0.18816131  1.0
  Ga  Ga256  1  0.50388183  0.50388183  0.18816131  1.0
  Ga  Ga257  1  0.50388183  0.83721517  0.18816131  1.0
  Ga  Ga258  1  0.83721517  0.17054850  0.18816131  1.0
  Ga  Ga259  1  0.83721517  0.50388183  0.18816131  1.0
  Ga  Ga260  1  0.83721517  0.83721517  0.18816131  1.0
  Ga  Ga261  1  0.00388183  0.00388183  0.06316131  1.0
  Ga  Ga262  1  0.00388183  0.33721517  0.06316131  1.0
  Ga  Ga263  1  0.00388183  0.67054850  0.06316131  1.0
  Ga  Ga264  1  0.33721517  0.00388183  0.06316131  1.0
  Ga  Ga265  1  0.33721517  0.33721517  0.06316131  1.0
  Ga  Ga266  1  0.33721517  0.67054850  0.06316131  1.0
  Ga  Ga267  1  0.67054850  0.00388183  0.06316131  1.0
  Ga  Ga268  1  0.67054850  0.33721517  0.06316131  1.0
  Ga  Ga269  1  0.67054850  0.67054850  0.06316131  1.0
  Ga  Ga270  1  0.23950800  0.33216467  0.24614669  1.0
  Ga  Ga271  1  0.23950800  0.66549800  0.24614669  1.0
  Ga  Ga272  1  0.23950800  0.99883133  0.24614669  1.0
  Ga  Ga273  1  0.57284133  0.33216467  0.24614669  1.0
  Ga  Ga274  1  0.57284133  0.66549800  0.24614669  1.0
  Ga  Ga275  1  0.57284133  0.99883133  0.24614669  1.0
  Ga  Ga276  1  0.90617467  0.33216467  0.24614669  1.0
  Ga  Ga277  1  0.90617467  0.66549800  0.24614669  1.0
  Ga  Ga278  1  0.90617467  0.99883133  0.24614669  1.0
  Ga  Ga279  1  0.07284133  0.16549800  0.12114669  1.0
  Ga  Ga280  1  0.07284133  0.49883133  0.12114669  1.0
  Ga  Ga281  1  0.07284133  0.83216467  0.12114669  1.0
  Ga  Ga282  1  0.40617467  0.16549800  0.12114669  1.0
  Ga  Ga283  1  0.40617467  0.49883133  0.12114669  1.0
  Ga  Ga284  1  0.40617467  0.83216467  0.12114669  1.0
  Ga  Ga285  1  0.73950800  0.16549800  0.12114669  1.0
  Ga  Ga286  1  0.73950800  0.49883133  0.12114669  1.0
  Ga  Ga287  1  0.73950800  0.83216467  0.12114669  1.0
  Ga  Ga288  1  0.11369267  0.22056767  0.16244894  1.0
  Ga  Ga289  1  0.11369267  0.55390100  0.16244894  1.0
  Ga  Ga290  1  0.11369267  0.88723433  0.16244894  1.0
  Ga  Ga291  1  0.44702600  0.22056767  0.16244894  1.0
  Ga  Ga292  1  0.44702600  0.55390100  0.16244894  1.0
  Ga  Ga293  1  0.44702600  0.88723433  0.16244894  1.0
  Ga  Ga294  1  0.78035933  0.22056767  0.16244894  1.0
  Ga  Ga295  1  0.78035933  0.55390100  0.16244894  1.0
  Ga  Ga296  1  0.78035933  0.88723433  0.16244894  1.0
  Ga  Ga297  1  0.28035933  0.05390100  0.03744894  1.0
  Ga  Ga298  1  0.28035933  0.38723433  0.03744894  1.0
  Ga  Ga299  1  0.28035933  0.72056767  0.03744894  1.0
  Ga  Ga300  1  0.61369267  0.05390100  0.03744894  1.0
  Ga  Ga301  1  0.61369267  0.38723433  0.03744894  1.0
  Ga  Ga302  1  0.61369267  0.72056767  0.03744894  1.0
  Ga  Ga303  1  0.94702600  0.05390100  0.03744894  1.0
  Ga  Ga304  1  0.94702600  0.38723433  0.03744894  1.0
  Ga  Ga305  1  0.94702600  0.72056767  0.03744894  1.0
  Ga  Ga306  1  0.28035933  0.28035933  0.03637444  1.0
  Ga  Ga307  1  0.28035933  0.61369267  0.03637444  1.0
  Ga  Ga308  1  0.28035933  0.94702600  0.03637444  1.0
  Ga  Ga309  1  0.61369267  0.28035933  0.03637444  1.0
  Ga  Ga310  1  0.61369267  0.61369267  0.03637444  1.0
  Ga  Ga311  1  0.61369267  0.94702600  0.03637444  1.0
  Ga  Ga312  1  0.94702600  0.28035933  0.03637444  1.0
  Ga  Ga313  1  0.94702600  0.61369267  0.03637444  1.0
  Ga  Ga314  1  0.94702600  0.94702600  0.03637444  1.0
  Ga  Ga315  1  0.11369267  0.11369267  0.16137444  1.0
  Ga  Ga316  1  0.11369267  0.44702600  0.16137444  1.0
  Ga  Ga317  1  0.11369267  0.78035933  0.16137444  1.0
  Ga  Ga318  1  0.44702600  0.11369267  0.16137444  1.0
  Ga  Ga319  1  0.44702600  0.44702600  0.16137444  1.0
  Ga  Ga320  1  0.44702600  0.78035933  0.16137444  1.0
  Ga  Ga321  1  0.78035933  0.11369267  0.16137444  1.0
  Ga  Ga322  1  0.78035933  0.44702600  0.16137444  1.0
  Ga  Ga323  1  0.78035933  0.78035933  0.16137444  1.0
  Ga  Ga324  1  0.33308050  0.33308050  0.16775181  1.0
  Ga  Ga325  1  0.33308050  0.66641383  0.16775181  1.0
  Ga  Ga326  1  0.33308050  0.99974717  0.16775181  1.0
  Ga  Ga327  1  0.66641383  0.33308050  0.16775181  1.0
  Ga  Ga328  1  0.66641383  0.66641383  0.16775181  1.0
  Ga  Ga329  1  0.66641383  0.99974717  0.16775181  1.0
  Ga  Ga330  1  0.99974717  0.33308050  0.16775181  1.0
  Ga  Ga331  1  0.99974717  0.66641383  0.16775181  1.0
  Ga  Ga332  1  0.99974717  0.99974717  0.16775181  1.0
  Ga  Ga333  1  0.16641383  0.16641383  0.04275181  1.0
  Ga  Ga334  1  0.16641383  0.49974717  0.04275181  1.0
  Ga  Ga335  1  0.16641383  0.83308050  0.04275181  1.0
  Ga  Ga336  1  0.49974717  0.16641383  0.04275181  1.0
  Ga  Ga337  1  0.49974717  0.49974717  0.04275181  1.0
  Ga  Ga338  1  0.49974717  0.83308050  0.04275181  1.0
  Ga  Ga339  1  0.83308050  0.16641383  0.04275181  1.0
  Ga  Ga340  1  0.83308050  0.49974717  0.04275181  1.0
  Ga  Ga341  1  0.83308050  0.83308050  0.04275181  1.0
  Ga  Ga342  1  0.27400517  0.16713017  0.12237081  1.0
  Ga  Ga343  1  0.27400517  0.50046350  0.12237081  1.0
  Ga  Ga344  1  0.27400517  0.83379683  0.12237081  1.0
  Ga  Ga345  1  0.60733850  0.16713017  0.12237081  1.0
  Ga  Ga346  1  0.60733850  0.50046350  0.12237081  1.0
  Ga  Ga347  1  0.60733850  0.83379683  0.12237081  1.0
  Ga  Ga348  1  0.94067183  0.16713017  0.12237081  1.0
  Ga  Ga349  1  0.94067183  0.50046350  0.12237081  1.0
  Ga  Ga350  1  0.94067183  0.83379683  0.12237081  1.0
  Ga  Ga351  1  0.10733850  0.00046350  0.24737081  1.0
  Ga  Ga352  1  0.10733850  0.33379683  0.24737081  1.0
  Ga  Ga353  1  0.10733850  0.66713017  0.24737081  1.0
  Ga  Ga354  1  0.44067183  0.00046350  0.24737081  1.0
  Ga  Ga355  1  0.44067183  0.33379683  0.24737081  1.0
  Ga  Ga356  1  0.44067183  0.66713017  0.24737081  1.0
  Ga  Ga357  1  0.77400517  0.00046350  0.24737081  1.0
  Ga  Ga358  1  0.77400517  0.33379683  0.24737081  1.0
  Ga  Ga359  1  0.77400517  0.66713017  0.24737081  1.0
  Ga  Ga360  1  0.27285950  0.27285950  0.20166781  1.0
  Ga  Ga361  1  0.27285950  0.60619283  0.20166781  1.0
  Ga  Ga362  1  0.27285950  0.93952617  0.20166781  1.0
  Ga  Ga363  1  0.60619283  0.27285950  0.20166781  1.0
  Ga  Ga364  1  0.60619283  0.60619283  0.20166781  1.0
  Ga  Ga365  1  0.60619283  0.93952617  0.20166781  1.0
  Ga  Ga366  1  0.93952617  0.27285950  0.20166781  1.0
  Ga  Ga367  1  0.93952617  0.60619283  0.20166781  1.0
  Ga  Ga368  1  0.93952617  0.93952617  0.20166781  1.0
  Ga  Ga369  1  0.10619283  0.10619283  0.07666781  1.0
  Ga  Ga370  1  0.10619283  0.43952617  0.07666781  1.0
  Ga  Ga371  1  0.10619283  0.77285950  0.07666781  1.0
  Ga  Ga372  1  0.43952617  0.10619283  0.07666781  1.0
  Ga  Ga373  1  0.43952617  0.43952617  0.07666781  1.0
  Ga  Ga374  1  0.43952617  0.77285950  0.07666781  1.0
  Ga  Ga375  1  0.77285950  0.10619283  0.07666781  1.0
  Ga  Ga376  1  0.77285950  0.43952617  0.07666781  1.0
  Ga  Ga377  1  0.77285950  0.77285950  0.07666781  1.0
  Ni  Ni378  1  0.05288550  0.27898650  0.03878306  1.0
  Ni  Ni379  1  0.05288550  0.61231983  0.03878306  1.0
  Ni  Ni380  1  0.05288550  0.94565317  0.03878306  1.0
  Ni  Ni381  1  0.38621883  0.27898650  0.03878306  1.0
  Ni  Ni382  1  0.38621883  0.61231983  0.03878306  1.0
  Ni  Ni383  1  0.38621883  0.94565317  0.03878306  1.0
  Ni  Ni384  1  0.71955217  0.27898650  0.03878306  1.0
  Ni  Ni385  1  0.71955217  0.61231983  0.03878306  1.0
  Ni  Ni386  1  0.71955217  0.94565317  0.03878306  1.0
  Ni  Ni387  1  0.21955217  0.11231983  0.16378306  1.0
  Ni  Ni388  1  0.21955217  0.44565317  0.16378306  1.0
  Ni  Ni389  1  0.21955217  0.77898650  0.16378306  1.0
  Ni  Ni390  1  0.55288550  0.11231983  0.16378306  1.0
  Ni  Ni391  1  0.55288550  0.44565317  0.16378306  1.0
  Ni  Ni392  1  0.55288550  0.77898650  0.16378306  1.0
  Ni  Ni393  1  0.88621883  0.11231983  0.16378306  1.0
  Ni  Ni394  1  0.88621883  0.44565317  0.16378306  1.0
  Ni  Ni395  1  0.88621883  0.77898650  0.16378306  1.0
  Ni  Ni396  1  0.27456550  0.16733317  0.04000306  1.0
  Ni  Ni397  1  0.27456550  0.50066650  0.04000306  1.0
  Ni  Ni398  1  0.27456550  0.83399983  0.04000306  1.0
  Ni  Ni399  1  0.60789883  0.16733317  0.04000306  1.0
  Ni  Ni400  1  0.60789883  0.50066650  0.04000306  1.0
  Ni  Ni401  1  0.60789883  0.83399983  0.04000306  1.0
  Ni  Ni402  1  0.94123217  0.16733317  0.04000306  1.0
  Ni  Ni403  1  0.94123217  0.50066650  0.04000306  1.0
  Ni  Ni404  1  0.94123217  0.83399983  0.04000306  1.0
  Ni  Ni405  1  0.10789883  0.00066650  0.16500306  1.0
  Ni  Ni406  1  0.10789883  0.33399983  0.16500306  1.0
  Ni  Ni407  1  0.10789883  0.66733317  0.16500306  1.0
  Ni  Ni408  1  0.44123217  0.00066650  0.16500306  1.0
  Ni  Ni409  1  0.44123217  0.33399983  0.16500306  1.0
  Ni  Ni410  1  0.44123217  0.66733317  0.16500306  1.0
  Ni  Ni411  1  0.77456550  0.00066650  0.16500306  1.0
  Ni  Ni412  1  0.77456550  0.33399983  0.16500306  1.0
  Ni  Ni413  1  0.77456550  0.66733317  0.16500306  1.0
  Ni  Ni414  1  0.22385217  0.22385217  0.16491231  1.0
  Ni  Ni415  1  0.22385217  0.55718550  0.16491231  1.0
  Ni  Ni416  1  0.22385217  0.89051883  0.16491231  1.0
  Ni  Ni417  1  0.55718550  0.22385217  0.16491231  1.0
  Ni  Ni418  1  0.55718550  0.55718550  0.16491231  1.0
  Ni  Ni419  1  0.55718550  0.89051883  0.16491231  1.0
  Ni  Ni420  1  0.89051883  0.22385217  0.16491231  1.0
  Ni  Ni421  1  0.89051883  0.55718550  0.16491231  1.0
  Ni  Ni422  1  0.89051883  0.89051883  0.16491231  1.0
  Ni  Ni423  1  0.05718550  0.05718550  0.03991231  1.0
  Ni  Ni424  1  0.05718550  0.39051883  0.03991231  1.0
  Ni  Ni425  1  0.05718550  0.72385217  0.03991231  1.0
  Ni  Ni426  1  0.39051883  0.05718550  0.03991231  1.0
  Ni  Ni427  1  0.39051883  0.39051883  0.03991231  1.0
  Ni  Ni428  1  0.39051883  0.72385217  0.03991231  1.0
  Ni  Ni429  1  0.72385217  0.05718550  0.03991231  1.0
  Ni  Ni430  1  0.72385217  0.39051883  0.03991231  1.0
  Ni  Ni431  1  0.72385217  0.72385217  0.03991231  1.0
  Ni  Ni432  1  0.11371700  0.22094933  0.08021519  1.0
  Ni  Ni433  1  0.11371700  0.55428267  0.08021519  1.0
  Ni  Ni434  1  0.11371700  0.88761600  0.08021519  1.0
  Ni  Ni435  1  0.44705033  0.22094933  0.08021519  1.0
  Ni  Ni436  1  0.44705033  0.55428267  0.08021519  1.0
  Ni  Ni437  1  0.44705033  0.88761600  0.08021519  1.0
  Ni  Ni438  1  0.78038367  0.22094933  0.08021519  1.0
  Ni  Ni439  1  0.78038367  0.55428267  0.08021519  1.0
  Ni  Ni440  1  0.78038367  0.88761600  0.08021519  1.0
  Ni  Ni441  1  0.28038367  0.05428267  0.20521519  1.0
  Ni  Ni442  1  0.28038367  0.38761600  0.20521519  1.0
  Ni  Ni443  1  0.28038367  0.72094933  0.20521519  1.0
  Ni  Ni444  1  0.61371700  0.05428267  0.20521519  1.0
  Ni  Ni445  1  0.61371700  0.38761600  0.20521519  1.0
  Ni  Ni446  1  0.61371700  0.72094933  0.20521519  1.0
  Ni  Ni447  1  0.94705033  0.05428267  0.20521519  1.0
  Ni  Ni448  1  0.94705033  0.38761600  0.20521519  1.0
  Ni  Ni449  1  0.94705033  0.72094933  0.20521519  1.0
  Ni  Ni450  1  0.22537033  0.33260267  0.07899519  1.0
  Ni  Ni451  1  0.22537033  0.66593600  0.07899519  1.0
  Ni  Ni452  1  0.22537033  0.99926933  0.07899519  1.0
  Ni  Ni453  1  0.55870367  0.33260267  0.07899519  1.0
  Ni  Ni454  1  0.55870367  0.66593600  0.07899519  1.0
  Ni  Ni455  1  0.55870367  0.99926933  0.07899519  1.0
  Ni  Ni456  1  0.89203700  0.33260267  0.07899519  1.0
  Ni  Ni457  1  0.89203700  0.66593600  0.07899519  1.0
  Ni  Ni458  1  0.89203700  0.99926933  0.07899519  1.0
  Ni  Ni459  1  0.05870367  0.16593600  0.20399519  1.0
  Ni  Ni460  1  0.05870367  0.49926933  0.20399519  1.0
  Ni  Ni461  1  0.05870367  0.83260267  0.20399519  1.0
  Ni  Ni462  1  0.39203700  0.16593600  0.20399519  1.0
  Ni  Ni463  1  0.39203700  0.49926933  0.20399519  1.0
  Ni  Ni464  1  0.39203700  0.83260267  0.20399519  1.0
  Ni  Ni465  1  0.72537033  0.16593600  0.20399519  1.0
  Ni  Ni466  1  0.72537033  0.49926933  0.20399519  1.0
  Ni  Ni467  1  0.72537033  0.83260267  0.20399519  1.0
  Ga  Ga468  1  0.00892100  0.21988133  0.49197669  1.0
  Ga  Ga469  1  0.00892100  0.55321467  0.49197669  1.0
  Ga  Ga470  1  0.00892100  0.88654800  0.49197669  1.0
  Ga  Ga471  1  0.34225433  0.21988133  0.49197669  1.0
  Ga  Ga472  1  0.34225433  0.55321467  0.49197669  1.0
  Ga  Ga473  1  0.34225433  0.88654800  0.49197669  1.0
  Ga  Ga474  1  0.67558767  0.21988133  0.49197669  1.0
  Ga  Ga475  1  0.67558767  0.55321467  0.49197669  1.0
  Ga  Ga476  1  0.67558767  0.88654800  0.49197669  1.0
  Ga  Ga477  1  0.17558767  0.05321467  0.36697669  1.0
  Ga  Ga478  1  0.17558767  0.38654800  0.36697669  1.0
  Ga  Ga479  1  0.17558767  0.71988133  0.36697669  1.0
  Ga  Ga480  1  0.50892100  0.05321467  0.36697669  1.0
  Ga  Ga481  1  0.50892100  0.38654800  0.36697669  1.0
  Ga  Ga482  1  0.50892100  0.71988133  0.36697669  1.0
  Ga  Ga483  1  0.84225433  0.05321467  0.36697669  1.0
  Ga  Ga484  1  0.84225433  0.38654800  0.36697669  1.0
  Ga  Ga485  1  0.84225433  0.71988133  0.36697669  1.0
  Ga  Ga486  1  0.16128817  0.27402450  0.45254156  1.0
  Ga  Ga487  1  0.16128817  0.60735783  0.45254156  1.0
  Ga  Ga488  1  0.16128817  0.94069117  0.45254156  1.0
  Ga  Ga489  1  0.49462150  0.27402450  0.45254156  1.0
  Ga  Ga490  1  0.49462150  0.60735783  0.45254156  1.0
  Ga  Ga491  1  0.49462150  0.94069117  0.45254156  1.0
  Ga  Ga492  1  0.82795483  0.27402450  0.45254156  1.0
  Ga  Ga493  1  0.82795483  0.60735783  0.45254156  1.0
  Ga  Ga494  1  0.82795483  0.94069117  0.45254156  1.0
  Ga  Ga495  1  0.32795483  0.10735783  0.32754156  1.0
  Ga  Ga496  1  0.32795483  0.44069117  0.32754156  1.0
  Ga  Ga497  1  0.32795483  0.77402450  0.32754156  1.0
  Ga  Ga498  1  0.66128817  0.10735783  0.32754156  1.0
  Ga  Ga499  1  0.66128817  0.44069117  0.32754156  1.0
  Ga  Ga500  1  0.66128817  0.77402450  0.32754156  1.0
  Ga  Ga501  1  0.99462150  0.10735783  0.32754156  1.0
  Ga  Ga502  1  0.99462150  0.44069117  0.32754156  1.0
  Ga  Ga503  1  0.99462150  0.77402450  0.32754156  1.0
  Ga  Ga504  1  0.06228267  0.27324300  0.37191294  1.0
  Ga  Ga505  1  0.06228267  0.60657633  0.37191294  1.0
  Ga  Ga506  1  0.06228267  0.93990967  0.37191294  1.0
  Ga  Ga507  1  0.39561600  0.27324300  0.37191294  1.0
  Ga  Ga508  1  0.39561600  0.60657633  0.37191294  1.0
  Ga  Ga509  1  0.39561600  0.93990967  0.37191294  1.0
  Ga  Ga510  1  0.72894933  0.27324300  0.37191294  1.0
  Ga  Ga511  1  0.72894933  0.60657633  0.37191294  1.0
  Ga  Ga512  1  0.72894933  0.93990967  0.37191294  1.0
  Ga  Ga513  1  0.22894933  0.10657633  0.49691294  1.0
  Ga  Ga514  1  0.22894933  0.43990967  0.49691294  1.0
  Ga  Ga515  1  0.22894933  0.77324300  0.49691294  1.0
  Ga  Ga516  1  0.56228267  0.10657633  0.49691294  1.0
  Ga  Ga517  1  0.56228267  0.43990967  0.49691294  1.0
  Ga  Ga518  1  0.56228267  0.77324300  0.49691294  1.0
  Ga  Ga519  1  0.89561600  0.10657633  0.49691294  1.0
  Ga  Ga520  1  0.89561600  0.43990967  0.49691294  1.0
  Ga  Ga521  1  0.89561600  0.77324300  0.49691294  1.0
  Ga  Ga522  1  0.17371500  0.28016967  0.36619294  1.0
  Ga  Ga523  1  0.17371500  0.61350300  0.36619294  1.0
  Ga  Ga524  1  0.17371500  0.94683633  0.36619294  1.0
  Ga  Ga525  1  0.50704833  0.28016967  0.36619294  1.0
  Ga  Ga526  1  0.50704833  0.61350300  0.36619294  1.0
  Ga  Ga527  1  0.50704833  0.94683633  0.36619294  1.0
  Ga  Ga528  1  0.84038167  0.28016967  0.36619294  1.0
  Ga  Ga529  1  0.84038167  0.61350300  0.36619294  1.0
  Ga  Ga530  1  0.84038167  0.94683633  0.36619294  1.0
  Ga  Ga531  1  0.00704833  0.11350300  0.49119294  1.0
  Ga  Ga532  1  0.00704833  0.44683633  0.49119294  1.0
  Ga  Ga533  1  0.00704833  0.78016967  0.49119294  1.0
  Ga  Ga534  1  0.34038167  0.11350300  0.49119294  1.0
  Ga  Ga535  1  0.34038167  0.44683633  0.49119294  1.0
  Ga  Ga536  1  0.34038167  0.78016967  0.49119294  1.0
  Ga  Ga537  1  0.67371500  0.11350300  0.49119294  1.0
  Ga  Ga538  1  0.67371500  0.44683633  0.49119294  1.0
  Ga  Ga539  1  0.67371500  0.78016967  0.49119294  1.0
  Ga  Ga540  1  0.22337583  0.22337583  0.25609756  1.0
  Ga  Ga541  1  0.22337583  0.55670917  0.25609756  1.0
  Ga  Ga542  1  0.22337583  0.89004250  0.25609756  1.0
  Ga  Ga543  1  0.55670917  0.22337583  0.25609756  1.0
  Ga  Ga544  1  0.55670917  0.55670917  0.25609756  1.0
  Ga  Ga545  1  0.55670917  0.89004250  0.25609756  1.0
  Ga  Ga546  1  0.89004250  0.22337583  0.25609756  1.0
  Ga  Ga547  1  0.89004250  0.55670917  0.25609756  1.0
  Ga  Ga548  1  0.89004250  0.89004250  0.25609756  1.0
  Ga  Ga549  1  0.05670917  0.05670917  0.38109756  1.0
  Ga  Ga550  1  0.05670917  0.39004250  0.38109756  1.0
  Ga  Ga551  1  0.05670917  0.72337583  0.38109756  1.0
  Ga  Ga552  1  0.39004250  0.05670917  0.38109756  1.0
  Ga  Ga553  1  0.39004250  0.39004250  0.38109756  1.0
  Ga  Ga554  1  0.39004250  0.72337583  0.38109756  1.0
  Ga  Ga555  1  0.72337583  0.05670917  0.38109756  1.0
  Ga  Ga556  1  0.72337583  0.39004250  0.38109756  1.0
  Ga  Ga557  1  0.72337583  0.72337583  0.38109756  1.0
  Ga  Ga558  1  0.00006367  0.22694233  0.32627244  1.0
  Ga  Ga559  1  0.00006367  0.56027567  0.32627244  1.0
  Ga  Ga560  1  0.00006367  0.89360900  0.32627244  1.0
  Ga  Ga561  1  0.33339700  0.22694233  0.32627244  1.0
  Ga  Ga562  1  0.33339700  0.56027567  0.32627244  1.0
  Ga  Ga563  1  0.33339700  0.89360900  0.32627244  1.0
  Ga  Ga564  1  0.66673033  0.22694233  0.32627244  1.0
  Ga  Ga565  1  0.66673033  0.56027567  0.32627244  1.0
  Ga  Ga566  1  0.66673033  0.89360900  0.32627244  1.0
  Ga  Ga567  1  0.16673033  0.06027567  0.45127244  1.0
  Ga  Ga568  1  0.16673033  0.39360900  0.45127244  1.0
  Ga  Ga569  1  0.16673033  0.72694233  0.45127244  1.0
  Ga  Ga570  1  0.50006367  0.06027567  0.45127244  1.0
  Ga  Ga571  1  0.50006367  0.39360900  0.45127244  1.0
  Ga  Ga572  1  0.50006367  0.72694233  0.45127244  1.0
  Ga  Ga573  1  0.83339700  0.06027567  0.45127244  1.0
  Ga  Ga574  1  0.83339700  0.39360900  0.45127244  1.0
  Ga  Ga575  1  0.83339700  0.72694233  0.45127244  1.0
  Ga  Ga576  1  0.10609200  0.33297067  0.33770869  1.0
  Ga  Ga577  1  0.10609200  0.66630400  0.33770869  1.0
  Ga  Ga578  1  0.10609200  0.99963733  0.33770869  1.0
  Ga  Ga579  1  0.43942533  0.33297067  0.33770869  1.0
  Ga  Ga580  1  0.43942533  0.66630400  0.33770869  1.0
  Ga  Ga581  1  0.43942533  0.99963733  0.33770869  1.0
  Ga  Ga582  1  0.77275867  0.33297067  0.33770869  1.0
  Ga  Ga583  1  0.77275867  0.66630400  0.33770869  1.0
  Ga  Ga584  1  0.77275867  0.99963733  0.33770869  1.0
  Ga  Ga585  1  0.27275867  0.16630400  0.46270869  1.0
  Ga  Ga586  1  0.27275867  0.49963733  0.46270869  1.0
  Ga  Ga587  1  0.27275867  0.83297067  0.46270869  1.0
  Ga  Ga588  1  0.60609200  0.16630400  0.46270869  1.0
  Ga  Ga589  1  0.60609200  0.49963733  0.46270869  1.0
  Ga  Ga590  1  0.60609200  0.83297067  0.46270869  1.0
  Ga  Ga591  1  0.93942533  0.16630400  0.46270869  1.0
  Ga  Ga592  1  0.93942533  0.49963733  0.46270869  1.0
  Ga  Ga593  1  0.93942533  0.83297067  0.46270869  1.0
  Ga  Ga594  1  0.28440417  0.28440417  0.36878381  1.0
  Ga  Ga595  1  0.28440417  0.61773750  0.36878381  1.0
  Ga  Ga596  1  0.28440417  0.95107083  0.36878381  1.0
  Ga  Ga597  1  0.61773750  0.28440417  0.36878381  1.0
  Ga  Ga598  1  0.61773750  0.61773750  0.36878381  1.0
  Ga  Ga599  1  0.61773750  0.95107083  0.36878381  1.0
  Ga  Ga600  1  0.95107083  0.28440417  0.36878381  1.0
  Ga  Ga601  1  0.95107083  0.61773750  0.36878381  1.0
  Ga  Ga602  1  0.95107083  0.95107083  0.36878381  1.0
  Ga  Ga603  1  0.11773750  0.11773750  0.49378381  1.0
  Ga  Ga604  1  0.11773750  0.45107083  0.49378381  1.0
  Ga  Ga605  1  0.11773750  0.78440417  0.49378381  1.0
  Ga  Ga606  1  0.45107083  0.11773750  0.49378381  1.0
  Ga  Ga607  1  0.45107083  0.45107083  0.49378381  1.0
  Ga  Ga608  1  0.45107083  0.78440417  0.49378381  1.0
  Ga  Ga609  1  0.78440417  0.11773750  0.49378381  1.0
  Ga  Ga610  1  0.78440417  0.45107083  0.49378381  1.0
  Ga  Ga611  1  0.78440417  0.78440417  0.49378381  1.0
  Ga  Ga612  1  0.11307667  0.21953133  0.25262919  1.0
  Ga  Ga613  1  0.11307667  0.55286467  0.25262919  1.0
  Ga  Ga614  1  0.11307667  0.88619800  0.25262919  1.0
  Ga  Ga615  1  0.44641000  0.21953133  0.25262919  1.0
  Ga  Ga616  1  0.44641000  0.55286467  0.25262919  1.0
  Ga  Ga617  1  0.44641000  0.88619800  0.25262919  1.0
  Ga  Ga618  1  0.77974333  0.21953133  0.25262919  1.0
  Ga  Ga619  1  0.77974333  0.55286467  0.25262919  1.0
  Ga  Ga620  1  0.77974333  0.88619800  0.25262919  1.0
  Ga  Ga621  1  0.27974333  0.05286467  0.37762919  1.0
  Ga  Ga622  1  0.27974333  0.38619800  0.37762919  1.0
  Ga  Ga623  1  0.27974333  0.71953133  0.37762919  1.0
  Ga  Ga624  1  0.61307667  0.05286467  0.37762919  1.0
  Ga  Ga625  1  0.61307667  0.38619800  0.37762919  1.0
  Ga  Ga626  1  0.61307667  0.71953133  0.37762919  1.0
  Ga  Ga627  1  0.94641000  0.05286467  0.37762919  1.0
  Ga  Ga628  1  0.94641000  0.38619800  0.37762919  1.0
  Ga  Ga629  1  0.94641000  0.71953133  0.37762919  1.0
  Ga  Ga630  1  0.04538983  0.16776283  0.29280281  1.0
  Ga  Ga631  1  0.04538983  0.50109617  0.29280281  1.0
  Ga  Ga632  1  0.04538983  0.83442950  0.29280281  1.0
  Ga  Ga633  1  0.37872317  0.16776283  0.29280281  1.0
  Ga  Ga634  1  0.37872317  0.50109617  0.29280281  1.0
  Ga  Ga635  1  0.37872317  0.83442950  0.29280281  1.0
  Ga  Ga636  1  0.71205650  0.16776283  0.29280281  1.0
  Ga  Ga637  1  0.71205650  0.50109617  0.29280281  1.0
  Ga  Ga638  1  0.71205650  0.83442950  0.29280281  1.0
  Ga  Ga639  1  0.21205650  0.00109617  0.41780281  1.0
  Ga  Ga640  1  0.21205650  0.33442950  0.41780281  1.0
  Ga  Ga641  1  0.21205650  0.66776283  0.41780281  1.0
  Ga  Ga642  1  0.54538983  0.00109617  0.41780281  1.0
  Ga  Ga643  1  0.54538983  0.33442950  0.41780281  1.0
  Ga  Ga644  1  0.54538983  0.66776283  0.41780281  1.0
  Ga  Ga645  1  0.87872317  0.00109617  0.41780281  1.0
  Ga  Ga646  1  0.87872317  0.33442950  0.41780281  1.0
  Ga  Ga647  1  0.87872317  0.66776283  0.41780281  1.0
  Ga  Ga648  1  0.33039267  0.21765633  0.41026544  1.0
  Ga  Ga649  1  0.33039267  0.55098967  0.41026544  1.0
  Ga  Ga650  1  0.33039267  0.88432300  0.41026544  1.0
  Ga  Ga651  1  0.66372600  0.21765633  0.41026544  1.0
  Ga  Ga652  1  0.66372600  0.55098967  0.41026544  1.0
  Ga  Ga653  1  0.66372600  0.88432300  0.41026544  1.0
  Ga  Ga654  1  0.99705933  0.21765633  0.41026544  1.0
  Ga  Ga655  1  0.99705933  0.55098967  0.41026544  1.0
  Ga  Ga656  1  0.99705933  0.88432300  0.41026544  1.0
  Ga  Ga657  1  0.16372600  0.05098967  0.28526544  1.0
  Ga  Ga658  1  0.16372600  0.38432300  0.28526544  1.0
  Ga  Ga659  1  0.16372600  0.71765633  0.28526544  1.0
  Ga  Ga660  1  0.49705933  0.05098967  0.28526544  1.0
  Ga  Ga661  1  0.49705933  0.38432300  0.28526544  1.0
  Ga  Ga662  1  0.49705933  0.71765633  0.28526544  1.0
  Ga  Ga663  1  0.83039267  0.05098967  0.28526544  1.0
  Ga  Ga664  1  0.83039267  0.38432300  0.28526544  1.0
  Ga  Ga665  1  0.83039267  0.71765633  0.28526544  1.0
  Ga  Ga666  1  0.15869483  0.28106783  0.28786656  1.0
  Ga  Ga667  1  0.15869483  0.61440117  0.28786656  1.0
  Ga  Ga668  1  0.15869483  0.94773450  0.28786656  1.0
  Ga  Ga669  1  0.49202817  0.28106783  0.28786656  1.0
  Ga  Ga670  1  0.49202817  0.61440117  0.28786656  1.0
  Ga  Ga671  1  0.49202817  0.94773450  0.28786656  1.0
  Ga  Ga672  1  0.82536150  0.28106783  0.28786656  1.0
  Ga  Ga673  1  0.82536150  0.61440117  0.28786656  1.0
  Ga  Ga674  1  0.82536150  0.94773450  0.28786656  1.0
  Ga  Ga675  1  0.32536150  0.11440117  0.41286656  1.0
  Ga  Ga676  1  0.32536150  0.44773450  0.41286656  1.0
  Ga  Ga677  1  0.32536150  0.78106783  0.41286656  1.0
  Ga  Ga678  1  0.65869483  0.11440117  0.41286656  1.0
  Ga  Ga679  1  0.65869483  0.44773450  0.41286656  1.0
  Ga  Ga680  1  0.65869483  0.78106783  0.41286656  1.0
  Ga  Ga681  1  0.99202817  0.11440117  0.41286656  1.0
  Ga  Ga682  1  0.99202817  0.44773450  0.41286656  1.0
  Ga  Ga683  1  0.99202817  0.78106783  0.41286656  1.0
  Ga  Ga684  1  0.04515967  0.28583633  0.46140044  1.0
  Ga  Ga685  1  0.04515967  0.61916967  0.46140044  1.0
  Ga  Ga686  1  0.04515967  0.95250300  0.46140044  1.0
  Ga  Ga687  1  0.37849300  0.28583633  0.46140044  1.0
  Ga  Ga688  1  0.37849300  0.61916967  0.46140044  1.0
  Ga  Ga689  1  0.37849300  0.95250300  0.46140044  1.0
  Ga  Ga690  1  0.71182633  0.28583633  0.46140044  1.0
  Ga  Ga691  1  0.71182633  0.61916967  0.46140044  1.0
  Ga  Ga692  1  0.71182633  0.95250300  0.46140044  1.0
  Ga  Ga693  1  0.21182633  0.11916967  0.33640044  1.0
  Ga  Ga694  1  0.21182633  0.45250300  0.33640044  1.0
  Ga  Ga695  1  0.21182633  0.78583633  0.33640044  1.0
  Ga  Ga696  1  0.54515967  0.11916967  0.33640044  1.0
  Ga  Ga697  1  0.54515967  0.45250300  0.33640044  1.0
  Ga  Ga698  1  0.54515967  0.78583633  0.33640044  1.0
  Ga  Ga699  1  0.87849300  0.11916967  0.33640044  1.0
  Ga  Ga700  1  0.87849300  0.45250300  0.33640044  1.0
  Ga  Ga701  1  0.87849300  0.78583633  0.33640044  1.0
  Ga  Ga702  1  0.21269967  0.21269967  0.34332119  1.0
  Ga  Ga703  1  0.21269967  0.54603300  0.34332119  1.0
  Ga  Ga704  1  0.21269967  0.87936633  0.34332119  1.0
  Ga  Ga705  1  0.54603300  0.21269967  0.34332119  1.0
  Ga  Ga706  1  0.54603300  0.54603300  0.34332119  1.0
  Ga  Ga707  1  0.54603300  0.87936633  0.34332119  1.0
  Ga  Ga708  1  0.87936633  0.21269967  0.34332119  1.0
  Ga  Ga709  1  0.87936633  0.54603300  0.34332119  1.0
  Ga  Ga710  1  0.87936633  0.87936633  0.34332119  1.0
  Ga  Ga711  1  0.04603300  0.04603300  0.46832119  1.0
  Ga  Ga712  1  0.04603300  0.37936633  0.46832119  1.0
  Ga  Ga713  1  0.04603300  0.71269967  0.46832119  1.0
  Ga  Ga714  1  0.37936633  0.04603300  0.46832119  1.0
  Ga  Ga715  1  0.37936633  0.37936633  0.46832119  1.0
  Ga  Ga716  1  0.37936633  0.71269967  0.46832119  1.0
  Ga  Ga717  1  0.71269967  0.04603300  0.46832119  1.0
  Ga  Ga718  1  0.71269967  0.37936633  0.46832119  1.0
  Ga  Ga719  1  0.71269967  0.71269967  0.46832119  1.0
  Ga  Ga720  1  0.17054850  0.17054850  0.43816131  1.0
  Ga  Ga721  1  0.17054850  0.50388183  0.43816131  1.0
  Ga  Ga722  1  0.17054850  0.83721517  0.43816131  1.0
  Ga  Ga723  1  0.50388183  0.17054850  0.43816131  1.0
  Ga  Ga724  1  0.50388183  0.50388183  0.43816131  1.0
  Ga  Ga725  1  0.50388183  0.83721517  0.43816131  1.0
  Ga  Ga726  1  0.83721517  0.17054850  0.43816131  1.0
  Ga  Ga727  1  0.83721517  0.50388183  0.43816131  1.0
  Ga  Ga728  1  0.83721517  0.83721517  0.43816131  1.0
  Ga  Ga729  1  0.00388183  0.00388183  0.31316131  1.0
  Ga  Ga730  1  0.00388183  0.33721517  0.31316131  1.0
  Ga  Ga731  1  0.00388183  0.67054850  0.31316131  1.0
  Ga  Ga732  1  0.33721517  0.00388183  0.31316131  1.0
  Ga  Ga733  1  0.33721517  0.33721517  0.31316131  1.0
  Ga  Ga734  1  0.33721517  0.67054850  0.31316131  1.0
  Ga  Ga735  1  0.67054850  0.00388183  0.31316131  1.0
  Ga  Ga736  1  0.67054850  0.33721517  0.31316131  1.0
  Ga  Ga737  1  0.67054850  0.67054850  0.31316131  1.0
  Ga  Ga738  1  0.23950800  0.33216467  0.49614669  1.0
  Ga  Ga739  1  0.23950800  0.66549800  0.49614669  1.0
  Ga  Ga740  1  0.23950800  0.99883133  0.49614669  1.0
  Ga  Ga741  1  0.57284133  0.33216467  0.49614669  1.0
  Ga  Ga742  1  0.57284133  0.66549800  0.49614669  1.0
  Ga  Ga743  1  0.57284133  0.99883133  0.49614669  1.0
  Ga  Ga744  1  0.90617467  0.33216467  0.49614669  1.0
  Ga  Ga745  1  0.90617467  0.66549800  0.49614669  1.0
  Ga  Ga746  1  0.90617467  0.99883133  0.49614669  1.0
  Ga  Ga747  1  0.07284133  0.16549800  0.37114669  1.0
  Ga  Ga748  1  0.07284133  0.49883133  0.37114669  1.0
  Ga  Ga749  1  0.07284133  0.83216467  0.37114669  1.0
  Ga  Ga750  1  0.40617467  0.16549800  0.37114669  1.0
  Ga  Ga751  1  0.40617467  0.49883133  0.37114669  1.0
  Ga  Ga752  1  0.40617467  0.83216467  0.37114669  1.0
  Ga  Ga753  1  0.73950800  0.16549800  0.37114669  1.0
  Ga  Ga754  1  0.73950800  0.49883133  0.37114669  1.0
  Ga  Ga755  1  0.73950800  0.83216467  0.37114669  1.0
  Ga  Ga756  1  0.11369267  0.22056767  0.41244894  1.0
  Ga  Ga757  1  0.11369267  0.55390100  0.41244894  1.0
  Ga  Ga758  1  0.11369267  0.88723433  0.41244894  1.0
  Ga  Ga759  1  0.44702600  0.22056767  0.41244894  1.0
  Ga  Ga760  1  0.44702600  0.55390100  0.41244894  1.0
  Ga  Ga761  1  0.44702600  0.88723433  0.41244894  1.0
  Ga  Ga762  1  0.78035933  0.22056767  0.41244894  1.0
  Ga  Ga763  1  0.78035933  0.55390100  0.41244894  1.0
  Ga  Ga764  1  0.78035933  0.88723433  0.41244894  1.0
  Ga  Ga765  1  0.28035933  0.05390100  0.28744894  1.0
  Ga  Ga766  1  0.28035933  0.38723433  0.28744894  1.0
  Ga  Ga767  1  0.28035933  0.72056767  0.28744894  1.0
  Ga  Ga768  1  0.61369267  0.05390100  0.28744894  1.0
  Ga  Ga769  1  0.61369267  0.38723433  0.28744894  1.0
  Ga  Ga770  1  0.61369267  0.72056767  0.28744894  1.0
  Ga  Ga771  1  0.94702600  0.05390100  0.28744894  1.0
  Ga  Ga772  1  0.94702600  0.38723433  0.28744894  1.0
  Ga  Ga773  1  0.94702600  0.72056767  0.28744894  1.0
  Ga  Ga774  1  0.28035933  0.28035933  0.28637444  1.0
  Ga  Ga775  1  0.28035933  0.61369267  0.28637444  1.0
  Ga  Ga776  1  0.28035933  0.94702600  0.28637444  1.0
  Ga  Ga777  1  0.61369267  0.28035933  0.28637444  1.0
  Ga  Ga778  1  0.61369267  0.61369267  0.28637444  1.0
  Ga  Ga779  1  0.61369267  0.94702600  0.28637444  1.0
  Ga  Ga780  1  0.94702600  0.28035933  0.28637444  1.0
  Ga  Ga781  1  0.94702600  0.61369267  0.28637444  1.0
  Ga  Ga782  1  0.94702600  0.94702600  0.28637444  1.0
  Ga  Ga783  1  0.11369267  0.11369267  0.41137444  1.0
  Ga  Ga784  1  0.11369267  0.44702600  0.41137444  1.0
  Ga  Ga785  1  0.11369267  0.78035933  0.41137444  1.0
  Ga  Ga786  1  0.44702600  0.11369267  0.41137444  1.0
  Ga  Ga787  1  0.44702600  0.44702600  0.41137444  1.0
  Ga  Ga788  1  0.44702600  0.78035933  0.41137444  1.0
  Ga  Ga789  1  0.78035933  0.11369267  0.41137444  1.0
  Ga  Ga790  1  0.78035933  0.44702600  0.41137444  1.0
  Ga  Ga791  1  0.78035933  0.78035933  0.41137444  1.0
  Ga  Ga792  1  0.33308050  0.33308050  0.41775181  1.0
  Ga  Ga793  1  0.33308050  0.66641383  0.41775181  1.0
  Ga  Ga794  1  0.33308050  0.99974717  0.41775181  1.0
  Ga  Ga795  1  0.66641383  0.33308050  0.41775181  1.0
  Ga  Ga796  1  0.66641383  0.66641383  0.41775181  1.0
  Ga  Ga797  1  0.66641383  0.99974717  0.41775181  1.0
  Ga  Ga798  1  0.99974717  0.33308050  0.41775181  1.0
  Ga  Ga799  1  0.99974717  0.66641383  0.41775181  1.0
  Ga  Ga800  1  0.99974717  0.99974717  0.41775181  1.0
  Ga  Ga801  1  0.16641383  0.16641383  0.29275181  1.0
  Ga  Ga802  1  0.16641383  0.49974717  0.29275181  1.0
  Ga  Ga803  1  0.16641383  0.83308050  0.29275181  1.0
  Ga  Ga804  1  0.49974717  0.16641383  0.29275181  1.0
  Ga  Ga805  1  0.49974717  0.49974717  0.29275181  1.0
  Ga  Ga806  1  0.49974717  0.83308050  0.29275181  1.0
  Ga  Ga807  1  0.83308050  0.16641383  0.29275181  1.0
  Ga  Ga808  1  0.83308050  0.49974717  0.29275181  1.0
  Ga  Ga809  1  0.83308050  0.83308050  0.29275181  1.0
  Ga  Ga810  1  0.27400517  0.16713017  0.37237081  1.0
  Ga  Ga811  1  0.27400517  0.50046350  0.37237081  1.0
  Ga  Ga812  1  0.27400517  0.83379683  0.37237081  1.0
  Ga  Ga813  1  0.60733850  0.16713017  0.37237081  1.0
  Ga  Ga814  1  0.60733850  0.50046350  0.37237081  1.0
  Ga  Ga815  1  0.60733850  0.83379683  0.37237081  1.0
  Ga  Ga816  1  0.94067183  0.16713017  0.37237081  1.0
  Ga  Ga817  1  0.94067183  0.50046350  0.37237081  1.0
  Ga  Ga818  1  0.94067183  0.83379683  0.37237081  1.0
  Ga  Ga819  1  0.10733850  0.00046350  0.49737081  1.0
  Ga  Ga820  1  0.10733850  0.33379683  0.49737081  1.0
  Ga  Ga821  1  0.10733850  0.66713017  0.49737081  1.0
  Ga  Ga822  1  0.44067183  0.00046350  0.49737081  1.0
  Ga  Ga823  1  0.44067183  0.33379683  0.49737081  1.0
  Ga  Ga824  1  0.44067183  0.66713017  0.49737081  1.0
  Ga  Ga825  1  0.77400517  0.00046350  0.49737081  1.0
  Ga  Ga826  1  0.77400517  0.33379683  0.49737081  1.0
  Ga  Ga827  1  0.77400517  0.66713017  0.49737081  1.0
  Ga  Ga828  1  0.27285950  0.27285950  0.45166781  1.0
  Ga  Ga829  1  0.27285950  0.60619283  0.45166781  1.0
  Ga  Ga830  1  0.27285950  0.93952617  0.45166781  1.0
  Ga  Ga831  1  0.60619283  0.27285950  0.45166781  1.0
  Ga  Ga832  1  0.60619283  0.60619283  0.45166781  1.0
  Ga  Ga833  1  0.60619283  0.93952617  0.45166781  1.0
  Ga  Ga834  1  0.93952617  0.27285950  0.45166781  1.0
  Ga  Ga835  1  0.93952617  0.60619283  0.45166781  1.0
  Ga  Ga836  1  0.93952617  0.93952617  0.45166781  1.0
  Ga  Ga837  1  0.10619283  0.10619283  0.32666781  1.0
  Ga  Ga838  1  0.10619283  0.43952617  0.32666781  1.0
  Ga  Ga839  1  0.10619283  0.77285950  0.32666781  1.0
  Ga  Ga840  1  0.43952617  0.10619283  0.32666781  1.0
  Ga  Ga841  1  0.43952617  0.43952617  0.32666781  1.0
  Ga  Ga842  1  0.43952617  0.77285950  0.32666781  1.0
  Ga  Ga843  1  0.77285950  0.10619283  0.32666781  1.0
  Ga  Ga844  1  0.77285950  0.43952617  0.32666781  1.0
  Ga  Ga845  1  0.77285950  0.77285950  0.32666781  1.0
  Ni  Ni846  1  0.05288550  0.27898650  0.28878306  1.0
  Ni  Ni847  1  0.05288550  0.61231983  0.28878306  1.0
  Ni  Ni848  1  0.05288550  0.94565317  0.28878306  1.0
  Ni  Ni849  1  0.38621883  0.27898650  0.28878306  1.0
  Ni  Ni850  1  0.38621883  0.61231983  0.28878306  1.0
  Ni  Ni851  1  0.38621883  0.94565317  0.28878306  1.0
  Ni  Ni852  1  0.71955217  0.27898650  0.28878306  1.0
  Ni  Ni853  1  0.71955217  0.61231983  0.28878306  1.0
  Ni  Ni854  1  0.71955217  0.94565317  0.28878306  1.0
  Ni  Ni855  1  0.21955217  0.11231983  0.41378306  1.0
  Ni  Ni856  1  0.21955217  0.44565317  0.41378306  1.0
  Ni  Ni857  1  0.21955217  0.77898650  0.41378306  1.0
  Ni  Ni858  1  0.55288550  0.11231983  0.41378306  1.0
  Ni  Ni859  1  0.55288550  0.44565317  0.41378306  1.0
  Ni  Ni860  1  0.55288550  0.77898650  0.41378306  1.0
  Ni  Ni861  1  0.88621883  0.11231983  0.41378306  1.0
  Ni  Ni862  1  0.88621883  0.44565317  0.41378306  1.0
  Ni  Ni863  1  0.88621883  0.77898650  0.41378306  1.0
  Ni  Ni864  1  0.27456550  0.16733317  0.29000306  1.0
  Ni  Ni865  1  0.27456550  0.50066650  0.29000306  1.0
  Ni  Ni866  1  0.27456550  0.83399983  0.29000306  1.0
  Ni  Ni867  1  0.60789883  0.16733317  0.29000306  1.0
  Ni  Ni868  1  0.60789883  0.50066650  0.29000306  1.0
  Ni  Ni869  1  0.60789883  0.83399983  0.29000306  1.0
  Ni  Ni870  1  0.94123217  0.16733317  0.29000306  1.0
  Ni  Ni871  1  0.94123217  0.50066650  0.29000306  1.0
  Ni  Ni872  1  0.94123217  0.83399983  0.29000306  1.0
  Ni  Ni873  1  0.10789883  0.00066650  0.41500306  1.0
  Ni  Ni874  1  0.10789883  0.33399983  0.41500306  1.0
  Ni  Ni875  1  0.10789883  0.66733317  0.41500306  1.0
  Ni  Ni876  1  0.44123217  0.00066650  0.41500306  1.0
  Ni  Ni877  1  0.44123217  0.33399983  0.41500306  1.0
  Ni  Ni878  1  0.44123217  0.66733317  0.41500306  1.0
  Ni  Ni879  1  0.77456550  0.00066650  0.41500306  1.0
  Ni  Ni880  1  0.77456550  0.33399983  0.41500306  1.0
  Ni  Ni881  1  0.77456550  0.66733317  0.41500306  1.0
  Ni  Ni882  1  0.22385217  0.22385217  0.41491231  1.0
  Ni  Ni883  1  0.22385217  0.55718550  0.41491231  1.0
  Ni  Ni884  1  0.22385217  0.89051883  0.41491231  1.0
  Ni  Ni885  1  0.55718550  0.22385217  0.41491231  1.0
  Ni  Ni886  1  0.55718550  0.55718550  0.41491231  1.0
  Ni  Ni887  1  0.55718550  0.89051883  0.41491231  1.0
  Ni  Ni888  1  0.89051883  0.22385217  0.41491231  1.0
  Ni  Ni889  1  0.89051883  0.55718550  0.41491231  1.0
  Ni  Ni890  1  0.89051883  0.89051883  0.41491231  1.0
  Ni  Ni891  1  0.05718550  0.05718550  0.28991231  1.0
  Ni  Ni892  1  0.05718550  0.39051883  0.28991231  1.0
  Ni  Ni893  1  0.05718550  0.72385217  0.28991231  1.0
  Ni  Ni894  1  0.39051883  0.05718550  0.28991231  1.0
  Ni  Ni895  1  0.39051883  0.39051883  0.28991231  1.0
  Ni  Ni896  1  0.39051883  0.72385217  0.28991231  1.0
  Ni  Ni897  1  0.72385217  0.05718550  0.28991231  1.0
  Ni  Ni898  1  0.72385217  0.39051883  0.28991231  1.0
  Ni  Ni899  1  0.72385217  0.72385217  0.28991231  1.0
  Ni  Ni900  1  0.11371700  0.22094933  0.33021519  1.0
  Ni  Ni901  1  0.11371700  0.55428267  0.33021519  1.0
  Ni  Ni902  1  0.11371700  0.88761600  0.33021519  1.0
  Ni  Ni903  1  0.44705033  0.22094933  0.33021519  1.0
  Ni  Ni904  1  0.44705033  0.55428267  0.33021519  1.0
  Ni  Ni905  1  0.44705033  0.88761600  0.33021519  1.0
  Ni  Ni906  1  0.78038367  0.22094933  0.33021519  1.0
  Ni  Ni907  1  0.78038367  0.55428267  0.33021519  1.0
  Ni  Ni908  1  0.78038367  0.88761600  0.33021519  1.0
  Ni  Ni909  1  0.28038367  0.05428267  0.45521519  1.0
  Ni  Ni910  1  0.28038367  0.38761600  0.45521519  1.0
  Ni  Ni911  1  0.28038367  0.72094933  0.45521519  1.0
  Ni  Ni912  1  0.61371700  0.05428267  0.45521519  1.0
  Ni  Ni913  1  0.61371700  0.38761600  0.45521519  1.0
  Ni  Ni914  1  0.61371700  0.72094933  0.45521519  1.0
  Ni  Ni915  1  0.94705033  0.05428267  0.45521519  1.0
  Ni  Ni916  1  0.94705033  0.38761600  0.45521519  1.0
  Ni  Ni917  1  0.94705033  0.72094933  0.45521519  1.0
  Ni  Ni918  1  0.22537033  0.33260267  0.32899519  1.0
  Ni  Ni919  1  0.22537033  0.66593600  0.32899519  1.0
  Ni  Ni920  1  0.22537033  0.99926933  0.32899519  1.0
  Ni  Ni921  1  0.55870367  0.33260267  0.32899519  1.0
  Ni  Ni922  1  0.55870367  0.66593600  0.32899519  1.0
  Ni  Ni923  1  0.55870367  0.99926933  0.32899519  1.0
  Ni  Ni924  1  0.89203700  0.33260267  0.32899519  1.0
  Ni  Ni925  1  0.89203700  0.66593600  0.32899519  1.0
  Ni  Ni926  1  0.89203700  0.99926933  0.32899519  1.0
  Ni  Ni927  1  0.05870367  0.16593600  0.45399519  1.0
  Ni  Ni928  1  0.05870367  0.49926933  0.45399519  1.0
  Ni  Ni929  1  0.05870367  0.83260267  0.45399519  1.0
  Ni  Ni930  1  0.39203700  0.16593600  0.45399519  1.0
  Ni  Ni931  1  0.39203700  0.49926933  0.45399519  1.0
  Ni  Ni932  1  0.39203700  0.83260267  0.45399519  1.0
  Ni  Ni933  1  0.72537033  0.16593600  0.45399519  1.0
  Ni  Ni934  1  0.72537033  0.49926933  0.45399519  1.0
  Ni  Ni935  1  0.72537033  0.83260267  0.45399519  1.0
