# generated using pymatgen
data_Ga21Ni5
_symmetry_space_group_name_H-M   'P 1'
_cell_length_a   29.66868902
_cell_length_b   64.66347969
_cell_length_c   27.53624207
_cell_angle_alpha   92.36963286
_cell_angle_beta   89.86782430
_cell_angle_gamma   89.66228493
_symmetry_Int_Tables_number   1
_chemical_formula_structural   Ga21Ni5
_chemical_formula_sum   'Ga1134 Ni270'
_cell_volume   52781.48541630
_cell_formula_units_Z   54
loop_
 _symmetry_equiv_pos_site_id
 _symmetry_equiv_pos_as_xyz
  1  'x, y, z'
loop_
 _atom_site_type_symbol
 _atom_site_label
 _atom_site_symmetry_multiplicity
 _atom_site_fract_x
 _atom_site_fract_y
 _atom_site_fract_z
 _atom_site_occupancy
  Ga  Ga0  1  0.28121483  0.07081583  0.01650500  1.0
  Ga  Ga1  1  0.28121483  0.40414917  0.01650500  1.0
  Ga  Ga2  1  0.28121483  0.73748250  0.01650500  1.0
  Ga  Ga3  1  0.61454817  0.07081583  0.01650500  1.0
  Ga  Ga4  1  0.61454817  0.40414917  0.01650500  1.0
  Ga  Ga5  1  0.61454817  0.73748250  0.01650500  1.0
  Ga  Ga6  1  0.94788150  0.07081583  0.01650500  1.0
  Ga  Ga7  1  0.94788150  0.40414917  0.01650500  1.0
  Ga  Ga8  1  0.94788150  0.73748250  0.01650500  1.0
  Ga  Ga9  1  0.11454817  0.30891107  0.08793357  1.0
  Ga  Ga10  1  0.11454817  0.64224440  0.08793357  1.0
  Ga  Ga11  1  0.11454817  0.97557774  0.08793357  1.0
  Ga  Ga12  1  0.44788150  0.30891107  0.08793357  1.0
  Ga  Ga13  1  0.44788150  0.64224440  0.08793357  1.0
  Ga  Ga14  1  0.44788150  0.97557774  0.08793357  1.0
  Ga  Ga15  1  0.78121483  0.30891107  0.08793357  1.0
  Ga  Ga16  1  0.78121483  0.64224440  0.08793357  1.0
  Ga  Ga17  1  0.78121483  0.97557774  0.08793357  1.0
  Ga  Ga18  1  0.27696517  0.18461807  0.02627057  1.0
  Ga  Ga19  1  0.27696517  0.51795140  0.02627057  1.0
  Ga  Ga20  1  0.27696517  0.85128474  0.02627057  1.0
  Ga  Ga21  1  0.61029850  0.18461807  0.02627057  1.0
  Ga  Ga22  1  0.61029850  0.51795140  0.02627057  1.0
  Ga  Ga23  1  0.61029850  0.85128474  0.02627057  1.0
  Ga  Ga24  1  0.94363183  0.18461807  0.02627057  1.0
  Ga  Ga25  1  0.94363183  0.51795140  0.02627057  1.0
  Ga  Ga26  1  0.94363183  0.85128474  0.02627057  1.0
  Ga  Ga27  1  0.11029850  0.08937998  0.09769914  1.0
  Ga  Ga28  1  0.11029850  0.42271331  0.09769914  1.0
  Ga  Ga29  1  0.11029850  0.75604664  0.09769914  1.0
  Ga  Ga30  1  0.44363183  0.08937998  0.09769914  1.0
  Ga  Ga31  1  0.44363183  0.42271331  0.09769914  1.0
  Ga  Ga32  1  0.44363183  0.75604664  0.09769914  1.0
  Ga  Ga33  1  0.77696517  0.08937998  0.09769914  1.0
  Ga  Ga34  1  0.77696517  0.42271331  0.09769914  1.0
  Ga  Ga35  1  0.77696517  0.75604664  0.09769914  1.0
  Ga  Ga36  1  0.00782483  0.26317250  0.04219500  1.0
  Ga  Ga37  1  0.00782483  0.59650583  0.04219500  1.0
  Ga  Ga38  1  0.00782483  0.92983917  0.04219500  1.0
  Ga  Ga39  1  0.34115817  0.26317250  0.04219500  1.0
  Ga  Ga40  1  0.34115817  0.59650583  0.04219500  1.0
  Ga  Ga41  1  0.34115817  0.92983917  0.04219500  1.0
  Ga  Ga42  1  0.67449150  0.26317250  0.04219500  1.0
  Ga  Ga43  1  0.67449150  0.59650583  0.04219500  1.0
  Ga  Ga44  1  0.67449150  0.92983917  0.04219500  1.0
  Ga  Ga45  1  0.17449150  0.16793440  0.11362357  1.0
  Ga  Ga46  1  0.17449150  0.50126774  0.11362357  1.0
  Ga  Ga47  1  0.17449150  0.83460107  0.11362357  1.0
  Ga  Ga48  1  0.50782483  0.16793440  0.11362357  1.0
  Ga  Ga49  1  0.50782483  0.50126774  0.11362357  1.0
  Ga  Ga50  1  0.50782483  0.83460107  0.11362357  1.0
  Ga  Ga51  1  0.84115817  0.16793440  0.11362357  1.0
  Ga  Ga52  1  0.84115817  0.50126774  0.11362357  1.0
  Ga  Ga53  1  0.84115817  0.83460107  0.11362357  1.0
  Ga  Ga54  1  0.05280100  0.05558788  0.10911421  1.0
  Ga  Ga55  1  0.05280100  0.38892121  0.10911421  1.0
  Ga  Ga56  1  0.05280100  0.72225455  0.10911421  1.0
  Ga  Ga57  1  0.38613433  0.05558788  0.10911421  1.0
  Ga  Ga58  1  0.38613433  0.38892121  0.10911421  1.0
  Ga  Ga59  1  0.38613433  0.72225455  0.10911421  1.0
  Ga  Ga60  1  0.71946767  0.05558788  0.10911421  1.0
  Ga  Ga61  1  0.71946767  0.38892121  0.10911421  1.0
  Ga  Ga62  1  0.71946767  0.72225455  0.10911421  1.0
  Ga  Ga63  1  0.21946767  0.15082598  0.03768564  1.0
  Ga  Ga64  1  0.21946767  0.48415931  0.03768564  1.0
  Ga  Ga65  1  0.21946767  0.81749264  0.03768564  1.0
  Ga  Ga66  1  0.55280100  0.15082598  0.03768564  1.0
  Ga  Ga67  1  0.55280100  0.48415931  0.03768564  1.0
  Ga  Ga68  1  0.55280100  0.81749264  0.03768564  1.0
  Ga  Ga69  1  0.88613433  0.15082598  0.03768564  1.0
  Ga  Ga70  1  0.88613433  0.48415931  0.03768564  1.0
  Ga  Ga71  1  0.88613433  0.81749264  0.03768564  1.0
  Ga  Ga72  1  0.06102833  0.18891517  0.01446850  1.0
  Ga  Ga73  1  0.06102833  0.52224850  0.01446850  1.0
  Ga  Ga74  1  0.06102833  0.85558183  0.01446850  1.0
  Ga  Ga75  1  0.39436167  0.18891517  0.01446850  1.0
  Ga  Ga76  1  0.39436167  0.52224850  0.01446850  1.0
  Ga  Ga77  1  0.39436167  0.85558183  0.01446850  1.0
  Ga  Ga78  1  0.72769500  0.18891517  0.01446850  1.0
  Ga  Ga79  1  0.72769500  0.52224850  0.01446850  1.0
  Ga  Ga80  1  0.72769500  0.85558183  0.01446850  1.0
  Ga  Ga81  1  0.22769500  0.09367707  0.08589707  1.0
  Ga  Ga82  1  0.22769500  0.42701040  0.08589707  1.0
  Ga  Ga83  1  0.22769500  0.76034374  0.08589707  1.0
  Ga  Ga84  1  0.56102833  0.09367707  0.08589707  1.0
  Ga  Ga85  1  0.56102833  0.42701040  0.08589707  1.0
  Ga  Ga86  1  0.56102833  0.76034374  0.08589707  1.0
  Ga  Ga87  1  0.89436167  0.09367707  0.08589707  1.0
  Ga  Ga88  1  0.89436167  0.42701040  0.08589707  1.0
  Ga  Ga89  1  0.89436167  0.76034374  0.08589707  1.0
  Ga  Ga90  1  0.32592233  0.24805969  0.13491936  1.0
  Ga  Ga91  1  0.32592233  0.58139302  0.13491936  1.0
  Ga  Ga92  1  0.32592233  0.91472636  0.13491936  1.0
  Ga  Ga93  1  0.65925567  0.24805969  0.13491936  1.0
  Ga  Ga94  1  0.65925567  0.58139302  0.13491936  1.0
  Ga  Ga95  1  0.65925567  0.91472636  0.13491936  1.0
  Ga  Ga96  1  0.99258900  0.24805969  0.13491936  1.0
  Ga  Ga97  1  0.99258900  0.58139302  0.13491936  1.0
  Ga  Ga98  1  0.99258900  0.91472636  0.13491936  1.0
  Ga  Ga99  1  0.15925567  0.00996445  0.06349079  1.0
  Ga  Ga100  1  0.15925567  0.34329779  0.06349079  1.0
  Ga  Ga101  1  0.15925567  0.67663112  0.06349079  1.0
  Ga  Ga102  1  0.49258900  0.00996445  0.06349079  1.0
  Ga  Ga103  1  0.49258900  0.34329779  0.06349079  1.0
  Ga  Ga104  1  0.49258900  0.67663112  0.06349079  1.0
  Ga  Ga105  1  0.82592233  0.00996445  0.06349079  1.0
  Ga  Ga106  1  0.82592233  0.34329779  0.06349079  1.0
  Ga  Ga107  1  0.82592233  0.67663112  0.06349079  1.0
  Ga  Ga108  1  0.28053233  0.06194017  0.11546650  1.0
  Ga  Ga109  1  0.28053233  0.39527350  0.11546650  1.0
  Ga  Ga110  1  0.28053233  0.72860683  0.11546650  1.0
  Ga  Ga111  1  0.61386567  0.06194017  0.11546650  1.0
  Ga  Ga112  1  0.61386567  0.39527350  0.11546650  1.0
  Ga  Ga113  1  0.61386567  0.72860683  0.11546650  1.0
  Ga  Ga114  1  0.94719900  0.06194017  0.11546650  1.0
  Ga  Ga115  1  0.94719900  0.39527350  0.11546650  1.0
  Ga  Ga116  1  0.94719900  0.72860683  0.11546650  1.0
  Ga  Ga117  1  0.11386567  0.15717826  0.04403793  1.0
  Ga  Ga118  1  0.11386567  0.49051160  0.04403793  1.0
  Ga  Ga119  1  0.11386567  0.82384493  0.04403793  1.0
  Ga  Ga120  1  0.44719900  0.15717826  0.04403793  1.0
  Ga  Ga121  1  0.44719900  0.49051160  0.04403793  1.0
  Ga  Ga122  1  0.44719900  0.82384493  0.04403793  1.0
  Ga  Ga123  1  0.78053233  0.15717826  0.04403793  1.0
  Ga  Ga124  1  0.78053233  0.49051160  0.04403793  1.0
  Ga  Ga125  1  0.78053233  0.82384493  0.04403793  1.0
  Ga  Ga126  1  0.27230500  0.27946231  0.10501564  1.0
  Ga  Ga127  1  0.27230500  0.61279564  0.10501564  1.0
  Ga  Ga128  1  0.27230500  0.94612898  0.10501564  1.0
  Ga  Ga129  1  0.60563833  0.27946231  0.10501564  1.0
  Ga  Ga130  1  0.60563833  0.61279564  0.10501564  1.0
  Ga  Ga131  1  0.60563833  0.94612898  0.10501564  1.0
  Ga  Ga132  1  0.93897167  0.27946231  0.10501564  1.0
  Ga  Ga133  1  0.93897167  0.61279564  0.10501564  1.0
  Ga  Ga134  1  0.93897167  0.94612898  0.10501564  1.0
  Ga  Ga135  1  0.10563833  0.04136707  0.03358707  1.0
  Ga  Ga136  1  0.10563833  0.37470040  0.03358707  1.0
  Ga  Ga137  1  0.10563833  0.70803374  0.03358707  1.0
  Ga  Ga138  1  0.43897167  0.04136707  0.03358707  1.0
  Ga  Ga139  1  0.43897167  0.37470040  0.03358707  1.0
  Ga  Ga140  1  0.43897167  0.70803374  0.03358707  1.0
  Ga  Ga141  1  0.77230500  0.04136707  0.03358707  1.0
  Ga  Ga142  1  0.77230500  0.37470040  0.03358707  1.0
  Ga  Ga143  1  0.77230500  0.70803374  0.03358707  1.0
  Ga  Ga144  1  0.00741100  0.20280169  0.08966136  1.0
  Ga  Ga145  1  0.00741100  0.53613502  0.08966136  1.0
  Ga  Ga146  1  0.00741100  0.86946836  0.08966136  1.0
  Ga  Ga147  1  0.34074433  0.20280169  0.08966136  1.0
  Ga  Ga148  1  0.34074433  0.53613502  0.08966136  1.0
  Ga  Ga149  1  0.34074433  0.86946836  0.08966136  1.0
  Ga  Ga150  1  0.67407767  0.20280169  0.08966136  1.0
  Ga  Ga151  1  0.67407767  0.53613502  0.08966136  1.0
  Ga  Ga152  1  0.67407767  0.86946836  0.08966136  1.0
  Ga  Ga153  1  0.17407767  0.29803979  0.01823279  1.0
  Ga  Ga154  1  0.17407767  0.63137312  0.01823279  1.0
  Ga  Ga155  1  0.17407767  0.96470645  0.01823279  1.0
  Ga  Ga156  1  0.50741100  0.29803979  0.01823279  1.0
  Ga  Ga157  1  0.50741100  0.63137312  0.01823279  1.0
  Ga  Ga158  1  0.50741100  0.96470645  0.01823279  1.0
  Ga  Ga159  1  0.84074433  0.29803979  0.01823279  1.0
  Ga  Ga160  1  0.84074433  0.63137312  0.01823279  1.0
  Ga  Ga161  1  0.84074433  0.96470645  0.01823279  1.0
  Ga  Ga162  1  0.05211850  0.07752283  0.02321200  1.0
  Ga  Ga163  1  0.05211850  0.41085617  0.02321200  1.0
  Ga  Ga164  1  0.05211850  0.74418950  0.02321200  1.0
  Ga  Ga165  1  0.38545183  0.07752283  0.02321200  1.0
  Ga  Ga166  1  0.38545183  0.41085617  0.02321200  1.0
  Ga  Ga167  1  0.38545183  0.74418950  0.02321200  1.0
  Ga  Ga168  1  0.71878517  0.07752283  0.02321200  1.0
  Ga  Ga169  1  0.71878517  0.41085617  0.02321200  1.0
  Ga  Ga170  1  0.71878517  0.74418950  0.02321200  1.0
  Ga  Ga171  1  0.21878517  0.31561807  0.09464057  1.0
  Ga  Ga172  1  0.21878517  0.64895140  0.09464057  1.0
  Ga  Ga173  1  0.21878517  0.98228474  0.09464057  1.0
  Ga  Ga174  1  0.55211850  0.31561807  0.09464057  1.0
  Ga  Ga175  1  0.55211850  0.64895140  0.09464057  1.0
  Ga  Ga176  1  0.55211850  0.98228474  0.09464057  1.0
  Ga  Ga177  1  0.88545183  0.31561807  0.09464057  1.0
  Ga  Ga178  1  0.88545183  0.64895140  0.09464057  1.0
  Ga  Ga179  1  0.88545183  0.98228474  0.09464057  1.0
  Ga  Ga180  1  0.05636817  0.27915964  0.12081214  1.0
  Ga  Ga181  1  0.05636817  0.61249298  0.12081214  1.0
  Ga  Ga182  1  0.05636817  0.94582631  0.12081214  1.0
  Ga  Ga183  1  0.38970150  0.27915964  0.12081214  1.0
  Ga  Ga184  1  0.38970150  0.61249298  0.12081214  1.0
  Ga  Ga185  1  0.38970150  0.94582631  0.12081214  1.0
  Ga  Ga186  1  0.72303483  0.27915964  0.12081214  1.0
  Ga  Ga187  1  0.72303483  0.61249298  0.12081214  1.0
  Ga  Ga188  1  0.72303483  0.94582631  0.12081214  1.0
  Ga  Ga189  1  0.22303483  0.04106440  0.04938357  1.0
  Ga  Ga190  1  0.22303483  0.37439774  0.04938357  1.0
  Ga  Ga191  1  0.22303483  0.70773107  0.04938357  1.0
  Ga  Ga192  1  0.55636817  0.04106440  0.04938357  1.0
  Ga  Ga193  1  0.55636817  0.37439774  0.04938357  1.0
  Ga  Ga194  1  0.55636817  0.70773107  0.04938357  1.0
  Ga  Ga195  1  0.88970150  0.04106440  0.04938357  1.0
  Ga  Ga196  1  0.88970150  0.37439774  0.04938357  1.0
  Ga  Ga197  1  0.88970150  0.70773107  0.04938357  1.0
  Ga  Ga198  1  0.32550850  0.02802331  0.14037914  1.0
  Ga  Ga199  1  0.32550850  0.36135664  0.14037914  1.0
  Ga  Ga200  1  0.32550850  0.69468998  0.14037914  1.0
  Ga  Ga201  1  0.65884183  0.02802331  0.14037914  1.0
  Ga  Ga202  1  0.65884183  0.36135664  0.14037914  1.0
  Ga  Ga203  1  0.65884183  0.69468998  0.14037914  1.0
  Ga  Ga204  1  0.99217517  0.02802331  0.14037914  1.0
  Ga  Ga205  1  0.99217517  0.36135664  0.14037914  1.0
  Ga  Ga206  1  0.99217517  0.69468998  0.14037914  1.0
  Ga  Ga207  1  0.15884183  0.12326140  0.06895057  1.0
  Ga  Ga208  1  0.15884183  0.45659474  0.06895057  1.0
  Ga  Ga209  1  0.15884183  0.78992807  0.06895057  1.0
  Ga  Ga210  1  0.49217517  0.12326140  0.06895057  1.0
  Ga  Ga211  1  0.49217517  0.45659474  0.06895057  1.0
  Ga  Ga212  1  0.49217517  0.78992807  0.06895057  1.0
  Ga  Ga213  1  0.82550850  0.12326140  0.06895057  1.0
  Ga  Ga214  1  0.82550850  0.45659474  0.06895057  1.0
  Ga  Ga215  1  0.82550850  0.78992807  0.06895057  1.0
  Ga  Ga216  1  0.04632833  0.30150817  0.01684050  1.0
  Ga  Ga217  1  0.04632833  0.63484150  0.01684050  1.0
  Ga  Ga218  1  0.04632833  0.96817483  0.01684050  1.0
  Ga  Ga219  1  0.37966167  0.30150817  0.01684050  1.0
  Ga  Ga220  1  0.37966167  0.63484150  0.01684050  1.0
  Ga  Ga221  1  0.37966167  0.96817483  0.01684050  1.0
  Ga  Ga222  1  0.71299500  0.30150817  0.01684050  1.0
  Ga  Ga223  1  0.71299500  0.63484150  0.01684050  1.0
  Ga  Ga224  1  0.71299500  0.96817483  0.01684050  1.0
  Ga  Ga225  1  0.21299500  0.20627007  0.08826907  1.0
  Ga  Ga226  1  0.21299500  0.53960340  0.08826907  1.0
  Ga  Ga227  1  0.21299500  0.87293674  0.08826907  1.0
  Ga  Ga228  1  0.54632833  0.20627007  0.08826907  1.0
  Ga  Ga229  1  0.54632833  0.53960340  0.08826907  1.0
  Ga  Ga230  1  0.54632833  0.87293674  0.08826907  1.0
  Ga  Ga231  1  0.87966167  0.20627007  0.08826907  1.0
  Ga  Ga232  1  0.87966167  0.53960340  0.08826907  1.0
  Ga  Ga233  1  0.87966167  0.87293674  0.08826907  1.0
  Ga  Ga234  1  0.29118217  0.12690512  0.07699029  1.0
  Ga  Ga235  1  0.29118217  0.46023845  0.07699029  1.0
  Ga  Ga236  1  0.29118217  0.79357179  0.07699029  1.0
  Ga  Ga237  1  0.62451550  0.12690512  0.07699029  1.0
  Ga  Ga238  1  0.62451550  0.46023845  0.07699029  1.0
  Ga  Ga239  1  0.62451550  0.79357179  0.07699029  1.0
  Ga  Ga240  1  0.95784883  0.12690512  0.07699029  1.0
  Ga  Ga241  1  0.95784883  0.46023845  0.07699029  1.0
  Ga  Ga242  1  0.95784883  0.79357179  0.07699029  1.0
  Ga  Ga243  1  0.12451550  0.22214321  0.00556171  1.0
  Ga  Ga244  1  0.12451550  0.55547655  0.00556171  1.0
  Ga  Ga245  1  0.12451550  0.88880988  0.00556171  1.0
  Ga  Ga246  1  0.45784883  0.22214321  0.00556171  1.0
  Ga  Ga247  1  0.45784883  0.55547655  0.00556171  1.0
  Ga  Ga248  1  0.45784883  0.88880988  0.00556171  1.0
  Ga  Ga249  1  0.79118217  0.22214321  0.00556171  1.0
  Ga  Ga250  1  0.79118217  0.55547655  0.00556171  1.0
  Ga  Ga251  1  0.79118217  0.88880988  0.00556171  1.0
  Ga  Ga252  1  0.04215117  0.16303469  0.11311986  1.0
  Ga  Ga253  1  0.04215117  0.49636802  0.11311986  1.0
  Ga  Ga254  1  0.04215117  0.82970136  0.11311986  1.0
  Ga  Ga255  1  0.37548450  0.16303469  0.11311986  1.0
  Ga  Ga256  1  0.37548450  0.49636802  0.11311986  1.0
  Ga  Ga257  1  0.37548450  0.82970136  0.11311986  1.0
  Ga  Ga258  1  0.70881783  0.16303469  0.11311986  1.0
  Ga  Ga259  1  0.70881783  0.49636802  0.11311986  1.0
  Ga  Ga260  1  0.70881783  0.82970136  0.11311986  1.0
  Ga  Ga261  1  0.20881783  0.25827279  0.04169129  1.0
  Ga  Ga262  1  0.20881783  0.59160612  0.04169129  1.0
  Ga  Ga263  1  0.20881783  0.92493945  0.04169129  1.0
  Ga  Ga264  1  0.54215117  0.25827279  0.04169129  1.0
  Ga  Ga265  1  0.54215117  0.59160612  0.04169129  1.0
  Ga  Ga266  1  0.54215117  0.92493945  0.04169129  1.0
  Ga  Ga267  1  0.87548450  0.25827279  0.04169129  1.0
  Ga  Ga268  1  0.87548450  0.59160612  0.04169129  1.0
  Ga  Ga269  1  0.87548450  0.92493945  0.04169129  1.0
  Ga  Ga270  1  0.28700500  0.00788483  0.05655050  1.0
  Ga  Ga271  1  0.28700500  0.34121817  0.05655050  1.0
  Ga  Ga272  1  0.28700500  0.67455150  0.05655050  1.0
  Ga  Ga273  1  0.62033833  0.00788483  0.05655050  1.0
  Ga  Ga274  1  0.62033833  0.34121817  0.05655050  1.0
  Ga  Ga275  1  0.62033833  0.67455150  0.05655050  1.0
  Ga  Ga276  1  0.95367167  0.00788483  0.05655050  1.0
  Ga  Ga277  1  0.95367167  0.34121817  0.05655050  1.0
  Ga  Ga278  1  0.95367167  0.67455150  0.05655050  1.0
  Ga  Ga279  1  0.12033833  0.24598007  0.12797907  1.0
  Ga  Ga280  1  0.12033833  0.57931340  0.12797907  1.0
  Ga  Ga281  1  0.12033833  0.91264674  0.12797907  1.0
  Ga  Ga282  1  0.45367167  0.24598007  0.12797907  1.0
  Ga  Ga283  1  0.45367167  0.57931340  0.12797907  1.0
  Ga  Ga284  1  0.45367167  0.91264674  0.12797907  1.0
  Ga  Ga285  1  0.78700500  0.24598007  0.12797907  1.0
  Ga  Ga286  1  0.78700500  0.57931340  0.12797907  1.0
  Ga  Ga287  1  0.78700500  0.91264674  0.12797907  1.0
  Ga  Ga288  1  0.27989583  0.16850736  0.11414286  1.0
  Ga  Ga289  1  0.27989583  0.50184069  0.11414286  1.0
  Ga  Ga290  1  0.27989583  0.83517402  0.11414286  1.0
  Ga  Ga291  1  0.61322917  0.16850736  0.11414286  1.0
  Ga  Ga292  1  0.61322917  0.50184069  0.11414286  1.0
  Ga  Ga293  1  0.61322917  0.83517402  0.11414286  1.0
  Ga  Ga294  1  0.94656250  0.16850736  0.11414286  1.0
  Ga  Ga295  1  0.94656250  0.50184069  0.11414286  1.0
  Ga  Ga296  1  0.94656250  0.83517402  0.11414286  1.0
  Ga  Ga297  1  0.11322917  0.26374545  0.04271429  1.0
  Ga  Ga298  1  0.11322917  0.59707879  0.04271429  1.0
  Ga  Ga299  1  0.11322917  0.93041212  0.04271429  1.0
  Ga  Ga300  1  0.44656250  0.26374545  0.04271429  1.0
  Ga  Ga301  1  0.44656250  0.59707879  0.04271429  1.0
  Ga  Ga302  1  0.44656250  0.93041212  0.04271429  1.0
  Ga  Ga303  1  0.77989583  0.26374545  0.04271429  1.0
  Ga  Ga304  1  0.77989583  0.59707879  0.04271429  1.0
  Ga  Ga305  1  0.77989583  0.93041212  0.04271429  1.0
  Ga  Ga306  1  0.05272117  0.00997302  0.06319986  1.0
  Ga  Ga307  1  0.05272117  0.34330636  0.06319986  1.0
  Ga  Ga308  1  0.05272117  0.67663969  0.06319986  1.0
  Ga  Ga309  1  0.38605450  0.00997302  0.06319986  1.0
  Ga  Ga310  1  0.38605450  0.34330636  0.06319986  1.0
  Ga  Ga311  1  0.38605450  0.67663969  0.06319986  1.0
  Ga  Ga312  1  0.71938783  0.00997302  0.06319986  1.0
  Ga  Ga313  1  0.71938783  0.34330636  0.06319986  1.0
  Ga  Ga314  1  0.71938783  0.67663969  0.06319986  1.0
  Ga  Ga315  1  0.21938783  0.24806826  0.13462843  1.0
  Ga  Ga316  1  0.21938783  0.58140160  0.13462843  1.0
  Ga  Ga317  1  0.21938783  0.91473493  0.13462843  1.0
  Ga  Ga318  1  0.55272117  0.24806826  0.13462843  1.0
  Ga  Ga319  1  0.55272117  0.58140160  0.13462843  1.0
  Ga  Ga320  1  0.55272117  0.91473493  0.13462843  1.0
  Ga  Ga321  1  0.88605450  0.24806826  0.13462843  1.0
  Ga  Ga322  1  0.88605450  0.58140160  0.13462843  1.0
  Ga  Ga323  1  0.88605450  0.91473493  0.13462843  1.0
  Ga  Ga324  1  0.28061217  0.29811679  0.01801029  1.0
  Ga  Ga325  1  0.28061217  0.63145012  0.01801029  1.0
  Ga  Ga326  1  0.28061217  0.96478345  0.01801029  1.0
  Ga  Ga327  1  0.61394550  0.29811679  0.01801029  1.0
  Ga  Ga328  1  0.61394550  0.63145012  0.01801029  1.0
  Ga  Ga329  1  0.61394550  0.96478345  0.01801029  1.0
  Ga  Ga330  1  0.94727883  0.29811679  0.01801029  1.0
  Ga  Ga331  1  0.94727883  0.63145012  0.01801029  1.0
  Ga  Ga332  1  0.94727883  0.96478345  0.01801029  1.0
  Ga  Ga333  1  0.11394550  0.20287869  0.08943886  1.0
  Ga  Ga334  1  0.11394550  0.53621202  0.08943886  1.0
  Ga  Ga335  1  0.11394550  0.86954536  0.08943886  1.0
  Ga  Ga336  1  0.44727883  0.20287869  0.08943886  1.0
  Ga  Ga337  1  0.44727883  0.53621202  0.08943886  1.0
  Ga  Ga338  1  0.44727883  0.86954536  0.08943886  1.0
  Ga  Ga339  1  0.78061217  0.20287869  0.08943886  1.0
  Ga  Ga340  1  0.78061217  0.53621202  0.08943886  1.0
  Ga  Ga341  1  0.78061217  0.86954536  0.08943886  1.0
  Ga  Ga342  1  0.05343750  0.12270379  0.06833929  1.0
  Ga  Ga343  1  0.05343750  0.45603712  0.06833929  1.0
  Ga  Ga344  1  0.05343750  0.78937045  0.06833929  1.0
  Ga  Ga345  1  0.38677083  0.12270379  0.06833929  1.0
  Ga  Ga346  1  0.38677083  0.45603712  0.06833929  1.0
  Ga  Ga347  1  0.38677083  0.78937045  0.06833929  1.0
  Ga  Ga348  1  0.72010417  0.12270379  0.06833929  1.0
  Ga  Ga349  1  0.72010417  0.45603712  0.06833929  1.0
  Ga  Ga350  1  0.72010417  0.78937045  0.06833929  1.0
  Ga  Ga351  1  0.22010417  0.02746569  0.13976786  1.0
  Ga  Ga352  1  0.22010417  0.36079902  0.13976786  1.0
  Ga  Ga353  1  0.22010417  0.69413236  0.13976786  1.0
  Ga  Ga354  1  0.55343750  0.02746569  0.13976786  1.0
  Ga  Ga355  1  0.55343750  0.36079902  0.13976786  1.0
  Ga  Ga356  1  0.55343750  0.69413236  0.13976786  1.0
  Ga  Ga357  1  0.88677083  0.02746569  0.13976786  1.0
  Ga  Ga358  1  0.88677083  0.36079902  0.13976786  1.0
  Ga  Ga359  1  0.88677083  0.69413236  0.13976786  1.0
  Ga  Ga360  1  0.33333333  0.31103717  0.09865150  1.0
  Ga  Ga361  1  0.33333333  0.64437050  0.09865150  1.0
  Ga  Ga362  1  0.33333333  0.97770383  0.09865150  1.0
  Ga  Ga363  1  0.66666667  0.31103717  0.09865150  1.0
  Ga  Ga364  1  0.66666667  0.64437050  0.09865150  1.0
  Ga  Ga365  1  0.66666667  0.97770383  0.09865150  1.0
  Ga  Ga366  1  0.00000000  0.31103717  0.09865150  1.0
  Ga  Ga367  1  1.00000000  0.64437050  0.09865150  1.0
  Ga  Ga368  1  1.00000000  0.97770383  0.09865150  1.0
  Ga  Ga369  1  0.16666667  0.07294193  0.02722293  1.0
  Ga  Ga370  1  0.16666667  0.40627526  0.02722293  1.0
  Ga  Ga371  1  0.16666667  0.73960860  0.02722293  1.0
  Ga  Ga372  1  0.50000000  0.07294193  0.02722293  1.0
  Ga  Ga373  1  0.50000000  0.40627526  0.02722293  1.0
  Ga  Ga374  1  0.50000000  0.73960860  0.02722293  1.0
  Ga  Ga375  1  0.83333333  0.07294193  0.02722293  1.0
  Ga  Ga376  1  0.83333333  0.40627526  0.02722293  1.0
  Ga  Ga377  1  0.83333333  0.73960860  0.02722293  1.0
  Ga  Ga378  1  0.28121483  0.21367298  0.15936214  1.0
  Ga  Ga379  1  0.28121483  0.54700631  0.15936214  1.0
  Ga  Ga380  1  0.28121483  0.88033964  0.15936214  1.0
  Ga  Ga381  1  0.61454817  0.21367298  0.15936214  1.0
  Ga  Ga382  1  0.61454817  0.54700631  0.15936214  1.0
  Ga  Ga383  1  0.61454817  0.88033964  0.15936214  1.0
  Ga  Ga384  1  0.94788150  0.21367298  0.15936214  1.0
  Ga  Ga385  1  0.94788150  0.54700631  0.15936214  1.0
  Ga  Ga386  1  0.94788150  0.88033964  0.15936214  1.0
  Ga  Ga387  1  0.11454817  0.11843488  0.23079071  1.0
  Ga  Ga388  1  0.11454817  0.45176821  0.23079071  1.0
  Ga  Ga389  1  0.11454817  0.78510155  0.23079071  1.0
  Ga  Ga390  1  0.44788150  0.11843488  0.23079071  1.0
  Ga  Ga391  1  0.44788150  0.45176821  0.23079071  1.0
  Ga  Ga392  1  0.44788150  0.78510155  0.23079071  1.0
  Ga  Ga393  1  0.78121483  0.11843488  0.23079071  1.0
  Ga  Ga394  1  0.78121483  0.45176821  0.23079071  1.0
  Ga  Ga395  1  0.78121483  0.78510155  0.23079071  1.0
  Ga  Ga396  1  0.27696517  0.32747521  0.16912771  1.0
  Ga  Ga397  1  0.27696517  0.66080855  0.16912771  1.0
  Ga  Ga398  1  0.27696517  0.99414188  0.16912771  1.0
  Ga  Ga399  1  0.61029850  0.32747521  0.16912771  1.0
  Ga  Ga400  1  0.61029850  0.66080855  0.16912771  1.0
  Ga  Ga401  1  0.61029850  0.99414188  0.16912771  1.0
  Ga  Ga402  1  0.94363183  0.32747521  0.16912771  1.0
  Ga  Ga403  1  0.94363183  0.66080855  0.16912771  1.0
  Ga  Ga404  1  0.94363183  0.99414188  0.16912771  1.0
  Ga  Ga405  1  0.11029850  0.23223712  0.24055629  1.0
  Ga  Ga406  1  0.11029850  0.56557045  0.24055629  1.0
  Ga  Ga407  1  0.11029850  0.89890379  0.24055629  1.0
  Ga  Ga408  1  0.44363183  0.23223712  0.24055629  1.0
  Ga  Ga409  1  0.44363183  0.56557045  0.24055629  1.0
  Ga  Ga410  1  0.44363183  0.89890379  0.24055629  1.0
  Ga  Ga411  1  0.77696517  0.23223712  0.24055629  1.0
  Ga  Ga412  1  0.77696517  0.56557045  0.24055629  1.0
  Ga  Ga413  1  0.77696517  0.89890379  0.24055629  1.0
  Ga  Ga414  1  0.00782483  0.07269631  0.18505214  1.0
  Ga  Ga415  1  0.00782483  0.40602964  0.18505214  1.0
  Ga  Ga416  1  0.00782483  0.73936298  0.18505214  1.0
  Ga  Ga417  1  0.34115817  0.07269631  0.18505214  1.0
  Ga  Ga418  1  0.34115817  0.40602964  0.18505214  1.0
  Ga  Ga419  1  0.34115817  0.73936298  0.18505214  1.0
  Ga  Ga420  1  0.67449150  0.07269631  0.18505214  1.0
  Ga  Ga421  1  0.67449150  0.40602964  0.18505214  1.0
  Ga  Ga422  1  0.67449150  0.73936298  0.18505214  1.0
  Ga  Ga423  1  0.17449150  0.31079155  0.25648071  1.0
  Ga  Ga424  1  0.17449150  0.64412488  0.25648071  1.0
  Ga  Ga425  1  0.17449150  0.97745821  0.25648071  1.0
  Ga  Ga426  1  0.50782483  0.31079155  0.25648071  1.0
  Ga  Ga427  1  0.50782483  0.64412488  0.25648071  1.0
  Ga  Ga428  1  0.50782483  0.97745821  0.25648071  1.0
  Ga  Ga429  1  0.84115817  0.31079155  0.25648071  1.0
  Ga  Ga430  1  0.84115817  0.64412488  0.25648071  1.0
  Ga  Ga431  1  0.84115817  0.97745821  0.25648071  1.0
  Ga  Ga432  1  0.05280100  0.19844502  0.25197136  1.0
  Ga  Ga433  1  0.05280100  0.53177836  0.25197136  1.0
  Ga  Ga434  1  0.05280100  0.86511169  0.25197136  1.0
  Ga  Ga435  1  0.38613433  0.19844502  0.25197136  1.0
  Ga  Ga436  1  0.38613433  0.53177836  0.25197136  1.0
  Ga  Ga437  1  0.38613433  0.86511169  0.25197136  1.0
  Ga  Ga438  1  0.71946767  0.19844502  0.25197136  1.0
  Ga  Ga439  1  0.71946767  0.53177836  0.25197136  1.0
  Ga  Ga440  1  0.71946767  0.86511169  0.25197136  1.0
  Ga  Ga441  1  0.21946767  0.29368312  0.18054279  1.0
  Ga  Ga442  1  0.21946767  0.62701645  0.18054279  1.0
  Ga  Ga443  1  0.21946767  0.96034979  0.18054279  1.0
  Ga  Ga444  1  0.55280100  0.29368312  0.18054279  1.0
  Ga  Ga445  1  0.55280100  0.62701645  0.18054279  1.0
  Ga  Ga446  1  0.55280100  0.96034979  0.18054279  1.0
  Ga  Ga447  1  0.88613433  0.29368312  0.18054279  1.0
  Ga  Ga448  1  0.88613433  0.62701645  0.18054279  1.0
  Ga  Ga449  1  0.88613433  0.96034979  0.18054279  1.0
  Ga  Ga450  1  0.06102833  0.33177231  0.15732564  1.0
  Ga  Ga451  1  0.06102833  0.66510564  0.15732564  1.0
  Ga  Ga452  1  0.06102833  0.99843898  0.15732564  1.0
  Ga  Ga453  1  0.39436167  0.33177231  0.15732564  1.0
  Ga  Ga454  1  0.39436167  0.66510564  0.15732564  1.0
  Ga  Ga455  1  0.39436167  0.99843898  0.15732564  1.0
  Ga  Ga456  1  0.72769500  0.33177231  0.15732564  1.0
  Ga  Ga457  1  0.72769500  0.66510564  0.15732564  1.0
  Ga  Ga458  1  0.72769500  0.99843898  0.15732564  1.0
  Ga  Ga459  1  0.22769500  0.23653421  0.22875421  1.0
  Ga  Ga460  1  0.22769500  0.56986755  0.22875421  1.0
  Ga  Ga461  1  0.22769500  0.90320088  0.22875421  1.0
  Ga  Ga462  1  0.56102833  0.23653421  0.22875421  1.0
  Ga  Ga463  1  0.56102833  0.56986755  0.22875421  1.0
  Ga  Ga464  1  0.56102833  0.90320088  0.22875421  1.0
  Ga  Ga465  1  0.89436167  0.23653421  0.22875421  1.0
  Ga  Ga466  1  0.89436167  0.56986755  0.22875421  1.0
  Ga  Ga467  1  0.89436167  0.90320088  0.22875421  1.0
  Ga  Ga468  1  0.32592233  0.05758350  0.27777650  1.0
  Ga  Ga469  1  0.32592233  0.39091683  0.27777650  1.0
  Ga  Ga470  1  0.32592233  0.72425017  0.27777650  1.0
  Ga  Ga471  1  0.65925567  0.05758350  0.27777650  1.0
  Ga  Ga472  1  0.65925567  0.39091683  0.27777650  1.0
  Ga  Ga473  1  0.65925567  0.72425017  0.27777650  1.0
  Ga  Ga474  1  0.99258900  0.05758350  0.27777650  1.0
  Ga  Ga475  1  0.99258900  0.39091683  0.27777650  1.0
  Ga  Ga476  1  0.99258900  0.72425017  0.27777650  1.0
  Ga  Ga477  1  0.15925567  0.15282160  0.20634793  1.0
  Ga  Ga478  1  0.15925567  0.48615493  0.20634793  1.0
  Ga  Ga479  1  0.15925567  0.81948826  0.20634793  1.0
  Ga  Ga480  1  0.49258900  0.15282160  0.20634793  1.0
  Ga  Ga481  1  0.49258900  0.48615493  0.20634793  1.0
  Ga  Ga482  1  0.49258900  0.81948826  0.20634793  1.0
  Ga  Ga483  1  0.82592233  0.15282160  0.20634793  1.0
  Ga  Ga484  1  0.82592233  0.48615493  0.20634793  1.0
  Ga  Ga485  1  0.82592233  0.81948826  0.20634793  1.0
  Ga  Ga486  1  0.28053233  0.20479731  0.25832364  1.0
  Ga  Ga487  1  0.28053233  0.53813064  0.25832364  1.0
  Ga  Ga488  1  0.28053233  0.87146398  0.25832364  1.0
  Ga  Ga489  1  0.61386567  0.20479731  0.25832364  1.0
  Ga  Ga490  1  0.61386567  0.53813064  0.25832364  1.0
  Ga  Ga491  1  0.61386567  0.87146398  0.25832364  1.0
  Ga  Ga492  1  0.94719900  0.20479731  0.25832364  1.0
  Ga  Ga493  1  0.94719900  0.53813064  0.25832364  1.0
  Ga  Ga494  1  0.94719900  0.87146398  0.25832364  1.0
  Ga  Ga495  1  0.11386567  0.30003540  0.18689507  1.0
  Ga  Ga496  1  0.11386567  0.63336874  0.18689507  1.0
  Ga  Ga497  1  0.11386567  0.96670207  0.18689507  1.0
  Ga  Ga498  1  0.44719900  0.30003540  0.18689507  1.0
  Ga  Ga499  1  0.44719900  0.63336874  0.18689507  1.0
  Ga  Ga500  1  0.44719900  0.96670207  0.18689507  1.0
  Ga  Ga501  1  0.78053233  0.30003540  0.18689507  1.0
  Ga  Ga502  1  0.78053233  0.63336874  0.18689507  1.0
  Ga  Ga503  1  0.78053233  0.96670207  0.18689507  1.0
  Ga  Ga504  1  0.27230500  0.08898612  0.24787279  1.0
  Ga  Ga505  1  0.27230500  0.42231945  0.24787279  1.0
  Ga  Ga506  1  0.27230500  0.75565279  0.24787279  1.0
  Ga  Ga507  1  0.60563833  0.08898612  0.24787279  1.0
  Ga  Ga508  1  0.60563833  0.42231945  0.24787279  1.0
  Ga  Ga509  1  0.60563833  0.75565279  0.24787279  1.0
  Ga  Ga510  1  0.93897167  0.08898612  0.24787279  1.0
  Ga  Ga511  1  0.93897167  0.42231945  0.24787279  1.0
  Ga  Ga512  1  0.93897167  0.75565279  0.24787279  1.0
  Ga  Ga513  1  0.10563833  0.18422421  0.17644421  1.0
  Ga  Ga514  1  0.10563833  0.51755755  0.17644421  1.0
  Ga  Ga515  1  0.10563833  0.85089088  0.17644421  1.0
  Ga  Ga516  1  0.43897167  0.18422421  0.17644421  1.0
  Ga  Ga517  1  0.43897167  0.51755755  0.17644421  1.0
  Ga  Ga518  1  0.43897167  0.85089088  0.17644421  1.0
  Ga  Ga519  1  0.77230500  0.18422421  0.17644421  1.0
  Ga  Ga520  1  0.77230500  0.51755755  0.17644421  1.0
  Ga  Ga521  1  0.77230500  0.85089088  0.17644421  1.0
  Ga  Ga522  1  0.00741100  0.01232550  0.23251850  1.0
  Ga  Ga523  1  0.00741100  0.34565883  0.23251850  1.0
  Ga  Ga524  1  0.00741100  0.67899217  0.23251850  1.0
  Ga  Ga525  1  0.34074433  0.01232550  0.23251850  1.0
  Ga  Ga526  1  0.34074433  0.34565883  0.23251850  1.0
  Ga  Ga527  1  0.34074433  0.67899217  0.23251850  1.0
  Ga  Ga528  1  0.67407767  0.01232550  0.23251850  1.0
  Ga  Ga529  1  0.67407767  0.34565883  0.23251850  1.0
  Ga  Ga530  1  0.67407767  0.67899217  0.23251850  1.0
  Ga  Ga531  1  0.17407767  0.10756360  0.16108993  1.0
  Ga  Ga532  1  0.17407767  0.44089693  0.16108993  1.0
  Ga  Ga533  1  0.17407767  0.77423026  0.16108993  1.0
  Ga  Ga534  1  0.50741100  0.10756360  0.16108993  1.0
  Ga  Ga535  1  0.50741100  0.44089693  0.16108993  1.0
  Ga  Ga536  1  0.50741100  0.77423026  0.16108993  1.0
  Ga  Ga537  1  0.84074433  0.10756360  0.16108993  1.0
  Ga  Ga538  1  0.84074433  0.44089693  0.16108993  1.0
  Ga  Ga539  1  0.84074433  0.77423026  0.16108993  1.0
  Ga  Ga540  1  0.05211850  0.22037998  0.16606914  1.0
  Ga  Ga541  1  0.05211850  0.55371331  0.16606914  1.0
  Ga  Ga542  1  0.05211850  0.88704664  0.16606914  1.0
  Ga  Ga543  1  0.38545183  0.22037998  0.16606914  1.0
  Ga  Ga544  1  0.38545183  0.55371331  0.16606914  1.0
  Ga  Ga545  1  0.38545183  0.88704664  0.16606914  1.0
  Ga  Ga546  1  0.71878517  0.22037998  0.16606914  1.0
  Ga  Ga547  1  0.71878517  0.55371331  0.16606914  1.0
  Ga  Ga548  1  0.71878517  0.88704664  0.16606914  1.0
  Ga  Ga549  1  0.21878517  0.12514188  0.23749771  1.0
  Ga  Ga550  1  0.21878517  0.45847521  0.23749771  1.0
  Ga  Ga551  1  0.21878517  0.79180855  0.23749771  1.0
  Ga  Ga552  1  0.55211850  0.12514188  0.23749771  1.0
  Ga  Ga553  1  0.55211850  0.45847521  0.23749771  1.0
  Ga  Ga554  1  0.55211850  0.79180855  0.23749771  1.0
  Ga  Ga555  1  0.88545183  0.12514188  0.23749771  1.0
  Ga  Ga556  1  0.88545183  0.45847521  0.23749771  1.0
  Ga  Ga557  1  0.88545183  0.79180855  0.23749771  1.0
  Ga  Ga558  1  0.05636817  0.08868345  0.26366929  1.0
  Ga  Ga559  1  0.05636817  0.42201679  0.26366929  1.0
  Ga  Ga560  1  0.05636817  0.75535012  0.26366929  1.0
  Ga  Ga561  1  0.38970150  0.08868345  0.26366929  1.0
  Ga  Ga562  1  0.38970150  0.42201679  0.26366929  1.0
  Ga  Ga563  1  0.38970150  0.75535012  0.26366929  1.0
  Ga  Ga564  1  0.72303483  0.08868345  0.26366929  1.0
  Ga  Ga565  1  0.72303483  0.42201679  0.26366929  1.0
  Ga  Ga566  1  0.72303483  0.75535012  0.26366929  1.0
  Ga  Ga567  1  0.22303483  0.18392155  0.19224071  1.0
  Ga  Ga568  1  0.22303483  0.51725488  0.19224071  1.0
  Ga  Ga569  1  0.22303483  0.85058821  0.19224071  1.0
  Ga  Ga570  1  0.55636817  0.18392155  0.19224071  1.0
  Ga  Ga571  1  0.55636817  0.51725488  0.19224071  1.0
  Ga  Ga572  1  0.55636817  0.85058821  0.19224071  1.0
  Ga  Ga573  1  0.88970150  0.18392155  0.19224071  1.0
  Ga  Ga574  1  0.88970150  0.51725488  0.19224071  1.0
  Ga  Ga575  1  0.88970150  0.85058821  0.19224071  1.0
  Ga  Ga576  1  0.32550850  0.17088045  0.28323629  1.0
  Ga  Ga577  1  0.32550850  0.50421379  0.28323629  1.0
  Ga  Ga578  1  0.32550850  0.83754712  0.28323629  1.0
  Ga  Ga579  1  0.65884183  0.17088045  0.28323629  1.0
  Ga  Ga580  1  0.65884183  0.50421379  0.28323629  1.0
  Ga  Ga581  1  0.65884183  0.83754712  0.28323629  1.0
  Ga  Ga582  1  0.99217517  0.17088045  0.28323629  1.0
  Ga  Ga583  1  0.99217517  0.50421379  0.28323629  1.0
  Ga  Ga584  1  0.99217517  0.83754712  0.28323629  1.0
  Ga  Ga585  1  0.15884183  0.26611855  0.21180771  1.0
  Ga  Ga586  1  0.15884183  0.59945188  0.21180771  1.0
  Ga  Ga587  1  0.15884183  0.93278521  0.21180771  1.0
  Ga  Ga588  1  0.49217517  0.26611855  0.21180771  1.0
  Ga  Ga589  1  0.49217517  0.59945188  0.21180771  1.0
  Ga  Ga590  1  0.49217517  0.93278521  0.21180771  1.0
  Ga  Ga591  1  0.82550850  0.26611855  0.21180771  1.0
  Ga  Ga592  1  0.82550850  0.59945188  0.21180771  1.0
  Ga  Ga593  1  0.82550850  0.93278521  0.21180771  1.0
  Ga  Ga594  1  0.04632833  0.11103198  0.15969764  1.0
  Ga  Ga595  1  0.04632833  0.44436531  0.15969764  1.0
  Ga  Ga596  1  0.04632833  0.77769864  0.15969764  1.0
  Ga  Ga597  1  0.37966167  0.11103198  0.15969764  1.0
  Ga  Ga598  1  0.37966167  0.44436531  0.15969764  1.0
  Ga  Ga599  1  0.37966167  0.77769864  0.15969764  1.0
  Ga  Ga600  1  0.71299500  0.11103198  0.15969764  1.0
  Ga  Ga601  1  0.71299500  0.44436531  0.15969764  1.0
  Ga  Ga602  1  0.71299500  0.77769864  0.15969764  1.0
  Ga  Ga603  1  0.21299500  0.01579388  0.23112621  1.0
  Ga  Ga604  1  0.21299500  0.34912721  0.23112621  1.0
  Ga  Ga605  1  0.21299500  0.68246055  0.23112621  1.0
  Ga  Ga606  1  0.54632833  0.01579388  0.23112621  1.0
  Ga  Ga607  1  0.54632833  0.34912721  0.23112621  1.0
  Ga  Ga608  1  0.54632833  0.68246055  0.23112621  1.0
  Ga  Ga609  1  0.87966167  0.01579388  0.23112621  1.0
  Ga  Ga610  1  0.87966167  0.34912721  0.23112621  1.0
  Ga  Ga611  1  0.87966167  0.68246055  0.23112621  1.0
  Ga  Ga612  1  0.29118217  0.26976226  0.21984743  1.0
  Ga  Ga613  1  0.29118217  0.60309560  0.21984743  1.0
  Ga  Ga614  1  0.29118217  0.93642893  0.21984743  1.0
  Ga  Ga615  1  0.62451550  0.26976226  0.21984743  1.0
  Ga  Ga616  1  0.62451550  0.60309560  0.21984743  1.0
  Ga  Ga617  1  0.62451550  0.93642893  0.21984743  1.0
  Ga  Ga618  1  0.95784883  0.26976226  0.21984743  1.0
  Ga  Ga619  1  0.95784883  0.60309560  0.21984743  1.0
  Ga  Ga620  1  0.95784883  0.93642893  0.21984743  1.0
  Ga  Ga621  1  0.12451550  0.03166702  0.14841886  1.0
  Ga  Ga622  1  0.12451550  0.36500036  0.14841886  1.0
  Ga  Ga623  1  0.12451550  0.69833369  0.14841886  1.0
  Ga  Ga624  1  0.45784883  0.03166702  0.14841886  1.0
  Ga  Ga625  1  0.45784883  0.36500036  0.14841886  1.0
  Ga  Ga626  1  0.45784883  0.69833369  0.14841886  1.0
  Ga  Ga627  1  0.79118217  0.03166702  0.14841886  1.0
  Ga  Ga628  1  0.79118217  0.36500036  0.14841886  1.0
  Ga  Ga629  1  0.79118217  0.69833369  0.14841886  1.0
  Ga  Ga630  1  0.04215117  0.30589183  0.25597700  1.0
  Ga  Ga631  1  0.04215117  0.63922517  0.25597700  1.0
  Ga  Ga632  1  0.04215117  0.97255850  0.25597700  1.0
  Ga  Ga633  1  0.37548450  0.30589183  0.25597700  1.0
  Ga  Ga634  1  0.37548450  0.63922517  0.25597700  1.0
  Ga  Ga635  1  0.37548450  0.97255850  0.25597700  1.0
  Ga  Ga636  1  0.70881783  0.30589183  0.25597700  1.0
  Ga  Ga637  1  0.70881783  0.63922517  0.25597700  1.0
  Ga  Ga638  1  0.70881783  0.97255850  0.25597700  1.0
  Ga  Ga639  1  0.20881783  0.06779660  0.18454843  1.0
  Ga  Ga640  1  0.20881783  0.40112993  0.18454843  1.0
  Ga  Ga641  1  0.20881783  0.73446326  0.18454843  1.0
  Ga  Ga642  1  0.54215117  0.06779660  0.18454843  1.0
  Ga  Ga643  1  0.54215117  0.40112993  0.18454843  1.0
  Ga  Ga644  1  0.54215117  0.73446326  0.18454843  1.0
  Ga  Ga645  1  0.87548450  0.06779660  0.18454843  1.0
  Ga  Ga646  1  0.87548450  0.40112993  0.18454843  1.0
  Ga  Ga647  1  0.87548450  0.73446326  0.18454843  1.0
  Ga  Ga648  1  0.28700500  0.15074198  0.19940764  1.0
  Ga  Ga649  1  0.28700500  0.48407531  0.19940764  1.0
  Ga  Ga650  1  0.28700500  0.81740864  0.19940764  1.0
  Ga  Ga651  1  0.62033833  0.15074198  0.19940764  1.0
  Ga  Ga652  1  0.62033833  0.48407531  0.19940764  1.0
  Ga  Ga653  1  0.62033833  0.81740864  0.19940764  1.0
  Ga  Ga654  1  0.95367167  0.15074198  0.19940764  1.0
  Ga  Ga655  1  0.95367167  0.48407531  0.19940764  1.0
  Ga  Ga656  1  0.95367167  0.81740864  0.19940764  1.0
  Ga  Ga657  1  0.12033833  0.05550388  0.27083621  1.0
  Ga  Ga658  1  0.12033833  0.38883721  0.27083621  1.0
  Ga  Ga659  1  0.12033833  0.72217055  0.27083621  1.0
  Ga  Ga660  1  0.45367167  0.05550388  0.27083621  1.0
  Ga  Ga661  1  0.45367167  0.38883721  0.27083621  1.0
  Ga  Ga662  1  0.45367167  0.72217055  0.27083621  1.0
  Ga  Ga663  1  0.78700500  0.05550388  0.27083621  1.0
  Ga  Ga664  1  0.78700500  0.38883721  0.27083621  1.0
  Ga  Ga665  1  0.78700500  0.72217055  0.27083621  1.0
  Ga  Ga666  1  0.27989583  0.31136450  0.25700000  1.0
  Ga  Ga667  1  0.27989583  0.64469783  0.25700000  1.0
  Ga  Ga668  1  0.27989583  0.97803117  0.25700000  1.0
  Ga  Ga669  1  0.61322917  0.31136450  0.25700000  1.0
  Ga  Ga670  1  0.61322917  0.64469783  0.25700000  1.0
  Ga  Ga671  1  0.61322917  0.97803117  0.25700000  1.0
  Ga  Ga672  1  0.94656250  0.31136450  0.25700000  1.0
  Ga  Ga673  1  0.94656250  0.64469783  0.25700000  1.0
  Ga  Ga674  1  0.94656250  0.97803117  0.25700000  1.0
  Ga  Ga675  1  0.11322917  0.07326926  0.18557143  1.0
  Ga  Ga676  1  0.11322917  0.40660260  0.18557143  1.0
  Ga  Ga677  1  0.11322917  0.73993593  0.18557143  1.0
  Ga  Ga678  1  0.44656250  0.07326926  0.18557143  1.0
  Ga  Ga679  1  0.44656250  0.40660260  0.18557143  1.0
  Ga  Ga680  1  0.44656250  0.73993593  0.18557143  1.0
  Ga  Ga681  1  0.77989583  0.07326926  0.18557143  1.0
  Ga  Ga682  1  0.77989583  0.40660260  0.18557143  1.0
  Ga  Ga683  1  0.77989583  0.73993593  0.18557143  1.0
  Ga  Ga684  1  0.05272117  0.15283017  0.20605700  1.0
  Ga  Ga685  1  0.05272117  0.48616350  0.20605700  1.0
  Ga  Ga686  1  0.05272117  0.81949683  0.20605700  1.0
  Ga  Ga687  1  0.38605450  0.15283017  0.20605700  1.0
  Ga  Ga688  1  0.38605450  0.48616350  0.20605700  1.0
  Ga  Ga689  1  0.38605450  0.81949683  0.20605700  1.0
  Ga  Ga690  1  0.71938783  0.15283017  0.20605700  1.0
  Ga  Ga691  1  0.71938783  0.48616350  0.20605700  1.0
  Ga  Ga692  1  0.71938783  0.81949683  0.20605700  1.0
  Ga  Ga693  1  0.21938783  0.05759207  0.27748557  1.0
  Ga  Ga694  1  0.21938783  0.39092540  0.27748557  1.0
  Ga  Ga695  1  0.21938783  0.72425874  0.27748557  1.0
  Ga  Ga696  1  0.55272117  0.05759207  0.27748557  1.0
  Ga  Ga697  1  0.55272117  0.39092540  0.27748557  1.0
  Ga  Ga698  1  0.55272117  0.72425874  0.27748557  1.0
  Ga  Ga699  1  0.88605450  0.05759207  0.27748557  1.0
  Ga  Ga700  1  0.88605450  0.39092540  0.27748557  1.0
  Ga  Ga701  1  0.88605450  0.72425874  0.27748557  1.0
  Ga  Ga702  1  0.28061217  0.10764060  0.16086743  1.0
  Ga  Ga703  1  0.28061217  0.44097393  0.16086743  1.0
  Ga  Ga704  1  0.28061217  0.77430726  0.16086743  1.0
  Ga  Ga705  1  0.61394550  0.10764060  0.16086743  1.0
  Ga  Ga706  1  0.61394550  0.44097393  0.16086743  1.0
  Ga  Ga707  1  0.61394550  0.77430726  0.16086743  1.0
  Ga  Ga708  1  0.94727883  0.10764060  0.16086743  1.0
  Ga  Ga709  1  0.94727883  0.44097393  0.16086743  1.0
  Ga  Ga710  1  0.94727883  0.77430726  0.16086743  1.0
  Ga  Ga711  1  0.11394550  0.01240250  0.23229600  1.0
  Ga  Ga712  1  0.11394550  0.34573583  0.23229600  1.0
  Ga  Ga713  1  0.11394550  0.67906917  0.23229600  1.0
  Ga  Ga714  1  0.44727883  0.01240250  0.23229600  1.0
  Ga  Ga715  1  0.44727883  0.34573583  0.23229600  1.0
  Ga  Ga716  1  0.44727883  0.67906917  0.23229600  1.0
  Ga  Ga717  1  0.78061217  0.01240250  0.23229600  1.0
  Ga  Ga718  1  0.78061217  0.34573583  0.23229600  1.0
  Ga  Ga719  1  0.78061217  0.67906917  0.23229600  1.0
  Ga  Ga720  1  0.05343750  0.26556093  0.21119643  1.0
  Ga  Ga721  1  0.05343750  0.59889426  0.21119643  1.0
  Ga  Ga722  1  0.05343750  0.93222760  0.21119643  1.0
  Ga  Ga723  1  0.38677083  0.26556093  0.21119643  1.0
  Ga  Ga724  1  0.38677083  0.59889426  0.21119643  1.0
  Ga  Ga725  1  0.38677083  0.93222760  0.21119643  1.0
  Ga  Ga726  1  0.72010417  0.26556093  0.21119643  1.0
  Ga  Ga727  1  0.72010417  0.59889426  0.21119643  1.0
  Ga  Ga728  1  0.72010417  0.93222760  0.21119643  1.0
  Ga  Ga729  1  0.22010417  0.17032283  0.28262500  1.0
  Ga  Ga730  1  0.22010417  0.50365617  0.28262500  1.0
  Ga  Ga731  1  0.22010417  0.83698950  0.28262500  1.0
  Ga  Ga732  1  0.55343750  0.17032283  0.28262500  1.0
  Ga  Ga733  1  0.55343750  0.50365617  0.28262500  1.0
  Ga  Ga734  1  0.55343750  0.83698950  0.28262500  1.0
  Ga  Ga735  1  0.88677083  0.17032283  0.28262500  1.0
  Ga  Ga736  1  0.88677083  0.50365617  0.28262500  1.0
  Ga  Ga737  1  0.88677083  0.83698950  0.28262500  1.0
  Ga  Ga738  1  0.00000000  0.12056098  0.24150864  1.0
  Ga  Ga739  1  0.00000000  0.45389431  0.24150864  1.0
  Ga  Ga740  1  0.00000000  0.78722764  0.24150864  1.0
  Ga  Ga741  1  0.33333333  0.12056098  0.24150864  1.0
  Ga  Ga742  1  0.33333333  0.45389431  0.24150864  1.0
  Ga  Ga743  1  0.33333333  0.78722764  0.24150864  1.0
  Ga  Ga744  1  0.66666667  0.12056098  0.24150864  1.0
  Ga  Ga745  1  0.66666667  0.45389431  0.24150864  1.0
  Ga  Ga746  1  0.66666667  0.78722764  0.24150864  1.0
  Ga  Ga747  1  0.16666667  0.21579907  0.17008007  1.0
  Ga  Ga748  1  0.16666667  0.54913240  0.17008007  1.0
  Ga  Ga749  1  0.16666667  0.88246574  0.17008007  1.0
  Ga  Ga750  1  0.50000000  0.21579907  0.17008007  1.0
  Ga  Ga751  1  0.50000000  0.54913240  0.17008007  1.0
  Ga  Ga752  1  0.50000000  0.88246574  0.17008007  1.0
  Ga  Ga753  1  0.83333333  0.21579907  0.17008007  1.0
  Ga  Ga754  1  0.83333333  0.54913240  0.17008007  1.0
  Ga  Ga755  1  0.83333333  0.88246574  0.17008007  1.0
  Ga  Ga756  1  0.28121483  0.02319679  0.30221929  1.0
  Ga  Ga757  1  0.28121483  0.35653012  0.30221929  1.0
  Ga  Ga758  1  0.28121483  0.68986345  0.30221929  1.0
  Ga  Ga759  1  0.61454817  0.02319679  0.30221929  1.0
  Ga  Ga760  1  0.61454817  0.35653012  0.30221929  1.0
  Ga  Ga761  1  0.61454817  0.68986345  0.30221929  1.0
  Ga  Ga762  1  0.94788150  0.02319679  0.30221929  1.0
  Ga  Ga763  1  0.94788150  0.35653012  0.30221929  1.0
  Ga  Ga764  1  0.94788150  0.68986345  0.30221929  1.0
  Ga  Ga765  1  0.11454817  0.26129202  0.37364786  1.0
  Ga  Ga766  1  0.11454817  0.59462536  0.37364786  1.0
  Ga  Ga767  1  0.11454817  0.92795869  0.37364786  1.0
  Ga  Ga768  1  0.44788150  0.26129202  0.37364786  1.0
  Ga  Ga769  1  0.44788150  0.59462536  0.37364786  1.0
  Ga  Ga770  1  0.44788150  0.92795869  0.37364786  1.0
  Ga  Ga771  1  0.78121483  0.26129202  0.37364786  1.0
  Ga  Ga772  1  0.78121483  0.59462536  0.37364786  1.0
  Ga  Ga773  1  0.78121483  0.92795869  0.37364786  1.0
  Ga  Ga774  1  0.27696517  0.13699902  0.31198486  1.0
  Ga  Ga775  1  0.27696517  0.47033236  0.31198486  1.0
  Ga  Ga776  1  0.27696517  0.80366569  0.31198486  1.0
  Ga  Ga777  1  0.61029850  0.13699902  0.31198486  1.0
  Ga  Ga778  1  0.61029850  0.47033236  0.31198486  1.0
  Ga  Ga779  1  0.61029850  0.80366569  0.31198486  1.0
  Ga  Ga780  1  0.94363183  0.13699902  0.31198486  1.0
  Ga  Ga781  1  0.94363183  0.47033236  0.31198486  1.0
  Ga  Ga782  1  0.94363183  0.80366569  0.31198486  1.0
  Ga  Ga783  1  0.11029850  0.04176093  0.38341343  1.0
  Ga  Ga784  1  0.11029850  0.37509426  0.38341343  1.0
  Ga  Ga785  1  0.11029850  0.70842760  0.38341343  1.0
  Ga  Ga786  1  0.44363183  0.04176093  0.38341343  1.0
  Ga  Ga787  1  0.44363183  0.37509426  0.38341343  1.0
  Ga  Ga788  1  0.44363183  0.70842760  0.38341343  1.0
  Ga  Ga789  1  0.77696517  0.04176093  0.38341343  1.0
  Ga  Ga790  1  0.77696517  0.37509426  0.38341343  1.0
  Ga  Ga791  1  0.77696517  0.70842760  0.38341343  1.0
  Ga  Ga792  1  0.00782483  0.21555345  0.32790929  1.0
  Ga  Ga793  1  0.00782483  0.54888679  0.32790929  1.0
  Ga  Ga794  1  0.00782483  0.88222012  0.32790929  1.0
  Ga  Ga795  1  0.34115817  0.21555345  0.32790929  1.0
  Ga  Ga796  1  0.34115817  0.54888679  0.32790929  1.0
  Ga  Ga797  1  0.34115817  0.88222012  0.32790929  1.0
  Ga  Ga798  1  0.67449150  0.21555345  0.32790929  1.0
  Ga  Ga799  1  0.67449150  0.54888679  0.32790929  1.0
  Ga  Ga800  1  0.67449150  0.88222012  0.32790929  1.0
  Ga  Ga801  1  0.17449150  0.12031536  0.39933786  1.0
  Ga  Ga802  1  0.17449150  0.45364869  0.39933786  1.0
  Ga  Ga803  1  0.17449150  0.78698202  0.39933786  1.0
  Ga  Ga804  1  0.50782483  0.12031536  0.39933786  1.0
  Ga  Ga805  1  0.50782483  0.45364869  0.39933786  1.0
  Ga  Ga806  1  0.50782483  0.78698202  0.39933786  1.0
  Ga  Ga807  1  0.84115817  0.12031536  0.39933786  1.0
  Ga  Ga808  1  0.84115817  0.45364869  0.39933786  1.0
  Ga  Ga809  1  0.84115817  0.78698202  0.39933786  1.0
  Ga  Ga810  1  0.05280100  0.00796883  0.39482850  1.0
  Ga  Ga811  1  0.05280100  0.34130217  0.39482850  1.0
  Ga  Ga812  1  0.05280100  0.67463550  0.39482850  1.0
  Ga  Ga813  1  0.38613433  0.00796883  0.39482850  1.0
  Ga  Ga814  1  0.38613433  0.34130217  0.39482850  1.0
  Ga  Ga815  1  0.38613433  0.67463550  0.39482850  1.0
  Ga  Ga816  1  0.71946767  0.00796883  0.39482850  1.0
  Ga  Ga817  1  0.71946767  0.34130217  0.39482850  1.0
  Ga  Ga818  1  0.71946767  0.67463550  0.39482850  1.0
  Ga  Ga819  1  0.21946767  0.10320693  0.32339993  1.0
  Ga  Ga820  1  0.21946767  0.43654026  0.32339993  1.0
  Ga  Ga821  1  0.21946767  0.76987360  0.32339993  1.0
  Ga  Ga822  1  0.55280100  0.10320693  0.32339993  1.0
  Ga  Ga823  1  0.55280100  0.43654026  0.32339993  1.0
  Ga  Ga824  1  0.55280100  0.76987360  0.32339993  1.0
  Ga  Ga825  1  0.88613433  0.10320693  0.32339993  1.0
  Ga  Ga826  1  0.88613433  0.43654026  0.32339993  1.0
  Ga  Ga827  1  0.88613433  0.76987360  0.32339993  1.0
  Ga  Ga828  1  0.06102833  0.14129612  0.30018279  1.0
  Ga  Ga829  1  0.06102833  0.47462945  0.30018279  1.0
  Ga  Ga830  1  0.06102833  0.80796279  0.30018279  1.0
  Ga  Ga831  1  0.39436167  0.14129612  0.30018279  1.0
  Ga  Ga832  1  0.39436167  0.47462945  0.30018279  1.0
  Ga  Ga833  1  0.39436167  0.80796279  0.30018279  1.0
  Ga  Ga834  1  0.72769500  0.14129612  0.30018279  1.0
  Ga  Ga835  1  0.72769500  0.47462945  0.30018279  1.0
  Ga  Ga836  1  0.72769500  0.80796279  0.30018279  1.0
  Ga  Ga837  1  0.22769500  0.04605802  0.37161136  1.0
  Ga  Ga838  1  0.22769500  0.37939136  0.37161136  1.0
  Ga  Ga839  1  0.22769500  0.71272469  0.37161136  1.0
  Ga  Ga840  1  0.56102833  0.04605802  0.37161136  1.0
  Ga  Ga841  1  0.56102833  0.37939136  0.37161136  1.0
  Ga  Ga842  1  0.56102833  0.71272469  0.37161136  1.0
  Ga  Ga843  1  0.89436167  0.04605802  0.37161136  1.0
  Ga  Ga844  1  0.89436167  0.37939136  0.37161136  1.0
  Ga  Ga845  1  0.89436167  0.71272469  0.37161136  1.0
  Ga  Ga846  1  0.32592233  0.20044064  0.42063364  1.0
  Ga  Ga847  1  0.32592233  0.53377398  0.42063364  1.0
  Ga  Ga848  1  0.32592233  0.86710731  0.42063364  1.0
  Ga  Ga849  1  0.65925567  0.20044064  0.42063364  1.0
  Ga  Ga850  1  0.65925567  0.53377398  0.42063364  1.0
  Ga  Ga851  1  0.65925567  0.86710731  0.42063364  1.0
  Ga  Ga852  1  0.99258900  0.20044064  0.42063364  1.0
  Ga  Ga853  1  0.99258900  0.53377398  0.42063364  1.0
  Ga  Ga854  1  0.99258900  0.86710731  0.42063364  1.0
  Ga  Ga855  1  0.15925567  0.29567874  0.34920507  1.0
  Ga  Ga856  1  0.15925567  0.62901207  0.34920507  1.0
  Ga  Ga857  1  0.15925567  0.96234540  0.34920507  1.0
  Ga  Ga858  1  0.49258900  0.29567874  0.34920507  1.0
  Ga  Ga859  1  0.49258900  0.62901207  0.34920507  1.0
  Ga  Ga860  1  0.49258900  0.96234540  0.34920507  1.0
  Ga  Ga861  1  0.82592233  0.29567874  0.34920507  1.0
  Ga  Ga862  1  0.82592233  0.62901207  0.34920507  1.0
  Ga  Ga863  1  0.82592233  0.96234540  0.34920507  1.0
  Ga  Ga864  1  0.28053233  0.01432112  0.40118079  1.0
  Ga  Ga865  1  0.28053233  0.34765445  0.40118079  1.0
  Ga  Ga866  1  0.28053233  0.68098779  0.40118079  1.0
  Ga  Ga867  1  0.61386567  0.01432112  0.40118079  1.0
  Ga  Ga868  1  0.61386567  0.34765445  0.40118079  1.0
  Ga  Ga869  1  0.61386567  0.68098779  0.40118079  1.0
  Ga  Ga870  1  0.94719900  0.01432112  0.40118079  1.0
  Ga  Ga871  1  0.94719900  0.34765445  0.40118079  1.0
  Ga  Ga872  1  0.94719900  0.68098779  0.40118079  1.0
  Ga  Ga873  1  0.11386567  0.10955921  0.32975221  1.0
  Ga  Ga874  1  0.11386567  0.44289255  0.32975221  1.0
  Ga  Ga875  1  0.11386567  0.77622588  0.32975221  1.0
  Ga  Ga876  1  0.44719900  0.10955921  0.32975221  1.0
  Ga  Ga877  1  0.44719900  0.44289255  0.32975221  1.0
  Ga  Ga878  1  0.44719900  0.77622588  0.32975221  1.0
  Ga  Ga879  1  0.78053233  0.10955921  0.32975221  1.0
  Ga  Ga880  1  0.78053233  0.44289255  0.32975221  1.0
  Ga  Ga881  1  0.78053233  0.77622588  0.32975221  1.0
  Ga  Ga882  1  0.27230500  0.23184326  0.39072993  1.0
  Ga  Ga883  1  0.27230500  0.56517660  0.39072993  1.0
  Ga  Ga884  1  0.27230500  0.89850993  0.39072993  1.0
  Ga  Ga885  1  0.60563833  0.23184326  0.39072993  1.0
  Ga  Ga886  1  0.60563833  0.56517660  0.39072993  1.0
  Ga  Ga887  1  0.60563833  0.89850993  0.39072993  1.0
  Ga  Ga888  1  0.93897167  0.23184326  0.39072993  1.0
  Ga  Ga889  1  0.93897167  0.56517660  0.39072993  1.0
  Ga  Ga890  1  0.93897167  0.89850993  0.39072993  1.0
  Ga  Ga891  1  0.10563833  0.32708136  0.31930136  1.0
  Ga  Ga892  1  0.10563833  0.66041469  0.31930136  1.0
  Ga  Ga893  1  0.10563833  0.99374802  0.31930136  1.0
  Ga  Ga894  1  0.43897167  0.32708136  0.31930136  1.0
  Ga  Ga895  1  0.43897167  0.66041469  0.31930136  1.0
  Ga  Ga896  1  0.43897167  0.99374802  0.31930136  1.0
  Ga  Ga897  1  0.77230500  0.32708136  0.31930136  1.0
  Ga  Ga898  1  0.77230500  0.66041469  0.31930136  1.0
  Ga  Ga899  1  0.77230500  0.99374802  0.31930136  1.0
  Ga  Ga900  1  0.00741100  0.15518264  0.37537564  1.0
  Ga  Ga901  1  0.00741100  0.48851598  0.37537564  1.0
  Ga  Ga902  1  0.00741100  0.82184931  0.37537564  1.0
  Ga  Ga903  1  0.34074433  0.15518264  0.37537564  1.0
  Ga  Ga904  1  0.34074433  0.48851598  0.37537564  1.0
  Ga  Ga905  1  0.34074433  0.82184931  0.37537564  1.0
  Ga  Ga906  1  0.67407767  0.15518264  0.37537564  1.0
  Ga  Ga907  1  0.67407767  0.48851598  0.37537564  1.0
  Ga  Ga908  1  0.67407767  0.82184931  0.37537564  1.0
  Ga  Ga909  1  0.17407767  0.25042074  0.30394707  1.0
  Ga  Ga910  1  0.17407767  0.58375407  0.30394707  1.0
  Ga  Ga911  1  0.17407767  0.91708740  0.30394707  1.0
  Ga  Ga912  1  0.50741100  0.25042074  0.30394707  1.0
  Ga  Ga913  1  0.50741100  0.58375407  0.30394707  1.0
  Ga  Ga914  1  0.50741100  0.91708740  0.30394707  1.0
  Ga  Ga915  1  0.84074433  0.25042074  0.30394707  1.0
  Ga  Ga916  1  0.84074433  0.58375407  0.30394707  1.0
  Ga  Ga917  1  0.84074433  0.91708740  0.30394707  1.0
  Ga  Ga918  1  0.05211850  0.02990379  0.30892629  1.0
  Ga  Ga919  1  0.05211850  0.36323712  0.30892629  1.0
  Ga  Ga920  1  0.05211850  0.69657045  0.30892629  1.0
  Ga  Ga921  1  0.38545183  0.02990379  0.30892629  1.0
  Ga  Ga922  1  0.38545183  0.36323712  0.30892629  1.0
  Ga  Ga923  1  0.38545183  0.69657045  0.30892629  1.0
  Ga  Ga924  1  0.71878517  0.02990379  0.30892629  1.0
  Ga  Ga925  1  0.71878517  0.36323712  0.30892629  1.0
  Ga  Ga926  1  0.71878517  0.69657045  0.30892629  1.0
  Ga  Ga927  1  0.21878517  0.26799902  0.38035486  1.0
  Ga  Ga928  1  0.21878517  0.60133236  0.38035486  1.0
  Ga  Ga929  1  0.21878517  0.93466569  0.38035486  1.0
  Ga  Ga930  1  0.55211850  0.26799902  0.38035486  1.0
  Ga  Ga931  1  0.55211850  0.60133236  0.38035486  1.0
  Ga  Ga932  1  0.55211850  0.93466569  0.38035486  1.0
  Ga  Ga933  1  0.88545183  0.26799902  0.38035486  1.0
  Ga  Ga934  1  0.88545183  0.60133236  0.38035486  1.0
  Ga  Ga935  1  0.88545183  0.93466569  0.38035486  1.0
  Ga  Ga936  1  0.05636817  0.23154060  0.40652643  1.0
  Ga  Ga937  1  0.05636817  0.56487393  0.40652643  1.0
  Ga  Ga938  1  0.05636817  0.89820726  0.40652643  1.0
  Ga  Ga939  1  0.38970150  0.23154060  0.40652643  1.0
  Ga  Ga940  1  0.38970150  0.56487393  0.40652643  1.0
  Ga  Ga941  1  0.38970150  0.89820726  0.40652643  1.0
  Ga  Ga942  1  0.72303483  0.23154060  0.40652643  1.0
  Ga  Ga943  1  0.72303483  0.56487393  0.40652643  1.0
  Ga  Ga944  1  0.72303483  0.89820726  0.40652643  1.0
  Ga  Ga945  1  0.22303483  0.32677869  0.33509786  1.0
  Ga  Ga946  1  0.22303483  0.66011202  0.33509786  1.0
  Ga  Ga947  1  0.22303483  0.99344536  0.33509786  1.0
  Ga  Ga948  1  0.55636817  0.32677869  0.33509786  1.0
  Ga  Ga949  1  0.55636817  0.66011202  0.33509786  1.0
  Ga  Ga950  1  0.55636817  0.99344536  0.33509786  1.0
  Ga  Ga951  1  0.88970150  0.32677869  0.33509786  1.0
  Ga  Ga952  1  0.88970150  0.66011202  0.33509786  1.0
  Ga  Ga953  1  0.88970150  0.99344536  0.33509786  1.0
  Ga  Ga954  1  0.32550850  0.31373760  0.42609343  1.0
  Ga  Ga955  1  0.32550850  0.64707093  0.42609343  1.0
  Ga  Ga956  1  0.32550850  0.98040426  0.42609343  1.0
  Ga  Ga957  1  0.65884183  0.31373760  0.42609343  1.0
  Ga  Ga958  1  0.65884183  0.64707093  0.42609343  1.0
  Ga  Ga959  1  0.65884183  0.98040426  0.42609343  1.0
  Ga  Ga960  1  0.99217517  0.31373760  0.42609343  1.0
  Ga  Ga961  1  0.99217517  0.64707093  0.42609343  1.0
  Ga  Ga962  1  0.99217517  0.98040426  0.42609343  1.0
  Ga  Ga963  1  0.15884183  0.07564236  0.35466486  1.0
  Ga  Ga964  1  0.15884183  0.40897569  0.35466486  1.0
  Ga  Ga965  1  0.15884183  0.74230902  0.35466486  1.0
  Ga  Ga966  1  0.49217517  0.07564236  0.35466486  1.0
  Ga  Ga967  1  0.49217517  0.40897569  0.35466486  1.0
  Ga  Ga968  1  0.49217517  0.74230902  0.35466486  1.0
  Ga  Ga969  1  0.82550850  0.07564236  0.35466486  1.0
  Ga  Ga970  1  0.82550850  0.40897569  0.35466486  1.0
  Ga  Ga971  1  0.82550850  0.74230902  0.35466486  1.0
  Ga  Ga972  1  0.04632833  0.25388912  0.30255479  1.0
  Ga  Ga973  1  0.04632833  0.58722245  0.30255479  1.0
  Ga  Ga974  1  0.04632833  0.92055579  0.30255479  1.0
  Ga  Ga975  1  0.37966167  0.25388912  0.30255479  1.0
  Ga  Ga976  1  0.37966167  0.58722245  0.30255479  1.0
  Ga  Ga977  1  0.37966167  0.92055579  0.30255479  1.0
  Ga  Ga978  1  0.71299500  0.25388912  0.30255479  1.0
  Ga  Ga979  1  0.71299500  0.58722245  0.30255479  1.0
  Ga  Ga980  1  0.71299500  0.92055579  0.30255479  1.0
  Ga  Ga981  1  0.21299500  0.15865102  0.37398336  1.0
  Ga  Ga982  1  0.21299500  0.49198436  0.37398336  1.0
  Ga  Ga983  1  0.21299500  0.82531769  0.37398336  1.0
  Ga  Ga984  1  0.54632833  0.15865102  0.37398336  1.0
  Ga  Ga985  1  0.54632833  0.49198436  0.37398336  1.0
  Ga  Ga986  1  0.54632833  0.82531769  0.37398336  1.0
  Ga  Ga987  1  0.87966167  0.15865102  0.37398336  1.0
  Ga  Ga988  1  0.87966167  0.49198436  0.37398336  1.0
  Ga  Ga989  1  0.87966167  0.82531769  0.37398336  1.0
  Ga  Ga990  1  0.29118217  0.07928607  0.36270457  1.0
  Ga  Ga991  1  0.29118217  0.41261940  0.36270457  1.0
  Ga  Ga992  1  0.29118217  0.74595274  0.36270457  1.0
  Ga  Ga993  1  0.62451550  0.07928607  0.36270457  1.0
  Ga  Ga994  1  0.62451550  0.41261940  0.36270457  1.0
  Ga  Ga995  1  0.62451550  0.74595274  0.36270457  1.0
  Ga  Ga996  1  0.95784883  0.07928607  0.36270457  1.0
  Ga  Ga997  1  0.95784883  0.41261940  0.36270457  1.0
  Ga  Ga998  1  0.95784883  0.74595274  0.36270457  1.0
  Ga  Ga999  1  0.12451550  0.17452417  0.29127600  1.0
  Ga  Ga1000  1  0.12451550  0.50785750  0.29127600  1.0
  Ga  Ga1001  1  0.12451550  0.84119083  0.29127600  1.0
  Ga  Ga1002  1  0.45784883  0.17452417  0.29127600  1.0
  Ga  Ga1003  1  0.45784883  0.50785750  0.29127600  1.0
  Ga  Ga1004  1  0.45784883  0.84119083  0.29127600  1.0
  Ga  Ga1005  1  0.79118217  0.17452417  0.29127600  1.0
  Ga  Ga1006  1  0.79118217  0.50785750  0.29127600  1.0
  Ga  Ga1007  1  0.79118217  0.84119083  0.29127600  1.0
  Ga  Ga1008  1  0.04215117  0.11541564  0.39883414  1.0
  Ga  Ga1009  1  0.04215117  0.44874898  0.39883414  1.0
  Ga  Ga1010  1  0.04215117  0.78208231  0.39883414  1.0
  Ga  Ga1011  1  0.37548450  0.11541564  0.39883414  1.0
  Ga  Ga1012  1  0.37548450  0.44874898  0.39883414  1.0
  Ga  Ga1013  1  0.37548450  0.78208231  0.39883414  1.0
  Ga  Ga1014  1  0.70881783  0.11541564  0.39883414  1.0
  Ga  Ga1015  1  0.70881783  0.44874898  0.39883414  1.0
  Ga  Ga1016  1  0.70881783  0.78208231  0.39883414  1.0
  Ga  Ga1017  1  0.20881783  0.21065374  0.32740557  1.0
  Ga  Ga1018  1  0.20881783  0.54398707  0.32740557  1.0
  Ga  Ga1019  1  0.20881783  0.87732040  0.32740557  1.0
  Ga  Ga1020  1  0.54215117  0.21065374  0.32740557  1.0
  Ga  Ga1021  1  0.54215117  0.54398707  0.32740557  1.0
  Ga  Ga1022  1  0.54215117  0.87732040  0.32740557  1.0
  Ga  Ga1023  1  0.87548450  0.21065374  0.32740557  1.0
  Ga  Ga1024  1  0.87548450  0.54398707  0.32740557  1.0
  Ga  Ga1025  1  0.87548450  0.87732040  0.32740557  1.0
  Ga  Ga1026  1  0.28700500  0.29359912  0.34226479  1.0
  Ga  Ga1027  1  0.28700500  0.62693245  0.34226479  1.0
  Ga  Ga1028  1  0.28700500  0.96026579  0.34226479  1.0
  Ga  Ga1029  1  0.62033833  0.29359912  0.34226479  1.0
  Ga  Ga1030  1  0.62033833  0.62693245  0.34226479  1.0
  Ga  Ga1031  1  0.62033833  0.96026579  0.34226479  1.0
  Ga  Ga1032  1  0.95367167  0.29359912  0.34226479  1.0
  Ga  Ga1033  1  0.95367167  0.62693245  0.34226479  1.0
  Ga  Ga1034  1  0.95367167  0.96026579  0.34226479  1.0
  Ga  Ga1035  1  0.12033833  0.19836102  0.41369336  1.0
  Ga  Ga1036  1  0.12033833  0.53169436  0.41369336  1.0
  Ga  Ga1037  1  0.12033833  0.86502769  0.41369336  1.0
  Ga  Ga1038  1  0.45367167  0.19836102  0.41369336  1.0
  Ga  Ga1039  1  0.45367167  0.53169436  0.41369336  1.0
  Ga  Ga1040  1  0.45367167  0.86502769  0.41369336  1.0
  Ga  Ga1041  1  0.78700500  0.19836102  0.41369336  1.0
  Ga  Ga1042  1  0.78700500  0.53169436  0.41369336  1.0
  Ga  Ga1043  1  0.78700500  0.86502769  0.41369336  1.0
  Ga  Ga1044  1  0.27989583  0.12088831  0.39985714  1.0
  Ga  Ga1045  1  0.27989583  0.45422164  0.39985714  1.0
  Ga  Ga1046  1  0.27989583  0.78755498  0.39985714  1.0
  Ga  Ga1047  1  0.61322917  0.12088831  0.39985714  1.0
  Ga  Ga1048  1  0.61322917  0.45422164  0.39985714  1.0
  Ga  Ga1049  1  0.61322917  0.78755498  0.39985714  1.0
  Ga  Ga1050  1  0.94656250  0.12088831  0.39985714  1.0
  Ga  Ga1051  1  0.94656250  0.45422164  0.39985714  1.0
  Ga  Ga1052  1  0.94656250  0.78755498  0.39985714  1.0
  Ga  Ga1053  1  0.11322917  0.21612640  0.32842857  1.0
  Ga  Ga1054  1  0.11322917  0.54945974  0.32842857  1.0
  Ga  Ga1055  1  0.11322917  0.88279307  0.32842857  1.0
  Ga  Ga1056  1  0.44656250  0.21612640  0.32842857  1.0
  Ga  Ga1057  1  0.44656250  0.54945974  0.32842857  1.0
  Ga  Ga1058  1  0.44656250  0.88279307  0.32842857  1.0
  Ga  Ga1059  1  0.77989583  0.21612640  0.32842857  1.0
  Ga  Ga1060  1  0.77989583  0.54945974  0.32842857  1.0
  Ga  Ga1061  1  0.77989583  0.88279307  0.32842857  1.0
  Ga  Ga1062  1  0.05272117  0.29568731  0.34891414  1.0
  Ga  Ga1063  1  0.05272117  0.62902064  0.34891414  1.0
  Ga  Ga1064  1  0.05272117  0.96235398  0.34891414  1.0
  Ga  Ga1065  1  0.38605450  0.29568731  0.34891414  1.0
  Ga  Ga1066  1  0.38605450  0.62902064  0.34891414  1.0
  Ga  Ga1067  1  0.38605450  0.96235398  0.34891414  1.0
  Ga  Ga1068  1  0.71938783  0.29568731  0.34891414  1.0
  Ga  Ga1069  1  0.71938783  0.62902064  0.34891414  1.0
  Ga  Ga1070  1  0.71938783  0.96235398  0.34891414  1.0
  Ga  Ga1071  1  0.21938783  0.20044921  0.42034271  1.0
  Ga  Ga1072  1  0.21938783  0.53378255  0.42034271  1.0
  Ga  Ga1073  1  0.21938783  0.86711588  0.42034271  1.0
  Ga  Ga1074  1  0.55272117  0.20044921  0.42034271  1.0
  Ga  Ga1075  1  0.55272117  0.53378255  0.42034271  1.0
  Ga  Ga1076  1  0.55272117  0.86711588  0.42034271  1.0
  Ga  Ga1077  1  0.88605450  0.20044921  0.42034271  1.0
  Ga  Ga1078  1  0.88605450  0.53378255  0.42034271  1.0
  Ga  Ga1079  1  0.88605450  0.86711588  0.42034271  1.0
  Ga  Ga1080  1  0.28061217  0.25049774  0.30372457  1.0
  Ga  Ga1081  1  0.28061217  0.58383107  0.30372457  1.0
  Ga  Ga1082  1  0.28061217  0.91716440  0.30372457  1.0
  Ga  Ga1083  1  0.61394550  0.25049774  0.30372457  1.0
  Ga  Ga1084  1  0.61394550  0.58383107  0.30372457  1.0
  Ga  Ga1085  1  0.61394550  0.91716440  0.30372457  1.0
  Ga  Ga1086  1  0.94727883  0.25049774  0.30372457  1.0
  Ga  Ga1087  1  0.94727883  0.58383107  0.30372457  1.0
  Ga  Ga1088  1  0.94727883  0.91716440  0.30372457  1.0
  Ga  Ga1089  1  0.11394550  0.15525964  0.37515314  1.0
  Ga  Ga1090  1  0.11394550  0.48859298  0.37515314  1.0
  Ga  Ga1091  1  0.11394550  0.82192631  0.37515314  1.0
  Ga  Ga1092  1  0.44727883  0.15525964  0.37515314  1.0
  Ga  Ga1093  1  0.44727883  0.48859298  0.37515314  1.0
  Ga  Ga1094  1  0.44727883  0.82192631  0.37515314  1.0
  Ga  Ga1095  1  0.78061217  0.15525964  0.37515314  1.0
  Ga  Ga1096  1  0.78061217  0.48859298  0.37515314  1.0
  Ga  Ga1097  1  0.78061217  0.82192631  0.37515314  1.0
  Ga  Ga1098  1  0.05343750  0.07508474  0.35405357  1.0
  Ga  Ga1099  1  0.05343750  0.40841807  0.35405357  1.0
  Ga  Ga1100  1  0.05343750  0.74175140  0.35405357  1.0
  Ga  Ga1101  1  0.38677083  0.07508474  0.35405357  1.0
  Ga  Ga1102  1  0.38677083  0.40841807  0.35405357  1.0
  Ga  Ga1103  1  0.38677083  0.74175140  0.35405357  1.0
  Ga  Ga1104  1  0.72010417  0.07508474  0.35405357  1.0
  Ga  Ga1105  1  0.72010417  0.40841807  0.35405357  1.0
  Ga  Ga1106  1  0.72010417  0.74175140  0.35405357  1.0
  Ga  Ga1107  1  0.22010417  0.31317998  0.42548214  1.0
  Ga  Ga1108  1  0.22010417  0.64651331  0.42548214  1.0
  Ga  Ga1109  1  0.22010417  0.97984664  0.42548214  1.0
  Ga  Ga1110  1  0.55343750  0.31317998  0.42548214  1.0
  Ga  Ga1111  1  0.55343750  0.64651331  0.42548214  1.0
  Ga  Ga1112  1  0.55343750  0.97984664  0.42548214  1.0
  Ga  Ga1113  1  0.88677083  0.31317998  0.42548214  1.0
  Ga  Ga1114  1  0.88677083  0.64651331  0.42548214  1.0
  Ga  Ga1115  1  0.88677083  0.97984664  0.42548214  1.0
  Ga  Ga1116  1  0.00000000  0.26341812  0.38436579  1.0
  Ga  Ga1117  1  0.00000000  0.59675145  0.38436579  1.0
  Ga  Ga1118  1  0.00000000  0.93008479  0.38436579  1.0
  Ga  Ga1119  1  0.33333333  0.26341812  0.38436579  1.0
  Ga  Ga1120  1  0.33333333  0.59675145  0.38436579  1.0
  Ga  Ga1121  1  0.33333333  0.93008479  0.38436579  1.0
  Ga  Ga1122  1  0.66666667  0.26341812  0.38436579  1.0
  Ga  Ga1123  1  0.66666667  0.59675145  0.38436579  1.0
  Ga  Ga1124  1  0.66666667  0.93008479  0.38436579  1.0
  Ga  Ga1125  1  0.16666667  0.02532288  0.31293721  1.0
  Ga  Ga1126  1  0.16666667  0.35865621  0.31293721  1.0
  Ga  Ga1127  1  0.16666667  0.69198955  0.31293721  1.0
  Ga  Ga1128  1  0.50000000  0.02532288  0.31293721  1.0
  Ga  Ga1129  1  0.50000000  0.35865621  0.31293721  1.0
  Ga  Ga1130  1  0.50000000  0.69198955  0.31293721  1.0
  Ga  Ga1131  1  0.83333333  0.02532288  0.31293721  1.0
  Ga  Ga1132  1  0.83333333  0.35865621  0.31293721  1.0
  Ga  Ga1133  1  0.83333333  0.69198955  0.31293721  1.0
  Ni  Ni1134  1  0.27529617  0.23366693  0.06706443  1.0
  Ni  Ni1135  1  0.27529617  0.56700026  0.06706443  1.0
  Ni  Ni1136  1  0.27529617  0.90033360  0.06706443  1.0
  Ni  Ni1137  1  0.60862950  0.23366693  0.06706443  1.0
  Ni  Ni1138  1  0.60862950  0.56700026  0.06706443  1.0
  Ni  Ni1139  1  0.60862950  0.90033360  0.06706443  1.0
  Ni  Ni1140  1  0.94196283  0.23366693  0.06706443  1.0
  Ni  Ni1141  1  0.94196283  0.56700026  0.06706443  1.0
  Ni  Ni1142  1  0.94196283  0.90033360  0.06706443  1.0
  Ni  Ni1143  1  0.10862950  0.13842883  0.13849300  1.0
  Ni  Ni1144  1  0.10862950  0.47176217  0.13849300  1.0
  Ni  Ni1145  1  0.10862950  0.80509550  0.13849300  1.0
  Ni  Ni1146  1  0.44196283  0.13842883  0.13849300  1.0
  Ni  Ni1147  1  0.44196283  0.47176217  0.13849300  1.0
  Ni  Ni1148  1  0.44196283  0.80509550  0.13849300  1.0
  Ni  Ni1149  1  0.77529617  0.13842883  0.13849300  1.0
  Ni  Ni1150  1  0.77529617  0.47176217  0.13849300  1.0
  Ni  Ni1151  1  0.77529617  0.80509550  0.13849300  1.0
  Ni  Ni1152  1  0.16526950  0.18651264  0.01991014  1.0
  Ni  Ni1153  1  0.16526950  0.51984598  0.01991014  1.0
  Ni  Ni1154  1  0.16526950  0.85317931  0.01991014  1.0
  Ni  Ni1155  1  0.49860283  0.18651264  0.01991014  1.0
  Ni  Ni1156  1  0.49860283  0.51984598  0.01991014  1.0
  Ni  Ni1157  1  0.49860283  0.85317931  0.01991014  1.0
  Ni  Ni1158  1  0.83193617  0.18651264  0.01991014  1.0
  Ni  Ni1159  1  0.83193617  0.51984598  0.01991014  1.0
  Ni  Ni1160  1  0.83193617  0.85317931  0.01991014  1.0
  Ni  Ni1161  1  0.33193617  0.09127455  0.09133871  1.0
  Ni  Ni1162  1  0.33193617  0.42460788  0.09133871  1.0
  Ni  Ni1163  1  0.33193617  0.75794121  0.09133871  1.0
  Ni  Ni1164  1  0.66526950  0.09127455  0.09133871  1.0
  Ni  Ni1165  1  0.66526950  0.42460788  0.09133871  1.0
  Ni  Ni1166  1  0.66526950  0.75794121  0.09133871  1.0
  Ni  Ni1167  1  0.99860283  0.09127455  0.09133871  1.0
  Ni  Ni1168  1  0.99860283  0.42460788  0.09133871  1.0
  Ni  Ni1169  1  0.99860283  0.75794121  0.09133871  1.0
  Ni  Ni1170  1  0.33333333  0.15417793  0.03980693  1.0
  Ni  Ni1171  1  0.33333333  0.48751126  0.03980693  1.0
  Ni  Ni1172  1  0.33333333  0.82084460  0.03980693  1.0
  Ni  Ni1173  1  0.66666667  0.15417793  0.03980693  1.0
  Ni  Ni1174  1  0.66666667  0.48751126  0.03980693  1.0
  Ni  Ni1175  1  0.66666667  0.82084460  0.03980693  1.0
  Ni  Ni1176  1  0.00000000  0.15417793  0.03980693  1.0
  Ni  Ni1177  1  1.00000000  0.48751126  0.03980693  1.0
  Ni  Ni1178  1  1.00000000  0.82084460  0.03980693  1.0
  Ni  Ni1179  1  0.16666667  0.05893983  0.11123550  1.0
  Ni  Ni1180  1  0.16666667  0.39227317  0.11123550  1.0
  Ni  Ni1181  1  0.16666667  0.72560650  0.11123550  1.0
  Ni  Ni1182  1  0.50000000  0.05893983  0.11123550  1.0
  Ni  Ni1183  1  0.50000000  0.39227317  0.11123550  1.0
  Ni  Ni1184  1  0.50000000  0.72560650  0.11123550  1.0
  Ni  Ni1185  1  0.83333333  0.05893983  0.11123550  1.0
  Ni  Ni1186  1  0.83333333  0.39227317  0.11123550  1.0
  Ni  Ni1187  1  0.83333333  0.72560650  0.11123550  1.0
  Ni  Ni1188  1  0.05803717  0.23246936  0.06586686  1.0
  Ni  Ni1189  1  0.05803717  0.56580269  0.06586686  1.0
  Ni  Ni1190  1  0.05803717  0.89913602  0.06586686  1.0
  Ni  Ni1191  1  0.39137050  0.23246936  0.06586686  1.0
  Ni  Ni1192  1  0.39137050  0.56580269  0.06586686  1.0
  Ni  Ni1193  1  0.39137050  0.89913602  0.06586686  1.0
  Ni  Ni1194  1  0.72470383  0.23246936  0.06586686  1.0
  Ni  Ni1195  1  0.72470383  0.56580269  0.06586686  1.0
  Ni  Ni1196  1  0.72470383  0.89913602  0.06586686  1.0
  Ni  Ni1197  1  0.22470383  0.13723126  0.13729543  1.0
  Ni  Ni1198  1  0.22470383  0.47056460  0.13729543  1.0
  Ni  Ni1199  1  0.22470383  0.80389793  0.13729543  1.0
  Ni  Ni1200  1  0.55803717  0.13723126  0.13729543  1.0
  Ni  Ni1201  1  0.55803717  0.47056460  0.13729543  1.0
  Ni  Ni1202  1  0.55803717  0.80389793  0.13729543  1.0
  Ni  Ni1203  1  0.89137050  0.13723126  0.13729543  1.0
  Ni  Ni1204  1  0.89137050  0.47056460  0.13729543  1.0
  Ni  Ni1205  1  0.89137050  0.80389793  0.13729543  1.0
  Ni  Ni1206  1  0.16806383  0.27962364  0.11302114  1.0
  Ni  Ni1207  1  0.16806383  0.61295698  0.11302114  1.0
  Ni  Ni1208  1  0.16806383  0.94629031  0.11302114  1.0
  Ni  Ni1209  1  0.50139717  0.27962364  0.11302114  1.0
  Ni  Ni1210  1  0.50139717  0.61295698  0.11302114  1.0
  Ni  Ni1211  1  0.50139717  0.94629031  0.11302114  1.0
  Ni  Ni1212  1  0.83473050  0.27962364  0.11302114  1.0
  Ni  Ni1213  1  0.83473050  0.61295698  0.11302114  1.0
  Ni  Ni1214  1  0.83473050  0.94629031  0.11302114  1.0
  Ni  Ni1215  1  0.00139717  0.04152840  0.04159257  1.0
  Ni  Ni1216  1  0.00139717  0.37486174  0.04159257  1.0
  Ni  Ni1217  1  0.00139717  0.70819507  0.04159257  1.0
  Ni  Ni1218  1  0.33473050  0.04152840  0.04159257  1.0
  Ni  Ni1219  1  0.33473050  0.37486174  0.04159257  1.0
  Ni  Ni1220  1  0.33473050  0.70819507  0.04159257  1.0
  Ni  Ni1221  1  0.66806383  0.04152840  0.04159257  1.0
  Ni  Ni1222  1  0.66806383  0.37486174  0.04159257  1.0
  Ni  Ni1223  1  0.66806383  0.70819507  0.04159257  1.0
  Ni  Ni1224  1  0.27529617  0.04319074  0.20992157  1.0
  Ni  Ni1225  1  0.27529617  0.37652407  0.20992157  1.0
  Ni  Ni1226  1  0.27529617  0.70985740  0.20992157  1.0
  Ni  Ni1227  1  0.60862950  0.04319074  0.20992157  1.0
  Ni  Ni1228  1  0.60862950  0.37652407  0.20992157  1.0
  Ni  Ni1229  1  0.60862950  0.70985740  0.20992157  1.0
  Ni  Ni1230  1  0.94196283  0.04319074  0.20992157  1.0
  Ni  Ni1231  1  0.94196283  0.37652407  0.20992157  1.0
  Ni  Ni1232  1  0.94196283  0.70985740  0.20992157  1.0
  Ni  Ni1233  1  0.10862950  0.28128598  0.28135014  1.0
  Ni  Ni1234  1  0.10862950  0.61461931  0.28135014  1.0
  Ni  Ni1235  1  0.10862950  0.94795264  0.28135014  1.0
  Ni  Ni1236  1  0.44196283  0.28128598  0.28135014  1.0
  Ni  Ni1237  1  0.44196283  0.61461931  0.28135014  1.0
  Ni  Ni1238  1  0.44196283  0.94795264  0.28135014  1.0
  Ni  Ni1239  1  0.77529617  0.28128598  0.28135014  1.0
  Ni  Ni1240  1  0.77529617  0.61461931  0.28135014  1.0
  Ni  Ni1241  1  0.77529617  0.94795264  0.28135014  1.0
  Ni  Ni1242  1  0.16526950  0.32936979  0.16276729  1.0
  Ni  Ni1243  1  0.16526950  0.66270312  0.16276729  1.0
  Ni  Ni1244  1  0.16526950  0.99603645  0.16276729  1.0
  Ni  Ni1245  1  0.49860283  0.32936979  0.16276729  1.0
  Ni  Ni1246  1  0.49860283  0.66270312  0.16276729  1.0
  Ni  Ni1247  1  0.49860283  0.99603645  0.16276729  1.0
  Ni  Ni1248  1  0.83193617  0.32936979  0.16276729  1.0
  Ni  Ni1249  1  0.83193617  0.66270312  0.16276729  1.0
  Ni  Ni1250  1  0.83193617  0.99603645  0.16276729  1.0
  Ni  Ni1251  1  0.33193617  0.23413169  0.23419586  1.0
  Ni  Ni1252  1  0.33193617  0.56746502  0.23419586  1.0
  Ni  Ni1253  1  0.33193617  0.90079836  0.23419586  1.0
  Ni  Ni1254  1  0.66526950  0.23413169  0.23419586  1.0
  Ni  Ni1255  1  0.66526950  0.56746502  0.23419586  1.0
  Ni  Ni1256  1  0.66526950  0.90079836  0.23419586  1.0
  Ni  Ni1257  1  0.99860283  0.23413169  0.23419586  1.0
  Ni  Ni1258  1  0.99860283  0.56746502  0.23419586  1.0
  Ni  Ni1259  1  0.99860283  0.90079836  0.23419586  1.0
  Ni  Ni1260  1  0.00000000  0.29703507  0.18266407  1.0
  Ni  Ni1261  1  0.00000000  0.63036840  0.18266407  1.0
  Ni  Ni1262  1  0.00000000  0.96370174  0.18266407  1.0
  Ni  Ni1263  1  0.33333333  0.29703507  0.18266407  1.0
  Ni  Ni1264  1  0.33333333  0.63036840  0.18266407  1.0
  Ni  Ni1265  1  0.33333333  0.96370174  0.18266407  1.0
  Ni  Ni1266  1  0.66666667  0.29703507  0.18266407  1.0
  Ni  Ni1267  1  0.66666667  0.63036840  0.18266407  1.0
  Ni  Ni1268  1  0.66666667  0.96370174  0.18266407  1.0
  Ni  Ni1269  1  0.16666667  0.20179698  0.25409264  1.0
  Ni  Ni1270  1  0.16666667  0.53513031  0.25409264  1.0
  Ni  Ni1271  1  0.16666667  0.86846364  0.25409264  1.0
  Ni  Ni1272  1  0.50000000  0.20179698  0.25409264  1.0
  Ni  Ni1273  1  0.50000000  0.53513031  0.25409264  1.0
  Ni  Ni1274  1  0.50000000  0.86846364  0.25409264  1.0
  Ni  Ni1275  1  0.83333333  0.20179698  0.25409264  1.0
  Ni  Ni1276  1  0.83333333  0.53513031  0.25409264  1.0
  Ni  Ni1277  1  0.83333333  0.86846364  0.25409264  1.0
  Ni  Ni1278  1  0.05803717  0.04199317  0.20872400  1.0
  Ni  Ni1279  1  0.05803717  0.37532650  0.20872400  1.0
  Ni  Ni1280  1  0.05803717  0.70865983  0.20872400  1.0
  Ni  Ni1281  1  0.39137050  0.04199317  0.20872400  1.0
  Ni  Ni1282  1  0.39137050  0.37532650  0.20872400  1.0
  Ni  Ni1283  1  0.39137050  0.70865983  0.20872400  1.0
  Ni  Ni1284  1  0.72470383  0.04199317  0.20872400  1.0
  Ni  Ni1285  1  0.72470383  0.37532650  0.20872400  1.0
  Ni  Ni1286  1  0.72470383  0.70865983  0.20872400  1.0
  Ni  Ni1287  1  0.22470383  0.28008840  0.28015257  1.0
  Ni  Ni1288  1  0.22470383  0.61342174  0.28015257  1.0
  Ni  Ni1289  1  0.22470383  0.94675507  0.28015257  1.0
  Ni  Ni1290  1  0.55803717  0.28008840  0.28015257  1.0
  Ni  Ni1291  1  0.55803717  0.61342174  0.28015257  1.0
  Ni  Ni1292  1  0.55803717  0.94675507  0.28015257  1.0
  Ni  Ni1293  1  0.89137050  0.28008840  0.28015257  1.0
  Ni  Ni1294  1  0.89137050  0.61342174  0.28015257  1.0
  Ni  Ni1295  1  0.89137050  0.94675507  0.28015257  1.0
  Ni  Ni1296  1  0.16806383  0.08914745  0.25587829  1.0
  Ni  Ni1297  1  0.16806383  0.42248079  0.25587829  1.0
  Ni  Ni1298  1  0.16806383  0.75581412  0.25587829  1.0
  Ni  Ni1299  1  0.50139717  0.08914745  0.25587829  1.0
  Ni  Ni1300  1  0.50139717  0.42248079  0.25587829  1.0
  Ni  Ni1301  1  0.50139717  0.75581412  0.25587829  1.0
  Ni  Ni1302  1  0.83473050  0.08914745  0.25587829  1.0
  Ni  Ni1303  1  0.83473050  0.42248079  0.25587829  1.0
  Ni  Ni1304  1  0.83473050  0.75581412  0.25587829  1.0
  Ni  Ni1305  1  0.00139717  0.18438555  0.18444971  1.0
  Ni  Ni1306  1  0.00139717  0.51771888  0.18444971  1.0
  Ni  Ni1307  1  0.00139717  0.85105221  0.18444971  1.0
  Ni  Ni1308  1  0.33473050  0.18438555  0.18444971  1.0
  Ni  Ni1309  1  0.33473050  0.51771888  0.18444971  1.0
  Ni  Ni1310  1  0.33473050  0.85105221  0.18444971  1.0
  Ni  Ni1311  1  0.66806383  0.18438555  0.18444971  1.0
  Ni  Ni1312  1  0.66806383  0.51771888  0.18444971  1.0
  Ni  Ni1313  1  0.66806383  0.85105221  0.18444971  1.0
  Ni  Ni1314  1  0.27529617  0.18604788  0.35277871  1.0
  Ni  Ni1315  1  0.27529617  0.51938121  0.35277871  1.0
  Ni  Ni1316  1  0.27529617  0.85271455  0.35277871  1.0
  Ni  Ni1317  1  0.60862950  0.18604788  0.35277871  1.0
  Ni  Ni1318  1  0.60862950  0.51938121  0.35277871  1.0
  Ni  Ni1319  1  0.60862950  0.85271455  0.35277871  1.0
  Ni  Ni1320  1  0.94196283  0.18604788  0.35277871  1.0
  Ni  Ni1321  1  0.94196283  0.51938121  0.35277871  1.0
  Ni  Ni1322  1  0.94196283  0.85271455  0.35277871  1.0
  Ni  Ni1323  1  0.10862950  0.09080979  0.42420729  1.0
  Ni  Ni1324  1  0.10862950  0.42414312  0.42420729  1.0
  Ni  Ni1325  1  0.10862950  0.75747645  0.42420729  1.0
  Ni  Ni1326  1  0.44196283  0.09080979  0.42420729  1.0
  Ni  Ni1327  1  0.44196283  0.42414312  0.42420729  1.0
  Ni  Ni1328  1  0.44196283  0.75747645  0.42420729  1.0
  Ni  Ni1329  1  0.77529617  0.09080979  0.42420729  1.0
  Ni  Ni1330  1  0.77529617  0.42414312  0.42420729  1.0
  Ni  Ni1331  1  0.77529617  0.75747645  0.42420729  1.0
  Ni  Ni1332  1  0.16526950  0.13889360  0.30562443  1.0
  Ni  Ni1333  1  0.16526950  0.47222693  0.30562443  1.0
  Ni  Ni1334  1  0.16526950  0.80556026  0.30562443  1.0
  Ni  Ni1335  1  0.49860283  0.13889360  0.30562443  1.0
  Ni  Ni1336  1  0.49860283  0.47222693  0.30562443  1.0
  Ni  Ni1337  1  0.49860283  0.80556026  0.30562443  1.0
  Ni  Ni1338  1  0.83193617  0.13889360  0.30562443  1.0
  Ni  Ni1339  1  0.83193617  0.47222693  0.30562443  1.0
  Ni  Ni1340  1  0.83193617  0.80556026  0.30562443  1.0
  Ni  Ni1341  1  0.33193617  0.04365550  0.37705300  1.0
  Ni  Ni1342  1  0.33193617  0.37698883  0.37705300  1.0
  Ni  Ni1343  1  0.33193617  0.71032217  0.37705300  1.0
  Ni  Ni1344  1  0.66526950  0.04365550  0.37705300  1.0
  Ni  Ni1345  1  0.66526950  0.37698883  0.37705300  1.0
  Ni  Ni1346  1  0.66526950  0.71032217  0.37705300  1.0
  Ni  Ni1347  1  0.99860283  0.04365550  0.37705300  1.0
  Ni  Ni1348  1  0.99860283  0.37698883  0.37705300  1.0
  Ni  Ni1349  1  0.99860283  0.71032217  0.37705300  1.0
  Ni  Ni1350  1  0.00000000  0.10655888  0.32552121  1.0
  Ni  Ni1351  1  0.00000000  0.43989221  0.32552121  1.0
  Ni  Ni1352  1  0.00000000  0.77322555  0.32552121  1.0
  Ni  Ni1353  1  0.33333333  0.10655888  0.32552121  1.0
  Ni  Ni1354  1  0.33333333  0.43989221  0.32552121  1.0
  Ni  Ni1355  1  0.33333333  0.77322555  0.32552121  1.0
  Ni  Ni1356  1  0.66666667  0.10655888  0.32552121  1.0
  Ni  Ni1357  1  0.66666667  0.43989221  0.32552121  1.0
  Ni  Ni1358  1  0.66666667  0.77322555  0.32552121  1.0
  Ni  Ni1359  1  0.16666667  0.01132079  0.39694979  1.0
  Ni  Ni1360  1  0.16666667  0.34465412  0.39694979  1.0
  Ni  Ni1361  1  0.16666667  0.67798745  0.39694979  1.0
  Ni  Ni1362  1  0.50000000  0.01132079  0.39694979  1.0
  Ni  Ni1363  1  0.50000000  0.34465412  0.39694979  1.0
  Ni  Ni1364  1  0.50000000  0.67798745  0.39694979  1.0
  Ni  Ni1365  1  0.83333333  0.01132079  0.39694979  1.0
  Ni  Ni1366  1  0.83333333  0.34465412  0.39694979  1.0
  Ni  Ni1367  1  0.83333333  0.67798745  0.39694979  1.0
  Ni  Ni1368  1  0.05803717  0.18485031  0.35158114  1.0
  Ni  Ni1369  1  0.05803717  0.51818364  0.35158114  1.0
  Ni  Ni1370  1  0.05803717  0.85151698  0.35158114  1.0
  Ni  Ni1371  1  0.39137050  0.18485031  0.35158114  1.0
  Ni  Ni1372  1  0.39137050  0.51818364  0.35158114  1.0
  Ni  Ni1373  1  0.39137050  0.85151698  0.35158114  1.0
  Ni  Ni1374  1  0.72470383  0.18485031  0.35158114  1.0
  Ni  Ni1375  1  0.72470383  0.51818364  0.35158114  1.0
  Ni  Ni1376  1  0.72470383  0.85151698  0.35158114  1.0
  Ni  Ni1377  1  0.22470383  0.08961221  0.42300971  1.0
  Ni  Ni1378  1  0.22470383  0.42294555  0.42300971  1.0
  Ni  Ni1379  1  0.22470383  0.75627888  0.42300971  1.0
  Ni  Ni1380  1  0.55803717  0.08961221  0.42300971  1.0
  Ni  Ni1381  1  0.55803717  0.42294555  0.42300971  1.0
  Ni  Ni1382  1  0.55803717  0.75627888  0.42300971  1.0
  Ni  Ni1383  1  0.89137050  0.08961221  0.42300971  1.0
  Ni  Ni1384  1  0.89137050  0.42294555  0.42300971  1.0
  Ni  Ni1385  1  0.89137050  0.75627888  0.42300971  1.0
  Ni  Ni1386  1  0.16806383  0.23200460  0.39873543  1.0
  Ni  Ni1387  1  0.16806383  0.56533793  0.39873543  1.0
  Ni  Ni1388  1  0.16806383  0.89867126  0.39873543  1.0
  Ni  Ni1389  1  0.50139717  0.23200460  0.39873543  1.0
  Ni  Ni1390  1  0.50139717  0.56533793  0.39873543  1.0
  Ni  Ni1391  1  0.50139717  0.89867126  0.39873543  1.0
  Ni  Ni1392  1  0.83473050  0.23200460  0.39873543  1.0
  Ni  Ni1393  1  0.83473050  0.56533793  0.39873543  1.0
  Ni  Ni1394  1  0.83473050  0.89867126  0.39873543  1.0
  Ni  Ni1395  1  0.00139717  0.32724269  0.32730686  1.0
  Ni  Ni1396  1  0.00139717  0.66057602  0.32730686  1.0
  Ni  Ni1397  1  0.00139717  0.99390936  0.32730686  1.0
  Ni  Ni1398  1  0.33473050  0.32724269  0.32730686  1.0
  Ni  Ni1399  1  0.33473050  0.66057602  0.32730686  1.0
  Ni  Ni1400  1  0.33473050  0.99390936  0.32730686  1.0
  Ni  Ni1401  1  0.66806383  0.32724269  0.32730686  1.0
  Ni  Ni1402  1  0.66806383  0.66057602  0.32730686  1.0
  Ni  Ni1403  1  0.66806383  0.99390936  0.32730686  1.0
