# generated using pymatgen
data_Ga21Ni5
_symmetry_space_group_name_H-M   'P 1'
_cell_length_a   39.25139844
_cell_length_b   39.25139842
_cell_length_c   28.01891439
_cell_angle_alpha   97.75550545
_cell_angle_beta   97.47709732
_cell_angle_gamma   115.61619052
_symmetry_Int_Tables_number   1
_chemical_formula_structural   Ga21Ni5
_chemical_formula_sum   'Ga756 Ni180'
_cell_volume   37701.06101164
_cell_formula_units_Z   36
loop_
 _symmetry_equiv_pos_site_id
 _symmetry_equiv_pos_as_xyz
  1  'x, y, z'
loop_
 _atom_site_type_symbol
 _atom_site_label
 _atom_site_symmetry_multiplicity
 _atom_site_fract_x
 _atom_site_fract_y
 _atom_site_fract_z
 _atom_site_occupancy
  Ga  Ga0  1  0.03651260  0.18382680  0.94756245  1.0
  Ga  Ga1  1  0.03651260  0.51716013  0.94756245  1.0
  Ga  Ga2  1  0.03651260  0.85049347  0.94756245  1.0
  Ga  Ga3  1  0.36984593  0.18382680  0.94756245  1.0
  Ga  Ga4  1  0.36984593  0.51716013  0.94756245  1.0
  Ga  Ga5  1  0.36984593  0.85049347  0.94756245  1.0
  Ga  Ga6  1  0.70317927  0.18382680  0.94756245  1.0
  Ga  Ga7  1  0.70317927  0.51716013  0.94756245  1.0
  Ga  Ga8  1  0.70317927  0.85049347  0.94756245  1.0
  Ga  Ga9  1  0.23651260  0.28382680  0.84756245  1.0
  Ga  Ga10  1  0.23651260  0.61716013  0.84756245  1.0
  Ga  Ga11  1  0.23651260  0.95049347  0.84756245  1.0
  Ga  Ga12  1  0.56984593  0.28382680  0.84756245  1.0
  Ga  Ga13  1  0.56984593  0.61716013  0.84756245  1.0
  Ga  Ga14  1  0.56984593  0.95049347  0.84756245  1.0
  Ga  Ga15  1  0.90317927  0.28382680  0.84756245  1.0
  Ga  Ga16  1  0.90317927  0.61716013  0.84756245  1.0
  Ga  Ga17  1  0.90317927  0.95049347  0.84756245  1.0
  Ga  Ga18  1  0.30952427  0.10377247  0.82110645  1.0
  Ga  Ga19  1  0.30952427  0.43710580  0.82110645  1.0
  Ga  Ga20  1  0.30952427  0.77043913  0.82110645  1.0
  Ga  Ga21  1  0.64285760  0.10377247  0.82110645  1.0
  Ga  Ga22  1  0.64285760  0.43710580  0.82110645  1.0
  Ga  Ga23  1  0.64285760  0.77043913  0.82110645  1.0
  Ga  Ga24  1  0.97619093  0.10377247  0.82110645  1.0
  Ga  Ga25  1  0.97619093  0.43710580  0.82110645  1.0
  Ga  Ga26  1  0.97619093  0.77043913  0.82110645  1.0
  Ga  Ga27  1  0.10952427  0.00377247  0.92110645  1.0
  Ga  Ga28  1  0.10952427  0.33710580  0.92110645  1.0
  Ga  Ga29  1  0.10952427  0.67043913  0.92110645  1.0
  Ga  Ga30  1  0.44285760  0.00377247  0.92110645  1.0
  Ga  Ga31  1  0.44285760  0.33710580  0.92110645  1.0
  Ga  Ga32  1  0.44285760  0.67043913  0.92110645  1.0
  Ga  Ga33  1  0.77619093  0.00377247  0.92110645  1.0
  Ga  Ga34  1  0.77619093  0.33710580  0.92110645  1.0
  Ga  Ga35  1  0.77619093  0.67043913  0.92110645  1.0
  Ga  Ga36  1  0.10581193  0.10517147  0.91949445  1.0
  Ga  Ga37  1  0.10581193  0.43850480  0.91949445  1.0
  Ga  Ga38  1  0.10581193  0.77183813  0.91949445  1.0
  Ga  Ga39  1  0.43914527  0.10517147  0.91949445  1.0
  Ga  Ga40  1  0.43914527  0.43850480  0.91949445  1.0
  Ga  Ga41  1  0.43914527  0.77183813  0.91949445  1.0
  Ga  Ga42  1  0.77247860  0.10517147  0.91949445  1.0
  Ga  Ga43  1  0.77247860  0.43850480  0.91949445  1.0
  Ga  Ga44  1  0.77247860  0.77183813  0.91949445  1.0
  Ga  Ga45  1  0.30581193  0.20517147  0.81949445  1.0
  Ga  Ga46  1  0.30581193  0.53850480  0.81949445  1.0
  Ga  Ga47  1  0.30581193  0.87183813  0.81949445  1.0
  Ga  Ga48  1  0.63914527  0.20517147  0.81949445  1.0
  Ga  Ga49  1  0.63914527  0.53850480  0.81949445  1.0
  Ga  Ga50  1  0.63914527  0.87183813  0.81949445  1.0
  Ga  Ga51  1  0.97247860  0.20517147  0.81949445  1.0
  Ga  Ga52  1  0.97247860  0.53850480  0.81949445  1.0
  Ga  Ga53  1  0.97247860  0.87183813  0.81949445  1.0
  Ga  Ga54  1  0.06095900  0.03084217  0.87546475  1.0
  Ga  Ga55  1  0.06095900  0.36417550  0.87546475  1.0
  Ga  Ga56  1  0.06095900  0.69750883  0.87546475  1.0
  Ga  Ga57  1  0.39429233  0.03084217  0.87546475  1.0
  Ga  Ga58  1  0.39429233  0.36417550  0.87546475  1.0
  Ga  Ga59  1  0.39429233  0.69750883  0.87546475  1.0
  Ga  Ga60  1  0.72762567  0.03084217  0.87546475  1.0
  Ga  Ga61  1  0.72762567  0.36417550  0.87546475  1.0
  Ga  Ga62  1  0.72762567  0.69750883  0.87546475  1.0
  Ga  Ga63  1  0.19429233  0.26417550  0.97546475  1.0
  Ga  Ga64  1  0.19429233  0.59750883  0.97546475  1.0
  Ga  Ga65  1  0.19429233  0.93084217  0.97546475  1.0
  Ga  Ga66  1  0.52762567  0.26417550  0.97546475  1.0
  Ga  Ga67  1  0.52762567  0.59750883  0.97546475  1.0
  Ga  Ga68  1  0.52762567  0.93084217  0.97546475  1.0
  Ga  Ga69  1  0.86095900  0.26417550  0.97546475  1.0
  Ga  Ga70  1  0.86095900  0.59750883  0.97546475  1.0
  Ga  Ga71  1  0.86095900  0.93084217  0.97546475  1.0
  Ga  Ga72  1  0.29299293  0.02875897  0.88468095  1.0
  Ga  Ga73  1  0.29299293  0.36209230  0.88468095  1.0
  Ga  Ga74  1  0.29299293  0.69542563  0.88468095  1.0
  Ga  Ga75  1  0.62632627  0.02875897  0.88468095  1.0
  Ga  Ga76  1  0.62632627  0.36209230  0.88468095  1.0
  Ga  Ga77  1  0.62632627  0.69542563  0.88468095  1.0
  Ga  Ga78  1  0.95965960  0.02875897  0.88468095  1.0
  Ga  Ga79  1  0.95965960  0.36209230  0.88468095  1.0
  Ga  Ga80  1  0.95965960  0.69542563  0.88468095  1.0
  Ga  Ga81  1  0.09299293  0.26209230  0.98468095  1.0
  Ga  Ga82  1  0.09299293  0.59542563  0.98468095  1.0
  Ga  Ga83  1  0.09299293  0.92875897  0.98468095  1.0
  Ga  Ga84  1  0.42632627  0.26209230  0.98468095  1.0
  Ga  Ga85  1  0.42632627  0.59542563  0.98468095  1.0
  Ga  Ga86  1  0.42632627  0.92875897  0.98468095  1.0
  Ga  Ga87  1  0.75965960  0.26209230  0.98468095  1.0
  Ga  Ga88  1  0.75965960  0.59542563  0.98468095  1.0
  Ga  Ga89  1  0.75965960  0.92875897  0.98468095  1.0
  Ga  Ga90  1  0.08783767  0.15772083  0.97546475  1.0
  Ga  Ga91  1  0.08783767  0.49105417  0.97546475  1.0
  Ga  Ga92  1  0.08783767  0.82438750  0.97546475  1.0
  Ga  Ga93  1  0.42117100  0.15772083  0.97546475  1.0
  Ga  Ga94  1  0.42117100  0.49105417  0.97546475  1.0
  Ga  Ga95  1  0.42117100  0.82438750  0.97546475  1.0
  Ga  Ga96  1  0.75450433  0.15772083  0.97546475  1.0
  Ga  Ga97  1  0.75450433  0.49105417  0.97546475  1.0
  Ga  Ga98  1  0.75450433  0.82438750  0.97546475  1.0
  Ga  Ga99  1  0.28783767  0.25772083  0.87546475  1.0
  Ga  Ga100  1  0.28783767  0.59105417  0.87546475  1.0
  Ga  Ga101  1  0.28783767  0.92438750  0.87546475  1.0
  Ga  Ga102  1  0.62117100  0.25772083  0.87546475  1.0
  Ga  Ga103  1  0.62117100  0.59105417  0.87546475  1.0
  Ga  Ga104  1  0.62117100  0.92438750  0.87546475  1.0
  Ga  Ga105  1  0.95450433  0.25772083  0.87546475  1.0
  Ga  Ga106  1  0.95450433  0.59105417  0.87546475  1.0
  Ga  Ga107  1  0.95450433  0.92438750  0.87546475  1.0
  Ga  Ga108  1  0.09393700  0.10013217  0.82099675  1.0
  Ga  Ga109  1  0.09393700  0.43346550  0.82099675  1.0
  Ga  Ga110  1  0.09393700  0.76679883  0.82099675  1.0
  Ga  Ga111  1  0.42727033  0.10013217  0.82099675  1.0
  Ga  Ga112  1  0.42727033  0.43346550  0.82099675  1.0
  Ga  Ga113  1  0.42727033  0.76679883  0.82099675  1.0
  Ga  Ga114  1  0.76060367  0.10013217  0.82099675  1.0
  Ga  Ga115  1  0.76060367  0.43346550  0.82099675  1.0
  Ga  Ga116  1  0.76060367  0.76679883  0.82099675  1.0
  Ga  Ga117  1  0.22727033  0.00013217  0.92099675  1.0
  Ga  Ga118  1  0.22727033  0.33346550  0.92099675  1.0
  Ga  Ga119  1  0.22727033  0.66679883  0.92099675  1.0
  Ga  Ga120  1  0.56060367  0.00013217  0.92099675  1.0
  Ga  Ga121  1  0.56060367  0.33346550  0.92099675  1.0
  Ga  Ga122  1  0.56060367  0.66679883  0.92099675  1.0
  Ga  Ga123  1  0.89393700  0.00013217  0.92099675  1.0
  Ga  Ga124  1  0.89393700  0.33346550  0.92099675  1.0
  Ga  Ga125  1  0.89393700  0.66679883  0.92099675  1.0
  Ga  Ga126  1  0.15309227  0.18650363  0.93821295  1.0
  Ga  Ga127  1  0.15309227  0.51983697  0.93821295  1.0
  Ga  Ga128  1  0.15309227  0.85317030  0.93821295  1.0
  Ga  Ga129  1  0.48642560  0.18650363  0.93821295  1.0
  Ga  Ga130  1  0.48642560  0.51983697  0.93821295  1.0
  Ga  Ga131  1  0.48642560  0.85317030  0.93821295  1.0
  Ga  Ga132  1  0.81975893  0.18650363  0.93821295  1.0
  Ga  Ga133  1  0.81975893  0.51983697  0.93821295  1.0
  Ga  Ga134  1  0.81975893  0.85317030  0.93821295  1.0
  Ga  Ga135  1  0.01975893  0.28650363  0.83821295  1.0
  Ga  Ga136  1  0.01975893  0.61983697  0.83821295  1.0
  Ga  Ga137  1  0.01975893  0.95317030  0.83821295  1.0
  Ga  Ga138  1  0.35309227  0.28650363  0.83821295  1.0
  Ga  Ga139  1  0.35309227  0.61983697  0.83821295  1.0
  Ga  Ga140  1  0.35309227  0.95317030  0.83821295  1.0
  Ga  Ga141  1  0.68642560  0.28650363  0.83821295  1.0
  Ga  Ga142  1  0.68642560  0.61983697  0.83821295  1.0
  Ga  Ga143  1  0.68642560  0.95317030  0.83821295  1.0
  Ga  Ga144  1  0.00039167  0.10658683  0.92099675  1.0
  Ga  Ga145  1  0.00039167  0.43992017  0.92099675  1.0
  Ga  Ga146  1  0.00039167  0.77325350  0.92099675  1.0
  Ga  Ga147  1  0.33372500  0.10658683  0.92099675  1.0
  Ga  Ga148  1  0.33372500  0.43992017  0.92099675  1.0
  Ga  Ga149  1  0.33372500  0.77325350  0.92099675  1.0
  Ga  Ga150  1  0.66705833  0.10658683  0.92099675  1.0
  Ga  Ga151  1  0.66705833  0.43992017  0.92099675  1.0
  Ga  Ga152  1  0.66705833  0.77325350  0.92099675  1.0
  Ga  Ga153  1  0.20039167  0.20658683  0.82099675  1.0
  Ga  Ga154  1  0.20039167  0.53992017  0.82099675  1.0
  Ga  Ga155  1  0.20039167  0.87325350  0.82099675  1.0
  Ga  Ga156  1  0.53372500  0.20658683  0.82099675  1.0
  Ga  Ga157  1  0.53372500  0.53992017  0.82099675  1.0
  Ga  Ga158  1  0.53372500  0.87325350  0.82099675  1.0
  Ga  Ga159  1  0.86705833  0.20658683  0.82099675  1.0
  Ga  Ga160  1  0.86705833  0.53992017  0.82099675  1.0
  Ga  Ga161  1  0.86705833  0.87325350  0.82099675  1.0
  Ga  Ga162  1  0.09485160  0.32754447  0.81949445  1.0
  Ga  Ga163  1  0.09485160  0.66087780  0.81949445  1.0
  Ga  Ga164  1  0.09485160  0.99421113  0.81949445  1.0
  Ga  Ga165  1  0.42818493  0.32754447  0.81949445  1.0
  Ga  Ga166  1  0.42818493  0.66087780  0.81949445  1.0
  Ga  Ga167  1  0.42818493  0.99421113  0.81949445  1.0
  Ga  Ga168  1  0.76151827  0.32754447  0.81949445  1.0
  Ga  Ga169  1  0.76151827  0.66087780  0.81949445  1.0
  Ga  Ga170  1  0.76151827  0.99421113  0.81949445  1.0
  Ga  Ga171  1  0.22818493  0.22754447  0.91949445  1.0
  Ga  Ga172  1  0.22818493  0.56087780  0.91949445  1.0
  Ga  Ga173  1  0.22818493  0.89421113  0.91949445  1.0
  Ga  Ga174  1  0.56151827  0.22754447  0.91949445  1.0
  Ga  Ga175  1  0.56151827  0.56087780  0.91949445  1.0
  Ga  Ga176  1  0.56151827  0.89421113  0.91949445  1.0
  Ga  Ga177  1  0.89485160  0.22754447  0.91949445  1.0
  Ga  Ga178  1  0.89485160  0.56087780  0.91949445  1.0
  Ga  Ga179  1  0.89485160  0.89421113  0.91949445  1.0
  Ga  Ga180  1  0.19678793  0.32436947  0.82110645  1.0
  Ga  Ga181  1  0.19678793  0.65770280  0.82110645  1.0
  Ga  Ga182  1  0.19678793  0.99103613  0.82110645  1.0
  Ga  Ga183  1  0.53012127  0.32436947  0.82110645  1.0
  Ga  Ga184  1  0.53012127  0.65770280  0.82110645  1.0
  Ga  Ga185  1  0.53012127  0.99103613  0.82110645  1.0
  Ga  Ga186  1  0.86345460  0.32436947  0.82110645  1.0
  Ga  Ga187  1  0.86345460  0.65770280  0.82110645  1.0
  Ga  Ga188  1  0.86345460  0.99103613  0.82110645  1.0
  Ga  Ga189  1  0.33012127  0.22436947  0.92110645  1.0
  Ga  Ga190  1  0.33012127  0.55770280  0.92110645  1.0
  Ga  Ga191  1  0.33012127  0.89103613  0.92110645  1.0
  Ga  Ga192  1  0.66345460  0.22436947  0.92110645  1.0
  Ga  Ga193  1  0.66345460  0.55770280  0.92110645  1.0
  Ga  Ga194  1  0.66345460  0.89103613  0.92110645  1.0
  Ga  Ga195  1  0.99678793  0.22436947  0.92110645  1.0
  Ga  Ga196  1  0.99678793  0.55770280  0.92110645  1.0
  Ga  Ga197  1  0.99678793  0.89103613  0.92110645  1.0
  Ga  Ga198  1  0.02555227  0.07286647  0.84756245  1.0
  Ga  Ga199  1  0.02555227  0.40619980  0.84756245  1.0
  Ga  Ga200  1  0.02555227  0.73953313  0.84756245  1.0
  Ga  Ga201  1  0.35888560  0.07286647  0.84756245  1.0
  Ga  Ga202  1  0.35888560  0.40619980  0.84756245  1.0
  Ga  Ga203  1  0.35888560  0.73953313  0.84756245  1.0
  Ga  Ga204  1  0.69221893  0.07286647  0.84756245  1.0
  Ga  Ga205  1  0.69221893  0.40619980  0.84756245  1.0
  Ga  Ga206  1  0.69221893  0.73953313  0.84756245  1.0
  Ga  Ga207  1  0.15888560  0.30619980  0.94756245  1.0
  Ga  Ga208  1  0.15888560  0.63953313  0.94756245  1.0
  Ga  Ga209  1  0.15888560  0.97286647  0.94756245  1.0
  Ga  Ga210  1  0.49221893  0.30619980  0.94756245  1.0
  Ga  Ga211  1  0.49221893  0.63953313  0.94756245  1.0
  Ga  Ga212  1  0.49221893  0.97286647  0.94756245  1.0
  Ga  Ga213  1  0.82555227  0.30619980  0.94756245  1.0
  Ga  Ga214  1  0.82555227  0.63953313  0.94756245  1.0
  Ga  Ga215  1  0.82555227  0.97286647  0.94756245  1.0
  Ga  Ga216  1  0.16542513  0.08388123  0.94531435  1.0
  Ga  Ga217  1  0.16542513  0.41721457  0.94531435  1.0
  Ga  Ga218  1  0.16542513  0.75054790  0.94531435  1.0
  Ga  Ga219  1  0.49875847  0.08388123  0.94531435  1.0
  Ga  Ga220  1  0.49875847  0.41721457  0.94531435  1.0
  Ga  Ga221  1  0.49875847  0.75054790  0.94531435  1.0
  Ga  Ga222  1  0.83209180  0.08388123  0.94531435  1.0
  Ga  Ga223  1  0.83209180  0.41721457  0.94531435  1.0
  Ga  Ga224  1  0.83209180  0.75054790  0.94531435  1.0
  Ga  Ga225  1  0.03209180  0.18388123  0.84531435  1.0
  Ga  Ga226  1  0.03209180  0.51721457  0.84531435  1.0
  Ga  Ga227  1  0.03209180  0.85054790  0.84531435  1.0
  Ga  Ga228  1  0.36542513  0.18388123  0.84531435  1.0
  Ga  Ga229  1  0.36542513  0.51721457  0.84531435  1.0
  Ga  Ga230  1  0.36542513  0.85054790  0.84531435  1.0
  Ga  Ga231  1  0.69875847  0.18388123  0.84531435  1.0
  Ga  Ga232  1  0.69875847  0.51721457  0.84531435  1.0
  Ga  Ga233  1  0.69875847  0.85054790  0.84531435  1.0
  Ga  Ga234  1  0.20617887  0.09920760  0.83558465  1.0
  Ga  Ga235  1  0.20617887  0.43254093  0.83558465  1.0
  Ga  Ga236  1  0.20617887  0.76587427  0.83558465  1.0
  Ga  Ga237  1  0.53951220  0.09920760  0.83558465  1.0
  Ga  Ga238  1  0.53951220  0.43254093  0.83558465  1.0
  Ga  Ga239  1  0.53951220  0.76587427  0.83558465  1.0
  Ga  Ga240  1  0.87284553  0.09920760  0.83558465  1.0
  Ga  Ga241  1  0.87284553  0.43254093  0.83558465  1.0
  Ga  Ga242  1  0.87284553  0.76587427  0.83558465  1.0
  Ga  Ga243  1  0.00617887  0.33254093  0.93558465  1.0
  Ga  Ga244  1  0.00617887  0.66587427  0.93558465  1.0
  Ga  Ga245  1  0.00617887  0.99920760  0.93558465  1.0
  Ga  Ga246  1  0.33951220  0.33254093  0.93558465  1.0
  Ga  Ga247  1  0.33951220  0.66587427  0.93558465  1.0
  Ga  Ga248  1  0.33951220  0.99920760  0.93558465  1.0
  Ga  Ga249  1  0.67284553  0.33254093  0.93558465  1.0
  Ga  Ga250  1  0.67284553  0.66587427  0.93558465  1.0
  Ga  Ga251  1  0.67284553  0.99920760  0.93558465  1.0
  Ga  Ga252  1  0.25676027  0.08234713  0.93674745  1.0
  Ga  Ga253  1  0.25676027  0.41568047  0.93674745  1.0
  Ga  Ga254  1  0.25676027  0.74901380  0.93674745  1.0
  Ga  Ga255  1  0.59009360  0.08234713  0.93674745  1.0
  Ga  Ga256  1  0.59009360  0.41568047  0.93674745  1.0
  Ga  Ga257  1  0.59009360  0.74901380  0.93674745  1.0
  Ga  Ga258  1  0.92342693  0.08234713  0.93674745  1.0
  Ga  Ga259  1  0.92342693  0.41568047  0.93674745  1.0
  Ga  Ga260  1  0.92342693  0.74901380  0.93674745  1.0
  Ga  Ga261  1  0.12342693  0.18234713  0.83674745  1.0
  Ga  Ga262  1  0.12342693  0.51568047  0.83674745  1.0
  Ga  Ga263  1  0.12342693  0.84901380  0.83674745  1.0
  Ga  Ga264  1  0.45676027  0.18234713  0.83674745  1.0
  Ga  Ga265  1  0.45676027  0.51568047  0.83674745  1.0
  Ga  Ga266  1  0.45676027  0.84901380  0.83674745  1.0
  Ga  Ga267  1  0.79009360  0.18234713  0.83674745  1.0
  Ga  Ga268  1  0.79009360  0.51568047  0.83674745  1.0
  Ga  Ga269  1  0.79009360  0.84901380  0.83674745  1.0
  Ga  Ga270  1  0.25808180  0.17653790  0.94531435  1.0
  Ga  Ga271  1  0.25808180  0.50987123  0.94531435  1.0
  Ga  Ga272  1  0.25808180  0.84320457  0.94531435  1.0
  Ga  Ga273  1  0.59141513  0.17653790  0.94531435  1.0
  Ga  Ga274  1  0.59141513  0.50987123  0.94531435  1.0
  Ga  Ga275  1  0.59141513  0.84320457  0.94531435  1.0
  Ga  Ga276  1  0.92474847  0.17653790  0.94531435  1.0
  Ga  Ga277  1  0.92474847  0.50987123  0.94531435  1.0
  Ga  Ga278  1  0.92474847  0.84320457  0.94531435  1.0
  Ga  Ga279  1  0.12474847  0.27653790  0.84531435  1.0
  Ga  Ga280  1  0.12474847  0.60987123  0.84531435  1.0
  Ga  Ga281  1  0.12474847  0.94320457  0.84531435  1.0
  Ga  Ga282  1  0.45808180  0.27653790  0.84531435  1.0
  Ga  Ga283  1  0.45808180  0.60987123  0.84531435  1.0
  Ga  Ga284  1  0.45808180  0.94320457  0.84531435  1.0
  Ga  Ga285  1  0.79141513  0.27653790  0.84531435  1.0
  Ga  Ga286  1  0.79141513  0.60987123  0.84531435  1.0
  Ga  Ga287  1  0.79141513  0.94320457  0.84531435  1.0
  Ga  Ga288  1  0.28579700  0.14243500  0.88349625  1.0
  Ga  Ga289  1  0.28579700  0.47576833  0.88349625  1.0
  Ga  Ga290  1  0.28579700  0.80910167  0.88349625  1.0
  Ga  Ga291  1  0.61913033  0.14243500  0.88349625  1.0
  Ga  Ga292  1  0.61913033  0.47576833  0.88349625  1.0
  Ga  Ga293  1  0.61913033  0.80910167  0.88349625  1.0
  Ga  Ga294  1  0.95246367  0.14243500  0.88349625  1.0
  Ga  Ga295  1  0.95246367  0.47576833  0.88349625  1.0
  Ga  Ga296  1  0.95246367  0.80910167  0.88349625  1.0
  Ga  Ga297  1  0.08579700  0.04243500  0.98349625  1.0
  Ga  Ga298  1  0.08579700  0.37576833  0.98349625  1.0
  Ga  Ga299  1  0.08579700  0.70910167  0.98349625  1.0
  Ga  Ga300  1  0.41913033  0.04243500  0.98349625  1.0
  Ga  Ga301  1  0.41913033  0.37576833  0.98349625  1.0
  Ga  Ga302  1  0.41913033  0.70910167  0.98349625  1.0
  Ga  Ga303  1  0.75246367  0.04243500  0.98349625  1.0
  Ga  Ga304  1  0.75246367  0.37576833  0.98349625  1.0
  Ga  Ga305  1  0.75246367  0.70910167  0.98349625  1.0
  Ga  Ga306  1  0.30914060  0.32148980  0.81131645  1.0
  Ga  Ga307  1  0.30914060  0.65482313  0.81131645  1.0
  Ga  Ga308  1  0.30914060  0.98815647  0.81131645  1.0
  Ga  Ga309  1  0.64247393  0.32148980  0.81131645  1.0
  Ga  Ga310  1  0.64247393  0.65482313  0.81131645  1.0
  Ga  Ga311  1  0.64247393  0.98815647  0.81131645  1.0
  Ga  Ga312  1  0.97580727  0.32148980  0.81131645  1.0
  Ga  Ga313  1  0.97580727  0.65482313  0.81131645  1.0
  Ga  Ga314  1  0.97580727  0.98815647  0.81131645  1.0
  Ga  Ga315  1  0.10914060  0.22148980  0.91131645  1.0
  Ga  Ga316  1  0.10914060  0.55482313  0.91131645  1.0
  Ga  Ga317  1  0.10914060  0.88815647  0.91131645  1.0
  Ga  Ga318  1  0.44247393  0.22148980  0.91131645  1.0
  Ga  Ga319  1  0.44247393  0.55482313  0.91131645  1.0
  Ga  Ga320  1  0.44247393  0.88815647  0.91131645  1.0
  Ga  Ga321  1  0.77580727  0.22148980  0.91131645  1.0
  Ga  Ga322  1  0.77580727  0.55482313  0.91131645  1.0
  Ga  Ga323  1  0.77580727  0.88815647  0.91131645  1.0
  Ga  Ga324  1  0.17920853  0.14257827  0.88478565  1.0
  Ga  Ga325  1  0.17920853  0.47591160  0.88478565  1.0
  Ga  Ga326  1  0.17920853  0.80924493  0.88478565  1.0
  Ga  Ga327  1  0.51254187  0.14257827  0.88478565  1.0
  Ga  Ga328  1  0.51254187  0.47591160  0.88478565  1.0
  Ga  Ga329  1  0.51254187  0.80924493  0.88478565  1.0
  Ga  Ga330  1  0.84587520  0.14257827  0.88478565  1.0
  Ga  Ga331  1  0.84587520  0.47591160  0.88478565  1.0
  Ga  Ga332  1  0.84587520  0.80924493  0.88478565  1.0
  Ga  Ga333  1  0.31254187  0.04257827  0.98478565  1.0
  Ga  Ga334  1  0.31254187  0.37591160  0.98478565  1.0
  Ga  Ga335  1  0.31254187  0.70924493  0.98478565  1.0
  Ga  Ga336  1  0.64587520  0.04257827  0.98478565  1.0
  Ga  Ga337  1  0.64587520  0.37591160  0.98478565  1.0
  Ga  Ga338  1  0.64587520  0.70924493  0.98478565  1.0
  Ga  Ga339  1  0.97920853  0.04257827  0.98478565  1.0
  Ga  Ga340  1  0.97920853  0.37591160  0.98478565  1.0
  Ga  Ga341  1  0.97920853  0.70924493  0.98478565  1.0
  Ga  Ga342  1  0.17892200  0.03556000  0.88349625  1.0
  Ga  Ga343  1  0.17892200  0.36889333  0.88349625  1.0
  Ga  Ga344  1  0.17892200  0.70222667  0.88349625  1.0
  Ga  Ga345  1  0.51225533  0.03556000  0.88349625  1.0
  Ga  Ga346  1  0.51225533  0.36889333  0.88349625  1.0
  Ga  Ga347  1  0.51225533  0.70222667  0.88349625  1.0
  Ga  Ga348  1  0.84558867  0.03556000  0.88349625  1.0
  Ga  Ga349  1  0.84558867  0.36889333  0.88349625  1.0
  Ga  Ga350  1  0.84558867  0.70222667  0.88349625  1.0
  Ga  Ga351  1  0.31225533  0.26889333  0.98349625  1.0
  Ga  Ga352  1  0.31225533  0.60222667  0.98349625  1.0
  Ga  Ga353  1  0.31225533  0.93556000  0.98349625  1.0
  Ga  Ga354  1  0.64558867  0.26889333  0.98349625  1.0
  Ga  Ga355  1  0.64558867  0.60222667  0.98349625  1.0
  Ga  Ga356  1  0.64558867  0.93556000  0.98349625  1.0
  Ga  Ga357  1  0.97892200  0.26889333  0.98349625  1.0
  Ga  Ga358  1  0.97892200  0.60222667  0.98349625  1.0
  Ga  Ga359  1  0.97892200  0.93556000  0.98349625  1.0
  Ga  Ga360  1  0.19729707  0.15912237  0.98868355  1.0
  Ga  Ga361  1  0.19729707  0.49245570  0.98868355  1.0
  Ga  Ga362  1  0.19729707  0.82578903  0.98868355  1.0
  Ga  Ga363  1  0.53063040  0.15912237  0.98868355  1.0
  Ga  Ga364  1  0.53063040  0.49245570  0.98868355  1.0
  Ga  Ga365  1  0.53063040  0.82578903  0.98868355  1.0
  Ga  Ga366  1  0.86396373  0.15912237  0.98868355  1.0
  Ga  Ga367  1  0.86396373  0.49245570  0.98868355  1.0
  Ga  Ga368  1  0.86396373  0.82578903  0.98868355  1.0
  Ga  Ga369  1  0.06396373  0.25912237  0.88868355  1.0
  Ga  Ga370  1  0.06396373  0.59245570  0.88868355  1.0
  Ga  Ga371  1  0.06396373  0.92578903  0.88868355  1.0
  Ga  Ga372  1  0.39729707  0.25912237  0.88868355  1.0
  Ga  Ga373  1  0.39729707  0.59245570  0.88868355  1.0
  Ga  Ga374  1  0.39729707  0.92578903  0.88868355  1.0
  Ga  Ga375  1  0.73063040  0.25912237  0.88868355  1.0
  Ga  Ga376  1  0.73063040  0.59245570  0.88868355  1.0
  Ga  Ga377  1  0.73063040  0.92578903  0.88868355  1.0
  Ga  Ga378  1  0.10317927  0.05049347  0.74756245  1.0
  Ga  Ga379  1  0.10317927  0.38382680  0.74756245  1.0
  Ga  Ga380  1  0.10317927  0.71716013  0.74756245  1.0
  Ga  Ga381  1  0.43651260  0.05049347  0.74756245  1.0
  Ga  Ga382  1  0.43651260  0.38382680  0.74756245  1.0
  Ga  Ga383  1  0.43651260  0.71716013  0.74756245  1.0
  Ga  Ga384  1  0.76984593  0.05049347  0.74756245  1.0
  Ga  Ga385  1  0.76984593  0.38382680  0.74756245  1.0
  Ga  Ga386  1  0.76984593  0.71716013  0.74756245  1.0
  Ga  Ga387  1  0.30317927  0.15049347  0.64756245  1.0
  Ga  Ga388  1  0.30317927  0.48382680  0.64756245  1.0
  Ga  Ga389  1  0.30317927  0.81716013  0.64756245  1.0
  Ga  Ga390  1  0.63651260  0.15049347  0.64756245  1.0
  Ga  Ga391  1  0.63651260  0.48382680  0.64756245  1.0
  Ga  Ga392  1  0.63651260  0.81716013  0.64756245  1.0
  Ga  Ga393  1  0.96984593  0.15049347  0.64756245  1.0
  Ga  Ga394  1  0.96984593  0.48382680  0.64756245  1.0
  Ga  Ga395  1  0.96984593  0.81716013  0.64756245  1.0
  Ga  Ga396  1  0.04285760  0.30377247  0.62110645  1.0
  Ga  Ga397  1  0.04285760  0.63710580  0.62110645  1.0
  Ga  Ga398  1  0.04285760  0.97043913  0.62110645  1.0
  Ga  Ga399  1  0.37619093  0.30377247  0.62110645  1.0
  Ga  Ga400  1  0.37619093  0.63710580  0.62110645  1.0
  Ga  Ga401  1  0.37619093  0.97043913  0.62110645  1.0
  Ga  Ga402  1  0.70952427  0.30377247  0.62110645  1.0
  Ga  Ga403  1  0.70952427  0.63710580  0.62110645  1.0
  Ga  Ga404  1  0.70952427  0.97043913  0.62110645  1.0
  Ga  Ga405  1  0.17619093  0.20377247  0.72110645  1.0
  Ga  Ga406  1  0.17619093  0.53710580  0.72110645  1.0
  Ga  Ga407  1  0.17619093  0.87043913  0.72110645  1.0
  Ga  Ga408  1  0.50952427  0.20377247  0.72110645  1.0
  Ga  Ga409  1  0.50952427  0.53710580  0.72110645  1.0
  Ga  Ga410  1  0.50952427  0.87043913  0.72110645  1.0
  Ga  Ga411  1  0.84285760  0.20377247  0.72110645  1.0
  Ga  Ga412  1  0.84285760  0.53710580  0.72110645  1.0
  Ga  Ga413  1  0.84285760  0.87043913  0.72110645  1.0
  Ga  Ga414  1  0.17247860  0.30517147  0.71949445  1.0
  Ga  Ga415  1  0.17247860  0.63850480  0.71949445  1.0
  Ga  Ga416  1  0.17247860  0.97183813  0.71949445  1.0
  Ga  Ga417  1  0.50581193  0.30517147  0.71949445  1.0
  Ga  Ga418  1  0.50581193  0.63850480  0.71949445  1.0
  Ga  Ga419  1  0.50581193  0.97183813  0.71949445  1.0
  Ga  Ga420  1  0.83914527  0.30517147  0.71949445  1.0
  Ga  Ga421  1  0.83914527  0.63850480  0.71949445  1.0
  Ga  Ga422  1  0.83914527  0.97183813  0.71949445  1.0
  Ga  Ga423  1  0.03914527  0.07183813  0.61949445  1.0
  Ga  Ga424  1  0.03914527  0.40517147  0.61949445  1.0
  Ga  Ga425  1  0.03914527  0.73850480  0.61949445  1.0
  Ga  Ga426  1  0.37247860  0.07183813  0.61949445  1.0
  Ga  Ga427  1  0.37247860  0.40517147  0.61949445  1.0
  Ga  Ga428  1  0.37247860  0.73850480  0.61949445  1.0
  Ga  Ga429  1  0.70581193  0.07183813  0.61949445  1.0
  Ga  Ga430  1  0.70581193  0.40517147  0.61949445  1.0
  Ga  Ga431  1  0.70581193  0.73850480  0.61949445  1.0
  Ga  Ga432  1  0.12762567  0.23084217  0.67546475  1.0
  Ga  Ga433  1  0.12762567  0.56417550  0.67546475  1.0
  Ga  Ga434  1  0.12762567  0.89750883  0.67546475  1.0
  Ga  Ga435  1  0.46095900  0.23084217  0.67546475  1.0
  Ga  Ga436  1  0.46095900  0.56417550  0.67546475  1.0
  Ga  Ga437  1  0.46095900  0.89750883  0.67546475  1.0
  Ga  Ga438  1  0.79429233  0.23084217  0.67546475  1.0
  Ga  Ga439  1  0.79429233  0.56417550  0.67546475  1.0
  Ga  Ga440  1  0.79429233  0.89750883  0.67546475  1.0
  Ga  Ga441  1  0.26095900  0.13084217  0.77546475  1.0
  Ga  Ga442  1  0.26095900  0.46417550  0.77546475  1.0
  Ga  Ga443  1  0.26095900  0.79750883  0.77546475  1.0
  Ga  Ga444  1  0.59429233  0.13084217  0.77546475  1.0
  Ga  Ga445  1  0.59429233  0.46417550  0.77546475  1.0
  Ga  Ga446  1  0.59429233  0.79750883  0.77546475  1.0
  Ga  Ga447  1  0.92762567  0.13084217  0.77546475  1.0
  Ga  Ga448  1  0.92762567  0.46417550  0.77546475  1.0
  Ga  Ga449  1  0.92762567  0.79750883  0.77546475  1.0
  Ga  Ga450  1  0.02632627  0.22875897  0.68468095  1.0
  Ga  Ga451  1  0.02632627  0.56209230  0.68468095  1.0
  Ga  Ga452  1  0.02632627  0.89542563  0.68468095  1.0
  Ga  Ga453  1  0.35965960  0.22875897  0.68468095  1.0
  Ga  Ga454  1  0.35965960  0.56209230  0.68468095  1.0
  Ga  Ga455  1  0.35965960  0.89542563  0.68468095  1.0
  Ga  Ga456  1  0.69299293  0.22875897  0.68468095  1.0
  Ga  Ga457  1  0.69299293  0.56209230  0.68468095  1.0
  Ga  Ga458  1  0.69299293  0.89542563  0.68468095  1.0
  Ga  Ga459  1  0.15965960  0.12875897  0.78468095  1.0
  Ga  Ga460  1  0.15965960  0.46209230  0.78468095  1.0
  Ga  Ga461  1  0.15965960  0.79542563  0.78468095  1.0
  Ga  Ga462  1  0.49299293  0.12875897  0.78468095  1.0
  Ga  Ga463  1  0.49299293  0.46209230  0.78468095  1.0
  Ga  Ga464  1  0.49299293  0.79542563  0.78468095  1.0
  Ga  Ga465  1  0.82632627  0.12875897  0.78468095  1.0
  Ga  Ga466  1  0.82632627  0.46209230  0.78468095  1.0
  Ga  Ga467  1  0.82632627  0.79542563  0.78468095  1.0
  Ga  Ga468  1  0.15450433  0.02438750  0.77546475  1.0
  Ga  Ga469  1  0.15450433  0.35772083  0.77546475  1.0
  Ga  Ga470  1  0.15450433  0.69105417  0.77546475  1.0
  Ga  Ga471  1  0.48783767  0.02438750  0.77546475  1.0
  Ga  Ga472  1  0.48783767  0.35772083  0.77546475  1.0
  Ga  Ga473  1  0.48783767  0.69105417  0.77546475  1.0
  Ga  Ga474  1  0.82117100  0.02438750  0.77546475  1.0
  Ga  Ga475  1  0.82117100  0.35772083  0.77546475  1.0
  Ga  Ga476  1  0.82117100  0.69105417  0.77546475  1.0
  Ga  Ga477  1  0.02117100  0.12438750  0.67546475  1.0
  Ga  Ga478  1  0.02117100  0.45772083  0.67546475  1.0
  Ga  Ga479  1  0.02117100  0.79105417  0.67546475  1.0
  Ga  Ga480  1  0.35450433  0.12438750  0.67546475  1.0
  Ga  Ga481  1  0.35450433  0.45772083  0.67546475  1.0
  Ga  Ga482  1  0.35450433  0.79105417  0.67546475  1.0
  Ga  Ga483  1  0.68783767  0.12438750  0.67546475  1.0
  Ga  Ga484  1  0.68783767  0.45772083  0.67546475  1.0
  Ga  Ga485  1  0.68783767  0.79105417  0.67546475  1.0
  Ga  Ga486  1  0.16060367  0.30013217  0.62099675  1.0
  Ga  Ga487  1  0.16060367  0.63346550  0.62099675  1.0
  Ga  Ga488  1  0.16060367  0.96679883  0.62099675  1.0
  Ga  Ga489  1  0.49393700  0.30013217  0.62099675  1.0
  Ga  Ga490  1  0.49393700  0.63346550  0.62099675  1.0
  Ga  Ga491  1  0.49393700  0.96679883  0.62099675  1.0
  Ga  Ga492  1  0.82727033  0.30013217  0.62099675  1.0
  Ga  Ga493  1  0.82727033  0.63346550  0.62099675  1.0
  Ga  Ga494  1  0.82727033  0.96679883  0.62099675  1.0
  Ga  Ga495  1  0.29393700  0.20013217  0.72099675  1.0
  Ga  Ga496  1  0.29393700  0.53346550  0.72099675  1.0
  Ga  Ga497  1  0.29393700  0.86679883  0.72099675  1.0
  Ga  Ga498  1  0.62727033  0.20013217  0.72099675  1.0
  Ga  Ga499  1  0.62727033  0.53346550  0.72099675  1.0
  Ga  Ga500  1  0.62727033  0.86679883  0.72099675  1.0
  Ga  Ga501  1  0.96060367  0.20013217  0.72099675  1.0
  Ga  Ga502  1  0.96060367  0.53346550  0.72099675  1.0
  Ga  Ga503  1  0.96060367  0.86679883  0.72099675  1.0
  Ga  Ga504  1  0.21975893  0.05317030  0.73821295  1.0
  Ga  Ga505  1  0.21975893  0.38650363  0.73821295  1.0
  Ga  Ga506  1  0.21975893  0.71983697  0.73821295  1.0
  Ga  Ga507  1  0.55309227  0.05317030  0.73821295  1.0
  Ga  Ga508  1  0.55309227  0.38650363  0.73821295  1.0
  Ga  Ga509  1  0.55309227  0.71983697  0.73821295  1.0
  Ga  Ga510  1  0.88642560  0.05317030  0.73821295  1.0
  Ga  Ga511  1  0.88642560  0.38650363  0.73821295  1.0
  Ga  Ga512  1  0.88642560  0.71983697  0.73821295  1.0
  Ga  Ga513  1  0.08642560  0.15317030  0.63821295  1.0
  Ga  Ga514  1  0.08642560  0.48650363  0.63821295  1.0
  Ga  Ga515  1  0.08642560  0.81983697  0.63821295  1.0
  Ga  Ga516  1  0.41975893  0.15317030  0.63821295  1.0
  Ga  Ga517  1  0.41975893  0.48650363  0.63821295  1.0
  Ga  Ga518  1  0.41975893  0.81983697  0.63821295  1.0
  Ga  Ga519  1  0.75309227  0.15317030  0.63821295  1.0
  Ga  Ga520  1  0.75309227  0.48650363  0.63821295  1.0
  Ga  Ga521  1  0.75309227  0.81983697  0.63821295  1.0
  Ga  Ga522  1  0.06705833  0.30658683  0.72099675  1.0
  Ga  Ga523  1  0.06705833  0.63992017  0.72099675  1.0
  Ga  Ga524  1  0.06705833  0.97325350  0.72099675  1.0
  Ga  Ga525  1  0.40039167  0.30658683  0.72099675  1.0
  Ga  Ga526  1  0.40039167  0.63992017  0.72099675  1.0
  Ga  Ga527  1  0.40039167  0.97325350  0.72099675  1.0
  Ga  Ga528  1  0.73372500  0.30658683  0.72099675  1.0
  Ga  Ga529  1  0.73372500  0.63992017  0.72099675  1.0
  Ga  Ga530  1  0.73372500  0.97325350  0.72099675  1.0
  Ga  Ga531  1  0.26705833  0.07325350  0.62099675  1.0
  Ga  Ga532  1  0.26705833  0.40658683  0.62099675  1.0
  Ga  Ga533  1  0.26705833  0.73992017  0.62099675  1.0
  Ga  Ga534  1  0.60039167  0.07325350  0.62099675  1.0
  Ga  Ga535  1  0.60039167  0.40658683  0.62099675  1.0
  Ga  Ga536  1  0.60039167  0.73992017  0.62099675  1.0
  Ga  Ga537  1  0.93372500  0.07325350  0.62099675  1.0
  Ga  Ga538  1  0.93372500  0.40658683  0.62099675  1.0
  Ga  Ga539  1  0.93372500  0.73992017  0.62099675  1.0
  Ga  Ga540  1  0.16151827  0.19421113  0.61949445  1.0
  Ga  Ga541  1  0.16151827  0.52754447  0.61949445  1.0
  Ga  Ga542  1  0.16151827  0.86087780  0.61949445  1.0
  Ga  Ga543  1  0.49485160  0.19421113  0.61949445  1.0
  Ga  Ga544  1  0.49485160  0.52754447  0.61949445  1.0
  Ga  Ga545  1  0.49485160  0.86087780  0.61949445  1.0
  Ga  Ga546  1  0.82818493  0.19421113  0.61949445  1.0
  Ga  Ga547  1  0.82818493  0.52754447  0.61949445  1.0
  Ga  Ga548  1  0.82818493  0.86087780  0.61949445  1.0
  Ga  Ga549  1  0.29485160  0.09421113  0.71949445  1.0
  Ga  Ga550  1  0.29485160  0.42754447  0.71949445  1.0
  Ga  Ga551  1  0.29485160  0.76087780  0.71949445  1.0
  Ga  Ga552  1  0.62818493  0.09421113  0.71949445  1.0
  Ga  Ga553  1  0.62818493  0.42754447  0.71949445  1.0
  Ga  Ga554  1  0.62818493  0.76087780  0.71949445  1.0
  Ga  Ga555  1  0.96151827  0.09421113  0.71949445  1.0
  Ga  Ga556  1  0.96151827  0.42754447  0.71949445  1.0
  Ga  Ga557  1  0.96151827  0.76087780  0.71949445  1.0
  Ga  Ga558  1  0.26345460  0.19103613  0.62110645  1.0
  Ga  Ga559  1  0.26345460  0.52436947  0.62110645  1.0
  Ga  Ga560  1  0.26345460  0.85770280  0.62110645  1.0
  Ga  Ga561  1  0.59678793  0.19103613  0.62110645  1.0
  Ga  Ga562  1  0.59678793  0.52436947  0.62110645  1.0
  Ga  Ga563  1  0.59678793  0.85770280  0.62110645  1.0
  Ga  Ga564  1  0.93012127  0.19103613  0.62110645  1.0
  Ga  Ga565  1  0.93012127  0.52436947  0.62110645  1.0
  Ga  Ga566  1  0.93012127  0.85770280  0.62110645  1.0
  Ga  Ga567  1  0.06345460  0.09103613  0.72110645  1.0
  Ga  Ga568  1  0.06345460  0.42436947  0.72110645  1.0
  Ga  Ga569  1  0.06345460  0.75770280  0.72110645  1.0
  Ga  Ga570  1  0.39678793  0.09103613  0.72110645  1.0
  Ga  Ga571  1  0.39678793  0.42436947  0.72110645  1.0
  Ga  Ga572  1  0.39678793  0.75770280  0.72110645  1.0
  Ga  Ga573  1  0.73012127  0.09103613  0.72110645  1.0
  Ga  Ga574  1  0.73012127  0.42436947  0.72110645  1.0
  Ga  Ga575  1  0.73012127  0.75770280  0.72110645  1.0
  Ga  Ga576  1  0.09221893  0.27286647  0.64756245  1.0
  Ga  Ga577  1  0.09221893  0.60619980  0.64756245  1.0
  Ga  Ga578  1  0.09221893  0.93953313  0.64756245  1.0
  Ga  Ga579  1  0.42555227  0.27286647  0.64756245  1.0
  Ga  Ga580  1  0.42555227  0.60619980  0.64756245  1.0
  Ga  Ga581  1  0.42555227  0.93953313  0.64756245  1.0
  Ga  Ga582  1  0.75888560  0.27286647  0.64756245  1.0
  Ga  Ga583  1  0.75888560  0.60619980  0.64756245  1.0
  Ga  Ga584  1  0.75888560  0.93953313  0.64756245  1.0
  Ga  Ga585  1  0.22555227  0.17286647  0.74756245  1.0
  Ga  Ga586  1  0.22555227  0.50619980  0.74756245  1.0
  Ga  Ga587  1  0.22555227  0.83953313  0.74756245  1.0
  Ga  Ga588  1  0.55888560  0.17286647  0.74756245  1.0
  Ga  Ga589  1  0.55888560  0.50619980  0.74756245  1.0
  Ga  Ga590  1  0.55888560  0.83953313  0.74756245  1.0
  Ga  Ga591  1  0.89221893  0.17286647  0.74756245  1.0
  Ga  Ga592  1  0.89221893  0.50619980  0.74756245  1.0
  Ga  Ga593  1  0.89221893  0.83953313  0.74756245  1.0
  Ga  Ga594  1  0.23209180  0.28388123  0.74531435  1.0
  Ga  Ga595  1  0.23209180  0.61721457  0.74531435  1.0
  Ga  Ga596  1  0.23209180  0.95054790  0.74531435  1.0
  Ga  Ga597  1  0.56542513  0.28388123  0.74531435  1.0
  Ga  Ga598  1  0.56542513  0.61721457  0.74531435  1.0
  Ga  Ga599  1  0.56542513  0.95054790  0.74531435  1.0
  Ga  Ga600  1  0.89875847  0.28388123  0.74531435  1.0
  Ga  Ga601  1  0.89875847  0.61721457  0.74531435  1.0
  Ga  Ga602  1  0.89875847  0.95054790  0.74531435  1.0
  Ga  Ga603  1  0.09875847  0.05054790  0.64531435  1.0
  Ga  Ga604  1  0.09875847  0.38388123  0.64531435  1.0
  Ga  Ga605  1  0.09875847  0.71721457  0.64531435  1.0
  Ga  Ga606  1  0.43209180  0.05054790  0.64531435  1.0
  Ga  Ga607  1  0.43209180  0.38388123  0.64531435  1.0
  Ga  Ga608  1  0.43209180  0.71721457  0.64531435  1.0
  Ga  Ga609  1  0.76542513  0.05054790  0.64531435  1.0
  Ga  Ga610  1  0.76542513  0.38388123  0.64531435  1.0
  Ga  Ga611  1  0.76542513  0.71721457  0.64531435  1.0
  Ga  Ga612  1  0.27284553  0.29920760  0.63558465  1.0
  Ga  Ga613  1  0.27284553  0.63254093  0.63558465  1.0
  Ga  Ga614  1  0.27284553  0.96587427  0.63558465  1.0
  Ga  Ga615  1  0.60617887  0.29920760  0.63558465  1.0
  Ga  Ga616  1  0.60617887  0.63254093  0.63558465  1.0
  Ga  Ga617  1  0.60617887  0.96587427  0.63558465  1.0
  Ga  Ga618  1  0.93951220  0.29920760  0.63558465  1.0
  Ga  Ga619  1  0.93951220  0.63254093  0.63558465  1.0
  Ga  Ga620  1  0.93951220  0.96587427  0.63558465  1.0
  Ga  Ga621  1  0.07284553  0.19920760  0.73558465  1.0
  Ga  Ga622  1  0.07284553  0.53254093  0.73558465  1.0
  Ga  Ga623  1  0.07284553  0.86587427  0.73558465  1.0
  Ga  Ga624  1  0.40617887  0.19920760  0.73558465  1.0
  Ga  Ga625  1  0.40617887  0.53254093  0.73558465  1.0
  Ga  Ga626  1  0.40617887  0.86587427  0.73558465  1.0
  Ga  Ga627  1  0.73951220  0.19920760  0.73558465  1.0
  Ga  Ga628  1  0.73951220  0.53254093  0.73558465  1.0
  Ga  Ga629  1  0.73951220  0.86587427  0.73558465  1.0
  Ga  Ga630  1  0.32342693  0.28234713  0.73674745  1.0
  Ga  Ga631  1  0.32342693  0.61568047  0.73674745  1.0
  Ga  Ga632  1  0.32342693  0.94901380  0.73674745  1.0
  Ga  Ga633  1  0.65676027  0.28234713  0.73674745  1.0
  Ga  Ga634  1  0.65676027  0.61568047  0.73674745  1.0
  Ga  Ga635  1  0.65676027  0.94901380  0.73674745  1.0
  Ga  Ga636  1  0.99009360  0.28234713  0.73674745  1.0
  Ga  Ga637  1  0.99009360  0.61568047  0.73674745  1.0
  Ga  Ga638  1  0.99009360  0.94901380  0.73674745  1.0
  Ga  Ga639  1  0.19009360  0.04901380  0.63674745  1.0
  Ga  Ga640  1  0.19009360  0.38234713  0.63674745  1.0
  Ga  Ga641  1  0.19009360  0.71568047  0.63674745  1.0
  Ga  Ga642  1  0.52342693  0.04901380  0.63674745  1.0
  Ga  Ga643  1  0.52342693  0.38234713  0.63674745  1.0
  Ga  Ga644  1  0.52342693  0.71568047  0.63674745  1.0
  Ga  Ga645  1  0.85676027  0.04901380  0.63674745  1.0
  Ga  Ga646  1  0.85676027  0.38234713  0.63674745  1.0
  Ga  Ga647  1  0.85676027  0.71568047  0.63674745  1.0
  Ga  Ga648  1  0.32474847  0.04320457  0.74531435  1.0
  Ga  Ga649  1  0.32474847  0.37653790  0.74531435  1.0
  Ga  Ga650  1  0.32474847  0.70987123  0.74531435  1.0
  Ga  Ga651  1  0.65808180  0.04320457  0.74531435  1.0
  Ga  Ga652  1  0.65808180  0.37653790  0.74531435  1.0
  Ga  Ga653  1  0.65808180  0.70987123  0.74531435  1.0
  Ga  Ga654  1  0.99141513  0.04320457  0.74531435  1.0
  Ga  Ga655  1  0.99141513  0.37653790  0.74531435  1.0
  Ga  Ga656  1  0.99141513  0.70987123  0.74531435  1.0
  Ga  Ga657  1  0.19141513  0.14320457  0.64531435  1.0
  Ga  Ga658  1  0.19141513  0.47653790  0.64531435  1.0
  Ga  Ga659  1  0.19141513  0.80987123  0.64531435  1.0
  Ga  Ga660  1  0.52474847  0.14320457  0.64531435  1.0
  Ga  Ga661  1  0.52474847  0.47653790  0.64531435  1.0
  Ga  Ga662  1  0.52474847  0.80987123  0.64531435  1.0
  Ga  Ga663  1  0.85808180  0.14320457  0.64531435  1.0
  Ga  Ga664  1  0.85808180  0.47653790  0.64531435  1.0
  Ga  Ga665  1  0.85808180  0.80987123  0.64531435  1.0
  Ga  Ga666  1  0.01913033  0.00910167  0.68349625  1.0
  Ga  Ga667  1  0.01913033  0.34243500  0.68349625  1.0
  Ga  Ga668  1  0.01913033  0.67576833  0.68349625  1.0
  Ga  Ga669  1  0.35246367  0.00910167  0.68349625  1.0
  Ga  Ga670  1  0.35246367  0.34243500  0.68349625  1.0
  Ga  Ga671  1  0.35246367  0.67576833  0.68349625  1.0
  Ga  Ga672  1  0.68579700  0.00910167  0.68349625  1.0
  Ga  Ga673  1  0.68579700  0.34243500  0.68349625  1.0
  Ga  Ga674  1  0.68579700  0.67576833  0.68349625  1.0
  Ga  Ga675  1  0.15246367  0.24243500  0.78349625  1.0
  Ga  Ga676  1  0.15246367  0.57576833  0.78349625  1.0
  Ga  Ga677  1  0.15246367  0.90910167  0.78349625  1.0
  Ga  Ga678  1  0.48579700  0.24243500  0.78349625  1.0
  Ga  Ga679  1  0.48579700  0.57576833  0.78349625  1.0
  Ga  Ga680  1  0.48579700  0.90910167  0.78349625  1.0
  Ga  Ga681  1  0.81913033  0.24243500  0.78349625  1.0
  Ga  Ga682  1  0.81913033  0.57576833  0.78349625  1.0
  Ga  Ga683  1  0.81913033  0.90910167  0.78349625  1.0
  Ga  Ga684  1  0.04247393  0.18815647  0.61131645  1.0
  Ga  Ga685  1  0.04247393  0.52148980  0.61131645  1.0
  Ga  Ga686  1  0.04247393  0.85482313  0.61131645  1.0
  Ga  Ga687  1  0.37580727  0.18815647  0.61131645  1.0
  Ga  Ga688  1  0.37580727  0.52148980  0.61131645  1.0
  Ga  Ga689  1  0.37580727  0.85482313  0.61131645  1.0
  Ga  Ga690  1  0.70914060  0.18815647  0.61131645  1.0
  Ga  Ga691  1  0.70914060  0.52148980  0.61131645  1.0
  Ga  Ga692  1  0.70914060  0.85482313  0.61131645  1.0
  Ga  Ga693  1  0.17580727  0.08815647  0.71131645  1.0
  Ga  Ga694  1  0.17580727  0.42148980  0.71131645  1.0
  Ga  Ga695  1  0.17580727  0.75482313  0.71131645  1.0
  Ga  Ga696  1  0.50914060  0.08815647  0.71131645  1.0
  Ga  Ga697  1  0.50914060  0.42148980  0.71131645  1.0
  Ga  Ga698  1  0.50914060  0.75482313  0.71131645  1.0
  Ga  Ga699  1  0.84247393  0.08815647  0.71131645  1.0
  Ga  Ga700  1  0.84247393  0.42148980  0.71131645  1.0
  Ga  Ga701  1  0.84247393  0.75482313  0.71131645  1.0
  Ga  Ga702  1  0.24587520  0.00924493  0.68478565  1.0
  Ga  Ga703  1  0.24587520  0.34257827  0.68478565  1.0
  Ga  Ga704  1  0.24587520  0.67591160  0.68478565  1.0
  Ga  Ga705  1  0.57920853  0.00924493  0.68478565  1.0
  Ga  Ga706  1  0.57920853  0.34257827  0.68478565  1.0
  Ga  Ga707  1  0.57920853  0.67591160  0.68478565  1.0
  Ga  Ga708  1  0.91254187  0.00924493  0.68478565  1.0
  Ga  Ga709  1  0.91254187  0.34257827  0.68478565  1.0
  Ga  Ga710  1  0.91254187  0.67591160  0.68478565  1.0
  Ga  Ga711  1  0.04587520  0.24257827  0.78478565  1.0
  Ga  Ga712  1  0.04587520  0.57591160  0.78478565  1.0
  Ga  Ga713  1  0.04587520  0.90924493  0.78478565  1.0
  Ga  Ga714  1  0.37920853  0.24257827  0.78478565  1.0
  Ga  Ga715  1  0.37920853  0.57591160  0.78478565  1.0
  Ga  Ga716  1  0.37920853  0.90924493  0.78478565  1.0
  Ga  Ga717  1  0.71254187  0.24257827  0.78478565  1.0
  Ga  Ga718  1  0.71254187  0.57591160  0.78478565  1.0
  Ga  Ga719  1  0.71254187  0.90924493  0.78478565  1.0
  Ga  Ga720  1  0.24558867  0.23556000  0.68349625  1.0
  Ga  Ga721  1  0.24558867  0.56889333  0.68349625  1.0
  Ga  Ga722  1  0.24558867  0.90222667  0.68349625  1.0
  Ga  Ga723  1  0.57892200  0.23556000  0.68349625  1.0
  Ga  Ga724  1  0.57892200  0.56889333  0.68349625  1.0
  Ga  Ga725  1  0.57892200  0.90222667  0.68349625  1.0
  Ga  Ga726  1  0.91225533  0.23556000  0.68349625  1.0
  Ga  Ga727  1  0.91225533  0.56889333  0.68349625  1.0
  Ga  Ga728  1  0.91225533  0.90222667  0.68349625  1.0
  Ga  Ga729  1  0.04558867  0.13556000  0.78349625  1.0
  Ga  Ga730  1  0.04558867  0.46889333  0.78349625  1.0
  Ga  Ga731  1  0.04558867  0.80222667  0.78349625  1.0
  Ga  Ga732  1  0.37892200  0.13556000  0.78349625  1.0
  Ga  Ga733  1  0.37892200  0.46889333  0.78349625  1.0
  Ga  Ga734  1  0.37892200  0.80222667  0.78349625  1.0
  Ga  Ga735  1  0.71225533  0.13556000  0.78349625  1.0
  Ga  Ga736  1  0.71225533  0.46889333  0.78349625  1.0
  Ga  Ga737  1  0.71225533  0.80222667  0.78349625  1.0
  Ga  Ga738  1  0.26396373  0.02578903  0.78868355  1.0
  Ga  Ga739  1  0.26396373  0.35912237  0.78868355  1.0
  Ga  Ga740  1  0.26396373  0.69245570  0.78868355  1.0
  Ga  Ga741  1  0.59729707  0.02578903  0.78868355  1.0
  Ga  Ga742  1  0.59729707  0.35912237  0.78868355  1.0
  Ga  Ga743  1  0.59729707  0.69245570  0.78868355  1.0
  Ga  Ga744  1  0.93063040  0.02578903  0.78868355  1.0
  Ga  Ga745  1  0.93063040  0.35912237  0.78868355  1.0
  Ga  Ga746  1  0.93063040  0.69245570  0.78868355  1.0
  Ga  Ga747  1  0.13063040  0.12578903  0.68868355  1.0
  Ga  Ga748  1  0.13063040  0.45912237  0.68868355  1.0
  Ga  Ga749  1  0.13063040  0.79245570  0.68868355  1.0
  Ga  Ga750  1  0.46396373  0.12578903  0.68868355  1.0
  Ga  Ga751  1  0.46396373  0.45912237  0.68868355  1.0
  Ga  Ga752  1  0.46396373  0.79245570  0.68868355  1.0
  Ga  Ga753  1  0.79729707  0.12578903  0.68868355  1.0
  Ga  Ga754  1  0.79729707  0.45912237  0.68868355  1.0
  Ga  Ga755  1  0.79729707  0.79245570  0.68868355  1.0
  Ni  Ni756  1  0.06753227  0.14615013  0.88216945  1.0
  Ni  Ni757  1  0.06753227  0.47948347  0.88216945  1.0
  Ni  Ni758  1  0.06753227  0.81281680  0.88216945  1.0
  Ni  Ni759  1  0.40086560  0.14615013  0.88216945  1.0
  Ni  Ni760  1  0.40086560  0.47948347  0.88216945  1.0
  Ni  Ni761  1  0.40086560  0.81281680  0.88216945  1.0
  Ni  Ni762  1  0.73419893  0.14615013  0.88216945  1.0
  Ni  Ni763  1  0.73419893  0.47948347  0.88216945  1.0
  Ni  Ni764  1  0.73419893  0.81281680  0.88216945  1.0
  Ni  Ni765  1  0.20086560  0.04615013  0.98216945  1.0
  Ni  Ni766  1  0.20086560  0.37948347  0.98216945  1.0
  Ni  Ni767  1  0.20086560  0.71281680  0.98216945  1.0
  Ni  Ni768  1  0.53419893  0.04615013  0.98216945  1.0
  Ni  Ni769  1  0.53419893  0.37948347  0.98216945  1.0
  Ni  Ni770  1  0.53419893  0.71281680  0.98216945  1.0
  Ni  Ni771  1  0.86753227  0.04615013  0.98216945  1.0
  Ni  Ni772  1  0.86753227  0.37948347  0.98216945  1.0
  Ni  Ni773  1  0.86753227  0.71281680  0.98216945  1.0
  Ni  Ni774  1  0.26818293  0.30148880  0.95013745  1.0
  Ni  Ni775  1  0.26818293  0.63482213  0.95013745  1.0
  Ni  Ni776  1  0.26818293  0.96815547  0.95013745  1.0
  Ni  Ni777  1  0.60151627  0.30148880  0.95013745  1.0
  Ni  Ni778  1  0.60151627  0.63482213  0.95013745  1.0
  Ni  Ni779  1  0.60151627  0.96815547  0.95013745  1.0
  Ni  Ni780  1  0.93484960  0.30148880  0.95013745  1.0
  Ni  Ni781  1  0.93484960  0.63482213  0.95013745  1.0
  Ni  Ni782  1  0.93484960  0.96815547  0.95013745  1.0
  Ni  Ni783  1  0.13484960  0.06815547  0.85013745  1.0
  Ni  Ni784  1  0.13484960  0.40148880  0.85013745  1.0
  Ni  Ni785  1  0.13484960  0.73482213  0.85013745  1.0
  Ni  Ni786  1  0.46818293  0.06815547  0.85013745  1.0
  Ni  Ni787  1  0.46818293  0.40148880  0.85013745  1.0
  Ni  Ni788  1  0.46818293  0.73482213  0.85013745  1.0
  Ni  Ni789  1  0.80151627  0.06815547  0.85013745  1.0
  Ni  Ni790  1  0.80151627  0.40148880  0.85013745  1.0
  Ni  Ni791  1  0.80151627  0.73482213  0.85013745  1.0
  Ni  Ni792  1  0.24436080  0.06499490  0.84749235  1.0
  Ni  Ni793  1  0.24436080  0.39832823  0.84749235  1.0
  Ni  Ni794  1  0.24436080  0.73166157  0.84749235  1.0
  Ni  Ni795  1  0.57769413  0.06499490  0.84749235  1.0
  Ni  Ni796  1  0.57769413  0.39832823  0.84749235  1.0
  Ni  Ni797  1  0.57769413  0.73166157  0.84749235  1.0
  Ni  Ni798  1  0.91102747  0.06499490  0.84749235  1.0
  Ni  Ni799  1  0.91102747  0.39832823  0.84749235  1.0
  Ni  Ni800  1  0.91102747  0.73166157  0.84749235  1.0
  Ni  Ni801  1  0.04436080  0.29832823  0.94749235  1.0
  Ni  Ni802  1  0.04436080  0.63166157  0.94749235  1.0
  Ni  Ni803  1  0.04436080  0.96499490  0.94749235  1.0
  Ni  Ni804  1  0.37769413  0.29832823  0.94749235  1.0
  Ni  Ni805  1  0.37769413  0.63166157  0.94749235  1.0
  Ni  Ni806  1  0.37769413  0.96499490  0.94749235  1.0
  Ni  Ni807  1  0.71102747  0.29832823  0.94749235  1.0
  Ni  Ni808  1  0.71102747  0.63166157  0.94749235  1.0
  Ni  Ni809  1  0.71102747  0.96499490  0.94749235  1.0
  Ni  Ni810  1  0.04208193  0.07538780  0.95013745  1.0
  Ni  Ni811  1  0.04208193  0.40872113  0.95013745  1.0
  Ni  Ni812  1  0.04208193  0.74205447  0.95013745  1.0
  Ni  Ni813  1  0.37541527  0.07538780  0.95013745  1.0
  Ni  Ni814  1  0.37541527  0.40872113  0.95013745  1.0
  Ni  Ni815  1  0.37541527  0.74205447  0.95013745  1.0
  Ni  Ni816  1  0.70874860  0.07538780  0.95013745  1.0
  Ni  Ni817  1  0.70874860  0.40872113  0.95013745  1.0
  Ni  Ni818  1  0.70874860  0.74205447  0.95013745  1.0
  Ni  Ni819  1  0.24208193  0.17538780  0.85013745  1.0
  Ni  Ni820  1  0.24208193  0.50872113  0.85013745  1.0
  Ni  Ni821  1  0.24208193  0.84205447  0.85013745  1.0
  Ni  Ni822  1  0.57541527  0.17538780  0.85013745  1.0
  Ni  Ni823  1  0.57541527  0.50872113  0.85013745  1.0
  Ni  Ni824  1  0.57541527  0.84205447  0.85013745  1.0
  Ni  Ni825  1  0.90874860  0.17538780  0.85013745  1.0
  Ni  Ni826  1  0.90874860  0.50872113  0.85013745  1.0
  Ni  Ni827  1  0.90874860  0.84205447  0.85013745  1.0
  Ni  Ni828  1  0.17476460  0.25338247  0.88216945  1.0
  Ni  Ni829  1  0.17476460  0.58671580  0.88216945  1.0
  Ni  Ni830  1  0.17476460  0.92004913  0.88216945  1.0
  Ni  Ni831  1  0.50809793  0.25338247  0.88216945  1.0
  Ni  Ni832  1  0.50809793  0.58671580  0.88216945  1.0
  Ni  Ni833  1  0.50809793  0.92004913  0.88216945  1.0
  Ni  Ni834  1  0.84143127  0.25338247  0.88216945  1.0
  Ni  Ni835  1  0.84143127  0.58671580  0.88216945  1.0
  Ni  Ni836  1  0.84143127  0.92004913  0.88216945  1.0
  Ni  Ni837  1  0.30809793  0.15338247  0.98216945  1.0
  Ni  Ni838  1  0.30809793  0.48671580  0.98216945  1.0
  Ni  Ni839  1  0.30809793  0.82004913  0.98216945  1.0
  Ni  Ni840  1  0.64143127  0.15338247  0.98216945  1.0
  Ni  Ni841  1  0.64143127  0.48671580  0.98216945  1.0
  Ni  Ni842  1  0.64143127  0.82004913  0.98216945  1.0
  Ni  Ni843  1  0.97476460  0.15338247  0.98216945  1.0
  Ni  Ni844  1  0.97476460  0.48671580  0.98216945  1.0
  Ni  Ni845  1  0.97476460  0.82004913  0.98216945  1.0
  Ni  Ni846  1  0.13419893  0.01281680  0.68216945  1.0
  Ni  Ni847  1  0.13419893  0.34615013  0.68216945  1.0
  Ni  Ni848  1  0.13419893  0.67948347  0.68216945  1.0
  Ni  Ni849  1  0.46753227  0.01281680  0.68216945  1.0
  Ni  Ni850  1  0.46753227  0.34615013  0.68216945  1.0
  Ni  Ni851  1  0.46753227  0.67948347  0.68216945  1.0
  Ni  Ni852  1  0.80086560  0.01281680  0.68216945  1.0
  Ni  Ni853  1  0.80086560  0.34615013  0.68216945  1.0
  Ni  Ni854  1  0.80086560  0.67948347  0.68216945  1.0
  Ni  Ni855  1  0.26753227  0.24615013  0.78216945  1.0
  Ni  Ni856  1  0.26753227  0.57948347  0.78216945  1.0
  Ni  Ni857  1  0.26753227  0.91281680  0.78216945  1.0
  Ni  Ni858  1  0.60086560  0.24615013  0.78216945  1.0
  Ni  Ni859  1  0.60086560  0.57948347  0.78216945  1.0
  Ni  Ni860  1  0.60086560  0.91281680  0.78216945  1.0
  Ni  Ni861  1  0.93419893  0.24615013  0.78216945  1.0
  Ni  Ni862  1  0.93419893  0.57948347  0.78216945  1.0
  Ni  Ni863  1  0.93419893  0.91281680  0.78216945  1.0
  Ni  Ni864  1  0.00151627  0.16815547  0.75013745  1.0
  Ni  Ni865  1  0.00151627  0.50148880  0.75013745  1.0
  Ni  Ni866  1  0.00151627  0.83482213  0.75013745  1.0
  Ni  Ni867  1  0.33484960  0.16815547  0.75013745  1.0
  Ni  Ni868  1  0.33484960  0.50148880  0.75013745  1.0
  Ni  Ni869  1  0.33484960  0.83482213  0.75013745  1.0
  Ni  Ni870  1  0.66818293  0.16815547  0.75013745  1.0
  Ni  Ni871  1  0.66818293  0.50148880  0.75013745  1.0
  Ni  Ni872  1  0.66818293  0.83482213  0.75013745  1.0
  Ni  Ni873  1  0.20151627  0.26815547  0.65013745  1.0
  Ni  Ni874  1  0.20151627  0.60148880  0.65013745  1.0
  Ni  Ni875  1  0.20151627  0.93482213  0.65013745  1.0
  Ni  Ni876  1  0.53484960  0.26815547  0.65013745  1.0
  Ni  Ni877  1  0.53484960  0.60148880  0.65013745  1.0
  Ni  Ni878  1  0.53484960  0.93482213  0.65013745  1.0
  Ni  Ni879  1  0.86818293  0.26815547  0.65013745  1.0
  Ni  Ni880  1  0.86818293  0.60148880  0.65013745  1.0
  Ni  Ni881  1  0.86818293  0.93482213  0.65013745  1.0
  Ni  Ni882  1  0.31102747  0.26499490  0.64749235  1.0
  Ni  Ni883  1  0.31102747  0.59832823  0.64749235  1.0
  Ni  Ni884  1  0.31102747  0.93166157  0.64749235  1.0
  Ni  Ni885  1  0.64436080  0.26499490  0.64749235  1.0
  Ni  Ni886  1  0.64436080  0.59832823  0.64749235  1.0
  Ni  Ni887  1  0.64436080  0.93166157  0.64749235  1.0
  Ni  Ni888  1  0.97769413  0.26499490  0.64749235  1.0
  Ni  Ni889  1  0.97769413  0.59832823  0.64749235  1.0
  Ni  Ni890  1  0.97769413  0.93166157  0.64749235  1.0
  Ni  Ni891  1  0.11102747  0.16499490  0.74749235  1.0
  Ni  Ni892  1  0.11102747  0.49832823  0.74749235  1.0
  Ni  Ni893  1  0.11102747  0.83166157  0.74749235  1.0
  Ni  Ni894  1  0.44436080  0.16499490  0.74749235  1.0
  Ni  Ni895  1  0.44436080  0.49832823  0.74749235  1.0
  Ni  Ni896  1  0.44436080  0.83166157  0.74749235  1.0
  Ni  Ni897  1  0.77769413  0.16499490  0.74749235  1.0
  Ni  Ni898  1  0.77769413  0.49832823  0.74749235  1.0
  Ni  Ni899  1  0.77769413  0.83166157  0.74749235  1.0
  Ni  Ni900  1  0.10874860  0.27538780  0.75013745  1.0
  Ni  Ni901  1  0.10874860  0.60872113  0.75013745  1.0
  Ni  Ni902  1  0.10874860  0.94205447  0.75013745  1.0
  Ni  Ni903  1  0.44208193  0.27538780  0.75013745  1.0
  Ni  Ni904  1  0.44208193  0.60872113  0.75013745  1.0
  Ni  Ni905  1  0.44208193  0.94205447  0.75013745  1.0
  Ni  Ni906  1  0.77541527  0.27538780  0.75013745  1.0
  Ni  Ni907  1  0.77541527  0.60872113  0.75013745  1.0
  Ni  Ni908  1  0.77541527  0.94205447  0.75013745  1.0
  Ni  Ni909  1  0.30874860  0.04205447  0.65013745  1.0
  Ni  Ni910  1  0.30874860  0.37538780  0.65013745  1.0
  Ni  Ni911  1  0.30874860  0.70872113  0.65013745  1.0
  Ni  Ni912  1  0.64208193  0.04205447  0.65013745  1.0
  Ni  Ni913  1  0.64208193  0.37538780  0.65013745  1.0
  Ni  Ni914  1  0.64208193  0.70872113  0.65013745  1.0
  Ni  Ni915  1  0.97541527  0.04205447  0.65013745  1.0
  Ni  Ni916  1  0.97541527  0.37538780  0.65013745  1.0
  Ni  Ni917  1  0.97541527  0.70872113  0.65013745  1.0
  Ni  Ni918  1  0.24143127  0.12004913  0.68216945  1.0
  Ni  Ni919  1  0.24143127  0.45338247  0.68216945  1.0
  Ni  Ni920  1  0.24143127  0.78671580  0.68216945  1.0
  Ni  Ni921  1  0.57476460  0.12004913  0.68216945  1.0
  Ni  Ni922  1  0.57476460  0.45338247  0.68216945  1.0
  Ni  Ni923  1  0.57476460  0.78671580  0.68216945  1.0
  Ni  Ni924  1  0.90809793  0.12004913  0.68216945  1.0
  Ni  Ni925  1  0.90809793  0.45338247  0.68216945  1.0
  Ni  Ni926  1  0.90809793  0.78671580  0.68216945  1.0
  Ni  Ni927  1  0.04143127  0.02004913  0.78216945  1.0
  Ni  Ni928  1  0.04143127  0.35338247  0.78216945  1.0
  Ni  Ni929  1  0.04143127  0.68671580  0.78216945  1.0
  Ni  Ni930  1  0.37476460  0.02004913  0.78216945  1.0
  Ni  Ni931  1  0.37476460  0.35338247  0.78216945  1.0
  Ni  Ni932  1  0.37476460  0.68671580  0.78216945  1.0
  Ni  Ni933  1  0.70809793  0.02004913  0.78216945  1.0
  Ni  Ni934  1  0.70809793  0.35338247  0.78216945  1.0
  Ni  Ni935  1  0.70809793  0.68671580  0.78216945  1.0
