# generated using pymatgen
data_Ga21Ni5
_symmetry_space_group_name_H-M   'P 1'
_cell_length_a   48.72544514
_cell_length_b   48.55107748
_cell_length_c   81.81271750
_cell_angle_alpha   150.74962407
_cell_angle_beta   120.24619399
_cell_angle_gamma   35.51494849
_symmetry_Int_Tables_number   1
_chemical_formula_structural   Ga21Ni5
_chemical_formula_sum   'Ga756 Ni180'
_cell_volume   37701.06101164
_cell_formula_units_Z   36
loop_
 _symmetry_equiv_pos_site_id
 _symmetry_equiv_pos_as_xyz
  1  'x, y, z'
loop_
 _atom_site_type_symbol
 _atom_site_label
 _atom_site_symmetry_multiplicity
 _atom_site_fract_x
 _atom_site_fract_y
 _atom_site_fract_z
 _atom_site_occupancy
  Ga  Ga0  1  0.00219233  0.10233867  0.09452705  1.0
  Ga  Ga1  1  0.00219233  0.43567200  0.09452705  1.0
  Ga  Ga2  1  0.00219233  0.76900533  0.09452705  1.0
  Ga  Ga3  1  0.33552567  0.10233867  0.09452705  1.0
  Ga  Ga4  1  0.33552567  0.43567200  0.09452705  1.0
  Ga  Ga5  1  0.33552567  0.76900533  0.09452705  1.0
  Ga  Ga6  1  0.66885900  0.10233867  0.09452705  1.0
  Ga  Ga7  1  0.66885900  0.43567200  0.09452705  1.0
  Ga  Ga8  1  0.66885900  0.76900533  0.09452705  1.0
  Ga  Ga9  1  0.10197933  0.12937467  0.07015195  1.0
  Ga  Ga10  1  0.10197933  0.46270800  0.07015195  1.0
  Ga  Ga11  1  0.10197933  0.79604133  0.07015195  1.0
  Ga  Ga12  1  0.43531267  0.12937467  0.07015195  1.0
  Ga  Ga13  1  0.43531267  0.46270800  0.07015195  1.0
  Ga  Ga14  1  0.43531267  0.79604133  0.07015195  1.0
  Ga  Ga15  1  0.76864600  0.12937467  0.07015195  1.0
  Ga  Ga16  1  0.76864600  0.46270800  0.07015195  1.0
  Ga  Ga17  1  0.76864600  0.79604133  0.07015195  1.0
  Ga  Ga18  1  0.22880233  0.10233867  0.06251005  1.0
  Ga  Ga19  1  0.22880233  0.43567200  0.06251005  1.0
  Ga  Ga20  1  0.22880233  0.76900533  0.06251005  1.0
  Ga  Ga21  1  0.56213567  0.10233867  0.06251005  1.0
  Ga  Ga22  1  0.56213567  0.43567200  0.06251005  1.0
  Ga  Ga23  1  0.56213567  0.76900533  0.06251005  1.0
  Ga  Ga24  1  0.89546900  0.10233867  0.06251005  1.0
  Ga  Ga25  1  0.89546900  0.43567200  0.06251005  1.0
  Ga  Ga26  1  0.89546900  0.76900533  0.06251005  1.0
  Ga  Ga27  1  0.33260800  0.21350733  0.09170465  1.0
  Ga  Ga28  1  0.33260800  0.54684067  0.09170465  1.0
  Ga  Ga29  1  0.33260800  0.88017400  0.09170465  1.0
  Ga  Ga30  1  0.66594133  0.21350733  0.09170465  1.0
  Ga  Ga31  1  0.66594133  0.54684067  0.09170465  1.0
  Ga  Ga32  1  0.66594133  0.88017400  0.09170465  1.0
  Ga  Ga33  1  0.99927467  0.21350733  0.09170465  1.0
  Ga  Ga34  1  0.99927467  0.54684067  0.09170465  1.0
  Ga  Ga35  1  0.99927467  0.88017400  0.09170465  1.0
  Ga  Ga36  1  0.23547500  0.31777333  0.05706075  1.0
  Ga  Ga37  1  0.23547500  0.65110667  0.05706075  1.0
  Ga  Ga38  1  0.23547500  0.98444000  0.05706075  1.0
  Ga  Ga39  1  0.56880833  0.31777333  0.05706075  1.0
  Ga  Ga40  1  0.56880833  0.65110667  0.05706075  1.0
  Ga  Ga41  1  0.56880833  0.98444000  0.05706075  1.0
  Ga  Ga42  1  0.90214167  0.31777333  0.05706075  1.0
  Ga  Ga43  1  0.90214167  0.65110667  0.05706075  1.0
  Ga  Ga44  1  0.90214167  0.98444000  0.05706075  1.0
  Ga  Ga45  1  0.10572933  0.00059800  0.05976825  1.0
  Ga  Ga46  1  0.10572933  0.33393133  0.05976825  1.0
  Ga  Ga47  1  0.10572933  0.66726467  0.05976825  1.0
  Ga  Ga48  1  0.43906267  0.00059800  0.05976825  1.0
  Ga  Ga49  1  0.43906267  0.33393133  0.05976825  1.0
  Ga  Ga50  1  0.43906267  0.66726467  0.05976825  1.0
  Ga  Ga51  1  0.77239600  0.00059800  0.05976825  1.0
  Ga  Ga52  1  0.77239600  0.33393133  0.05976825  1.0
  Ga  Ga53  1  0.77239600  0.66726467  0.05976825  1.0
  Ga  Ga54  1  0.22700600  0.00059800  0.09615125  1.0
  Ga  Ga55  1  0.22700600  0.33393133  0.09615125  1.0
  Ga  Ga56  1  0.22700600  0.66726467  0.09615125  1.0
  Ga  Ga57  1  0.56033933  0.00059800  0.09615125  1.0
  Ga  Ga58  1  0.56033933  0.33393133  0.09615125  1.0
  Ga  Ga59  1  0.56033933  0.66726467  0.09615125  1.0
  Ga  Ga60  1  0.89367267  0.00059800  0.09615125  1.0
  Ga  Ga61  1  0.89367267  0.33393133  0.09615125  1.0
  Ga  Ga62  1  0.89367267  0.66726467  0.09615125  1.0
  Ga  Ga63  1  0.11341833  0.31777333  0.02044375  1.0
  Ga  Ga64  1  0.11341833  0.65110667  0.02044375  1.0
  Ga  Ga65  1  0.11341833  0.98444000  0.02044375  1.0
  Ga  Ga66  1  0.44675167  0.31777333  0.02044375  1.0
  Ga  Ga67  1  0.44675167  0.65110667  0.02044375  1.0
  Ga  Ga68  1  0.44675167  0.98444000  0.02044375  1.0
  Ga  Ga69  1  0.78008500  0.31777333  0.02044375  1.0
  Ga  Ga70  1  0.78008500  0.65110667  0.02044375  1.0
  Ga  Ga71  1  0.78008500  0.98444000  0.02044375  1.0
  Ga  Ga72  1  0.12055133  0.21350733  0.02808765  1.0
  Ga  Ga73  1  0.12055133  0.54684067  0.02808765  1.0
  Ga  Ga74  1  0.12055133  0.88017400  0.02808765  1.0
  Ga  Ga75  1  0.45388467  0.21350733  0.02808765  1.0
  Ga  Ga76  1  0.45388467  0.54684067  0.02808765  1.0
  Ga  Ga77  1  0.45388467  0.88017400  0.02808765  1.0
  Ga  Ga78  1  0.78721800  0.21350733  0.02808765  1.0
  Ga  Ga79  1  0.78721800  0.54684067  0.02808765  1.0
  Ga  Ga80  1  0.78721800  0.88017400  0.02808765  1.0
  Ga  Ga81  1  0.10642933  0.01375133  0.09922195  1.0
  Ga  Ga82  1  0.10642933  0.34708467  0.09922195  1.0
  Ga  Ga83  1  0.10642933  0.68041800  0.09922195  1.0
  Ga  Ga84  1  0.43976267  0.01375133  0.09922195  1.0
  Ga  Ga85  1  0.43976267  0.34708467  0.09922195  1.0
  Ga  Ga86  1  0.43976267  0.68041800  0.09922195  1.0
  Ga  Ga87  1  0.77309600  0.01375133  0.09922195  1.0
  Ga  Ga88  1  0.77309600  0.34708467  0.09922195  1.0
  Ga  Ga89  1  0.77309600  0.68041800  0.09922195  1.0
  Ga  Ga90  1  0.21471567  0.23723533  0.03633105  1.0
  Ga  Ga91  1  0.21471567  0.57056867  0.03633105  1.0
  Ga  Ga92  1  0.21471567  0.90390200  0.03633105  1.0
  Ga  Ga93  1  0.54804900  0.23723533  0.03633105  1.0
  Ga  Ga94  1  0.54804900  0.57056867  0.03633105  1.0
  Ga  Ga95  1  0.54804900  0.90390200  0.03633105  1.0
  Ga  Ga96  1  0.88138233  0.23723533  0.03633105  1.0
  Ga  Ga97  1  0.88138233  0.57056867  0.03633105  1.0
  Ga  Ga98  1  0.88138233  0.90390200  0.03633105  1.0
  Ga  Ga99  1  0.21315267  0.01375133  0.03123895  1.0
  Ga  Ga100  1  0.21315267  0.34708467  0.03123895  1.0
  Ga  Ga101  1  0.21315267  0.68041800  0.03123895  1.0
  Ga  Ga102  1  0.54648600  0.01375133  0.03123895  1.0
  Ga  Ga103  1  0.54648600  0.34708467  0.03123895  1.0
  Ga  Ga104  1  0.54648600  0.68041800  0.03123895  1.0
  Ga  Ga105  1  0.87981933  0.01375133  0.03123895  1.0
  Ga  Ga106  1  0.87981933  0.34708467  0.03123895  1.0
  Ga  Ga107  1  0.87981933  0.68041800  0.03123895  1.0
  Ga  Ga108  1  0.33099600  0.00467467  0.02565485  1.0
  Ga  Ga109  1  0.33099600  0.33800800  0.02565485  1.0
  Ga  Ga110  1  0.33099600  0.67134133  0.02565485  1.0
  Ga  Ga111  1  0.66432933  0.00467467  0.02565485  1.0
  Ga  Ga112  1  0.66432933  0.33800800  0.02565485  1.0
  Ga  Ga113  1  0.66432933  0.67134133  0.02565485  1.0
  Ga  Ga114  1  0.99766267  0.00467467  0.02565485  1.0
  Ga  Ga115  1  0.99766267  0.33800800  0.02565485  1.0
  Ga  Ga116  1  0.99766267  0.67134133  0.02565485  1.0
  Ga  Ga117  1  0.00776367  0.23350367  0.03818555  1.0
  Ga  Ga118  1  0.00776367  0.56683700  0.03818555  1.0
  Ga  Ga119  1  0.00776367  0.90017033  0.03818555  1.0
  Ga  Ga120  1  0.34109700  0.23350367  0.03818555  1.0
  Ga  Ga121  1  0.34109700  0.56683700  0.03818555  1.0
  Ga  Ga122  1  0.34109700  0.90017033  0.03818555  1.0
  Ga  Ga123  1  0.67443033  0.23350367  0.03818555  1.0
  Ga  Ga124  1  0.67443033  0.56683700  0.03818555  1.0
  Ga  Ga125  1  0.67443033  0.90017033  0.03818555  1.0
  Ga  Ga126  1  0.09206600  0.23350367  0.06347625  1.0
  Ga  Ga127  1  0.09206600  0.56683700  0.06347625  1.0
  Ga  Ga128  1  0.09206600  0.90017033  0.06347625  1.0
  Ga  Ga129  1  0.42539933  0.23350367  0.06347625  1.0
  Ga  Ga130  1  0.42539933  0.56683700  0.06347625  1.0
  Ga  Ga131  1  0.42539933  0.90017033  0.06347625  1.0
  Ga  Ga132  1  0.75873267  0.23350367  0.06347625  1.0
  Ga  Ga133  1  0.75873267  0.56683700  0.06347625  1.0
  Ga  Ga134  1  0.75873267  0.90017033  0.06347625  1.0
  Ga  Ga135  1  0.23833933  0.18998800  0.05345185  1.0
  Ga  Ga136  1  0.23833933  0.52332133  0.05345185  1.0
  Ga  Ga137  1  0.23833933  0.85665467  0.05345185  1.0
  Ga  Ga138  1  0.57167267  0.18998800  0.05345185  1.0
  Ga  Ga139  1  0.57167267  0.52332133  0.05345185  1.0
  Ga  Ga140  1  0.57167267  0.85665467  0.05345185  1.0
  Ga  Ga141  1  0.90500600  0.18998800  0.05345185  1.0
  Ga  Ga142  1  0.90500600  0.52332133  0.05345185  1.0
  Ga  Ga143  1  0.90500600  0.85665467  0.05345185  1.0
  Ga  Ga144  1  0.00092700  0.33147933  0.06285745  1.0
  Ga  Ga145  1  0.00092700  0.66481267  0.06285745  1.0
  Ga  Ga146  1  0.00092700  0.99814600  0.06285745  1.0
  Ga  Ga147  1  0.33426033  0.33147933  0.06285745  1.0
  Ga  Ga148  1  0.33426033  0.66481267  0.06285745  1.0
  Ga  Ga149  1  0.33426033  0.99814600  0.06285745  1.0
  Ga  Ga150  1  0.66759367  0.33147933  0.06285745  1.0
  Ga  Ga151  1  0.66759367  0.66481267  0.06285745  1.0
  Ga  Ga152  1  0.66759367  0.99814600  0.06285745  1.0
  Ga  Ga153  1  0.33282767  0.10645367  0.05947475  1.0
  Ga  Ga154  1  0.33282767  0.43978700  0.05947475  1.0
  Ga  Ga155  1  0.33282767  0.77312033  0.05947475  1.0
  Ga  Ga156  1  0.66616100  0.10645367  0.05947475  1.0
  Ga  Ga157  1  0.66616100  0.43978700  0.05947475  1.0
  Ga  Ga158  1  0.66616100  0.77312033  0.05947475  1.0
  Ga  Ga159  1  0.99949433  0.10645367  0.05947475  1.0
  Ga  Ga160  1  0.99949433  0.43978700  0.05947475  1.0
  Ga  Ga161  1  0.99949433  0.77312033  0.05947475  1.0
  Ga  Ga162  1  0.22738533  0.10645367  0.02784205  1.0
  Ga  Ga163  1  0.22738533  0.43978700  0.02784205  1.0
  Ga  Ga164  1  0.22738533  0.77312033  0.02784205  1.0
  Ga  Ga165  1  0.56071867  0.10645367  0.02784205  1.0
  Ga  Ga166  1  0.56071867  0.43978700  0.02784205  1.0
  Ga  Ga167  1  0.56071867  0.77312033  0.02784205  1.0
  Ga  Ga168  1  0.89405200  0.10645367  0.02784205  1.0
  Ga  Ga169  1  0.89405200  0.43978700  0.02784205  1.0
  Ga  Ga170  1  0.89405200  0.77312033  0.02784205  1.0
  Ga  Ga171  1  0.10780200  0.11772933  0.03079495  1.0
  Ga  Ga172  1  0.10780200  0.45106267  0.03079495  1.0
  Ga  Ga173  1  0.10780200  0.78439600  0.03079495  1.0
  Ga  Ga174  1  0.44113533  0.11772933  0.03079495  1.0
  Ga  Ga175  1  0.44113533  0.45106267  0.03079495  1.0
  Ga  Ga176  1  0.44113533  0.78439600  0.03079495  1.0
  Ga  Ga177  1  0.77446867  0.11772933  0.03079495  1.0
  Ga  Ga178  1  0.77446867  0.45106267  0.03079495  1.0
  Ga  Ga179  1  0.77446867  0.78439600  0.03079495  1.0
  Ga  Ga180  1  0.21238567  0.24189533  0.00460715  1.0
  Ga  Ga181  1  0.21238567  0.57522867  0.00460715  1.0
  Ga  Ga182  1  0.21238567  0.90856200  0.00460715  1.0
  Ga  Ga183  1  0.54571900  0.24189533  0.00460715  1.0
  Ga  Ga184  1  0.54571900  0.57522867  0.00460715  1.0
  Ga  Ga185  1  0.54571900  0.90856200  0.00460715  1.0
  Ga  Ga186  1  0.87905233  0.24189533  0.00460715  1.0
  Ga  Ga187  1  0.87905233  0.57522867  0.00460715  1.0
  Ga  Ga188  1  0.87905233  0.90856200  0.00460715  1.0
  Ni  Ni189  1  0.10856533  0.22622933  0.09623115  1.0
  Ni  Ni190  1  0.10856533  0.55956267  0.09623115  1.0
  Ni  Ni191  1  0.10856533  0.89289600  0.09623115  1.0
  Ni  Ni192  1  0.44189867  0.22622933  0.09623115  1.0
  Ni  Ni193  1  0.44189867  0.55956267  0.09623115  1.0
  Ni  Ni194  1  0.44189867  0.89289600  0.09623115  1.0
  Ni  Ni195  1  0.77523200  0.22622933  0.09623115  1.0
  Ni  Ni196  1  0.77523200  0.55956267  0.09623115  1.0
  Ni  Ni197  1  0.77523200  0.89289600  0.09623115  1.0
  Ni  Ni198  1  0.33187200  0.22622933  0.06322315  1.0
  Ni  Ni199  1  0.33187200  0.55956267  0.06322315  1.0
  Ni  Ni200  1  0.33187200  0.89289600  0.06322315  1.0
  Ni  Ni201  1  0.66520533  0.22622933  0.06322315  1.0
  Ni  Ni202  1  0.66520533  0.55956267  0.06322315  1.0
  Ni  Ni203  1  0.66520533  0.89289600  0.06322315  1.0
  Ni  Ni204  1  0.99853867  0.22622933  0.06322315  1.0
  Ni  Ni205  1  0.99853867  0.55956267  0.06322315  1.0
  Ni  Ni206  1  0.99853867  0.89289600  0.06322315  1.0
  Ni  Ni207  1  0.11437100  0.10459133  0.09282035  1.0
  Ni  Ni208  1  0.11437100  0.43792467  0.09282035  1.0
  Ni  Ni209  1  0.11437100  0.77125800  0.09282035  1.0
  Ni  Ni210  1  0.44770433  0.10459133  0.09282035  1.0
  Ni  Ni211  1  0.44770433  0.43792467  0.09282035  1.0
  Ni  Ni212  1  0.44770433  0.77125800  0.09282035  1.0
  Ni  Ni213  1  0.78103767  0.10459133  0.09282035  1.0
  Ni  Ni214  1  0.78103767  0.43792467  0.09282035  1.0
  Ni  Ni215  1  0.78103767  0.77125800  0.09282035  1.0
  Ni  Ni216  1  0.22463967  0.10736067  0.09539285  1.0
  Ni  Ni217  1  0.22463967  0.44069400  0.09539285  1.0
  Ni  Ni218  1  0.22463967  0.77402733  0.09539285  1.0
  Ni  Ni219  1  0.55797300  0.10736067  0.09539285  1.0
  Ni  Ni220  1  0.55797300  0.44069400  0.09539285  1.0
  Ni  Ni221  1  0.55797300  0.77402733  0.09539285  1.0
  Ni  Ni222  1  0.89130633  0.10736067  0.09539285  1.0
  Ni  Ni223  1  0.89130633  0.44069400  0.09539285  1.0
  Ni  Ni224  1  0.89130633  0.77402733  0.09539285  1.0
  Ni  Ni225  1  0.00133300  0.10736067  0.02840085  1.0
  Ni  Ni226  1  0.00133300  0.44069400  0.02840085  1.0
  Ni  Ni227  1  0.00133300  0.77402733  0.02840085  1.0
  Ni  Ni228  1  0.33466633  0.10736067  0.02840085  1.0
  Ni  Ni229  1  0.33466633  0.44069400  0.02840085  1.0
  Ni  Ni230  1  0.33466633  0.77402733  0.02840085  1.0
  Ni  Ni231  1  0.66799967  0.10736067  0.02840085  1.0
  Ni  Ni232  1  0.66799967  0.44069400  0.02840085  1.0
  Ni  Ni233  1  0.66799967  0.77402733  0.02840085  1.0
  Ga  Ga234  1  0.00219233  0.10233867  0.19452705  1.0
  Ga  Ga235  1  0.00219233  0.43567200  0.19452705  1.0
  Ga  Ga236  1  0.00219233  0.76900533  0.19452705  1.0
  Ga  Ga237  1  0.33552567  0.10233867  0.19452705  1.0
  Ga  Ga238  1  0.33552567  0.43567200  0.19452705  1.0
  Ga  Ga239  1  0.33552567  0.76900533  0.19452705  1.0
  Ga  Ga240  1  0.66885900  0.10233867  0.19452705  1.0
  Ga  Ga241  1  0.66885900  0.43567200  0.19452705  1.0
  Ga  Ga242  1  0.66885900  0.76900533  0.19452705  1.0
  Ga  Ga243  1  0.10197933  0.12937467  0.17015195  1.0
  Ga  Ga244  1  0.10197933  0.46270800  0.17015195  1.0
  Ga  Ga245  1  0.10197933  0.79604133  0.17015195  1.0
  Ga  Ga246  1  0.43531267  0.12937467  0.17015195  1.0
  Ga  Ga247  1  0.43531267  0.46270800  0.17015195  1.0
  Ga  Ga248  1  0.43531267  0.79604133  0.17015195  1.0
  Ga  Ga249  1  0.76864600  0.12937467  0.17015195  1.0
  Ga  Ga250  1  0.76864600  0.46270800  0.17015195  1.0
  Ga  Ga251  1  0.76864600  0.79604133  0.17015195  1.0
  Ga  Ga252  1  0.22880233  0.10233867  0.16251005  1.0
  Ga  Ga253  1  0.22880233  0.43567200  0.16251005  1.0
  Ga  Ga254  1  0.22880233  0.76900533  0.16251005  1.0
  Ga  Ga255  1  0.56213567  0.10233867  0.16251005  1.0
  Ga  Ga256  1  0.56213567  0.43567200  0.16251005  1.0
  Ga  Ga257  1  0.56213567  0.76900533  0.16251005  1.0
  Ga  Ga258  1  0.89546900  0.10233867  0.16251005  1.0
  Ga  Ga259  1  0.89546900  0.43567200  0.16251005  1.0
  Ga  Ga260  1  0.89546900  0.76900533  0.16251005  1.0
  Ga  Ga261  1  0.33260800  0.21350733  0.19170465  1.0
  Ga  Ga262  1  0.33260800  0.54684067  0.19170465  1.0
  Ga  Ga263  1  0.33260800  0.88017400  0.19170465  1.0
  Ga  Ga264  1  0.66594133  0.21350733  0.19170465  1.0
  Ga  Ga265  1  0.66594133  0.54684067  0.19170465  1.0
  Ga  Ga266  1  0.66594133  0.88017400  0.19170465  1.0
  Ga  Ga267  1  0.99927467  0.21350733  0.19170465  1.0
  Ga  Ga268  1  0.99927467  0.54684067  0.19170465  1.0
  Ga  Ga269  1  0.99927467  0.88017400  0.19170465  1.0
  Ga  Ga270  1  0.23547500  0.31777333  0.15706075  1.0
  Ga  Ga271  1  0.23547500  0.65110667  0.15706075  1.0
  Ga  Ga272  1  0.23547500  0.98444000  0.15706075  1.0
  Ga  Ga273  1  0.56880833  0.31777333  0.15706075  1.0
  Ga  Ga274  1  0.56880833  0.65110667  0.15706075  1.0
  Ga  Ga275  1  0.56880833  0.98444000  0.15706075  1.0
  Ga  Ga276  1  0.90214167  0.31777333  0.15706075  1.0
  Ga  Ga277  1  0.90214167  0.65110667  0.15706075  1.0
  Ga  Ga278  1  0.90214167  0.98444000  0.15706075  1.0
  Ga  Ga279  1  0.10572933  0.00059800  0.15976825  1.0
  Ga  Ga280  1  0.10572933  0.33393133  0.15976825  1.0
  Ga  Ga281  1  0.10572933  0.66726467  0.15976825  1.0
  Ga  Ga282  1  0.43906267  0.00059800  0.15976825  1.0
  Ga  Ga283  1  0.43906267  0.33393133  0.15976825  1.0
  Ga  Ga284  1  0.43906267  0.66726467  0.15976825  1.0
  Ga  Ga285  1  0.77239600  0.00059800  0.15976825  1.0
  Ga  Ga286  1  0.77239600  0.33393133  0.15976825  1.0
  Ga  Ga287  1  0.77239600  0.66726467  0.15976825  1.0
  Ga  Ga288  1  0.22700600  0.00059800  0.19615125  1.0
  Ga  Ga289  1  0.22700600  0.33393133  0.19615125  1.0
  Ga  Ga290  1  0.22700600  0.66726467  0.19615125  1.0
  Ga  Ga291  1  0.56033933  0.00059800  0.19615125  1.0
  Ga  Ga292  1  0.56033933  0.33393133  0.19615125  1.0
  Ga  Ga293  1  0.56033933  0.66726467  0.19615125  1.0
  Ga  Ga294  1  0.89367267  0.00059800  0.19615125  1.0
  Ga  Ga295  1  0.89367267  0.33393133  0.19615125  1.0
  Ga  Ga296  1  0.89367267  0.66726467  0.19615125  1.0
  Ga  Ga297  1  0.11341833  0.31777333  0.12044375  1.0
  Ga  Ga298  1  0.11341833  0.65110667  0.12044375  1.0
  Ga  Ga299  1  0.11341833  0.98444000  0.12044375  1.0
  Ga  Ga300  1  0.44675167  0.31777333  0.12044375  1.0
  Ga  Ga301  1  0.44675167  0.65110667  0.12044375  1.0
  Ga  Ga302  1  0.44675167  0.98444000  0.12044375  1.0
  Ga  Ga303  1  0.78008500  0.31777333  0.12044375  1.0
  Ga  Ga304  1  0.78008500  0.65110667  0.12044375  1.0
  Ga  Ga305  1  0.78008500  0.98444000  0.12044375  1.0
  Ga  Ga306  1  0.12055133  0.21350733  0.12808765  1.0
  Ga  Ga307  1  0.12055133  0.54684067  0.12808765  1.0
  Ga  Ga308  1  0.12055133  0.88017400  0.12808765  1.0
  Ga  Ga309  1  0.45388467  0.21350733  0.12808765  1.0
  Ga  Ga310  1  0.45388467  0.54684067  0.12808765  1.0
  Ga  Ga311  1  0.45388467  0.88017400  0.12808765  1.0
  Ga  Ga312  1  0.78721800  0.21350733  0.12808765  1.0
  Ga  Ga313  1  0.78721800  0.54684067  0.12808765  1.0
  Ga  Ga314  1  0.78721800  0.88017400  0.12808765  1.0
  Ga  Ga315  1  0.10642933  0.01375133  0.19922195  1.0
  Ga  Ga316  1  0.10642933  0.34708467  0.19922195  1.0
  Ga  Ga317  1  0.10642933  0.68041800  0.19922195  1.0
  Ga  Ga318  1  0.43976267  0.01375133  0.19922195  1.0
  Ga  Ga319  1  0.43976267  0.34708467  0.19922195  1.0
  Ga  Ga320  1  0.43976267  0.68041800  0.19922195  1.0
  Ga  Ga321  1  0.77309600  0.01375133  0.19922195  1.0
  Ga  Ga322  1  0.77309600  0.34708467  0.19922195  1.0
  Ga  Ga323  1  0.77309600  0.68041800  0.19922195  1.0
  Ga  Ga324  1  0.21471567  0.23723533  0.13633105  1.0
  Ga  Ga325  1  0.21471567  0.57056867  0.13633105  1.0
  Ga  Ga326  1  0.21471567  0.90390200  0.13633105  1.0
  Ga  Ga327  1  0.54804900  0.23723533  0.13633105  1.0
  Ga  Ga328  1  0.54804900  0.57056867  0.13633105  1.0
  Ga  Ga329  1  0.54804900  0.90390200  0.13633105  1.0
  Ga  Ga330  1  0.88138233  0.23723533  0.13633105  1.0
  Ga  Ga331  1  0.88138233  0.57056867  0.13633105  1.0
  Ga  Ga332  1  0.88138233  0.90390200  0.13633105  1.0
  Ga  Ga333  1  0.21315267  0.01375133  0.13123895  1.0
  Ga  Ga334  1  0.21315267  0.34708467  0.13123895  1.0
  Ga  Ga335  1  0.21315267  0.68041800  0.13123895  1.0
  Ga  Ga336  1  0.54648600  0.01375133  0.13123895  1.0
  Ga  Ga337  1  0.54648600  0.34708467  0.13123895  1.0
  Ga  Ga338  1  0.54648600  0.68041800  0.13123895  1.0
  Ga  Ga339  1  0.87981933  0.01375133  0.13123895  1.0
  Ga  Ga340  1  0.87981933  0.34708467  0.13123895  1.0
  Ga  Ga341  1  0.87981933  0.68041800  0.13123895  1.0
  Ga  Ga342  1  0.33099600  0.00467467  0.12565485  1.0
  Ga  Ga343  1  0.33099600  0.33800800  0.12565485  1.0
  Ga  Ga344  1  0.33099600  0.67134133  0.12565485  1.0
  Ga  Ga345  1  0.66432933  0.00467467  0.12565485  1.0
  Ga  Ga346  1  0.66432933  0.33800800  0.12565485  1.0
  Ga  Ga347  1  0.66432933  0.67134133  0.12565485  1.0
  Ga  Ga348  1  0.99766267  0.00467467  0.12565485  1.0
  Ga  Ga349  1  0.99766267  0.33800800  0.12565485  1.0
  Ga  Ga350  1  0.99766267  0.67134133  0.12565485  1.0
  Ga  Ga351  1  0.00776367  0.23350367  0.13818555  1.0
  Ga  Ga352  1  0.00776367  0.56683700  0.13818555  1.0
  Ga  Ga353  1  0.00776367  0.90017033  0.13818555  1.0
  Ga  Ga354  1  0.34109700  0.23350367  0.13818555  1.0
  Ga  Ga355  1  0.34109700  0.56683700  0.13818555  1.0
  Ga  Ga356  1  0.34109700  0.90017033  0.13818555  1.0
  Ga  Ga357  1  0.67443033  0.23350367  0.13818555  1.0
  Ga  Ga358  1  0.67443033  0.56683700  0.13818555  1.0
  Ga  Ga359  1  0.67443033  0.90017033  0.13818555  1.0
  Ga  Ga360  1  0.09206600  0.23350367  0.16347625  1.0
  Ga  Ga361  1  0.09206600  0.56683700  0.16347625  1.0
  Ga  Ga362  1  0.09206600  0.90017033  0.16347625  1.0
  Ga  Ga363  1  0.42539933  0.23350367  0.16347625  1.0
  Ga  Ga364  1  0.42539933  0.56683700  0.16347625  1.0
  Ga  Ga365  1  0.42539933  0.90017033  0.16347625  1.0
  Ga  Ga366  1  0.75873267  0.23350367  0.16347625  1.0
  Ga  Ga367  1  0.75873267  0.56683700  0.16347625  1.0
  Ga  Ga368  1  0.75873267  0.90017033  0.16347625  1.0
  Ga  Ga369  1  0.23833933  0.18998800  0.15345185  1.0
  Ga  Ga370  1  0.23833933  0.52332133  0.15345185  1.0
  Ga  Ga371  1  0.23833933  0.85665467  0.15345185  1.0
  Ga  Ga372  1  0.57167267  0.18998800  0.15345185  1.0
  Ga  Ga373  1  0.57167267  0.52332133  0.15345185  1.0
  Ga  Ga374  1  0.57167267  0.85665467  0.15345185  1.0
  Ga  Ga375  1  0.90500600  0.18998800  0.15345185  1.0
  Ga  Ga376  1  0.90500600  0.52332133  0.15345185  1.0
  Ga  Ga377  1  0.90500600  0.85665467  0.15345185  1.0
  Ga  Ga378  1  0.00092700  0.33147933  0.16285745  1.0
  Ga  Ga379  1  0.00092700  0.66481267  0.16285745  1.0
  Ga  Ga380  1  0.00092700  0.99814600  0.16285745  1.0
  Ga  Ga381  1  0.33426033  0.33147933  0.16285745  1.0
  Ga  Ga382  1  0.33426033  0.66481267  0.16285745  1.0
  Ga  Ga383  1  0.33426033  0.99814600  0.16285745  1.0
  Ga  Ga384  1  0.66759367  0.33147933  0.16285745  1.0
  Ga  Ga385  1  0.66759367  0.66481267  0.16285745  1.0
  Ga  Ga386  1  0.66759367  0.99814600  0.16285745  1.0
  Ga  Ga387  1  0.33282767  0.10645367  0.15947475  1.0
  Ga  Ga388  1  0.33282767  0.43978700  0.15947475  1.0
  Ga  Ga389  1  0.33282767  0.77312033  0.15947475  1.0
  Ga  Ga390  1  0.66616100  0.10645367  0.15947475  1.0
  Ga  Ga391  1  0.66616100  0.43978700  0.15947475  1.0
  Ga  Ga392  1  0.66616100  0.77312033  0.15947475  1.0
  Ga  Ga393  1  0.99949433  0.10645367  0.15947475  1.0
  Ga  Ga394  1  0.99949433  0.43978700  0.15947475  1.0
  Ga  Ga395  1  0.99949433  0.77312033  0.15947475  1.0
  Ga  Ga396  1  0.22738533  0.10645367  0.12784205  1.0
  Ga  Ga397  1  0.22738533  0.43978700  0.12784205  1.0
  Ga  Ga398  1  0.22738533  0.77312033  0.12784205  1.0
  Ga  Ga399  1  0.56071867  0.10645367  0.12784205  1.0
  Ga  Ga400  1  0.56071867  0.43978700  0.12784205  1.0
  Ga  Ga401  1  0.56071867  0.77312033  0.12784205  1.0
  Ga  Ga402  1  0.89405200  0.10645367  0.12784205  1.0
  Ga  Ga403  1  0.89405200  0.43978700  0.12784205  1.0
  Ga  Ga404  1  0.89405200  0.77312033  0.12784205  1.0
  Ga  Ga405  1  0.10780200  0.11772933  0.13079495  1.0
  Ga  Ga406  1  0.10780200  0.45106267  0.13079495  1.0
  Ga  Ga407  1  0.10780200  0.78439600  0.13079495  1.0
  Ga  Ga408  1  0.44113533  0.11772933  0.13079495  1.0
  Ga  Ga409  1  0.44113533  0.45106267  0.13079495  1.0
  Ga  Ga410  1  0.44113533  0.78439600  0.13079495  1.0
  Ga  Ga411  1  0.77446867  0.11772933  0.13079495  1.0
  Ga  Ga412  1  0.77446867  0.45106267  0.13079495  1.0
  Ga  Ga413  1  0.77446867  0.78439600  0.13079495  1.0
  Ga  Ga414  1  0.21238567  0.24189533  0.10460715  1.0
  Ga  Ga415  1  0.21238567  0.57522867  0.10460715  1.0
  Ga  Ga416  1  0.21238567  0.90856200  0.10460715  1.0
  Ga  Ga417  1  0.54571900  0.24189533  0.10460715  1.0
  Ga  Ga418  1  0.54571900  0.57522867  0.10460715  1.0
  Ga  Ga419  1  0.54571900  0.90856200  0.10460715  1.0
  Ga  Ga420  1  0.87905233  0.24189533  0.10460715  1.0
  Ga  Ga421  1  0.87905233  0.57522867  0.10460715  1.0
  Ga  Ga422  1  0.87905233  0.90856200  0.10460715  1.0
  Ni  Ni423  1  0.10856533  0.22622933  0.19623115  1.0
  Ni  Ni424  1  0.10856533  0.55956267  0.19623115  1.0
  Ni  Ni425  1  0.10856533  0.89289600  0.19623115  1.0
  Ni  Ni426  1  0.44189867  0.22622933  0.19623115  1.0
  Ni  Ni427  1  0.44189867  0.55956267  0.19623115  1.0
  Ni  Ni428  1  0.44189867  0.89289600  0.19623115  1.0
  Ni  Ni429  1  0.77523200  0.22622933  0.19623115  1.0
  Ni  Ni430  1  0.77523200  0.55956267  0.19623115  1.0
  Ni  Ni431  1  0.77523200  0.89289600  0.19623115  1.0
  Ni  Ni432  1  0.33187200  0.22622933  0.16322315  1.0
  Ni  Ni433  1  0.33187200  0.55956267  0.16322315  1.0
  Ni  Ni434  1  0.33187200  0.89289600  0.16322315  1.0
  Ni  Ni435  1  0.66520533  0.22622933  0.16322315  1.0
  Ni  Ni436  1  0.66520533  0.55956267  0.16322315  1.0
  Ni  Ni437  1  0.66520533  0.89289600  0.16322315  1.0
  Ni  Ni438  1  0.99853867  0.22622933  0.16322315  1.0
  Ni  Ni439  1  0.99853867  0.55956267  0.16322315  1.0
  Ni  Ni440  1  0.99853867  0.89289600  0.16322315  1.0
  Ni  Ni441  1  0.11437100  0.10459133  0.19282035  1.0
  Ni  Ni442  1  0.11437100  0.43792467  0.19282035  1.0
  Ni  Ni443  1  0.11437100  0.77125800  0.19282035  1.0
  Ni  Ni444  1  0.44770433  0.10459133  0.19282035  1.0
  Ni  Ni445  1  0.44770433  0.43792467  0.19282035  1.0
  Ni  Ni446  1  0.44770433  0.77125800  0.19282035  1.0
  Ni  Ni447  1  0.78103767  0.10459133  0.19282035  1.0
  Ni  Ni448  1  0.78103767  0.43792467  0.19282035  1.0
  Ni  Ni449  1  0.78103767  0.77125800  0.19282035  1.0
  Ni  Ni450  1  0.22463967  0.10736067  0.19539285  1.0
  Ni  Ni451  1  0.22463967  0.44069400  0.19539285  1.0
  Ni  Ni452  1  0.22463967  0.77402733  0.19539285  1.0
  Ni  Ni453  1  0.55797300  0.10736067  0.19539285  1.0
  Ni  Ni454  1  0.55797300  0.44069400  0.19539285  1.0
  Ni  Ni455  1  0.55797300  0.77402733  0.19539285  1.0
  Ni  Ni456  1  0.89130633  0.10736067  0.19539285  1.0
  Ni  Ni457  1  0.89130633  0.44069400  0.19539285  1.0
  Ni  Ni458  1  0.89130633  0.77402733  0.19539285  1.0
  Ni  Ni459  1  0.00133300  0.10736067  0.12840085  1.0
  Ni  Ni460  1  0.00133300  0.44069400  0.12840085  1.0
  Ni  Ni461  1  0.00133300  0.77402733  0.12840085  1.0
  Ni  Ni462  1  0.33466633  0.10736067  0.12840085  1.0
  Ni  Ni463  1  0.33466633  0.44069400  0.12840085  1.0
  Ni  Ni464  1  0.33466633  0.77402733  0.12840085  1.0
  Ni  Ni465  1  0.66799967  0.10736067  0.12840085  1.0
  Ni  Ni466  1  0.66799967  0.44069400  0.12840085  1.0
  Ni  Ni467  1  0.66799967  0.77402733  0.12840085  1.0
  Ga  Ga468  1  0.00219233  0.10233867  0.29452705  1.0
  Ga  Ga469  1  0.00219233  0.43567200  0.29452705  1.0
  Ga  Ga470  1  0.00219233  0.76900533  0.29452705  1.0
  Ga  Ga471  1  0.33552567  0.10233867  0.29452705  1.0
  Ga  Ga472  1  0.33552567  0.43567200  0.29452705  1.0
  Ga  Ga473  1  0.33552567  0.76900533  0.29452705  1.0
  Ga  Ga474  1  0.66885900  0.10233867  0.29452705  1.0
  Ga  Ga475  1  0.66885900  0.43567200  0.29452705  1.0
  Ga  Ga476  1  0.66885900  0.76900533  0.29452705  1.0
  Ga  Ga477  1  0.10197933  0.12937467  0.27015195  1.0
  Ga  Ga478  1  0.10197933  0.46270800  0.27015195  1.0
  Ga  Ga479  1  0.10197933  0.79604133  0.27015195  1.0
  Ga  Ga480  1  0.43531267  0.12937467  0.27015195  1.0
  Ga  Ga481  1  0.43531267  0.46270800  0.27015195  1.0
  Ga  Ga482  1  0.43531267  0.79604133  0.27015195  1.0
  Ga  Ga483  1  0.76864600  0.12937467  0.27015195  1.0
  Ga  Ga484  1  0.76864600  0.46270800  0.27015195  1.0
  Ga  Ga485  1  0.76864600  0.79604133  0.27015195  1.0
  Ga  Ga486  1  0.22880233  0.10233867  0.26251005  1.0
  Ga  Ga487  1  0.22880233  0.43567200  0.26251005  1.0
  Ga  Ga488  1  0.22880233  0.76900533  0.26251005  1.0
  Ga  Ga489  1  0.56213567  0.10233867  0.26251005  1.0
  Ga  Ga490  1  0.56213567  0.43567200  0.26251005  1.0
  Ga  Ga491  1  0.56213567  0.76900533  0.26251005  1.0
  Ga  Ga492  1  0.89546900  0.10233867  0.26251005  1.0
  Ga  Ga493  1  0.89546900  0.43567200  0.26251005  1.0
  Ga  Ga494  1  0.89546900  0.76900533  0.26251005  1.0
  Ga  Ga495  1  0.33260800  0.21350733  0.29170465  1.0
  Ga  Ga496  1  0.33260800  0.54684067  0.29170465  1.0
  Ga  Ga497  1  0.33260800  0.88017400  0.29170465  1.0
  Ga  Ga498  1  0.66594133  0.21350733  0.29170465  1.0
  Ga  Ga499  1  0.66594133  0.54684067  0.29170465  1.0
  Ga  Ga500  1  0.66594133  0.88017400  0.29170465  1.0
  Ga  Ga501  1  0.99927467  0.21350733  0.29170465  1.0
  Ga  Ga502  1  0.99927467  0.54684067  0.29170465  1.0
  Ga  Ga503  1  0.99927467  0.88017400  0.29170465  1.0
  Ga  Ga504  1  0.23547500  0.31777333  0.25706075  1.0
  Ga  Ga505  1  0.23547500  0.65110667  0.25706075  1.0
  Ga  Ga506  1  0.23547500  0.98444000  0.25706075  1.0
  Ga  Ga507  1  0.56880833  0.31777333  0.25706075  1.0
  Ga  Ga508  1  0.56880833  0.65110667  0.25706075  1.0
  Ga  Ga509  1  0.56880833  0.98444000  0.25706075  1.0
  Ga  Ga510  1  0.90214167  0.31777333  0.25706075  1.0
  Ga  Ga511  1  0.90214167  0.65110667  0.25706075  1.0
  Ga  Ga512  1  0.90214167  0.98444000  0.25706075  1.0
  Ga  Ga513  1  0.10572933  0.00059800  0.25976825  1.0
  Ga  Ga514  1  0.10572933  0.33393133  0.25976825  1.0
  Ga  Ga515  1  0.10572933  0.66726467  0.25976825  1.0
  Ga  Ga516  1  0.43906267  0.00059800  0.25976825  1.0
  Ga  Ga517  1  0.43906267  0.33393133  0.25976825  1.0
  Ga  Ga518  1  0.43906267  0.66726467  0.25976825  1.0
  Ga  Ga519  1  0.77239600  0.00059800  0.25976825  1.0
  Ga  Ga520  1  0.77239600  0.33393133  0.25976825  1.0
  Ga  Ga521  1  0.77239600  0.66726467  0.25976825  1.0
  Ga  Ga522  1  0.22700600  0.00059800  0.29615125  1.0
  Ga  Ga523  1  0.22700600  0.33393133  0.29615125  1.0
  Ga  Ga524  1  0.22700600  0.66726467  0.29615125  1.0
  Ga  Ga525  1  0.56033933  0.00059800  0.29615125  1.0
  Ga  Ga526  1  0.56033933  0.33393133  0.29615125  1.0
  Ga  Ga527  1  0.56033933  0.66726467  0.29615125  1.0
  Ga  Ga528  1  0.89367267  0.00059800  0.29615125  1.0
  Ga  Ga529  1  0.89367267  0.33393133  0.29615125  1.0
  Ga  Ga530  1  0.89367267  0.66726467  0.29615125  1.0
  Ga  Ga531  1  0.11341833  0.31777333  0.22044375  1.0
  Ga  Ga532  1  0.11341833  0.65110667  0.22044375  1.0
  Ga  Ga533  1  0.11341833  0.98444000  0.22044375  1.0
  Ga  Ga534  1  0.44675167  0.31777333  0.22044375  1.0
  Ga  Ga535  1  0.44675167  0.65110667  0.22044375  1.0
  Ga  Ga536  1  0.44675167  0.98444000  0.22044375  1.0
  Ga  Ga537  1  0.78008500  0.31777333  0.22044375  1.0
  Ga  Ga538  1  0.78008500  0.65110667  0.22044375  1.0
  Ga  Ga539  1  0.78008500  0.98444000  0.22044375  1.0
  Ga  Ga540  1  0.12055133  0.21350733  0.22808765  1.0
  Ga  Ga541  1  0.12055133  0.54684067  0.22808765  1.0
  Ga  Ga542  1  0.12055133  0.88017400  0.22808765  1.0
  Ga  Ga543  1  0.45388467  0.21350733  0.22808765  1.0
  Ga  Ga544  1  0.45388467  0.54684067  0.22808765  1.0
  Ga  Ga545  1  0.45388467  0.88017400  0.22808765  1.0
  Ga  Ga546  1  0.78721800  0.21350733  0.22808765  1.0
  Ga  Ga547  1  0.78721800  0.54684067  0.22808765  1.0
  Ga  Ga548  1  0.78721800  0.88017400  0.22808765  1.0
  Ga  Ga549  1  0.10642933  0.01375133  0.29922195  1.0
  Ga  Ga550  1  0.10642933  0.34708467  0.29922195  1.0
  Ga  Ga551  1  0.10642933  0.68041800  0.29922195  1.0
  Ga  Ga552  1  0.43976267  0.01375133  0.29922195  1.0
  Ga  Ga553  1  0.43976267  0.34708467  0.29922195  1.0
  Ga  Ga554  1  0.43976267  0.68041800  0.29922195  1.0
  Ga  Ga555  1  0.77309600  0.01375133  0.29922195  1.0
  Ga  Ga556  1  0.77309600  0.34708467  0.29922195  1.0
  Ga  Ga557  1  0.77309600  0.68041800  0.29922195  1.0
  Ga  Ga558  1  0.21471567  0.23723533  0.23633105  1.0
  Ga  Ga559  1  0.21471567  0.57056867  0.23633105  1.0
  Ga  Ga560  1  0.21471567  0.90390200  0.23633105  1.0
  Ga  Ga561  1  0.54804900  0.23723533  0.23633105  1.0
  Ga  Ga562  1  0.54804900  0.57056867  0.23633105  1.0
  Ga  Ga563  1  0.54804900  0.90390200  0.23633105  1.0
  Ga  Ga564  1  0.88138233  0.23723533  0.23633105  1.0
  Ga  Ga565  1  0.88138233  0.57056867  0.23633105  1.0
  Ga  Ga566  1  0.88138233  0.90390200  0.23633105  1.0
  Ga  Ga567  1  0.21315267  0.01375133  0.23123895  1.0
  Ga  Ga568  1  0.21315267  0.34708467  0.23123895  1.0
  Ga  Ga569  1  0.21315267  0.68041800  0.23123895  1.0
  Ga  Ga570  1  0.54648600  0.01375133  0.23123895  1.0
  Ga  Ga571  1  0.54648600  0.34708467  0.23123895  1.0
  Ga  Ga572  1  0.54648600  0.68041800  0.23123895  1.0
  Ga  Ga573  1  0.87981933  0.01375133  0.23123895  1.0
  Ga  Ga574  1  0.87981933  0.34708467  0.23123895  1.0
  Ga  Ga575  1  0.87981933  0.68041800  0.23123895  1.0
  Ga  Ga576  1  0.33099600  0.00467467  0.22565485  1.0
  Ga  Ga577  1  0.33099600  0.33800800  0.22565485  1.0
  Ga  Ga578  1  0.33099600  0.67134133  0.22565485  1.0
  Ga  Ga579  1  0.66432933  0.00467467  0.22565485  1.0
  Ga  Ga580  1  0.66432933  0.33800800  0.22565485  1.0
  Ga  Ga581  1  0.66432933  0.67134133  0.22565485  1.0
  Ga  Ga582  1  0.99766267  0.00467467  0.22565485  1.0
  Ga  Ga583  1  0.99766267  0.33800800  0.22565485  1.0
  Ga  Ga584  1  0.99766267  0.67134133  0.22565485  1.0
  Ga  Ga585  1  0.00776367  0.23350367  0.23818555  1.0
  Ga  Ga586  1  0.00776367  0.56683700  0.23818555  1.0
  Ga  Ga587  1  0.00776367  0.90017033  0.23818555  1.0
  Ga  Ga588  1  0.34109700  0.23350367  0.23818555  1.0
  Ga  Ga589  1  0.34109700  0.56683700  0.23818555  1.0
  Ga  Ga590  1  0.34109700  0.90017033  0.23818555  1.0
  Ga  Ga591  1  0.67443033  0.23350367  0.23818555  1.0
  Ga  Ga592  1  0.67443033  0.56683700  0.23818555  1.0
  Ga  Ga593  1  0.67443033  0.90017033  0.23818555  1.0
  Ga  Ga594  1  0.09206600  0.23350367  0.26347625  1.0
  Ga  Ga595  1  0.09206600  0.56683700  0.26347625  1.0
  Ga  Ga596  1  0.09206600  0.90017033  0.26347625  1.0
  Ga  Ga597  1  0.42539933  0.23350367  0.26347625  1.0
  Ga  Ga598  1  0.42539933  0.56683700  0.26347625  1.0
  Ga  Ga599  1  0.42539933  0.90017033  0.26347625  1.0
  Ga  Ga600  1  0.75873267  0.23350367  0.26347625  1.0
  Ga  Ga601  1  0.75873267  0.56683700  0.26347625  1.0
  Ga  Ga602  1  0.75873267  0.90017033  0.26347625  1.0
  Ga  Ga603  1  0.23833933  0.18998800  0.25345185  1.0
  Ga  Ga604  1  0.23833933  0.52332133  0.25345185  1.0
  Ga  Ga605  1  0.23833933  0.85665467  0.25345185  1.0
  Ga  Ga606  1  0.57167267  0.18998800  0.25345185  1.0
  Ga  Ga607  1  0.57167267  0.52332133  0.25345185  1.0
  Ga  Ga608  1  0.57167267  0.85665467  0.25345185  1.0
  Ga  Ga609  1  0.90500600  0.18998800  0.25345185  1.0
  Ga  Ga610  1  0.90500600  0.52332133  0.25345185  1.0
  Ga  Ga611  1  0.90500600  0.85665467  0.25345185  1.0
  Ga  Ga612  1  0.00092700  0.33147933  0.26285745  1.0
  Ga  Ga613  1  0.00092700  0.66481267  0.26285745  1.0
  Ga  Ga614  1  0.00092700  0.99814600  0.26285745  1.0
  Ga  Ga615  1  0.33426033  0.33147933  0.26285745  1.0
  Ga  Ga616  1  0.33426033  0.66481267  0.26285745  1.0
  Ga  Ga617  1  0.33426033  0.99814600  0.26285745  1.0
  Ga  Ga618  1  0.66759367  0.33147933  0.26285745  1.0
  Ga  Ga619  1  0.66759367  0.66481267  0.26285745  1.0
  Ga  Ga620  1  0.66759367  0.99814600  0.26285745  1.0
  Ga  Ga621  1  0.33282767  0.10645367  0.25947475  1.0
  Ga  Ga622  1  0.33282767  0.43978700  0.25947475  1.0
  Ga  Ga623  1  0.33282767  0.77312033  0.25947475  1.0
  Ga  Ga624  1  0.66616100  0.10645367  0.25947475  1.0
  Ga  Ga625  1  0.66616100  0.43978700  0.25947475  1.0
  Ga  Ga626  1  0.66616100  0.77312033  0.25947475  1.0
  Ga  Ga627  1  0.99949433  0.10645367  0.25947475  1.0
  Ga  Ga628  1  0.99949433  0.43978700  0.25947475  1.0
  Ga  Ga629  1  0.99949433  0.77312033  0.25947475  1.0
  Ga  Ga630  1  0.22738533  0.10645367  0.22784205  1.0
  Ga  Ga631  1  0.22738533  0.43978700  0.22784205  1.0
  Ga  Ga632  1  0.22738533  0.77312033  0.22784205  1.0
  Ga  Ga633  1  0.56071867  0.10645367  0.22784205  1.0
  Ga  Ga634  1  0.56071867  0.43978700  0.22784205  1.0
  Ga  Ga635  1  0.56071867  0.77312033  0.22784205  1.0
  Ga  Ga636  1  0.89405200  0.10645367  0.22784205  1.0
  Ga  Ga637  1  0.89405200  0.43978700  0.22784205  1.0
  Ga  Ga638  1  0.89405200  0.77312033  0.22784205  1.0
  Ga  Ga639  1  0.10780200  0.11772933  0.23079495  1.0
  Ga  Ga640  1  0.10780200  0.45106267  0.23079495  1.0
  Ga  Ga641  1  0.10780200  0.78439600  0.23079495  1.0
  Ga  Ga642  1  0.44113533  0.11772933  0.23079495  1.0
  Ga  Ga643  1  0.44113533  0.45106267  0.23079495  1.0
  Ga  Ga644  1  0.44113533  0.78439600  0.23079495  1.0
  Ga  Ga645  1  0.77446867  0.11772933  0.23079495  1.0
  Ga  Ga646  1  0.77446867  0.45106267  0.23079495  1.0
  Ga  Ga647  1  0.77446867  0.78439600  0.23079495  1.0
  Ga  Ga648  1  0.21238567  0.24189533  0.20460715  1.0
  Ga  Ga649  1  0.21238567  0.57522867  0.20460715  1.0
  Ga  Ga650  1  0.21238567  0.90856200  0.20460715  1.0
  Ga  Ga651  1  0.54571900  0.24189533  0.20460715  1.0
  Ga  Ga652  1  0.54571900  0.57522867  0.20460715  1.0
  Ga  Ga653  1  0.54571900  0.90856200  0.20460715  1.0
  Ga  Ga654  1  0.87905233  0.24189533  0.20460715  1.0
  Ga  Ga655  1  0.87905233  0.57522867  0.20460715  1.0
  Ga  Ga656  1  0.87905233  0.90856200  0.20460715  1.0
  Ni  Ni657  1  0.10856533  0.22622933  0.29623115  1.0
  Ni  Ni658  1  0.10856533  0.55956267  0.29623115  1.0
  Ni  Ni659  1  0.10856533  0.89289600  0.29623115  1.0
  Ni  Ni660  1  0.44189867  0.22622933  0.29623115  1.0
  Ni  Ni661  1  0.44189867  0.55956267  0.29623115  1.0
  Ni  Ni662  1  0.44189867  0.89289600  0.29623115  1.0
  Ni  Ni663  1  0.77523200  0.22622933  0.29623115  1.0
  Ni  Ni664  1  0.77523200  0.55956267  0.29623115  1.0
  Ni  Ni665  1  0.77523200  0.89289600  0.29623115  1.0
  Ni  Ni666  1  0.33187200  0.22622933  0.26322315  1.0
  Ni  Ni667  1  0.33187200  0.55956267  0.26322315  1.0
  Ni  Ni668  1  0.33187200  0.89289600  0.26322315  1.0
  Ni  Ni669  1  0.66520533  0.22622933  0.26322315  1.0
  Ni  Ni670  1  0.66520533  0.55956267  0.26322315  1.0
  Ni  Ni671  1  0.66520533  0.89289600  0.26322315  1.0
  Ni  Ni672  1  0.99853867  0.22622933  0.26322315  1.0
  Ni  Ni673  1  0.99853867  0.55956267  0.26322315  1.0
  Ni  Ni674  1  0.99853867  0.89289600  0.26322315  1.0
  Ni  Ni675  1  0.11437100  0.10459133  0.29282035  1.0
  Ni  Ni676  1  0.11437100  0.43792467  0.29282035  1.0
  Ni  Ni677  1  0.11437100  0.77125800  0.29282035  1.0
  Ni  Ni678  1  0.44770433  0.10459133  0.29282035  1.0
  Ni  Ni679  1  0.44770433  0.43792467  0.29282035  1.0
  Ni  Ni680  1  0.44770433  0.77125800  0.29282035  1.0
  Ni  Ni681  1  0.78103767  0.10459133  0.29282035  1.0
  Ni  Ni682  1  0.78103767  0.43792467  0.29282035  1.0
  Ni  Ni683  1  0.78103767  0.77125800  0.29282035  1.0
  Ni  Ni684  1  0.22463967  0.10736067  0.29539285  1.0
  Ni  Ni685  1  0.22463967  0.44069400  0.29539285  1.0
  Ni  Ni686  1  0.22463967  0.77402733  0.29539285  1.0
  Ni  Ni687  1  0.55797300  0.10736067  0.29539285  1.0
  Ni  Ni688  1  0.55797300  0.44069400  0.29539285  1.0
  Ni  Ni689  1  0.55797300  0.77402733  0.29539285  1.0
  Ni  Ni690  1  0.89130633  0.10736067  0.29539285  1.0
  Ni  Ni691  1  0.89130633  0.44069400  0.29539285  1.0
  Ni  Ni692  1  0.89130633  0.77402733  0.29539285  1.0
  Ni  Ni693  1  0.00133300  0.10736067  0.22840085  1.0
  Ni  Ni694  1  0.00133300  0.44069400  0.22840085  1.0
  Ni  Ni695  1  0.00133300  0.77402733  0.22840085  1.0
  Ni  Ni696  1  0.33466633  0.10736067  0.22840085  1.0
  Ni  Ni697  1  0.33466633  0.44069400  0.22840085  1.0
  Ni  Ni698  1  0.33466633  0.77402733  0.22840085  1.0
  Ni  Ni699  1  0.66799967  0.10736067  0.22840085  1.0
  Ni  Ni700  1  0.66799967  0.44069400  0.22840085  1.0
  Ni  Ni701  1  0.66799967  0.77402733  0.22840085  1.0
  Ga  Ga702  1  0.00219233  0.10233867  0.39452705  1.0
  Ga  Ga703  1  0.00219233  0.43567200  0.39452705  1.0
  Ga  Ga704  1  0.00219233  0.76900533  0.39452705  1.0
  Ga  Ga705  1  0.33552567  0.10233867  0.39452705  1.0
  Ga  Ga706  1  0.33552567  0.43567200  0.39452705  1.0
  Ga  Ga707  1  0.33552567  0.76900533  0.39452705  1.0
  Ga  Ga708  1  0.66885900  0.10233867  0.39452705  1.0
  Ga  Ga709  1  0.66885900  0.43567200  0.39452705  1.0
  Ga  Ga710  1  0.66885900  0.76900533  0.39452705  1.0
  Ga  Ga711  1  0.10197933  0.12937467  0.37015195  1.0
  Ga  Ga712  1  0.10197933  0.46270800  0.37015195  1.0
  Ga  Ga713  1  0.10197933  0.79604133  0.37015195  1.0
  Ga  Ga714  1  0.43531267  0.12937467  0.37015195  1.0
  Ga  Ga715  1  0.43531267  0.46270800  0.37015195  1.0
  Ga  Ga716  1  0.43531267  0.79604133  0.37015195  1.0
  Ga  Ga717  1  0.76864600  0.12937467  0.37015195  1.0
  Ga  Ga718  1  0.76864600  0.46270800  0.37015195  1.0
  Ga  Ga719  1  0.76864600  0.79604133  0.37015195  1.0
  Ga  Ga720  1  0.22880233  0.10233867  0.36251005  1.0
  Ga  Ga721  1  0.22880233  0.43567200  0.36251005  1.0
  Ga  Ga722  1  0.22880233  0.76900533  0.36251005  1.0
  Ga  Ga723  1  0.56213567  0.10233867  0.36251005  1.0
  Ga  Ga724  1  0.56213567  0.43567200  0.36251005  1.0
  Ga  Ga725  1  0.56213567  0.76900533  0.36251005  1.0
  Ga  Ga726  1  0.89546900  0.10233867  0.36251005  1.0
  Ga  Ga727  1  0.89546900  0.43567200  0.36251005  1.0
  Ga  Ga728  1  0.89546900  0.76900533  0.36251005  1.0
  Ga  Ga729  1  0.33260800  0.21350733  0.39170465  1.0
  Ga  Ga730  1  0.33260800  0.54684067  0.39170465  1.0
  Ga  Ga731  1  0.33260800  0.88017400  0.39170465  1.0
  Ga  Ga732  1  0.66594133  0.21350733  0.39170465  1.0
  Ga  Ga733  1  0.66594133  0.54684067  0.39170465  1.0
  Ga  Ga734  1  0.66594133  0.88017400  0.39170465  1.0
  Ga  Ga735  1  0.99927467  0.21350733  0.39170465  1.0
  Ga  Ga736  1  0.99927467  0.54684067  0.39170465  1.0
  Ga  Ga737  1  0.99927467  0.88017400  0.39170465  1.0
  Ga  Ga738  1  0.23547500  0.31777333  0.35706075  1.0
  Ga  Ga739  1  0.23547500  0.65110667  0.35706075  1.0
  Ga  Ga740  1  0.23547500  0.98444000  0.35706075  1.0
  Ga  Ga741  1  0.56880833  0.31777333  0.35706075  1.0
  Ga  Ga742  1  0.56880833  0.65110667  0.35706075  1.0
  Ga  Ga743  1  0.56880833  0.98444000  0.35706075  1.0
  Ga  Ga744  1  0.90214167  0.31777333  0.35706075  1.0
  Ga  Ga745  1  0.90214167  0.65110667  0.35706075  1.0
  Ga  Ga746  1  0.90214167  0.98444000  0.35706075  1.0
  Ga  Ga747  1  0.10572933  0.00059800  0.35976825  1.0
  Ga  Ga748  1  0.10572933  0.33393133  0.35976825  1.0
  Ga  Ga749  1  0.10572933  0.66726467  0.35976825  1.0
  Ga  Ga750  1  0.43906267  0.00059800  0.35976825  1.0
  Ga  Ga751  1  0.43906267  0.33393133  0.35976825  1.0
  Ga  Ga752  1  0.43906267  0.66726467  0.35976825  1.0
  Ga  Ga753  1  0.77239600  0.00059800  0.35976825  1.0
  Ga  Ga754  1  0.77239600  0.33393133  0.35976825  1.0
  Ga  Ga755  1  0.77239600  0.66726467  0.35976825  1.0
  Ga  Ga756  1  0.22700600  0.00059800  0.39615125  1.0
  Ga  Ga757  1  0.22700600  0.33393133  0.39615125  1.0
  Ga  Ga758  1  0.22700600  0.66726467  0.39615125  1.0
  Ga  Ga759  1  0.56033933  0.00059800  0.39615125  1.0
  Ga  Ga760  1  0.56033933  0.33393133  0.39615125  1.0
  Ga  Ga761  1  0.56033933  0.66726467  0.39615125  1.0
  Ga  Ga762  1  0.89367267  0.00059800  0.39615125  1.0
  Ga  Ga763  1  0.89367267  0.33393133  0.39615125  1.0
  Ga  Ga764  1  0.89367267  0.66726467  0.39615125  1.0
  Ga  Ga765  1  0.11341833  0.31777333  0.32044375  1.0
  Ga  Ga766  1  0.11341833  0.65110667  0.32044375  1.0
  Ga  Ga767  1  0.11341833  0.98444000  0.32044375  1.0
  Ga  Ga768  1  0.44675167  0.31777333  0.32044375  1.0
  Ga  Ga769  1  0.44675167  0.65110667  0.32044375  1.0
  Ga  Ga770  1  0.44675167  0.98444000  0.32044375  1.0
  Ga  Ga771  1  0.78008500  0.31777333  0.32044375  1.0
  Ga  Ga772  1  0.78008500  0.65110667  0.32044375  1.0
  Ga  Ga773  1  0.78008500  0.98444000  0.32044375  1.0
  Ga  Ga774  1  0.12055133  0.21350733  0.32808765  1.0
  Ga  Ga775  1  0.12055133  0.54684067  0.32808765  1.0
  Ga  Ga776  1  0.12055133  0.88017400  0.32808765  1.0
  Ga  Ga777  1  0.45388467  0.21350733  0.32808765  1.0
  Ga  Ga778  1  0.45388467  0.54684067  0.32808765  1.0
  Ga  Ga779  1  0.45388467  0.88017400  0.32808765  1.0
  Ga  Ga780  1  0.78721800  0.21350733  0.32808765  1.0
  Ga  Ga781  1  0.78721800  0.54684067  0.32808765  1.0
  Ga  Ga782  1  0.78721800  0.88017400  0.32808765  1.0
  Ga  Ga783  1  0.10642933  0.01375133  0.39922195  1.0
  Ga  Ga784  1  0.10642933  0.34708467  0.39922195  1.0
  Ga  Ga785  1  0.10642933  0.68041800  0.39922195  1.0
  Ga  Ga786  1  0.43976267  0.01375133  0.39922195  1.0
  Ga  Ga787  1  0.43976267  0.34708467  0.39922195  1.0
  Ga  Ga788  1  0.43976267  0.68041800  0.39922195  1.0
  Ga  Ga789  1  0.77309600  0.01375133  0.39922195  1.0
  Ga  Ga790  1  0.77309600  0.34708467  0.39922195  1.0
  Ga  Ga791  1  0.77309600  0.68041800  0.39922195  1.0
  Ga  Ga792  1  0.21471567  0.23723533  0.33633105  1.0
  Ga  Ga793  1  0.21471567  0.57056867  0.33633105  1.0
  Ga  Ga794  1  0.21471567  0.90390200  0.33633105  1.0
  Ga  Ga795  1  0.54804900  0.23723533  0.33633105  1.0
  Ga  Ga796  1  0.54804900  0.57056867  0.33633105  1.0
  Ga  Ga797  1  0.54804900  0.90390200  0.33633105  1.0
  Ga  Ga798  1  0.88138233  0.23723533  0.33633105  1.0
  Ga  Ga799  1  0.88138233  0.57056867  0.33633105  1.0
  Ga  Ga800  1  0.88138233  0.90390200  0.33633105  1.0
  Ga  Ga801  1  0.21315267  0.01375133  0.33123895  1.0
  Ga  Ga802  1  0.21315267  0.34708467  0.33123895  1.0
  Ga  Ga803  1  0.21315267  0.68041800  0.33123895  1.0
  Ga  Ga804  1  0.54648600  0.01375133  0.33123895  1.0
  Ga  Ga805  1  0.54648600  0.34708467  0.33123895  1.0
  Ga  Ga806  1  0.54648600  0.68041800  0.33123895  1.0
  Ga  Ga807  1  0.87981933  0.01375133  0.33123895  1.0
  Ga  Ga808  1  0.87981933  0.34708467  0.33123895  1.0
  Ga  Ga809  1  0.87981933  0.68041800  0.33123895  1.0
  Ga  Ga810  1  0.33099600  0.00467467  0.32565485  1.0
  Ga  Ga811  1  0.33099600  0.33800800  0.32565485  1.0
  Ga  Ga812  1  0.33099600  0.67134133  0.32565485  1.0
  Ga  Ga813  1  0.66432933  0.00467467  0.32565485  1.0
  Ga  Ga814  1  0.66432933  0.33800800  0.32565485  1.0
  Ga  Ga815  1  0.66432933  0.67134133  0.32565485  1.0
  Ga  Ga816  1  0.99766267  0.00467467  0.32565485  1.0
  Ga  Ga817  1  0.99766267  0.33800800  0.32565485  1.0
  Ga  Ga818  1  0.99766267  0.67134133  0.32565485  1.0
  Ga  Ga819  1  0.00776367  0.23350367  0.33818555  1.0
  Ga  Ga820  1  0.00776367  0.56683700  0.33818555  1.0
  Ga  Ga821  1  0.00776367  0.90017033  0.33818555  1.0
  Ga  Ga822  1  0.34109700  0.23350367  0.33818555  1.0
  Ga  Ga823  1  0.34109700  0.56683700  0.33818555  1.0
  Ga  Ga824  1  0.34109700  0.90017033  0.33818555  1.0
  Ga  Ga825  1  0.67443033  0.23350367  0.33818555  1.0
  Ga  Ga826  1  0.67443033  0.56683700  0.33818555  1.0
  Ga  Ga827  1  0.67443033  0.90017033  0.33818555  1.0
  Ga  Ga828  1  0.09206600  0.23350367  0.36347625  1.0
  Ga  Ga829  1  0.09206600  0.56683700  0.36347625  1.0
  Ga  Ga830  1  0.09206600  0.90017033  0.36347625  1.0
  Ga  Ga831  1  0.42539933  0.23350367  0.36347625  1.0
  Ga  Ga832  1  0.42539933  0.56683700  0.36347625  1.0
  Ga  Ga833  1  0.42539933  0.90017033  0.36347625  1.0
  Ga  Ga834  1  0.75873267  0.23350367  0.36347625  1.0
  Ga  Ga835  1  0.75873267  0.56683700  0.36347625  1.0
  Ga  Ga836  1  0.75873267  0.90017033  0.36347625  1.0
  Ga  Ga837  1  0.23833933  0.18998800  0.35345185  1.0
  Ga  Ga838  1  0.23833933  0.52332133  0.35345185  1.0
  Ga  Ga839  1  0.23833933  0.85665467  0.35345185  1.0
  Ga  Ga840  1  0.57167267  0.18998800  0.35345185  1.0
  Ga  Ga841  1  0.57167267  0.52332133  0.35345185  1.0
  Ga  Ga842  1  0.57167267  0.85665467  0.35345185  1.0
  Ga  Ga843  1  0.90500600  0.18998800  0.35345185  1.0
  Ga  Ga844  1  0.90500600  0.52332133  0.35345185  1.0
  Ga  Ga845  1  0.90500600  0.85665467  0.35345185  1.0
  Ga  Ga846  1  0.00092700  0.33147933  0.36285745  1.0
  Ga  Ga847  1  0.00092700  0.66481267  0.36285745  1.0
  Ga  Ga848  1  0.00092700  0.99814600  0.36285745  1.0
  Ga  Ga849  1  0.33426033  0.33147933  0.36285745  1.0
  Ga  Ga850  1  0.33426033  0.66481267  0.36285745  1.0
  Ga  Ga851  1  0.33426033  0.99814600  0.36285745  1.0
  Ga  Ga852  1  0.66759367  0.33147933  0.36285745  1.0
  Ga  Ga853  1  0.66759367  0.66481267  0.36285745  1.0
  Ga  Ga854  1  0.66759367  0.99814600  0.36285745  1.0
  Ga  Ga855  1  0.33282767  0.10645367  0.35947475  1.0
  Ga  Ga856  1  0.33282767  0.43978700  0.35947475  1.0
  Ga  Ga857  1  0.33282767  0.77312033  0.35947475  1.0
  Ga  Ga858  1  0.66616100  0.10645367  0.35947475  1.0
  Ga  Ga859  1  0.66616100  0.43978700  0.35947475  1.0
  Ga  Ga860  1  0.66616100  0.77312033  0.35947475  1.0
  Ga  Ga861  1  0.99949433  0.10645367  0.35947475  1.0
  Ga  Ga862  1  0.99949433  0.43978700  0.35947475  1.0
  Ga  Ga863  1  0.99949433  0.77312033  0.35947475  1.0
  Ga  Ga864  1  0.22738533  0.10645367  0.32784205  1.0
  Ga  Ga865  1  0.22738533  0.43978700  0.32784205  1.0
  Ga  Ga866  1  0.22738533  0.77312033  0.32784205  1.0
  Ga  Ga867  1  0.56071867  0.10645367  0.32784205  1.0
  Ga  Ga868  1  0.56071867  0.43978700  0.32784205  1.0
  Ga  Ga869  1  0.56071867  0.77312033  0.32784205  1.0
  Ga  Ga870  1  0.89405200  0.10645367  0.32784205  1.0
  Ga  Ga871  1  0.89405200  0.43978700  0.32784205  1.0
  Ga  Ga872  1  0.89405200  0.77312033  0.32784205  1.0
  Ga  Ga873  1  0.10780200  0.11772933  0.33079495  1.0
  Ga  Ga874  1  0.10780200  0.45106267  0.33079495  1.0
  Ga  Ga875  1  0.10780200  0.78439600  0.33079495  1.0
  Ga  Ga876  1  0.44113533  0.11772933  0.33079495  1.0
  Ga  Ga877  1  0.44113533  0.45106267  0.33079495  1.0
  Ga  Ga878  1  0.44113533  0.78439600  0.33079495  1.0
  Ga  Ga879  1  0.77446867  0.11772933  0.33079495  1.0
  Ga  Ga880  1  0.77446867  0.45106267  0.33079495  1.0
  Ga  Ga881  1  0.77446867  0.78439600  0.33079495  1.0
  Ga  Ga882  1  0.21238567  0.24189533  0.30460715  1.0
  Ga  Ga883  1  0.21238567  0.57522867  0.30460715  1.0
  Ga  Ga884  1  0.21238567  0.90856200  0.30460715  1.0
  Ga  Ga885  1  0.54571900  0.24189533  0.30460715  1.0
  Ga  Ga886  1  0.54571900  0.57522867  0.30460715  1.0
  Ga  Ga887  1  0.54571900  0.90856200  0.30460715  1.0
  Ga  Ga888  1  0.87905233  0.24189533  0.30460715  1.0
  Ga  Ga889  1  0.87905233  0.57522867  0.30460715  1.0
  Ga  Ga890  1  0.87905233  0.90856200  0.30460715  1.0
  Ni  Ni891  1  0.10856533  0.22622933  0.39623115  1.0
  Ni  Ni892  1  0.10856533  0.55956267  0.39623115  1.0
  Ni  Ni893  1  0.10856533  0.89289600  0.39623115  1.0
  Ni  Ni894  1  0.44189867  0.22622933  0.39623115  1.0
  Ni  Ni895  1  0.44189867  0.55956267  0.39623115  1.0
  Ni  Ni896  1  0.44189867  0.89289600  0.39623115  1.0
  Ni  Ni897  1  0.77523200  0.22622933  0.39623115  1.0
  Ni  Ni898  1  0.77523200  0.55956267  0.39623115  1.0
  Ni  Ni899  1  0.77523200  0.89289600  0.39623115  1.0
  Ni  Ni900  1  0.33187200  0.22622933  0.36322315  1.0
  Ni  Ni901  1  0.33187200  0.55956267  0.36322315  1.0
  Ni  Ni902  1  0.33187200  0.89289600  0.36322315  1.0
  Ni  Ni903  1  0.66520533  0.22622933  0.36322315  1.0
  Ni  Ni904  1  0.66520533  0.55956267  0.36322315  1.0
  Ni  Ni905  1  0.66520533  0.89289600  0.36322315  1.0
  Ni  Ni906  1  0.99853867  0.22622933  0.36322315  1.0
  Ni  Ni907  1  0.99853867  0.55956267  0.36322315  1.0
  Ni  Ni908  1  0.99853867  0.89289600  0.36322315  1.0
  Ni  Ni909  1  0.11437100  0.10459133  0.39282035  1.0
  Ni  Ni910  1  0.11437100  0.43792467  0.39282035  1.0
  Ni  Ni911  1  0.11437100  0.77125800  0.39282035  1.0
  Ni  Ni912  1  0.44770433  0.10459133  0.39282035  1.0
  Ni  Ni913  1  0.44770433  0.43792467  0.39282035  1.0
  Ni  Ni914  1  0.44770433  0.77125800  0.39282035  1.0
  Ni  Ni915  1  0.78103767  0.10459133  0.39282035  1.0
  Ni  Ni916  1  0.78103767  0.43792467  0.39282035  1.0
  Ni  Ni917  1  0.78103767  0.77125800  0.39282035  1.0
  Ni  Ni918  1  0.22463967  0.10736067  0.39539285  1.0
  Ni  Ni919  1  0.22463967  0.44069400  0.39539285  1.0
  Ni  Ni920  1  0.22463967  0.77402733  0.39539285  1.0
  Ni  Ni921  1  0.55797300  0.10736067  0.39539285  1.0
  Ni  Ni922  1  0.55797300  0.44069400  0.39539285  1.0
  Ni  Ni923  1  0.55797300  0.77402733  0.39539285  1.0
  Ni  Ni924  1  0.89130633  0.10736067  0.39539285  1.0
  Ni  Ni925  1  0.89130633  0.44069400  0.39539285  1.0
  Ni  Ni926  1  0.89130633  0.77402733  0.39539285  1.0
  Ni  Ni927  1  0.00133300  0.10736067  0.32840085  1.0
  Ni  Ni928  1  0.00133300  0.44069400  0.32840085  1.0
  Ni  Ni929  1  0.00133300  0.77402733  0.32840085  1.0
  Ni  Ni930  1  0.33466633  0.10736067  0.32840085  1.0
  Ni  Ni931  1  0.33466633  0.44069400  0.32840085  1.0
  Ni  Ni932  1  0.33466633  0.77402733  0.32840085  1.0
  Ni  Ni933  1  0.66799967  0.10736067  0.32840085  1.0
  Ni  Ni934  1  0.66799967  0.44069400  0.32840085  1.0
  Ni  Ni935  1  0.66799967  0.77402733  0.32840085  1.0
