# generated using pymatgen
data_Ga4Ni3
_symmetry_space_group_name_H-M   'P 1'
_cell_length_a   29.82500037
_cell_length_b   48.70402166
_cell_length_c   69.59166753
_cell_angle_alpha   144.73561032
_cell_angle_beta   109.47122063
_cell_angle_gamma   90.00000000
_symmetry_Int_Tables_number   1
_chemical_formula_structural   Ga4Ni3
_chemical_formula_sum   'Ga864 Ni648'
_cell_volume   47653.66064972
_cell_formula_units_Z   216
loop_
 _symmetry_equiv_pos_site_id
 _symmetry_equiv_pos_as_xyz
  1  'x, y, z'
loop_
 _atom_site_type_symbol
 _atom_site_label
 _atom_site_symmetry_multiplicity
 _atom_site_fract_x
 _atom_site_fract_y
 _atom_site_fract_z
 _atom_site_occupancy
  Ga  Ga0  1  0.00000000  0.00000000  0.05125829  1.0
  Ga  Ga1  1  0.00000000  0.33333333  0.05125829  1.0
  Ga  Ga2  1  0.00000000  0.66666667  0.05125829  1.0
  Ga  Ga3  1  0.33333333  0.00000000  0.05125829  1.0
  Ga  Ga4  1  0.33333333  0.33333333  0.05125829  1.0
  Ga  Ga5  1  0.33333333  0.66666667  0.05125829  1.0
  Ga  Ga6  1  0.66666667  0.00000000  0.05125829  1.0
  Ga  Ga7  1  0.66666667  0.33333333  0.05125829  1.0
  Ga  Ga8  1  0.66666667  0.66666667  0.05125829  1.0
  Ga  Ga9  1  0.00000000  0.16666667  0.12268686  1.0
  Ga  Ga10  1  0.00000000  0.50000000  0.12268686  1.0
  Ga  Ga11  1  0.00000000  0.83333333  0.12268686  1.0
  Ga  Ga12  1  0.33333333  0.16666667  0.12268686  1.0
  Ga  Ga13  1  0.33333333  0.50000000  0.12268686  1.0
  Ga  Ga14  1  0.33333333  0.83333333  0.12268686  1.0
  Ga  Ga15  1  0.66666667  0.16666667  0.12268686  1.0
  Ga  Ga16  1  0.66666667  0.50000000  0.12268686  1.0
  Ga  Ga17  1  0.66666667  0.83333333  0.12268686  1.0
  Ga  Ga18  1  0.16666667  0.16666667  0.05125829  1.0
  Ga  Ga19  1  0.16666667  0.50000000  0.05125829  1.0
  Ga  Ga20  1  0.16666667  0.83333333  0.05125829  1.0
  Ga  Ga21  1  0.50000000  0.16666667  0.05125829  1.0
  Ga  Ga22  1  0.50000000  0.50000000  0.05125829  1.0
  Ga  Ga23  1  0.50000000  0.83333333  0.05125829  1.0
  Ga  Ga24  1  0.83333333  0.16666667  0.05125829  1.0
  Ga  Ga25  1  0.83333333  0.50000000  0.05125829  1.0
  Ga  Ga26  1  0.83333333  0.83333333  0.05125829  1.0
  Ga  Ga27  1  0.00000000  0.00000000  0.12268686  1.0
  Ga  Ga28  1  0.00000000  0.33333333  0.12268686  1.0
  Ga  Ga29  1  0.00000000  0.66666667  0.12268686  1.0
  Ga  Ga30  1  0.33333333  0.00000000  0.12268686  1.0
  Ga  Ga31  1  0.33333333  0.33333333  0.12268686  1.0
  Ga  Ga32  1  0.33333333  0.66666667  0.12268686  1.0
  Ga  Ga33  1  0.66666667  0.00000000  0.12268686  1.0
  Ga  Ga34  1  0.66666667  0.33333333  0.12268686  1.0
  Ga  Ga35  1  0.66666667  0.66666667  0.12268686  1.0
  Ga  Ga36  1  0.16666667  0.00000000  0.12268686  1.0
  Ga  Ga37  1  0.16666667  0.33333333  0.12268686  1.0
  Ga  Ga38  1  0.16666667  0.66666667  0.12268686  1.0
  Ga  Ga39  1  0.50000000  0.00000000  0.12268686  1.0
  Ga  Ga40  1  0.50000000  0.33333333  0.12268686  1.0
  Ga  Ga41  1  0.50000000  0.66666667  0.12268686  1.0
  Ga  Ga42  1  0.83333333  0.00000000  0.12268686  1.0
  Ga  Ga43  1  0.83333333  0.33333333  0.12268686  1.0
  Ga  Ga44  1  0.83333333  0.66666667  0.12268686  1.0
  Ga  Ga45  1  0.16666667  0.16666667  0.12268686  1.0
  Ga  Ga46  1  0.16666667  0.50000000  0.12268686  1.0
  Ga  Ga47  1  0.16666667  0.83333333  0.12268686  1.0
  Ga  Ga48  1  0.50000000  0.16666667  0.12268686  1.0
  Ga  Ga49  1  0.50000000  0.50000000  0.12268686  1.0
  Ga  Ga50  1  0.50000000  0.83333333  0.12268686  1.0
  Ga  Ga51  1  0.83333333  0.16666667  0.12268686  1.0
  Ga  Ga52  1  0.83333333  0.50000000  0.12268686  1.0
  Ga  Ga53  1  0.83333333  0.83333333  0.12268686  1.0
  Ga  Ga54  1  0.00000000  0.16666667  0.05125829  1.0
  Ga  Ga55  1  0.00000000  0.50000000  0.05125829  1.0
  Ga  Ga56  1  0.00000000  0.83333333  0.05125829  1.0
  Ga  Ga57  1  0.33333333  0.16666667  0.05125829  1.0
  Ga  Ga58  1  0.33333333  0.50000000  0.05125829  1.0
  Ga  Ga59  1  0.33333333  0.83333333  0.05125829  1.0
  Ga  Ga60  1  0.66666667  0.16666667  0.05125829  1.0
  Ga  Ga61  1  0.66666667  0.50000000  0.05125829  1.0
  Ga  Ga62  1  0.66666667  0.83333333  0.05125829  1.0
  Ga  Ga63  1  0.16666667  0.00000000  0.05125829  1.0
  Ga  Ga64  1  0.16666667  0.33333333  0.05125829  1.0
  Ga  Ga65  1  0.16666667  0.66666667  0.05125829  1.0
  Ga  Ga66  1  0.50000000  0.00000000  0.05125829  1.0
  Ga  Ga67  1  0.50000000  0.33333333  0.05125829  1.0
  Ga  Ga68  1  0.50000000  0.66666667  0.05125829  1.0
  Ga  Ga69  1  0.83333333  0.00000000  0.05125829  1.0
  Ga  Ga70  1  0.83333333  0.33333333  0.05125829  1.0
  Ga  Ga71  1  0.83333333  0.66666667  0.05125829  1.0
  Ga  Ga72  1  0.32923217  0.08333333  0.12092921  1.0
  Ga  Ga73  1  0.32923217  0.41666667  0.12092921  1.0
  Ga  Ga74  1  0.32923217  0.75000000  0.12092921  1.0
  Ga  Ga75  1  0.66256550  0.08333333  0.12092921  1.0
  Ga  Ga76  1  0.66256550  0.41666667  0.12092921  1.0
  Ga  Ga77  1  0.66256550  0.75000000  0.12092921  1.0
  Ga  Ga78  1  0.99589883  0.08333333  0.12092921  1.0
  Ga  Ga79  1  0.99589883  0.41666667  0.12092921  1.0
  Ga  Ga80  1  0.99589883  0.75000000  0.12092921  1.0
  Ga  Ga81  1  0.32923217  0.24589883  0.04950064  1.0
  Ga  Ga82  1  0.32923217  0.57923217  0.04950064  1.0
  Ga  Ga83  1  0.32923217  0.91256550  0.04950064  1.0
  Ga  Ga84  1  0.66256550  0.24589883  0.04950064  1.0
  Ga  Ga85  1  0.66256550  0.57923217  0.04950064  1.0
  Ga  Ga86  1  0.66256550  0.91256550  0.04950064  1.0
  Ga  Ga87  1  0.99589883  0.24589883  0.04950064  1.0
  Ga  Ga88  1  0.99589883  0.57923217  0.04950064  1.0
  Ga  Ga89  1  0.99589883  0.91256550  0.04950064  1.0
  Ga  Ga90  1  0.17076783  0.25410117  0.12444450  1.0
  Ga  Ga91  1  0.17076783  0.58743450  0.12444450  1.0
  Ga  Ga92  1  0.17076783  0.92076783  0.12444450  1.0
  Ga  Ga93  1  0.50410117  0.25410117  0.12444450  1.0
  Ga  Ga94  1  0.50410117  0.58743450  0.12444450  1.0
  Ga  Ga95  1  0.50410117  0.92076783  0.12444450  1.0
  Ga  Ga96  1  0.83743450  0.25410117  0.12444450  1.0
  Ga  Ga97  1  0.83743450  0.58743450  0.12444450  1.0
  Ga  Ga98  1  0.83743450  0.92076783  0.12444450  1.0
  Ga  Ga99  1  0.25000000  0.32923217  0.08345729  1.0
  Ga  Ga100  1  0.25000000  0.66256550  0.08345729  1.0
  Ga  Ga101  1  0.25000000  0.99589883  0.08345729  1.0
  Ga  Ga102  1  0.58333333  0.32923217  0.08345729  1.0
  Ga  Ga103  1  0.58333333  0.66256550  0.08345729  1.0
  Ga  Ga104  1  0.58333333  0.99589883  0.08345729  1.0
  Ga  Ga105  1  0.91666667  0.32923217  0.08345729  1.0
  Ga  Ga106  1  0.91666667  0.66256550  0.08345729  1.0
  Ga  Ga107  1  0.91666667  0.99589883  0.08345729  1.0
  Ga  Ga108  1  0.08333333  0.17076783  0.01905929  1.0
  Ga  Ga109  1  0.08333333  0.50410117  0.01905929  1.0
  Ga  Ga110  1  0.08333333  0.83743450  0.01905929  1.0
  Ga  Ga111  1  0.41666667  0.17076783  0.01905929  1.0
  Ga  Ga112  1  0.41666667  0.50410117  0.01905929  1.0
  Ga  Ga113  1  0.41666667  0.83743450  0.01905929  1.0
  Ga  Ga114  1  0.75000000  0.17076783  0.01905929  1.0
  Ga  Ga115  1  0.75000000  0.50410117  0.01905929  1.0
  Ga  Ga116  1  0.75000000  0.83743450  0.01905929  1.0
  Ga  Ga117  1  0.24589883  0.25000000  0.08521493  1.0
  Ga  Ga118  1  0.24589883  0.58333333  0.08521493  1.0
  Ga  Ga119  1  0.24589883  0.91666667  0.08521493  1.0
  Ga  Ga120  1  0.57923217  0.25000000  0.08521493  1.0
  Ga  Ga121  1  0.57923217  0.58333333  0.08521493  1.0
  Ga  Ga122  1  0.57923217  0.91666667  0.08521493  1.0
  Ga  Ga123  1  0.91256550  0.25000000  0.08521493  1.0
  Ga  Ga124  1  0.91256550  0.58333333  0.08521493  1.0
  Ga  Ga125  1  0.91256550  0.91666667  0.08521493  1.0
  Ga  Ga126  1  0.08333333  0.24589883  0.08345729  1.0
  Ga  Ga127  1  0.08333333  0.57923217  0.08345729  1.0
  Ga  Ga128  1  0.08333333  0.91256550  0.08345729  1.0
  Ga  Ga129  1  0.41666667  0.24589883  0.08345729  1.0
  Ga  Ga130  1  0.41666667  0.57923217  0.08345729  1.0
  Ga  Ga131  1  0.41666667  0.91256550  0.08345729  1.0
  Ga  Ga132  1  0.75000000  0.24589883  0.08345729  1.0
  Ga  Ga133  1  0.75000000  0.57923217  0.08345729  1.0
  Ga  Ga134  1  0.75000000  0.91256550  0.08345729  1.0
  Ga  Ga135  1  0.25410117  0.17076783  0.01730164  1.0
  Ga  Ga136  1  0.25410117  0.50410117  0.01730164  1.0
  Ga  Ga137  1  0.25410117  0.83743450  0.01730164  1.0
  Ga  Ga138  1  0.58743450  0.17076783  0.01730164  1.0
  Ga  Ga139  1  0.58743450  0.50410117  0.01730164  1.0
  Ga  Ga140  1  0.58743450  0.83743450  0.01730164  1.0
  Ga  Ga141  1  0.92076783  0.17076783  0.01730164  1.0
  Ga  Ga142  1  0.92076783  0.50410117  0.01730164  1.0
  Ga  Ga143  1  0.92076783  0.83743450  0.01730164  1.0
  Ga  Ga144  1  0.25000000  0.25410117  0.01905929  1.0
  Ga  Ga145  1  0.25000000  0.58743450  0.01905929  1.0
  Ga  Ga146  1  0.25000000  0.92076783  0.01905929  1.0
  Ga  Ga147  1  0.58333333  0.25410117  0.01905929  1.0
  Ga  Ga148  1  0.58333333  0.58743450  0.01905929  1.0
  Ga  Ga149  1  0.58333333  0.92076783  0.01905929  1.0
  Ga  Ga150  1  0.91666667  0.25410117  0.01905929  1.0
  Ga  Ga151  1  0.91666667  0.58743450  0.01905929  1.0
  Ga  Ga152  1  0.91666667  0.92076783  0.01905929  1.0
  Ga  Ga153  1  0.24589883  0.32923217  0.01378636  1.0
  Ga  Ga154  1  0.24589883  0.66256550  0.01378636  1.0
  Ga  Ga155  1  0.24589883  0.99589883  0.01378636  1.0
  Ga  Ga156  1  0.57923217  0.32923217  0.01378636  1.0
  Ga  Ga157  1  0.57923217  0.66256550  0.01378636  1.0
  Ga  Ga158  1  0.57923217  0.99589883  0.01378636  1.0
  Ga  Ga159  1  0.91256550  0.32923217  0.01378636  1.0
  Ga  Ga160  1  0.91256550  0.66256550  0.01378636  1.0
  Ga  Ga161  1  0.91256550  0.99589883  0.01378636  1.0
  Ga  Ga162  1  0.17076783  0.25000000  0.05301593  1.0
  Ga  Ga163  1  0.17076783  0.58333333  0.05301593  1.0
  Ga  Ga164  1  0.17076783  0.91666667  0.05301593  1.0
  Ga  Ga165  1  0.50410117  0.25000000  0.05301593  1.0
  Ga  Ga166  1  0.50410117  0.58333333  0.05301593  1.0
  Ga  Ga167  1  0.50410117  0.91666667  0.05301593  1.0
  Ga  Ga168  1  0.83743450  0.25000000  0.05301593  1.0
  Ga  Ga169  1  0.83743450  0.58333333  0.05301593  1.0
  Ga  Ga170  1  0.83743450  0.91666667  0.05301593  1.0
  Ga  Ga171  1  0.25410117  0.08333333  0.08873021  1.0
  Ga  Ga172  1  0.25410117  0.41666667  0.08873021  1.0
  Ga  Ga173  1  0.25410117  0.75000000  0.08873021  1.0
  Ga  Ga174  1  0.58743450  0.08333333  0.08873021  1.0
  Ga  Ga175  1  0.58743450  0.41666667  0.08873021  1.0
  Ga  Ga176  1  0.58743450  0.75000000  0.08873021  1.0
  Ga  Ga177  1  0.92076783  0.08333333  0.08873021  1.0
  Ga  Ga178  1  0.92076783  0.41666667  0.08873021  1.0
  Ga  Ga179  1  0.92076783  0.75000000  0.08873021  1.0
  Ga  Ga180  1  0.00410117  0.25000000  0.12444450  1.0
  Ga  Ga181  1  0.00410117  0.58333333  0.12444450  1.0
  Ga  Ga182  1  0.00410117  0.91666667  0.12444450  1.0
  Ga  Ga183  1  0.33743450  0.25000000  0.12444450  1.0
  Ga  Ga184  1  0.33743450  0.58333333  0.12444450  1.0
  Ga  Ga185  1  0.33743450  0.91666667  0.12444450  1.0
  Ga  Ga186  1  0.67076783  0.25000000  0.12444450  1.0
  Ga  Ga187  1  0.67076783  0.58333333  0.12444450  1.0
  Ga  Ga188  1  0.67076783  0.91666667  0.12444450  1.0
  Ga  Ga189  1  0.00410117  0.08743450  0.05301593  1.0
  Ga  Ga190  1  0.00410117  0.42076783  0.05301593  1.0
  Ga  Ga191  1  0.00410117  0.75410117  0.05301593  1.0
  Ga  Ga192  1  0.33743450  0.08743450  0.05301593  1.0
  Ga  Ga193  1  0.33743450  0.42076783  0.05301593  1.0
  Ga  Ga194  1  0.33743450  0.75410117  0.05301593  1.0
  Ga  Ga195  1  0.67076783  0.08743450  0.05301593  1.0
  Ga  Ga196  1  0.67076783  0.42076783  0.05301593  1.0
  Ga  Ga197  1  0.67076783  0.75410117  0.05301593  1.0
  Ga  Ga198  1  0.16256550  0.07923217  0.12092921  1.0
  Ga  Ga199  1  0.16256550  0.41256550  0.12092921  1.0
  Ga  Ga200  1  0.16256550  0.74589883  0.12092921  1.0
  Ga  Ga201  1  0.49589883  0.07923217  0.12092921  1.0
  Ga  Ga202  1  0.49589883  0.41256550  0.12092921  1.0
  Ga  Ga203  1  0.49589883  0.74589883  0.12092921  1.0
  Ga  Ga204  1  0.82923217  0.07923217  0.12092921  1.0
  Ga  Ga205  1  0.82923217  0.41256550  0.12092921  1.0
  Ga  Ga206  1  0.82923217  0.74589883  0.12092921  1.0
  Ga  Ga207  1  0.08333333  0.00410117  0.01905929  1.0
  Ga  Ga208  1  0.08333333  0.33743450  0.01905929  1.0
  Ga  Ga209  1  0.08333333  0.67076783  0.01905929  1.0
  Ga  Ga210  1  0.41666667  0.00410117  0.01905929  1.0
  Ga  Ga211  1  0.41666667  0.33743450  0.01905929  1.0
  Ga  Ga212  1  0.41666667  0.67076783  0.01905929  1.0
  Ga  Ga213  1  0.75000000  0.00410117  0.01905929  1.0
  Ga  Ga214  1  0.75000000  0.33743450  0.01905929  1.0
  Ga  Ga215  1  0.75000000  0.67076783  0.01905929  1.0
  Ga  Ga216  1  0.25000000  0.16256550  0.08345729  1.0
  Ga  Ga217  1  0.25000000  0.49589883  0.08345729  1.0
  Ga  Ga218  1  0.25000000  0.82923217  0.08345729  1.0
  Ga  Ga219  1  0.58333333  0.16256550  0.08345729  1.0
  Ga  Ga220  1  0.58333333  0.49589883  0.08345729  1.0
  Ga  Ga221  1  0.58333333  0.82923217  0.08345729  1.0
  Ga  Ga222  1  0.91666667  0.16256550  0.08345729  1.0
  Ga  Ga223  1  0.91666667  0.49589883  0.08345729  1.0
  Ga  Ga224  1  0.91666667  0.82923217  0.08345729  1.0
  Ga  Ga225  1  0.08743450  0.08333333  0.01730164  1.0
  Ga  Ga226  1  0.08743450  0.41666667  0.01730164  1.0
  Ga  Ga227  1  0.08743450  0.75000000  0.01730164  1.0
  Ga  Ga228  1  0.42076783  0.08333333  0.01730164  1.0
  Ga  Ga229  1  0.42076783  0.41666667  0.01730164  1.0
  Ga  Ga230  1  0.42076783  0.75000000  0.01730164  1.0
  Ga  Ga231  1  0.75410117  0.08333333  0.01730164  1.0
  Ga  Ga232  1  0.75410117  0.41666667  0.01730164  1.0
  Ga  Ga233  1  0.75410117  0.75000000  0.01730164  1.0
  Ga  Ga234  1  0.25000000  0.08743450  0.01905929  1.0
  Ga  Ga235  1  0.25000000  0.42076783  0.01905929  1.0
  Ga  Ga236  1  0.25000000  0.75410117  0.01905929  1.0
  Ga  Ga237  1  0.58333333  0.08743450  0.01905929  1.0
  Ga  Ga238  1  0.58333333  0.42076783  0.01905929  1.0
  Ga  Ga239  1  0.58333333  0.75410117  0.01905929  1.0
  Ga  Ga240  1  0.91666667  0.08743450  0.01905929  1.0
  Ga  Ga241  1  0.91666667  0.42076783  0.01905929  1.0
  Ga  Ga242  1  0.91666667  0.75410117  0.01905929  1.0
  Ga  Ga243  1  0.07923217  0.16256550  0.08521493  1.0
  Ga  Ga244  1  0.07923217  0.49589883  0.08521493  1.0
  Ga  Ga245  1  0.07923217  0.82923217  0.08521493  1.0
  Ga  Ga246  1  0.41256550  0.16256550  0.08521493  1.0
  Ga  Ga247  1  0.41256550  0.49589883  0.08521493  1.0
  Ga  Ga248  1  0.41256550  0.82923217  0.08521493  1.0
  Ga  Ga249  1  0.74589883  0.16256550  0.08521493  1.0
  Ga  Ga250  1  0.74589883  0.49589883  0.08521493  1.0
  Ga  Ga251  1  0.74589883  0.82923217  0.08521493  1.0
  Ga  Ga252  1  0.08333333  0.07923217  0.08345729  1.0
  Ga  Ga253  1  0.08333333  0.41256550  0.08345729  1.0
  Ga  Ga254  1  0.08333333  0.74589883  0.08345729  1.0
  Ga  Ga255  1  0.41666667  0.07923217  0.08345729  1.0
  Ga  Ga256  1  0.41666667  0.41256550  0.08345729  1.0
  Ga  Ga257  1  0.41666667  0.74589883  0.08345729  1.0
  Ga  Ga258  1  0.75000000  0.07923217  0.08345729  1.0
  Ga  Ga259  1  0.75000000  0.41256550  0.08345729  1.0
  Ga  Ga260  1  0.75000000  0.74589883  0.08345729  1.0
  Ga  Ga261  1  0.08743450  0.00410117  0.08873021  1.0
  Ga  Ga262  1  0.08743450  0.33743450  0.08873021  1.0
  Ga  Ga263  1  0.08743450  0.67076783  0.08873021  1.0
  Ga  Ga264  1  0.42076783  0.00410117  0.08873021  1.0
  Ga  Ga265  1  0.42076783  0.33743450  0.08873021  1.0
  Ga  Ga266  1  0.42076783  0.67076783  0.08873021  1.0
  Ga  Ga267  1  0.75410117  0.00410117  0.08873021  1.0
  Ga  Ga268  1  0.75410117  0.33743450  0.08873021  1.0
  Ga  Ga269  1  0.75410117  0.67076783  0.08873021  1.0
  Ga  Ga270  1  0.16256550  0.08333333  0.04950064  1.0
  Ga  Ga271  1  0.16256550  0.41666667  0.04950064  1.0
  Ga  Ga272  1  0.16256550  0.75000000  0.04950064  1.0
  Ga  Ga273  1  0.49589883  0.08333333  0.04950064  1.0
  Ga  Ga274  1  0.49589883  0.41666667  0.04950064  1.0
  Ga  Ga275  1  0.49589883  0.75000000  0.04950064  1.0
  Ga  Ga276  1  0.82923217  0.08333333  0.04950064  1.0
  Ga  Ga277  1  0.82923217  0.41666667  0.04950064  1.0
  Ga  Ga278  1  0.82923217  0.75000000  0.04950064  1.0
  Ga  Ga279  1  0.07923217  0.25000000  0.01378636  1.0
  Ga  Ga280  1  0.07923217  0.58333333  0.01378636  1.0
  Ga  Ga281  1  0.07923217  0.91666667  0.01378636  1.0
  Ga  Ga282  1  0.41256550  0.25000000  0.01378636  1.0
  Ga  Ga283  1  0.41256550  0.58333333  0.01378636  1.0
  Ga  Ga284  1  0.41256550  0.91666667  0.01378636  1.0
  Ga  Ga285  1  0.74589883  0.25000000  0.01378636  1.0
  Ga  Ga286  1  0.74589883  0.58333333  0.01378636  1.0
  Ga  Ga287  1  0.74589883  0.91666667  0.01378636  1.0
  Ni  Ni288  1  0.16936533  0.17206400  0.09044229  1.0
  Ni  Ni289  1  0.16936533  0.50539733  0.09044229  1.0
  Ni  Ni290  1  0.16936533  0.83873067  0.09044229  1.0
  Ni  Ni291  1  0.50269867  0.17206400  0.09044229  1.0
  Ni  Ni292  1  0.50269867  0.50539733  0.09044229  1.0
  Ni  Ni293  1  0.50269867  0.83873067  0.09044229  1.0
  Ni  Ni294  1  0.83603200  0.17206400  0.09044229  1.0
  Ni  Ni295  1  0.83603200  0.50539733  0.09044229  1.0
  Ni  Ni296  1  0.83603200  0.83873067  0.09044229  1.0
  Ni  Ni297  1  0.08063467  0.08603200  0.12384343  1.0
  Ni  Ni298  1  0.08063467  0.41936533  0.12384343  1.0
  Ni  Ni299  1  0.08063467  0.75269867  0.12384343  1.0
  Ni  Ni300  1  0.41396800  0.08603200  0.12384343  1.0
  Ni  Ni301  1  0.41396800  0.41936533  0.12384343  1.0
  Ni  Ni302  1  0.41396800  0.75269867  0.12384343  1.0
  Ni  Ni303  1  0.74730133  0.08603200  0.12384343  1.0
  Ni  Ni304  1  0.74730133  0.41936533  0.12384343  1.0
  Ni  Ni305  1  0.74730133  0.75269867  0.12384343  1.0
  Ni  Ni306  1  0.08603200  0.16936533  0.12615657  1.0
  Ni  Ni307  1  0.08603200  0.50269867  0.12615657  1.0
  Ni  Ni308  1  0.08603200  0.83603200  0.12615657  1.0
  Ni  Ni309  1  0.41936533  0.16936533  0.12615657  1.0
  Ni  Ni310  1  0.41936533  0.50269867  0.12615657  1.0
  Ni  Ni311  1  0.41936533  0.83603200  0.12615657  1.0
  Ni  Ni312  1  0.75269867  0.16936533  0.12615657  1.0
  Ni  Ni313  1  0.75269867  0.50269867  0.12615657  1.0
  Ni  Ni314  1  0.75269867  0.83603200  0.12615657  1.0
  Ni  Ni315  1  0.25000000  0.16936533  0.05125829  1.0
  Ni  Ni316  1  0.25000000  0.50269867  0.05125829  1.0
  Ni  Ni317  1  0.25000000  0.83603200  0.05125829  1.0
  Ni  Ni318  1  0.58333333  0.16936533  0.05125829  1.0
  Ni  Ni319  1  0.58333333  0.50269867  0.05125829  1.0
  Ni  Ni320  1  0.58333333  0.83603200  0.05125829  1.0
  Ni  Ni321  1  0.91666667  0.16936533  0.05125829  1.0
  Ni  Ni322  1  0.91666667  0.50269867  0.05125829  1.0
  Ni  Ni323  1  0.91666667  0.83603200  0.05125829  1.0
  Ni  Ni324  1  0.17206400  0.08603200  0.08928571  1.0
  Ni  Ni325  1  0.17206400  0.41936533  0.08928571  1.0
  Ni  Ni326  1  0.17206400  0.75269867  0.08928571  1.0
  Ni  Ni327  1  0.50539733  0.08603200  0.08928571  1.0
  Ni  Ni328  1  0.50539733  0.41936533  0.08928571  1.0
  Ni  Ni329  1  0.50539733  0.75269867  0.08928571  1.0
  Ni  Ni330  1  0.83873067  0.08603200  0.08928571  1.0
  Ni  Ni331  1  0.83873067  0.41936533  0.08928571  1.0
  Ni  Ni332  1  0.83873067  0.75269867  0.08928571  1.0
  Ni  Ni333  1  0.08603200  0.25000000  0.12153029  1.0
  Ni  Ni334  1  0.08603200  0.58333333  0.12153029  1.0
  Ni  Ni335  1  0.08603200  0.91666667  0.12153029  1.0
  Ni  Ni336  1  0.41936533  0.25000000  0.12153029  1.0
  Ni  Ni337  1  0.41936533  0.58333333  0.12153029  1.0
  Ni  Ni338  1  0.41936533  0.91666667  0.12153029  1.0
  Ni  Ni339  1  0.75269867  0.25000000  0.12153029  1.0
  Ni  Ni340  1  0.75269867  0.58333333  0.12153029  1.0
  Ni  Ni341  1  0.75269867  0.91666667  0.12153029  1.0
  Ni  Ni342  1  0.33063467  0.25000000  0.01670057  1.0
  Ni  Ni343  1  0.33063467  0.58333333  0.01670057  1.0
  Ni  Ni344  1  0.33063467  0.91666667  0.01670057  1.0
  Ni  Ni345  1  0.66396800  0.25000000  0.01670057  1.0
  Ni  Ni346  1  0.66396800  0.58333333  0.01670057  1.0
  Ni  Ni347  1  0.66396800  0.91666667  0.01670057  1.0
  Ni  Ni348  1  0.99730133  0.25000000  0.01670057  1.0
  Ni  Ni349  1  0.99730133  0.58333333  0.01670057  1.0
  Ni  Ni350  1  0.99730133  0.91666667  0.01670057  1.0
  Ni  Ni351  1  0.32793600  0.33063467  0.01323086  1.0
  Ni  Ni352  1  0.32793600  0.66396800  0.01323086  1.0
  Ni  Ni353  1  0.32793600  0.99730133  0.01323086  1.0
  Ni  Ni354  1  0.66126933  0.33063467  0.01323086  1.0
  Ni  Ni355  1  0.66126933  0.66396800  0.01323086  1.0
  Ni  Ni356  1  0.66126933  0.99730133  0.01323086  1.0
  Ni  Ni357  1  0.99460267  0.33063467  0.01323086  1.0
  Ni  Ni358  1  0.99460267  0.66396800  0.01323086  1.0
  Ni  Ni359  1  0.99460267  0.99730133  0.01323086  1.0
  Ni  Ni360  1  0.16936533  0.33063467  0.08581600  1.0
  Ni  Ni361  1  0.16936533  0.66396800  0.08581600  1.0
  Ni  Ni362  1  0.16936533  0.99730133  0.08581600  1.0
  Ni  Ni363  1  0.50269867  0.33063467  0.08581600  1.0
  Ni  Ni364  1  0.50269867  0.66396800  0.08581600  1.0
  Ni  Ni365  1  0.50269867  0.99730133  0.08581600  1.0
  Ni  Ni366  1  0.83603200  0.33063467  0.08581600  1.0
  Ni  Ni367  1  0.83603200  0.66396800  0.08581600  1.0
  Ni  Ni368  1  0.83603200  0.99730133  0.08581600  1.0
  Ni  Ni369  1  0.33063467  0.08063467  0.01207429  1.0
  Ni  Ni370  1  0.33063467  0.41396800  0.01207429  1.0
  Ni  Ni371  1  0.33063467  0.74730133  0.01207429  1.0
  Ni  Ni372  1  0.66396800  0.08063467  0.01207429  1.0
  Ni  Ni373  1  0.66396800  0.41396800  0.01207429  1.0
  Ni  Ni374  1  0.66396800  0.74730133  0.01207429  1.0
  Ni  Ni375  1  0.99730133  0.08063467  0.01207429  1.0
  Ni  Ni376  1  0.99730133  0.41396800  0.01207429  1.0
  Ni  Ni377  1  0.99730133  0.74730133  0.01207429  1.0
  Ni  Ni378  1  0.25000000  0.08063467  0.05125829  1.0
  Ni  Ni379  1  0.25000000  0.41396800  0.05125829  1.0
  Ni  Ni380  1  0.25000000  0.74730133  0.05125829  1.0
  Ni  Ni381  1  0.58333333  0.08063467  0.05125829  1.0
  Ni  Ni382  1  0.58333333  0.41396800  0.05125829  1.0
  Ni  Ni383  1  0.58333333  0.74730133  0.05125829  1.0
  Ni  Ni384  1  0.91666667  0.08063467  0.05125829  1.0
  Ni  Ni385  1  0.91666667  0.41396800  0.05125829  1.0
  Ni  Ni386  1  0.91666667  0.74730133  0.05125829  1.0
  Ni  Ni387  1  0.08063467  0.32793600  0.11921714  1.0
  Ni  Ni388  1  0.08063467  0.66126933  0.11921714  1.0
  Ni  Ni389  1  0.08063467  0.99460267  0.11921714  1.0
  Ni  Ni390  1  0.41396800  0.32793600  0.11921714  1.0
  Ni  Ni391  1  0.41396800  0.66126933  0.11921714  1.0
  Ni  Ni392  1  0.41396800  0.99460267  0.11921714  1.0
  Ni  Ni393  1  0.74730133  0.32793600  0.11921714  1.0
  Ni  Ni394  1  0.74730133  0.66126933  0.11921714  1.0
  Ni  Ni395  1  0.74730133  0.99460267  0.11921714  1.0
  Ni  Ni396  1  0.16396800  0.16126933  0.01207429  1.0
  Ni  Ni397  1  0.16396800  0.49460267  0.01207429  1.0
  Ni  Ni398  1  0.16396800  0.82793600  0.01207429  1.0
  Ni  Ni399  1  0.49730133  0.16126933  0.01207429  1.0
  Ni  Ni400  1  0.49730133  0.49460267  0.01207429  1.0
  Ni  Ni401  1  0.49730133  0.82793600  0.01207429  1.0
  Ni  Ni402  1  0.83063467  0.16126933  0.01207429  1.0
  Ni  Ni403  1  0.83063467  0.49460267  0.01207429  1.0
  Ni  Ni404  1  0.83063467  0.82793600  0.01207429  1.0
  Ni  Ni405  1  0.25269867  0.24730133  0.12153029  1.0
  Ni  Ni406  1  0.25269867  0.58063467  0.12153029  1.0
  Ni  Ni407  1  0.25269867  0.91396800  0.12153029  1.0
  Ni  Ni408  1  0.58603200  0.24730133  0.12153029  1.0
  Ni  Ni409  1  0.58603200  0.58063467  0.12153029  1.0
  Ni  Ni410  1  0.58603200  0.91396800  0.12153029  1.0
  Ni  Ni411  1  0.91936533  0.24730133  0.12153029  1.0
  Ni  Ni412  1  0.91936533  0.58063467  0.12153029  1.0
  Ni  Ni413  1  0.91936533  0.91396800  0.12153029  1.0
  Ni  Ni414  1  0.24730133  0.16396800  0.11921714  1.0
  Ni  Ni415  1  0.24730133  0.49730133  0.11921714  1.0
  Ni  Ni416  1  0.24730133  0.83063467  0.11921714  1.0
  Ni  Ni417  1  0.58063467  0.16396800  0.11921714  1.0
  Ni  Ni418  1  0.58063467  0.49730133  0.11921714  1.0
  Ni  Ni419  1  0.58063467  0.83063467  0.11921714  1.0
  Ni  Ni420  1  0.91396800  0.16396800  0.11921714  1.0
  Ni  Ni421  1  0.91396800  0.49730133  0.11921714  1.0
  Ni  Ni422  1  0.91396800  0.83063467  0.11921714  1.0
  Ni  Ni423  1  0.08333333  0.16396800  0.05125829  1.0
  Ni  Ni424  1  0.08333333  0.49730133  0.05125829  1.0
  Ni  Ni425  1  0.08333333  0.83063467  0.05125829  1.0
  Ni  Ni426  1  0.41666667  0.16396800  0.05125829  1.0
  Ni  Ni427  1  0.41666667  0.49730133  0.05125829  1.0
  Ni  Ni428  1  0.41666667  0.83063467  0.05125829  1.0
  Ni  Ni429  1  0.75000000  0.16396800  0.05125829  1.0
  Ni  Ni430  1  0.75000000  0.49730133  0.05125829  1.0
  Ni  Ni431  1  0.75000000  0.83063467  0.05125829  1.0
  Ni  Ni432  1  0.16126933  0.24730133  0.01323086  1.0
  Ni  Ni433  1  0.16126933  0.58063467  0.01323086  1.0
  Ni  Ni434  1  0.16126933  0.91396800  0.01323086  1.0
  Ni  Ni435  1  0.49460267  0.24730133  0.01323086  1.0
  Ni  Ni436  1  0.49460267  0.58063467  0.01323086  1.0
  Ni  Ni437  1  0.49460267  0.91396800  0.01323086  1.0
  Ni  Ni438  1  0.82793600  0.24730133  0.01323086  1.0
  Ni  Ni439  1  0.82793600  0.58063467  0.01323086  1.0
  Ni  Ni440  1  0.82793600  0.91396800  0.01323086  1.0
  Ni  Ni441  1  0.24730133  0.08333333  0.12384343  1.0
  Ni  Ni442  1  0.24730133  0.41666667  0.12384343  1.0
  Ni  Ni443  1  0.24730133  0.75000000  0.12384343  1.0
  Ni  Ni444  1  0.58063467  0.08333333  0.12384343  1.0
  Ni  Ni445  1  0.58063467  0.41666667  0.12384343  1.0
  Ni  Ni446  1  0.58063467  0.75000000  0.12384343  1.0
  Ni  Ni447  1  0.91396800  0.08333333  0.12384343  1.0
  Ni  Ni448  1  0.91396800  0.41666667  0.12384343  1.0
  Ni  Ni449  1  0.91396800  0.75000000  0.12384343  1.0
  Ni  Ni450  1  0.00269867  0.08333333  0.08581600  1.0
  Ni  Ni451  1  0.00269867  0.41666667  0.08581600  1.0
  Ni  Ni452  1  0.00269867  0.75000000  0.08581600  1.0
  Ni  Ni453  1  0.33603200  0.08333333  0.08581600  1.0
  Ni  Ni454  1  0.33603200  0.41666667  0.08581600  1.0
  Ni  Ni455  1  0.33603200  0.75000000  0.08581600  1.0
  Ni  Ni456  1  0.66936533  0.08333333  0.08581600  1.0
  Ni  Ni457  1  0.66936533  0.41666667  0.08581600  1.0
  Ni  Ni458  1  0.66936533  0.75000000  0.08581600  1.0
  Ni  Ni459  1  0.00539733  0.00269867  0.08928571  1.0
  Ni  Ni460  1  0.00539733  0.33603200  0.08928571  1.0
  Ni  Ni461  1  0.00539733  0.66936533  0.08928571  1.0
  Ni  Ni462  1  0.33873067  0.00269867  0.08928571  1.0
  Ni  Ni463  1  0.33873067  0.33603200  0.08928571  1.0
  Ni  Ni464  1  0.33873067  0.66936533  0.08928571  1.0
  Ni  Ni465  1  0.67206400  0.00269867  0.08928571  1.0
  Ni  Ni466  1  0.67206400  0.33603200  0.08928571  1.0
  Ni  Ni467  1  0.67206400  0.66936533  0.08928571  1.0
  Ni  Ni468  1  0.16396800  0.00269867  0.01670057  1.0
  Ni  Ni469  1  0.16396800  0.33603200  0.01670057  1.0
  Ni  Ni470  1  0.16396800  0.66936533  0.01670057  1.0
  Ni  Ni471  1  0.49730133  0.00269867  0.01670057  1.0
  Ni  Ni472  1  0.49730133  0.33603200  0.01670057  1.0
  Ni  Ni473  1  0.49730133  0.66936533  0.01670057  1.0
  Ni  Ni474  1  0.83063467  0.00269867  0.01670057  1.0
  Ni  Ni475  1  0.83063467  0.33603200  0.01670057  1.0
  Ni  Ni476  1  0.83063467  0.66936533  0.01670057  1.0
  Ni  Ni477  1  0.00269867  0.25269867  0.09044229  1.0
  Ni  Ni478  1  0.00269867  0.58603200  0.09044229  1.0
  Ni  Ni479  1  0.00269867  0.91936533  0.09044229  1.0
  Ni  Ni480  1  0.33603200  0.25269867  0.09044229  1.0
  Ni  Ni481  1  0.33603200  0.58603200  0.09044229  1.0
  Ni  Ni482  1  0.33603200  0.91936533  0.09044229  1.0
  Ni  Ni483  1  0.66936533  0.25269867  0.09044229  1.0
  Ni  Ni484  1  0.66936533  0.58603200  0.09044229  1.0
  Ni  Ni485  1  0.66936533  0.91936533  0.09044229  1.0
  Ni  Ni486  1  0.08333333  0.25269867  0.05125829  1.0
  Ni  Ni487  1  0.08333333  0.58603200  0.05125829  1.0
  Ni  Ni488  1  0.08333333  0.91936533  0.05125829  1.0
  Ni  Ni489  1  0.41666667  0.25269867  0.05125829  1.0
  Ni  Ni490  1  0.41666667  0.58603200  0.05125829  1.0
  Ni  Ni491  1  0.41666667  0.91936533  0.05125829  1.0
  Ni  Ni492  1  0.75000000  0.25269867  0.05125829  1.0
  Ni  Ni493  1  0.75000000  0.58603200  0.05125829  1.0
  Ni  Ni494  1  0.75000000  0.91936533  0.05125829  1.0
  Ni  Ni495  1  0.25269867  0.00539733  0.12615657  1.0
  Ni  Ni496  1  0.25269867  0.33873067  0.12615657  1.0
  Ni  Ni497  1  0.25269867  0.67206400  0.12615657  1.0
  Ni  Ni498  1  0.58603200  0.00539733  0.12615657  1.0
  Ni  Ni499  1  0.58603200  0.33873067  0.12615657  1.0
  Ni  Ni500  1  0.58603200  0.67206400  0.12615657  1.0
  Ni  Ni501  1  0.91936533  0.00539733  0.12615657  1.0
  Ni  Ni502  1  0.91936533  0.33873067  0.12615657  1.0
  Ni  Ni503  1  0.91936533  0.67206400  0.12615657  1.0
  Ga  Ga504  1  0.00000000  0.00000000  0.19411543  1.0
  Ga  Ga505  1  0.00000000  0.33333333  0.19411543  1.0
  Ga  Ga506  1  0.00000000  0.66666667  0.19411543  1.0
  Ga  Ga507  1  0.33333333  0.00000000  0.19411543  1.0
  Ga  Ga508  1  0.33333333  0.33333333  0.19411543  1.0
  Ga  Ga509  1  0.33333333  0.66666667  0.19411543  1.0
  Ga  Ga510  1  0.66666667  0.00000000  0.19411543  1.0
  Ga  Ga511  1  0.66666667  0.33333333  0.19411543  1.0
  Ga  Ga512  1  0.66666667  0.66666667  0.19411543  1.0
  Ga  Ga513  1  0.00000000  0.16666667  0.26554400  1.0
  Ga  Ga514  1  0.00000000  0.50000000  0.26554400  1.0
  Ga  Ga515  1  0.00000000  0.83333333  0.26554400  1.0
  Ga  Ga516  1  0.33333333  0.16666667  0.26554400  1.0
  Ga  Ga517  1  0.33333333  0.50000000  0.26554400  1.0
  Ga  Ga518  1  0.33333333  0.83333333  0.26554400  1.0
  Ga  Ga519  1  0.66666667  0.16666667  0.26554400  1.0
  Ga  Ga520  1  0.66666667  0.50000000  0.26554400  1.0
  Ga  Ga521  1  0.66666667  0.83333333  0.26554400  1.0
  Ga  Ga522  1  0.16666667  0.16666667  0.19411543  1.0
  Ga  Ga523  1  0.16666667  0.50000000  0.19411543  1.0
  Ga  Ga524  1  0.16666667  0.83333333  0.19411543  1.0
  Ga  Ga525  1  0.50000000  0.16666667  0.19411543  1.0
  Ga  Ga526  1  0.50000000  0.50000000  0.19411543  1.0
  Ga  Ga527  1  0.50000000  0.83333333  0.19411543  1.0
  Ga  Ga528  1  0.83333333  0.16666667  0.19411543  1.0
  Ga  Ga529  1  0.83333333  0.50000000  0.19411543  1.0
  Ga  Ga530  1  0.83333333  0.83333333  0.19411543  1.0
  Ga  Ga531  1  0.00000000  0.00000000  0.26554400  1.0
  Ga  Ga532  1  0.00000000  0.33333333  0.26554400  1.0
  Ga  Ga533  1  0.00000000  0.66666667  0.26554400  1.0
  Ga  Ga534  1  0.33333333  0.00000000  0.26554400  1.0
  Ga  Ga535  1  0.33333333  0.33333333  0.26554400  1.0
  Ga  Ga536  1  0.33333333  0.66666667  0.26554400  1.0
  Ga  Ga537  1  0.66666667  0.00000000  0.26554400  1.0
  Ga  Ga538  1  0.66666667  0.33333333  0.26554400  1.0
  Ga  Ga539  1  0.66666667  0.66666667  0.26554400  1.0
  Ga  Ga540  1  0.16666667  0.00000000  0.26554400  1.0
  Ga  Ga541  1  0.16666667  0.33333333  0.26554400  1.0
  Ga  Ga542  1  0.16666667  0.66666667  0.26554400  1.0
  Ga  Ga543  1  0.50000000  0.00000000  0.26554400  1.0
  Ga  Ga544  1  0.50000000  0.33333333  0.26554400  1.0
  Ga  Ga545  1  0.50000000  0.66666667  0.26554400  1.0
  Ga  Ga546  1  0.83333333  0.00000000  0.26554400  1.0
  Ga  Ga547  1  0.83333333  0.33333333  0.26554400  1.0
  Ga  Ga548  1  0.83333333  0.66666667  0.26554400  1.0
  Ga  Ga549  1  0.16666667  0.16666667  0.26554400  1.0
  Ga  Ga550  1  0.16666667  0.50000000  0.26554400  1.0
  Ga  Ga551  1  0.16666667  0.83333333  0.26554400  1.0
  Ga  Ga552  1  0.50000000  0.16666667  0.26554400  1.0
  Ga  Ga553  1  0.50000000  0.50000000  0.26554400  1.0
  Ga  Ga554  1  0.50000000  0.83333333  0.26554400  1.0
  Ga  Ga555  1  0.83333333  0.16666667  0.26554400  1.0
  Ga  Ga556  1  0.83333333  0.50000000  0.26554400  1.0
  Ga  Ga557  1  0.83333333  0.83333333  0.26554400  1.0
  Ga  Ga558  1  0.00000000  0.16666667  0.19411543  1.0
  Ga  Ga559  1  0.00000000  0.50000000  0.19411543  1.0
  Ga  Ga560  1  0.00000000  0.83333333  0.19411543  1.0
  Ga  Ga561  1  0.33333333  0.16666667  0.19411543  1.0
  Ga  Ga562  1  0.33333333  0.50000000  0.19411543  1.0
  Ga  Ga563  1  0.33333333  0.83333333  0.19411543  1.0
  Ga  Ga564  1  0.66666667  0.16666667  0.19411543  1.0
  Ga  Ga565  1  0.66666667  0.50000000  0.19411543  1.0
  Ga  Ga566  1  0.66666667  0.83333333  0.19411543  1.0
  Ga  Ga567  1  0.16666667  0.00000000  0.19411543  1.0
  Ga  Ga568  1  0.16666667  0.33333333  0.19411543  1.0
  Ga  Ga569  1  0.16666667  0.66666667  0.19411543  1.0
  Ga  Ga570  1  0.50000000  0.00000000  0.19411543  1.0
  Ga  Ga571  1  0.50000000  0.33333333  0.19411543  1.0
  Ga  Ga572  1  0.50000000  0.66666667  0.19411543  1.0
  Ga  Ga573  1  0.83333333  0.00000000  0.19411543  1.0
  Ga  Ga574  1  0.83333333  0.33333333  0.19411543  1.0
  Ga  Ga575  1  0.83333333  0.66666667  0.19411543  1.0
  Ga  Ga576  1  0.32923217  0.08333333  0.26378636  1.0
  Ga  Ga577  1  0.32923217  0.41666667  0.26378636  1.0
  Ga  Ga578  1  0.32923217  0.75000000  0.26378636  1.0
  Ga  Ga579  1  0.66256550  0.08333333  0.26378636  1.0
  Ga  Ga580  1  0.66256550  0.41666667  0.26378636  1.0
  Ga  Ga581  1  0.66256550  0.75000000  0.26378636  1.0
  Ga  Ga582  1  0.99589883  0.08333333  0.26378636  1.0
  Ga  Ga583  1  0.99589883  0.41666667  0.26378636  1.0
  Ga  Ga584  1  0.99589883  0.75000000  0.26378636  1.0
  Ga  Ga585  1  0.32923217  0.24589883  0.19235779  1.0
  Ga  Ga586  1  0.32923217  0.57923217  0.19235779  1.0
  Ga  Ga587  1  0.32923217  0.91256550  0.19235779  1.0
  Ga  Ga588  1  0.66256550  0.24589883  0.19235779  1.0
  Ga  Ga589  1  0.66256550  0.57923217  0.19235779  1.0
  Ga  Ga590  1  0.66256550  0.91256550  0.19235779  1.0
  Ga  Ga591  1  0.99589883  0.24589883  0.19235779  1.0
  Ga  Ga592  1  0.99589883  0.57923217  0.19235779  1.0
  Ga  Ga593  1  0.99589883  0.91256550  0.19235779  1.0
  Ga  Ga594  1  0.17076783  0.25410117  0.26730164  1.0
  Ga  Ga595  1  0.17076783  0.58743450  0.26730164  1.0
  Ga  Ga596  1  0.17076783  0.92076783  0.26730164  1.0
  Ga  Ga597  1  0.50410117  0.25410117  0.26730164  1.0
  Ga  Ga598  1  0.50410117  0.58743450  0.26730164  1.0
  Ga  Ga599  1  0.50410117  0.92076783  0.26730164  1.0
  Ga  Ga600  1  0.83743450  0.25410117  0.26730164  1.0
  Ga  Ga601  1  0.83743450  0.58743450  0.26730164  1.0
  Ga  Ga602  1  0.83743450  0.92076783  0.26730164  1.0
  Ga  Ga603  1  0.25000000  0.32923217  0.22631443  1.0
  Ga  Ga604  1  0.25000000  0.66256550  0.22631443  1.0
  Ga  Ga605  1  0.25000000  0.99589883  0.22631443  1.0
  Ga  Ga606  1  0.58333333  0.32923217  0.22631443  1.0
  Ga  Ga607  1  0.58333333  0.66256550  0.22631443  1.0
  Ga  Ga608  1  0.58333333  0.99589883  0.22631443  1.0
  Ga  Ga609  1  0.91666667  0.32923217  0.22631443  1.0
  Ga  Ga610  1  0.91666667  0.66256550  0.22631443  1.0
  Ga  Ga611  1  0.91666667  0.99589883  0.22631443  1.0
  Ga  Ga612  1  0.08333333  0.17076783  0.16191643  1.0
  Ga  Ga613  1  0.08333333  0.50410117  0.16191643  1.0
  Ga  Ga614  1  0.08333333  0.83743450  0.16191643  1.0
  Ga  Ga615  1  0.41666667  0.17076783  0.16191643  1.0
  Ga  Ga616  1  0.41666667  0.50410117  0.16191643  1.0
  Ga  Ga617  1  0.41666667  0.83743450  0.16191643  1.0
  Ga  Ga618  1  0.75000000  0.17076783  0.16191643  1.0
  Ga  Ga619  1  0.75000000  0.50410117  0.16191643  1.0
  Ga  Ga620  1  0.75000000  0.83743450  0.16191643  1.0
  Ga  Ga621  1  0.24589883  0.25000000  0.22807207  1.0
  Ga  Ga622  1  0.24589883  0.58333333  0.22807207  1.0
  Ga  Ga623  1  0.24589883  0.91666667  0.22807207  1.0
  Ga  Ga624  1  0.57923217  0.25000000  0.22807207  1.0
  Ga  Ga625  1  0.57923217  0.58333333  0.22807207  1.0
  Ga  Ga626  1  0.57923217  0.91666667  0.22807207  1.0
  Ga  Ga627  1  0.91256550  0.25000000  0.22807207  1.0
  Ga  Ga628  1  0.91256550  0.58333333  0.22807207  1.0
  Ga  Ga629  1  0.91256550  0.91666667  0.22807207  1.0
  Ga  Ga630  1  0.08333333  0.24589883  0.22631443  1.0
  Ga  Ga631  1  0.08333333  0.57923217  0.22631443  1.0
  Ga  Ga632  1  0.08333333  0.91256550  0.22631443  1.0
  Ga  Ga633  1  0.41666667  0.24589883  0.22631443  1.0
  Ga  Ga634  1  0.41666667  0.57923217  0.22631443  1.0
  Ga  Ga635  1  0.41666667  0.91256550  0.22631443  1.0
  Ga  Ga636  1  0.75000000  0.24589883  0.22631443  1.0
  Ga  Ga637  1  0.75000000  0.57923217  0.22631443  1.0
  Ga  Ga638  1  0.75000000  0.91256550  0.22631443  1.0
  Ga  Ga639  1  0.25410117  0.17076783  0.16015879  1.0
  Ga  Ga640  1  0.25410117  0.50410117  0.16015879  1.0
  Ga  Ga641  1  0.25410117  0.83743450  0.16015879  1.0
  Ga  Ga642  1  0.58743450  0.17076783  0.16015879  1.0
  Ga  Ga643  1  0.58743450  0.50410117  0.16015879  1.0
  Ga  Ga644  1  0.58743450  0.83743450  0.16015879  1.0
  Ga  Ga645  1  0.92076783  0.17076783  0.16015879  1.0
  Ga  Ga646  1  0.92076783  0.50410117  0.16015879  1.0
  Ga  Ga647  1  0.92076783  0.83743450  0.16015879  1.0
  Ga  Ga648  1  0.25000000  0.25410117  0.16191643  1.0
  Ga  Ga649  1  0.25000000  0.58743450  0.16191643  1.0
  Ga  Ga650  1  0.25000000  0.92076783  0.16191643  1.0
  Ga  Ga651  1  0.58333333  0.25410117  0.16191643  1.0
  Ga  Ga652  1  0.58333333  0.58743450  0.16191643  1.0
  Ga  Ga653  1  0.58333333  0.92076783  0.16191643  1.0
  Ga  Ga654  1  0.91666667  0.25410117  0.16191643  1.0
  Ga  Ga655  1  0.91666667  0.58743450  0.16191643  1.0
  Ga  Ga656  1  0.91666667  0.92076783  0.16191643  1.0
  Ga  Ga657  1  0.24589883  0.32923217  0.15664350  1.0
  Ga  Ga658  1  0.24589883  0.66256550  0.15664350  1.0
  Ga  Ga659  1  0.24589883  0.99589883  0.15664350  1.0
  Ga  Ga660  1  0.57923217  0.32923217  0.15664350  1.0
  Ga  Ga661  1  0.57923217  0.66256550  0.15664350  1.0
  Ga  Ga662  1  0.57923217  0.99589883  0.15664350  1.0
  Ga  Ga663  1  0.91256550  0.32923217  0.15664350  1.0
  Ga  Ga664  1  0.91256550  0.66256550  0.15664350  1.0
  Ga  Ga665  1  0.91256550  0.99589883  0.15664350  1.0
  Ga  Ga666  1  0.17076783  0.25000000  0.19587307  1.0
  Ga  Ga667  1  0.17076783  0.58333333  0.19587307  1.0
  Ga  Ga668  1  0.17076783  0.91666667  0.19587307  1.0
  Ga  Ga669  1  0.50410117  0.25000000  0.19587307  1.0
  Ga  Ga670  1  0.50410117  0.58333333  0.19587307  1.0
  Ga  Ga671  1  0.50410117  0.91666667  0.19587307  1.0
  Ga  Ga672  1  0.83743450  0.25000000  0.19587307  1.0
  Ga  Ga673  1  0.83743450  0.58333333  0.19587307  1.0
  Ga  Ga674  1  0.83743450  0.91666667  0.19587307  1.0
  Ga  Ga675  1  0.25410117  0.08333333  0.23158736  1.0
  Ga  Ga676  1  0.25410117  0.41666667  0.23158736  1.0
  Ga  Ga677  1  0.25410117  0.75000000  0.23158736  1.0
  Ga  Ga678  1  0.58743450  0.08333333  0.23158736  1.0
  Ga  Ga679  1  0.58743450  0.41666667  0.23158736  1.0
  Ga  Ga680  1  0.58743450  0.75000000  0.23158736  1.0
  Ga  Ga681  1  0.92076783  0.08333333  0.23158736  1.0
  Ga  Ga682  1  0.92076783  0.41666667  0.23158736  1.0
  Ga  Ga683  1  0.92076783  0.75000000  0.23158736  1.0
  Ga  Ga684  1  0.00410117  0.25000000  0.26730164  1.0
  Ga  Ga685  1  0.00410117  0.58333333  0.26730164  1.0
  Ga  Ga686  1  0.00410117  0.91666667  0.26730164  1.0
  Ga  Ga687  1  0.33743450  0.25000000  0.26730164  1.0
  Ga  Ga688  1  0.33743450  0.58333333  0.26730164  1.0
  Ga  Ga689  1  0.33743450  0.91666667  0.26730164  1.0
  Ga  Ga690  1  0.67076783  0.25000000  0.26730164  1.0
  Ga  Ga691  1  0.67076783  0.58333333  0.26730164  1.0
  Ga  Ga692  1  0.67076783  0.91666667  0.26730164  1.0
  Ga  Ga693  1  0.00410117  0.08743450  0.19587307  1.0
  Ga  Ga694  1  0.00410117  0.42076783  0.19587307  1.0
  Ga  Ga695  1  0.00410117  0.75410117  0.19587307  1.0
  Ga  Ga696  1  0.33743450  0.08743450  0.19587307  1.0
  Ga  Ga697  1  0.33743450  0.42076783  0.19587307  1.0
  Ga  Ga698  1  0.33743450  0.75410117  0.19587307  1.0
  Ga  Ga699  1  0.67076783  0.08743450  0.19587307  1.0
  Ga  Ga700  1  0.67076783  0.42076783  0.19587307  1.0
  Ga  Ga701  1  0.67076783  0.75410117  0.19587307  1.0
  Ga  Ga702  1  0.16256550  0.07923217  0.26378636  1.0
  Ga  Ga703  1  0.16256550  0.41256550  0.26378636  1.0
  Ga  Ga704  1  0.16256550  0.74589883  0.26378636  1.0
  Ga  Ga705  1  0.49589883  0.07923217  0.26378636  1.0
  Ga  Ga706  1  0.49589883  0.41256550  0.26378636  1.0
  Ga  Ga707  1  0.49589883  0.74589883  0.26378636  1.0
  Ga  Ga708  1  0.82923217  0.07923217  0.26378636  1.0
  Ga  Ga709  1  0.82923217  0.41256550  0.26378636  1.0
  Ga  Ga710  1  0.82923217  0.74589883  0.26378636  1.0
  Ga  Ga711  1  0.08333333  0.00410117  0.16191643  1.0
  Ga  Ga712  1  0.08333333  0.33743450  0.16191643  1.0
  Ga  Ga713  1  0.08333333  0.67076783  0.16191643  1.0
  Ga  Ga714  1  0.41666667  0.00410117  0.16191643  1.0
  Ga  Ga715  1  0.41666667  0.33743450  0.16191643  1.0
  Ga  Ga716  1  0.41666667  0.67076783  0.16191643  1.0
  Ga  Ga717  1  0.75000000  0.00410117  0.16191643  1.0
  Ga  Ga718  1  0.75000000  0.33743450  0.16191643  1.0
  Ga  Ga719  1  0.75000000  0.67076783  0.16191643  1.0
  Ga  Ga720  1  0.25000000  0.16256550  0.22631443  1.0
  Ga  Ga721  1  0.25000000  0.49589883  0.22631443  1.0
  Ga  Ga722  1  0.25000000  0.82923217  0.22631443  1.0
  Ga  Ga723  1  0.58333333  0.16256550  0.22631443  1.0
  Ga  Ga724  1  0.58333333  0.49589883  0.22631443  1.0
  Ga  Ga725  1  0.58333333  0.82923217  0.22631443  1.0
  Ga  Ga726  1  0.91666667  0.16256550  0.22631443  1.0
  Ga  Ga727  1  0.91666667  0.49589883  0.22631443  1.0
  Ga  Ga728  1  0.91666667  0.82923217  0.22631443  1.0
  Ga  Ga729  1  0.08743450  0.08333333  0.16015879  1.0
  Ga  Ga730  1  0.08743450  0.41666667  0.16015879  1.0
  Ga  Ga731  1  0.08743450  0.75000000  0.16015879  1.0
  Ga  Ga732  1  0.42076783  0.08333333  0.16015879  1.0
  Ga  Ga733  1  0.42076783  0.41666667  0.16015879  1.0
  Ga  Ga734  1  0.42076783  0.75000000  0.16015879  1.0
  Ga  Ga735  1  0.75410117  0.08333333  0.16015879  1.0
  Ga  Ga736  1  0.75410117  0.41666667  0.16015879  1.0
  Ga  Ga737  1  0.75410117  0.75000000  0.16015879  1.0
  Ga  Ga738  1  0.25000000  0.08743450  0.16191643  1.0
  Ga  Ga739  1  0.25000000  0.42076783  0.16191643  1.0
  Ga  Ga740  1  0.25000000  0.75410117  0.16191643  1.0
  Ga  Ga741  1  0.58333333  0.08743450  0.16191643  1.0
  Ga  Ga742  1  0.58333333  0.42076783  0.16191643  1.0
  Ga  Ga743  1  0.58333333  0.75410117  0.16191643  1.0
  Ga  Ga744  1  0.91666667  0.08743450  0.16191643  1.0
  Ga  Ga745  1  0.91666667  0.42076783  0.16191643  1.0
  Ga  Ga746  1  0.91666667  0.75410117  0.16191643  1.0
  Ga  Ga747  1  0.07923217  0.16256550  0.22807207  1.0
  Ga  Ga748  1  0.07923217  0.49589883  0.22807207  1.0
  Ga  Ga749  1  0.07923217  0.82923217  0.22807207  1.0
  Ga  Ga750  1  0.41256550  0.16256550  0.22807207  1.0
  Ga  Ga751  1  0.41256550  0.49589883  0.22807207  1.0
  Ga  Ga752  1  0.41256550  0.82923217  0.22807207  1.0
  Ga  Ga753  1  0.74589883  0.16256550  0.22807207  1.0
  Ga  Ga754  1  0.74589883  0.49589883  0.22807207  1.0
  Ga  Ga755  1  0.74589883  0.82923217  0.22807207  1.0
  Ga  Ga756  1  0.08333333  0.07923217  0.22631443  1.0
  Ga  Ga757  1  0.08333333  0.41256550  0.22631443  1.0
  Ga  Ga758  1  0.08333333  0.74589883  0.22631443  1.0
  Ga  Ga759  1  0.41666667  0.07923217  0.22631443  1.0
  Ga  Ga760  1  0.41666667  0.41256550  0.22631443  1.0
  Ga  Ga761  1  0.41666667  0.74589883  0.22631443  1.0
  Ga  Ga762  1  0.75000000  0.07923217  0.22631443  1.0
  Ga  Ga763  1  0.75000000  0.41256550  0.22631443  1.0
  Ga  Ga764  1  0.75000000  0.74589883  0.22631443  1.0
  Ga  Ga765  1  0.08743450  0.00410117  0.23158736  1.0
  Ga  Ga766  1  0.08743450  0.33743450  0.23158736  1.0
  Ga  Ga767  1  0.08743450  0.67076783  0.23158736  1.0
  Ga  Ga768  1  0.42076783  0.00410117  0.23158736  1.0
  Ga  Ga769  1  0.42076783  0.33743450  0.23158736  1.0
  Ga  Ga770  1  0.42076783  0.67076783  0.23158736  1.0
  Ga  Ga771  1  0.75410117  0.00410117  0.23158736  1.0
  Ga  Ga772  1  0.75410117  0.33743450  0.23158736  1.0
  Ga  Ga773  1  0.75410117  0.67076783  0.23158736  1.0
  Ga  Ga774  1  0.16256550  0.08333333  0.19235779  1.0
  Ga  Ga775  1  0.16256550  0.41666667  0.19235779  1.0
  Ga  Ga776  1  0.16256550  0.75000000  0.19235779  1.0
  Ga  Ga777  1  0.49589883  0.08333333  0.19235779  1.0
  Ga  Ga778  1  0.49589883  0.41666667  0.19235779  1.0
  Ga  Ga779  1  0.49589883  0.75000000  0.19235779  1.0
  Ga  Ga780  1  0.82923217  0.08333333  0.19235779  1.0
  Ga  Ga781  1  0.82923217  0.41666667  0.19235779  1.0
  Ga  Ga782  1  0.82923217  0.75000000  0.19235779  1.0
  Ga  Ga783  1  0.07923217  0.25000000  0.15664350  1.0
  Ga  Ga784  1  0.07923217  0.58333333  0.15664350  1.0
  Ga  Ga785  1  0.07923217  0.91666667  0.15664350  1.0
  Ga  Ga786  1  0.41256550  0.25000000  0.15664350  1.0
  Ga  Ga787  1  0.41256550  0.58333333  0.15664350  1.0
  Ga  Ga788  1  0.41256550  0.91666667  0.15664350  1.0
  Ga  Ga789  1  0.74589883  0.25000000  0.15664350  1.0
  Ga  Ga790  1  0.74589883  0.58333333  0.15664350  1.0
  Ga  Ga791  1  0.74589883  0.91666667  0.15664350  1.0
  Ni  Ni792  1  0.16936533  0.17206400  0.23329943  1.0
  Ni  Ni793  1  0.16936533  0.50539733  0.23329943  1.0
  Ni  Ni794  1  0.16936533  0.83873067  0.23329943  1.0
  Ni  Ni795  1  0.50269867  0.17206400  0.23329943  1.0
  Ni  Ni796  1  0.50269867  0.50539733  0.23329943  1.0
  Ni  Ni797  1  0.50269867  0.83873067  0.23329943  1.0
  Ni  Ni798  1  0.83603200  0.17206400  0.23329943  1.0
  Ni  Ni799  1  0.83603200  0.50539733  0.23329943  1.0
  Ni  Ni800  1  0.83603200  0.83873067  0.23329943  1.0
  Ni  Ni801  1  0.08063467  0.08603200  0.26670057  1.0
  Ni  Ni802  1  0.08063467  0.41936533  0.26670057  1.0
  Ni  Ni803  1  0.08063467  0.75269867  0.26670057  1.0
  Ni  Ni804  1  0.41396800  0.08603200  0.26670057  1.0
  Ni  Ni805  1  0.41396800  0.41936533  0.26670057  1.0
  Ni  Ni806  1  0.41396800  0.75269867  0.26670057  1.0
  Ni  Ni807  1  0.74730133  0.08603200  0.26670057  1.0
  Ni  Ni808  1  0.74730133  0.41936533  0.26670057  1.0
  Ni  Ni809  1  0.74730133  0.75269867  0.26670057  1.0
  Ni  Ni810  1  0.08603200  0.16936533  0.26901371  1.0
  Ni  Ni811  1  0.08603200  0.50269867  0.26901371  1.0
  Ni  Ni812  1  0.08603200  0.83603200  0.26901371  1.0
  Ni  Ni813  1  0.41936533  0.16936533  0.26901371  1.0
  Ni  Ni814  1  0.41936533  0.50269867  0.26901371  1.0
  Ni  Ni815  1  0.41936533  0.83603200  0.26901371  1.0
  Ni  Ni816  1  0.75269867  0.16936533  0.26901371  1.0
  Ni  Ni817  1  0.75269867  0.50269867  0.26901371  1.0
  Ni  Ni818  1  0.75269867  0.83603200  0.26901371  1.0
  Ni  Ni819  1  0.25000000  0.16936533  0.19411543  1.0
  Ni  Ni820  1  0.25000000  0.50269867  0.19411543  1.0
  Ni  Ni821  1  0.25000000  0.83603200  0.19411543  1.0
  Ni  Ni822  1  0.58333333  0.16936533  0.19411543  1.0
  Ni  Ni823  1  0.58333333  0.50269867  0.19411543  1.0
  Ni  Ni824  1  0.58333333  0.83603200  0.19411543  1.0
  Ni  Ni825  1  0.91666667  0.16936533  0.19411543  1.0
  Ni  Ni826  1  0.91666667  0.50269867  0.19411543  1.0
  Ni  Ni827  1  0.91666667  0.83603200  0.19411543  1.0
  Ni  Ni828  1  0.17206400  0.08603200  0.23214286  1.0
  Ni  Ni829  1  0.17206400  0.41936533  0.23214286  1.0
  Ni  Ni830  1  0.17206400  0.75269867  0.23214286  1.0
  Ni  Ni831  1  0.50539733  0.08603200  0.23214286  1.0
  Ni  Ni832  1  0.50539733  0.41936533  0.23214286  1.0
  Ni  Ni833  1  0.50539733  0.75269867  0.23214286  1.0
  Ni  Ni834  1  0.83873067  0.08603200  0.23214286  1.0
  Ni  Ni835  1  0.83873067  0.41936533  0.23214286  1.0
  Ni  Ni836  1  0.83873067  0.75269867  0.23214286  1.0
  Ni  Ni837  1  0.08603200  0.25000000  0.26438743  1.0
  Ni  Ni838  1  0.08603200  0.58333333  0.26438743  1.0
  Ni  Ni839  1  0.08603200  0.91666667  0.26438743  1.0
  Ni  Ni840  1  0.41936533  0.25000000  0.26438743  1.0
  Ni  Ni841  1  0.41936533  0.58333333  0.26438743  1.0
  Ni  Ni842  1  0.41936533  0.91666667  0.26438743  1.0
  Ni  Ni843  1  0.75269867  0.25000000  0.26438743  1.0
  Ni  Ni844  1  0.75269867  0.58333333  0.26438743  1.0
  Ni  Ni845  1  0.75269867  0.91666667  0.26438743  1.0
  Ni  Ni846  1  0.33063467  0.25000000  0.15955771  1.0
  Ni  Ni847  1  0.33063467  0.58333333  0.15955771  1.0
  Ni  Ni848  1  0.33063467  0.91666667  0.15955771  1.0
  Ni  Ni849  1  0.66396800  0.25000000  0.15955771  1.0
  Ni  Ni850  1  0.66396800  0.58333333  0.15955771  1.0
  Ni  Ni851  1  0.66396800  0.91666667  0.15955771  1.0
  Ni  Ni852  1  0.99730133  0.25000000  0.15955771  1.0
  Ni  Ni853  1  0.99730133  0.58333333  0.15955771  1.0
  Ni  Ni854  1  0.99730133  0.91666667  0.15955771  1.0
  Ni  Ni855  1  0.32793600  0.33063467  0.15608800  1.0
  Ni  Ni856  1  0.32793600  0.66396800  0.15608800  1.0
  Ni  Ni857  1  0.32793600  0.99730133  0.15608800  1.0
  Ni  Ni858  1  0.66126933  0.33063467  0.15608800  1.0
  Ni  Ni859  1  0.66126933  0.66396800  0.15608800  1.0
  Ni  Ni860  1  0.66126933  0.99730133  0.15608800  1.0
  Ni  Ni861  1  0.99460267  0.33063467  0.15608800  1.0
  Ni  Ni862  1  0.99460267  0.66396800  0.15608800  1.0
  Ni  Ni863  1  0.99460267  0.99730133  0.15608800  1.0
  Ni  Ni864  1  0.16936533  0.33063467  0.22867314  1.0
  Ni  Ni865  1  0.16936533  0.66396800  0.22867314  1.0
  Ni  Ni866  1  0.16936533  0.99730133  0.22867314  1.0
  Ni  Ni867  1  0.50269867  0.33063467  0.22867314  1.0
  Ni  Ni868  1  0.50269867  0.66396800  0.22867314  1.0
  Ni  Ni869  1  0.50269867  0.99730133  0.22867314  1.0
  Ni  Ni870  1  0.83603200  0.33063467  0.22867314  1.0
  Ni  Ni871  1  0.83603200  0.66396800  0.22867314  1.0
  Ni  Ni872  1  0.83603200  0.99730133  0.22867314  1.0
  Ni  Ni873  1  0.33063467  0.08063467  0.15493143  1.0
  Ni  Ni874  1  0.33063467  0.41396800  0.15493143  1.0
  Ni  Ni875  1  0.33063467  0.74730133  0.15493143  1.0
  Ni  Ni876  1  0.66396800  0.08063467  0.15493143  1.0
  Ni  Ni877  1  0.66396800  0.41396800  0.15493143  1.0
  Ni  Ni878  1  0.66396800  0.74730133  0.15493143  1.0
  Ni  Ni879  1  0.99730133  0.08063467  0.15493143  1.0
  Ni  Ni880  1  0.99730133  0.41396800  0.15493143  1.0
  Ni  Ni881  1  0.99730133  0.74730133  0.15493143  1.0
  Ni  Ni882  1  0.25000000  0.08063467  0.19411543  1.0
  Ni  Ni883  1  0.25000000  0.41396800  0.19411543  1.0
  Ni  Ni884  1  0.25000000  0.74730133  0.19411543  1.0
  Ni  Ni885  1  0.58333333  0.08063467  0.19411543  1.0
  Ni  Ni886  1  0.58333333  0.41396800  0.19411543  1.0
  Ni  Ni887  1  0.58333333  0.74730133  0.19411543  1.0
  Ni  Ni888  1  0.91666667  0.08063467  0.19411543  1.0
  Ni  Ni889  1  0.91666667  0.41396800  0.19411543  1.0
  Ni  Ni890  1  0.91666667  0.74730133  0.19411543  1.0
  Ni  Ni891  1  0.08063467  0.32793600  0.26207429  1.0
  Ni  Ni892  1  0.08063467  0.66126933  0.26207429  1.0
  Ni  Ni893  1  0.08063467  0.99460267  0.26207429  1.0
  Ni  Ni894  1  0.41396800  0.32793600  0.26207429  1.0
  Ni  Ni895  1  0.41396800  0.66126933  0.26207429  1.0
  Ni  Ni896  1  0.41396800  0.99460267  0.26207429  1.0
  Ni  Ni897  1  0.74730133  0.32793600  0.26207429  1.0
  Ni  Ni898  1  0.74730133  0.66126933  0.26207429  1.0
  Ni  Ni899  1  0.74730133  0.99460267  0.26207429  1.0
  Ni  Ni900  1  0.16396800  0.16126933  0.15493143  1.0
  Ni  Ni901  1  0.16396800  0.49460267  0.15493143  1.0
  Ni  Ni902  1  0.16396800  0.82793600  0.15493143  1.0
  Ni  Ni903  1  0.49730133  0.16126933  0.15493143  1.0
  Ni  Ni904  1  0.49730133  0.49460267  0.15493143  1.0
  Ni  Ni905  1  0.49730133  0.82793600  0.15493143  1.0
  Ni  Ni906  1  0.83063467  0.16126933  0.15493143  1.0
  Ni  Ni907  1  0.83063467  0.49460267  0.15493143  1.0
  Ni  Ni908  1  0.83063467  0.82793600  0.15493143  1.0
  Ni  Ni909  1  0.25269867  0.24730133  0.26438743  1.0
  Ni  Ni910  1  0.25269867  0.58063467  0.26438743  1.0
  Ni  Ni911  1  0.25269867  0.91396800  0.26438743  1.0
  Ni  Ni912  1  0.58603200  0.24730133  0.26438743  1.0
  Ni  Ni913  1  0.58603200  0.58063467  0.26438743  1.0
  Ni  Ni914  1  0.58603200  0.91396800  0.26438743  1.0
  Ni  Ni915  1  0.91936533  0.24730133  0.26438743  1.0
  Ni  Ni916  1  0.91936533  0.58063467  0.26438743  1.0
  Ni  Ni917  1  0.91936533  0.91396800  0.26438743  1.0
  Ni  Ni918  1  0.24730133  0.16396800  0.26207429  1.0
  Ni  Ni919  1  0.24730133  0.49730133  0.26207429  1.0
  Ni  Ni920  1  0.24730133  0.83063467  0.26207429  1.0
  Ni  Ni921  1  0.58063467  0.16396800  0.26207429  1.0
  Ni  Ni922  1  0.58063467  0.49730133  0.26207429  1.0
  Ni  Ni923  1  0.58063467  0.83063467  0.26207429  1.0
  Ni  Ni924  1  0.91396800  0.16396800  0.26207429  1.0
  Ni  Ni925  1  0.91396800  0.49730133  0.26207429  1.0
  Ni  Ni926  1  0.91396800  0.83063467  0.26207429  1.0
  Ni  Ni927  1  0.08333333  0.16396800  0.19411543  1.0
  Ni  Ni928  1  0.08333333  0.49730133  0.19411543  1.0
  Ni  Ni929  1  0.08333333  0.83063467  0.19411543  1.0
  Ni  Ni930  1  0.41666667  0.16396800  0.19411543  1.0
  Ni  Ni931  1  0.41666667  0.49730133  0.19411543  1.0
  Ni  Ni932  1  0.41666667  0.83063467  0.19411543  1.0
  Ni  Ni933  1  0.75000000  0.16396800  0.19411543  1.0
  Ni  Ni934  1  0.75000000  0.49730133  0.19411543  1.0
  Ni  Ni935  1  0.75000000  0.83063467  0.19411543  1.0
  Ni  Ni936  1  0.16126933  0.24730133  0.15608800  1.0
  Ni  Ni937  1  0.16126933  0.58063467  0.15608800  1.0
  Ni  Ni938  1  0.16126933  0.91396800  0.15608800  1.0
  Ni  Ni939  1  0.49460267  0.24730133  0.15608800  1.0
  Ni  Ni940  1  0.49460267  0.58063467  0.15608800  1.0
  Ni  Ni941  1  0.49460267  0.91396800  0.15608800  1.0
  Ni  Ni942  1  0.82793600  0.24730133  0.15608800  1.0
  Ni  Ni943  1  0.82793600  0.58063467  0.15608800  1.0
  Ni  Ni944  1  0.82793600  0.91396800  0.15608800  1.0
  Ni  Ni945  1  0.24730133  0.08333333  0.26670057  1.0
  Ni  Ni946  1  0.24730133  0.41666667  0.26670057  1.0
  Ni  Ni947  1  0.24730133  0.75000000  0.26670057  1.0
  Ni  Ni948  1  0.58063467  0.08333333  0.26670057  1.0
  Ni  Ni949  1  0.58063467  0.41666667  0.26670057  1.0
  Ni  Ni950  1  0.58063467  0.75000000  0.26670057  1.0
  Ni  Ni951  1  0.91396800  0.08333333  0.26670057  1.0
  Ni  Ni952  1  0.91396800  0.41666667  0.26670057  1.0
  Ni  Ni953  1  0.91396800  0.75000000  0.26670057  1.0
  Ni  Ni954  1  0.00269867  0.08333333  0.22867314  1.0
  Ni  Ni955  1  0.00269867  0.41666667  0.22867314  1.0
  Ni  Ni956  1  0.00269867  0.75000000  0.22867314  1.0
  Ni  Ni957  1  0.33603200  0.08333333  0.22867314  1.0
  Ni  Ni958  1  0.33603200  0.41666667  0.22867314  1.0
  Ni  Ni959  1  0.33603200  0.75000000  0.22867314  1.0
  Ni  Ni960  1  0.66936533  0.08333333  0.22867314  1.0
  Ni  Ni961  1  0.66936533  0.41666667  0.22867314  1.0
  Ni  Ni962  1  0.66936533  0.75000000  0.22867314  1.0
  Ni  Ni963  1  0.00539733  0.00269867  0.23214286  1.0
  Ni  Ni964  1  0.00539733  0.33603200  0.23214286  1.0
  Ni  Ni965  1  0.00539733  0.66936533  0.23214286  1.0
  Ni  Ni966  1  0.33873067  0.00269867  0.23214286  1.0
  Ni  Ni967  1  0.33873067  0.33603200  0.23214286  1.0
  Ni  Ni968  1  0.33873067  0.66936533  0.23214286  1.0
  Ni  Ni969  1  0.67206400  0.00269867  0.23214286  1.0
  Ni  Ni970  1  0.67206400  0.33603200  0.23214286  1.0
  Ni  Ni971  1  0.67206400  0.66936533  0.23214286  1.0
  Ni  Ni972  1  0.16396800  0.00269867  0.15955771  1.0
  Ni  Ni973  1  0.16396800  0.33603200  0.15955771  1.0
  Ni  Ni974  1  0.16396800  0.66936533  0.15955771  1.0
  Ni  Ni975  1  0.49730133  0.00269867  0.15955771  1.0
  Ni  Ni976  1  0.49730133  0.33603200  0.15955771  1.0
  Ni  Ni977  1  0.49730133  0.66936533  0.15955771  1.0
  Ni  Ni978  1  0.83063467  0.00269867  0.15955771  1.0
  Ni  Ni979  1  0.83063467  0.33603200  0.15955771  1.0
  Ni  Ni980  1  0.83063467  0.66936533  0.15955771  1.0
  Ni  Ni981  1  0.00269867  0.25269867  0.23329943  1.0
  Ni  Ni982  1  0.00269867  0.58603200  0.23329943  1.0
  Ni  Ni983  1  0.00269867  0.91936533  0.23329943  1.0
  Ni  Ni984  1  0.33603200  0.25269867  0.23329943  1.0
  Ni  Ni985  1  0.33603200  0.58603200  0.23329943  1.0
  Ni  Ni986  1  0.33603200  0.91936533  0.23329943  1.0
  Ni  Ni987  1  0.66936533  0.25269867  0.23329943  1.0
  Ni  Ni988  1  0.66936533  0.58603200  0.23329943  1.0
  Ni  Ni989  1  0.66936533  0.91936533  0.23329943  1.0
  Ni  Ni990  1  0.08333333  0.25269867  0.19411543  1.0
  Ni  Ni991  1  0.08333333  0.58603200  0.19411543  1.0
  Ni  Ni992  1  0.08333333  0.91936533  0.19411543  1.0
  Ni  Ni993  1  0.41666667  0.25269867  0.19411543  1.0
  Ni  Ni994  1  0.41666667  0.58603200  0.19411543  1.0
  Ni  Ni995  1  0.41666667  0.91936533  0.19411543  1.0
  Ni  Ni996  1  0.75000000  0.25269867  0.19411543  1.0
  Ni  Ni997  1  0.75000000  0.58603200  0.19411543  1.0
  Ni  Ni998  1  0.75000000  0.91936533  0.19411543  1.0
  Ni  Ni999  1  0.25269867  0.00539733  0.26901371  1.0
  Ni  Ni1000  1  0.25269867  0.33873067  0.26901371  1.0
  Ni  Ni1001  1  0.25269867  0.67206400  0.26901371  1.0
  Ni  Ni1002  1  0.58603200  0.00539733  0.26901371  1.0
  Ni  Ni1003  1  0.58603200  0.33873067  0.26901371  1.0
  Ni  Ni1004  1  0.58603200  0.67206400  0.26901371  1.0
  Ni  Ni1005  1  0.91936533  0.00539733  0.26901371  1.0
  Ni  Ni1006  1  0.91936533  0.33873067  0.26901371  1.0
  Ni  Ni1007  1  0.91936533  0.67206400  0.26901371  1.0
  Ga  Ga1008  1  0.00000000  0.00000000  0.33697257  1.0
  Ga  Ga1009  1  0.00000000  0.33333333  0.33697257  1.0
  Ga  Ga1010  1  0.00000000  0.66666667  0.33697257  1.0
  Ga  Ga1011  1  0.33333333  0.00000000  0.33697257  1.0
  Ga  Ga1012  1  0.33333333  0.33333333  0.33697257  1.0
  Ga  Ga1013  1  0.33333333  0.66666667  0.33697257  1.0
  Ga  Ga1014  1  0.66666667  0.00000000  0.33697257  1.0
  Ga  Ga1015  1  0.66666667  0.33333333  0.33697257  1.0
  Ga  Ga1016  1  0.66666667  0.66666667  0.33697257  1.0
  Ga  Ga1017  1  0.00000000  0.16666667  0.40840114  1.0
  Ga  Ga1018  1  0.00000000  0.50000000  0.40840114  1.0
  Ga  Ga1019  1  0.00000000  0.83333333  0.40840114  1.0
  Ga  Ga1020  1  0.33333333  0.16666667  0.40840114  1.0
  Ga  Ga1021  1  0.33333333  0.50000000  0.40840114  1.0
  Ga  Ga1022  1  0.33333333  0.83333333  0.40840114  1.0
  Ga  Ga1023  1  0.66666667  0.16666667  0.40840114  1.0
  Ga  Ga1024  1  0.66666667  0.50000000  0.40840114  1.0
  Ga  Ga1025  1  0.66666667  0.83333333  0.40840114  1.0
  Ga  Ga1026  1  0.16666667  0.16666667  0.33697257  1.0
  Ga  Ga1027  1  0.16666667  0.50000000  0.33697257  1.0
  Ga  Ga1028  1  0.16666667  0.83333333  0.33697257  1.0
  Ga  Ga1029  1  0.50000000  0.16666667  0.33697257  1.0
  Ga  Ga1030  1  0.50000000  0.50000000  0.33697257  1.0
  Ga  Ga1031  1  0.50000000  0.83333333  0.33697257  1.0
  Ga  Ga1032  1  0.83333333  0.16666667  0.33697257  1.0
  Ga  Ga1033  1  0.83333333  0.50000000  0.33697257  1.0
  Ga  Ga1034  1  0.83333333  0.83333333  0.33697257  1.0
  Ga  Ga1035  1  0.00000000  0.00000000  0.40840114  1.0
  Ga  Ga1036  1  0.00000000  0.33333333  0.40840114  1.0
  Ga  Ga1037  1  0.00000000  0.66666667  0.40840114  1.0
  Ga  Ga1038  1  0.33333333  0.00000000  0.40840114  1.0
  Ga  Ga1039  1  0.33333333  0.33333333  0.40840114  1.0
  Ga  Ga1040  1  0.33333333  0.66666667  0.40840114  1.0
  Ga  Ga1041  1  0.66666667  0.00000000  0.40840114  1.0
  Ga  Ga1042  1  0.66666667  0.33333333  0.40840114  1.0
  Ga  Ga1043  1  0.66666667  0.66666667  0.40840114  1.0
  Ga  Ga1044  1  0.16666667  0.00000000  0.40840114  1.0
  Ga  Ga1045  1  0.16666667  0.33333333  0.40840114  1.0
  Ga  Ga1046  1  0.16666667  0.66666667  0.40840114  1.0
  Ga  Ga1047  1  0.50000000  0.00000000  0.40840114  1.0
  Ga  Ga1048  1  0.50000000  0.33333333  0.40840114  1.0
  Ga  Ga1049  1  0.50000000  0.66666667  0.40840114  1.0
  Ga  Ga1050  1  0.83333333  0.00000000  0.40840114  1.0
  Ga  Ga1051  1  0.83333333  0.33333333  0.40840114  1.0
  Ga  Ga1052  1  0.83333333  0.66666667  0.40840114  1.0
  Ga  Ga1053  1  0.16666667  0.16666667  0.40840114  1.0
  Ga  Ga1054  1  0.16666667  0.50000000  0.40840114  1.0
  Ga  Ga1055  1  0.16666667  0.83333333  0.40840114  1.0
  Ga  Ga1056  1  0.50000000  0.16666667  0.40840114  1.0
  Ga  Ga1057  1  0.50000000  0.50000000  0.40840114  1.0
  Ga  Ga1058  1  0.50000000  0.83333333  0.40840114  1.0
  Ga  Ga1059  1  0.83333333  0.16666667  0.40840114  1.0
  Ga  Ga1060  1  0.83333333  0.50000000  0.40840114  1.0
  Ga  Ga1061  1  0.83333333  0.83333333  0.40840114  1.0
  Ga  Ga1062  1  0.00000000  0.16666667  0.33697257  1.0
  Ga  Ga1063  1  0.00000000  0.50000000  0.33697257  1.0
  Ga  Ga1064  1  0.00000000  0.83333333  0.33697257  1.0
  Ga  Ga1065  1  0.33333333  0.16666667  0.33697257  1.0
  Ga  Ga1066  1  0.33333333  0.50000000  0.33697257  1.0
  Ga  Ga1067  1  0.33333333  0.83333333  0.33697257  1.0
  Ga  Ga1068  1  0.66666667  0.16666667  0.33697257  1.0
  Ga  Ga1069  1  0.66666667  0.50000000  0.33697257  1.0
  Ga  Ga1070  1  0.66666667  0.83333333  0.33697257  1.0
  Ga  Ga1071  1  0.16666667  0.00000000  0.33697257  1.0
  Ga  Ga1072  1  0.16666667  0.33333333  0.33697257  1.0
  Ga  Ga1073  1  0.16666667  0.66666667  0.33697257  1.0
  Ga  Ga1074  1  0.50000000  0.00000000  0.33697257  1.0
  Ga  Ga1075  1  0.50000000  0.33333333  0.33697257  1.0
  Ga  Ga1076  1  0.50000000  0.66666667  0.33697257  1.0
  Ga  Ga1077  1  0.83333333  0.00000000  0.33697257  1.0
  Ga  Ga1078  1  0.83333333  0.33333333  0.33697257  1.0
  Ga  Ga1079  1  0.83333333  0.66666667  0.33697257  1.0
  Ga  Ga1080  1  0.32923217  0.08333333  0.40664350  1.0
  Ga  Ga1081  1  0.32923217  0.41666667  0.40664350  1.0
  Ga  Ga1082  1  0.32923217  0.75000000  0.40664350  1.0
  Ga  Ga1083  1  0.66256550  0.08333333  0.40664350  1.0
  Ga  Ga1084  1  0.66256550  0.41666667  0.40664350  1.0
  Ga  Ga1085  1  0.66256550  0.75000000  0.40664350  1.0
  Ga  Ga1086  1  0.99589883  0.08333333  0.40664350  1.0
  Ga  Ga1087  1  0.99589883  0.41666667  0.40664350  1.0
  Ga  Ga1088  1  0.99589883  0.75000000  0.40664350  1.0
  Ga  Ga1089  1  0.32923217  0.24589883  0.33521493  1.0
  Ga  Ga1090  1  0.32923217  0.57923217  0.33521493  1.0
  Ga  Ga1091  1  0.32923217  0.91256550  0.33521493  1.0
  Ga  Ga1092  1  0.66256550  0.24589883  0.33521493  1.0
  Ga  Ga1093  1  0.66256550  0.57923217  0.33521493  1.0
  Ga  Ga1094  1  0.66256550  0.91256550  0.33521493  1.0
  Ga  Ga1095  1  0.99589883  0.24589883  0.33521493  1.0
  Ga  Ga1096  1  0.99589883  0.57923217  0.33521493  1.0
  Ga  Ga1097  1  0.99589883  0.91256550  0.33521493  1.0
  Ga  Ga1098  1  0.17076783  0.25410117  0.41015879  1.0
  Ga  Ga1099  1  0.17076783  0.58743450  0.41015879  1.0
  Ga  Ga1100  1  0.17076783  0.92076783  0.41015879  1.0
  Ga  Ga1101  1  0.50410117  0.25410117  0.41015879  1.0
  Ga  Ga1102  1  0.50410117  0.58743450  0.41015879  1.0
  Ga  Ga1103  1  0.50410117  0.92076783  0.41015879  1.0
  Ga  Ga1104  1  0.83743450  0.25410117  0.41015879  1.0
  Ga  Ga1105  1  0.83743450  0.58743450  0.41015879  1.0
  Ga  Ga1106  1  0.83743450  0.92076783  0.41015879  1.0
  Ga  Ga1107  1  0.25000000  0.32923217  0.36917157  1.0
  Ga  Ga1108  1  0.25000000  0.66256550  0.36917157  1.0
  Ga  Ga1109  1  0.25000000  0.99589883  0.36917157  1.0
  Ga  Ga1110  1  0.58333333  0.32923217  0.36917157  1.0
  Ga  Ga1111  1  0.58333333  0.66256550  0.36917157  1.0
  Ga  Ga1112  1  0.58333333  0.99589883  0.36917157  1.0
  Ga  Ga1113  1  0.91666667  0.32923217  0.36917157  1.0
  Ga  Ga1114  1  0.91666667  0.66256550  0.36917157  1.0
  Ga  Ga1115  1  0.91666667  0.99589883  0.36917157  1.0
  Ga  Ga1116  1  0.08333333  0.17076783  0.30477357  1.0
  Ga  Ga1117  1  0.08333333  0.50410117  0.30477357  1.0
  Ga  Ga1118  1  0.08333333  0.83743450  0.30477357  1.0
  Ga  Ga1119  1  0.41666667  0.17076783  0.30477357  1.0
  Ga  Ga1120  1  0.41666667  0.50410117  0.30477357  1.0
  Ga  Ga1121  1  0.41666667  0.83743450  0.30477357  1.0
  Ga  Ga1122  1  0.75000000  0.17076783  0.30477357  1.0
  Ga  Ga1123  1  0.75000000  0.50410117  0.30477357  1.0
  Ga  Ga1124  1  0.75000000  0.83743450  0.30477357  1.0
  Ga  Ga1125  1  0.24589883  0.25000000  0.37092921  1.0
  Ga  Ga1126  1  0.24589883  0.58333333  0.37092921  1.0
  Ga  Ga1127  1  0.24589883  0.91666667  0.37092921  1.0
  Ga  Ga1128  1  0.57923217  0.25000000  0.37092921  1.0
  Ga  Ga1129  1  0.57923217  0.58333333  0.37092921  1.0
  Ga  Ga1130  1  0.57923217  0.91666667  0.37092921  1.0
  Ga  Ga1131  1  0.91256550  0.25000000  0.37092921  1.0
  Ga  Ga1132  1  0.91256550  0.58333333  0.37092921  1.0
  Ga  Ga1133  1  0.91256550  0.91666667  0.37092921  1.0
  Ga  Ga1134  1  0.08333333  0.24589883  0.36917157  1.0
  Ga  Ga1135  1  0.08333333  0.57923217  0.36917157  1.0
  Ga  Ga1136  1  0.08333333  0.91256550  0.36917157  1.0
  Ga  Ga1137  1  0.41666667  0.24589883  0.36917157  1.0
  Ga  Ga1138  1  0.41666667  0.57923217  0.36917157  1.0
  Ga  Ga1139  1  0.41666667  0.91256550  0.36917157  1.0
  Ga  Ga1140  1  0.75000000  0.24589883  0.36917157  1.0
  Ga  Ga1141  1  0.75000000  0.57923217  0.36917157  1.0
  Ga  Ga1142  1  0.75000000  0.91256550  0.36917157  1.0
  Ga  Ga1143  1  0.25410117  0.17076783  0.30301593  1.0
  Ga  Ga1144  1  0.25410117  0.50410117  0.30301593  1.0
  Ga  Ga1145  1  0.25410117  0.83743450  0.30301593  1.0
  Ga  Ga1146  1  0.58743450  0.17076783  0.30301593  1.0
  Ga  Ga1147  1  0.58743450  0.50410117  0.30301593  1.0
  Ga  Ga1148  1  0.58743450  0.83743450  0.30301593  1.0
  Ga  Ga1149  1  0.92076783  0.17076783  0.30301593  1.0
  Ga  Ga1150  1  0.92076783  0.50410117  0.30301593  1.0
  Ga  Ga1151  1  0.92076783  0.83743450  0.30301593  1.0
  Ga  Ga1152  1  0.25000000  0.25410117  0.30477357  1.0
  Ga  Ga1153  1  0.25000000  0.58743450  0.30477357  1.0
  Ga  Ga1154  1  0.25000000  0.92076783  0.30477357  1.0
  Ga  Ga1155  1  0.58333333  0.25410117  0.30477357  1.0
  Ga  Ga1156  1  0.58333333  0.58743450  0.30477357  1.0
  Ga  Ga1157  1  0.58333333  0.92076783  0.30477357  1.0
  Ga  Ga1158  1  0.91666667  0.25410117  0.30477357  1.0
  Ga  Ga1159  1  0.91666667  0.58743450  0.30477357  1.0
  Ga  Ga1160  1  0.91666667  0.92076783  0.30477357  1.0
  Ga  Ga1161  1  0.24589883  0.32923217  0.29950064  1.0
  Ga  Ga1162  1  0.24589883  0.66256550  0.29950064  1.0
  Ga  Ga1163  1  0.24589883  0.99589883  0.29950064  1.0
  Ga  Ga1164  1  0.57923217  0.32923217  0.29950064  1.0
  Ga  Ga1165  1  0.57923217  0.66256550  0.29950064  1.0
  Ga  Ga1166  1  0.57923217  0.99589883  0.29950064  1.0
  Ga  Ga1167  1  0.91256550  0.32923217  0.29950064  1.0
  Ga  Ga1168  1  0.91256550  0.66256550  0.29950064  1.0
  Ga  Ga1169  1  0.91256550  0.99589883  0.29950064  1.0
  Ga  Ga1170  1  0.17076783  0.25000000  0.33873021  1.0
  Ga  Ga1171  1  0.17076783  0.58333333  0.33873021  1.0
  Ga  Ga1172  1  0.17076783  0.91666667  0.33873021  1.0
  Ga  Ga1173  1  0.50410117  0.25000000  0.33873021  1.0
  Ga  Ga1174  1  0.50410117  0.58333333  0.33873021  1.0
  Ga  Ga1175  1  0.50410117  0.91666667  0.33873021  1.0
  Ga  Ga1176  1  0.83743450  0.25000000  0.33873021  1.0
  Ga  Ga1177  1  0.83743450  0.58333333  0.33873021  1.0
  Ga  Ga1178  1  0.83743450  0.91666667  0.33873021  1.0
  Ga  Ga1179  1  0.25410117  0.08333333  0.37444450  1.0
  Ga  Ga1180  1  0.25410117  0.41666667  0.37444450  1.0
  Ga  Ga1181  1  0.25410117  0.75000000  0.37444450  1.0
  Ga  Ga1182  1  0.58743450  0.08333333  0.37444450  1.0
  Ga  Ga1183  1  0.58743450  0.41666667  0.37444450  1.0
  Ga  Ga1184  1  0.58743450  0.75000000  0.37444450  1.0
  Ga  Ga1185  1  0.92076783  0.08333333  0.37444450  1.0
  Ga  Ga1186  1  0.92076783  0.41666667  0.37444450  1.0
  Ga  Ga1187  1  0.92076783  0.75000000  0.37444450  1.0
  Ga  Ga1188  1  0.00410117  0.25000000  0.41015879  1.0
  Ga  Ga1189  1  0.00410117  0.58333333  0.41015879  1.0
  Ga  Ga1190  1  0.00410117  0.91666667  0.41015879  1.0
  Ga  Ga1191  1  0.33743450  0.25000000  0.41015879  1.0
  Ga  Ga1192  1  0.33743450  0.58333333  0.41015879  1.0
  Ga  Ga1193  1  0.33743450  0.91666667  0.41015879  1.0
  Ga  Ga1194  1  0.67076783  0.25000000  0.41015879  1.0
  Ga  Ga1195  1  0.67076783  0.58333333  0.41015879  1.0
  Ga  Ga1196  1  0.67076783  0.91666667  0.41015879  1.0
  Ga  Ga1197  1  0.00410117  0.08743450  0.33873021  1.0
  Ga  Ga1198  1  0.00410117  0.42076783  0.33873021  1.0
  Ga  Ga1199  1  0.00410117  0.75410117  0.33873021  1.0
  Ga  Ga1200  1  0.33743450  0.08743450  0.33873021  1.0
  Ga  Ga1201  1  0.33743450  0.42076783  0.33873021  1.0
  Ga  Ga1202  1  0.33743450  0.75410117  0.33873021  1.0
  Ga  Ga1203  1  0.67076783  0.08743450  0.33873021  1.0
  Ga  Ga1204  1  0.67076783  0.42076783  0.33873021  1.0
  Ga  Ga1205  1  0.67076783  0.75410117  0.33873021  1.0
  Ga  Ga1206  1  0.16256550  0.07923217  0.40664350  1.0
  Ga  Ga1207  1  0.16256550  0.41256550  0.40664350  1.0
  Ga  Ga1208  1  0.16256550  0.74589883  0.40664350  1.0
  Ga  Ga1209  1  0.49589883  0.07923217  0.40664350  1.0
  Ga  Ga1210  1  0.49589883  0.41256550  0.40664350  1.0
  Ga  Ga1211  1  0.49589883  0.74589883  0.40664350  1.0
  Ga  Ga1212  1  0.82923217  0.07923217  0.40664350  1.0
  Ga  Ga1213  1  0.82923217  0.41256550  0.40664350  1.0
  Ga  Ga1214  1  0.82923217  0.74589883  0.40664350  1.0
  Ga  Ga1215  1  0.08333333  0.00410117  0.30477357  1.0
  Ga  Ga1216  1  0.08333333  0.33743450  0.30477357  1.0
  Ga  Ga1217  1  0.08333333  0.67076783  0.30477357  1.0
  Ga  Ga1218  1  0.41666667  0.00410117  0.30477357  1.0
  Ga  Ga1219  1  0.41666667  0.33743450  0.30477357  1.0
  Ga  Ga1220  1  0.41666667  0.67076783  0.30477357  1.0
  Ga  Ga1221  1  0.75000000  0.00410117  0.30477357  1.0
  Ga  Ga1222  1  0.75000000  0.33743450  0.30477357  1.0
  Ga  Ga1223  1  0.75000000  0.67076783  0.30477357  1.0
  Ga  Ga1224  1  0.25000000  0.16256550  0.36917157  1.0
  Ga  Ga1225  1  0.25000000  0.49589883  0.36917157  1.0
  Ga  Ga1226  1  0.25000000  0.82923217  0.36917157  1.0
  Ga  Ga1227  1  0.58333333  0.16256550  0.36917157  1.0
  Ga  Ga1228  1  0.58333333  0.49589883  0.36917157  1.0
  Ga  Ga1229  1  0.58333333  0.82923217  0.36917157  1.0
  Ga  Ga1230  1  0.91666667  0.16256550  0.36917157  1.0
  Ga  Ga1231  1  0.91666667  0.49589883  0.36917157  1.0
  Ga  Ga1232  1  0.91666667  0.82923217  0.36917157  1.0
  Ga  Ga1233  1  0.08743450  0.08333333  0.30301593  1.0
  Ga  Ga1234  1  0.08743450  0.41666667  0.30301593  1.0
  Ga  Ga1235  1  0.08743450  0.75000000  0.30301593  1.0
  Ga  Ga1236  1  0.42076783  0.08333333  0.30301593  1.0
  Ga  Ga1237  1  0.42076783  0.41666667  0.30301593  1.0
  Ga  Ga1238  1  0.42076783  0.75000000  0.30301593  1.0
  Ga  Ga1239  1  0.75410117  0.08333333  0.30301593  1.0
  Ga  Ga1240  1  0.75410117  0.41666667  0.30301593  1.0
  Ga  Ga1241  1  0.75410117  0.75000000  0.30301593  1.0
  Ga  Ga1242  1  0.25000000  0.08743450  0.30477357  1.0
  Ga  Ga1243  1  0.25000000  0.42076783  0.30477357  1.0
  Ga  Ga1244  1  0.25000000  0.75410117  0.30477357  1.0
  Ga  Ga1245  1  0.58333333  0.08743450  0.30477357  1.0
  Ga  Ga1246  1  0.58333333  0.42076783  0.30477357  1.0
  Ga  Ga1247  1  0.58333333  0.75410117  0.30477357  1.0
  Ga  Ga1248  1  0.91666667  0.08743450  0.30477357  1.0
  Ga  Ga1249  1  0.91666667  0.42076783  0.30477357  1.0
  Ga  Ga1250  1  0.91666667  0.75410117  0.30477357  1.0
  Ga  Ga1251  1  0.07923217  0.16256550  0.37092921  1.0
  Ga  Ga1252  1  0.07923217  0.49589883  0.37092921  1.0
  Ga  Ga1253  1  0.07923217  0.82923217  0.37092921  1.0
  Ga  Ga1254  1  0.41256550  0.16256550  0.37092921  1.0
  Ga  Ga1255  1  0.41256550  0.49589883  0.37092921  1.0
  Ga  Ga1256  1  0.41256550  0.82923217  0.37092921  1.0
  Ga  Ga1257  1  0.74589883  0.16256550  0.37092921  1.0
  Ga  Ga1258  1  0.74589883  0.49589883  0.37092921  1.0
  Ga  Ga1259  1  0.74589883  0.82923217  0.37092921  1.0
  Ga  Ga1260  1  0.08333333  0.07923217  0.36917157  1.0
  Ga  Ga1261  1  0.08333333  0.41256550  0.36917157  1.0
  Ga  Ga1262  1  0.08333333  0.74589883  0.36917157  1.0
  Ga  Ga1263  1  0.41666667  0.07923217  0.36917157  1.0
  Ga  Ga1264  1  0.41666667  0.41256550  0.36917157  1.0
  Ga  Ga1265  1  0.41666667  0.74589883  0.36917157  1.0
  Ga  Ga1266  1  0.75000000  0.07923217  0.36917157  1.0
  Ga  Ga1267  1  0.75000000  0.41256550  0.36917157  1.0
  Ga  Ga1268  1  0.75000000  0.74589883  0.36917157  1.0
  Ga  Ga1269  1  0.08743450  0.00410117  0.37444450  1.0
  Ga  Ga1270  1  0.08743450  0.33743450  0.37444450  1.0
  Ga  Ga1271  1  0.08743450  0.67076783  0.37444450  1.0
  Ga  Ga1272  1  0.42076783  0.00410117  0.37444450  1.0
  Ga  Ga1273  1  0.42076783  0.33743450  0.37444450  1.0
  Ga  Ga1274  1  0.42076783  0.67076783  0.37444450  1.0
  Ga  Ga1275  1  0.75410117  0.00410117  0.37444450  1.0
  Ga  Ga1276  1  0.75410117  0.33743450  0.37444450  1.0
  Ga  Ga1277  1  0.75410117  0.67076783  0.37444450  1.0
  Ga  Ga1278  1  0.16256550  0.08333333  0.33521493  1.0
  Ga  Ga1279  1  0.16256550  0.41666667  0.33521493  1.0
  Ga  Ga1280  1  0.16256550  0.75000000  0.33521493  1.0
  Ga  Ga1281  1  0.49589883  0.08333333  0.33521493  1.0
  Ga  Ga1282  1  0.49589883  0.41666667  0.33521493  1.0
  Ga  Ga1283  1  0.49589883  0.75000000  0.33521493  1.0
  Ga  Ga1284  1  0.82923217  0.08333333  0.33521493  1.0
  Ga  Ga1285  1  0.82923217  0.41666667  0.33521493  1.0
  Ga  Ga1286  1  0.82923217  0.75000000  0.33521493  1.0
  Ga  Ga1287  1  0.07923217  0.25000000  0.29950064  1.0
  Ga  Ga1288  1  0.07923217  0.58333333  0.29950064  1.0
  Ga  Ga1289  1  0.07923217  0.91666667  0.29950064  1.0
  Ga  Ga1290  1  0.41256550  0.25000000  0.29950064  1.0
  Ga  Ga1291  1  0.41256550  0.58333333  0.29950064  1.0
  Ga  Ga1292  1  0.41256550  0.91666667  0.29950064  1.0
  Ga  Ga1293  1  0.74589883  0.25000000  0.29950064  1.0
  Ga  Ga1294  1  0.74589883  0.58333333  0.29950064  1.0
  Ga  Ga1295  1  0.74589883  0.91666667  0.29950064  1.0
  Ni  Ni1296  1  0.16936533  0.17206400  0.37615657  1.0
  Ni  Ni1297  1  0.16936533  0.50539733  0.37615657  1.0
  Ni  Ni1298  1  0.16936533  0.83873067  0.37615657  1.0
  Ni  Ni1299  1  0.50269867  0.17206400  0.37615657  1.0
  Ni  Ni1300  1  0.50269867  0.50539733  0.37615657  1.0
  Ni  Ni1301  1  0.50269867  0.83873067  0.37615657  1.0
  Ni  Ni1302  1  0.83603200  0.17206400  0.37615657  1.0
  Ni  Ni1303  1  0.83603200  0.50539733  0.37615657  1.0
  Ni  Ni1304  1  0.83603200  0.83873067  0.37615657  1.0
  Ni  Ni1305  1  0.08063467  0.08603200  0.40955771  1.0
  Ni  Ni1306  1  0.08063467  0.41936533  0.40955771  1.0
  Ni  Ni1307  1  0.08063467  0.75269867  0.40955771  1.0
  Ni  Ni1308  1  0.41396800  0.08603200  0.40955771  1.0
  Ni  Ni1309  1  0.41396800  0.41936533  0.40955771  1.0
  Ni  Ni1310  1  0.41396800  0.75269867  0.40955771  1.0
  Ni  Ni1311  1  0.74730133  0.08603200  0.40955771  1.0
  Ni  Ni1312  1  0.74730133  0.41936533  0.40955771  1.0
  Ni  Ni1313  1  0.74730133  0.75269867  0.40955771  1.0
  Ni  Ni1314  1  0.08603200  0.16936533  0.41187086  1.0
  Ni  Ni1315  1  0.08603200  0.50269867  0.41187086  1.0
  Ni  Ni1316  1  0.08603200  0.83603200  0.41187086  1.0
  Ni  Ni1317  1  0.41936533  0.16936533  0.41187086  1.0
  Ni  Ni1318  1  0.41936533  0.50269867  0.41187086  1.0
  Ni  Ni1319  1  0.41936533  0.83603200  0.41187086  1.0
  Ni  Ni1320  1  0.75269867  0.16936533  0.41187086  1.0
  Ni  Ni1321  1  0.75269867  0.50269867  0.41187086  1.0
  Ni  Ni1322  1  0.75269867  0.83603200  0.41187086  1.0
  Ni  Ni1323  1  0.25000000  0.16936533  0.33697257  1.0
  Ni  Ni1324  1  0.25000000  0.50269867  0.33697257  1.0
  Ni  Ni1325  1  0.25000000  0.83603200  0.33697257  1.0
  Ni  Ni1326  1  0.58333333  0.16936533  0.33697257  1.0
  Ni  Ni1327  1  0.58333333  0.50269867  0.33697257  1.0
  Ni  Ni1328  1  0.58333333  0.83603200  0.33697257  1.0
  Ni  Ni1329  1  0.91666667  0.16936533  0.33697257  1.0
  Ni  Ni1330  1  0.91666667  0.50269867  0.33697257  1.0
  Ni  Ni1331  1  0.91666667  0.83603200  0.33697257  1.0
  Ni  Ni1332  1  0.17206400  0.08603200  0.37500000  1.0
  Ni  Ni1333  1  0.17206400  0.41936533  0.37500000  1.0
  Ni  Ni1334  1  0.17206400  0.75269867  0.37500000  1.0
  Ni  Ni1335  1  0.50539733  0.08603200  0.37500000  1.0
  Ni  Ni1336  1  0.50539733  0.41936533  0.37500000  1.0
  Ni  Ni1337  1  0.50539733  0.75269867  0.37500000  1.0
  Ni  Ni1338  1  0.83873067  0.08603200  0.37500000  1.0
  Ni  Ni1339  1  0.83873067  0.41936533  0.37500000  1.0
  Ni  Ni1340  1  0.83873067  0.75269867  0.37500000  1.0
  Ni  Ni1341  1  0.08603200  0.25000000  0.40724457  1.0
  Ni  Ni1342  1  0.08603200  0.58333333  0.40724457  1.0
  Ni  Ni1343  1  0.08603200  0.91666667  0.40724457  1.0
  Ni  Ni1344  1  0.41936533  0.25000000  0.40724457  1.0
  Ni  Ni1345  1  0.41936533  0.58333333  0.40724457  1.0
  Ni  Ni1346  1  0.41936533  0.91666667  0.40724457  1.0
  Ni  Ni1347  1  0.75269867  0.25000000  0.40724457  1.0
  Ni  Ni1348  1  0.75269867  0.58333333  0.40724457  1.0
  Ni  Ni1349  1  0.75269867  0.91666667  0.40724457  1.0
  Ni  Ni1350  1  0.33063467  0.25000000  0.30241486  1.0
  Ni  Ni1351  1  0.33063467  0.58333333  0.30241486  1.0
  Ni  Ni1352  1  0.33063467  0.91666667  0.30241486  1.0
  Ni  Ni1353  1  0.66396800  0.25000000  0.30241486  1.0
  Ni  Ni1354  1  0.66396800  0.58333333  0.30241486  1.0
  Ni  Ni1355  1  0.66396800  0.91666667  0.30241486  1.0
  Ni  Ni1356  1  0.99730133  0.25000000  0.30241486  1.0
  Ni  Ni1357  1  0.99730133  0.58333333  0.30241486  1.0
  Ni  Ni1358  1  0.99730133  0.91666667  0.30241486  1.0
  Ni  Ni1359  1  0.32793600  0.33063467  0.29894514  1.0
  Ni  Ni1360  1  0.32793600  0.66396800  0.29894514  1.0
  Ni  Ni1361  1  0.32793600  0.99730133  0.29894514  1.0
  Ni  Ni1362  1  0.66126933  0.33063467  0.29894514  1.0
  Ni  Ni1363  1  0.66126933  0.66396800  0.29894514  1.0
  Ni  Ni1364  1  0.66126933  0.99730133  0.29894514  1.0
  Ni  Ni1365  1  0.99460267  0.33063467  0.29894514  1.0
  Ni  Ni1366  1  0.99460267  0.66396800  0.29894514  1.0
  Ni  Ni1367  1  0.99460267  0.99730133  0.29894514  1.0
  Ni  Ni1368  1  0.16936533  0.33063467  0.37153029  1.0
  Ni  Ni1369  1  0.16936533  0.66396800  0.37153029  1.0
  Ni  Ni1370  1  0.16936533  0.99730133  0.37153029  1.0
  Ni  Ni1371  1  0.50269867  0.33063467  0.37153029  1.0
  Ni  Ni1372  1  0.50269867  0.66396800  0.37153029  1.0
  Ni  Ni1373  1  0.50269867  0.99730133  0.37153029  1.0
  Ni  Ni1374  1  0.83603200  0.33063467  0.37153029  1.0
  Ni  Ni1375  1  0.83603200  0.66396800  0.37153029  1.0
  Ni  Ni1376  1  0.83603200  0.99730133  0.37153029  1.0
  Ni  Ni1377  1  0.33063467  0.08063467  0.29778857  1.0
  Ni  Ni1378  1  0.33063467  0.41396800  0.29778857  1.0
  Ni  Ni1379  1  0.33063467  0.74730133  0.29778857  1.0
  Ni  Ni1380  1  0.66396800  0.08063467  0.29778857  1.0
  Ni  Ni1381  1  0.66396800  0.41396800  0.29778857  1.0
  Ni  Ni1382  1  0.66396800  0.74730133  0.29778857  1.0
  Ni  Ni1383  1  0.99730133  0.08063467  0.29778857  1.0
  Ni  Ni1384  1  0.99730133  0.41396800  0.29778857  1.0
  Ni  Ni1385  1  0.99730133  0.74730133  0.29778857  1.0
  Ni  Ni1386  1  0.25000000  0.08063467  0.33697257  1.0
  Ni  Ni1387  1  0.25000000  0.41396800  0.33697257  1.0
  Ni  Ni1388  1  0.25000000  0.74730133  0.33697257  1.0
  Ni  Ni1389  1  0.58333333  0.08063467  0.33697257  1.0
  Ni  Ni1390  1  0.58333333  0.41396800  0.33697257  1.0
  Ni  Ni1391  1  0.58333333  0.74730133  0.33697257  1.0
  Ni  Ni1392  1  0.91666667  0.08063467  0.33697257  1.0
  Ni  Ni1393  1  0.91666667  0.41396800  0.33697257  1.0
  Ni  Ni1394  1  0.91666667  0.74730133  0.33697257  1.0
  Ni  Ni1395  1  0.08063467  0.32793600  0.40493143  1.0
  Ni  Ni1396  1  0.08063467  0.66126933  0.40493143  1.0
  Ni  Ni1397  1  0.08063467  0.99460267  0.40493143  1.0
  Ni  Ni1398  1  0.41396800  0.32793600  0.40493143  1.0
  Ni  Ni1399  1  0.41396800  0.66126933  0.40493143  1.0
  Ni  Ni1400  1  0.41396800  0.99460267  0.40493143  1.0
  Ni  Ni1401  1  0.74730133  0.32793600  0.40493143  1.0
  Ni  Ni1402  1  0.74730133  0.66126933  0.40493143  1.0
  Ni  Ni1403  1  0.74730133  0.99460267  0.40493143  1.0
  Ni  Ni1404  1  0.16396800  0.16126933  0.29778857  1.0
  Ni  Ni1405  1  0.16396800  0.49460267  0.29778857  1.0
  Ni  Ni1406  1  0.16396800  0.82793600  0.29778857  1.0
  Ni  Ni1407  1  0.49730133  0.16126933  0.29778857  1.0
  Ni  Ni1408  1  0.49730133  0.49460267  0.29778857  1.0
  Ni  Ni1409  1  0.49730133  0.82793600  0.29778857  1.0
  Ni  Ni1410  1  0.83063467  0.16126933  0.29778857  1.0
  Ni  Ni1411  1  0.83063467  0.49460267  0.29778857  1.0
  Ni  Ni1412  1  0.83063467  0.82793600  0.29778857  1.0
  Ni  Ni1413  1  0.25269867  0.24730133  0.40724457  1.0
  Ni  Ni1414  1  0.25269867  0.58063467  0.40724457  1.0
  Ni  Ni1415  1  0.25269867  0.91396800  0.40724457  1.0
  Ni  Ni1416  1  0.58603200  0.24730133  0.40724457  1.0
  Ni  Ni1417  1  0.58603200  0.58063467  0.40724457  1.0
  Ni  Ni1418  1  0.58603200  0.91396800  0.40724457  1.0
  Ni  Ni1419  1  0.91936533  0.24730133  0.40724457  1.0
  Ni  Ni1420  1  0.91936533  0.58063467  0.40724457  1.0
  Ni  Ni1421  1  0.91936533  0.91396800  0.40724457  1.0
  Ni  Ni1422  1  0.24730133  0.16396800  0.40493143  1.0
  Ni  Ni1423  1  0.24730133  0.49730133  0.40493143  1.0
  Ni  Ni1424  1  0.24730133  0.83063467  0.40493143  1.0
  Ni  Ni1425  1  0.58063467  0.16396800  0.40493143  1.0
  Ni  Ni1426  1  0.58063467  0.49730133  0.40493143  1.0
  Ni  Ni1427  1  0.58063467  0.83063467  0.40493143  1.0
  Ni  Ni1428  1  0.91396800  0.16396800  0.40493143  1.0
  Ni  Ni1429  1  0.91396800  0.49730133  0.40493143  1.0
  Ni  Ni1430  1  0.91396800  0.83063467  0.40493143  1.0
  Ni  Ni1431  1  0.08333333  0.16396800  0.33697257  1.0
  Ni  Ni1432  1  0.08333333  0.49730133  0.33697257  1.0
  Ni  Ni1433  1  0.08333333  0.83063467  0.33697257  1.0
  Ni  Ni1434  1  0.41666667  0.16396800  0.33697257  1.0
  Ni  Ni1435  1  0.41666667  0.49730133  0.33697257  1.0
  Ni  Ni1436  1  0.41666667  0.83063467  0.33697257  1.0
  Ni  Ni1437  1  0.75000000  0.16396800  0.33697257  1.0
  Ni  Ni1438  1  0.75000000  0.49730133  0.33697257  1.0
  Ni  Ni1439  1  0.75000000  0.83063467  0.33697257  1.0
  Ni  Ni1440  1  0.16126933  0.24730133  0.29894514  1.0
  Ni  Ni1441  1  0.16126933  0.58063467  0.29894514  1.0
  Ni  Ni1442  1  0.16126933  0.91396800  0.29894514  1.0
  Ni  Ni1443  1  0.49460267  0.24730133  0.29894514  1.0
  Ni  Ni1444  1  0.49460267  0.58063467  0.29894514  1.0
  Ni  Ni1445  1  0.49460267  0.91396800  0.29894514  1.0
  Ni  Ni1446  1  0.82793600  0.24730133  0.29894514  1.0
  Ni  Ni1447  1  0.82793600  0.58063467  0.29894514  1.0
  Ni  Ni1448  1  0.82793600  0.91396800  0.29894514  1.0
  Ni  Ni1449  1  0.24730133  0.08333333  0.40955771  1.0
  Ni  Ni1450  1  0.24730133  0.41666667  0.40955771  1.0
  Ni  Ni1451  1  0.24730133  0.75000000  0.40955771  1.0
  Ni  Ni1452  1  0.58063467  0.08333333  0.40955771  1.0
  Ni  Ni1453  1  0.58063467  0.41666667  0.40955771  1.0
  Ni  Ni1454  1  0.58063467  0.75000000  0.40955771  1.0
  Ni  Ni1455  1  0.91396800  0.08333333  0.40955771  1.0
  Ni  Ni1456  1  0.91396800  0.41666667  0.40955771  1.0
  Ni  Ni1457  1  0.91396800  0.75000000  0.40955771  1.0
  Ni  Ni1458  1  0.00269867  0.08333333  0.37153029  1.0
  Ni  Ni1459  1  0.00269867  0.41666667  0.37153029  1.0
  Ni  Ni1460  1  0.00269867  0.75000000  0.37153029  1.0
  Ni  Ni1461  1  0.33603200  0.08333333  0.37153029  1.0
  Ni  Ni1462  1  0.33603200  0.41666667  0.37153029  1.0
  Ni  Ni1463  1  0.33603200  0.75000000  0.37153029  1.0
  Ni  Ni1464  1  0.66936533  0.08333333  0.37153029  1.0
  Ni  Ni1465  1  0.66936533  0.41666667  0.37153029  1.0
  Ni  Ni1466  1  0.66936533  0.75000000  0.37153029  1.0
  Ni  Ni1467  1  0.00539733  0.00269867  0.37500000  1.0
  Ni  Ni1468  1  0.00539733  0.33603200  0.37500000  1.0
  Ni  Ni1469  1  0.00539733  0.66936533  0.37500000  1.0
  Ni  Ni1470  1  0.33873067  0.00269867  0.37500000  1.0
  Ni  Ni1471  1  0.33873067  0.33603200  0.37500000  1.0
  Ni  Ni1472  1  0.33873067  0.66936533  0.37500000  1.0
  Ni  Ni1473  1  0.67206400  0.00269867  0.37500000  1.0
  Ni  Ni1474  1  0.67206400  0.33603200  0.37500000  1.0
  Ni  Ni1475  1  0.67206400  0.66936533  0.37500000  1.0
  Ni  Ni1476  1  0.16396800  0.00269867  0.30241486  1.0
  Ni  Ni1477  1  0.16396800  0.33603200  0.30241486  1.0
  Ni  Ni1478  1  0.16396800  0.66936533  0.30241486  1.0
  Ni  Ni1479  1  0.49730133  0.00269867  0.30241486  1.0
  Ni  Ni1480  1  0.49730133  0.33603200  0.30241486  1.0
  Ni  Ni1481  1  0.49730133  0.66936533  0.30241486  1.0
  Ni  Ni1482  1  0.83063467  0.00269867  0.30241486  1.0
  Ni  Ni1483  1  0.83063467  0.33603200  0.30241486  1.0
  Ni  Ni1484  1  0.83063467  0.66936533  0.30241486  1.0
  Ni  Ni1485  1  0.00269867  0.25269867  0.37615657  1.0
  Ni  Ni1486  1  0.00269867  0.58603200  0.37615657  1.0
  Ni  Ni1487  1  0.00269867  0.91936533  0.37615657  1.0
  Ni  Ni1488  1  0.33603200  0.25269867  0.37615657  1.0
  Ni  Ni1489  1  0.33603200  0.58603200  0.37615657  1.0
  Ni  Ni1490  1  0.33603200  0.91936533  0.37615657  1.0
  Ni  Ni1491  1  0.66936533  0.25269867  0.37615657  1.0
  Ni  Ni1492  1  0.66936533  0.58603200  0.37615657  1.0
  Ni  Ni1493  1  0.66936533  0.91936533  0.37615657  1.0
  Ni  Ni1494  1  0.08333333  0.25269867  0.33697257  1.0
  Ni  Ni1495  1  0.08333333  0.58603200  0.33697257  1.0
  Ni  Ni1496  1  0.08333333  0.91936533  0.33697257  1.0
  Ni  Ni1497  1  0.41666667  0.25269867  0.33697257  1.0
  Ni  Ni1498  1  0.41666667  0.58603200  0.33697257  1.0
  Ni  Ni1499  1  0.41666667  0.91936533  0.33697257  1.0
  Ni  Ni1500  1  0.75000000  0.25269867  0.33697257  1.0
  Ni  Ni1501  1  0.75000000  0.58603200  0.33697257  1.0
  Ni  Ni1502  1  0.75000000  0.91936533  0.33697257  1.0
  Ni  Ni1503  1  0.25269867  0.00539733  0.41187086  1.0
  Ni  Ni1504  1  0.25269867  0.33873067  0.41187086  1.0
  Ni  Ni1505  1  0.25269867  0.67206400  0.41187086  1.0
  Ni  Ni1506  1  0.58603200  0.00539733  0.41187086  1.0
  Ni  Ni1507  1  0.58603200  0.33873067  0.41187086  1.0
  Ni  Ni1508  1  0.58603200  0.67206400  0.41187086  1.0
  Ni  Ni1509  1  0.91936533  0.00539733  0.41187086  1.0
  Ni  Ni1510  1  0.91936533  0.33873067  0.41187086  1.0
  Ni  Ni1511  1  0.91936533  0.67206400  0.41187086  1.0
