# generated using pymatgen
data_Ga4Ni3
_symmetry_space_group_name_H-M   'P 1'
_cell_length_a   29.82500037
_cell_length_b   75.05793827
_cell_length_c   49.70833395
_cell_angle_alpha   131.47293431
_cell_angle_beta   109.47122063
_cell_angle_gamma   97.61137852
_symmetry_Int_Tables_number   1
_chemical_formula_structural   Ga4Ni3
_chemical_formula_sum   'Ga1152 Ni864'
_cell_volume   68076.65807103
_cell_formula_units_Z   288
loop_
 _symmetry_equiv_pos_site_id
 _symmetry_equiv_pos_as_xyz
  1  'x, y, z'
loop_
 _atom_site_type_symbol
 _atom_site_label
 _atom_site_symmetry_multiplicity
 _atom_site_fract_x
 _atom_site_fract_y
 _atom_site_fract_z
 _atom_site_occupancy
  Ga  Ga0  1  0.00000000  0.16666667  0.18628560  1.0
  Ga  Ga1  1  0.00000000  0.50000000  0.18628560  1.0
  Ga  Ga2  1  0.00000000  0.83333333  0.18628560  1.0
  Ga  Ga3  1  0.33333333  0.16666667  0.18628560  1.0
  Ga  Ga4  1  0.33333333  0.50000000  0.18628560  1.0
  Ga  Ga5  1  0.33333333  0.83333333  0.18628560  1.0
  Ga  Ga6  1  0.66666667  0.16666667  0.18628560  1.0
  Ga  Ga7  1  0.66666667  0.50000000  0.18628560  1.0
  Ga  Ga8  1  0.66666667  0.83333333  0.18628560  1.0
  Ga  Ga9  1  0.00000000  0.00000000  0.08628560  1.0
  Ga  Ga10  1  0.00000000  0.33333333  0.08628560  1.0
  Ga  Ga11  1  0.00000000  0.66666667  0.08628560  1.0
  Ga  Ga12  1  0.33333333  0.00000000  0.08628560  1.0
  Ga  Ga13  1  0.33333333  0.33333333  0.08628560  1.0
  Ga  Ga14  1  0.33333333  0.66666667  0.08628560  1.0
  Ga  Ga15  1  0.66666667  0.00000000  0.08628560  1.0
  Ga  Ga16  1  0.66666667  0.33333333  0.08628560  1.0
  Ga  Ga17  1  0.66666667  0.66666667  0.08628560  1.0
  Ga  Ga18  1  0.00000000  0.08333333  0.13628560  1.0
  Ga  Ga19  1  0.00000000  0.41666667  0.13628560  1.0
  Ga  Ga20  1  0.00000000  0.75000000  0.13628560  1.0
  Ga  Ga21  1  0.33333333  0.08333333  0.13628560  1.0
  Ga  Ga22  1  0.33333333  0.41666667  0.13628560  1.0
  Ga  Ga23  1  0.33333333  0.75000000  0.13628560  1.0
  Ga  Ga24  1  0.66666667  0.08333333  0.13628560  1.0
  Ga  Ga25  1  0.66666667  0.41666667  0.13628560  1.0
  Ga  Ga26  1  0.66666667  0.75000000  0.13628560  1.0
  Ga  Ga27  1  0.00000000  0.25000000  0.03628560  1.0
  Ga  Ga28  1  1.00000000  0.58333333  0.03628560  1.0
  Ga  Ga29  1  0.00000000  0.91666667  0.03628560  1.0
  Ga  Ga30  1  0.33333333  0.25000000  0.03628560  1.0
  Ga  Ga31  1  0.33333333  0.58333333  0.03628560  1.0
  Ga  Ga32  1  0.33333333  0.91666667  0.03628560  1.0
  Ga  Ga33  1  0.66666667  0.25000000  0.03628560  1.0
  Ga  Ga34  1  0.66666667  0.58333333  0.03628560  1.0
  Ga  Ga35  1  0.66666667  0.91666667  0.03628560  1.0
  Ga  Ga36  1  0.16666667  0.08333333  0.03628560  1.0
  Ga  Ga37  1  0.16666667  0.41666667  0.03628560  1.0
  Ga  Ga38  1  0.16666667  0.75000000  0.03628560  1.0
  Ga  Ga39  1  0.50000000  0.08333333  0.03628560  1.0
  Ga  Ga40  1  0.50000000  0.41666667  0.03628560  1.0
  Ga  Ga41  1  0.50000000  0.75000000  0.03628560  1.0
  Ga  Ga42  1  0.83333333  0.08333333  0.03628560  1.0
  Ga  Ga43  1  0.83333333  0.41666667  0.03628560  1.0
  Ga  Ga44  1  0.83333333  0.75000000  0.03628560  1.0
  Ga  Ga45  1  0.16666667  0.25000000  0.13628560  1.0
  Ga  Ga46  1  0.16666667  0.58333333  0.13628560  1.0
  Ga  Ga47  1  0.16666667  0.91666667  0.13628560  1.0
  Ga  Ga48  1  0.50000000  0.25000000  0.13628560  1.0
  Ga  Ga49  1  0.50000000  0.58333333  0.13628560  1.0
  Ga  Ga50  1  0.50000000  0.91666667  0.13628560  1.0
  Ga  Ga51  1  0.83333333  0.25000000  0.13628560  1.0
  Ga  Ga52  1  0.83333333  0.58333333  0.13628560  1.0
  Ga  Ga53  1  0.83333333  0.91666667  0.13628560  1.0
  Ga  Ga54  1  0.00000000  0.16666667  0.08628560  1.0
  Ga  Ga55  1  0.00000000  0.50000000  0.08628560  1.0
  Ga  Ga56  1  0.00000000  0.83333333  0.08628560  1.0
  Ga  Ga57  1  0.33333333  0.16666667  0.08628560  1.0
  Ga  Ga58  1  0.33333333  0.50000000  0.08628560  1.0
  Ga  Ga59  1  0.33333333  0.83333333  0.08628560  1.0
  Ga  Ga60  1  0.66666667  0.16666667  0.08628560  1.0
  Ga  Ga61  1  0.66666667  0.50000000  0.08628560  1.0
  Ga  Ga62  1  0.66666667  0.83333333  0.08628560  1.0
  Ga  Ga63  1  0.00000000  0.00000000  0.18628560  1.0
  Ga  Ga64  1  0.00000000  0.33333333  0.18628560  1.0
  Ga  Ga65  1  0.00000000  0.66666667  0.18628560  1.0
  Ga  Ga66  1  0.33333333  0.00000000  0.18628560  1.0
  Ga  Ga67  1  0.33333333  0.33333333  0.18628560  1.0
  Ga  Ga68  1  0.33333333  0.66666667  0.18628560  1.0
  Ga  Ga69  1  0.66666667  0.00000000  0.18628560  1.0
  Ga  Ga70  1  0.66666667  0.33333333  0.18628560  1.0
  Ga  Ga71  1  0.66666667  0.66666667  0.18628560  1.0
  Ga  Ga72  1  0.16666667  0.16666667  0.08628560  1.0
  Ga  Ga73  1  0.16666667  0.50000000  0.08628560  1.0
  Ga  Ga74  1  0.16666667  0.83333333  0.08628560  1.0
  Ga  Ga75  1  0.50000000  0.16666667  0.08628560  1.0
  Ga  Ga76  1  0.50000000  0.50000000  0.08628560  1.0
  Ga  Ga77  1  0.50000000  0.83333333  0.08628560  1.0
  Ga  Ga78  1  0.83333333  0.16666667  0.08628560  1.0
  Ga  Ga79  1  0.83333333  0.50000000  0.08628560  1.0
  Ga  Ga80  1  0.83333333  0.83333333  0.08628560  1.0
  Ga  Ga81  1  0.16666667  0.00000000  0.18628560  1.0
  Ga  Ga82  1  0.16666667  0.33333333  0.18628560  1.0
  Ga  Ga83  1  0.16666667  0.66666667  0.18628560  1.0
  Ga  Ga84  1  0.50000000  0.00000000  0.18628560  1.0
  Ga  Ga85  1  0.50000000  0.33333333  0.18628560  1.0
  Ga  Ga86  1  0.50000000  0.66666667  0.18628560  1.0
  Ga  Ga87  1  0.83333333  0.00000000  0.18628560  1.0
  Ga  Ga88  1  0.83333333  0.33333333  0.18628560  1.0
  Ga  Ga89  1  0.83333333  0.66666667  0.18628560  1.0
  Ga  Ga90  1  0.16666667  0.08333333  0.13628560  1.0
  Ga  Ga91  1  0.16666667  0.41666667  0.13628560  1.0
  Ga  Ga92  1  0.16666667  0.75000000  0.13628560  1.0
  Ga  Ga93  1  0.50000000  0.08333333  0.13628560  1.0
  Ga  Ga94  1  0.50000000  0.41666667  0.13628560  1.0
  Ga  Ga95  1  0.50000000  0.75000000  0.13628560  1.0
  Ga  Ga96  1  0.83333333  0.08333333  0.13628560  1.0
  Ga  Ga97  1  0.83333333  0.41666667  0.13628560  1.0
  Ga  Ga98  1  0.83333333  0.75000000  0.13628560  1.0
  Ga  Ga99  1  0.16666667  0.25000000  0.03628560  1.0
  Ga  Ga100  1  0.16666667  0.58333333  0.03628560  1.0
  Ga  Ga101  1  0.16666667  0.91666667  0.03628560  1.0
  Ga  Ga102  1  0.50000000  0.25000000  0.03628560  1.0
  Ga  Ga103  1  0.50000000  0.58333333  0.03628560  1.0
  Ga  Ga104  1  0.50000000  0.91666667  0.03628560  1.0
  Ga  Ga105  1  0.83333333  0.25000000  0.03628560  1.0
  Ga  Ga106  1  0.83333333  0.58333333  0.03628560  1.0
  Ga  Ga107  1  0.83333333  0.91666667  0.03628560  1.0
  Ga  Ga108  1  0.00000000  0.08333333  0.03628560  1.0
  Ga  Ga109  1  0.00000000  0.41666667  0.03628560  1.0
  Ga  Ga110  1  1.00000000  0.75000000  0.03628560  1.0
  Ga  Ga111  1  0.33333333  0.08333333  0.03628560  1.0
  Ga  Ga112  1  0.33333333  0.41666667  0.03628560  1.0
  Ga  Ga113  1  0.33333333  0.75000000  0.03628560  1.0
  Ga  Ga114  1  0.66666667  0.08333333  0.03628560  1.0
  Ga  Ga115  1  0.66666667  0.41666667  0.03628560  1.0
  Ga  Ga116  1  0.66666667  0.75000000  0.03628560  1.0
  Ga  Ga117  1  0.00000000  0.25000000  0.13628560  1.0
  Ga  Ga118  1  1.00000000  0.58333333  0.13628560  1.0
  Ga  Ga119  1  1.00000000  0.91666667  0.13628560  1.0
  Ga  Ga120  1  0.33333333  0.25000000  0.13628560  1.0
  Ga  Ga121  1  0.33333333  0.58333333  0.13628560  1.0
  Ga  Ga122  1  0.33333333  0.91666667  0.13628560  1.0
  Ga  Ga123  1  0.66666667  0.25000000  0.13628560  1.0
  Ga  Ga124  1  0.66666667  0.58333333  0.13628560  1.0
  Ga  Ga125  1  0.66666667  0.91666667  0.13628560  1.0
  Ga  Ga126  1  0.16666667  0.16666667  0.18628560  1.0
  Ga  Ga127  1  0.16666667  0.50000000  0.18628560  1.0
  Ga  Ga128  1  0.16666667  0.83333333  0.18628560  1.0
  Ga  Ga129  1  0.50000000  0.16666667  0.18628560  1.0
  Ga  Ga130  1  0.50000000  0.50000000  0.18628560  1.0
  Ga  Ga131  1  0.50000000  0.83333333  0.18628560  1.0
  Ga  Ga132  1  0.83333333  0.16666667  0.18628560  1.0
  Ga  Ga133  1  0.83333333  0.50000000  0.18628560  1.0
  Ga  Ga134  1  0.83333333  0.83333333  0.18628560  1.0
  Ga  Ga135  1  0.16666667  0.00000000  0.08628560  1.0
  Ga  Ga136  1  0.16666667  0.33333333  0.08628560  1.0
  Ga  Ga137  1  0.16666667  0.66666667  0.08628560  1.0
  Ga  Ga138  1  0.50000000  0.00000000  0.08628560  1.0
  Ga  Ga139  1  0.50000000  0.33333333  0.08628560  1.0
  Ga  Ga140  1  0.50000000  0.66666667  0.08628560  1.0
  Ga  Ga141  1  0.83333333  0.00000000  0.08628560  1.0
  Ga  Ga142  1  0.83333333  0.33333333  0.08628560  1.0
  Ga  Ga143  1  0.83333333  0.66666667  0.08628560  1.0
  Ga  Ga144  1  0.32923217  0.04166667  0.15882490  1.0
  Ga  Ga145  1  0.32923217  0.37500000  0.15882490  1.0
  Ga  Ga146  1  0.32923217  0.70833333  0.15882490  1.0
  Ga  Ga147  1  0.66256550  0.04166667  0.15882490  1.0
  Ga  Ga148  1  0.66256550  0.37500000  0.15882490  1.0
  Ga  Ga149  1  0.66256550  0.70833333  0.15882490  1.0
  Ga  Ga150  1  0.99589883  0.04166667  0.15882490  1.0
  Ga  Ga151  1  0.99589883  0.37500000  0.15882490  1.0
  Ga  Ga152  1  0.99589883  0.70833333  0.15882490  1.0
  Ga  Ga153  1  0.32923217  0.20833333  0.05882490  1.0
  Ga  Ga154  1  0.32923217  0.54166667  0.05882490  1.0
  Ga  Ga155  1  0.32923217  0.87500000  0.05882490  1.0
  Ga  Ga156  1  0.66256550  0.20833333  0.05882490  1.0
  Ga  Ga157  1  0.66256550  0.54166667  0.05882490  1.0
  Ga  Ga158  1  0.66256550  0.87500000  0.05882490  1.0
  Ga  Ga159  1  0.99589883  0.20833333  0.05882490  1.0
  Ga  Ga160  1  0.99589883  0.54166667  0.05882490  1.0
  Ga  Ga161  1  0.99589883  0.87500000  0.05882490  1.0
  Ga  Ga162  1  0.32923217  0.12294942  0.01005525  1.0
  Ga  Ga163  1  0.32923217  0.45628275  0.01005525  1.0
  Ga  Ga164  1  0.32923217  0.78961608  0.01005525  1.0
  Ga  Ga165  1  0.66256550  0.12294942  0.01005525  1.0
  Ga  Ga166  1  0.66256550  0.45628275  0.01005525  1.0
  Ga  Ga167  1  0.66256550  0.78961608  0.01005525  1.0
  Ga  Ga168  1  0.99589883  0.12294942  0.01005525  1.0
  Ga  Ga169  1  0.99589883  0.45628275  0.01005525  1.0
  Ga  Ga170  1  0.99589883  0.78961608  0.01005525  1.0
  Ga  Ga171  1  0.32923217  0.28961608  0.11005525  1.0
  Ga  Ga172  1  0.32923217  0.62294942  0.11005525  1.0
  Ga  Ga173  1  0.32923217  0.95628275  0.11005525  1.0
  Ga  Ga174  1  0.66256550  0.28961608  0.11005525  1.0
  Ga  Ga175  1  0.66256550  0.62294942  0.11005525  1.0
  Ga  Ga176  1  0.66256550  0.95628275  0.11005525  1.0
  Ga  Ga177  1  0.99589883  0.28961608  0.11005525  1.0
  Ga  Ga178  1  0.99589883  0.62294942  0.11005525  1.0
  Ga  Ga179  1  0.99589883  0.95628275  0.11005525  1.0
  Ga  Ga180  1  0.17076783  0.12705058  0.11251595  1.0
  Ga  Ga181  1  0.17076783  0.46038392  0.11251595  1.0
  Ga  Ga182  1  0.17076783  0.79371725  0.11251595  1.0
  Ga  Ga183  1  0.50410117  0.12705058  0.11251595  1.0
  Ga  Ga184  1  0.50410117  0.46038392  0.11251595  1.0
  Ga  Ga185  1  0.50410117  0.79371725  0.11251595  1.0
  Ga  Ga186  1  0.83743450  0.12705058  0.11251595  1.0
  Ga  Ga187  1  0.83743450  0.46038392  0.11251595  1.0
  Ga  Ga188  1  0.83743450  0.79371725  0.11251595  1.0
  Ga  Ga189  1  0.17076783  0.29371725  0.01251595  1.0
  Ga  Ga190  1  0.17076783  0.62705058  0.01251595  1.0
  Ga  Ga191  1  0.17076783  0.96038392  0.01251595  1.0
  Ga  Ga192  1  0.50410117  0.29371725  0.01251595  1.0
  Ga  Ga193  1  0.50410117  0.62705058  0.01251595  1.0
  Ga  Ga194  1  0.50410117  0.96038392  0.01251595  1.0
  Ga  Ga195  1  0.83743450  0.29371725  0.01251595  1.0
  Ga  Ga196  1  0.83743450  0.62705058  0.01251595  1.0
  Ga  Ga197  1  0.83743450  0.96038392  0.01251595  1.0
  Ga  Ga198  1  0.25000000  0.16461608  0.03259455  1.0
  Ga  Ga199  1  0.25000000  0.49794942  0.03259455  1.0
  Ga  Ga200  1  0.25000000  0.83128275  0.03259455  1.0
  Ga  Ga201  1  0.58333333  0.16461608  0.03259455  1.0
  Ga  Ga202  1  0.58333333  0.49794942  0.03259455  1.0
  Ga  Ga203  1  0.58333333  0.83128275  0.03259455  1.0
  Ga  Ga204  1  0.91666667  0.16461608  0.03259455  1.0
  Ga  Ga205  1  0.91666667  0.49794942  0.03259455  1.0
  Ga  Ga206  1  0.91666667  0.83128275  0.03259455  1.0
  Ga  Ga207  1  0.25000000  0.33128275  0.13259455  1.0
  Ga  Ga208  1  0.25000000  0.66461608  0.13259455  1.0
  Ga  Ga209  1  0.25000000  0.99794942  0.13259455  1.0
  Ga  Ga210  1  0.58333333  0.33128275  0.13259455  1.0
  Ga  Ga211  1  0.58333333  0.66461608  0.13259455  1.0
  Ga  Ga212  1  0.58333333  0.99794942  0.13259455  1.0
  Ga  Ga213  1  0.91666667  0.33128275  0.13259455  1.0
  Ga  Ga214  1  0.91666667  0.66461608  0.13259455  1.0
  Ga  Ga215  1  0.91666667  0.99794942  0.13259455  1.0
  Ga  Ga216  1  0.08333333  0.08538392  0.18997665  1.0
  Ga  Ga217  1  0.08333333  0.41871725  0.18997665  1.0
  Ga  Ga218  1  0.08333333  0.75205058  0.18997665  1.0
  Ga  Ga219  1  0.41666667  0.08538392  0.18997665  1.0
  Ga  Ga220  1  0.41666667  0.41871725  0.18997665  1.0
  Ga  Ga221  1  0.41666667  0.75205058  0.18997665  1.0
  Ga  Ga222  1  0.75000000  0.08538392  0.18997665  1.0
  Ga  Ga223  1  0.75000000  0.41871725  0.18997665  1.0
  Ga  Ga224  1  0.75000000  0.75205058  0.18997665  1.0
  Ga  Ga225  1  0.08333333  0.25205058  0.08997665  1.0
  Ga  Ga226  1  0.08333333  0.58538392  0.08997665  1.0
  Ga  Ga227  1  0.08333333  0.91871725  0.08997665  1.0
  Ga  Ga228  1  0.41666667  0.25205058  0.08997665  1.0
  Ga  Ga229  1  0.41666667  0.58538392  0.08997665  1.0
  Ga  Ga230  1  0.41666667  0.91871725  0.08997665  1.0
  Ga  Ga231  1  0.75000000  0.25205058  0.08997665  1.0
  Ga  Ga232  1  0.75000000  0.58538392  0.08997665  1.0
  Ga  Ga233  1  0.75000000  0.91871725  0.08997665  1.0
  Ga  Ga234  1  0.24589883  0.12500000  0.05882490  1.0
  Ga  Ga235  1  0.24589883  0.45833333  0.05882490  1.0
  Ga  Ga236  1  0.24589883  0.79166667  0.05882490  1.0
  Ga  Ga237  1  0.57923217  0.12500000  0.05882490  1.0
  Ga  Ga238  1  0.57923217  0.45833333  0.05882490  1.0
  Ga  Ga239  1  0.57923217  0.79166667  0.05882490  1.0
  Ga  Ga240  1  0.91256550  0.12500000  0.05882490  1.0
  Ga  Ga241  1  0.91256550  0.45833333  0.05882490  1.0
  Ga  Ga242  1  0.91256550  0.79166667  0.05882490  1.0
  Ga  Ga243  1  0.24589883  0.29166667  0.15882490  1.0
  Ga  Ga244  1  0.24589883  0.62500000  0.15882490  1.0
  Ga  Ga245  1  0.24589883  0.95833333  0.15882490  1.0
  Ga  Ga246  1  0.57923217  0.29166667  0.15882490  1.0
  Ga  Ga247  1  0.57923217  0.62500000  0.15882490  1.0
  Ga  Ga248  1  0.57923217  0.95833333  0.15882490  1.0
  Ga  Ga249  1  0.91256550  0.29166667  0.15882490  1.0
  Ga  Ga250  1  0.91256550  0.62500000  0.15882490  1.0
  Ga  Ga251  1  0.91256550  0.95833333  0.15882490  1.0
  Ga  Ga252  1  0.08333333  0.12294942  0.05759455  1.0
  Ga  Ga253  1  0.08333333  0.45628275  0.05759455  1.0
  Ga  Ga254  1  0.08333333  0.78961608  0.05759455  1.0
  Ga  Ga255  1  0.41666667  0.12294942  0.05759455  1.0
  Ga  Ga256  1  0.41666667  0.45628275  0.05759455  1.0
  Ga  Ga257  1  0.41666667  0.78961608  0.05759455  1.0
  Ga  Ga258  1  0.75000000  0.12294942  0.05759455  1.0
  Ga  Ga259  1  0.75000000  0.45628275  0.05759455  1.0
  Ga  Ga260  1  0.75000000  0.78961608  0.05759455  1.0
  Ga  Ga261  1  0.08333333  0.28961608  0.15759455  1.0
  Ga  Ga262  1  0.08333333  0.62294942  0.15759455  1.0
  Ga  Ga263  1  0.08333333  0.95628275  0.15759455  1.0
  Ga  Ga264  1  0.41666667  0.28961608  0.15759455  1.0
  Ga  Ga265  1  0.41666667  0.62294942  0.15759455  1.0
  Ga  Ga266  1  0.41666667  0.95628275  0.15759455  1.0
  Ga  Ga267  1  0.75000000  0.28961608  0.15759455  1.0
  Ga  Ga268  1  0.75000000  0.62294942  0.15759455  1.0
  Ga  Ga269  1  0.75000000  0.95628275  0.15759455  1.0
  Ga  Ga270  1  0.25410117  0.08538392  0.18751595  1.0
  Ga  Ga271  1  0.25410117  0.41871725  0.18751595  1.0
  Ga  Ga272  1  0.25410117  0.75205058  0.18751595  1.0
  Ga  Ga273  1  0.58743450  0.08538392  0.18751595  1.0
  Ga  Ga274  1  0.58743450  0.41871725  0.18751595  1.0
  Ga  Ga275  1  0.58743450  0.75205058  0.18751595  1.0
  Ga  Ga276  1  0.92076783  0.08538392  0.18751595  1.0
  Ga  Ga277  1  0.92076783  0.41871725  0.18751595  1.0
  Ga  Ga278  1  0.92076783  0.75205058  0.18751595  1.0
  Ga  Ga279  1  0.25410117  0.25205058  0.08751595  1.0
  Ga  Ga280  1  0.25410117  0.58538392  0.08751595  1.0
  Ga  Ga281  1  0.25410117  0.91871725  0.08751595  1.0
  Ga  Ga282  1  0.58743450  0.25205058  0.08751595  1.0
  Ga  Ga283  1  0.58743450  0.58538392  0.08751595  1.0
  Ga  Ga284  1  0.58743450  0.91871725  0.08751595  1.0
  Ga  Ga285  1  0.92076783  0.25205058  0.08751595  1.0
  Ga  Ga286  1  0.92076783  0.58538392  0.08751595  1.0
  Ga  Ga287  1  0.92076783  0.91871725  0.08751595  1.0
  Ga  Ga288  1  0.25000000  0.12705058  0.16497665  1.0
  Ga  Ga289  1  0.25000000  0.46038392  0.16497665  1.0
  Ga  Ga290  1  0.25000000  0.79371725  0.16497665  1.0
  Ga  Ga291  1  0.58333333  0.12705058  0.16497665  1.0
  Ga  Ga292  1  0.58333333  0.46038392  0.16497665  1.0
  Ga  Ga293  1  0.58333333  0.79371725  0.16497665  1.0
  Ga  Ga294  1  0.91666667  0.12705058  0.16497665  1.0
  Ga  Ga295  1  0.91666667  0.46038392  0.16497665  1.0
  Ga  Ga296  1  0.91666667  0.79371725  0.16497665  1.0
  Ga  Ga297  1  0.25000000  0.29371725  0.06497665  1.0
  Ga  Ga298  1  0.25000000  0.62705058  0.06497665  1.0
  Ga  Ga299  1  0.25000000  0.96038392  0.06497665  1.0
  Ga  Ga300  1  0.58333333  0.29371725  0.06497665  1.0
  Ga  Ga301  1  0.58333333  0.62705058  0.06497665  1.0
  Ga  Ga302  1  0.58333333  0.96038392  0.06497665  1.0
  Ga  Ga303  1  0.91666667  0.29371725  0.06497665  1.0
  Ga  Ga304  1  0.91666667  0.62705058  0.06497665  1.0
  Ga  Ga305  1  0.91666667  0.96038392  0.06497665  1.0
  Ga  Ga306  1  0.24589883  0.16461608  0.13505525  1.0
  Ga  Ga307  1  0.24589883  0.49794942  0.13505525  1.0
  Ga  Ga308  1  0.24589883  0.83128275  0.13505525  1.0
  Ga  Ga309  1  0.57923217  0.16461608  0.13505525  1.0
  Ga  Ga310  1  0.57923217  0.49794942  0.13505525  1.0
  Ga  Ga311  1  0.57923217  0.83128275  0.13505525  1.0
  Ga  Ga312  1  0.91256550  0.16461608  0.13505525  1.0
  Ga  Ga313  1  0.91256550  0.49794942  0.13505525  1.0
  Ga  Ga314  1  0.91256550  0.83128275  0.13505525  1.0
  Ga  Ga315  1  0.24589883  0.33128275  0.03505525  1.0
  Ga  Ga316  1  0.24589883  0.66461608  0.03505525  1.0
  Ga  Ga317  1  0.24589883  0.99794942  0.03505525  1.0
  Ga  Ga318  1  0.57923217  0.33128275  0.03505525  1.0
  Ga  Ga319  1  0.57923217  0.66461608  0.03505525  1.0
  Ga  Ga320  1  0.57923217  0.99794942  0.03505525  1.0
  Ga  Ga321  1  0.91256550  0.33128275  0.03505525  1.0
  Ga  Ga322  1  0.91256550  0.66461608  0.03505525  1.0
  Ga  Ga323  1  0.91256550  0.99794942  0.03505525  1.0
  Ga  Ga324  1  0.17076783  0.12500000  0.01374630  1.0
  Ga  Ga325  1  0.17076783  0.45833333  0.01374630  1.0
  Ga  Ga326  1  0.17076783  0.79166667  0.01374630  1.0
  Ga  Ga327  1  0.50410117  0.12500000  0.01374630  1.0
  Ga  Ga328  1  0.50410117  0.45833333  0.01374630  1.0
  Ga  Ga329  1  0.50410117  0.79166667  0.01374630  1.0
  Ga  Ga330  1  0.83743450  0.12500000  0.01374630  1.0
  Ga  Ga331  1  0.83743450  0.45833333  0.01374630  1.0
  Ga  Ga332  1  0.83743450  0.79166667  0.01374630  1.0
  Ga  Ga333  1  0.17076783  0.29166667  0.11374630  1.0
  Ga  Ga334  1  0.17076783  0.62500000  0.11374630  1.0
  Ga  Ga335  1  0.17076783  0.95833333  0.11374630  1.0
  Ga  Ga336  1  0.50410117  0.29166667  0.11374630  1.0
  Ga  Ga337  1  0.50410117  0.62500000  0.11374630  1.0
  Ga  Ga338  1  0.50410117  0.95833333  0.11374630  1.0
  Ga  Ga339  1  0.83743450  0.29166667  0.11374630  1.0
  Ga  Ga340  1  0.83743450  0.62500000  0.11374630  1.0
  Ga  Ga341  1  0.83743450  0.95833333  0.11374630  1.0
  Ga  Ga342  1  0.25410117  0.04166667  0.11374630  1.0
  Ga  Ga343  1  0.25410117  0.37500000  0.11374630  1.0
  Ga  Ga344  1  0.25410117  0.70833333  0.11374630  1.0
  Ga  Ga345  1  0.58743450  0.04166667  0.11374630  1.0
  Ga  Ga346  1  0.58743450  0.37500000  0.11374630  1.0
  Ga  Ga347  1  0.58743450  0.70833333  0.11374630  1.0
  Ga  Ga348  1  0.92076783  0.04166667  0.11374630  1.0
  Ga  Ga349  1  0.92076783  0.37500000  0.11374630  1.0
  Ga  Ga350  1  0.92076783  0.70833333  0.11374630  1.0
  Ga  Ga351  1  0.25410117  0.20833333  0.01374630  1.0
  Ga  Ga352  1  0.25410117  0.54166667  0.01374630  1.0
  Ga  Ga353  1  0.25410117  0.87500000  0.01374630  1.0
  Ga  Ga354  1  0.58743450  0.20833333  0.01374630  1.0
  Ga  Ga355  1  0.58743450  0.54166667  0.01374630  1.0
  Ga  Ga356  1  0.58743450  0.87500000  0.01374630  1.0
  Ga  Ga357  1  0.92076783  0.20833333  0.01374630  1.0
  Ga  Ga358  1  0.92076783  0.54166667  0.01374630  1.0
  Ga  Ga359  1  0.92076783  0.87500000  0.01374630  1.0
  Ga  Ga360  1  0.00410117  0.12500000  0.11374630  1.0
  Ga  Ga361  1  0.00410117  0.45833333  0.11374630  1.0
  Ga  Ga362  1  0.00410117  0.79166667  0.11374630  1.0
  Ga  Ga363  1  0.33743450  0.12500000  0.11374630  1.0
  Ga  Ga364  1  0.33743450  0.45833333  0.11374630  1.0
  Ga  Ga365  1  0.33743450  0.79166667  0.11374630  1.0
  Ga  Ga366  1  0.67076783  0.12500000  0.11374630  1.0
  Ga  Ga367  1  0.67076783  0.45833333  0.11374630  1.0
  Ga  Ga368  1  0.67076783  0.79166667  0.11374630  1.0
  Ga  Ga369  1  0.00410117  0.29166667  0.01374630  1.0
  Ga  Ga370  1  0.00410117  0.62500000  0.01374630  1.0
  Ga  Ga371  1  0.00410117  0.95833333  0.01374630  1.0
  Ga  Ga372  1  0.33743450  0.29166667  0.01374630  1.0
  Ga  Ga373  1  0.33743450  0.62500000  0.01374630  1.0
  Ga  Ga374  1  0.33743450  0.95833333  0.01374630  1.0
  Ga  Ga375  1  0.67076783  0.29166667  0.01374630  1.0
  Ga  Ga376  1  0.67076783  0.62500000  0.01374630  1.0
  Ga  Ga377  1  0.67076783  0.95833333  0.01374630  1.0
  Ga  Ga378  1  0.00410117  0.04371725  0.06251595  1.0
  Ga  Ga379  1  0.00410117  0.37705058  0.06251595  1.0
  Ga  Ga380  1  0.00410117  0.71038392  0.06251595  1.0
  Ga  Ga381  1  0.33743450  0.04371725  0.06251595  1.0
  Ga  Ga382  1  0.33743450  0.37705058  0.06251595  1.0
  Ga  Ga383  1  0.33743450  0.71038392  0.06251595  1.0
  Ga  Ga384  1  0.67076783  0.04371725  0.06251595  1.0
  Ga  Ga385  1  0.67076783  0.37705058  0.06251595  1.0
  Ga  Ga386  1  0.67076783  0.71038392  0.06251595  1.0
  Ga  Ga387  1  0.00410117  0.21038392  0.16251595  1.0
  Ga  Ga388  1  0.00410117  0.54371725  0.16251595  1.0
  Ga  Ga389  1  0.00410117  0.87705058  0.16251595  1.0
  Ga  Ga390  1  0.33743450  0.21038392  0.16251595  1.0
  Ga  Ga391  1  0.33743450  0.54371725  0.16251595  1.0
  Ga  Ga392  1  0.33743450  0.87705058  0.16251595  1.0
  Ga  Ga393  1  0.67076783  0.21038392  0.16251595  1.0
  Ga  Ga394  1  0.67076783  0.54371725  0.16251595  1.0
  Ga  Ga395  1  0.67076783  0.87705058  0.16251595  1.0
  Ga  Ga396  1  0.16256550  0.03961608  0.16005525  1.0
  Ga  Ga397  1  0.16256550  0.37294942  0.16005525  1.0
  Ga  Ga398  1  0.16256550  0.70628275  0.16005525  1.0
  Ga  Ga399  1  0.49589883  0.03961608  0.16005525  1.0
  Ga  Ga400  1  0.49589883  0.37294942  0.16005525  1.0
  Ga  Ga401  1  0.49589883  0.70628275  0.16005525  1.0
  Ga  Ga402  1  0.82923217  0.03961608  0.16005525  1.0
  Ga  Ga403  1  0.82923217  0.37294942  0.16005525  1.0
  Ga  Ga404  1  0.82923217  0.70628275  0.16005525  1.0
  Ga  Ga405  1  0.16256550  0.20628275  0.06005525  1.0
  Ga  Ga406  1  0.16256550  0.53961608  0.06005525  1.0
  Ga  Ga407  1  0.16256550  0.87294942  0.06005525  1.0
  Ga  Ga408  1  0.49589883  0.20628275  0.06005525  1.0
  Ga  Ga409  1  0.49589883  0.53961608  0.06005525  1.0
  Ga  Ga410  1  0.49589883  0.87294942  0.06005525  1.0
  Ga  Ga411  1  0.82923217  0.20628275  0.06005525  1.0
  Ga  Ga412  1  0.82923217  0.53961608  0.06005525  1.0
  Ga  Ga413  1  0.82923217  0.87294942  0.06005525  1.0
  Ga  Ga414  1  0.08333333  0.00205058  0.03997665  1.0
  Ga  Ga415  1  0.08333333  0.33538392  0.03997665  1.0
  Ga  Ga416  1  0.08333333  0.66871725  0.03997665  1.0
  Ga  Ga417  1  0.41666667  0.00205058  0.03997665  1.0
  Ga  Ga418  1  0.41666667  0.33538392  0.03997665  1.0
  Ga  Ga419  1  0.41666667  0.66871725  0.03997665  1.0
  Ga  Ga420  1  0.75000000  0.00205058  0.03997665  1.0
  Ga  Ga421  1  0.75000000  0.33538392  0.03997665  1.0
  Ga  Ga422  1  0.75000000  0.66871725  0.03997665  1.0
  Ga  Ga423  1  0.08333333  0.16871725  0.13997665  1.0
  Ga  Ga424  1  0.08333333  0.50205058  0.13997665  1.0
  Ga  Ga425  1  0.08333333  0.83538392  0.13997665  1.0
  Ga  Ga426  1  0.41666667  0.16871725  0.13997665  1.0
  Ga  Ga427  1  0.41666667  0.50205058  0.13997665  1.0
  Ga  Ga428  1  0.41666667  0.83538392  0.13997665  1.0
  Ga  Ga429  1  0.75000000  0.16871725  0.13997665  1.0
  Ga  Ga430  1  0.75000000  0.50205058  0.13997665  1.0
  Ga  Ga431  1  0.75000000  0.83538392  0.13997665  1.0
  Ga  Ga432  1  0.25000000  0.08128275  0.08259455  1.0
  Ga  Ga433  1  0.25000000  0.41461608  0.08259455  1.0
  Ga  Ga434  1  0.25000000  0.74794942  0.08259455  1.0
  Ga  Ga435  1  0.58333333  0.08128275  0.08259455  1.0
  Ga  Ga436  1  0.58333333  0.41461608  0.08259455  1.0
  Ga  Ga437  1  0.58333333  0.74794942  0.08259455  1.0
  Ga  Ga438  1  0.91666667  0.08128275  0.08259455  1.0
  Ga  Ga439  1  0.91666667  0.41461608  0.08259455  1.0
  Ga  Ga440  1  0.91666667  0.74794942  0.08259455  1.0
  Ga  Ga441  1  0.25000000  0.24794942  0.18259455  1.0
  Ga  Ga442  1  0.25000000  0.58128275  0.18259455  1.0
  Ga  Ga443  1  0.25000000  0.91461608  0.18259455  1.0
  Ga  Ga444  1  0.58333333  0.24794942  0.18259455  1.0
  Ga  Ga445  1  0.58333333  0.58128275  0.18259455  1.0
  Ga  Ga446  1  0.58333333  0.91461608  0.18259455  1.0
  Ga  Ga447  1  0.91666667  0.24794942  0.18259455  1.0
  Ga  Ga448  1  0.91666667  0.58128275  0.18259455  1.0
  Ga  Ga449  1  0.91666667  0.91461608  0.18259455  1.0
  Ga  Ga450  1  0.08743450  0.04166667  0.01374630  1.0
  Ga  Ga451  1  0.08743450  0.37500000  0.01374630  1.0
  Ga  Ga452  1  0.08743450  0.70833333  0.01374630  1.0
  Ga  Ga453  1  0.42076783  0.04166667  0.01374630  1.0
  Ga  Ga454  1  0.42076783  0.37500000  0.01374630  1.0
  Ga  Ga455  1  0.42076783  0.70833333  0.01374630  1.0
  Ga  Ga456  1  0.75410117  0.04166667  0.01374630  1.0
  Ga  Ga457  1  0.75410117  0.37500000  0.01374630  1.0
  Ga  Ga458  1  0.75410117  0.70833333  0.01374630  1.0
  Ga  Ga459  1  0.08743450  0.20833333  0.11374630  1.0
  Ga  Ga460  1  0.08743450  0.54166667  0.11374630  1.0
  Ga  Ga461  1  0.08743450  0.87500000  0.11374630  1.0
  Ga  Ga462  1  0.42076783  0.20833333  0.11374630  1.0
  Ga  Ga463  1  0.42076783  0.54166667  0.11374630  1.0
  Ga  Ga464  1  0.42076783  0.87500000  0.11374630  1.0
  Ga  Ga465  1  0.75410117  0.20833333  0.11374630  1.0
  Ga  Ga466  1  0.75410117  0.54166667  0.11374630  1.0
  Ga  Ga467  1  0.75410117  0.87500000  0.11374630  1.0
  Ga  Ga468  1  0.25000000  0.04371725  0.01497665  1.0
  Ga  Ga469  1  0.25000000  0.37705058  0.01497665  1.0
  Ga  Ga470  1  0.25000000  0.71038392  0.01497665  1.0
  Ga  Ga471  1  0.58333333  0.04371725  0.01497665  1.0
  Ga  Ga472  1  0.58333333  0.37705058  0.01497665  1.0
  Ga  Ga473  1  0.58333333  0.71038392  0.01497665  1.0
  Ga  Ga474  1  0.91666667  0.04371725  0.01497665  1.0
  Ga  Ga475  1  0.91666667  0.37705058  0.01497665  1.0
  Ga  Ga476  1  0.91666667  0.71038392  0.01497665  1.0
  Ga  Ga477  1  0.25000000  0.21038392  0.11497665  1.0
  Ga  Ga478  1  0.25000000  0.54371725  0.11497665  1.0
  Ga  Ga479  1  0.25000000  0.87705058  0.11497665  1.0
  Ga  Ga480  1  0.58333333  0.21038392  0.11497665  1.0
  Ga  Ga481  1  0.58333333  0.54371725  0.11497665  1.0
  Ga  Ga482  1  0.58333333  0.87705058  0.11497665  1.0
  Ga  Ga483  1  0.91666667  0.21038392  0.11497665  1.0
  Ga  Ga484  1  0.91666667  0.54371725  0.11497665  1.0
  Ga  Ga485  1  0.91666667  0.87705058  0.11497665  1.0
  Ga  Ga486  1  0.07923217  0.08128275  0.08505525  1.0
  Ga  Ga487  1  0.07923217  0.41461608  0.08505525  1.0
  Ga  Ga488  1  0.07923217  0.74794942  0.08505525  1.0
  Ga  Ga489  1  0.41256550  0.08128275  0.08505525  1.0
  Ga  Ga490  1  0.41256550  0.41461608  0.08505525  1.0
  Ga  Ga491  1  0.41256550  0.74794942  0.08505525  1.0
  Ga  Ga492  1  0.74589883  0.08128275  0.08505525  1.0
  Ga  Ga493  1  0.74589883  0.41461608  0.08505525  1.0
  Ga  Ga494  1  0.74589883  0.74794942  0.08505525  1.0
  Ga  Ga495  1  0.07923217  0.24794942  0.18505525  1.0
  Ga  Ga496  1  0.07923217  0.58128275  0.18505525  1.0
  Ga  Ga497  1  0.07923217  0.91461608  0.18505525  1.0
  Ga  Ga498  1  0.41256550  0.24794942  0.18505525  1.0
  Ga  Ga499  1  0.41256550  0.58128275  0.18505525  1.0
  Ga  Ga500  1  0.41256550  0.91461608  0.18505525  1.0
  Ga  Ga501  1  0.74589883  0.24794942  0.18505525  1.0
  Ga  Ga502  1  0.74589883  0.58128275  0.18505525  1.0
  Ga  Ga503  1  0.74589883  0.91461608  0.18505525  1.0
  Ga  Ga504  1  0.08333333  0.03961608  0.10759455  1.0
  Ga  Ga505  1  0.08333333  0.37294942  0.10759455  1.0
  Ga  Ga506  1  0.08333333  0.70628275  0.10759455  1.0
  Ga  Ga507  1  0.41666667  0.03961608  0.10759455  1.0
  Ga  Ga508  1  0.41666667  0.37294942  0.10759455  1.0
  Ga  Ga509  1  0.41666667  0.70628275  0.10759455  1.0
  Ga  Ga510  1  0.75000000  0.03961608  0.10759455  1.0
  Ga  Ga511  1  0.75000000  0.37294942  0.10759455  1.0
  Ga  Ga512  1  0.75000000  0.70628275  0.10759455  1.0
  Ga  Ga513  1  0.08333333  0.20628275  0.00759455  1.0
  Ga  Ga514  1  0.08333333  0.53961608  0.00759455  1.0
  Ga  Ga515  1  0.08333333  0.87294942  0.00759455  1.0
  Ga  Ga516  1  0.41666667  0.20628275  0.00759455  1.0
  Ga  Ga517  1  0.41666667  0.53961608  0.00759455  1.0
  Ga  Ga518  1  0.41666667  0.87294942  0.00759455  1.0
  Ga  Ga519  1  0.75000000  0.20628275  0.00759455  1.0
  Ga  Ga520  1  0.75000000  0.53961608  0.00759455  1.0
  Ga  Ga521  1  0.75000000  0.87294942  0.00759455  1.0
  Ga  Ga522  1  0.08743450  0.00205058  0.13751595  1.0
  Ga  Ga523  1  0.08743450  0.33538392  0.13751595  1.0
  Ga  Ga524  1  0.08743450  0.66871725  0.13751595  1.0
  Ga  Ga525  1  0.42076783  0.00205058  0.13751595  1.0
  Ga  Ga526  1  0.42076783  0.33538392  0.13751595  1.0
  Ga  Ga527  1  0.42076783  0.66871725  0.13751595  1.0
  Ga  Ga528  1  0.75410117  0.00205058  0.13751595  1.0
  Ga  Ga529  1  0.75410117  0.33538392  0.13751595  1.0
  Ga  Ga530  1  0.75410117  0.66871725  0.13751595  1.0
  Ga  Ga531  1  0.08743450  0.16871725  0.03751595  1.0
  Ga  Ga532  1  0.08743450  0.50205058  0.03751595  1.0
  Ga  Ga533  1  0.08743450  0.83538392  0.03751595  1.0
  Ga  Ga534  1  0.42076783  0.16871725  0.03751595  1.0
  Ga  Ga535  1  0.42076783  0.50205058  0.03751595  1.0
  Ga  Ga536  1  0.42076783  0.83538392  0.03751595  1.0
  Ga  Ga537  1  0.75410117  0.16871725  0.03751595  1.0
  Ga  Ga538  1  0.75410117  0.50205058  0.03751595  1.0
  Ga  Ga539  1  0.75410117  0.83538392  0.03751595  1.0
  Ga  Ga540  1  0.16256550  0.04166667  0.05882490  1.0
  Ga  Ga541  1  0.16256550  0.37500000  0.05882490  1.0
  Ga  Ga542  1  0.16256550  0.70833333  0.05882490  1.0
  Ga  Ga543  1  0.49589883  0.04166667  0.05882490  1.0
  Ga  Ga544  1  0.49589883  0.37500000  0.05882490  1.0
  Ga  Ga545  1  0.49589883  0.70833333  0.05882490  1.0
  Ga  Ga546  1  0.82923217  0.04166667  0.05882490  1.0
  Ga  Ga547  1  0.82923217  0.37500000  0.05882490  1.0
  Ga  Ga548  1  0.82923217  0.70833333  0.05882490  1.0
  Ga  Ga549  1  0.16256550  0.20833333  0.15882490  1.0
  Ga  Ga550  1  0.16256550  0.54166667  0.15882490  1.0
  Ga  Ga551  1  0.16256550  0.87500000  0.15882490  1.0
  Ga  Ga552  1  0.49589883  0.20833333  0.15882490  1.0
  Ga  Ga553  1  0.49589883  0.54166667  0.15882490  1.0
  Ga  Ga554  1  0.49589883  0.87500000  0.15882490  1.0
  Ga  Ga555  1  0.82923217  0.20833333  0.15882490  1.0
  Ga  Ga556  1  0.82923217  0.54166667  0.15882490  1.0
  Ga  Ga557  1  0.82923217  0.87500000  0.15882490  1.0
  Ga  Ga558  1  0.07923217  0.12500000  0.15882490  1.0
  Ga  Ga559  1  0.07923217  0.45833333  0.15882490  1.0
  Ga  Ga560  1  0.07923217  0.79166667  0.15882490  1.0
  Ga  Ga561  1  0.41256550  0.12500000  0.15882490  1.0
  Ga  Ga562  1  0.41256550  0.45833333  0.15882490  1.0
  Ga  Ga563  1  0.41256550  0.79166667  0.15882490  1.0
  Ga  Ga564  1  0.74589883  0.12500000  0.15882490  1.0
  Ga  Ga565  1  0.74589883  0.45833333  0.15882490  1.0
  Ga  Ga566  1  0.74589883  0.79166667  0.15882490  1.0
  Ga  Ga567  1  0.07923217  0.29166667  0.05882490  1.0
  Ga  Ga568  1  0.07923217  0.62500000  0.05882490  1.0
  Ga  Ga569  1  0.07923217  0.95833333  0.05882490  1.0
  Ga  Ga570  1  0.41256550  0.29166667  0.05882490  1.0
  Ga  Ga571  1  0.41256550  0.62500000  0.05882490  1.0
  Ga  Ga572  1  0.41256550  0.95833333  0.05882490  1.0
  Ga  Ga573  1  0.74589883  0.29166667  0.05882490  1.0
  Ga  Ga574  1  0.74589883  0.62500000  0.05882490  1.0
  Ga  Ga575  1  0.74589883  0.95833333  0.05882490  1.0
  Ni  Ni576  1  0.16936533  0.08603200  0.08952400  1.0
  Ni  Ni577  1  0.16936533  0.41936533  0.08952400  1.0
  Ni  Ni578  1  0.16936533  0.75269867  0.08952400  1.0
  Ni  Ni579  1  0.50269867  0.08603200  0.08952400  1.0
  Ni  Ni580  1  0.50269867  0.41936533  0.08952400  1.0
  Ni  Ni581  1  0.50269867  0.75269867  0.08952400  1.0
  Ni  Ni582  1  0.83603200  0.08603200  0.08952400  1.0
  Ni  Ni583  1  0.83603200  0.41936533  0.08952400  1.0
  Ni  Ni584  1  0.83603200  0.75269867  0.08952400  1.0
  Ni  Ni585  1  0.16936533  0.25269867  0.18952400  1.0
  Ni  Ni586  1  0.16936533  0.58603200  0.18952400  1.0
  Ni  Ni587  1  0.16936533  0.91936533  0.18952400  1.0
  Ni  Ni588  1  0.50269867  0.25269867  0.18952400  1.0
  Ni  Ni589  1  0.50269867  0.58603200  0.18952400  1.0
  Ni  Ni590  1  0.50269867  0.91936533  0.18952400  1.0
  Ni  Ni591  1  0.83603200  0.25269867  0.18952400  1.0
  Ni  Ni592  1  0.83603200  0.58603200  0.18952400  1.0
  Ni  Ni593  1  0.83603200  0.91936533  0.18952400  1.0
  Ni  Ni594  1  0.08063467  0.04301600  0.16209520  1.0
  Ni  Ni595  1  0.08063467  0.37634933  0.16209520  1.0
  Ni  Ni596  1  0.08063467  0.70968267  0.16209520  1.0
  Ni  Ni597  1  0.41396800  0.04301600  0.16209520  1.0
  Ni  Ni598  1  0.41396800  0.37634933  0.16209520  1.0
  Ni  Ni599  1  0.41396800  0.70968267  0.16209520  1.0
  Ni  Ni600  1  0.74730133  0.04301600  0.16209520  1.0
  Ni  Ni601  1  0.74730133  0.37634933  0.16209520  1.0
  Ni  Ni602  1  0.74730133  0.70968267  0.16209520  1.0
  Ni  Ni603  1  0.08063467  0.20968267  0.06209520  1.0
  Ni  Ni604  1  0.08063467  0.54301600  0.06209520  1.0
  Ni  Ni605  1  0.08063467  0.87634933  0.06209520  1.0
  Ni  Ni606  1  0.41396800  0.20968267  0.06209520  1.0
  Ni  Ni607  1  0.41396800  0.54301600  0.06209520  1.0
  Ni  Ni608  1  0.41396800  0.87634933  0.06209520  1.0
  Ni  Ni609  1  0.74730133  0.20968267  0.06209520  1.0
  Ni  Ni610  1  0.74730133  0.54301600  0.06209520  1.0
  Ni  Ni611  1  0.74730133  0.87634933  0.06209520  1.0
  Ni  Ni612  1  0.08603200  0.08468267  0.14033360  1.0
  Ni  Ni613  1  0.08603200  0.41801600  0.14033360  1.0
  Ni  Ni614  1  0.08603200  0.75134933  0.14033360  1.0
  Ni  Ni615  1  0.41936533  0.08468267  0.14033360  1.0
  Ni  Ni616  1  0.41936533  0.41801600  0.14033360  1.0
  Ni  Ni617  1  0.41936533  0.75134933  0.14033360  1.0
  Ni  Ni618  1  0.75269867  0.08468267  0.14033360  1.0
  Ni  Ni619  1  0.75269867  0.41801600  0.14033360  1.0
  Ni  Ni620  1  0.75269867  0.75134933  0.14033360  1.0
  Ni  Ni621  1  0.08603200  0.25134933  0.04033360  1.0
  Ni  Ni622  1  0.08603200  0.58468267  0.04033360  1.0
  Ni  Ni623  1  0.08603200  0.91801600  0.04033360  1.0
  Ni  Ni624  1  0.41936533  0.25134933  0.04033360  1.0
  Ni  Ni625  1  0.41936533  0.58468267  0.04033360  1.0
  Ni  Ni626  1  0.41936533  0.91801600  0.04033360  1.0
  Ni  Ni627  1  0.75269867  0.25134933  0.04033360  1.0
  Ni  Ni628  1  0.75269867  0.58468267  0.04033360  1.0
  Ni  Ni629  1  0.75269867  0.91801600  0.04033360  1.0
  Ni  Ni630  1  0.25000000  0.08468267  0.03547600  1.0
  Ni  Ni631  1  0.25000000  0.41801600  0.03547600  1.0
  Ni  Ni632  1  0.25000000  0.75134933  0.03547600  1.0
  Ni  Ni633  1  0.58333333  0.08468267  0.03547600  1.0
  Ni  Ni634  1  0.58333333  0.41801600  0.03547600  1.0
  Ni  Ni635  1  0.58333333  0.75134933  0.03547600  1.0
  Ni  Ni636  1  0.91666667  0.08468267  0.03547600  1.0
  Ni  Ni637  1  0.91666667  0.41801600  0.03547600  1.0
  Ni  Ni638  1  0.91666667  0.75134933  0.03547600  1.0
  Ni  Ni639  1  0.25000000  0.25134933  0.13547600  1.0
  Ni  Ni640  1  0.25000000  0.58468267  0.13547600  1.0
  Ni  Ni641  1  0.25000000  0.91801600  0.13547600  1.0
  Ni  Ni642  1  0.58333333  0.25134933  0.13547600  1.0
  Ni  Ni643  1  0.58333333  0.58468267  0.13547600  1.0
  Ni  Ni644  1  0.58333333  0.91801600  0.13547600  1.0
  Ni  Ni645  1  0.91666667  0.25134933  0.13547600  1.0
  Ni  Ni646  1  0.91666667  0.58468267  0.13547600  1.0
  Ni  Ni647  1  0.91666667  0.91801600  0.13547600  1.0
  Ni  Ni648  1  0.17206400  0.04301600  0.11371440  1.0
  Ni  Ni649  1  0.17206400  0.37634933  0.11371440  1.0
  Ni  Ni650  1  0.17206400  0.70968267  0.11371440  1.0
  Ni  Ni651  1  0.50539733  0.04301600  0.11371440  1.0
  Ni  Ni652  1  0.50539733  0.37634933  0.11371440  1.0
  Ni  Ni653  1  0.50539733  0.70968267  0.11371440  1.0
  Ni  Ni654  1  0.83873067  0.04301600  0.11371440  1.0
  Ni  Ni655  1  0.83873067  0.37634933  0.11371440  1.0
  Ni  Ni656  1  0.83873067  0.70968267  0.11371440  1.0
  Ni  Ni657  1  0.17206400  0.20968267  0.01371440  1.0
  Ni  Ni658  1  0.17206400  0.54301600  0.01371440  1.0
  Ni  Ni659  1  0.17206400  0.87634933  0.01371440  1.0
  Ni  Ni660  1  0.50539733  0.20968267  0.01371440  1.0
  Ni  Ni661  1  0.50539733  0.54301600  0.01371440  1.0
  Ni  Ni662  1  0.50539733  0.87634933  0.01371440  1.0
  Ni  Ni663  1  0.83873067  0.20968267  0.01371440  1.0
  Ni  Ni664  1  0.83873067  0.54301600  0.01371440  1.0
  Ni  Ni665  1  0.83873067  0.87634933  0.01371440  1.0
  Ni  Ni666  1  0.08603200  0.12500000  0.10966640  1.0
  Ni  Ni667  1  0.08603200  0.45833333  0.10966640  1.0
  Ni  Ni668  1  0.08603200  0.79166667  0.10966640  1.0
  Ni  Ni669  1  0.41936533  0.12500000  0.10966640  1.0
  Ni  Ni670  1  0.41936533  0.45833333  0.10966640  1.0
  Ni  Ni671  1  0.41936533  0.79166667  0.10966640  1.0
  Ni  Ni672  1  0.75269867  0.12500000  0.10966640  1.0
  Ni  Ni673  1  0.75269867  0.45833333  0.10966640  1.0
  Ni  Ni674  1  0.75269867  0.79166667  0.10966640  1.0
  Ni  Ni675  1  0.08603200  0.29166667  0.00966640  1.0
  Ni  Ni676  1  0.08603200  0.62500000  0.00966640  1.0
  Ni  Ni677  1  0.08603200  0.95833333  0.00966640  1.0
  Ni  Ni678  1  0.41936533  0.29166667  0.00966640  1.0
  Ni  Ni679  1  0.41936533  0.62500000  0.00966640  1.0
  Ni  Ni680  1  0.41936533  0.95833333  0.00966640  1.0
  Ni  Ni681  1  0.75269867  0.29166667  0.00966640  1.0
  Ni  Ni682  1  0.75269867  0.62500000  0.00966640  1.0
  Ni  Ni683  1  0.75269867  0.95833333  0.00966640  1.0
  Ni  Ni684  1  0.33063467  0.12500000  0.16290480  1.0
  Ni  Ni685  1  0.33063467  0.45833333  0.16290480  1.0
  Ni  Ni686  1  0.33063467  0.79166667  0.16290480  1.0
  Ni  Ni687  1  0.66396800  0.12500000  0.16290480  1.0
  Ni  Ni688  1  0.66396800  0.45833333  0.16290480  1.0
  Ni  Ni689  1  0.66396800  0.79166667  0.16290480  1.0
  Ni  Ni690  1  0.99730133  0.12500000  0.16290480  1.0
  Ni  Ni691  1  0.99730133  0.45833333  0.16290480  1.0
  Ni  Ni692  1  0.99730133  0.79166667  0.16290480  1.0
  Ni  Ni693  1  0.33063467  0.29166667  0.06290480  1.0
  Ni  Ni694  1  0.33063467  0.62500000  0.06290480  1.0
  Ni  Ni695  1  0.33063467  0.95833333  0.06290480  1.0
  Ni  Ni696  1  0.66396800  0.29166667  0.06290480  1.0
  Ni  Ni697  1  0.66396800  0.62500000  0.06290480  1.0
  Ni  Ni698  1  0.66396800  0.95833333  0.06290480  1.0
  Ni  Ni699  1  0.99730133  0.29166667  0.06290480  1.0
  Ni  Ni700  1  0.99730133  0.62500000  0.06290480  1.0
  Ni  Ni701  1  0.99730133  0.95833333  0.06290480  1.0
  Ni  Ni702  1  0.32793600  0.16531733  0.13385680  1.0
  Ni  Ni703  1  0.32793600  0.49865067  0.13385680  1.0
  Ni  Ni704  1  0.32793600  0.83198400  0.13385680  1.0
  Ni  Ni705  1  0.66126933  0.16531733  0.13385680  1.0
  Ni  Ni706  1  0.66126933  0.49865067  0.13385680  1.0
  Ni  Ni707  1  0.66126933  0.83198400  0.13385680  1.0
  Ni  Ni708  1  0.99460267  0.16531733  0.13385680  1.0
  Ni  Ni709  1  0.99460267  0.49865067  0.13385680  1.0
  Ni  Ni710  1  0.99460267  0.83198400  0.13385680  1.0
  Ni  Ni711  1  0.32793600  0.33198400  0.03385680  1.0
  Ni  Ni712  1  0.32793600  0.66531733  0.03385680  1.0
  Ni  Ni713  1  0.32793600  0.99865067  0.03385680  1.0
  Ni  Ni714  1  0.66126933  0.33198400  0.03385680  1.0
  Ni  Ni715  1  0.66126933  0.66531733  0.03385680  1.0
  Ni  Ni716  1  0.66126933  0.99865067  0.03385680  1.0
  Ni  Ni717  1  0.99460267  0.33198400  0.03385680  1.0
  Ni  Ni718  1  0.99460267  0.66531733  0.03385680  1.0
  Ni  Ni719  1  0.99460267  0.99865067  0.03385680  1.0
  Ni  Ni720  1  0.16936533  0.16531733  0.03547600  1.0
  Ni  Ni721  1  0.16936533  0.49865067  0.03547600  1.0
  Ni  Ni722  1  0.16936533  0.83198400  0.03547600  1.0
  Ni  Ni723  1  0.50269867  0.16531733  0.03547600  1.0
  Ni  Ni724  1  0.50269867  0.49865067  0.03547600  1.0
  Ni  Ni725  1  0.50269867  0.83198400  0.03547600  1.0
  Ni  Ni726  1  0.83603200  0.16531733  0.03547600  1.0
  Ni  Ni727  1  0.83603200  0.49865067  0.03547600  1.0
  Ni  Ni728  1  0.83603200  0.83198400  0.03547600  1.0
  Ni  Ni729  1  0.16936533  0.33198400  0.13547600  1.0
  Ni  Ni730  1  0.16936533  0.66531733  0.13547600  1.0
  Ni  Ni731  1  0.16936533  0.99865067  0.13547600  1.0
  Ni  Ni732  1  0.50269867  0.33198400  0.13547600  1.0
  Ni  Ni733  1  0.50269867  0.66531733  0.13547600  1.0
  Ni  Ni734  1  0.50269867  0.99865067  0.13547600  1.0
  Ni  Ni735  1  0.83603200  0.33198400  0.13547600  1.0
  Ni  Ni736  1  0.83603200  0.66531733  0.13547600  1.0
  Ni  Ni737  1  0.83603200  0.99865067  0.13547600  1.0
  Ni  Ni738  1  0.33063467  0.04031733  0.00723760  1.0
  Ni  Ni739  1  0.33063467  0.37365067  0.00723760  1.0
  Ni  Ni740  1  0.33063467  0.70698400  0.00723760  1.0
  Ni  Ni741  1  0.66396800  0.04031733  0.00723760  1.0
  Ni  Ni742  1  0.66396800  0.37365067  0.00723760  1.0
  Ni  Ni743  1  0.66396800  0.70698400  0.00723760  1.0
  Ni  Ni744  1  0.99730133  0.04031733  0.00723760  1.0
  Ni  Ni745  1  0.99730133  0.37365067  0.00723760  1.0
  Ni  Ni746  1  0.99730133  0.70698400  0.00723760  1.0
  Ni  Ni747  1  0.33063467  0.20698400  0.10723760  1.0
  Ni  Ni748  1  0.33063467  0.54031733  0.10723760  1.0
  Ni  Ni749  1  0.33063467  0.87365067  0.10723760  1.0
  Ni  Ni750  1  0.66396800  0.20698400  0.10723760  1.0
  Ni  Ni751  1  0.66396800  0.54031733  0.10723760  1.0
  Ni  Ni752  1  0.66396800  0.87365067  0.10723760  1.0
  Ni  Ni753  1  0.99730133  0.20698400  0.10723760  1.0
  Ni  Ni754  1  0.99730133  0.54031733  0.10723760  1.0
  Ni  Ni755  1  0.99730133  0.87365067  0.10723760  1.0
  Ni  Ni756  1  0.25000000  0.04031733  0.06209520  1.0
  Ni  Ni757  1  0.25000000  0.37365067  0.06209520  1.0
  Ni  Ni758  1  0.25000000  0.70698400  0.06209520  1.0
  Ni  Ni759  1  0.58333333  0.04031733  0.06209520  1.0
  Ni  Ni760  1  0.58333333  0.37365067  0.06209520  1.0
  Ni  Ni761  1  0.58333333  0.70698400  0.06209520  1.0
  Ni  Ni762  1  0.91666667  0.04031733  0.06209520  1.0
  Ni  Ni763  1  0.91666667  0.37365067  0.06209520  1.0
  Ni  Ni764  1  0.91666667  0.70698400  0.06209520  1.0
  Ni  Ni765  1  0.25000000  0.20698400  0.16209520  1.0
  Ni  Ni766  1  0.25000000  0.54031733  0.16209520  1.0
  Ni  Ni767  1  0.25000000  0.87365067  0.16209520  1.0
  Ni  Ni768  1  0.58333333  0.20698400  0.16209520  1.0
  Ni  Ni769  1  0.58333333  0.54031733  0.16209520  1.0
  Ni  Ni770  1  0.58333333  0.87365067  0.16209520  1.0
  Ni  Ni771  1  0.91666667  0.20698400  0.16209520  1.0
  Ni  Ni772  1  0.91666667  0.54031733  0.16209520  1.0
  Ni  Ni773  1  0.91666667  0.87365067  0.16209520  1.0
  Ni  Ni774  1  0.08063467  0.16396800  0.08304720  1.0
  Ni  Ni775  1  0.08063467  0.49730133  0.08304720  1.0
  Ni  Ni776  1  0.08063467  0.83063467  0.08304720  1.0
  Ni  Ni777  1  0.41396800  0.16396800  0.08304720  1.0
  Ni  Ni778  1  0.41396800  0.49730133  0.08304720  1.0
  Ni  Ni779  1  0.41396800  0.83063467  0.08304720  1.0
  Ni  Ni780  1  0.74730133  0.16396800  0.08304720  1.0
  Ni  Ni781  1  0.74730133  0.49730133  0.08304720  1.0
  Ni  Ni782  1  0.74730133  0.83063467  0.08304720  1.0
  Ni  Ni783  1  0.08063467  0.33063467  0.18304720  1.0
  Ni  Ni784  1  0.08063467  0.66396800  0.18304720  1.0
  Ni  Ni785  1  0.08063467  0.99730133  0.18304720  1.0
  Ni  Ni786  1  0.41396800  0.33063467  0.18304720  1.0
  Ni  Ni787  1  0.41396800  0.66396800  0.18304720  1.0
  Ni  Ni788  1  0.41396800  0.99730133  0.18304720  1.0
  Ni  Ni789  1  0.74730133  0.33063467  0.18304720  1.0
  Ni  Ni790  1  0.74730133  0.66396800  0.18304720  1.0
  Ni  Ni791  1  0.74730133  0.99730133  0.18304720  1.0
  Ni  Ni792  1  0.16396800  0.08063467  0.18304720  1.0
  Ni  Ni793  1  0.16396800  0.41396800  0.18304720  1.0
  Ni  Ni794  1  0.16396800  0.74730133  0.18304720  1.0
  Ni  Ni795  1  0.49730133  0.08063467  0.18304720  1.0
  Ni  Ni796  1  0.49730133  0.41396800  0.18304720  1.0
  Ni  Ni797  1  0.49730133  0.74730133  0.18304720  1.0
  Ni  Ni798  1  0.83063467  0.08063467  0.18304720  1.0
  Ni  Ni799  1  0.83063467  0.41396800  0.18304720  1.0
  Ni  Ni800  1  0.83063467  0.74730133  0.18304720  1.0
  Ni  Ni801  1  0.16396800  0.24730133  0.08304720  1.0
  Ni  Ni802  1  0.16396800  0.58063467  0.08304720  1.0
  Ni  Ni803  1  0.16396800  0.91396800  0.08304720  1.0
  Ni  Ni804  1  0.49730133  0.24730133  0.08304720  1.0
  Ni  Ni805  1  0.49730133  0.58063467  0.08304720  1.0
  Ni  Ni806  1  0.49730133  0.91396800  0.08304720  1.0
  Ni  Ni807  1  0.83063467  0.24730133  0.08304720  1.0
  Ni  Ni808  1  0.83063467  0.58063467  0.08304720  1.0
  Ni  Ni809  1  0.83063467  0.91396800  0.08304720  1.0
  Ni  Ni810  1  0.25269867  0.12365067  0.11047600  1.0
  Ni  Ni811  1  0.25269867  0.45698400  0.11047600  1.0
  Ni  Ni812  1  0.25269867  0.79031733  0.11047600  1.0
  Ni  Ni813  1  0.58603200  0.12365067  0.11047600  1.0
  Ni  Ni814  1  0.58603200  0.45698400  0.11047600  1.0
  Ni  Ni815  1  0.58603200  0.79031733  0.11047600  1.0
  Ni  Ni816  1  0.91936533  0.12365067  0.11047600  1.0
  Ni  Ni817  1  0.91936533  0.45698400  0.11047600  1.0
  Ni  Ni818  1  0.91936533  0.79031733  0.11047600  1.0
  Ni  Ni819  1  0.25269867  0.29031733  0.01047600  1.0
  Ni  Ni820  1  0.25269867  0.62365067  0.01047600  1.0
  Ni  Ni821  1  0.25269867  0.95698400  0.01047600  1.0
  Ni  Ni822  1  0.58603200  0.29031733  0.01047600  1.0
  Ni  Ni823  1  0.58603200  0.62365067  0.01047600  1.0
  Ni  Ni824  1  0.58603200  0.95698400  0.01047600  1.0
  Ni  Ni825  1  0.91936533  0.29031733  0.01047600  1.0
  Ni  Ni826  1  0.91936533  0.62365067  0.01047600  1.0
  Ni  Ni827  1  0.91936533  0.95698400  0.01047600  1.0
  Ni  Ni828  1  0.24730133  0.08198400  0.13223760  1.0
  Ni  Ni829  1  0.24730133  0.41531733  0.13223760  1.0
  Ni  Ni830  1  0.24730133  0.74865067  0.13223760  1.0
  Ni  Ni831  1  0.58063467  0.08198400  0.13223760  1.0
  Ni  Ni832  1  0.58063467  0.41531733  0.13223760  1.0
  Ni  Ni833  1  0.58063467  0.74865067  0.13223760  1.0
  Ni  Ni834  1  0.91396800  0.08198400  0.13223760  1.0
  Ni  Ni835  1  0.91396800  0.41531733  0.13223760  1.0
  Ni  Ni836  1  0.91396800  0.74865067  0.13223760  1.0
  Ni  Ni837  1  0.24730133  0.24865067  0.03223760  1.0
  Ni  Ni838  1  0.24730133  0.58198400  0.03223760  1.0
  Ni  Ni839  1  0.24730133  0.91531733  0.03223760  1.0
  Ni  Ni840  1  0.58063467  0.24865067  0.03223760  1.0
  Ni  Ni841  1  0.58063467  0.58198400  0.03223760  1.0
  Ni  Ni842  1  0.58063467  0.91531733  0.03223760  1.0
  Ni  Ni843  1  0.91396800  0.24865067  0.03223760  1.0
  Ni  Ni844  1  0.91396800  0.58198400  0.03223760  1.0
  Ni  Ni845  1  0.91396800  0.91531733  0.03223760  1.0
  Ni  Ni846  1  0.08333333  0.08198400  0.03709520  1.0
  Ni  Ni847  1  0.08333333  0.41531733  0.03709520  1.0
  Ni  Ni848  1  0.08333333  0.74865067  0.03709520  1.0
  Ni  Ni849  1  0.41666667  0.08198400  0.03709520  1.0
  Ni  Ni850  1  0.41666667  0.41531733  0.03709520  1.0
  Ni  Ni851  1  0.41666667  0.74865067  0.03709520  1.0
  Ni  Ni852  1  0.75000000  0.08198400  0.03709520  1.0
  Ni  Ni853  1  0.75000000  0.41531733  0.03709520  1.0
  Ni  Ni854  1  0.75000000  0.74865067  0.03709520  1.0
  Ni  Ni855  1  0.08333333  0.24865067  0.13709520  1.0
  Ni  Ni856  1  0.08333333  0.58198400  0.13709520  1.0
  Ni  Ni857  1  0.08333333  0.91531733  0.13709520  1.0
  Ni  Ni858  1  0.41666667  0.24865067  0.13709520  1.0
  Ni  Ni859  1  0.41666667  0.58198400  0.13709520  1.0
  Ni  Ni860  1  0.41666667  0.91531733  0.13709520  1.0
  Ni  Ni861  1  0.75000000  0.24865067  0.13709520  1.0
  Ni  Ni862  1  0.75000000  0.58198400  0.13709520  1.0
  Ni  Ni863  1  0.75000000  0.91531733  0.13709520  1.0
  Ni  Ni864  1  0.16126933  0.12365067  0.15885680  1.0
  Ni  Ni865  1  0.16126933  0.45698400  0.15885680  1.0
  Ni  Ni866  1  0.16126933  0.79031733  0.15885680  1.0
  Ni  Ni867  1  0.49460267  0.12365067  0.15885680  1.0
  Ni  Ni868  1  0.49460267  0.45698400  0.15885680  1.0
  Ni  Ni869  1  0.49460267  0.79031733  0.15885680  1.0
  Ni  Ni870  1  0.82793600  0.12365067  0.15885680  1.0
  Ni  Ni871  1  0.82793600  0.45698400  0.15885680  1.0
  Ni  Ni872  1  0.82793600  0.79031733  0.15885680  1.0
  Ni  Ni873  1  0.16126933  0.29031733  0.05885680  1.0
  Ni  Ni874  1  0.16126933  0.62365067  0.05885680  1.0
  Ni  Ni875  1  0.16126933  0.95698400  0.05885680  1.0
  Ni  Ni876  1  0.49460267  0.29031733  0.05885680  1.0
  Ni  Ni877  1  0.49460267  0.62365067  0.05885680  1.0
  Ni  Ni878  1  0.49460267  0.95698400  0.05885680  1.0
  Ni  Ni879  1  0.82793600  0.29031733  0.05885680  1.0
  Ni  Ni880  1  0.82793600  0.62365067  0.05885680  1.0
  Ni  Ni881  1  0.82793600  0.95698400  0.05885680  1.0
  Ni  Ni882  1  0.24730133  0.04166667  0.16290480  1.0
  Ni  Ni883  1  0.24730133  0.37500000  0.16290480  1.0
  Ni  Ni884  1  0.24730133  0.70833333  0.16290480  1.0
  Ni  Ni885  1  0.58063467  0.04166667  0.16290480  1.0
  Ni  Ni886  1  0.58063467  0.37500000  0.16290480  1.0
  Ni  Ni887  1  0.58063467  0.70833333  0.16290480  1.0
  Ni  Ni888  1  0.91396800  0.04166667  0.16290480  1.0
  Ni  Ni889  1  0.91396800  0.37500000  0.16290480  1.0
  Ni  Ni890  1  0.91396800  0.70833333  0.16290480  1.0
  Ni  Ni891  1  0.24730133  0.20833333  0.06290480  1.0
  Ni  Ni892  1  0.24730133  0.54166667  0.06290480  1.0
  Ni  Ni893  1  0.24730133  0.87500000  0.06290480  1.0
  Ni  Ni894  1  0.58063467  0.20833333  0.06290480  1.0
  Ni  Ni895  1  0.58063467  0.54166667  0.06290480  1.0
  Ni  Ni896  1  0.58063467  0.87500000  0.06290480  1.0
  Ni  Ni897  1  0.91396800  0.20833333  0.06290480  1.0
  Ni  Ni898  1  0.91396800  0.54166667  0.06290480  1.0
  Ni  Ni899  1  0.91396800  0.87500000  0.06290480  1.0
  Ni  Ni900  1  0.00269867  0.04166667  0.10966640  1.0
  Ni  Ni901  1  0.00269867  0.37500000  0.10966640  1.0
  Ni  Ni902  1  0.00269867  0.70833333  0.10966640  1.0
  Ni  Ni903  1  0.33603200  0.04166667  0.10966640  1.0
  Ni  Ni904  1  0.33603200  0.37500000  0.10966640  1.0
  Ni  Ni905  1  0.33603200  0.70833333  0.10966640  1.0
  Ni  Ni906  1  0.66936533  0.04166667  0.10966640  1.0
  Ni  Ni907  1  0.66936533  0.37500000  0.10966640  1.0
  Ni  Ni908  1  0.66936533  0.70833333  0.10966640  1.0
  Ni  Ni909  1  0.00269867  0.20833333  0.00966640  1.0
  Ni  Ni910  1  0.00269867  0.54166667  0.00966640  1.0
  Ni  Ni911  1  0.00269867  0.87500000  0.00966640  1.0
  Ni  Ni912  1  0.33603200  0.20833333  0.00966640  1.0
  Ni  Ni913  1  0.33603200  0.54166667  0.00966640  1.0
  Ni  Ni914  1  0.33603200  0.87500000  0.00966640  1.0
  Ni  Ni915  1  0.66936533  0.20833333  0.00966640  1.0
  Ni  Ni916  1  0.66936533  0.54166667  0.00966640  1.0
  Ni  Ni917  1  0.66936533  0.87500000  0.00966640  1.0
  Ni  Ni918  1  0.00539733  0.00134933  0.13871440  1.0
  Ni  Ni919  1  0.00539733  0.33468267  0.13871440  1.0
  Ni  Ni920  1  0.00539733  0.66801600  0.13871440  1.0
  Ni  Ni921  1  0.33873067  0.00134933  0.13871440  1.0
  Ni  Ni922  1  0.33873067  0.33468267  0.13871440  1.0
  Ni  Ni923  1  0.33873067  0.66801600  0.13871440  1.0
  Ni  Ni924  1  0.67206400  0.00134933  0.13871440  1.0
  Ni  Ni925  1  0.67206400  0.33468267  0.13871440  1.0
  Ni  Ni926  1  0.67206400  0.66801600  0.13871440  1.0
  Ni  Ni927  1  0.00539733  0.16801600  0.03871440  1.0
  Ni  Ni928  1  0.00539733  0.50134933  0.03871440  1.0
  Ni  Ni929  1  0.00539733  0.83468267  0.03871440  1.0
  Ni  Ni930  1  0.33873067  0.16801600  0.03871440  1.0
  Ni  Ni931  1  0.33873067  0.50134933  0.03871440  1.0
  Ni  Ni932  1  0.33873067  0.83468267  0.03871440  1.0
  Ni  Ni933  1  0.67206400  0.16801600  0.03871440  1.0
  Ni  Ni934  1  0.67206400  0.50134933  0.03871440  1.0
  Ni  Ni935  1  0.67206400  0.83468267  0.03871440  1.0
  Ni  Ni936  1  0.16396800  0.00134933  0.03709520  1.0
  Ni  Ni937  1  0.16396800  0.33468267  0.03709520  1.0
  Ni  Ni938  1  0.16396800  0.66801600  0.03709520  1.0
  Ni  Ni939  1  0.49730133  0.00134933  0.03709520  1.0
  Ni  Ni940  1  0.49730133  0.33468267  0.03709520  1.0
  Ni  Ni941  1  0.49730133  0.66801600  0.03709520  1.0
  Ni  Ni942  1  0.83063467  0.00134933  0.03709520  1.0
  Ni  Ni943  1  0.83063467  0.33468267  0.03709520  1.0
  Ni  Ni944  1  0.83063467  0.66801600  0.03709520  1.0
  Ni  Ni945  1  0.16396800  0.16801600  0.13709520  1.0
  Ni  Ni946  1  0.16396800  0.50134933  0.13709520  1.0
  Ni  Ni947  1  0.16396800  0.83468267  0.13709520  1.0
  Ni  Ni948  1  0.49730133  0.16801600  0.13709520  1.0
  Ni  Ni949  1  0.49730133  0.50134933  0.13709520  1.0
  Ni  Ni950  1  0.49730133  0.83468267  0.13709520  1.0
  Ni  Ni951  1  0.83063467  0.16801600  0.13709520  1.0
  Ni  Ni952  1  0.83063467  0.50134933  0.13709520  1.0
  Ni  Ni953  1  0.83063467  0.83468267  0.13709520  1.0
  Ni  Ni954  1  0.00269867  0.12634933  0.06533360  1.0
  Ni  Ni955  1  0.00269867  0.45968267  0.06533360  1.0
  Ni  Ni956  1  0.00269867  0.79301600  0.06533360  1.0
  Ni  Ni957  1  0.33603200  0.12634933  0.06533360  1.0
  Ni  Ni958  1  0.33603200  0.45968267  0.06533360  1.0
  Ni  Ni959  1  0.33603200  0.79301600  0.06533360  1.0
  Ni  Ni960  1  0.66936533  0.12634933  0.06533360  1.0
  Ni  Ni961  1  0.66936533  0.45968267  0.06533360  1.0
  Ni  Ni962  1  0.66936533  0.79301600  0.06533360  1.0
  Ni  Ni963  1  0.00269867  0.29301600  0.16533360  1.0
  Ni  Ni964  1  0.00269867  0.62634933  0.16533360  1.0
  Ni  Ni965  1  0.00269867  0.95968267  0.16533360  1.0
  Ni  Ni966  1  0.33603200  0.29301600  0.16533360  1.0
  Ni  Ni967  1  0.33603200  0.62634933  0.16533360  1.0
  Ni  Ni968  1  0.33603200  0.95968267  0.16533360  1.0
  Ni  Ni969  1  0.66936533  0.29301600  0.16533360  1.0
  Ni  Ni970  1  0.66936533  0.62634933  0.16533360  1.0
  Ni  Ni971  1  0.66936533  0.95968267  0.16533360  1.0
  Ni  Ni972  1  0.08333333  0.12634933  0.01047600  1.0
  Ni  Ni973  1  0.08333333  0.45968267  0.01047600  1.0
  Ni  Ni974  1  0.08333333  0.79301600  0.01047600  1.0
  Ni  Ni975  1  0.41666667  0.12634933  0.01047600  1.0
  Ni  Ni976  1  0.41666667  0.45968267  0.01047600  1.0
  Ni  Ni977  1  0.41666667  0.79301600  0.01047600  1.0
  Ni  Ni978  1  0.75000000  0.12634933  0.01047600  1.0
  Ni  Ni979  1  0.75000000  0.45968267  0.01047600  1.0
  Ni  Ni980  1  0.75000000  0.79301600  0.01047600  1.0
  Ni  Ni981  1  0.08333333  0.29301600  0.11047600  1.0
  Ni  Ni982  1  0.08333333  0.62634933  0.11047600  1.0
  Ni  Ni983  1  0.08333333  0.95968267  0.11047600  1.0
  Ni  Ni984  1  0.41666667  0.29301600  0.11047600  1.0
  Ni  Ni985  1  0.41666667  0.62634933  0.11047600  1.0
  Ni  Ni986  1  0.41666667  0.95968267  0.11047600  1.0
  Ni  Ni987  1  0.75000000  0.29301600  0.11047600  1.0
  Ni  Ni988  1  0.75000000  0.62634933  0.11047600  1.0
  Ni  Ni989  1  0.75000000  0.95968267  0.11047600  1.0
  Ni  Ni990  1  0.25269867  0.00269867  0.18952400  1.0
  Ni  Ni991  1  0.25269867  0.33603200  0.18952400  1.0
  Ni  Ni992  1  0.25269867  0.66936533  0.18952400  1.0
  Ni  Ni993  1  0.58603200  0.00269867  0.18952400  1.0
  Ni  Ni994  1  0.58603200  0.33603200  0.18952400  1.0
  Ni  Ni995  1  0.58603200  0.66936533  0.18952400  1.0
  Ni  Ni996  1  0.91936533  0.00269867  0.18952400  1.0
  Ni  Ni997  1  0.91936533  0.33603200  0.18952400  1.0
  Ni  Ni998  1  0.91936533  0.66936533  0.18952400  1.0
  Ni  Ni999  1  0.25269867  0.16936533  0.08952400  1.0
  Ni  Ni1000  1  0.25269867  0.50269867  0.08952400  1.0
  Ni  Ni1001  1  0.25269867  0.83603200  0.08952400  1.0
  Ni  Ni1002  1  0.58603200  0.16936533  0.08952400  1.0
  Ni  Ni1003  1  0.58603200  0.50269867  0.08952400  1.0
  Ni  Ni1004  1  0.58603200  0.83603200  0.08952400  1.0
  Ni  Ni1005  1  0.91936533  0.16936533  0.08952400  1.0
  Ni  Ni1006  1  0.91936533  0.50269867  0.08952400  1.0
  Ni  Ni1007  1  0.91936533  0.83603200  0.08952400  1.0
  Ga  Ga1008  1  0.00000000  0.16666667  0.38628560  1.0
  Ga  Ga1009  1  0.00000000  0.50000000  0.38628560  1.0
  Ga  Ga1010  1  0.00000000  0.83333333  0.38628560  1.0
  Ga  Ga1011  1  0.33333333  0.16666667  0.38628560  1.0
  Ga  Ga1012  1  0.33333333  0.50000000  0.38628560  1.0
  Ga  Ga1013  1  0.33333333  0.83333333  0.38628560  1.0
  Ga  Ga1014  1  0.66666667  0.16666667  0.38628560  1.0
  Ga  Ga1015  1  0.66666667  0.50000000  0.38628560  1.0
  Ga  Ga1016  1  0.66666667  0.83333333  0.38628560  1.0
  Ga  Ga1017  1  0.00000000  0.00000000  0.28628560  1.0
  Ga  Ga1018  1  0.00000000  0.33333333  0.28628560  1.0
  Ga  Ga1019  1  0.00000000  0.66666667  0.28628560  1.0
  Ga  Ga1020  1  0.33333333  0.00000000  0.28628560  1.0
  Ga  Ga1021  1  0.33333333  0.33333333  0.28628560  1.0
  Ga  Ga1022  1  0.33333333  0.66666667  0.28628560  1.0
  Ga  Ga1023  1  0.66666667  0.00000000  0.28628560  1.0
  Ga  Ga1024  1  0.66666667  0.33333333  0.28628560  1.0
  Ga  Ga1025  1  0.66666667  0.66666667  0.28628560  1.0
  Ga  Ga1026  1  0.00000000  0.08333333  0.33628560  1.0
  Ga  Ga1027  1  0.00000000  0.41666667  0.33628560  1.0
  Ga  Ga1028  1  0.00000000  0.75000000  0.33628560  1.0
  Ga  Ga1029  1  0.33333333  0.08333333  0.33628560  1.0
  Ga  Ga1030  1  0.33333333  0.41666667  0.33628560  1.0
  Ga  Ga1031  1  0.33333333  0.75000000  0.33628560  1.0
  Ga  Ga1032  1  0.66666667  0.08333333  0.33628560  1.0
  Ga  Ga1033  1  0.66666667  0.41666667  0.33628560  1.0
  Ga  Ga1034  1  0.66666667  0.75000000  0.33628560  1.0
  Ga  Ga1035  1  0.00000000  0.25000000  0.23628560  1.0
  Ga  Ga1036  1  1.00000000  0.58333333  0.23628560  1.0
  Ga  Ga1037  1  0.00000000  0.91666667  0.23628560  1.0
  Ga  Ga1038  1  0.33333333  0.25000000  0.23628560  1.0
  Ga  Ga1039  1  0.33333333  0.58333333  0.23628560  1.0
  Ga  Ga1040  1  0.33333333  0.91666667  0.23628560  1.0
  Ga  Ga1041  1  0.66666667  0.25000000  0.23628560  1.0
  Ga  Ga1042  1  0.66666667  0.58333333  0.23628560  1.0
  Ga  Ga1043  1  0.66666667  0.91666667  0.23628560  1.0
  Ga  Ga1044  1  0.16666667  0.08333333  0.23628560  1.0
  Ga  Ga1045  1  0.16666667  0.41666667  0.23628560  1.0
  Ga  Ga1046  1  0.16666667  0.75000000  0.23628560  1.0
  Ga  Ga1047  1  0.50000000  0.08333333  0.23628560  1.0
  Ga  Ga1048  1  0.50000000  0.41666667  0.23628560  1.0
  Ga  Ga1049  1  0.50000000  0.75000000  0.23628560  1.0
  Ga  Ga1050  1  0.83333333  0.08333333  0.23628560  1.0
  Ga  Ga1051  1  0.83333333  0.41666667  0.23628560  1.0
  Ga  Ga1052  1  0.83333333  0.75000000  0.23628560  1.0
  Ga  Ga1053  1  0.16666667  0.25000000  0.33628560  1.0
  Ga  Ga1054  1  0.16666667  0.58333333  0.33628560  1.0
  Ga  Ga1055  1  0.16666667  0.91666667  0.33628560  1.0
  Ga  Ga1056  1  0.50000000  0.25000000  0.33628560  1.0
  Ga  Ga1057  1  0.50000000  0.58333333  0.33628560  1.0
  Ga  Ga1058  1  0.50000000  0.91666667  0.33628560  1.0
  Ga  Ga1059  1  0.83333333  0.25000000  0.33628560  1.0
  Ga  Ga1060  1  0.83333333  0.58333333  0.33628560  1.0
  Ga  Ga1061  1  0.83333333  0.91666667  0.33628560  1.0
  Ga  Ga1062  1  0.00000000  0.16666667  0.28628560  1.0
  Ga  Ga1063  1  0.00000000  0.50000000  0.28628560  1.0
  Ga  Ga1064  1  0.00000000  0.83333333  0.28628560  1.0
  Ga  Ga1065  1  0.33333333  0.16666667  0.28628560  1.0
  Ga  Ga1066  1  0.33333333  0.50000000  0.28628560  1.0
  Ga  Ga1067  1  0.33333333  0.83333333  0.28628560  1.0
  Ga  Ga1068  1  0.66666667  0.16666667  0.28628560  1.0
  Ga  Ga1069  1  0.66666667  0.50000000  0.28628560  1.0
  Ga  Ga1070  1  0.66666667  0.83333333  0.28628560  1.0
  Ga  Ga1071  1  0.00000000  0.00000000  0.38628560  1.0
  Ga  Ga1072  1  0.00000000  0.33333333  0.38628560  1.0
  Ga  Ga1073  1  0.00000000  0.66666667  0.38628560  1.0
  Ga  Ga1074  1  0.33333333  0.00000000  0.38628560  1.0
  Ga  Ga1075  1  0.33333333  0.33333333  0.38628560  1.0
  Ga  Ga1076  1  0.33333333  0.66666667  0.38628560  1.0
  Ga  Ga1077  1  0.66666667  0.00000000  0.38628560  1.0
  Ga  Ga1078  1  0.66666667  0.33333333  0.38628560  1.0
  Ga  Ga1079  1  0.66666667  0.66666667  0.38628560  1.0
  Ga  Ga1080  1  0.16666667  0.16666667  0.28628560  1.0
  Ga  Ga1081  1  0.16666667  0.50000000  0.28628560  1.0
  Ga  Ga1082  1  0.16666667  0.83333333  0.28628560  1.0
  Ga  Ga1083  1  0.50000000  0.16666667  0.28628560  1.0
  Ga  Ga1084  1  0.50000000  0.50000000  0.28628560  1.0
  Ga  Ga1085  1  0.50000000  0.83333333  0.28628560  1.0
  Ga  Ga1086  1  0.83333333  0.16666667  0.28628560  1.0
  Ga  Ga1087  1  0.83333333  0.50000000  0.28628560  1.0
  Ga  Ga1088  1  0.83333333  0.83333333  0.28628560  1.0
  Ga  Ga1089  1  0.16666667  0.00000000  0.38628560  1.0
  Ga  Ga1090  1  0.16666667  0.33333333  0.38628560  1.0
  Ga  Ga1091  1  0.16666667  0.66666667  0.38628560  1.0
  Ga  Ga1092  1  0.50000000  0.00000000  0.38628560  1.0
  Ga  Ga1093  1  0.50000000  0.33333333  0.38628560  1.0
  Ga  Ga1094  1  0.50000000  0.66666667  0.38628560  1.0
  Ga  Ga1095  1  0.83333333  0.00000000  0.38628560  1.0
  Ga  Ga1096  1  0.83333333  0.33333333  0.38628560  1.0
  Ga  Ga1097  1  0.83333333  0.66666667  0.38628560  1.0
  Ga  Ga1098  1  0.16666667  0.08333333  0.33628560  1.0
  Ga  Ga1099  1  0.16666667  0.41666667  0.33628560  1.0
  Ga  Ga1100  1  0.16666667  0.75000000  0.33628560  1.0
  Ga  Ga1101  1  0.50000000  0.08333333  0.33628560  1.0
  Ga  Ga1102  1  0.50000000  0.41666667  0.33628560  1.0
  Ga  Ga1103  1  0.50000000  0.75000000  0.33628560  1.0
  Ga  Ga1104  1  0.83333333  0.08333333  0.33628560  1.0
  Ga  Ga1105  1  0.83333333  0.41666667  0.33628560  1.0
  Ga  Ga1106  1  0.83333333  0.75000000  0.33628560  1.0
  Ga  Ga1107  1  0.16666667  0.25000000  0.23628560  1.0
  Ga  Ga1108  1  0.16666667  0.58333333  0.23628560  1.0
  Ga  Ga1109  1  0.16666667  0.91666667  0.23628560  1.0
  Ga  Ga1110  1  0.50000000  0.25000000  0.23628560  1.0
  Ga  Ga1111  1  0.50000000  0.58333333  0.23628560  1.0
  Ga  Ga1112  1  0.50000000  0.91666667  0.23628560  1.0
  Ga  Ga1113  1  0.83333333  0.25000000  0.23628560  1.0
  Ga  Ga1114  1  0.83333333  0.58333333  0.23628560  1.0
  Ga  Ga1115  1  0.83333333  0.91666667  0.23628560  1.0
  Ga  Ga1116  1  0.00000000  0.08333333  0.23628560  1.0
  Ga  Ga1117  1  0.00000000  0.41666667  0.23628560  1.0
  Ga  Ga1118  1  1.00000000  0.75000000  0.23628560  1.0
  Ga  Ga1119  1  0.33333333  0.08333333  0.23628560  1.0
  Ga  Ga1120  1  0.33333333  0.41666667  0.23628560  1.0
  Ga  Ga1121  1  0.33333333  0.75000000  0.23628560  1.0
  Ga  Ga1122  1  0.66666667  0.08333333  0.23628560  1.0
  Ga  Ga1123  1  0.66666667  0.41666667  0.23628560  1.0
  Ga  Ga1124  1  0.66666667  0.75000000  0.23628560  1.0
  Ga  Ga1125  1  0.00000000  0.25000000  0.33628560  1.0
  Ga  Ga1126  1  1.00000000  0.58333333  0.33628560  1.0
  Ga  Ga1127  1  1.00000000  0.91666667  0.33628560  1.0
  Ga  Ga1128  1  0.33333333  0.25000000  0.33628560  1.0
  Ga  Ga1129  1  0.33333333  0.58333333  0.33628560  1.0
  Ga  Ga1130  1  0.33333333  0.91666667  0.33628560  1.0
  Ga  Ga1131  1  0.66666667  0.25000000  0.33628560  1.0
  Ga  Ga1132  1  0.66666667  0.58333333  0.33628560  1.0
  Ga  Ga1133  1  0.66666667  0.91666667  0.33628560  1.0
  Ga  Ga1134  1  0.16666667  0.16666667  0.38628560  1.0
  Ga  Ga1135  1  0.16666667  0.50000000  0.38628560  1.0
  Ga  Ga1136  1  0.16666667  0.83333333  0.38628560  1.0
  Ga  Ga1137  1  0.50000000  0.16666667  0.38628560  1.0
  Ga  Ga1138  1  0.50000000  0.50000000  0.38628560  1.0
  Ga  Ga1139  1  0.50000000  0.83333333  0.38628560  1.0
  Ga  Ga1140  1  0.83333333  0.16666667  0.38628560  1.0
  Ga  Ga1141  1  0.83333333  0.50000000  0.38628560  1.0
  Ga  Ga1142  1  0.83333333  0.83333333  0.38628560  1.0
  Ga  Ga1143  1  0.16666667  0.00000000  0.28628560  1.0
  Ga  Ga1144  1  0.16666667  0.33333333  0.28628560  1.0
  Ga  Ga1145  1  0.16666667  0.66666667  0.28628560  1.0
  Ga  Ga1146  1  0.50000000  0.00000000  0.28628560  1.0
  Ga  Ga1147  1  0.50000000  0.33333333  0.28628560  1.0
  Ga  Ga1148  1  0.50000000  0.66666667  0.28628560  1.0
  Ga  Ga1149  1  0.83333333  0.00000000  0.28628560  1.0
  Ga  Ga1150  1  0.83333333  0.33333333  0.28628560  1.0
  Ga  Ga1151  1  0.83333333  0.66666667  0.28628560  1.0
  Ga  Ga1152  1  0.32923217  0.04166667  0.35882490  1.0
  Ga  Ga1153  1  0.32923217  0.37500000  0.35882490  1.0
  Ga  Ga1154  1  0.32923217  0.70833333  0.35882490  1.0
  Ga  Ga1155  1  0.66256550  0.04166667  0.35882490  1.0
  Ga  Ga1156  1  0.66256550  0.37500000  0.35882490  1.0
  Ga  Ga1157  1  0.66256550  0.70833333  0.35882490  1.0
  Ga  Ga1158  1  0.99589883  0.04166667  0.35882490  1.0
  Ga  Ga1159  1  0.99589883  0.37500000  0.35882490  1.0
  Ga  Ga1160  1  0.99589883  0.70833333  0.35882490  1.0
  Ga  Ga1161  1  0.32923217  0.20833333  0.25882490  1.0
  Ga  Ga1162  1  0.32923217  0.54166667  0.25882490  1.0
  Ga  Ga1163  1  0.32923217  0.87500000  0.25882490  1.0
  Ga  Ga1164  1  0.66256550  0.20833333  0.25882490  1.0
  Ga  Ga1165  1  0.66256550  0.54166667  0.25882490  1.0
  Ga  Ga1166  1  0.66256550  0.87500000  0.25882490  1.0
  Ga  Ga1167  1  0.99589883  0.20833333  0.25882490  1.0
  Ga  Ga1168  1  0.99589883  0.54166667  0.25882490  1.0
  Ga  Ga1169  1  0.99589883  0.87500000  0.25882490  1.0
  Ga  Ga1170  1  0.32923217  0.12294942  0.21005525  1.0
  Ga  Ga1171  1  0.32923217  0.45628275  0.21005525  1.0
  Ga  Ga1172  1  0.32923217  0.78961608  0.21005525  1.0
  Ga  Ga1173  1  0.66256550  0.12294942  0.21005525  1.0
  Ga  Ga1174  1  0.66256550  0.45628275  0.21005525  1.0
  Ga  Ga1175  1  0.66256550  0.78961608  0.21005525  1.0
  Ga  Ga1176  1  0.99589883  0.12294942  0.21005525  1.0
  Ga  Ga1177  1  0.99589883  0.45628275  0.21005525  1.0
  Ga  Ga1178  1  0.99589883  0.78961608  0.21005525  1.0
  Ga  Ga1179  1  0.32923217  0.28961608  0.31005525  1.0
  Ga  Ga1180  1  0.32923217  0.62294942  0.31005525  1.0
  Ga  Ga1181  1  0.32923217  0.95628275  0.31005525  1.0
  Ga  Ga1182  1  0.66256550  0.28961608  0.31005525  1.0
  Ga  Ga1183  1  0.66256550  0.62294942  0.31005525  1.0
  Ga  Ga1184  1  0.66256550  0.95628275  0.31005525  1.0
  Ga  Ga1185  1  0.99589883  0.28961608  0.31005525  1.0
  Ga  Ga1186  1  0.99589883  0.62294942  0.31005525  1.0
  Ga  Ga1187  1  0.99589883  0.95628275  0.31005525  1.0
  Ga  Ga1188  1  0.17076783  0.12705058  0.31251595  1.0
  Ga  Ga1189  1  0.17076783  0.46038392  0.31251595  1.0
  Ga  Ga1190  1  0.17076783  0.79371725  0.31251595  1.0
  Ga  Ga1191  1  0.50410117  0.12705058  0.31251595  1.0
  Ga  Ga1192  1  0.50410117  0.46038392  0.31251595  1.0
  Ga  Ga1193  1  0.50410117  0.79371725  0.31251595  1.0
  Ga  Ga1194  1  0.83743450  0.12705058  0.31251595  1.0
  Ga  Ga1195  1  0.83743450  0.46038392  0.31251595  1.0
  Ga  Ga1196  1  0.83743450  0.79371725  0.31251595  1.0
  Ga  Ga1197  1  0.17076783  0.29371725  0.21251595  1.0
  Ga  Ga1198  1  0.17076783  0.62705058  0.21251595  1.0
  Ga  Ga1199  1  0.17076783  0.96038392  0.21251595  1.0
  Ga  Ga1200  1  0.50410117  0.29371725  0.21251595  1.0
  Ga  Ga1201  1  0.50410117  0.62705058  0.21251595  1.0
  Ga  Ga1202  1  0.50410117  0.96038392  0.21251595  1.0
  Ga  Ga1203  1  0.83743450  0.29371725  0.21251595  1.0
  Ga  Ga1204  1  0.83743450  0.62705058  0.21251595  1.0
  Ga  Ga1205  1  0.83743450  0.96038392  0.21251595  1.0
  Ga  Ga1206  1  0.25000000  0.16461608  0.23259455  1.0
  Ga  Ga1207  1  0.25000000  0.49794942  0.23259455  1.0
  Ga  Ga1208  1  0.25000000  0.83128275  0.23259455  1.0
  Ga  Ga1209  1  0.58333333  0.16461608  0.23259455  1.0
  Ga  Ga1210  1  0.58333333  0.49794942  0.23259455  1.0
  Ga  Ga1211  1  0.58333333  0.83128275  0.23259455  1.0
  Ga  Ga1212  1  0.91666667  0.16461608  0.23259455  1.0
  Ga  Ga1213  1  0.91666667  0.49794942  0.23259455  1.0
  Ga  Ga1214  1  0.91666667  0.83128275  0.23259455  1.0
  Ga  Ga1215  1  0.25000000  0.33128275  0.33259455  1.0
  Ga  Ga1216  1  0.25000000  0.66461608  0.33259455  1.0
  Ga  Ga1217  1  0.25000000  0.99794942  0.33259455  1.0
  Ga  Ga1218  1  0.58333333  0.33128275  0.33259455  1.0
  Ga  Ga1219  1  0.58333333  0.66461608  0.33259455  1.0
  Ga  Ga1220  1  0.58333333  0.99794942  0.33259455  1.0
  Ga  Ga1221  1  0.91666667  0.33128275  0.33259455  1.0
  Ga  Ga1222  1  0.91666667  0.66461608  0.33259455  1.0
  Ga  Ga1223  1  0.91666667  0.99794942  0.33259455  1.0
  Ga  Ga1224  1  0.08333333  0.08538392  0.38997665  1.0
  Ga  Ga1225  1  0.08333333  0.41871725  0.38997665  1.0
  Ga  Ga1226  1  0.08333333  0.75205058  0.38997665  1.0
  Ga  Ga1227  1  0.41666667  0.08538392  0.38997665  1.0
  Ga  Ga1228  1  0.41666667  0.41871725  0.38997665  1.0
  Ga  Ga1229  1  0.41666667  0.75205058  0.38997665  1.0
  Ga  Ga1230  1  0.75000000  0.08538392  0.38997665  1.0
  Ga  Ga1231  1  0.75000000  0.41871725  0.38997665  1.0
  Ga  Ga1232  1  0.75000000  0.75205058  0.38997665  1.0
  Ga  Ga1233  1  0.08333333  0.25205058  0.28997665  1.0
  Ga  Ga1234  1  0.08333333  0.58538392  0.28997665  1.0
  Ga  Ga1235  1  0.08333333  0.91871725  0.28997665  1.0
  Ga  Ga1236  1  0.41666667  0.25205058  0.28997665  1.0
  Ga  Ga1237  1  0.41666667  0.58538392  0.28997665  1.0
  Ga  Ga1238  1  0.41666667  0.91871725  0.28997665  1.0
  Ga  Ga1239  1  0.75000000  0.25205058  0.28997665  1.0
  Ga  Ga1240  1  0.75000000  0.58538392  0.28997665  1.0
  Ga  Ga1241  1  0.75000000  0.91871725  0.28997665  1.0
  Ga  Ga1242  1  0.24589883  0.12500000  0.25882490  1.0
  Ga  Ga1243  1  0.24589883  0.45833333  0.25882490  1.0
  Ga  Ga1244  1  0.24589883  0.79166667  0.25882490  1.0
  Ga  Ga1245  1  0.57923217  0.12500000  0.25882490  1.0
  Ga  Ga1246  1  0.57923217  0.45833333  0.25882490  1.0
  Ga  Ga1247  1  0.57923217  0.79166667  0.25882490  1.0
  Ga  Ga1248  1  0.91256550  0.12500000  0.25882490  1.0
  Ga  Ga1249  1  0.91256550  0.45833333  0.25882490  1.0
  Ga  Ga1250  1  0.91256550  0.79166667  0.25882490  1.0
  Ga  Ga1251  1  0.24589883  0.29166667  0.35882490  1.0
  Ga  Ga1252  1  0.24589883  0.62500000  0.35882490  1.0
  Ga  Ga1253  1  0.24589883  0.95833333  0.35882490  1.0
  Ga  Ga1254  1  0.57923217  0.29166667  0.35882490  1.0
  Ga  Ga1255  1  0.57923217  0.62500000  0.35882490  1.0
  Ga  Ga1256  1  0.57923217  0.95833333  0.35882490  1.0
  Ga  Ga1257  1  0.91256550  0.29166667  0.35882490  1.0
  Ga  Ga1258  1  0.91256550  0.62500000  0.35882490  1.0
  Ga  Ga1259  1  0.91256550  0.95833333  0.35882490  1.0
  Ga  Ga1260  1  0.08333333  0.12294942  0.25759455  1.0
  Ga  Ga1261  1  0.08333333  0.45628275  0.25759455  1.0
  Ga  Ga1262  1  0.08333333  0.78961608  0.25759455  1.0
  Ga  Ga1263  1  0.41666667  0.12294942  0.25759455  1.0
  Ga  Ga1264  1  0.41666667  0.45628275  0.25759455  1.0
  Ga  Ga1265  1  0.41666667  0.78961608  0.25759455  1.0
  Ga  Ga1266  1  0.75000000  0.12294942  0.25759455  1.0
  Ga  Ga1267  1  0.75000000  0.45628275  0.25759455  1.0
  Ga  Ga1268  1  0.75000000  0.78961608  0.25759455  1.0
  Ga  Ga1269  1  0.08333333  0.28961608  0.35759455  1.0
  Ga  Ga1270  1  0.08333333  0.62294942  0.35759455  1.0
  Ga  Ga1271  1  0.08333333  0.95628275  0.35759455  1.0
  Ga  Ga1272  1  0.41666667  0.28961608  0.35759455  1.0
  Ga  Ga1273  1  0.41666667  0.62294942  0.35759455  1.0
  Ga  Ga1274  1  0.41666667  0.95628275  0.35759455  1.0
  Ga  Ga1275  1  0.75000000  0.28961608  0.35759455  1.0
  Ga  Ga1276  1  0.75000000  0.62294942  0.35759455  1.0
  Ga  Ga1277  1  0.75000000  0.95628275  0.35759455  1.0
  Ga  Ga1278  1  0.25410117  0.08538392  0.38751595  1.0
  Ga  Ga1279  1  0.25410117  0.41871725  0.38751595  1.0
  Ga  Ga1280  1  0.25410117  0.75205058  0.38751595  1.0
  Ga  Ga1281  1  0.58743450  0.08538392  0.38751595  1.0
  Ga  Ga1282  1  0.58743450  0.41871725  0.38751595  1.0
  Ga  Ga1283  1  0.58743450  0.75205058  0.38751595  1.0
  Ga  Ga1284  1  0.92076783  0.08538392  0.38751595  1.0
  Ga  Ga1285  1  0.92076783  0.41871725  0.38751595  1.0
  Ga  Ga1286  1  0.92076783  0.75205058  0.38751595  1.0
  Ga  Ga1287  1  0.25410117  0.25205058  0.28751595  1.0
  Ga  Ga1288  1  0.25410117  0.58538392  0.28751595  1.0
  Ga  Ga1289  1  0.25410117  0.91871725  0.28751595  1.0
  Ga  Ga1290  1  0.58743450  0.25205058  0.28751595  1.0
  Ga  Ga1291  1  0.58743450  0.58538392  0.28751595  1.0
  Ga  Ga1292  1  0.58743450  0.91871725  0.28751595  1.0
  Ga  Ga1293  1  0.92076783  0.25205058  0.28751595  1.0
  Ga  Ga1294  1  0.92076783  0.58538392  0.28751595  1.0
  Ga  Ga1295  1  0.92076783  0.91871725  0.28751595  1.0
  Ga  Ga1296  1  0.25000000  0.12705058  0.36497665  1.0
  Ga  Ga1297  1  0.25000000  0.46038392  0.36497665  1.0
  Ga  Ga1298  1  0.25000000  0.79371725  0.36497665  1.0
  Ga  Ga1299  1  0.58333333  0.12705058  0.36497665  1.0
  Ga  Ga1300  1  0.58333333  0.46038392  0.36497665  1.0
  Ga  Ga1301  1  0.58333333  0.79371725  0.36497665  1.0
  Ga  Ga1302  1  0.91666667  0.12705058  0.36497665  1.0
  Ga  Ga1303  1  0.91666667  0.46038392  0.36497665  1.0
  Ga  Ga1304  1  0.91666667  0.79371725  0.36497665  1.0
  Ga  Ga1305  1  0.25000000  0.29371725  0.26497665  1.0
  Ga  Ga1306  1  0.25000000  0.62705058  0.26497665  1.0
  Ga  Ga1307  1  0.25000000  0.96038392  0.26497665  1.0
  Ga  Ga1308  1  0.58333333  0.29371725  0.26497665  1.0
  Ga  Ga1309  1  0.58333333  0.62705058  0.26497665  1.0
  Ga  Ga1310  1  0.58333333  0.96038392  0.26497665  1.0
  Ga  Ga1311  1  0.91666667  0.29371725  0.26497665  1.0
  Ga  Ga1312  1  0.91666667  0.62705058  0.26497665  1.0
  Ga  Ga1313  1  0.91666667  0.96038392  0.26497665  1.0
  Ga  Ga1314  1  0.24589883  0.16461608  0.33505525  1.0
  Ga  Ga1315  1  0.24589883  0.49794942  0.33505525  1.0
  Ga  Ga1316  1  0.24589883  0.83128275  0.33505525  1.0
  Ga  Ga1317  1  0.57923217  0.16461608  0.33505525  1.0
  Ga  Ga1318  1  0.57923217  0.49794942  0.33505525  1.0
  Ga  Ga1319  1  0.57923217  0.83128275  0.33505525  1.0
  Ga  Ga1320  1  0.91256550  0.16461608  0.33505525  1.0
  Ga  Ga1321  1  0.91256550  0.49794942  0.33505525  1.0
  Ga  Ga1322  1  0.91256550  0.83128275  0.33505525  1.0
  Ga  Ga1323  1  0.24589883  0.33128275  0.23505525  1.0
  Ga  Ga1324  1  0.24589883  0.66461608  0.23505525  1.0
  Ga  Ga1325  1  0.24589883  0.99794942  0.23505525  1.0
  Ga  Ga1326  1  0.57923217  0.33128275  0.23505525  1.0
  Ga  Ga1327  1  0.57923217  0.66461608  0.23505525  1.0
  Ga  Ga1328  1  0.57923217  0.99794942  0.23505525  1.0
  Ga  Ga1329  1  0.91256550  0.33128275  0.23505525  1.0
  Ga  Ga1330  1  0.91256550  0.66461608  0.23505525  1.0
  Ga  Ga1331  1  0.91256550  0.99794942  0.23505525  1.0
  Ga  Ga1332  1  0.17076783  0.12500000  0.21374630  1.0
  Ga  Ga1333  1  0.17076783  0.45833333  0.21374630  1.0
  Ga  Ga1334  1  0.17076783  0.79166667  0.21374630  1.0
  Ga  Ga1335  1  0.50410117  0.12500000  0.21374630  1.0
  Ga  Ga1336  1  0.50410117  0.45833333  0.21374630  1.0
  Ga  Ga1337  1  0.50410117  0.79166667  0.21374630  1.0
  Ga  Ga1338  1  0.83743450  0.12500000  0.21374630  1.0
  Ga  Ga1339  1  0.83743450  0.45833333  0.21374630  1.0
  Ga  Ga1340  1  0.83743450  0.79166667  0.21374630  1.0
  Ga  Ga1341  1  0.17076783  0.29166667  0.31374630  1.0
  Ga  Ga1342  1  0.17076783  0.62500000  0.31374630  1.0
  Ga  Ga1343  1  0.17076783  0.95833333  0.31374630  1.0
  Ga  Ga1344  1  0.50410117  0.29166667  0.31374630  1.0
  Ga  Ga1345  1  0.50410117  0.62500000  0.31374630  1.0
  Ga  Ga1346  1  0.50410117  0.95833333  0.31374630  1.0
  Ga  Ga1347  1  0.83743450  0.29166667  0.31374630  1.0
  Ga  Ga1348  1  0.83743450  0.62500000  0.31374630  1.0
  Ga  Ga1349  1  0.83743450  0.95833333  0.31374630  1.0
  Ga  Ga1350  1  0.25410117  0.04166667  0.31374630  1.0
  Ga  Ga1351  1  0.25410117  0.37500000  0.31374630  1.0
  Ga  Ga1352  1  0.25410117  0.70833333  0.31374630  1.0
  Ga  Ga1353  1  0.58743450  0.04166667  0.31374630  1.0
  Ga  Ga1354  1  0.58743450  0.37500000  0.31374630  1.0
  Ga  Ga1355  1  0.58743450  0.70833333  0.31374630  1.0
  Ga  Ga1356  1  0.92076783  0.04166667  0.31374630  1.0
  Ga  Ga1357  1  0.92076783  0.37500000  0.31374630  1.0
  Ga  Ga1358  1  0.92076783  0.70833333  0.31374630  1.0
  Ga  Ga1359  1  0.25410117  0.20833333  0.21374630  1.0
  Ga  Ga1360  1  0.25410117  0.54166667  0.21374630  1.0
  Ga  Ga1361  1  0.25410117  0.87500000  0.21374630  1.0
  Ga  Ga1362  1  0.58743450  0.20833333  0.21374630  1.0
  Ga  Ga1363  1  0.58743450  0.54166667  0.21374630  1.0
  Ga  Ga1364  1  0.58743450  0.87500000  0.21374630  1.0
  Ga  Ga1365  1  0.92076783  0.20833333  0.21374630  1.0
  Ga  Ga1366  1  0.92076783  0.54166667  0.21374630  1.0
  Ga  Ga1367  1  0.92076783  0.87500000  0.21374630  1.0
  Ga  Ga1368  1  0.00410117  0.12500000  0.31374630  1.0
  Ga  Ga1369  1  0.00410117  0.45833333  0.31374630  1.0
  Ga  Ga1370  1  0.00410117  0.79166667  0.31374630  1.0
  Ga  Ga1371  1  0.33743450  0.12500000  0.31374630  1.0
  Ga  Ga1372  1  0.33743450  0.45833333  0.31374630  1.0
  Ga  Ga1373  1  0.33743450  0.79166667  0.31374630  1.0
  Ga  Ga1374  1  0.67076783  0.12500000  0.31374630  1.0
  Ga  Ga1375  1  0.67076783  0.45833333  0.31374630  1.0
  Ga  Ga1376  1  0.67076783  0.79166667  0.31374630  1.0
  Ga  Ga1377  1  0.00410117  0.29166667  0.21374630  1.0
  Ga  Ga1378  1  0.00410117  0.62500000  0.21374630  1.0
  Ga  Ga1379  1  0.00410117  0.95833333  0.21374630  1.0
  Ga  Ga1380  1  0.33743450  0.29166667  0.21374630  1.0
  Ga  Ga1381  1  0.33743450  0.62500000  0.21374630  1.0
  Ga  Ga1382  1  0.33743450  0.95833333  0.21374630  1.0
  Ga  Ga1383  1  0.67076783  0.29166667  0.21374630  1.0
  Ga  Ga1384  1  0.67076783  0.62500000  0.21374630  1.0
  Ga  Ga1385  1  0.67076783  0.95833333  0.21374630  1.0
  Ga  Ga1386  1  0.00410117  0.04371725  0.26251595  1.0
  Ga  Ga1387  1  0.00410117  0.37705058  0.26251595  1.0
  Ga  Ga1388  1  0.00410117  0.71038392  0.26251595  1.0
  Ga  Ga1389  1  0.33743450  0.04371725  0.26251595  1.0
  Ga  Ga1390  1  0.33743450  0.37705058  0.26251595  1.0
  Ga  Ga1391  1  0.33743450  0.71038392  0.26251595  1.0
  Ga  Ga1392  1  0.67076783  0.04371725  0.26251595  1.0
  Ga  Ga1393  1  0.67076783  0.37705058  0.26251595  1.0
  Ga  Ga1394  1  0.67076783  0.71038392  0.26251595  1.0
  Ga  Ga1395  1  0.00410117  0.21038392  0.36251595  1.0
  Ga  Ga1396  1  0.00410117  0.54371725  0.36251595  1.0
  Ga  Ga1397  1  0.00410117  0.87705058  0.36251595  1.0
  Ga  Ga1398  1  0.33743450  0.21038392  0.36251595  1.0
  Ga  Ga1399  1  0.33743450  0.54371725  0.36251595  1.0
  Ga  Ga1400  1  0.33743450  0.87705058  0.36251595  1.0
  Ga  Ga1401  1  0.67076783  0.21038392  0.36251595  1.0
  Ga  Ga1402  1  0.67076783  0.54371725  0.36251595  1.0
  Ga  Ga1403  1  0.67076783  0.87705058  0.36251595  1.0
  Ga  Ga1404  1  0.16256550  0.03961608  0.36005525  1.0
  Ga  Ga1405  1  0.16256550  0.37294942  0.36005525  1.0
  Ga  Ga1406  1  0.16256550  0.70628275  0.36005525  1.0
  Ga  Ga1407  1  0.49589883  0.03961608  0.36005525  1.0
  Ga  Ga1408  1  0.49589883  0.37294942  0.36005525  1.0
  Ga  Ga1409  1  0.49589883  0.70628275  0.36005525  1.0
  Ga  Ga1410  1  0.82923217  0.03961608  0.36005525  1.0
  Ga  Ga1411  1  0.82923217  0.37294942  0.36005525  1.0
  Ga  Ga1412  1  0.82923217  0.70628275  0.36005525  1.0
  Ga  Ga1413  1  0.16256550  0.20628275  0.26005525  1.0
  Ga  Ga1414  1  0.16256550  0.53961608  0.26005525  1.0
  Ga  Ga1415  1  0.16256550  0.87294942  0.26005525  1.0
  Ga  Ga1416  1  0.49589883  0.20628275  0.26005525  1.0
  Ga  Ga1417  1  0.49589883  0.53961608  0.26005525  1.0
  Ga  Ga1418  1  0.49589883  0.87294942  0.26005525  1.0
  Ga  Ga1419  1  0.82923217  0.20628275  0.26005525  1.0
  Ga  Ga1420  1  0.82923217  0.53961608  0.26005525  1.0
  Ga  Ga1421  1  0.82923217  0.87294942  0.26005525  1.0
  Ga  Ga1422  1  0.08333333  0.00205058  0.23997665  1.0
  Ga  Ga1423  1  0.08333333  0.33538392  0.23997665  1.0
  Ga  Ga1424  1  0.08333333  0.66871725  0.23997665  1.0
  Ga  Ga1425  1  0.41666667  0.00205058  0.23997665  1.0
  Ga  Ga1426  1  0.41666667  0.33538392  0.23997665  1.0
  Ga  Ga1427  1  0.41666667  0.66871725  0.23997665  1.0
  Ga  Ga1428  1  0.75000000  0.00205058  0.23997665  1.0
  Ga  Ga1429  1  0.75000000  0.33538392  0.23997665  1.0
  Ga  Ga1430  1  0.75000000  0.66871725  0.23997665  1.0
  Ga  Ga1431  1  0.08333333  0.16871725  0.33997665  1.0
  Ga  Ga1432  1  0.08333333  0.50205058  0.33997665  1.0
  Ga  Ga1433  1  0.08333333  0.83538392  0.33997665  1.0
  Ga  Ga1434  1  0.41666667  0.16871725  0.33997665  1.0
  Ga  Ga1435  1  0.41666667  0.50205058  0.33997665  1.0
  Ga  Ga1436  1  0.41666667  0.83538392  0.33997665  1.0
  Ga  Ga1437  1  0.75000000  0.16871725  0.33997665  1.0
  Ga  Ga1438  1  0.75000000  0.50205058  0.33997665  1.0
  Ga  Ga1439  1  0.75000000  0.83538392  0.33997665  1.0
  Ga  Ga1440  1  0.25000000  0.08128275  0.28259455  1.0
  Ga  Ga1441  1  0.25000000  0.41461608  0.28259455  1.0
  Ga  Ga1442  1  0.25000000  0.74794942  0.28259455  1.0
  Ga  Ga1443  1  0.58333333  0.08128275  0.28259455  1.0
  Ga  Ga1444  1  0.58333333  0.41461608  0.28259455  1.0
  Ga  Ga1445  1  0.58333333  0.74794942  0.28259455  1.0
  Ga  Ga1446  1  0.91666667  0.08128275  0.28259455  1.0
  Ga  Ga1447  1  0.91666667  0.41461608  0.28259455  1.0
  Ga  Ga1448  1  0.91666667  0.74794942  0.28259455  1.0
  Ga  Ga1449  1  0.25000000  0.24794942  0.38259455  1.0
  Ga  Ga1450  1  0.25000000  0.58128275  0.38259455  1.0
  Ga  Ga1451  1  0.25000000  0.91461608  0.38259455  1.0
  Ga  Ga1452  1  0.58333333  0.24794942  0.38259455  1.0
  Ga  Ga1453  1  0.58333333  0.58128275  0.38259455  1.0
  Ga  Ga1454  1  0.58333333  0.91461608  0.38259455  1.0
  Ga  Ga1455  1  0.91666667  0.24794942  0.38259455  1.0
  Ga  Ga1456  1  0.91666667  0.58128275  0.38259455  1.0
  Ga  Ga1457  1  0.91666667  0.91461608  0.38259455  1.0
  Ga  Ga1458  1  0.08743450  0.04166667  0.21374630  1.0
  Ga  Ga1459  1  0.08743450  0.37500000  0.21374630  1.0
  Ga  Ga1460  1  0.08743450  0.70833333  0.21374630  1.0
  Ga  Ga1461  1  0.42076783  0.04166667  0.21374630  1.0
  Ga  Ga1462  1  0.42076783  0.37500000  0.21374630  1.0
  Ga  Ga1463  1  0.42076783  0.70833333  0.21374630  1.0
  Ga  Ga1464  1  0.75410117  0.04166667  0.21374630  1.0
  Ga  Ga1465  1  0.75410117  0.37500000  0.21374630  1.0
  Ga  Ga1466  1  0.75410117  0.70833333  0.21374630  1.0
  Ga  Ga1467  1  0.08743450  0.20833333  0.31374630  1.0
  Ga  Ga1468  1  0.08743450  0.54166667  0.31374630  1.0
  Ga  Ga1469  1  0.08743450  0.87500000  0.31374630  1.0
  Ga  Ga1470  1  0.42076783  0.20833333  0.31374630  1.0
  Ga  Ga1471  1  0.42076783  0.54166667  0.31374630  1.0
  Ga  Ga1472  1  0.42076783  0.87500000  0.31374630  1.0
  Ga  Ga1473  1  0.75410117  0.20833333  0.31374630  1.0
  Ga  Ga1474  1  0.75410117  0.54166667  0.31374630  1.0
  Ga  Ga1475  1  0.75410117  0.87500000  0.31374630  1.0
  Ga  Ga1476  1  0.25000000  0.04371725  0.21497665  1.0
  Ga  Ga1477  1  0.25000000  0.37705058  0.21497665  1.0
  Ga  Ga1478  1  0.25000000  0.71038392  0.21497665  1.0
  Ga  Ga1479  1  0.58333333  0.04371725  0.21497665  1.0
  Ga  Ga1480  1  0.58333333  0.37705058  0.21497665  1.0
  Ga  Ga1481  1  0.58333333  0.71038392  0.21497665  1.0
  Ga  Ga1482  1  0.91666667  0.04371725  0.21497665  1.0
  Ga  Ga1483  1  0.91666667  0.37705058  0.21497665  1.0
  Ga  Ga1484  1  0.91666667  0.71038392  0.21497665  1.0
  Ga  Ga1485  1  0.25000000  0.21038392  0.31497665  1.0
  Ga  Ga1486  1  0.25000000  0.54371725  0.31497665  1.0
  Ga  Ga1487  1  0.25000000  0.87705058  0.31497665  1.0
  Ga  Ga1488  1  0.58333333  0.21038392  0.31497665  1.0
  Ga  Ga1489  1  0.58333333  0.54371725  0.31497665  1.0
  Ga  Ga1490  1  0.58333333  0.87705058  0.31497665  1.0
  Ga  Ga1491  1  0.91666667  0.21038392  0.31497665  1.0
  Ga  Ga1492  1  0.91666667  0.54371725  0.31497665  1.0
  Ga  Ga1493  1  0.91666667  0.87705058  0.31497665  1.0
  Ga  Ga1494  1  0.07923217  0.08128275  0.28505525  1.0
  Ga  Ga1495  1  0.07923217  0.41461608  0.28505525  1.0
  Ga  Ga1496  1  0.07923217  0.74794942  0.28505525  1.0
  Ga  Ga1497  1  0.41256550  0.08128275  0.28505525  1.0
  Ga  Ga1498  1  0.41256550  0.41461608  0.28505525  1.0
  Ga  Ga1499  1  0.41256550  0.74794942  0.28505525  1.0
  Ga  Ga1500  1  0.74589883  0.08128275  0.28505525  1.0
  Ga  Ga1501  1  0.74589883  0.41461608  0.28505525  1.0
  Ga  Ga1502  1  0.74589883  0.74794942  0.28505525  1.0
  Ga  Ga1503  1  0.07923217  0.24794942  0.38505525  1.0
  Ga  Ga1504  1  0.07923217  0.58128275  0.38505525  1.0
  Ga  Ga1505  1  0.07923217  0.91461608  0.38505525  1.0
  Ga  Ga1506  1  0.41256550  0.24794942  0.38505525  1.0
  Ga  Ga1507  1  0.41256550  0.58128275  0.38505525  1.0
  Ga  Ga1508  1  0.41256550  0.91461608  0.38505525  1.0
  Ga  Ga1509  1  0.74589883  0.24794942  0.38505525  1.0
  Ga  Ga1510  1  0.74589883  0.58128275  0.38505525  1.0
  Ga  Ga1511  1  0.74589883  0.91461608  0.38505525  1.0
  Ga  Ga1512  1  0.08333333  0.03961608  0.30759455  1.0
  Ga  Ga1513  1  0.08333333  0.37294942  0.30759455  1.0
  Ga  Ga1514  1  0.08333333  0.70628275  0.30759455  1.0
  Ga  Ga1515  1  0.41666667  0.03961608  0.30759455  1.0
  Ga  Ga1516  1  0.41666667  0.37294942  0.30759455  1.0
  Ga  Ga1517  1  0.41666667  0.70628275  0.30759455  1.0
  Ga  Ga1518  1  0.75000000  0.03961608  0.30759455  1.0
  Ga  Ga1519  1  0.75000000  0.37294942  0.30759455  1.0
  Ga  Ga1520  1  0.75000000  0.70628275  0.30759455  1.0
  Ga  Ga1521  1  0.08333333  0.20628275  0.20759455  1.0
  Ga  Ga1522  1  0.08333333  0.53961608  0.20759455  1.0
  Ga  Ga1523  1  0.08333333  0.87294942  0.20759455  1.0
  Ga  Ga1524  1  0.41666667  0.20628275  0.20759455  1.0
  Ga  Ga1525  1  0.41666667  0.53961608  0.20759455  1.0
  Ga  Ga1526  1  0.41666667  0.87294942  0.20759455  1.0
  Ga  Ga1527  1  0.75000000  0.20628275  0.20759455  1.0
  Ga  Ga1528  1  0.75000000  0.53961608  0.20759455  1.0
  Ga  Ga1529  1  0.75000000  0.87294942  0.20759455  1.0
  Ga  Ga1530  1  0.08743450  0.00205058  0.33751595  1.0
  Ga  Ga1531  1  0.08743450  0.33538392  0.33751595  1.0
  Ga  Ga1532  1  0.08743450  0.66871725  0.33751595  1.0
  Ga  Ga1533  1  0.42076783  0.00205058  0.33751595  1.0
  Ga  Ga1534  1  0.42076783  0.33538392  0.33751595  1.0
  Ga  Ga1535  1  0.42076783  0.66871725  0.33751595  1.0
  Ga  Ga1536  1  0.75410117  0.00205058  0.33751595  1.0
  Ga  Ga1537  1  0.75410117  0.33538392  0.33751595  1.0
  Ga  Ga1538  1  0.75410117  0.66871725  0.33751595  1.0
  Ga  Ga1539  1  0.08743450  0.16871725  0.23751595  1.0
  Ga  Ga1540  1  0.08743450  0.50205058  0.23751595  1.0
  Ga  Ga1541  1  0.08743450  0.83538392  0.23751595  1.0
  Ga  Ga1542  1  0.42076783  0.16871725  0.23751595  1.0
  Ga  Ga1543  1  0.42076783  0.50205058  0.23751595  1.0
  Ga  Ga1544  1  0.42076783  0.83538392  0.23751595  1.0
  Ga  Ga1545  1  0.75410117  0.16871725  0.23751595  1.0
  Ga  Ga1546  1  0.75410117  0.50205058  0.23751595  1.0
  Ga  Ga1547  1  0.75410117  0.83538392  0.23751595  1.0
  Ga  Ga1548  1  0.16256550  0.04166667  0.25882490  1.0
  Ga  Ga1549  1  0.16256550  0.37500000  0.25882490  1.0
  Ga  Ga1550  1  0.16256550  0.70833333  0.25882490  1.0
  Ga  Ga1551  1  0.49589883  0.04166667  0.25882490  1.0
  Ga  Ga1552  1  0.49589883  0.37500000  0.25882490  1.0
  Ga  Ga1553  1  0.49589883  0.70833333  0.25882490  1.0
  Ga  Ga1554  1  0.82923217  0.04166667  0.25882490  1.0
  Ga  Ga1555  1  0.82923217  0.37500000  0.25882490  1.0
  Ga  Ga1556  1  0.82923217  0.70833333  0.25882490  1.0
  Ga  Ga1557  1  0.16256550  0.20833333  0.35882490  1.0
  Ga  Ga1558  1  0.16256550  0.54166667  0.35882490  1.0
  Ga  Ga1559  1  0.16256550  0.87500000  0.35882490  1.0
  Ga  Ga1560  1  0.49589883  0.20833333  0.35882490  1.0
  Ga  Ga1561  1  0.49589883  0.54166667  0.35882490  1.0
  Ga  Ga1562  1  0.49589883  0.87500000  0.35882490  1.0
  Ga  Ga1563  1  0.82923217  0.20833333  0.35882490  1.0
  Ga  Ga1564  1  0.82923217  0.54166667  0.35882490  1.0
  Ga  Ga1565  1  0.82923217  0.87500000  0.35882490  1.0
  Ga  Ga1566  1  0.07923217  0.12500000  0.35882490  1.0
  Ga  Ga1567  1  0.07923217  0.45833333  0.35882490  1.0
  Ga  Ga1568  1  0.07923217  0.79166667  0.35882490  1.0
  Ga  Ga1569  1  0.41256550  0.12500000  0.35882490  1.0
  Ga  Ga1570  1  0.41256550  0.45833333  0.35882490  1.0
  Ga  Ga1571  1  0.41256550  0.79166667  0.35882490  1.0
  Ga  Ga1572  1  0.74589883  0.12500000  0.35882490  1.0
  Ga  Ga1573  1  0.74589883  0.45833333  0.35882490  1.0
  Ga  Ga1574  1  0.74589883  0.79166667  0.35882490  1.0
  Ga  Ga1575  1  0.07923217  0.29166667  0.25882490  1.0
  Ga  Ga1576  1  0.07923217  0.62500000  0.25882490  1.0
  Ga  Ga1577  1  0.07923217  0.95833333  0.25882490  1.0
  Ga  Ga1578  1  0.41256550  0.29166667  0.25882490  1.0
  Ga  Ga1579  1  0.41256550  0.62500000  0.25882490  1.0
  Ga  Ga1580  1  0.41256550  0.95833333  0.25882490  1.0
  Ga  Ga1581  1  0.74589883  0.29166667  0.25882490  1.0
  Ga  Ga1582  1  0.74589883  0.62500000  0.25882490  1.0
  Ga  Ga1583  1  0.74589883  0.95833333  0.25882490  1.0
  Ni  Ni1584  1  0.16936533  0.08603200  0.28952400  1.0
  Ni  Ni1585  1  0.16936533  0.41936533  0.28952400  1.0
  Ni  Ni1586  1  0.16936533  0.75269867  0.28952400  1.0
  Ni  Ni1587  1  0.50269867  0.08603200  0.28952400  1.0
  Ni  Ni1588  1  0.50269867  0.41936533  0.28952400  1.0
  Ni  Ni1589  1  0.50269867  0.75269867  0.28952400  1.0
  Ni  Ni1590  1  0.83603200  0.08603200  0.28952400  1.0
  Ni  Ni1591  1  0.83603200  0.41936533  0.28952400  1.0
  Ni  Ni1592  1  0.83603200  0.75269867  0.28952400  1.0
  Ni  Ni1593  1  0.16936533  0.25269867  0.38952400  1.0
  Ni  Ni1594  1  0.16936533  0.58603200  0.38952400  1.0
  Ni  Ni1595  1  0.16936533  0.91936533  0.38952400  1.0
  Ni  Ni1596  1  0.50269867  0.25269867  0.38952400  1.0
  Ni  Ni1597  1  0.50269867  0.58603200  0.38952400  1.0
  Ni  Ni1598  1  0.50269867  0.91936533  0.38952400  1.0
  Ni  Ni1599  1  0.83603200  0.25269867  0.38952400  1.0
  Ni  Ni1600  1  0.83603200  0.58603200  0.38952400  1.0
  Ni  Ni1601  1  0.83603200  0.91936533  0.38952400  1.0
  Ni  Ni1602  1  0.08063467  0.04301600  0.36209520  1.0
  Ni  Ni1603  1  0.08063467  0.37634933  0.36209520  1.0
  Ni  Ni1604  1  0.08063467  0.70968267  0.36209520  1.0
  Ni  Ni1605  1  0.41396800  0.04301600  0.36209520  1.0
  Ni  Ni1606  1  0.41396800  0.37634933  0.36209520  1.0
  Ni  Ni1607  1  0.41396800  0.70968267  0.36209520  1.0
  Ni  Ni1608  1  0.74730133  0.04301600  0.36209520  1.0
  Ni  Ni1609  1  0.74730133  0.37634933  0.36209520  1.0
  Ni  Ni1610  1  0.74730133  0.70968267  0.36209520  1.0
  Ni  Ni1611  1  0.08063467  0.20968267  0.26209520  1.0
  Ni  Ni1612  1  0.08063467  0.54301600  0.26209520  1.0
  Ni  Ni1613  1  0.08063467  0.87634933  0.26209520  1.0
  Ni  Ni1614  1  0.41396800  0.20968267  0.26209520  1.0
  Ni  Ni1615  1  0.41396800  0.54301600  0.26209520  1.0
  Ni  Ni1616  1  0.41396800  0.87634933  0.26209520  1.0
  Ni  Ni1617  1  0.74730133  0.20968267  0.26209520  1.0
  Ni  Ni1618  1  0.74730133  0.54301600  0.26209520  1.0
  Ni  Ni1619  1  0.74730133  0.87634933  0.26209520  1.0
  Ni  Ni1620  1  0.08603200  0.08468267  0.34033360  1.0
  Ni  Ni1621  1  0.08603200  0.41801600  0.34033360  1.0
  Ni  Ni1622  1  0.08603200  0.75134933  0.34033360  1.0
  Ni  Ni1623  1  0.41936533  0.08468267  0.34033360  1.0
  Ni  Ni1624  1  0.41936533  0.41801600  0.34033360  1.0
  Ni  Ni1625  1  0.41936533  0.75134933  0.34033360  1.0
  Ni  Ni1626  1  0.75269867  0.08468267  0.34033360  1.0
  Ni  Ni1627  1  0.75269867  0.41801600  0.34033360  1.0
  Ni  Ni1628  1  0.75269867  0.75134933  0.34033360  1.0
  Ni  Ni1629  1  0.08603200  0.25134933  0.24033360  1.0
  Ni  Ni1630  1  0.08603200  0.58468267  0.24033360  1.0
  Ni  Ni1631  1  0.08603200  0.91801600  0.24033360  1.0
  Ni  Ni1632  1  0.41936533  0.25134933  0.24033360  1.0
  Ni  Ni1633  1  0.41936533  0.58468267  0.24033360  1.0
  Ni  Ni1634  1  0.41936533  0.91801600  0.24033360  1.0
  Ni  Ni1635  1  0.75269867  0.25134933  0.24033360  1.0
  Ni  Ni1636  1  0.75269867  0.58468267  0.24033360  1.0
  Ni  Ni1637  1  0.75269867  0.91801600  0.24033360  1.0
  Ni  Ni1638  1  0.25000000  0.08468267  0.23547600  1.0
  Ni  Ni1639  1  0.25000000  0.41801600  0.23547600  1.0
  Ni  Ni1640  1  0.25000000  0.75134933  0.23547600  1.0
  Ni  Ni1641  1  0.58333333  0.08468267  0.23547600  1.0
  Ni  Ni1642  1  0.58333333  0.41801600  0.23547600  1.0
  Ni  Ni1643  1  0.58333333  0.75134933  0.23547600  1.0
  Ni  Ni1644  1  0.91666667  0.08468267  0.23547600  1.0
  Ni  Ni1645  1  0.91666667  0.41801600  0.23547600  1.0
  Ni  Ni1646  1  0.91666667  0.75134933  0.23547600  1.0
  Ni  Ni1647  1  0.25000000  0.25134933  0.33547600  1.0
  Ni  Ni1648  1  0.25000000  0.58468267  0.33547600  1.0
  Ni  Ni1649  1  0.25000000  0.91801600  0.33547600  1.0
  Ni  Ni1650  1  0.58333333  0.25134933  0.33547600  1.0
  Ni  Ni1651  1  0.58333333  0.58468267  0.33547600  1.0
  Ni  Ni1652  1  0.58333333  0.91801600  0.33547600  1.0
  Ni  Ni1653  1  0.91666667  0.25134933  0.33547600  1.0
  Ni  Ni1654  1  0.91666667  0.58468267  0.33547600  1.0
  Ni  Ni1655  1  0.91666667  0.91801600  0.33547600  1.0
  Ni  Ni1656  1  0.17206400  0.04301600  0.31371440  1.0
  Ni  Ni1657  1  0.17206400  0.37634933  0.31371440  1.0
  Ni  Ni1658  1  0.17206400  0.70968267  0.31371440  1.0
  Ni  Ni1659  1  0.50539733  0.04301600  0.31371440  1.0
  Ni  Ni1660  1  0.50539733  0.37634933  0.31371440  1.0
  Ni  Ni1661  1  0.50539733  0.70968267  0.31371440  1.0
  Ni  Ni1662  1  0.83873067  0.04301600  0.31371440  1.0
  Ni  Ni1663  1  0.83873067  0.37634933  0.31371440  1.0
  Ni  Ni1664  1  0.83873067  0.70968267  0.31371440  1.0
  Ni  Ni1665  1  0.17206400  0.20968267  0.21371440  1.0
  Ni  Ni1666  1  0.17206400  0.54301600  0.21371440  1.0
  Ni  Ni1667  1  0.17206400  0.87634933  0.21371440  1.0
  Ni  Ni1668  1  0.50539733  0.20968267  0.21371440  1.0
  Ni  Ni1669  1  0.50539733  0.54301600  0.21371440  1.0
  Ni  Ni1670  1  0.50539733  0.87634933  0.21371440  1.0
  Ni  Ni1671  1  0.83873067  0.20968267  0.21371440  1.0
  Ni  Ni1672  1  0.83873067  0.54301600  0.21371440  1.0
  Ni  Ni1673  1  0.83873067  0.87634933  0.21371440  1.0
  Ni  Ni1674  1  0.08603200  0.12500000  0.30966640  1.0
  Ni  Ni1675  1  0.08603200  0.45833333  0.30966640  1.0
  Ni  Ni1676  1  0.08603200  0.79166667  0.30966640  1.0
  Ni  Ni1677  1  0.41936533  0.12500000  0.30966640  1.0
  Ni  Ni1678  1  0.41936533  0.45833333  0.30966640  1.0
  Ni  Ni1679  1  0.41936533  0.79166667  0.30966640  1.0
  Ni  Ni1680  1  0.75269867  0.12500000  0.30966640  1.0
  Ni  Ni1681  1  0.75269867  0.45833333  0.30966640  1.0
  Ni  Ni1682  1  0.75269867  0.79166667  0.30966640  1.0
  Ni  Ni1683  1  0.08603200  0.29166667  0.20966640  1.0
  Ni  Ni1684  1  0.08603200  0.62500000  0.20966640  1.0
  Ni  Ni1685  1  0.08603200  0.95833333  0.20966640  1.0
  Ni  Ni1686  1  0.41936533  0.29166667  0.20966640  1.0
  Ni  Ni1687  1  0.41936533  0.62500000  0.20966640  1.0
  Ni  Ni1688  1  0.41936533  0.95833333  0.20966640  1.0
  Ni  Ni1689  1  0.75269867  0.29166667  0.20966640  1.0
  Ni  Ni1690  1  0.75269867  0.62500000  0.20966640  1.0
  Ni  Ni1691  1  0.75269867  0.95833333  0.20966640  1.0
  Ni  Ni1692  1  0.33063467  0.12500000  0.36290480  1.0
  Ni  Ni1693  1  0.33063467  0.45833333  0.36290480  1.0
  Ni  Ni1694  1  0.33063467  0.79166667  0.36290480  1.0
  Ni  Ni1695  1  0.66396800  0.12500000  0.36290480  1.0
  Ni  Ni1696  1  0.66396800  0.45833333  0.36290480  1.0
  Ni  Ni1697  1  0.66396800  0.79166667  0.36290480  1.0
  Ni  Ni1698  1  0.99730133  0.12500000  0.36290480  1.0
  Ni  Ni1699  1  0.99730133  0.45833333  0.36290480  1.0
  Ni  Ni1700  1  0.99730133  0.79166667  0.36290480  1.0
  Ni  Ni1701  1  0.33063467  0.29166667  0.26290480  1.0
  Ni  Ni1702  1  0.33063467  0.62500000  0.26290480  1.0
  Ni  Ni1703  1  0.33063467  0.95833333  0.26290480  1.0
  Ni  Ni1704  1  0.66396800  0.29166667  0.26290480  1.0
  Ni  Ni1705  1  0.66396800  0.62500000  0.26290480  1.0
  Ni  Ni1706  1  0.66396800  0.95833333  0.26290480  1.0
  Ni  Ni1707  1  0.99730133  0.29166667  0.26290480  1.0
  Ni  Ni1708  1  0.99730133  0.62500000  0.26290480  1.0
  Ni  Ni1709  1  0.99730133  0.95833333  0.26290480  1.0
  Ni  Ni1710  1  0.32793600  0.16531733  0.33385680  1.0
  Ni  Ni1711  1  0.32793600  0.49865067  0.33385680  1.0
  Ni  Ni1712  1  0.32793600  0.83198400  0.33385680  1.0
  Ni  Ni1713  1  0.66126933  0.16531733  0.33385680  1.0
  Ni  Ni1714  1  0.66126933  0.49865067  0.33385680  1.0
  Ni  Ni1715  1  0.66126933  0.83198400  0.33385680  1.0
  Ni  Ni1716  1  0.99460267  0.16531733  0.33385680  1.0
  Ni  Ni1717  1  0.99460267  0.49865067  0.33385680  1.0
  Ni  Ni1718  1  0.99460267  0.83198400  0.33385680  1.0
  Ni  Ni1719  1  0.32793600  0.33198400  0.23385680  1.0
  Ni  Ni1720  1  0.32793600  0.66531733  0.23385680  1.0
  Ni  Ni1721  1  0.32793600  0.99865067  0.23385680  1.0
  Ni  Ni1722  1  0.66126933  0.33198400  0.23385680  1.0
  Ni  Ni1723  1  0.66126933  0.66531733  0.23385680  1.0
  Ni  Ni1724  1  0.66126933  0.99865067  0.23385680  1.0
  Ni  Ni1725  1  0.99460267  0.33198400  0.23385680  1.0
  Ni  Ni1726  1  0.99460267  0.66531733  0.23385680  1.0
  Ni  Ni1727  1  0.99460267  0.99865067  0.23385680  1.0
  Ni  Ni1728  1  0.16936533  0.16531733  0.23547600  1.0
  Ni  Ni1729  1  0.16936533  0.49865067  0.23547600  1.0
  Ni  Ni1730  1  0.16936533  0.83198400  0.23547600  1.0
  Ni  Ni1731  1  0.50269867  0.16531733  0.23547600  1.0
  Ni  Ni1732  1  0.50269867  0.49865067  0.23547600  1.0
  Ni  Ni1733  1  0.50269867  0.83198400  0.23547600  1.0
  Ni  Ni1734  1  0.83603200  0.16531733  0.23547600  1.0
  Ni  Ni1735  1  0.83603200  0.49865067  0.23547600  1.0
  Ni  Ni1736  1  0.83603200  0.83198400  0.23547600  1.0
  Ni  Ni1737  1  0.16936533  0.33198400  0.33547600  1.0
  Ni  Ni1738  1  0.16936533  0.66531733  0.33547600  1.0
  Ni  Ni1739  1  0.16936533  0.99865067  0.33547600  1.0
  Ni  Ni1740  1  0.50269867  0.33198400  0.33547600  1.0
  Ni  Ni1741  1  0.50269867  0.66531733  0.33547600  1.0
  Ni  Ni1742  1  0.50269867  0.99865067  0.33547600  1.0
  Ni  Ni1743  1  0.83603200  0.33198400  0.33547600  1.0
  Ni  Ni1744  1  0.83603200  0.66531733  0.33547600  1.0
  Ni  Ni1745  1  0.83603200  0.99865067  0.33547600  1.0
  Ni  Ni1746  1  0.33063467  0.04031733  0.20723760  1.0
  Ni  Ni1747  1  0.33063467  0.37365067  0.20723760  1.0
  Ni  Ni1748  1  0.33063467  0.70698400  0.20723760  1.0
  Ni  Ni1749  1  0.66396800  0.04031733  0.20723760  1.0
  Ni  Ni1750  1  0.66396800  0.37365067  0.20723760  1.0
  Ni  Ni1751  1  0.66396800  0.70698400  0.20723760  1.0
  Ni  Ni1752  1  0.99730133  0.04031733  0.20723760  1.0
  Ni  Ni1753  1  0.99730133  0.37365067  0.20723760  1.0
  Ni  Ni1754  1  0.99730133  0.70698400  0.20723760  1.0
  Ni  Ni1755  1  0.33063467  0.20698400  0.30723760  1.0
  Ni  Ni1756  1  0.33063467  0.54031733  0.30723760  1.0
  Ni  Ni1757  1  0.33063467  0.87365067  0.30723760  1.0
  Ni  Ni1758  1  0.66396800  0.20698400  0.30723760  1.0
  Ni  Ni1759  1  0.66396800  0.54031733  0.30723760  1.0
  Ni  Ni1760  1  0.66396800  0.87365067  0.30723760  1.0
  Ni  Ni1761  1  0.99730133  0.20698400  0.30723760  1.0
  Ni  Ni1762  1  0.99730133  0.54031733  0.30723760  1.0
  Ni  Ni1763  1  0.99730133  0.87365067  0.30723760  1.0
  Ni  Ni1764  1  0.25000000  0.04031733  0.26209520  1.0
  Ni  Ni1765  1  0.25000000  0.37365067  0.26209520  1.0
  Ni  Ni1766  1  0.25000000  0.70698400  0.26209520  1.0
  Ni  Ni1767  1  0.58333333  0.04031733  0.26209520  1.0
  Ni  Ni1768  1  0.58333333  0.37365067  0.26209520  1.0
  Ni  Ni1769  1  0.58333333  0.70698400  0.26209520  1.0
  Ni  Ni1770  1  0.91666667  0.04031733  0.26209520  1.0
  Ni  Ni1771  1  0.91666667  0.37365067  0.26209520  1.0
  Ni  Ni1772  1  0.91666667  0.70698400  0.26209520  1.0
  Ni  Ni1773  1  0.25000000  0.20698400  0.36209520  1.0
  Ni  Ni1774  1  0.25000000  0.54031733  0.36209520  1.0
  Ni  Ni1775  1  0.25000000  0.87365067  0.36209520  1.0
  Ni  Ni1776  1  0.58333333  0.20698400  0.36209520  1.0
  Ni  Ni1777  1  0.58333333  0.54031733  0.36209520  1.0
  Ni  Ni1778  1  0.58333333  0.87365067  0.36209520  1.0
  Ni  Ni1779  1  0.91666667  0.20698400  0.36209520  1.0
  Ni  Ni1780  1  0.91666667  0.54031733  0.36209520  1.0
  Ni  Ni1781  1  0.91666667  0.87365067  0.36209520  1.0
  Ni  Ni1782  1  0.08063467  0.16396800  0.28304720  1.0
  Ni  Ni1783  1  0.08063467  0.49730133  0.28304720  1.0
  Ni  Ni1784  1  0.08063467  0.83063467  0.28304720  1.0
  Ni  Ni1785  1  0.41396800  0.16396800  0.28304720  1.0
  Ni  Ni1786  1  0.41396800  0.49730133  0.28304720  1.0
  Ni  Ni1787  1  0.41396800  0.83063467  0.28304720  1.0
  Ni  Ni1788  1  0.74730133  0.16396800  0.28304720  1.0
  Ni  Ni1789  1  0.74730133  0.49730133  0.28304720  1.0
  Ni  Ni1790  1  0.74730133  0.83063467  0.28304720  1.0
  Ni  Ni1791  1  0.08063467  0.33063467  0.38304720  1.0
  Ni  Ni1792  1  0.08063467  0.66396800  0.38304720  1.0
  Ni  Ni1793  1  0.08063467  0.99730133  0.38304720  1.0
  Ni  Ni1794  1  0.41396800  0.33063467  0.38304720  1.0
  Ni  Ni1795  1  0.41396800  0.66396800  0.38304720  1.0
  Ni  Ni1796  1  0.41396800  0.99730133  0.38304720  1.0
  Ni  Ni1797  1  0.74730133  0.33063467  0.38304720  1.0
  Ni  Ni1798  1  0.74730133  0.66396800  0.38304720  1.0
  Ni  Ni1799  1  0.74730133  0.99730133  0.38304720  1.0
  Ni  Ni1800  1  0.16396800  0.08063467  0.38304720  1.0
  Ni  Ni1801  1  0.16396800  0.41396800  0.38304720  1.0
  Ni  Ni1802  1  0.16396800  0.74730133  0.38304720  1.0
  Ni  Ni1803  1  0.49730133  0.08063467  0.38304720  1.0
  Ni  Ni1804  1  0.49730133  0.41396800  0.38304720  1.0
  Ni  Ni1805  1  0.49730133  0.74730133  0.38304720  1.0
  Ni  Ni1806  1  0.83063467  0.08063467  0.38304720  1.0
  Ni  Ni1807  1  0.83063467  0.41396800  0.38304720  1.0
  Ni  Ni1808  1  0.83063467  0.74730133  0.38304720  1.0
  Ni  Ni1809  1  0.16396800  0.24730133  0.28304720  1.0
  Ni  Ni1810  1  0.16396800  0.58063467  0.28304720  1.0
  Ni  Ni1811  1  0.16396800  0.91396800  0.28304720  1.0
  Ni  Ni1812  1  0.49730133  0.24730133  0.28304720  1.0
  Ni  Ni1813  1  0.49730133  0.58063467  0.28304720  1.0
  Ni  Ni1814  1  0.49730133  0.91396800  0.28304720  1.0
  Ni  Ni1815  1  0.83063467  0.24730133  0.28304720  1.0
  Ni  Ni1816  1  0.83063467  0.58063467  0.28304720  1.0
  Ni  Ni1817  1  0.83063467  0.91396800  0.28304720  1.0
  Ni  Ni1818  1  0.25269867  0.12365067  0.31047600  1.0
  Ni  Ni1819  1  0.25269867  0.45698400  0.31047600  1.0
  Ni  Ni1820  1  0.25269867  0.79031733  0.31047600  1.0
  Ni  Ni1821  1  0.58603200  0.12365067  0.31047600  1.0
  Ni  Ni1822  1  0.58603200  0.45698400  0.31047600  1.0
  Ni  Ni1823  1  0.58603200  0.79031733  0.31047600  1.0
  Ni  Ni1824  1  0.91936533  0.12365067  0.31047600  1.0
  Ni  Ni1825  1  0.91936533  0.45698400  0.31047600  1.0
  Ni  Ni1826  1  0.91936533  0.79031733  0.31047600  1.0
  Ni  Ni1827  1  0.25269867  0.29031733  0.21047600  1.0
  Ni  Ni1828  1  0.25269867  0.62365067  0.21047600  1.0
  Ni  Ni1829  1  0.25269867  0.95698400  0.21047600  1.0
  Ni  Ni1830  1  0.58603200  0.29031733  0.21047600  1.0
  Ni  Ni1831  1  0.58603200  0.62365067  0.21047600  1.0
  Ni  Ni1832  1  0.58603200  0.95698400  0.21047600  1.0
  Ni  Ni1833  1  0.91936533  0.29031733  0.21047600  1.0
  Ni  Ni1834  1  0.91936533  0.62365067  0.21047600  1.0
  Ni  Ni1835  1  0.91936533  0.95698400  0.21047600  1.0
  Ni  Ni1836  1  0.24730133  0.08198400  0.33223760  1.0
  Ni  Ni1837  1  0.24730133  0.41531733  0.33223760  1.0
  Ni  Ni1838  1  0.24730133  0.74865067  0.33223760  1.0
  Ni  Ni1839  1  0.58063467  0.08198400  0.33223760  1.0
  Ni  Ni1840  1  0.58063467  0.41531733  0.33223760  1.0
  Ni  Ni1841  1  0.58063467  0.74865067  0.33223760  1.0
  Ni  Ni1842  1  0.91396800  0.08198400  0.33223760  1.0
  Ni  Ni1843  1  0.91396800  0.41531733  0.33223760  1.0
  Ni  Ni1844  1  0.91396800  0.74865067  0.33223760  1.0
  Ni  Ni1845  1  0.24730133  0.24865067  0.23223760  1.0
  Ni  Ni1846  1  0.24730133  0.58198400  0.23223760  1.0
  Ni  Ni1847  1  0.24730133  0.91531733  0.23223760  1.0
  Ni  Ni1848  1  0.58063467  0.24865067  0.23223760  1.0
  Ni  Ni1849  1  0.58063467  0.58198400  0.23223760  1.0
  Ni  Ni1850  1  0.58063467  0.91531733  0.23223760  1.0
  Ni  Ni1851  1  0.91396800  0.24865067  0.23223760  1.0
  Ni  Ni1852  1  0.91396800  0.58198400  0.23223760  1.0
  Ni  Ni1853  1  0.91396800  0.91531733  0.23223760  1.0
  Ni  Ni1854  1  0.08333333  0.08198400  0.23709520  1.0
  Ni  Ni1855  1  0.08333333  0.41531733  0.23709520  1.0
  Ni  Ni1856  1  0.08333333  0.74865067  0.23709520  1.0
  Ni  Ni1857  1  0.41666667  0.08198400  0.23709520  1.0
  Ni  Ni1858  1  0.41666667  0.41531733  0.23709520  1.0
  Ni  Ni1859  1  0.41666667  0.74865067  0.23709520  1.0
  Ni  Ni1860  1  0.75000000  0.08198400  0.23709520  1.0
  Ni  Ni1861  1  0.75000000  0.41531733  0.23709520  1.0
  Ni  Ni1862  1  0.75000000  0.74865067  0.23709520  1.0
  Ni  Ni1863  1  0.08333333  0.24865067  0.33709520  1.0
  Ni  Ni1864  1  0.08333333  0.58198400  0.33709520  1.0
  Ni  Ni1865  1  0.08333333  0.91531733  0.33709520  1.0
  Ni  Ni1866  1  0.41666667  0.24865067  0.33709520  1.0
  Ni  Ni1867  1  0.41666667  0.58198400  0.33709520  1.0
  Ni  Ni1868  1  0.41666667  0.91531733  0.33709520  1.0
  Ni  Ni1869  1  0.75000000  0.24865067  0.33709520  1.0
  Ni  Ni1870  1  0.75000000  0.58198400  0.33709520  1.0
  Ni  Ni1871  1  0.75000000  0.91531733  0.33709520  1.0
  Ni  Ni1872  1  0.16126933  0.12365067  0.35885680  1.0
  Ni  Ni1873  1  0.16126933  0.45698400  0.35885680  1.0
  Ni  Ni1874  1  0.16126933  0.79031733  0.35885680  1.0
  Ni  Ni1875  1  0.49460267  0.12365067  0.35885680  1.0
  Ni  Ni1876  1  0.49460267  0.45698400  0.35885680  1.0
  Ni  Ni1877  1  0.49460267  0.79031733  0.35885680  1.0
  Ni  Ni1878  1  0.82793600  0.12365067  0.35885680  1.0
  Ni  Ni1879  1  0.82793600  0.45698400  0.35885680  1.0
  Ni  Ni1880  1  0.82793600  0.79031733  0.35885680  1.0
  Ni  Ni1881  1  0.16126933  0.29031733  0.25885680  1.0
  Ni  Ni1882  1  0.16126933  0.62365067  0.25885680  1.0
  Ni  Ni1883  1  0.16126933  0.95698400  0.25885680  1.0
  Ni  Ni1884  1  0.49460267  0.29031733  0.25885680  1.0
  Ni  Ni1885  1  0.49460267  0.62365067  0.25885680  1.0
  Ni  Ni1886  1  0.49460267  0.95698400  0.25885680  1.0
  Ni  Ni1887  1  0.82793600  0.29031733  0.25885680  1.0
  Ni  Ni1888  1  0.82793600  0.62365067  0.25885680  1.0
  Ni  Ni1889  1  0.82793600  0.95698400  0.25885680  1.0
  Ni  Ni1890  1  0.24730133  0.04166667  0.36290480  1.0
  Ni  Ni1891  1  0.24730133  0.37500000  0.36290480  1.0
  Ni  Ni1892  1  0.24730133  0.70833333  0.36290480  1.0
  Ni  Ni1893  1  0.58063467  0.04166667  0.36290480  1.0
  Ni  Ni1894  1  0.58063467  0.37500000  0.36290480  1.0
  Ni  Ni1895  1  0.58063467  0.70833333  0.36290480  1.0
  Ni  Ni1896  1  0.91396800  0.04166667  0.36290480  1.0
  Ni  Ni1897  1  0.91396800  0.37500000  0.36290480  1.0
  Ni  Ni1898  1  0.91396800  0.70833333  0.36290480  1.0
  Ni  Ni1899  1  0.24730133  0.20833333  0.26290480  1.0
  Ni  Ni1900  1  0.24730133  0.54166667  0.26290480  1.0
  Ni  Ni1901  1  0.24730133  0.87500000  0.26290480  1.0
  Ni  Ni1902  1  0.58063467  0.20833333  0.26290480  1.0
  Ni  Ni1903  1  0.58063467  0.54166667  0.26290480  1.0
  Ni  Ni1904  1  0.58063467  0.87500000  0.26290480  1.0
  Ni  Ni1905  1  0.91396800  0.20833333  0.26290480  1.0
  Ni  Ni1906  1  0.91396800  0.54166667  0.26290480  1.0
  Ni  Ni1907  1  0.91396800  0.87500000  0.26290480  1.0
  Ni  Ni1908  1  0.00269867  0.04166667  0.30966640  1.0
  Ni  Ni1909  1  0.00269867  0.37500000  0.30966640  1.0
  Ni  Ni1910  1  0.00269867  0.70833333  0.30966640  1.0
  Ni  Ni1911  1  0.33603200  0.04166667  0.30966640  1.0
  Ni  Ni1912  1  0.33603200  0.37500000  0.30966640  1.0
  Ni  Ni1913  1  0.33603200  0.70833333  0.30966640  1.0
  Ni  Ni1914  1  0.66936533  0.04166667  0.30966640  1.0
  Ni  Ni1915  1  0.66936533  0.37500000  0.30966640  1.0
  Ni  Ni1916  1  0.66936533  0.70833333  0.30966640  1.0
  Ni  Ni1917  1  0.00269867  0.20833333  0.20966640  1.0
  Ni  Ni1918  1  0.00269867  0.54166667  0.20966640  1.0
  Ni  Ni1919  1  0.00269867  0.87500000  0.20966640  1.0
  Ni  Ni1920  1  0.33603200  0.20833333  0.20966640  1.0
  Ni  Ni1921  1  0.33603200  0.54166667  0.20966640  1.0
  Ni  Ni1922  1  0.33603200  0.87500000  0.20966640  1.0
  Ni  Ni1923  1  0.66936533  0.20833333  0.20966640  1.0
  Ni  Ni1924  1  0.66936533  0.54166667  0.20966640  1.0
  Ni  Ni1925  1  0.66936533  0.87500000  0.20966640  1.0
  Ni  Ni1926  1  0.00539733  0.00134933  0.33871440  1.0
  Ni  Ni1927  1  0.00539733  0.33468267  0.33871440  1.0
  Ni  Ni1928  1  0.00539733  0.66801600  0.33871440  1.0
  Ni  Ni1929  1  0.33873067  0.00134933  0.33871440  1.0
  Ni  Ni1930  1  0.33873067  0.33468267  0.33871440  1.0
  Ni  Ni1931  1  0.33873067  0.66801600  0.33871440  1.0
  Ni  Ni1932  1  0.67206400  0.00134933  0.33871440  1.0
  Ni  Ni1933  1  0.67206400  0.33468267  0.33871440  1.0
  Ni  Ni1934  1  0.67206400  0.66801600  0.33871440  1.0
  Ni  Ni1935  1  0.00539733  0.16801600  0.23871440  1.0
  Ni  Ni1936  1  0.00539733  0.50134933  0.23871440  1.0
  Ni  Ni1937  1  0.00539733  0.83468267  0.23871440  1.0
  Ni  Ni1938  1  0.33873067  0.16801600  0.23871440  1.0
  Ni  Ni1939  1  0.33873067  0.50134933  0.23871440  1.0
  Ni  Ni1940  1  0.33873067  0.83468267  0.23871440  1.0
  Ni  Ni1941  1  0.67206400  0.16801600  0.23871440  1.0
  Ni  Ni1942  1  0.67206400  0.50134933  0.23871440  1.0
  Ni  Ni1943  1  0.67206400  0.83468267  0.23871440  1.0
  Ni  Ni1944  1  0.16396800  0.00134933  0.23709520  1.0
  Ni  Ni1945  1  0.16396800  0.33468267  0.23709520  1.0
  Ni  Ni1946  1  0.16396800  0.66801600  0.23709520  1.0
  Ni  Ni1947  1  0.49730133  0.00134933  0.23709520  1.0
  Ni  Ni1948  1  0.49730133  0.33468267  0.23709520  1.0
  Ni  Ni1949  1  0.49730133  0.66801600  0.23709520  1.0
  Ni  Ni1950  1  0.83063467  0.00134933  0.23709520  1.0
  Ni  Ni1951  1  0.83063467  0.33468267  0.23709520  1.0
  Ni  Ni1952  1  0.83063467  0.66801600  0.23709520  1.0
  Ni  Ni1953  1  0.16396800  0.16801600  0.33709520  1.0
  Ni  Ni1954  1  0.16396800  0.50134933  0.33709520  1.0
  Ni  Ni1955  1  0.16396800  0.83468267  0.33709520  1.0
  Ni  Ni1956  1  0.49730133  0.16801600  0.33709520  1.0
  Ni  Ni1957  1  0.49730133  0.50134933  0.33709520  1.0
  Ni  Ni1958  1  0.49730133  0.83468267  0.33709520  1.0
  Ni  Ni1959  1  0.83063467  0.16801600  0.33709520  1.0
  Ni  Ni1960  1  0.83063467  0.50134933  0.33709520  1.0
  Ni  Ni1961  1  0.83063467  0.83468267  0.33709520  1.0
  Ni  Ni1962  1  0.00269867  0.12634933  0.26533360  1.0
  Ni  Ni1963  1  0.00269867  0.45968267  0.26533360  1.0
  Ni  Ni1964  1  0.00269867  0.79301600  0.26533360  1.0
  Ni  Ni1965  1  0.33603200  0.12634933  0.26533360  1.0
  Ni  Ni1966  1  0.33603200  0.45968267  0.26533360  1.0
  Ni  Ni1967  1  0.33603200  0.79301600  0.26533360  1.0
  Ni  Ni1968  1  0.66936533  0.12634933  0.26533360  1.0
  Ni  Ni1969  1  0.66936533  0.45968267  0.26533360  1.0
  Ni  Ni1970  1  0.66936533  0.79301600  0.26533360  1.0
  Ni  Ni1971  1  0.00269867  0.29301600  0.36533360  1.0
  Ni  Ni1972  1  0.00269867  0.62634933  0.36533360  1.0
  Ni  Ni1973  1  0.00269867  0.95968267  0.36533360  1.0
  Ni  Ni1974  1  0.33603200  0.29301600  0.36533360  1.0
  Ni  Ni1975  1  0.33603200  0.62634933  0.36533360  1.0
  Ni  Ni1976  1  0.33603200  0.95968267  0.36533360  1.0
  Ni  Ni1977  1  0.66936533  0.29301600  0.36533360  1.0
  Ni  Ni1978  1  0.66936533  0.62634933  0.36533360  1.0
  Ni  Ni1979  1  0.66936533  0.95968267  0.36533360  1.0
  Ni  Ni1980  1  0.08333333  0.12634933  0.21047600  1.0
  Ni  Ni1981  1  0.08333333  0.45968267  0.21047600  1.0
  Ni  Ni1982  1  0.08333333  0.79301600  0.21047600  1.0
  Ni  Ni1983  1  0.41666667  0.12634933  0.21047600  1.0
  Ni  Ni1984  1  0.41666667  0.45968267  0.21047600  1.0
  Ni  Ni1985  1  0.41666667  0.79301600  0.21047600  1.0
  Ni  Ni1986  1  0.75000000  0.12634933  0.21047600  1.0
  Ni  Ni1987  1  0.75000000  0.45968267  0.21047600  1.0
  Ni  Ni1988  1  0.75000000  0.79301600  0.21047600  1.0
  Ni  Ni1989  1  0.08333333  0.29301600  0.31047600  1.0
  Ni  Ni1990  1  0.08333333  0.62634933  0.31047600  1.0
  Ni  Ni1991  1  0.08333333  0.95968267  0.31047600  1.0
  Ni  Ni1992  1  0.41666667  0.29301600  0.31047600  1.0
  Ni  Ni1993  1  0.41666667  0.62634933  0.31047600  1.0
  Ni  Ni1994  1  0.41666667  0.95968267  0.31047600  1.0
  Ni  Ni1995  1  0.75000000  0.29301600  0.31047600  1.0
  Ni  Ni1996  1  0.75000000  0.62634933  0.31047600  1.0
  Ni  Ni1997  1  0.75000000  0.95968267  0.31047600  1.0
  Ni  Ni1998  1  0.25269867  0.00269867  0.38952400  1.0
  Ni  Ni1999  1  0.25269867  0.33603200  0.38952400  1.0
  Ni  Ni2000  1  0.25269867  0.66936533  0.38952400  1.0
  Ni  Ni2001  1  0.58603200  0.00269867  0.38952400  1.0
  Ni  Ni2002  1  0.58603200  0.33603200  0.38952400  1.0
  Ni  Ni2003  1  0.58603200  0.66936533  0.38952400  1.0
  Ni  Ni2004  1  0.91936533  0.00269867  0.38952400  1.0
  Ni  Ni2005  1  0.91936533  0.33603200  0.38952400  1.0
  Ni  Ni2006  1  0.91936533  0.66936533  0.38952400  1.0
  Ni  Ni2007  1  0.25269867  0.16936533  0.28952400  1.0
  Ni  Ni2008  1  0.25269867  0.50269867  0.28952400  1.0
  Ni  Ni2009  1  0.25269867  0.83603200  0.28952400  1.0
  Ni  Ni2010  1  0.58603200  0.16936533  0.28952400  1.0
  Ni  Ni2011  1  0.58603200  0.50269867  0.28952400  1.0
  Ni  Ni2012  1  0.58603200  0.83603200  0.28952400  1.0
  Ni  Ni2013  1  0.91936533  0.16936533  0.28952400  1.0
  Ni  Ni2014  1  0.91936533  0.50269867  0.28952400  1.0
  Ni  Ni2015  1  0.91936533  0.83603200  0.28952400  1.0
