# generated using pymatgen
data_Ga4Ni3
_symmetry_space_group_name_H-M   'P 1'
_cell_length_a   48.70402166
_cell_length_b   75.05793827
_cell_length_c   69.59166753
_cell_angle_alpha   97.61137852
_cell_angle_beta   35.26438968
_cell_angle_gamma   71.06817682
_symmetry_Int_Tables_number   1
_chemical_formula_structural   Ga4Ni3
_chemical_formula_sum   'Ga1728 Ni1296'
_cell_volume   95307.32129944
_cell_formula_units_Z   432
loop_
 _symmetry_equiv_pos_site_id
 _symmetry_equiv_pos_as_xyz
  1  'x, y, z'
loop_
 _atom_site_type_symbol
 _atom_site_label
 _atom_site_symmetry_multiplicity
 _atom_site_fract_x
 _atom_site_fract_y
 _atom_site_fract_z
 _atom_site_occupancy
  Ga  Ga0  1  0.33333333  0.16666667  0.13624171  1.0
  Ga  Ga1  1  0.33333333  0.50000000  0.13624171  1.0
  Ga  Ga2  1  0.33333333  0.83333333  0.13624171  1.0
  Ga  Ga3  1  0.66666667  0.16666667  0.13624171  1.0
  Ga  Ga4  1  0.66666667  0.50000000  0.13624171  1.0
  Ga  Ga5  1  0.66666667  0.83333333  0.13624171  1.0
  Ga  Ga6  1  1.00000000  0.16666667  0.13624171  1.0
  Ga  Ga7  1  1.00000000  0.50000000  0.13624171  1.0
  Ga  Ga8  1  1.00000000  0.83333333  0.13624171  1.0
  Ga  Ga9  1  0.16666667  0.00000000  0.06481314  1.0
  Ga  Ga10  1  0.16666667  0.33333333  0.06481314  1.0
  Ga  Ga11  1  0.16666667  0.66666667  0.06481314  1.0
  Ga  Ga12  1  0.50000000  0.00000000  0.06481314  1.0
  Ga  Ga13  1  0.50000000  0.33333333  0.06481314  1.0
  Ga  Ga14  1  0.50000000  0.66666667  0.06481314  1.0
  Ga  Ga15  1  0.83333333  0.00000000  0.06481314  1.0
  Ga  Ga16  1  0.83333333  0.33333333  0.06481314  1.0
  Ga  Ga17  1  0.83333333  0.66666667  0.06481314  1.0
  Ga  Ga18  1  0.33333333  0.16666667  0.06481314  1.0
  Ga  Ga19  1  0.33333333  0.50000000  0.06481314  1.0
  Ga  Ga20  1  0.33333333  0.83333333  0.06481314  1.0
  Ga  Ga21  1  0.66666667  0.16666667  0.06481314  1.0
  Ga  Ga22  1  0.66666667  0.50000000  0.06481314  1.0
  Ga  Ga23  1  0.66666667  0.83333333  0.06481314  1.0
  Ga  Ga24  1  0.00000000  0.16666667  0.06481314  1.0
  Ga  Ga25  1  0.00000000  0.50000000  0.06481314  1.0
  Ga  Ga26  1  0.00000000  0.83333333  0.06481314  1.0
  Ga  Ga27  1  0.16666667  0.33333333  0.13624171  1.0
  Ga  Ga28  1  0.16666667  0.66666667  0.13624171  1.0
  Ga  Ga29  1  0.16666667  0.00000000  0.13624171  1.0
  Ga  Ga30  1  0.50000000  0.33333333  0.13624171  1.0
  Ga  Ga31  1  0.50000000  0.66666667  0.13624171  1.0
  Ga  Ga32  1  0.50000000  0.00000000  0.13624171  1.0
  Ga  Ga33  1  0.83333333  0.33333333  0.13624171  1.0
  Ga  Ga34  1  0.83333333  0.66666667  0.13624171  1.0
  Ga  Ga35  1  0.83333333  0.00000000  0.13624171  1.0
  Ga  Ga36  1  0.08333333  0.25000000  0.02909886  1.0
  Ga  Ga37  1  0.08333333  0.58333333  0.02909886  1.0
  Ga  Ga38  1  0.08333333  0.91666667  0.02909886  1.0
  Ga  Ga39  1  0.41666667  0.25000000  0.02909886  1.0
  Ga  Ga40  1  0.41666667  0.58333333  0.02909886  1.0
  Ga  Ga41  1  0.41666667  0.91666667  0.02909886  1.0
  Ga  Ga42  1  0.75000000  0.25000000  0.02909886  1.0
  Ga  Ga43  1  0.75000000  0.58333333  0.02909886  1.0
  Ga  Ga44  1  0.75000000  0.91666667  0.02909886  1.0
  Ga  Ga45  1  0.25000000  0.08333333  0.10052743  1.0
  Ga  Ga46  1  0.25000000  0.41666667  0.10052743  1.0
  Ga  Ga47  1  0.25000000  0.75000000  0.10052743  1.0
  Ga  Ga48  1  0.58333333  0.08333333  0.10052743  1.0
  Ga  Ga49  1  0.58333333  0.41666667  0.10052743  1.0
  Ga  Ga50  1  0.58333333  0.75000000  0.10052743  1.0
  Ga  Ga51  1  0.91666667  0.08333333  0.10052743  1.0
  Ga  Ga52  1  0.91666667  0.41666667  0.10052743  1.0
  Ga  Ga53  1  0.91666667  0.75000000  0.10052743  1.0
  Ga  Ga54  1  0.16666667  0.16666667  0.06481314  1.0
  Ga  Ga55  1  0.16666667  0.50000000  0.06481314  1.0
  Ga  Ga56  1  0.16666667  0.83333333  0.06481314  1.0
  Ga  Ga57  1  0.50000000  0.16666667  0.06481314  1.0
  Ga  Ga58  1  0.50000000  0.50000000  0.06481314  1.0
  Ga  Ga59  1  0.50000000  0.83333333  0.06481314  1.0
  Ga  Ga60  1  0.83333333  0.16666667  0.06481314  1.0
  Ga  Ga61  1  0.83333333  0.50000000  0.06481314  1.0
  Ga  Ga62  1  0.83333333  0.83333333  0.06481314  1.0
  Ga  Ga63  1  0.00000000  0.00000000  0.13624171  1.0
  Ga  Ga64  1  0.00000000  0.33333333  0.13624171  1.0
  Ga  Ga65  1  0.00000000  0.66666667  0.13624171  1.0
  Ga  Ga66  1  0.33333333  0.00000000  0.13624171  1.0
  Ga  Ga67  1  0.33333333  0.33333333  0.13624171  1.0
  Ga  Ga68  1  0.33333333  0.66666667  0.13624171  1.0
  Ga  Ga69  1  0.66666667  0.00000000  0.13624171  1.0
  Ga  Ga70  1  0.66666667  0.33333333  0.13624171  1.0
  Ga  Ga71  1  0.66666667  0.66666667  0.13624171  1.0
  Ga  Ga72  1  0.08333333  0.25000000  0.10052743  1.0
  Ga  Ga73  1  0.08333333  0.58333333  0.10052743  1.0
  Ga  Ga74  1  0.08333333  0.91666667  0.10052743  1.0
  Ga  Ga75  1  0.41666667  0.25000000  0.10052743  1.0
  Ga  Ga76  1  0.41666667  0.58333333  0.10052743  1.0
  Ga  Ga77  1  0.41666667  0.91666667  0.10052743  1.0
  Ga  Ga78  1  0.75000000  0.25000000  0.10052743  1.0
  Ga  Ga79  1  0.75000000  0.58333333  0.10052743  1.0
  Ga  Ga80  1  0.75000000  0.91666667  0.10052743  1.0
  Ga  Ga81  1  0.25000000  0.08333333  0.02909886  1.0
  Ga  Ga82  1  0.25000000  0.41666667  0.02909886  1.0
  Ga  Ga83  1  0.25000000  0.75000000  0.02909886  1.0
  Ga  Ga84  1  0.58333333  0.08333333  0.02909886  1.0
  Ga  Ga85  1  0.58333333  0.41666667  0.02909886  1.0
  Ga  Ga86  1  0.58333333  0.75000000  0.02909886  1.0
  Ga  Ga87  1  0.91666667  0.08333333  0.02909886  1.0
  Ga  Ga88  1  0.91666667  0.41666667  0.02909886  1.0
  Ga  Ga89  1  0.91666667  0.75000000  0.02909886  1.0
  Ga  Ga90  1  0.25000000  0.25000000  0.10052743  1.0
  Ga  Ga91  1  0.25000000  0.58333333  0.10052743  1.0
  Ga  Ga92  1  0.25000000  0.91666667  0.10052743  1.0
  Ga  Ga93  1  0.58333333  0.25000000  0.10052743  1.0
  Ga  Ga94  1  0.58333333  0.58333333  0.10052743  1.0
  Ga  Ga95  1  0.58333333  0.91666667  0.10052743  1.0
  Ga  Ga96  1  0.91666667  0.25000000  0.10052743  1.0
  Ga  Ga97  1  0.91666667  0.58333333  0.10052743  1.0
  Ga  Ga98  1  0.91666667  0.91666667  0.10052743  1.0
  Ga  Ga99  1  0.08333333  0.08333333  0.02909886  1.0
  Ga  Ga100  1  0.08333333  0.41666667  0.02909886  1.0
  Ga  Ga101  1  0.08333333  0.75000000  0.02909886  1.0
  Ga  Ga102  1  0.41666667  0.08333333  0.02909886  1.0
  Ga  Ga103  1  0.41666667  0.41666667  0.02909886  1.0
  Ga  Ga104  1  0.41666667  0.75000000  0.02909886  1.0
  Ga  Ga105  1  0.75000000  0.08333333  0.02909886  1.0
  Ga  Ga106  1  0.75000000  0.41666667  0.02909886  1.0
  Ga  Ga107  1  0.75000000  0.75000000  0.02909886  1.0
  Ga  Ga108  1  0.16666667  0.16666667  0.13624171  1.0
  Ga  Ga109  1  0.16666667  0.50000000  0.13624171  1.0
  Ga  Ga110  1  0.16666667  0.83333333  0.13624171  1.0
  Ga  Ga111  1  0.50000000  0.16666667  0.13624171  1.0
  Ga  Ga112  1  0.50000000  0.50000000  0.13624171  1.0
  Ga  Ga113  1  0.50000000  0.83333333  0.13624171  1.0
  Ga  Ga114  1  0.83333333  0.16666667  0.13624171  1.0
  Ga  Ga115  1  0.83333333  0.50000000  0.13624171  1.0
  Ga  Ga116  1  0.83333333  0.83333333  0.13624171  1.0
  Ga  Ga117  1  0.33333333  0.00000000  0.06481314  1.0
  Ga  Ga118  1  0.33333333  0.33333333  0.06481314  1.0
  Ga  Ga119  1  0.33333333  0.66666667  0.06481314  1.0
  Ga  Ga120  1  0.66666667  0.00000000  0.06481314  1.0
  Ga  Ga121  1  0.66666667  0.33333333  0.06481314  1.0
  Ga  Ga122  1  0.66666667  0.66666667  0.06481314  1.0
  Ga  Ga123  1  0.00000000  0.00000000  0.06481314  1.0
  Ga  Ga124  1  0.00000000  0.33333333  0.06481314  1.0
  Ga  Ga125  1  0.00000000  0.66666667  0.06481314  1.0
  Ga  Ga126  1  0.25000000  0.25000000  0.02909886  1.0
  Ga  Ga127  1  0.25000000  0.58333333  0.02909886  1.0
  Ga  Ga128  1  0.25000000  0.91666667  0.02909886  1.0
  Ga  Ga129  1  0.58333333  0.25000000  0.02909886  1.0
  Ga  Ga130  1  0.58333333  0.58333333  0.02909886  1.0
  Ga  Ga131  1  0.58333333  0.91666667  0.02909886  1.0
  Ga  Ga132  1  0.91666667  0.25000000  0.02909886  1.0
  Ga  Ga133  1  0.91666667  0.58333333  0.02909886  1.0
  Ga  Ga134  1  0.91666667  0.91666667  0.02909886  1.0
  Ga  Ga135  1  0.08333333  0.08333333  0.10052743  1.0
  Ga  Ga136  1  0.08333333  0.41666667  0.10052743  1.0
  Ga  Ga137  1  0.08333333  0.75000000  0.10052743  1.0
  Ga  Ga138  1  0.41666667  0.08333333  0.10052743  1.0
  Ga  Ga139  1  0.41666667  0.41666667  0.10052743  1.0
  Ga  Ga140  1  0.41666667  0.75000000  0.10052743  1.0
  Ga  Ga141  1  0.75000000  0.08333333  0.10052743  1.0
  Ga  Ga142  1  0.75000000  0.41666667  0.10052743  1.0
  Ga  Ga143  1  0.75000000  0.75000000  0.10052743  1.0
  Ga  Ga144  1  0.07718158  0.16871725  0.06744961  1.0
  Ga  Ga145  1  0.07718158  0.50205058  0.06744961  1.0
  Ga  Ga146  1  0.07718158  0.83538392  0.06744961  1.0
  Ga  Ga147  1  0.41051492  0.16871725  0.06744961  1.0
  Ga  Ga148  1  0.41051492  0.50205058  0.06744961  1.0
  Ga  Ga149  1  0.41051492  0.83538392  0.06744961  1.0
  Ga  Ga150  1  0.74384825  0.16871725  0.06744961  1.0
  Ga  Ga151  1  0.74384825  0.50205058  0.06744961  1.0
  Ga  Ga152  1  0.74384825  0.83538392  0.06744961  1.0
  Ga  Ga153  1  0.24384825  0.00205058  0.13887818  1.0
  Ga  Ga154  1  0.24384825  0.33538392  0.13887818  1.0
  Ga  Ga155  1  0.24384825  0.66871725  0.13887818  1.0
  Ga  Ga156  1  0.57718158  0.00205058  0.13887818  1.0
  Ga  Ga157  1  0.57718158  0.33538392  0.13887818  1.0
  Ga  Ga158  1  0.57718158  0.66871725  0.13887818  1.0
  Ga  Ga159  1  0.91051492  0.00205058  0.13887818  1.0
  Ga  Ga160  1  0.91051492  0.33538392  0.13887818  1.0
  Ga  Ga161  1  0.91051492  0.66871725  0.13887818  1.0
  Ga  Ga162  1  0.08128275  0.16871725  0.13887818  1.0
  Ga  Ga163  1  0.08128275  0.50205058  0.13887818  1.0
  Ga  Ga164  1  0.08128275  0.83538392  0.13887818  1.0
  Ga  Ga165  1  0.41461608  0.16871725  0.13887818  1.0
  Ga  Ga166  1  0.41461608  0.50205058  0.13887818  1.0
  Ga  Ga167  1  0.41461608  0.83538392  0.13887818  1.0
  Ga  Ga168  1  0.74794942  0.16871725  0.13887818  1.0
  Ga  Ga169  1  0.74794942  0.50205058  0.13887818  1.0
  Ga  Ga170  1  0.74794942  0.83538392  0.13887818  1.0
  Ga  Ga171  1  0.24794942  0.00205058  0.06744961  1.0
  Ga  Ga172  1  0.24794942  0.33538392  0.06744961  1.0
  Ga  Ga173  1  0.24794942  0.66871725  0.06744961  1.0
  Ga  Ga174  1  0.58128275  0.00205058  0.06744961  1.0
  Ga  Ga175  1  0.58128275  0.33538392  0.06744961  1.0
  Ga  Ga176  1  0.58128275  0.66871725  0.06744961  1.0
  Ga  Ga177  1  0.91461608  0.00205058  0.06744961  1.0
  Ga  Ga178  1  0.91461608  0.33538392  0.06744961  1.0
  Ga  Ga179  1  0.91461608  0.66871725  0.06744961  1.0
  Ga  Ga180  1  0.16871725  0.24794942  0.09789096  1.0
  Ga  Ga181  1  0.16871725  0.58128275  0.09789096  1.0
  Ga  Ga182  1  0.16871725  0.91461608  0.09789096  1.0
  Ga  Ga183  1  0.50205058  0.24794942  0.09789096  1.0
  Ga  Ga184  1  0.50205058  0.58128275  0.09789096  1.0
  Ga  Ga185  1  0.50205058  0.91461608  0.09789096  1.0
  Ga  Ga186  1  0.83538392  0.24794942  0.09789096  1.0
  Ga  Ga187  1  0.83538392  0.58128275  0.09789096  1.0
  Ga  Ga188  1  0.83538392  0.91461608  0.09789096  1.0
  Ga  Ga189  1  0.00205058  0.08128275  0.02646239  1.0
  Ga  Ga190  1  0.00205058  0.41461608  0.02646239  1.0
  Ga  Ga191  1  0.00205058  0.74794942  0.02646239  1.0
  Ga  Ga192  1  0.33538392  0.08128275  0.02646239  1.0
  Ga  Ga193  1  0.33538392  0.41461608  0.02646239  1.0
  Ga  Ga194  1  0.33538392  0.74794942  0.02646239  1.0
  Ga  Ga195  1  0.66871725  0.08128275  0.02646239  1.0
  Ga  Ga196  1  0.66871725  0.41461608  0.02646239  1.0
  Ga  Ga197  1  0.66871725  0.74794942  0.02646239  1.0
  Ga  Ga198  1  0.03756550  0.20833333  0.12189986  1.0
  Ga  Ga199  1  0.03756550  0.54166667  0.12189986  1.0
  Ga  Ga200  1  0.03756550  0.87500000  0.12189986  1.0
  Ga  Ga201  1  0.37089883  0.20833333  0.12189986  1.0
  Ga  Ga202  1  0.37089883  0.54166667  0.12189986  1.0
  Ga  Ga203  1  0.37089883  0.87500000  0.12189986  1.0
  Ga  Ga204  1  0.70423217  0.20833333  0.12189986  1.0
  Ga  Ga205  1  0.70423217  0.54166667  0.12189986  1.0
  Ga  Ga206  1  0.70423217  0.87500000  0.12189986  1.0
  Ga  Ga207  1  0.20423217  0.04166667  0.05047129  1.0
  Ga  Ga208  1  0.20423217  0.37500000  0.05047129  1.0
  Ga  Ga209  1  0.20423217  0.70833333  0.05047129  1.0
  Ga  Ga210  1  0.53756550  0.04166667  0.05047129  1.0
  Ga  Ga211  1  0.53756550  0.37500000  0.05047129  1.0
  Ga  Ga212  1  0.53756550  0.70833333  0.05047129  1.0
  Ga  Ga213  1  0.87089883  0.04166667  0.05047129  1.0
  Ga  Ga214  1  0.87089883  0.37500000  0.05047129  1.0
  Ga  Ga215  1  0.87089883  0.70833333  0.05047129  1.0
  Ga  Ga216  1  0.29576783  0.29166667  0.07915500  1.0
  Ga  Ga217  1  0.29576783  0.62500000  0.07915500  1.0
  Ga  Ga218  1  0.29576783  0.95833333  0.07915500  1.0
  Ga  Ga219  1  0.62910117  0.29166667  0.07915500  1.0
  Ga  Ga220  1  0.62910117  0.62500000  0.07915500  1.0
  Ga  Ga221  1  0.62910117  0.95833333  0.07915500  1.0
  Ga  Ga222  1  0.96243450  0.29166667  0.07915500  1.0
  Ga  Ga223  1  0.96243450  0.62500000  0.07915500  1.0
  Ga  Ga224  1  0.96243450  0.95833333  0.07915500  1.0
  Ga  Ga225  1  0.12910117  0.12500000  0.00772643  1.0
  Ga  Ga226  1  0.12910117  0.45833333  0.00772643  1.0
  Ga  Ga227  1  0.12910117  0.79166667  0.00772643  1.0
  Ga  Ga228  1  0.46243450  0.12500000  0.00772643  1.0
  Ga  Ga229  1  0.46243450  0.45833333  0.00772643  1.0
  Ga  Ga230  1  0.46243450  0.79166667  0.00772643  1.0
  Ga  Ga231  1  0.79576783  0.12500000  0.00772643  1.0
  Ga  Ga232  1  0.79576783  0.45833333  0.00772643  1.0
  Ga  Ga233  1  0.79576783  0.79166667  0.00772643  1.0
  Ga  Ga234  1  0.11884825  0.21038392  0.12102104  1.0
  Ga  Ga235  1  0.11884825  0.54371725  0.12102104  1.0
  Ga  Ga236  1  0.11884825  0.87705058  0.12102104  1.0
  Ga  Ga237  1  0.45218158  0.21038392  0.12102104  1.0
  Ga  Ga238  1  0.45218158  0.54371725  0.12102104  1.0
  Ga  Ga239  1  0.45218158  0.87705058  0.12102104  1.0
  Ga  Ga240  1  0.78551492  0.21038392  0.12102104  1.0
  Ga  Ga241  1  0.78551492  0.54371725  0.12102104  1.0
  Ga  Ga242  1  0.78551492  0.87705058  0.12102104  1.0
  Ga  Ga243  1  0.28551492  0.04371725  0.04959246  1.0
  Ga  Ga244  1  0.28551492  0.37705058  0.04959246  1.0
  Ga  Ga245  1  0.28551492  0.71038392  0.04959246  1.0
  Ga  Ga246  1  0.61884825  0.04371725  0.04959246  1.0
  Ga  Ga247  1  0.61884825  0.37705058  0.04959246  1.0
  Ga  Ga248  1  0.61884825  0.71038392  0.04959246  1.0
  Ga  Ga249  1  0.95218158  0.04371725  0.04959246  1.0
  Ga  Ga250  1  0.95218158  0.37705058  0.04959246  1.0
  Ga  Ga251  1  0.95218158  0.71038392  0.04959246  1.0
  Ga  Ga252  1  0.03756550  0.29166667  0.01475700  1.0
  Ga  Ga253  1  0.03756550  0.62500000  0.01475700  1.0
  Ga  Ga254  1  0.03756550  0.95833333  0.01475700  1.0
  Ga  Ga255  1  0.37089883  0.29166667  0.01475700  1.0
  Ga  Ga256  1  0.37089883  0.62500000  0.01475700  1.0
  Ga  Ga257  1  0.37089883  0.95833333  0.01475700  1.0
  Ga  Ga258  1  0.70423217  0.29166667  0.01475700  1.0
  Ga  Ga259  1  0.70423217  0.62500000  0.01475700  1.0
  Ga  Ga260  1  0.70423217  0.95833333  0.01475700  1.0
  Ga  Ga261  1  0.20423217  0.12500000  0.08618557  1.0
  Ga  Ga262  1  0.20423217  0.45833333  0.08618557  1.0
  Ga  Ga263  1  0.20423217  0.79166667  0.08618557  1.0
  Ga  Ga264  1  0.53756550  0.12500000  0.08618557  1.0
  Ga  Ga265  1  0.53756550  0.45833333  0.08618557  1.0
  Ga  Ga266  1  0.53756550  0.79166667  0.08618557  1.0
  Ga  Ga267  1  0.87089883  0.12500000  0.08618557  1.0
  Ga  Ga268  1  0.87089883  0.45833333  0.08618557  1.0
  Ga  Ga269  1  0.87089883  0.79166667  0.08618557  1.0
  Ga  Ga270  1  0.04371725  0.20628275  0.04431954  1.0
  Ga  Ga271  1  0.04371725  0.53961608  0.04431954  1.0
  Ga  Ga272  1  0.04371725  0.87294942  0.04431954  1.0
  Ga  Ga273  1  0.37705058  0.20628275  0.04431954  1.0
  Ga  Ga274  1  0.37705058  0.53961608  0.04431954  1.0
  Ga  Ga275  1  0.37705058  0.87294942  0.04431954  1.0
  Ga  Ga276  1  0.71038392  0.20628275  0.04431954  1.0
  Ga  Ga277  1  0.71038392  0.53961608  0.04431954  1.0
  Ga  Ga278  1  0.71038392  0.87294942  0.04431954  1.0
  Ga  Ga279  1  0.21038392  0.03961608  0.11574811  1.0
  Ga  Ga280  1  0.21038392  0.37294942  0.11574811  1.0
  Ga  Ga281  1  0.21038392  0.70628275  0.11574811  1.0
  Ga  Ga282  1  0.54371725  0.03961608  0.11574811  1.0
  Ga  Ga283  1  0.54371725  0.37294942  0.11574811  1.0
  Ga  Ga284  1  0.54371725  0.70628275  0.11574811  1.0
  Ga  Ga285  1  0.87705058  0.03961608  0.11574811  1.0
  Ga  Ga286  1  0.87705058  0.37294942  0.11574811  1.0
  Ga  Ga287  1  0.87705058  0.70628275  0.11574811  1.0
  Ga  Ga288  1  0.29576783  0.20833333  0.04344071  1.0
  Ga  Ga289  1  0.29576783  0.54166667  0.04344071  1.0
  Ga  Ga290  1  0.29576783  0.87500000  0.04344071  1.0
  Ga  Ga291  1  0.62910117  0.20833333  0.04344071  1.0
  Ga  Ga292  1  0.62910117  0.54166667  0.04344071  1.0
  Ga  Ga293  1  0.62910117  0.87500000  0.04344071  1.0
  Ga  Ga294  1  0.96243450  0.20833333  0.04344071  1.0
  Ga  Ga295  1  0.96243450  0.54166667  0.04344071  1.0
  Ga  Ga296  1  0.96243450  0.87500000  0.04344071  1.0
  Ga  Ga297  1  0.12910117  0.04166667  0.11486929  1.0
  Ga  Ga298  1  0.12910117  0.37500000  0.11486929  1.0
  Ga  Ga299  1  0.12910117  0.70833333  0.11486929  1.0
  Ga  Ga300  1  0.46243450  0.04166667  0.11486929  1.0
  Ga  Ga301  1  0.46243450  0.37500000  0.11486929  1.0
  Ga  Ga302  1  0.46243450  0.70833333  0.11486929  1.0
  Ga  Ga303  1  0.79576783  0.04166667  0.11486929  1.0
  Ga  Ga304  1  0.79576783  0.37500000  0.11486929  1.0
  Ga  Ga305  1  0.79576783  0.70833333  0.11486929  1.0
  Ga  Ga306  1  0.20628275  0.21038392  0.04959246  1.0
  Ga  Ga307  1  0.20628275  0.54371725  0.04959246  1.0
  Ga  Ga308  1  0.20628275  0.87705058  0.04959246  1.0
  Ga  Ga309  1  0.53961608  0.21038392  0.04959246  1.0
  Ga  Ga310  1  0.53961608  0.54371725  0.04959246  1.0
  Ga  Ga311  1  0.53961608  0.87705058  0.04959246  1.0
  Ga  Ga312  1  0.87294942  0.21038392  0.04959246  1.0
  Ga  Ga313  1  0.87294942  0.54371725  0.04959246  1.0
  Ga  Ga314  1  0.87294942  0.87705058  0.04959246  1.0
  Ga  Ga315  1  0.03961608  0.04371725  0.12102104  1.0
  Ga  Ga316  1  0.03961608  0.37705058  0.12102104  1.0
  Ga  Ga317  1  0.03961608  0.71038392  0.12102104  1.0
  Ga  Ga318  1  0.37294942  0.04371725  0.12102104  1.0
  Ga  Ga319  1  0.37294942  0.37705058  0.12102104  1.0
  Ga  Ga320  1  0.37294942  0.71038392  0.12102104  1.0
  Ga  Ga321  1  0.70628275  0.04371725  0.12102104  1.0
  Ga  Ga322  1  0.70628275  0.37705058  0.12102104  1.0
  Ga  Ga323  1  0.70628275  0.71038392  0.12102104  1.0
  Ga  Ga324  1  0.00615175  0.24794942  0.02646239  1.0
  Ga  Ga325  1  0.00615175  0.58128275  0.02646239  1.0
  Ga  Ga326  1  0.00615175  0.91461608  0.02646239  1.0
  Ga  Ga327  1  0.33948508  0.24794942  0.02646239  1.0
  Ga  Ga328  1  0.33948508  0.58128275  0.02646239  1.0
  Ga  Ga329  1  0.33948508  0.91461608  0.02646239  1.0
  Ga  Ga330  1  0.67281842  0.24794942  0.02646239  1.0
  Ga  Ga331  1  0.67281842  0.58128275  0.02646239  1.0
  Ga  Ga332  1  0.67281842  0.91461608  0.02646239  1.0
  Ga  Ga333  1  0.17281842  0.08128275  0.09789096  1.0
  Ga  Ga334  1  0.17281842  0.41461608  0.09789096  1.0
  Ga  Ga335  1  0.17281842  0.74794942  0.09789096  1.0
  Ga  Ga336  1  0.50615175  0.08128275  0.09789096  1.0
  Ga  Ga337  1  0.50615175  0.41461608  0.09789096  1.0
  Ga  Ga338  1  0.50615175  0.74794942  0.09789096  1.0
  Ga  Ga339  1  0.83948508  0.08128275  0.09789096  1.0
  Ga  Ga340  1  0.83948508  0.41461608  0.09789096  1.0
  Ga  Ga341  1  0.83948508  0.74794942  0.09789096  1.0
  Ga  Ga342  1  0.29781842  0.20628275  0.11574811  1.0
  Ga  Ga343  1  0.29781842  0.53961608  0.11574811  1.0
  Ga  Ga344  1  0.29781842  0.87294942  0.11574811  1.0
  Ga  Ga345  1  0.63115175  0.20628275  0.11574811  1.0
  Ga  Ga346  1  0.63115175  0.53961608  0.11574811  1.0
  Ga  Ga347  1  0.63115175  0.87294942  0.11574811  1.0
  Ga  Ga348  1  0.96448508  0.20628275  0.11574811  1.0
  Ga  Ga349  1  0.96448508  0.53961608  0.11574811  1.0
  Ga  Ga350  1  0.96448508  0.87294942  0.11574811  1.0
  Ga  Ga351  1  0.13115175  0.03961608  0.04431954  1.0
  Ga  Ga352  1  0.13115175  0.37294942  0.04431954  1.0
  Ga  Ga353  1  0.13115175  0.70628275  0.04431954  1.0
  Ga  Ga354  1  0.46448508  0.03961608  0.04431954  1.0
  Ga  Ga355  1  0.46448508  0.37294942  0.04431954  1.0
  Ga  Ga356  1  0.46448508  0.70628275  0.04431954  1.0
  Ga  Ga357  1  0.79781842  0.03961608  0.04431954  1.0
  Ga  Ga358  1  0.79781842  0.37294942  0.04431954  1.0
  Ga  Ga359  1  0.79781842  0.70628275  0.04431954  1.0
  Ga  Ga360  1  0.08948508  0.33128275  0.13360525  1.0
  Ga  Ga361  1  0.08948508  0.66461608  0.13360525  1.0
  Ga  Ga362  1  0.08948508  0.99794942  0.13360525  1.0
  Ga  Ga363  1  0.42281842  0.33128275  0.13360525  1.0
  Ga  Ga364  1  0.42281842  0.66461608  0.13360525  1.0
  Ga  Ga365  1  0.42281842  0.99794942  0.13360525  1.0
  Ga  Ga366  1  0.75615175  0.33128275  0.13360525  1.0
  Ga  Ga367  1  0.75615175  0.66461608  0.13360525  1.0
  Ga  Ga368  1  0.75615175  0.99794942  0.13360525  1.0
  Ga  Ga369  1  0.25615175  0.16461608  0.06217668  1.0
  Ga  Ga370  1  0.25615175  0.49794942  0.06217668  1.0
  Ga  Ga371  1  0.25615175  0.83128275  0.06217668  1.0
  Ga  Ga372  1  0.58948508  0.16461608  0.06217668  1.0
  Ga  Ga373  1  0.58948508  0.49794942  0.06217668  1.0
  Ga  Ga374  1  0.58948508  0.83128275  0.06217668  1.0
  Ga  Ga375  1  0.92281842  0.16461608  0.06217668  1.0
  Ga  Ga376  1  0.92281842  0.49794942  0.06217668  1.0
  Ga  Ga377  1  0.92281842  0.83128275  0.06217668  1.0
  Ga  Ga378  1  0.08538392  0.33128275  0.06217668  1.0
  Ga  Ga379  1  0.08538392  0.66461608  0.06217668  1.0
  Ga  Ga380  1  0.08538392  0.99794942  0.06217668  1.0
  Ga  Ga381  1  0.41871725  0.33128275  0.06217668  1.0
  Ga  Ga382  1  0.41871725  0.66461608  0.06217668  1.0
  Ga  Ga383  1  0.41871725  0.99794942  0.06217668  1.0
  Ga  Ga384  1  0.75205058  0.33128275  0.06217668  1.0
  Ga  Ga385  1  0.75205058  0.66461608  0.06217668  1.0
  Ga  Ga386  1  0.75205058  0.99794942  0.06217668  1.0
  Ga  Ga387  1  0.25205058  0.16461608  0.13360525  1.0
  Ga  Ga388  1  0.25205058  0.49794942  0.13360525  1.0
  Ga  Ga389  1  0.25205058  0.83128275  0.13360525  1.0
  Ga  Ga390  1  0.58538392  0.16461608  0.13360525  1.0
  Ga  Ga391  1  0.58538392  0.49794942  0.13360525  1.0
  Ga  Ga392  1  0.58538392  0.83128275  0.13360525  1.0
  Ga  Ga393  1  0.91871725  0.16461608  0.13360525  1.0
  Ga  Ga394  1  0.91871725  0.49794942  0.13360525  1.0
  Ga  Ga395  1  0.91871725  0.83128275  0.13360525  1.0
  Ga  Ga396  1  0.33128275  0.25205058  0.10316389  1.0
  Ga  Ga397  1  0.33128275  0.58538392  0.10316389  1.0
  Ga  Ga398  1  0.33128275  0.91871725  0.10316389  1.0
  Ga  Ga399  1  0.66461608  0.25205058  0.10316389  1.0
  Ga  Ga400  1  0.66461608  0.58538392  0.10316389  1.0
  Ga  Ga401  1  0.66461608  0.91871725  0.10316389  1.0
  Ga  Ga402  1  0.99794942  0.25205058  0.10316389  1.0
  Ga  Ga403  1  0.99794942  0.58538392  0.10316389  1.0
  Ga  Ga404  1  0.99794942  0.91871725  0.10316389  1.0
  Ga  Ga405  1  0.16461608  0.08538392  0.03173532  1.0
  Ga  Ga406  1  0.16461608  0.41871725  0.03173532  1.0
  Ga  Ga407  1  0.16461608  0.75205058  0.03173532  1.0
  Ga  Ga408  1  0.49794942  0.08538392  0.03173532  1.0
  Ga  Ga409  1  0.49794942  0.41871725  0.03173532  1.0
  Ga  Ga410  1  0.49794942  0.75205058  0.03173532  1.0
  Ga  Ga411  1  0.83128275  0.08538392  0.03173532  1.0
  Ga  Ga412  1  0.83128275  0.41871725  0.03173532  1.0
  Ga  Ga413  1  0.83128275  0.75205058  0.03173532  1.0
  Ga  Ga414  1  0.12910117  0.29166667  0.07915500  1.0
  Ga  Ga415  1  0.12910117  0.62500000  0.07915500  1.0
  Ga  Ga416  1  0.12910117  0.95833333  0.07915500  1.0
  Ga  Ga417  1  0.46243450  0.29166667  0.07915500  1.0
  Ga  Ga418  1  0.46243450  0.62500000  0.07915500  1.0
  Ga  Ga419  1  0.46243450  0.95833333  0.07915500  1.0
  Ga  Ga420  1  0.79576783  0.29166667  0.07915500  1.0
  Ga  Ga421  1  0.79576783  0.62500000  0.07915500  1.0
  Ga  Ga422  1  0.79576783  0.95833333  0.07915500  1.0
  Ga  Ga423  1  0.29576783  0.12500000  0.00772643  1.0
  Ga  Ga424  1  0.29576783  0.45833333  0.00772643  1.0
  Ga  Ga425  1  0.29576783  0.79166667  0.00772643  1.0
  Ga  Ga426  1  0.62910117  0.12500000  0.00772643  1.0
  Ga  Ga427  1  0.62910117  0.45833333  0.00772643  1.0
  Ga  Ga428  1  0.62910117  0.79166667  0.00772643  1.0
  Ga  Ga429  1  0.96243450  0.12500000  0.00772643  1.0
  Ga  Ga430  1  0.96243450  0.45833333  0.00772643  1.0
  Ga  Ga431  1  0.96243450  0.79166667  0.00772643  1.0
  Ga  Ga432  1  0.20423217  0.20833333  0.12189986  1.0
  Ga  Ga433  1  0.20423217  0.54166667  0.12189986  1.0
  Ga  Ga434  1  0.20423217  0.87500000  0.12189986  1.0
  Ga  Ga435  1  0.53756550  0.20833333  0.12189986  1.0
  Ga  Ga436  1  0.53756550  0.54166667  0.12189986  1.0
  Ga  Ga437  1  0.53756550  0.87500000  0.12189986  1.0
  Ga  Ga438  1  0.87089883  0.20833333  0.12189986  1.0
  Ga  Ga439  1  0.87089883  0.54166667  0.12189986  1.0
  Ga  Ga440  1  0.87089883  0.87500000  0.12189986  1.0
  Ga  Ga441  1  0.03756550  0.04166667  0.05047129  1.0
  Ga  Ga442  1  0.03756550  0.37500000  0.05047129  1.0
  Ga  Ga443  1  0.03756550  0.70833333  0.05047129  1.0
  Ga  Ga444  1  0.37089883  0.04166667  0.05047129  1.0
  Ga  Ga445  1  0.37089883  0.37500000  0.05047129  1.0
  Ga  Ga446  1  0.37089883  0.70833333  0.05047129  1.0
  Ga  Ga447  1  0.70423217  0.04166667  0.05047129  1.0
  Ga  Ga448  1  0.70423217  0.37500000  0.05047129  1.0
  Ga  Ga449  1  0.70423217  0.70833333  0.05047129  1.0
  Ga  Ga450  1  0.04781842  0.28961608  0.08003382  1.0
  Ga  Ga451  1  0.04781842  0.62294942  0.08003382  1.0
  Ga  Ga452  1  0.04781842  0.95628275  0.08003382  1.0
  Ga  Ga453  1  0.38115175  0.28961608  0.08003382  1.0
  Ga  Ga454  1  0.38115175  0.62294942  0.08003382  1.0
  Ga  Ga455  1  0.38115175  0.95628275  0.08003382  1.0
  Ga  Ga456  1  0.71448508  0.28961608  0.08003382  1.0
  Ga  Ga457  1  0.71448508  0.62294942  0.08003382  1.0
  Ga  Ga458  1  0.71448508  0.95628275  0.08003382  1.0
  Ga  Ga459  1  0.21448508  0.12294942  0.00860525  1.0
  Ga  Ga460  1  0.21448508  0.45628275  0.00860525  1.0
  Ga  Ga461  1  0.21448508  0.78961608  0.00860525  1.0
  Ga  Ga462  1  0.54781842  0.12294942  0.00860525  1.0
  Ga  Ga463  1  0.54781842  0.45628275  0.00860525  1.0
  Ga  Ga464  1  0.54781842  0.78961608  0.00860525  1.0
  Ga  Ga465  1  0.88115175  0.12294942  0.00860525  1.0
  Ga  Ga466  1  0.88115175  0.45628275  0.00860525  1.0
  Ga  Ga467  1  0.88115175  0.78961608  0.00860525  1.0
  Ga  Ga468  1  0.12910117  0.20833333  0.04344071  1.0
  Ga  Ga469  1  0.12910117  0.54166667  0.04344071  1.0
  Ga  Ga470  1  0.12910117  0.87500000  0.04344071  1.0
  Ga  Ga471  1  0.46243450  0.20833333  0.04344071  1.0
  Ga  Ga472  1  0.46243450  0.54166667  0.04344071  1.0
  Ga  Ga473  1  0.46243450  0.87500000  0.04344071  1.0
  Ga  Ga474  1  0.79576783  0.20833333  0.04344071  1.0
  Ga  Ga475  1  0.79576783  0.54166667  0.04344071  1.0
  Ga  Ga476  1  0.79576783  0.87500000  0.04344071  1.0
  Ga  Ga477  1  0.29576783  0.04166667  0.11486929  1.0
  Ga  Ga478  1  0.29576783  0.37500000  0.11486929  1.0
  Ga  Ga479  1  0.29576783  0.70833333  0.11486929  1.0
  Ga  Ga480  1  0.62910117  0.04166667  0.11486929  1.0
  Ga  Ga481  1  0.62910117  0.37500000  0.11486929  1.0
  Ga  Ga482  1  0.62910117  0.70833333  0.11486929  1.0
  Ga  Ga483  1  0.96243450  0.04166667  0.11486929  1.0
  Ga  Ga484  1  0.96243450  0.37500000  0.11486929  1.0
  Ga  Ga485  1  0.96243450  0.70833333  0.11486929  1.0
  Ga  Ga486  1  0.12294942  0.29371725  0.01387818  1.0
  Ga  Ga487  1  0.12294942  0.62705058  0.01387818  1.0
  Ga  Ga488  1  0.12294942  0.96038392  0.01387818  1.0
  Ga  Ga489  1  0.45628275  0.29371725  0.01387818  1.0
  Ga  Ga490  1  0.45628275  0.62705058  0.01387818  1.0
  Ga  Ga491  1  0.45628275  0.96038392  0.01387818  1.0
  Ga  Ga492  1  0.78961608  0.29371725  0.01387818  1.0
  Ga  Ga493  1  0.78961608  0.62705058  0.01387818  1.0
  Ga  Ga494  1  0.78961608  0.96038392  0.01387818  1.0
  Ga  Ga495  1  0.28961608  0.12705058  0.08530675  1.0
  Ga  Ga496  1  0.28961608  0.46038392  0.08530675  1.0
  Ga  Ga497  1  0.28961608  0.79371725  0.08530675  1.0
  Ga  Ga498  1  0.62294942  0.12705058  0.08530675  1.0
  Ga  Ga499  1  0.62294942  0.46038392  0.08530675  1.0
  Ga  Ga500  1  0.62294942  0.79371725  0.08530675  1.0
  Ga  Ga501  1  0.95628275  0.12705058  0.08530675  1.0
  Ga  Ga502  1  0.95628275  0.46038392  0.08530675  1.0
  Ga  Ga503  1  0.95628275  0.79371725  0.08530675  1.0
  Ga  Ga504  1  0.20423217  0.29166667  0.01475700  1.0
  Ga  Ga505  1  0.20423217  0.62500000  0.01475700  1.0
  Ga  Ga506  1  0.20423217  0.95833333  0.01475700  1.0
  Ga  Ga507  1  0.53756550  0.29166667  0.01475700  1.0
  Ga  Ga508  1  0.53756550  0.62500000  0.01475700  1.0
  Ga  Ga509  1  0.53756550  0.95833333  0.01475700  1.0
  Ga  Ga510  1  0.87089883  0.29166667  0.01475700  1.0
  Ga  Ga511  1  0.87089883  0.62500000  0.01475700  1.0
  Ga  Ga512  1  0.87089883  0.95833333  0.01475700  1.0
  Ga  Ga513  1  0.03756550  0.12500000  0.08618557  1.0
  Ga  Ga514  1  0.03756550  0.45833333  0.08618557  1.0
  Ga  Ga515  1  0.03756550  0.79166667  0.08618557  1.0
  Ga  Ga516  1  0.37089883  0.12500000  0.08618557  1.0
  Ga  Ga517  1  0.37089883  0.45833333  0.08618557  1.0
  Ga  Ga518  1  0.37089883  0.79166667  0.08618557  1.0
  Ga  Ga519  1  0.70423217  0.12500000  0.08618557  1.0
  Ga  Ga520  1  0.70423217  0.45833333  0.08618557  1.0
  Ga  Ga521  1  0.70423217  0.79166667  0.08618557  1.0
  Ga  Ga522  1  0.29371725  0.28961608  0.00860525  1.0
  Ga  Ga523  1  0.29371725  0.62294942  0.00860525  1.0
  Ga  Ga524  1  0.29371725  0.95628275  0.00860525  1.0
  Ga  Ga525  1  0.62705058  0.28961608  0.00860525  1.0
  Ga  Ga526  1  0.62705058  0.62294942  0.00860525  1.0
  Ga  Ga527  1  0.62705058  0.95628275  0.00860525  1.0
  Ga  Ga528  1  0.96038392  0.28961608  0.00860525  1.0
  Ga  Ga529  1  0.96038392  0.62294942  0.00860525  1.0
  Ga  Ga530  1  0.96038392  0.95628275  0.00860525  1.0
  Ga  Ga531  1  0.12705058  0.12294942  0.08003382  1.0
  Ga  Ga532  1  0.12705058  0.45628275  0.08003382  1.0
  Ga  Ga533  1  0.12705058  0.78961608  0.08003382  1.0
  Ga  Ga534  1  0.46038392  0.12294942  0.08003382  1.0
  Ga  Ga535  1  0.46038392  0.45628275  0.08003382  1.0
  Ga  Ga536  1  0.46038392  0.78961608  0.08003382  1.0
  Ga  Ga537  1  0.79371725  0.12294942  0.08003382  1.0
  Ga  Ga538  1  0.79371725  0.45628275  0.08003382  1.0
  Ga  Ga539  1  0.79371725  0.78961608  0.08003382  1.0
  Ga  Ga540  1  0.16051492  0.25205058  0.03173532  1.0
  Ga  Ga541  1  0.16051492  0.58538392  0.03173532  1.0
  Ga  Ga542  1  0.16051492  0.91871725  0.03173532  1.0
  Ga  Ga543  1  0.49384825  0.25205058  0.03173532  1.0
  Ga  Ga544  1  0.49384825  0.58538392  0.03173532  1.0
  Ga  Ga545  1  0.49384825  0.91871725  0.03173532  1.0
  Ga  Ga546  1  0.82718158  0.25205058  0.03173532  1.0
  Ga  Ga547  1  0.82718158  0.58538392  0.03173532  1.0
  Ga  Ga548  1  0.82718158  0.91871725  0.03173532  1.0
  Ga  Ga549  1  0.32718158  0.08538392  0.10316389  1.0
  Ga  Ga550  1  0.32718158  0.41871725  0.10316389  1.0
  Ga  Ga551  1  0.32718158  0.75205058  0.10316389  1.0
  Ga  Ga552  1  0.66051492  0.08538392  0.10316389  1.0
  Ga  Ga553  1  0.66051492  0.41871725  0.10316389  1.0
  Ga  Ga554  1  0.66051492  0.75205058  0.10316389  1.0
  Ga  Ga555  1  0.99384825  0.08538392  0.10316389  1.0
  Ga  Ga556  1  0.99384825  0.41871725  0.10316389  1.0
  Ga  Ga557  1  0.99384825  0.75205058  0.10316389  1.0
  Ga  Ga558  1  0.20218158  0.29371725  0.08530675  1.0
  Ga  Ga559  1  0.20218158  0.62705058  0.08530675  1.0
  Ga  Ga560  1  0.20218158  0.96038392  0.08530675  1.0
  Ga  Ga561  1  0.53551492  0.29371725  0.08530675  1.0
  Ga  Ga562  1  0.53551492  0.62705058  0.08530675  1.0
  Ga  Ga563  1  0.53551492  0.96038392  0.08530675  1.0
  Ga  Ga564  1  0.86884825  0.29371725  0.08530675  1.0
  Ga  Ga565  1  0.86884825  0.62705058  0.08530675  1.0
  Ga  Ga566  1  0.86884825  0.96038392  0.08530675  1.0
  Ga  Ga567  1  0.03551492  0.12705058  0.01387818  1.0
  Ga  Ga568  1  0.03551492  0.46038392  0.01387818  1.0
  Ga  Ga569  1  0.03551492  0.79371725  0.01387818  1.0
  Ga  Ga570  1  0.36884825  0.12705058  0.01387818  1.0
  Ga  Ga571  1  0.36884825  0.46038392  0.01387818  1.0
  Ga  Ga572  1  0.36884825  0.79371725  0.01387818  1.0
  Ga  Ga573  1  0.70218158  0.12705058  0.01387818  1.0
  Ga  Ga574  1  0.70218158  0.46038392  0.01387818  1.0
  Ga  Ga575  1  0.70218158  0.79371725  0.01387818  1.0
  Ni  Ni576  1  0.17071467  0.24865067  0.13219371  1.0
  Ni  Ni577  1  0.17071467  0.58198400  0.13219371  1.0
  Ni  Ni578  1  0.17071467  0.91531733  0.13219371  1.0
  Ni  Ni579  1  0.50404800  0.24865067  0.13219371  1.0
  Ni  Ni580  1  0.50404800  0.58198400  0.13219371  1.0
  Ni  Ni581  1  0.50404800  0.91531733  0.13219371  1.0
  Ni  Ni582  1  0.83738133  0.24865067  0.13219371  1.0
  Ni  Ni583  1  0.83738133  0.58198400  0.13219371  1.0
  Ni  Ni584  1  0.83738133  0.91531733  0.13219371  1.0
  Ni  Ni585  1  0.00404800  0.08198400  0.06076514  1.0
  Ni  Ni586  1  0.00404800  0.41531733  0.06076514  1.0
  Ni  Ni587  1  0.00404800  0.74865067  0.06076514  1.0
  Ni  Ni588  1  0.33738133  0.08198400  0.06076514  1.0
  Ni  Ni589  1  0.33738133  0.41531733  0.06076514  1.0
  Ni  Ni590  1  0.33738133  0.74865067  0.06076514  1.0
  Ni  Ni591  1  0.67071467  0.08198400  0.06076514  1.0
  Ni  Ni592  1  0.67071467  0.41531733  0.06076514  1.0
  Ni  Ni593  1  0.67071467  0.74865067  0.06076514  1.0
  Ni  Ni594  1  0.29031733  0.29301600  0.11780629  1.0
  Ni  Ni595  1  0.29031733  0.62634933  0.11780629  1.0
  Ni  Ni596  1  0.29031733  0.95968267  0.11780629  1.0
  Ni  Ni597  1  0.62365067  0.29301600  0.11780629  1.0
  Ni  Ni598  1  0.62365067  0.62634933  0.11780629  1.0
  Ni  Ni599  1  0.62365067  0.95968267  0.11780629  1.0
  Ni  Ni600  1  0.95698400  0.29301600  0.11780629  1.0
  Ni  Ni601  1  0.95698400  0.62634933  0.11780629  1.0
  Ni  Ni602  1  0.95698400  0.95968267  0.11780629  1.0
  Ni  Ni603  1  0.12365067  0.12634933  0.04637771  1.0
  Ni  Ni604  1  0.12365067  0.45968267  0.04637771  1.0
  Ni  Ni605  1  0.12365067  0.79301600  0.04637771  1.0
  Ni  Ni606  1  0.45698400  0.12634933  0.04637771  1.0
  Ni  Ni607  1  0.45698400  0.45968267  0.04637771  1.0
  Ni  Ni608  1  0.45698400  0.79301600  0.04637771  1.0
  Ni  Ni609  1  0.79031733  0.12634933  0.04637771  1.0
  Ni  Ni610  1  0.79031733  0.45968267  0.04637771  1.0
  Ni  Ni611  1  0.79031733  0.79301600  0.04637771  1.0
  Ni  Ni612  1  0.21508000  0.29031733  0.11433657  1.0
  Ni  Ni613  1  0.21508000  0.62365067  0.11433657  1.0
  Ni  Ni614  1  0.21508000  0.95698400  0.11433657  1.0
  Ni  Ni615  1  0.54841333  0.29031733  0.11433657  1.0
  Ni  Ni616  1  0.54841333  0.62365067  0.11433657  1.0
  Ni  Ni617  1  0.54841333  0.95698400  0.11433657  1.0
  Ni  Ni618  1  0.88174667  0.29031733  0.11433657  1.0
  Ni  Ni619  1  0.88174667  0.62365067  0.11433657  1.0
  Ni  Ni620  1  0.88174667  0.95698400  0.11433657  1.0
  Ni  Ni621  1  0.04841333  0.12365067  0.04290800  1.0
  Ni  Ni622  1  0.04841333  0.45698400  0.04290800  1.0
  Ni  Ni623  1  0.04841333  0.79031733  0.04290800  1.0
  Ni  Ni624  1  0.38174667  0.12365067  0.04290800  1.0
  Ni  Ni625  1  0.38174667  0.45698400  0.04290800  1.0
  Ni  Ni626  1  0.38174667  0.79031733  0.04290800  1.0
  Ni  Ni627  1  0.71508000  0.12365067  0.04290800  1.0
  Ni  Ni628  1  0.71508000  0.45698400  0.04290800  1.0
  Ni  Ni629  1  0.71508000  0.79031733  0.04290800  1.0
  Ni  Ni630  1  0.12230133  0.20833333  0.01124171  1.0
  Ni  Ni631  1  0.12230133  0.54166667  0.01124171  1.0
  Ni  Ni632  1  0.12230133  0.87500000  0.01124171  1.0
  Ni  Ni633  1  0.45563467  0.20833333  0.01124171  1.0
  Ni  Ni634  1  0.45563467  0.54166667  0.01124171  1.0
  Ni  Ni635  1  0.45563467  0.87500000  0.01124171  1.0
  Ni  Ni636  1  0.78896800  0.20833333  0.01124171  1.0
  Ni  Ni637  1  0.78896800  0.54166667  0.01124171  1.0
  Ni  Ni638  1  0.78896800  0.87500000  0.01124171  1.0
  Ni  Ni639  1  0.28896800  0.04166667  0.08267029  1.0
  Ni  Ni640  1  0.28896800  0.37500000  0.08267029  1.0
  Ni  Ni641  1  0.28896800  0.70833333  0.08267029  1.0
  Ni  Ni642  1  0.62230133  0.04166667  0.08267029  1.0
  Ni  Ni643  1  0.62230133  0.37500000  0.08267029  1.0
  Ni  Ni644  1  0.62230133  0.70833333  0.08267029  1.0
  Ni  Ni645  1  0.95563467  0.04166667  0.08267029  1.0
  Ni  Ni646  1  0.95563467  0.37500000  0.08267029  1.0
  Ni  Ni647  1  0.95563467  0.70833333  0.08267029  1.0
  Ni  Ni648  1  0.25539733  0.24730133  0.13277200  1.0
  Ni  Ni649  1  0.25539733  0.58063467  0.13277200  1.0
  Ni  Ni650  1  0.25539733  0.91396800  0.13277200  1.0
  Ni  Ni651  1  0.58873067  0.24730133  0.13277200  1.0
  Ni  Ni652  1  0.58873067  0.58063467  0.13277200  1.0
  Ni  Ni653  1  0.58873067  0.91396800  0.13277200  1.0
  Ni  Ni654  1  0.92206400  0.24730133  0.13277200  1.0
  Ni  Ni655  1  0.92206400  0.58063467  0.13277200  1.0
  Ni  Ni656  1  0.92206400  0.91396800  0.13277200  1.0
  Ni  Ni657  1  0.08873067  0.08063467  0.06134343  1.0
  Ni  Ni658  1  0.08873067  0.41396800  0.06134343  1.0
  Ni  Ni659  1  0.08873067  0.74730133  0.06134343  1.0
  Ni  Ni660  1  0.42206400  0.08063467  0.06134343  1.0
  Ni  Ni661  1  0.42206400  0.41396800  0.06134343  1.0
  Ni  Ni662  1  0.42206400  0.74730133  0.06134343  1.0
  Ni  Ni663  1  0.75539733  0.08063467  0.06134343  1.0
  Ni  Ni664  1  0.75539733  0.41396800  0.06134343  1.0
  Ni  Ni665  1  0.75539733  0.74730133  0.06134343  1.0
  Ni  Ni666  1  0.12365067  0.29031733  0.11896286  1.0
  Ni  Ni667  1  0.12365067  0.62365067  0.11896286  1.0
  Ni  Ni668  1  0.12365067  0.95698400  0.11896286  1.0
  Ni  Ni669  1  0.45698400  0.29031733  0.11896286  1.0
  Ni  Ni670  1  0.45698400  0.62365067  0.11896286  1.0
  Ni  Ni671  1  0.45698400  0.95698400  0.11896286  1.0
  Ni  Ni672  1  0.79031733  0.29031733  0.11896286  1.0
  Ni  Ni673  1  0.79031733  0.62365067  0.11896286  1.0
  Ni  Ni674  1  0.79031733  0.95698400  0.11896286  1.0
  Ni  Ni675  1  0.29031733  0.12365067  0.04753429  1.0
  Ni  Ni676  1  0.29031733  0.45698400  0.04753429  1.0
  Ni  Ni677  1  0.29031733  0.79031733  0.04753429  1.0
  Ni  Ni678  1  0.62365067  0.12365067  0.04753429  1.0
  Ni  Ni679  1  0.62365067  0.45698400  0.04753429  1.0
  Ni  Ni680  1  0.62365067  0.79031733  0.04753429  1.0
  Ni  Ni681  1  0.95698400  0.12365067  0.04753429  1.0
  Ni  Ni682  1  0.95698400  0.45698400  0.04753429  1.0
  Ni  Ni683  1  0.95698400  0.79031733  0.04753429  1.0
  Ni  Ni684  1  0.00134933  0.16801600  0.02852057  1.0
  Ni  Ni685  1  0.00134933  0.50134933  0.02852057  1.0
  Ni  Ni686  1  0.00134933  0.83468267  0.02852057  1.0
  Ni  Ni687  1  0.33468267  0.16801600  0.02852057  1.0
  Ni  Ni688  1  0.33468267  0.50134933  0.02852057  1.0
  Ni  Ni689  1  0.33468267  0.83468267  0.02852057  1.0
  Ni  Ni690  1  0.66801600  0.16801600  0.02852057  1.0
  Ni  Ni691  1  0.66801600  0.50134933  0.02852057  1.0
  Ni  Ni692  1  0.66801600  0.83468267  0.02852057  1.0
  Ni  Ni693  1  0.16801600  0.00134933  0.09994914  1.0
  Ni  Ni694  1  0.16801600  0.33468267  0.09994914  1.0
  Ni  Ni695  1  0.16801600  0.66801600  0.09994914  1.0
  Ni  Ni696  1  0.50134933  0.00134933  0.09994914  1.0
  Ni  Ni697  1  0.50134933  0.33468267  0.09994914  1.0
  Ni  Ni698  1  0.50134933  0.66801600  0.09994914  1.0
  Ni  Ni699  1  0.83468267  0.00134933  0.09994914  1.0
  Ni  Ni700  1  0.83468267  0.33468267  0.09994914  1.0
  Ni  Ni701  1  0.83468267  0.66801600  0.09994914  1.0
  Ni  Ni702  1  0.24460267  0.16936533  0.03256857  1.0
  Ni  Ni703  1  0.24460267  0.50269867  0.03256857  1.0
  Ni  Ni704  1  0.24460267  0.83603200  0.03256857  1.0
  Ni  Ni705  1  0.57793600  0.16936533  0.03256857  1.0
  Ni  Ni706  1  0.57793600  0.50269867  0.03256857  1.0
  Ni  Ni707  1  0.57793600  0.83603200  0.03256857  1.0
  Ni  Ni708  1  0.91126933  0.16936533  0.03256857  1.0
  Ni  Ni709  1  0.91126933  0.50269867  0.03256857  1.0
  Ni  Ni710  1  0.91126933  0.83603200  0.03256857  1.0
  Ni  Ni711  1  0.07793600  0.00269867  0.10399714  1.0
  Ni  Ni712  1  0.07793600  0.33603200  0.10399714  1.0
  Ni  Ni713  1  0.07793600  0.66936533  0.10399714  1.0
  Ni  Ni714  1  0.41126933  0.00269867  0.10399714  1.0
  Ni  Ni715  1  0.41126933  0.33603200  0.10399714  1.0
  Ni  Ni716  1  0.41126933  0.66936533  0.10399714  1.0
  Ni  Ni717  1  0.74460267  0.00269867  0.10399714  1.0
  Ni  Ni718  1  0.74460267  0.33603200  0.10399714  1.0
  Ni  Ni719  1  0.74460267  0.66936533  0.10399714  1.0
  Ni  Ni720  1  0.00134933  0.24865067  0.13682000  1.0
  Ni  Ni721  1  0.00134933  0.58198400  0.13682000  1.0
  Ni  Ni722  1  0.00134933  0.91531733  0.13682000  1.0
  Ni  Ni723  1  0.33468267  0.24865067  0.13682000  1.0
  Ni  Ni724  1  0.33468267  0.58198400  0.13682000  1.0
  Ni  Ni725  1  0.33468267  0.91531733  0.13682000  1.0
  Ni  Ni726  1  0.66801600  0.24865067  0.13682000  1.0
  Ni  Ni727  1  0.66801600  0.58198400  0.13682000  1.0
  Ni  Ni728  1  0.66801600  0.91531733  0.13682000  1.0
  Ni  Ni729  1  0.16801600  0.08198400  0.06539143  1.0
  Ni  Ni730  1  0.16801600  0.41531733  0.06539143  1.0
  Ni  Ni731  1  0.16801600  0.74865067  0.06539143  1.0
  Ni  Ni732  1  0.50134933  0.08198400  0.06539143  1.0
  Ni  Ni733  1  0.50134933  0.41531733  0.06539143  1.0
  Ni  Ni734  1  0.50134933  0.74865067  0.06539143  1.0
  Ni  Ni735  1  0.83468267  0.08198400  0.06539143  1.0
  Ni  Ni736  1  0.83468267  0.41531733  0.06539143  1.0
  Ni  Ni737  1  0.83468267  0.74865067  0.06539143  1.0
  Ni  Ni738  1  0.15992000  0.16801600  0.03314686  1.0
  Ni  Ni739  1  0.15992000  0.50134933  0.03314686  1.0
  Ni  Ni740  1  0.15992000  0.83468267  0.03314686  1.0
  Ni  Ni741  1  0.49325333  0.16801600  0.03314686  1.0
  Ni  Ni742  1  0.49325333  0.50134933  0.03314686  1.0
  Ni  Ni743  1  0.49325333  0.83468267  0.03314686  1.0
  Ni  Ni744  1  0.82658667  0.16801600  0.03314686  1.0
  Ni  Ni745  1  0.82658667  0.50134933  0.03314686  1.0
  Ni  Ni746  1  0.82658667  0.83468267  0.03314686  1.0
  Ni  Ni747  1  0.32658667  0.00134933  0.10457543  1.0
  Ni  Ni748  1  0.32658667  0.33468267  0.10457543  1.0
  Ni  Ni749  1  0.32658667  0.66801600  0.10457543  1.0
  Ni  Ni750  1  0.65992000  0.00134933  0.10457543  1.0
  Ni  Ni751  1  0.65992000  0.33468267  0.10457543  1.0
  Ni  Ni752  1  0.65992000  0.66801600  0.10457543  1.0
  Ni  Ni753  1  0.99325333  0.00134933  0.10457543  1.0
  Ni  Ni754  1  0.99325333  0.33468267  0.10457543  1.0
  Ni  Ni755  1  0.99325333  0.66801600  0.10457543  1.0
  Ni  Ni756  1  0.21103200  0.20833333  0.01124171  1.0
  Ni  Ni757  1  0.21103200  0.54166667  0.01124171  1.0
  Ni  Ni758  1  0.21103200  0.87500000  0.01124171  1.0
  Ni  Ni759  1  0.54436533  0.20833333  0.01124171  1.0
  Ni  Ni760  1  0.54436533  0.54166667  0.01124171  1.0
  Ni  Ni761  1  0.54436533  0.87500000  0.01124171  1.0
  Ni  Ni762  1  0.87769867  0.20833333  0.01124171  1.0
  Ni  Ni763  1  0.87769867  0.54166667  0.01124171  1.0
  Ni  Ni764  1  0.87769867  0.87500000  0.01124171  1.0
  Ni  Ni765  1  0.04436533  0.04166667  0.08267029  1.0
  Ni  Ni766  1  0.04436533  0.37500000  0.08267029  1.0
  Ni  Ni767  1  0.04436533  0.70833333  0.08267029  1.0
  Ni  Ni768  1  0.37769867  0.04166667  0.08267029  1.0
  Ni  Ni769  1  0.37769867  0.37500000  0.08267029  1.0
  Ni  Ni770  1  0.37769867  0.70833333  0.08267029  1.0
  Ni  Ni771  1  0.71103200  0.04166667  0.08267029  1.0
  Ni  Ni772  1  0.71103200  0.37500000  0.08267029  1.0
  Ni  Ni773  1  0.71103200  0.70833333  0.08267029  1.0
  Ni  Ni774  1  0.03761867  0.29301600  0.12243257  1.0
  Ni  Ni775  1  0.03761867  0.62634933  0.12243257  1.0
  Ni  Ni776  1  0.03761867  0.95968267  0.12243257  1.0
  Ni  Ni777  1  0.37095200  0.29301600  0.12243257  1.0
  Ni  Ni778  1  0.37095200  0.62634933  0.12243257  1.0
  Ni  Ni779  1  0.37095200  0.95968267  0.12243257  1.0
  Ni  Ni780  1  0.70428533  0.29301600  0.12243257  1.0
  Ni  Ni781  1  0.70428533  0.62634933  0.12243257  1.0
  Ni  Ni782  1  0.70428533  0.95968267  0.12243257  1.0
  Ni  Ni783  1  0.20428533  0.12634933  0.05100400  1.0
  Ni  Ni784  1  0.20428533  0.45968267  0.05100400  1.0
  Ni  Ni785  1  0.20428533  0.79301600  0.05100400  1.0
  Ni  Ni786  1  0.53761867  0.12634933  0.05100400  1.0
  Ni  Ni787  1  0.53761867  0.45968267  0.05100400  1.0
  Ni  Ni788  1  0.53761867  0.79301600  0.05100400  1.0
  Ni  Ni789  1  0.87095200  0.12634933  0.05100400  1.0
  Ni  Ni790  1  0.87095200  0.45968267  0.05100400  1.0
  Ni  Ni791  1  0.87095200  0.79301600  0.05100400  1.0
  Ni  Ni792  1  0.32928533  0.25134933  0.06886114  1.0
  Ni  Ni793  1  0.32928533  0.58468267  0.06886114  1.0
  Ni  Ni794  1  0.32928533  0.91801600  0.06886114  1.0
  Ni  Ni795  1  0.66261867  0.25134933  0.06886114  1.0
  Ni  Ni796  1  0.66261867  0.58468267  0.06886114  1.0
  Ni  Ni797  1  0.66261867  0.91801600  0.06886114  1.0
  Ni  Ni798  1  0.99595200  0.25134933  0.06886114  1.0
  Ni  Ni799  1  0.99595200  0.58468267  0.06886114  1.0
  Ni  Ni800  1  0.99595200  0.91801600  0.06886114  1.0
  Ni  Ni801  1  0.16261867  0.08468267  0.14028971  1.0
  Ni  Ni802  1  0.16261867  0.41801600  0.14028971  1.0
  Ni  Ni803  1  0.16261867  0.75134933  0.14028971  1.0
  Ni  Ni804  1  0.49595200  0.08468267  0.14028971  1.0
  Ni  Ni805  1  0.49595200  0.41801600  0.14028971  1.0
  Ni  Ni806  1  0.49595200  0.75134933  0.14028971  1.0
  Ni  Ni807  1  0.82928533  0.08468267  0.14028971  1.0
  Ni  Ni808  1  0.82928533  0.41801600  0.14028971  1.0
  Ni  Ni809  1  0.82928533  0.75134933  0.14028971  1.0
  Ni  Ni810  1  0.20968267  0.20698400  0.08324857  1.0
  Ni  Ni811  1  0.20968267  0.54031733  0.08324857  1.0
  Ni  Ni812  1  0.20968267  0.87365067  0.08324857  1.0
  Ni  Ni813  1  0.54301600  0.20698400  0.08324857  1.0
  Ni  Ni814  1  0.54301600  0.54031733  0.08324857  1.0
  Ni  Ni815  1  0.54301600  0.87365067  0.08324857  1.0
  Ni  Ni816  1  0.87634933  0.20698400  0.08324857  1.0
  Ni  Ni817  1  0.87634933  0.54031733  0.08324857  1.0
  Ni  Ni818  1  0.87634933  0.87365067  0.08324857  1.0
  Ni  Ni819  1  0.04301600  0.04031733  0.01182000  1.0
  Ni  Ni820  1  0.04301600  0.37365067  0.01182000  1.0
  Ni  Ni821  1  0.04301600  0.70698400  0.01182000  1.0
  Ni  Ni822  1  0.37634933  0.04031733  0.01182000  1.0
  Ni  Ni823  1  0.37634933  0.37365067  0.01182000  1.0
  Ni  Ni824  1  0.37634933  0.70698400  0.01182000  1.0
  Ni  Ni825  1  0.70968267  0.04031733  0.01182000  1.0
  Ni  Ni826  1  0.70968267  0.37365067  0.01182000  1.0
  Ni  Ni827  1  0.70968267  0.70698400  0.01182000  1.0
  Ni  Ni828  1  0.28492000  0.20968267  0.08671829  1.0
  Ni  Ni829  1  0.28492000  0.54301600  0.08671829  1.0
  Ni  Ni830  1  0.28492000  0.87634933  0.08671829  1.0
  Ni  Ni831  1  0.61825333  0.20968267  0.08671829  1.0
  Ni  Ni832  1  0.61825333  0.54301600  0.08671829  1.0
  Ni  Ni833  1  0.61825333  0.87634933  0.08671829  1.0
  Ni  Ni834  1  0.95158667  0.20968267  0.08671829  1.0
  Ni  Ni835  1  0.95158667  0.54301600  0.08671829  1.0
  Ni  Ni836  1  0.95158667  0.87634933  0.08671829  1.0
  Ni  Ni837  1  0.11825333  0.04301600  0.01528971  1.0
  Ni  Ni838  1  0.11825333  0.37634933  0.01528971  1.0
  Ni  Ni839  1  0.11825333  0.70968267  0.01528971  1.0
  Ni  Ni840  1  0.45158667  0.04301600  0.01528971  1.0
  Ni  Ni841  1  0.45158667  0.37634933  0.01528971  1.0
  Ni  Ni842  1  0.45158667  0.70968267  0.01528971  1.0
  Ni  Ni843  1  0.78492000  0.04301600  0.01528971  1.0
  Ni  Ni844  1  0.78492000  0.37634933  0.01528971  1.0
  Ni  Ni845  1  0.78492000  0.70968267  0.01528971  1.0
  Ni  Ni846  1  0.04436533  0.29166667  0.04695600  1.0
  Ni  Ni847  1  0.04436533  0.62500000  0.04695600  1.0
  Ni  Ni848  1  0.04436533  0.95833333  0.04695600  1.0
  Ni  Ni849  1  0.37769867  0.29166667  0.04695600  1.0
  Ni  Ni850  1  0.37769867  0.62500000  0.04695600  1.0
  Ni  Ni851  1  0.37769867  0.95833333  0.04695600  1.0
  Ni  Ni852  1  0.71103200  0.29166667  0.04695600  1.0
  Ni  Ni853  1  0.71103200  0.62500000  0.04695600  1.0
  Ni  Ni854  1  0.71103200  0.95833333  0.04695600  1.0
  Ni  Ni855  1  0.21103200  0.12500000  0.11838457  1.0
  Ni  Ni856  1  0.21103200  0.45833333  0.11838457  1.0
  Ni  Ni857  1  0.21103200  0.79166667  0.11838457  1.0
  Ni  Ni858  1  0.54436533  0.12500000  0.11838457  1.0
  Ni  Ni859  1  0.54436533  0.45833333  0.11838457  1.0
  Ni  Ni860  1  0.54436533  0.79166667  0.11838457  1.0
  Ni  Ni861  1  0.87769867  0.12500000  0.11838457  1.0
  Ni  Ni862  1  0.87769867  0.45833333  0.11838457  1.0
  Ni  Ni863  1  0.87769867  0.79166667  0.11838457  1.0
  Ni  Ni864  1  0.24460267  0.25269867  0.06828286  1.0
  Ni  Ni865  1  0.24460267  0.58603200  0.06828286  1.0
  Ni  Ni866  1  0.24460267  0.91936533  0.06828286  1.0
  Ni  Ni867  1  0.57793600  0.25269867  0.06828286  1.0
  Ni  Ni868  1  0.57793600  0.58603200  0.06828286  1.0
  Ni  Ni869  1  0.57793600  0.91936533  0.06828286  1.0
  Ni  Ni870  1  0.91126933  0.25269867  0.06828286  1.0
  Ni  Ni871  1  0.91126933  0.58603200  0.06828286  1.0
  Ni  Ni872  1  0.91126933  0.91936533  0.06828286  1.0
  Ni  Ni873  1  0.07793600  0.08603200  0.13971143  1.0
  Ni  Ni874  1  0.07793600  0.41936533  0.13971143  1.0
  Ni  Ni875  1  0.07793600  0.75269867  0.13971143  1.0
  Ni  Ni876  1  0.41126933  0.08603200  0.13971143  1.0
  Ni  Ni877  1  0.41126933  0.41936533  0.13971143  1.0
  Ni  Ni878  1  0.41126933  0.75269867  0.13971143  1.0
  Ni  Ni879  1  0.74460267  0.08603200  0.13971143  1.0
  Ni  Ni880  1  0.74460267  0.41936533  0.13971143  1.0
  Ni  Ni881  1  0.74460267  0.75269867  0.13971143  1.0
  Ni  Ni882  1  0.04301600  0.20968267  0.08209200  1.0
  Ni  Ni883  1  0.04301600  0.54301600  0.08209200  1.0
  Ni  Ni884  1  0.04301600  0.87634933  0.08209200  1.0
  Ni  Ni885  1  0.37634933  0.20968267  0.08209200  1.0
  Ni  Ni886  1  0.37634933  0.54301600  0.08209200  1.0
  Ni  Ni887  1  0.37634933  0.87634933  0.08209200  1.0
  Ni  Ni888  1  0.70968267  0.20968267  0.08209200  1.0
  Ni  Ni889  1  0.70968267  0.54301600  0.08209200  1.0
  Ni  Ni890  1  0.70968267  0.87634933  0.08209200  1.0
  Ni  Ni891  1  0.20968267  0.04301600  0.01066343  1.0
  Ni  Ni892  1  0.20968267  0.37634933  0.01066343  1.0
  Ni  Ni893  1  0.20968267  0.70968267  0.01066343  1.0
  Ni  Ni894  1  0.54301600  0.04301600  0.01066343  1.0
  Ni  Ni895  1  0.54301600  0.37634933  0.01066343  1.0
  Ni  Ni896  1  0.54301600  0.70968267  0.01066343  1.0
  Ni  Ni897  1  0.87634933  0.04301600  0.01066343  1.0
  Ni  Ni898  1  0.87634933  0.37634933  0.01066343  1.0
  Ni  Ni899  1  0.87634933  0.70968267  0.01066343  1.0
  Ni  Ni900  1  0.16531733  0.33198400  0.02967714  1.0
  Ni  Ni901  1  0.16531733  0.66531733  0.02967714  1.0
  Ni  Ni902  1  0.16531733  0.99865067  0.02967714  1.0
  Ni  Ni903  1  0.49865067  0.33198400  0.02967714  1.0
  Ni  Ni904  1  0.49865067  0.66531733  0.02967714  1.0
  Ni  Ni905  1  0.49865067  0.99865067  0.02967714  1.0
  Ni  Ni906  1  0.83198400  0.33198400  0.02967714  1.0
  Ni  Ni907  1  0.83198400  0.66531733  0.02967714  1.0
  Ni  Ni908  1  0.83198400  0.99865067  0.02967714  1.0
  Ni  Ni909  1  0.33198400  0.16531733  0.10110571  1.0
  Ni  Ni910  1  0.33198400  0.49865067  0.10110571  1.0
  Ni  Ni911  1  0.33198400  0.83198400  0.10110571  1.0
  Ni  Ni912  1  0.66531733  0.16531733  0.10110571  1.0
  Ni  Ni913  1  0.66531733  0.49865067  0.10110571  1.0
  Ni  Ni914  1  0.66531733  0.83198400  0.10110571  1.0
  Ni  Ni915  1  0.99865067  0.16531733  0.10110571  1.0
  Ni  Ni916  1  0.99865067  0.49865067  0.10110571  1.0
  Ni  Ni917  1  0.99865067  0.83198400  0.10110571  1.0
  Ni  Ni918  1  0.25539733  0.33063467  0.02562914  1.0
  Ni  Ni919  1  0.25539733  0.66396800  0.02562914  1.0
  Ni  Ni920  1  0.25539733  0.99730133  0.02562914  1.0
  Ni  Ni921  1  0.58873067  0.33063467  0.02562914  1.0
  Ni  Ni922  1  0.58873067  0.66396800  0.02562914  1.0
  Ni  Ni923  1  0.58873067  0.99730133  0.02562914  1.0
  Ni  Ni924  1  0.92206400  0.33063467  0.02562914  1.0
  Ni  Ni925  1  0.92206400  0.66396800  0.02562914  1.0
  Ni  Ni926  1  0.92206400  0.99730133  0.02562914  1.0
  Ni  Ni927  1  0.08873067  0.16396800  0.09705771  1.0
  Ni  Ni928  1  0.08873067  0.49730133  0.09705771  1.0
  Ni  Ni929  1  0.08873067  0.83063467  0.09705771  1.0
  Ni  Ni930  1  0.42206400  0.16396800  0.09705771  1.0
  Ni  Ni931  1  0.42206400  0.49730133  0.09705771  1.0
  Ni  Ni932  1  0.42206400  0.83063467  0.09705771  1.0
  Ni  Ni933  1  0.75539733  0.16396800  0.09705771  1.0
  Ni  Ni934  1  0.75539733  0.49730133  0.09705771  1.0
  Ni  Ni935  1  0.75539733  0.83063467  0.09705771  1.0
  Ni  Ni936  1  0.16531733  0.25134933  0.06423486  1.0
  Ni  Ni937  1  0.16531733  0.58468267  0.06423486  1.0
  Ni  Ni938  1  0.16531733  0.91801600  0.06423486  1.0
  Ni  Ni939  1  0.49865067  0.25134933  0.06423486  1.0
  Ni  Ni940  1  0.49865067  0.58468267  0.06423486  1.0
  Ni  Ni941  1  0.49865067  0.91801600  0.06423486  1.0
  Ni  Ni942  1  0.83198400  0.25134933  0.06423486  1.0
  Ni  Ni943  1  0.83198400  0.58468267  0.06423486  1.0
  Ni  Ni944  1  0.83198400  0.91801600  0.06423486  1.0
  Ni  Ni945  1  0.33198400  0.08468267  0.13566343  1.0
  Ni  Ni946  1  0.33198400  0.41801600  0.13566343  1.0
  Ni  Ni947  1  0.33198400  0.75134933  0.13566343  1.0
  Ni  Ni948  1  0.66531733  0.08468267  0.13566343  1.0
  Ni  Ni949  1  0.66531733  0.41801600  0.13566343  1.0
  Ni  Ni950  1  0.66531733  0.75134933  0.13566343  1.0
  Ni  Ni951  1  0.99865067  0.08468267  0.13566343  1.0
  Ni  Ni952  1  0.99865067  0.41801600  0.13566343  1.0
  Ni  Ni953  1  0.99865067  0.75134933  0.13566343  1.0
  Ni  Ni954  1  0.00674667  0.33198400  0.02505086  1.0
  Ni  Ni955  1  0.00674667  0.66531733  0.02505086  1.0
  Ni  Ni956  1  0.00674667  0.99865067  0.02505086  1.0
  Ni  Ni957  1  0.34008000  0.33198400  0.02505086  1.0
  Ni  Ni958  1  0.34008000  0.66531733  0.02505086  1.0
  Ni  Ni959  1  0.34008000  0.99865067  0.02505086  1.0
  Ni  Ni960  1  0.67341333  0.33198400  0.02505086  1.0
  Ni  Ni961  1  0.67341333  0.66531733  0.02505086  1.0
  Ni  Ni962  1  0.67341333  0.99865067  0.02505086  1.0
  Ni  Ni963  1  0.17341333  0.16531733  0.09647943  1.0
  Ni  Ni964  1  0.17341333  0.49865067  0.09647943  1.0
  Ni  Ni965  1  0.17341333  0.83198400  0.09647943  1.0
  Ni  Ni966  1  0.50674667  0.16531733  0.09647943  1.0
  Ni  Ni967  1  0.50674667  0.49865067  0.09647943  1.0
  Ni  Ni968  1  0.50674667  0.83198400  0.09647943  1.0
  Ni  Ni969  1  0.84008000  0.16531733  0.09647943  1.0
  Ni  Ni970  1  0.84008000  0.49865067  0.09647943  1.0
  Ni  Ni971  1  0.84008000  0.83198400  0.09647943  1.0
  Ni  Ni972  1  0.28896800  0.29166667  0.04695600  1.0
  Ni  Ni973  1  0.28896800  0.62500000  0.04695600  1.0
  Ni  Ni974  1  0.28896800  0.95833333  0.04695600  1.0
  Ni  Ni975  1  0.62230133  0.29166667  0.04695600  1.0
  Ni  Ni976  1  0.62230133  0.62500000  0.04695600  1.0
  Ni  Ni977  1  0.62230133  0.95833333  0.04695600  1.0
  Ni  Ni978  1  0.95563467  0.29166667  0.04695600  1.0
  Ni  Ni979  1  0.95563467  0.62500000  0.04695600  1.0
  Ni  Ni980  1  0.95563467  0.95833333  0.04695600  1.0
  Ni  Ni981  1  0.12230133  0.12500000  0.11838457  1.0
  Ni  Ni982  1  0.12230133  0.45833333  0.11838457  1.0
  Ni  Ni983  1  0.12230133  0.79166667  0.11838457  1.0
  Ni  Ni984  1  0.45563467  0.12500000  0.11838457  1.0
  Ni  Ni985  1  0.45563467  0.45833333  0.11838457  1.0
  Ni  Ni986  1  0.45563467  0.79166667  0.11838457  1.0
  Ni  Ni987  1  0.78896800  0.12500000  0.11838457  1.0
  Ni  Ni988  1  0.78896800  0.45833333  0.11838457  1.0
  Ni  Ni989  1  0.78896800  0.79166667  0.11838457  1.0
  Ni  Ni990  1  0.12904800  0.20698400  0.07862229  1.0
  Ni  Ni991  1  0.12904800  0.54031733  0.07862229  1.0
  Ni  Ni992  1  0.12904800  0.87365067  0.07862229  1.0
  Ni  Ni993  1  0.46238133  0.20698400  0.07862229  1.0
  Ni  Ni994  1  0.46238133  0.54031733  0.07862229  1.0
  Ni  Ni995  1  0.46238133  0.87365067  0.07862229  1.0
  Ni  Ni996  1  0.79571467  0.20698400  0.07862229  1.0
  Ni  Ni997  1  0.79571467  0.54031733  0.07862229  1.0
  Ni  Ni998  1  0.79571467  0.87365067  0.07862229  1.0
  Ni  Ni999  1  0.29571467  0.04031733  0.00719371  1.0
  Ni  Ni1000  1  0.29571467  0.37365067  0.00719371  1.0
  Ni  Ni1001  1  0.29571467  0.70698400  0.00719371  1.0
  Ni  Ni1002  1  0.62904800  0.04031733  0.00719371  1.0
  Ni  Ni1003  1  0.62904800  0.37365067  0.00719371  1.0
  Ni  Ni1004  1  0.62904800  0.70698400  0.00719371  1.0
  Ni  Ni1005  1  0.96238133  0.04031733  0.00719371  1.0
  Ni  Ni1006  1  0.96238133  0.37365067  0.00719371  1.0
  Ni  Ni1007  1  0.96238133  0.70698400  0.00719371  1.0
  Ga  Ga1008  1  0.33333333  0.16666667  0.27909886  1.0
  Ga  Ga1009  1  0.33333333  0.50000000  0.27909886  1.0
  Ga  Ga1010  1  0.33333333  0.83333333  0.27909886  1.0
  Ga  Ga1011  1  0.66666667  0.16666667  0.27909886  1.0
  Ga  Ga1012  1  0.66666667  0.50000000  0.27909886  1.0
  Ga  Ga1013  1  0.66666667  0.83333333  0.27909886  1.0
  Ga  Ga1014  1  1.00000000  0.16666667  0.27909886  1.0
  Ga  Ga1015  1  1.00000000  0.50000000  0.27909886  1.0
  Ga  Ga1016  1  1.00000000  0.83333333  0.27909886  1.0
  Ga  Ga1017  1  0.16666667  0.00000000  0.20767029  1.0
  Ga  Ga1018  1  0.16666667  0.33333333  0.20767029  1.0
  Ga  Ga1019  1  0.16666667  0.66666667  0.20767029  1.0
  Ga  Ga1020  1  0.50000000  0.00000000  0.20767029  1.0
  Ga  Ga1021  1  0.50000000  0.33333333  0.20767029  1.0
  Ga  Ga1022  1  0.50000000  0.66666667  0.20767029  1.0
  Ga  Ga1023  1  0.83333333  0.00000000  0.20767029  1.0
  Ga  Ga1024  1  0.83333333  0.33333333  0.20767029  1.0
  Ga  Ga1025  1  0.83333333  0.66666667  0.20767029  1.0
  Ga  Ga1026  1  0.33333333  0.16666667  0.20767029  1.0
  Ga  Ga1027  1  0.33333333  0.50000000  0.20767029  1.0
  Ga  Ga1028  1  0.33333333  0.83333333  0.20767029  1.0
  Ga  Ga1029  1  0.66666667  0.16666667  0.20767029  1.0
  Ga  Ga1030  1  0.66666667  0.50000000  0.20767029  1.0
  Ga  Ga1031  1  0.66666667  0.83333333  0.20767029  1.0
  Ga  Ga1032  1  0.00000000  0.16666667  0.20767029  1.0
  Ga  Ga1033  1  0.00000000  0.50000000  0.20767029  1.0
  Ga  Ga1034  1  0.00000000  0.83333333  0.20767029  1.0
  Ga  Ga1035  1  0.16666667  0.33333333  0.27909886  1.0
  Ga  Ga1036  1  0.16666667  0.66666667  0.27909886  1.0
  Ga  Ga1037  1  0.16666667  0.00000000  0.27909886  1.0
  Ga  Ga1038  1  0.50000000  0.33333333  0.27909886  1.0
  Ga  Ga1039  1  0.50000000  0.66666667  0.27909886  1.0
  Ga  Ga1040  1  0.50000000  0.00000000  0.27909886  1.0
  Ga  Ga1041  1  0.83333333  0.33333333  0.27909886  1.0
  Ga  Ga1042  1  0.83333333  0.66666667  0.27909886  1.0
  Ga  Ga1043  1  0.83333333  0.00000000  0.27909886  1.0
  Ga  Ga1044  1  0.08333333  0.25000000  0.17195600  1.0
  Ga  Ga1045  1  0.08333333  0.58333333  0.17195600  1.0
  Ga  Ga1046  1  0.08333333  0.91666667  0.17195600  1.0
  Ga  Ga1047  1  0.41666667  0.25000000  0.17195600  1.0
  Ga  Ga1048  1  0.41666667  0.58333333  0.17195600  1.0
  Ga  Ga1049  1  0.41666667  0.91666667  0.17195600  1.0
  Ga  Ga1050  1  0.75000000  0.25000000  0.17195600  1.0
  Ga  Ga1051  1  0.75000000  0.58333333  0.17195600  1.0
  Ga  Ga1052  1  0.75000000  0.91666667  0.17195600  1.0
  Ga  Ga1053  1  0.25000000  0.08333333  0.24338457  1.0
  Ga  Ga1054  1  0.25000000  0.41666667  0.24338457  1.0
  Ga  Ga1055  1  0.25000000  0.75000000  0.24338457  1.0
  Ga  Ga1056  1  0.58333333  0.08333333  0.24338457  1.0
  Ga  Ga1057  1  0.58333333  0.41666667  0.24338457  1.0
  Ga  Ga1058  1  0.58333333  0.75000000  0.24338457  1.0
  Ga  Ga1059  1  0.91666667  0.08333333  0.24338457  1.0
  Ga  Ga1060  1  0.91666667  0.41666667  0.24338457  1.0
  Ga  Ga1061  1  0.91666667  0.75000000  0.24338457  1.0
  Ga  Ga1062  1  0.16666667  0.16666667  0.20767029  1.0
  Ga  Ga1063  1  0.16666667  0.50000000  0.20767029  1.0
  Ga  Ga1064  1  0.16666667  0.83333333  0.20767029  1.0
  Ga  Ga1065  1  0.50000000  0.16666667  0.20767029  1.0
  Ga  Ga1066  1  0.50000000  0.50000000  0.20767029  1.0
  Ga  Ga1067  1  0.50000000  0.83333333  0.20767029  1.0
  Ga  Ga1068  1  0.83333333  0.16666667  0.20767029  1.0
  Ga  Ga1069  1  0.83333333  0.50000000  0.20767029  1.0
  Ga  Ga1070  1  0.83333333  0.83333333  0.20767029  1.0
  Ga  Ga1071  1  0.00000000  0.00000000  0.27909886  1.0
  Ga  Ga1072  1  0.00000000  0.33333333  0.27909886  1.0
  Ga  Ga1073  1  0.00000000  0.66666667  0.27909886  1.0
  Ga  Ga1074  1  0.33333333  0.00000000  0.27909886  1.0
  Ga  Ga1075  1  0.33333333  0.33333333  0.27909886  1.0
  Ga  Ga1076  1  0.33333333  0.66666667  0.27909886  1.0
  Ga  Ga1077  1  0.66666667  0.00000000  0.27909886  1.0
  Ga  Ga1078  1  0.66666667  0.33333333  0.27909886  1.0
  Ga  Ga1079  1  0.66666667  0.66666667  0.27909886  1.0
  Ga  Ga1080  1  0.08333333  0.25000000  0.24338457  1.0
  Ga  Ga1081  1  0.08333333  0.58333333  0.24338457  1.0
  Ga  Ga1082  1  0.08333333  0.91666667  0.24338457  1.0
  Ga  Ga1083  1  0.41666667  0.25000000  0.24338457  1.0
  Ga  Ga1084  1  0.41666667  0.58333333  0.24338457  1.0
  Ga  Ga1085  1  0.41666667  0.91666667  0.24338457  1.0
  Ga  Ga1086  1  0.75000000  0.25000000  0.24338457  1.0
  Ga  Ga1087  1  0.75000000  0.58333333  0.24338457  1.0
  Ga  Ga1088  1  0.75000000  0.91666667  0.24338457  1.0
  Ga  Ga1089  1  0.25000000  0.08333333  0.17195600  1.0
  Ga  Ga1090  1  0.25000000  0.41666667  0.17195600  1.0
  Ga  Ga1091  1  0.25000000  0.75000000  0.17195600  1.0
  Ga  Ga1092  1  0.58333333  0.08333333  0.17195600  1.0
  Ga  Ga1093  1  0.58333333  0.41666667  0.17195600  1.0
  Ga  Ga1094  1  0.58333333  0.75000000  0.17195600  1.0
  Ga  Ga1095  1  0.91666667  0.08333333  0.17195600  1.0
  Ga  Ga1096  1  0.91666667  0.41666667  0.17195600  1.0
  Ga  Ga1097  1  0.91666667  0.75000000  0.17195600  1.0
  Ga  Ga1098  1  0.25000000  0.25000000  0.24338457  1.0
  Ga  Ga1099  1  0.25000000  0.58333333  0.24338457  1.0
  Ga  Ga1100  1  0.25000000  0.91666667  0.24338457  1.0
  Ga  Ga1101  1  0.58333333  0.25000000  0.24338457  1.0
  Ga  Ga1102  1  0.58333333  0.58333333  0.24338457  1.0
  Ga  Ga1103  1  0.58333333  0.91666667  0.24338457  1.0
  Ga  Ga1104  1  0.91666667  0.25000000  0.24338457  1.0
  Ga  Ga1105  1  0.91666667  0.58333333  0.24338457  1.0
  Ga  Ga1106  1  0.91666667  0.91666667  0.24338457  1.0
  Ga  Ga1107  1  0.08333333  0.08333333  0.17195600  1.0
  Ga  Ga1108  1  0.08333333  0.41666667  0.17195600  1.0
  Ga  Ga1109  1  0.08333333  0.75000000  0.17195600  1.0
  Ga  Ga1110  1  0.41666667  0.08333333  0.17195600  1.0
  Ga  Ga1111  1  0.41666667  0.41666667  0.17195600  1.0
  Ga  Ga1112  1  0.41666667  0.75000000  0.17195600  1.0
  Ga  Ga1113  1  0.75000000  0.08333333  0.17195600  1.0
  Ga  Ga1114  1  0.75000000  0.41666667  0.17195600  1.0
  Ga  Ga1115  1  0.75000000  0.75000000  0.17195600  1.0
  Ga  Ga1116  1  0.16666667  0.16666667  0.27909886  1.0
  Ga  Ga1117  1  0.16666667  0.50000000  0.27909886  1.0
  Ga  Ga1118  1  0.16666667  0.83333333  0.27909886  1.0
  Ga  Ga1119  1  0.50000000  0.16666667  0.27909886  1.0
  Ga  Ga1120  1  0.50000000  0.50000000  0.27909886  1.0
  Ga  Ga1121  1  0.50000000  0.83333333  0.27909886  1.0
  Ga  Ga1122  1  0.83333333  0.16666667  0.27909886  1.0
  Ga  Ga1123  1  0.83333333  0.50000000  0.27909886  1.0
  Ga  Ga1124  1  0.83333333  0.83333333  0.27909886  1.0
  Ga  Ga1125  1  0.33333333  0.00000000  0.20767029  1.0
  Ga  Ga1126  1  0.33333333  0.33333333  0.20767029  1.0
  Ga  Ga1127  1  0.33333333  0.66666667  0.20767029  1.0
  Ga  Ga1128  1  0.66666667  0.00000000  0.20767029  1.0
  Ga  Ga1129  1  0.66666667  0.33333333  0.20767029  1.0
  Ga  Ga1130  1  0.66666667  0.66666667  0.20767029  1.0
  Ga  Ga1131  1  0.00000000  0.00000000  0.20767029  1.0
  Ga  Ga1132  1  0.00000000  0.33333333  0.20767029  1.0
  Ga  Ga1133  1  0.00000000  0.66666667  0.20767029  1.0
  Ga  Ga1134  1  0.25000000  0.25000000  0.17195600  1.0
  Ga  Ga1135  1  0.25000000  0.58333333  0.17195600  1.0
  Ga  Ga1136  1  0.25000000  0.91666667  0.17195600  1.0
  Ga  Ga1137  1  0.58333333  0.25000000  0.17195600  1.0
  Ga  Ga1138  1  0.58333333  0.58333333  0.17195600  1.0
  Ga  Ga1139  1  0.58333333  0.91666667  0.17195600  1.0
  Ga  Ga1140  1  0.91666667  0.25000000  0.17195600  1.0
  Ga  Ga1141  1  0.91666667  0.58333333  0.17195600  1.0
  Ga  Ga1142  1  0.91666667  0.91666667  0.17195600  1.0
  Ga  Ga1143  1  0.08333333  0.08333333  0.24338457  1.0
  Ga  Ga1144  1  0.08333333  0.41666667  0.24338457  1.0
  Ga  Ga1145  1  0.08333333  0.75000000  0.24338457  1.0
  Ga  Ga1146  1  0.41666667  0.08333333  0.24338457  1.0
  Ga  Ga1147  1  0.41666667  0.41666667  0.24338457  1.0
  Ga  Ga1148  1  0.41666667  0.75000000  0.24338457  1.0
  Ga  Ga1149  1  0.75000000  0.08333333  0.24338457  1.0
  Ga  Ga1150  1  0.75000000  0.41666667  0.24338457  1.0
  Ga  Ga1151  1  0.75000000  0.75000000  0.24338457  1.0
  Ga  Ga1152  1  0.07718158  0.16871725  0.21030675  1.0
  Ga  Ga1153  1  0.07718158  0.50205058  0.21030675  1.0
  Ga  Ga1154  1  0.07718158  0.83538392  0.21030675  1.0
  Ga  Ga1155  1  0.41051492  0.16871725  0.21030675  1.0
  Ga  Ga1156  1  0.41051492  0.50205058  0.21030675  1.0
  Ga  Ga1157  1  0.41051492  0.83538392  0.21030675  1.0
  Ga  Ga1158  1  0.74384825  0.16871725  0.21030675  1.0
  Ga  Ga1159  1  0.74384825  0.50205058  0.21030675  1.0
  Ga  Ga1160  1  0.74384825  0.83538392  0.21030675  1.0
  Ga  Ga1161  1  0.24384825  0.00205058  0.28173532  1.0
  Ga  Ga1162  1  0.24384825  0.33538392  0.28173532  1.0
  Ga  Ga1163  1  0.24384825  0.66871725  0.28173532  1.0
  Ga  Ga1164  1  0.57718158  0.00205058  0.28173532  1.0
  Ga  Ga1165  1  0.57718158  0.33538392  0.28173532  1.0
  Ga  Ga1166  1  0.57718158  0.66871725  0.28173532  1.0
  Ga  Ga1167  1  0.91051492  0.00205058  0.28173532  1.0
  Ga  Ga1168  1  0.91051492  0.33538392  0.28173532  1.0
  Ga  Ga1169  1  0.91051492  0.66871725  0.28173532  1.0
  Ga  Ga1170  1  0.08128275  0.16871725  0.28173532  1.0
  Ga  Ga1171  1  0.08128275  0.50205058  0.28173532  1.0
  Ga  Ga1172  1  0.08128275  0.83538392  0.28173532  1.0
  Ga  Ga1173  1  0.41461608  0.16871725  0.28173532  1.0
  Ga  Ga1174  1  0.41461608  0.50205058  0.28173532  1.0
  Ga  Ga1175  1  0.41461608  0.83538392  0.28173532  1.0
  Ga  Ga1176  1  0.74794942  0.16871725  0.28173532  1.0
  Ga  Ga1177  1  0.74794942  0.50205058  0.28173532  1.0
  Ga  Ga1178  1  0.74794942  0.83538392  0.28173532  1.0
  Ga  Ga1179  1  0.24794942  0.00205058  0.21030675  1.0
  Ga  Ga1180  1  0.24794942  0.33538392  0.21030675  1.0
  Ga  Ga1181  1  0.24794942  0.66871725  0.21030675  1.0
  Ga  Ga1182  1  0.58128275  0.00205058  0.21030675  1.0
  Ga  Ga1183  1  0.58128275  0.33538392  0.21030675  1.0
  Ga  Ga1184  1  0.58128275  0.66871725  0.21030675  1.0
  Ga  Ga1185  1  0.91461608  0.00205058  0.21030675  1.0
  Ga  Ga1186  1  0.91461608  0.33538392  0.21030675  1.0
  Ga  Ga1187  1  0.91461608  0.66871725  0.21030675  1.0
  Ga  Ga1188  1  0.16871725  0.24794942  0.24074811  1.0
  Ga  Ga1189  1  0.16871725  0.58128275  0.24074811  1.0
  Ga  Ga1190  1  0.16871725  0.91461608  0.24074811  1.0
  Ga  Ga1191  1  0.50205058  0.24794942  0.24074811  1.0
  Ga  Ga1192  1  0.50205058  0.58128275  0.24074811  1.0
  Ga  Ga1193  1  0.50205058  0.91461608  0.24074811  1.0
  Ga  Ga1194  1  0.83538392  0.24794942  0.24074811  1.0
  Ga  Ga1195  1  0.83538392  0.58128275  0.24074811  1.0
  Ga  Ga1196  1  0.83538392  0.91461608  0.24074811  1.0
  Ga  Ga1197  1  0.00205058  0.08128275  0.16931954  1.0
  Ga  Ga1198  1  0.00205058  0.41461608  0.16931954  1.0
  Ga  Ga1199  1  0.00205058  0.74794942  0.16931954  1.0
  Ga  Ga1200  1  0.33538392  0.08128275  0.16931954  1.0
  Ga  Ga1201  1  0.33538392  0.41461608  0.16931954  1.0
  Ga  Ga1202  1  0.33538392  0.74794942  0.16931954  1.0
  Ga  Ga1203  1  0.66871725  0.08128275  0.16931954  1.0
  Ga  Ga1204  1  0.66871725  0.41461608  0.16931954  1.0
  Ga  Ga1205  1  0.66871725  0.74794942  0.16931954  1.0
  Ga  Ga1206  1  0.03756550  0.20833333  0.26475700  1.0
  Ga  Ga1207  1  0.03756550  0.54166667  0.26475700  1.0
  Ga  Ga1208  1  0.03756550  0.87500000  0.26475700  1.0
  Ga  Ga1209  1  0.37089883  0.20833333  0.26475700  1.0
  Ga  Ga1210  1  0.37089883  0.54166667  0.26475700  1.0
  Ga  Ga1211  1  0.37089883  0.87500000  0.26475700  1.0
  Ga  Ga1212  1  0.70423217  0.20833333  0.26475700  1.0
  Ga  Ga1213  1  0.70423217  0.54166667  0.26475700  1.0
  Ga  Ga1214  1  0.70423217  0.87500000  0.26475700  1.0
  Ga  Ga1215  1  0.20423217  0.04166667  0.19332843  1.0
  Ga  Ga1216  1  0.20423217  0.37500000  0.19332843  1.0
  Ga  Ga1217  1  0.20423217  0.70833333  0.19332843  1.0
  Ga  Ga1218  1  0.53756550  0.04166667  0.19332843  1.0
  Ga  Ga1219  1  0.53756550  0.37500000  0.19332843  1.0
  Ga  Ga1220  1  0.53756550  0.70833333  0.19332843  1.0
  Ga  Ga1221  1  0.87089883  0.04166667  0.19332843  1.0
  Ga  Ga1222  1  0.87089883  0.37500000  0.19332843  1.0
  Ga  Ga1223  1  0.87089883  0.70833333  0.19332843  1.0
  Ga  Ga1224  1  0.29576783  0.29166667  0.22201214  1.0
  Ga  Ga1225  1  0.29576783  0.62500000  0.22201214  1.0
  Ga  Ga1226  1  0.29576783  0.95833333  0.22201214  1.0
  Ga  Ga1227  1  0.62910117  0.29166667  0.22201214  1.0
  Ga  Ga1228  1  0.62910117  0.62500000  0.22201214  1.0
  Ga  Ga1229  1  0.62910117  0.95833333  0.22201214  1.0
  Ga  Ga1230  1  0.96243450  0.29166667  0.22201214  1.0
  Ga  Ga1231  1  0.96243450  0.62500000  0.22201214  1.0
  Ga  Ga1232  1  0.96243450  0.95833333  0.22201214  1.0
  Ga  Ga1233  1  0.12910117  0.12500000  0.15058357  1.0
  Ga  Ga1234  1  0.12910117  0.45833333  0.15058357  1.0
  Ga  Ga1235  1  0.12910117  0.79166667  0.15058357  1.0
  Ga  Ga1236  1  0.46243450  0.12500000  0.15058357  1.0
  Ga  Ga1237  1  0.46243450  0.45833333  0.15058357  1.0
  Ga  Ga1238  1  0.46243450  0.79166667  0.15058357  1.0
  Ga  Ga1239  1  0.79576783  0.12500000  0.15058357  1.0
  Ga  Ga1240  1  0.79576783  0.45833333  0.15058357  1.0
  Ga  Ga1241  1  0.79576783  0.79166667  0.15058357  1.0
  Ga  Ga1242  1  0.11884825  0.21038392  0.26387818  1.0
  Ga  Ga1243  1  0.11884825  0.54371725  0.26387818  1.0
  Ga  Ga1244  1  0.11884825  0.87705058  0.26387818  1.0
  Ga  Ga1245  1  0.45218158  0.21038392  0.26387818  1.0
  Ga  Ga1246  1  0.45218158  0.54371725  0.26387818  1.0
  Ga  Ga1247  1  0.45218158  0.87705058  0.26387818  1.0
  Ga  Ga1248  1  0.78551492  0.21038392  0.26387818  1.0
  Ga  Ga1249  1  0.78551492  0.54371725  0.26387818  1.0
  Ga  Ga1250  1  0.78551492  0.87705058  0.26387818  1.0
  Ga  Ga1251  1  0.28551492  0.04371725  0.19244961  1.0
  Ga  Ga1252  1  0.28551492  0.37705058  0.19244961  1.0
  Ga  Ga1253  1  0.28551492  0.71038392  0.19244961  1.0
  Ga  Ga1254  1  0.61884825  0.04371725  0.19244961  1.0
  Ga  Ga1255  1  0.61884825  0.37705058  0.19244961  1.0
  Ga  Ga1256  1  0.61884825  0.71038392  0.19244961  1.0
  Ga  Ga1257  1  0.95218158  0.04371725  0.19244961  1.0
  Ga  Ga1258  1  0.95218158  0.37705058  0.19244961  1.0
  Ga  Ga1259  1  0.95218158  0.71038392  0.19244961  1.0
  Ga  Ga1260  1  0.03756550  0.29166667  0.15761414  1.0
  Ga  Ga1261  1  0.03756550  0.62500000  0.15761414  1.0
  Ga  Ga1262  1  0.03756550  0.95833333  0.15761414  1.0
  Ga  Ga1263  1  0.37089883  0.29166667  0.15761414  1.0
  Ga  Ga1264  1  0.37089883  0.62500000  0.15761414  1.0
  Ga  Ga1265  1  0.37089883  0.95833333  0.15761414  1.0
  Ga  Ga1266  1  0.70423217  0.29166667  0.15761414  1.0
  Ga  Ga1267  1  0.70423217  0.62500000  0.15761414  1.0
  Ga  Ga1268  1  0.70423217  0.95833333  0.15761414  1.0
  Ga  Ga1269  1  0.20423217  0.12500000  0.22904271  1.0
  Ga  Ga1270  1  0.20423217  0.45833333  0.22904271  1.0
  Ga  Ga1271  1  0.20423217  0.79166667  0.22904271  1.0
  Ga  Ga1272  1  0.53756550  0.12500000  0.22904271  1.0
  Ga  Ga1273  1  0.53756550  0.45833333  0.22904271  1.0
  Ga  Ga1274  1  0.53756550  0.79166667  0.22904271  1.0
  Ga  Ga1275  1  0.87089883  0.12500000  0.22904271  1.0
  Ga  Ga1276  1  0.87089883  0.45833333  0.22904271  1.0
  Ga  Ga1277  1  0.87089883  0.79166667  0.22904271  1.0
  Ga  Ga1278  1  0.04371725  0.20628275  0.18717668  1.0
  Ga  Ga1279  1  0.04371725  0.53961608  0.18717668  1.0
  Ga  Ga1280  1  0.04371725  0.87294942  0.18717668  1.0
  Ga  Ga1281  1  0.37705058  0.20628275  0.18717668  1.0
  Ga  Ga1282  1  0.37705058  0.53961608  0.18717668  1.0
  Ga  Ga1283  1  0.37705058  0.87294942  0.18717668  1.0
  Ga  Ga1284  1  0.71038392  0.20628275  0.18717668  1.0
  Ga  Ga1285  1  0.71038392  0.53961608  0.18717668  1.0
  Ga  Ga1286  1  0.71038392  0.87294942  0.18717668  1.0
  Ga  Ga1287  1  0.21038392  0.03961608  0.25860525  1.0
  Ga  Ga1288  1  0.21038392  0.37294942  0.25860525  1.0
  Ga  Ga1289  1  0.21038392  0.70628275  0.25860525  1.0
  Ga  Ga1290  1  0.54371725  0.03961608  0.25860525  1.0
  Ga  Ga1291  1  0.54371725  0.37294942  0.25860525  1.0
  Ga  Ga1292  1  0.54371725  0.70628275  0.25860525  1.0
  Ga  Ga1293  1  0.87705058  0.03961608  0.25860525  1.0
  Ga  Ga1294  1  0.87705058  0.37294942  0.25860525  1.0
  Ga  Ga1295  1  0.87705058  0.70628275  0.25860525  1.0
  Ga  Ga1296  1  0.29576783  0.20833333  0.18629786  1.0
  Ga  Ga1297  1  0.29576783  0.54166667  0.18629786  1.0
  Ga  Ga1298  1  0.29576783  0.87500000  0.18629786  1.0
  Ga  Ga1299  1  0.62910117  0.20833333  0.18629786  1.0
  Ga  Ga1300  1  0.62910117  0.54166667  0.18629786  1.0
  Ga  Ga1301  1  0.62910117  0.87500000  0.18629786  1.0
  Ga  Ga1302  1  0.96243450  0.20833333  0.18629786  1.0
  Ga  Ga1303  1  0.96243450  0.54166667  0.18629786  1.0
  Ga  Ga1304  1  0.96243450  0.87500000  0.18629786  1.0
  Ga  Ga1305  1  0.12910117  0.04166667  0.25772643  1.0
  Ga  Ga1306  1  0.12910117  0.37500000  0.25772643  1.0
  Ga  Ga1307  1  0.12910117  0.70833333  0.25772643  1.0
  Ga  Ga1308  1  0.46243450  0.04166667  0.25772643  1.0
  Ga  Ga1309  1  0.46243450  0.37500000  0.25772643  1.0
  Ga  Ga1310  1  0.46243450  0.70833333  0.25772643  1.0
  Ga  Ga1311  1  0.79576783  0.04166667  0.25772643  1.0
  Ga  Ga1312  1  0.79576783  0.37500000  0.25772643  1.0
  Ga  Ga1313  1  0.79576783  0.70833333  0.25772643  1.0
  Ga  Ga1314  1  0.20628275  0.21038392  0.19244961  1.0
  Ga  Ga1315  1  0.20628275  0.54371725  0.19244961  1.0
  Ga  Ga1316  1  0.20628275  0.87705058  0.19244961  1.0
  Ga  Ga1317  1  0.53961608  0.21038392  0.19244961  1.0
  Ga  Ga1318  1  0.53961608  0.54371725  0.19244961  1.0
  Ga  Ga1319  1  0.53961608  0.87705058  0.19244961  1.0
  Ga  Ga1320  1  0.87294942  0.21038392  0.19244961  1.0
  Ga  Ga1321  1  0.87294942  0.54371725  0.19244961  1.0
  Ga  Ga1322  1  0.87294942  0.87705058  0.19244961  1.0
  Ga  Ga1323  1  0.03961608  0.04371725  0.26387818  1.0
  Ga  Ga1324  1  0.03961608  0.37705058  0.26387818  1.0
  Ga  Ga1325  1  0.03961608  0.71038392  0.26387818  1.0
  Ga  Ga1326  1  0.37294942  0.04371725  0.26387818  1.0
  Ga  Ga1327  1  0.37294942  0.37705058  0.26387818  1.0
  Ga  Ga1328  1  0.37294942  0.71038392  0.26387818  1.0
  Ga  Ga1329  1  0.70628275  0.04371725  0.26387818  1.0
  Ga  Ga1330  1  0.70628275  0.37705058  0.26387818  1.0
  Ga  Ga1331  1  0.70628275  0.71038392  0.26387818  1.0
  Ga  Ga1332  1  0.00615175  0.24794942  0.16931954  1.0
  Ga  Ga1333  1  0.00615175  0.58128275  0.16931954  1.0
  Ga  Ga1334  1  0.00615175  0.91461608  0.16931954  1.0
  Ga  Ga1335  1  0.33948508  0.24794942  0.16931954  1.0
  Ga  Ga1336  1  0.33948508  0.58128275  0.16931954  1.0
  Ga  Ga1337  1  0.33948508  0.91461608  0.16931954  1.0
  Ga  Ga1338  1  0.67281842  0.24794942  0.16931954  1.0
  Ga  Ga1339  1  0.67281842  0.58128275  0.16931954  1.0
  Ga  Ga1340  1  0.67281842  0.91461608  0.16931954  1.0
  Ga  Ga1341  1  0.17281842  0.08128275  0.24074811  1.0
  Ga  Ga1342  1  0.17281842  0.41461608  0.24074811  1.0
  Ga  Ga1343  1  0.17281842  0.74794942  0.24074811  1.0
  Ga  Ga1344  1  0.50615175  0.08128275  0.24074811  1.0
  Ga  Ga1345  1  0.50615175  0.41461608  0.24074811  1.0
  Ga  Ga1346  1  0.50615175  0.74794942  0.24074811  1.0
  Ga  Ga1347  1  0.83948508  0.08128275  0.24074811  1.0
  Ga  Ga1348  1  0.83948508  0.41461608  0.24074811  1.0
  Ga  Ga1349  1  0.83948508  0.74794942  0.24074811  1.0
  Ga  Ga1350  1  0.29781842  0.20628275  0.25860525  1.0
  Ga  Ga1351  1  0.29781842  0.53961608  0.25860525  1.0
  Ga  Ga1352  1  0.29781842  0.87294942  0.25860525  1.0
  Ga  Ga1353  1  0.63115175  0.20628275  0.25860525  1.0
  Ga  Ga1354  1  0.63115175  0.53961608  0.25860525  1.0
  Ga  Ga1355  1  0.63115175  0.87294942  0.25860525  1.0
  Ga  Ga1356  1  0.96448508  0.20628275  0.25860525  1.0
  Ga  Ga1357  1  0.96448508  0.53961608  0.25860525  1.0
  Ga  Ga1358  1  0.96448508  0.87294942  0.25860525  1.0
  Ga  Ga1359  1  0.13115175  0.03961608  0.18717668  1.0
  Ga  Ga1360  1  0.13115175  0.37294942  0.18717668  1.0
  Ga  Ga1361  1  0.13115175  0.70628275  0.18717668  1.0
  Ga  Ga1362  1  0.46448508  0.03961608  0.18717668  1.0
  Ga  Ga1363  1  0.46448508  0.37294942  0.18717668  1.0
  Ga  Ga1364  1  0.46448508  0.70628275  0.18717668  1.0
  Ga  Ga1365  1  0.79781842  0.03961608  0.18717668  1.0
  Ga  Ga1366  1  0.79781842  0.37294942  0.18717668  1.0
  Ga  Ga1367  1  0.79781842  0.70628275  0.18717668  1.0
  Ga  Ga1368  1  0.08948508  0.33128275  0.27646239  1.0
  Ga  Ga1369  1  0.08948508  0.66461608  0.27646239  1.0
  Ga  Ga1370  1  0.08948508  0.99794942  0.27646239  1.0
  Ga  Ga1371  1  0.42281842  0.33128275  0.27646239  1.0
  Ga  Ga1372  1  0.42281842  0.66461608  0.27646239  1.0
  Ga  Ga1373  1  0.42281842  0.99794942  0.27646239  1.0
  Ga  Ga1374  1  0.75615175  0.33128275  0.27646239  1.0
  Ga  Ga1375  1  0.75615175  0.66461608  0.27646239  1.0
  Ga  Ga1376  1  0.75615175  0.99794942  0.27646239  1.0
  Ga  Ga1377  1  0.25615175  0.16461608  0.20503382  1.0
  Ga  Ga1378  1  0.25615175  0.49794942  0.20503382  1.0
  Ga  Ga1379  1  0.25615175  0.83128275  0.20503382  1.0
  Ga  Ga1380  1  0.58948508  0.16461608  0.20503382  1.0
  Ga  Ga1381  1  0.58948508  0.49794942  0.20503382  1.0
  Ga  Ga1382  1  0.58948508  0.83128275  0.20503382  1.0
  Ga  Ga1383  1  0.92281842  0.16461608  0.20503382  1.0
  Ga  Ga1384  1  0.92281842  0.49794942  0.20503382  1.0
  Ga  Ga1385  1  0.92281842  0.83128275  0.20503382  1.0
  Ga  Ga1386  1  0.08538392  0.33128275  0.20503382  1.0
  Ga  Ga1387  1  0.08538392  0.66461608  0.20503382  1.0
  Ga  Ga1388  1  0.08538392  0.99794942  0.20503382  1.0
  Ga  Ga1389  1  0.41871725  0.33128275  0.20503382  1.0
  Ga  Ga1390  1  0.41871725  0.66461608  0.20503382  1.0
  Ga  Ga1391  1  0.41871725  0.99794942  0.20503382  1.0
  Ga  Ga1392  1  0.75205058  0.33128275  0.20503382  1.0
  Ga  Ga1393  1  0.75205058  0.66461608  0.20503382  1.0
  Ga  Ga1394  1  0.75205058  0.99794942  0.20503382  1.0
  Ga  Ga1395  1  0.25205058  0.16461608  0.27646239  1.0
  Ga  Ga1396  1  0.25205058  0.49794942  0.27646239  1.0
  Ga  Ga1397  1  0.25205058  0.83128275  0.27646239  1.0
  Ga  Ga1398  1  0.58538392  0.16461608  0.27646239  1.0
  Ga  Ga1399  1  0.58538392  0.49794942  0.27646239  1.0
  Ga  Ga1400  1  0.58538392  0.83128275  0.27646239  1.0
  Ga  Ga1401  1  0.91871725  0.16461608  0.27646239  1.0
  Ga  Ga1402  1  0.91871725  0.49794942  0.27646239  1.0
  Ga  Ga1403  1  0.91871725  0.83128275  0.27646239  1.0
  Ga  Ga1404  1  0.33128275  0.25205058  0.24602104  1.0
  Ga  Ga1405  1  0.33128275  0.58538392  0.24602104  1.0
  Ga  Ga1406  1  0.33128275  0.91871725  0.24602104  1.0
  Ga  Ga1407  1  0.66461608  0.25205058  0.24602104  1.0
  Ga  Ga1408  1  0.66461608  0.58538392  0.24602104  1.0
  Ga  Ga1409  1  0.66461608  0.91871725  0.24602104  1.0
  Ga  Ga1410  1  0.99794942  0.25205058  0.24602104  1.0
  Ga  Ga1411  1  0.99794942  0.58538392  0.24602104  1.0
  Ga  Ga1412  1  0.99794942  0.91871725  0.24602104  1.0
  Ga  Ga1413  1  0.16461608  0.08538392  0.17459246  1.0
  Ga  Ga1414  1  0.16461608  0.41871725  0.17459246  1.0
  Ga  Ga1415  1  0.16461608  0.75205058  0.17459246  1.0
  Ga  Ga1416  1  0.49794942  0.08538392  0.17459246  1.0
  Ga  Ga1417  1  0.49794942  0.41871725  0.17459246  1.0
  Ga  Ga1418  1  0.49794942  0.75205058  0.17459246  1.0
  Ga  Ga1419  1  0.83128275  0.08538392  0.17459246  1.0
  Ga  Ga1420  1  0.83128275  0.41871725  0.17459246  1.0
  Ga  Ga1421  1  0.83128275  0.75205058  0.17459246  1.0
  Ga  Ga1422  1  0.12910117  0.29166667  0.22201214  1.0
  Ga  Ga1423  1  0.12910117  0.62500000  0.22201214  1.0
  Ga  Ga1424  1  0.12910117  0.95833333  0.22201214  1.0
  Ga  Ga1425  1  0.46243450  0.29166667  0.22201214  1.0
  Ga  Ga1426  1  0.46243450  0.62500000  0.22201214  1.0
  Ga  Ga1427  1  0.46243450  0.95833333  0.22201214  1.0
  Ga  Ga1428  1  0.79576783  0.29166667  0.22201214  1.0
  Ga  Ga1429  1  0.79576783  0.62500000  0.22201214  1.0
  Ga  Ga1430  1  0.79576783  0.95833333  0.22201214  1.0
  Ga  Ga1431  1  0.29576783  0.12500000  0.15058357  1.0
  Ga  Ga1432  1  0.29576783  0.45833333  0.15058357  1.0
  Ga  Ga1433  1  0.29576783  0.79166667  0.15058357  1.0
  Ga  Ga1434  1  0.62910117  0.12500000  0.15058357  1.0
  Ga  Ga1435  1  0.62910117  0.45833333  0.15058357  1.0
  Ga  Ga1436  1  0.62910117  0.79166667  0.15058357  1.0
  Ga  Ga1437  1  0.96243450  0.12500000  0.15058357  1.0
  Ga  Ga1438  1  0.96243450  0.45833333  0.15058357  1.0
  Ga  Ga1439  1  0.96243450  0.79166667  0.15058357  1.0
  Ga  Ga1440  1  0.20423217  0.20833333  0.26475700  1.0
  Ga  Ga1441  1  0.20423217  0.54166667  0.26475700  1.0
  Ga  Ga1442  1  0.20423217  0.87500000  0.26475700  1.0
  Ga  Ga1443  1  0.53756550  0.20833333  0.26475700  1.0
  Ga  Ga1444  1  0.53756550  0.54166667  0.26475700  1.0
  Ga  Ga1445  1  0.53756550  0.87500000  0.26475700  1.0
  Ga  Ga1446  1  0.87089883  0.20833333  0.26475700  1.0
  Ga  Ga1447  1  0.87089883  0.54166667  0.26475700  1.0
  Ga  Ga1448  1  0.87089883  0.87500000  0.26475700  1.0
  Ga  Ga1449  1  0.03756550  0.04166667  0.19332843  1.0
  Ga  Ga1450  1  0.03756550  0.37500000  0.19332843  1.0
  Ga  Ga1451  1  0.03756550  0.70833333  0.19332843  1.0
  Ga  Ga1452  1  0.37089883  0.04166667  0.19332843  1.0
  Ga  Ga1453  1  0.37089883  0.37500000  0.19332843  1.0
  Ga  Ga1454  1  0.37089883  0.70833333  0.19332843  1.0
  Ga  Ga1455  1  0.70423217  0.04166667  0.19332843  1.0
  Ga  Ga1456  1  0.70423217  0.37500000  0.19332843  1.0
  Ga  Ga1457  1  0.70423217  0.70833333  0.19332843  1.0
  Ga  Ga1458  1  0.04781842  0.28961608  0.22289096  1.0
  Ga  Ga1459  1  0.04781842  0.62294942  0.22289096  1.0
  Ga  Ga1460  1  0.04781842  0.95628275  0.22289096  1.0
  Ga  Ga1461  1  0.38115175  0.28961608  0.22289096  1.0
  Ga  Ga1462  1  0.38115175  0.62294942  0.22289096  1.0
  Ga  Ga1463  1  0.38115175  0.95628275  0.22289096  1.0
  Ga  Ga1464  1  0.71448508  0.28961608  0.22289096  1.0
  Ga  Ga1465  1  0.71448508  0.62294942  0.22289096  1.0
  Ga  Ga1466  1  0.71448508  0.95628275  0.22289096  1.0
  Ga  Ga1467  1  0.21448508  0.12294942  0.15146239  1.0
  Ga  Ga1468  1  0.21448508  0.45628275  0.15146239  1.0
  Ga  Ga1469  1  0.21448508  0.78961608  0.15146239  1.0
  Ga  Ga1470  1  0.54781842  0.12294942  0.15146239  1.0
  Ga  Ga1471  1  0.54781842  0.45628275  0.15146239  1.0
  Ga  Ga1472  1  0.54781842  0.78961608  0.15146239  1.0
  Ga  Ga1473  1  0.88115175  0.12294942  0.15146239  1.0
  Ga  Ga1474  1  0.88115175  0.45628275  0.15146239  1.0
  Ga  Ga1475  1  0.88115175  0.78961608  0.15146239  1.0
  Ga  Ga1476  1  0.12910117  0.20833333  0.18629786  1.0
  Ga  Ga1477  1  0.12910117  0.54166667  0.18629786  1.0
  Ga  Ga1478  1  0.12910117  0.87500000  0.18629786  1.0
  Ga  Ga1479  1  0.46243450  0.20833333  0.18629786  1.0
  Ga  Ga1480  1  0.46243450  0.54166667  0.18629786  1.0
  Ga  Ga1481  1  0.46243450  0.87500000  0.18629786  1.0
  Ga  Ga1482  1  0.79576783  0.20833333  0.18629786  1.0
  Ga  Ga1483  1  0.79576783  0.54166667  0.18629786  1.0
  Ga  Ga1484  1  0.79576783  0.87500000  0.18629786  1.0
  Ga  Ga1485  1  0.29576783  0.04166667  0.25772643  1.0
  Ga  Ga1486  1  0.29576783  0.37500000  0.25772643  1.0
  Ga  Ga1487  1  0.29576783  0.70833333  0.25772643  1.0
  Ga  Ga1488  1  0.62910117  0.04166667  0.25772643  1.0
  Ga  Ga1489  1  0.62910117  0.37500000  0.25772643  1.0
  Ga  Ga1490  1  0.62910117  0.70833333  0.25772643  1.0
  Ga  Ga1491  1  0.96243450  0.04166667  0.25772643  1.0
  Ga  Ga1492  1  0.96243450  0.37500000  0.25772643  1.0
  Ga  Ga1493  1  0.96243450  0.70833333  0.25772643  1.0
  Ga  Ga1494  1  0.12294942  0.29371725  0.15673532  1.0
  Ga  Ga1495  1  0.12294942  0.62705058  0.15673532  1.0
  Ga  Ga1496  1  0.12294942  0.96038392  0.15673532  1.0
  Ga  Ga1497  1  0.45628275  0.29371725  0.15673532  1.0
  Ga  Ga1498  1  0.45628275  0.62705058  0.15673532  1.0
  Ga  Ga1499  1  0.45628275  0.96038392  0.15673532  1.0
  Ga  Ga1500  1  0.78961608  0.29371725  0.15673532  1.0
  Ga  Ga1501  1  0.78961608  0.62705058  0.15673532  1.0
  Ga  Ga1502  1  0.78961608  0.96038392  0.15673532  1.0
  Ga  Ga1503  1  0.28961608  0.12705058  0.22816389  1.0
  Ga  Ga1504  1  0.28961608  0.46038392  0.22816389  1.0
  Ga  Ga1505  1  0.28961608  0.79371725  0.22816389  1.0
  Ga  Ga1506  1  0.62294942  0.12705058  0.22816389  1.0
  Ga  Ga1507  1  0.62294942  0.46038392  0.22816389  1.0
  Ga  Ga1508  1  0.62294942  0.79371725  0.22816389  1.0
  Ga  Ga1509  1  0.95628275  0.12705058  0.22816389  1.0
  Ga  Ga1510  1  0.95628275  0.46038392  0.22816389  1.0
  Ga  Ga1511  1  0.95628275  0.79371725  0.22816389  1.0
  Ga  Ga1512  1  0.20423217  0.29166667  0.15761414  1.0
  Ga  Ga1513  1  0.20423217  0.62500000  0.15761414  1.0
  Ga  Ga1514  1  0.20423217  0.95833333  0.15761414  1.0
  Ga  Ga1515  1  0.53756550  0.29166667  0.15761414  1.0
  Ga  Ga1516  1  0.53756550  0.62500000  0.15761414  1.0
  Ga  Ga1517  1  0.53756550  0.95833333  0.15761414  1.0
  Ga  Ga1518  1  0.87089883  0.29166667  0.15761414  1.0
  Ga  Ga1519  1  0.87089883  0.62500000  0.15761414  1.0
  Ga  Ga1520  1  0.87089883  0.95833333  0.15761414  1.0
  Ga  Ga1521  1  0.03756550  0.12500000  0.22904271  1.0
  Ga  Ga1522  1  0.03756550  0.45833333  0.22904271  1.0
  Ga  Ga1523  1  0.03756550  0.79166667  0.22904271  1.0
  Ga  Ga1524  1  0.37089883  0.12500000  0.22904271  1.0
  Ga  Ga1525  1  0.37089883  0.45833333  0.22904271  1.0
  Ga  Ga1526  1  0.37089883  0.79166667  0.22904271  1.0
  Ga  Ga1527  1  0.70423217  0.12500000  0.22904271  1.0
  Ga  Ga1528  1  0.70423217  0.45833333  0.22904271  1.0
  Ga  Ga1529  1  0.70423217  0.79166667  0.22904271  1.0
  Ga  Ga1530  1  0.29371725  0.28961608  0.15146239  1.0
  Ga  Ga1531  1  0.29371725  0.62294942  0.15146239  1.0
  Ga  Ga1532  1  0.29371725  0.95628275  0.15146239  1.0
  Ga  Ga1533  1  0.62705058  0.28961608  0.15146239  1.0
  Ga  Ga1534  1  0.62705058  0.62294942  0.15146239  1.0
  Ga  Ga1535  1  0.62705058  0.95628275  0.15146239  1.0
  Ga  Ga1536  1  0.96038392  0.28961608  0.15146239  1.0
  Ga  Ga1537  1  0.96038392  0.62294942  0.15146239  1.0
  Ga  Ga1538  1  0.96038392  0.95628275  0.15146239  1.0
  Ga  Ga1539  1  0.12705058  0.12294942  0.22289096  1.0
  Ga  Ga1540  1  0.12705058  0.45628275  0.22289096  1.0
  Ga  Ga1541  1  0.12705058  0.78961608  0.22289096  1.0
  Ga  Ga1542  1  0.46038392  0.12294942  0.22289096  1.0
  Ga  Ga1543  1  0.46038392  0.45628275  0.22289096  1.0
  Ga  Ga1544  1  0.46038392  0.78961608  0.22289096  1.0
  Ga  Ga1545  1  0.79371725  0.12294942  0.22289096  1.0
  Ga  Ga1546  1  0.79371725  0.45628275  0.22289096  1.0
  Ga  Ga1547  1  0.79371725  0.78961608  0.22289096  1.0
  Ga  Ga1548  1  0.16051492  0.25205058  0.17459246  1.0
  Ga  Ga1549  1  0.16051492  0.58538392  0.17459246  1.0
  Ga  Ga1550  1  0.16051492  0.91871725  0.17459246  1.0
  Ga  Ga1551  1  0.49384825  0.25205058  0.17459246  1.0
  Ga  Ga1552  1  0.49384825  0.58538392  0.17459246  1.0
  Ga  Ga1553  1  0.49384825  0.91871725  0.17459246  1.0
  Ga  Ga1554  1  0.82718158  0.25205058  0.17459246  1.0
  Ga  Ga1555  1  0.82718158  0.58538392  0.17459246  1.0
  Ga  Ga1556  1  0.82718158  0.91871725  0.17459246  1.0
  Ga  Ga1557  1  0.32718158  0.08538392  0.24602104  1.0
  Ga  Ga1558  1  0.32718158  0.41871725  0.24602104  1.0
  Ga  Ga1559  1  0.32718158  0.75205058  0.24602104  1.0
  Ga  Ga1560  1  0.66051492  0.08538392  0.24602104  1.0
  Ga  Ga1561  1  0.66051492  0.41871725  0.24602104  1.0
  Ga  Ga1562  1  0.66051492  0.75205058  0.24602104  1.0
  Ga  Ga1563  1  0.99384825  0.08538392  0.24602104  1.0
  Ga  Ga1564  1  0.99384825  0.41871725  0.24602104  1.0
  Ga  Ga1565  1  0.99384825  0.75205058  0.24602104  1.0
  Ga  Ga1566  1  0.20218158  0.29371725  0.22816389  1.0
  Ga  Ga1567  1  0.20218158  0.62705058  0.22816389  1.0
  Ga  Ga1568  1  0.20218158  0.96038392  0.22816389  1.0
  Ga  Ga1569  1  0.53551492  0.29371725  0.22816389  1.0
  Ga  Ga1570  1  0.53551492  0.62705058  0.22816389  1.0
  Ga  Ga1571  1  0.53551492  0.96038392  0.22816389  1.0
  Ga  Ga1572  1  0.86884825  0.29371725  0.22816389  1.0
  Ga  Ga1573  1  0.86884825  0.62705058  0.22816389  1.0
  Ga  Ga1574  1  0.86884825  0.96038392  0.22816389  1.0
  Ga  Ga1575  1  0.03551492  0.12705058  0.15673532  1.0
  Ga  Ga1576  1  0.03551492  0.46038392  0.15673532  1.0
  Ga  Ga1577  1  0.03551492  0.79371725  0.15673532  1.0
  Ga  Ga1578  1  0.36884825  0.12705058  0.15673532  1.0
  Ga  Ga1579  1  0.36884825  0.46038392  0.15673532  1.0
  Ga  Ga1580  1  0.36884825  0.79371725  0.15673532  1.0
  Ga  Ga1581  1  0.70218158  0.12705058  0.15673532  1.0
  Ga  Ga1582  1  0.70218158  0.46038392  0.15673532  1.0
  Ga  Ga1583  1  0.70218158  0.79371725  0.15673532  1.0
  Ni  Ni1584  1  0.17071467  0.24865067  0.27505086  1.0
  Ni  Ni1585  1  0.17071467  0.58198400  0.27505086  1.0
  Ni  Ni1586  1  0.17071467  0.91531733  0.27505086  1.0
  Ni  Ni1587  1  0.50404800  0.24865067  0.27505086  1.0
  Ni  Ni1588  1  0.50404800  0.58198400  0.27505086  1.0
  Ni  Ni1589  1  0.50404800  0.91531733  0.27505086  1.0
  Ni  Ni1590  1  0.83738133  0.24865067  0.27505086  1.0
  Ni  Ni1591  1  0.83738133  0.58198400  0.27505086  1.0
  Ni  Ni1592  1  0.83738133  0.91531733  0.27505086  1.0
  Ni  Ni1593  1  0.00404800  0.08198400  0.20362229  1.0
  Ni  Ni1594  1  0.00404800  0.41531733  0.20362229  1.0
  Ni  Ni1595  1  0.00404800  0.74865067  0.20362229  1.0
  Ni  Ni1596  1  0.33738133  0.08198400  0.20362229  1.0
  Ni  Ni1597  1  0.33738133  0.41531733  0.20362229  1.0
  Ni  Ni1598  1  0.33738133  0.74865067  0.20362229  1.0
  Ni  Ni1599  1  0.67071467  0.08198400  0.20362229  1.0
  Ni  Ni1600  1  0.67071467  0.41531733  0.20362229  1.0
  Ni  Ni1601  1  0.67071467  0.74865067  0.20362229  1.0
  Ni  Ni1602  1  0.29031733  0.29301600  0.26066343  1.0
  Ni  Ni1603  1  0.29031733  0.62634933  0.26066343  1.0
  Ni  Ni1604  1  0.29031733  0.95968267  0.26066343  1.0
  Ni  Ni1605  1  0.62365067  0.29301600  0.26066343  1.0
  Ni  Ni1606  1  0.62365067  0.62634933  0.26066343  1.0
  Ni  Ni1607  1  0.62365067  0.95968267  0.26066343  1.0
  Ni  Ni1608  1  0.95698400  0.29301600  0.26066343  1.0
  Ni  Ni1609  1  0.95698400  0.62634933  0.26066343  1.0
  Ni  Ni1610  1  0.95698400  0.95968267  0.26066343  1.0
  Ni  Ni1611  1  0.12365067  0.12634933  0.18923486  1.0
  Ni  Ni1612  1  0.12365067  0.45968267  0.18923486  1.0
  Ni  Ni1613  1  0.12365067  0.79301600  0.18923486  1.0
  Ni  Ni1614  1  0.45698400  0.12634933  0.18923486  1.0
  Ni  Ni1615  1  0.45698400  0.45968267  0.18923486  1.0
  Ni  Ni1616  1  0.45698400  0.79301600  0.18923486  1.0
  Ni  Ni1617  1  0.79031733  0.12634933  0.18923486  1.0
  Ni  Ni1618  1  0.79031733  0.45968267  0.18923486  1.0
  Ni  Ni1619  1  0.79031733  0.79301600  0.18923486  1.0
  Ni  Ni1620  1  0.21508000  0.29031733  0.25719371  1.0
  Ni  Ni1621  1  0.21508000  0.62365067  0.25719371  1.0
  Ni  Ni1622  1  0.21508000  0.95698400  0.25719371  1.0
  Ni  Ni1623  1  0.54841333  0.29031733  0.25719371  1.0
  Ni  Ni1624  1  0.54841333  0.62365067  0.25719371  1.0
  Ni  Ni1625  1  0.54841333  0.95698400  0.25719371  1.0
  Ni  Ni1626  1  0.88174667  0.29031733  0.25719371  1.0
  Ni  Ni1627  1  0.88174667  0.62365067  0.25719371  1.0
  Ni  Ni1628  1  0.88174667  0.95698400  0.25719371  1.0
  Ni  Ni1629  1  0.04841333  0.12365067  0.18576514  1.0
  Ni  Ni1630  1  0.04841333  0.45698400  0.18576514  1.0
  Ni  Ni1631  1  0.04841333  0.79031733  0.18576514  1.0
  Ni  Ni1632  1  0.38174667  0.12365067  0.18576514  1.0
  Ni  Ni1633  1  0.38174667  0.45698400  0.18576514  1.0
  Ni  Ni1634  1  0.38174667  0.79031733  0.18576514  1.0
  Ni  Ni1635  1  0.71508000  0.12365067  0.18576514  1.0
  Ni  Ni1636  1  0.71508000  0.45698400  0.18576514  1.0
  Ni  Ni1637  1  0.71508000  0.79031733  0.18576514  1.0
  Ni  Ni1638  1  0.12230133  0.20833333  0.15409886  1.0
  Ni  Ni1639  1  0.12230133  0.54166667  0.15409886  1.0
  Ni  Ni1640  1  0.12230133  0.87500000  0.15409886  1.0
  Ni  Ni1641  1  0.45563467  0.20833333  0.15409886  1.0
  Ni  Ni1642  1  0.45563467  0.54166667  0.15409886  1.0
  Ni  Ni1643  1  0.45563467  0.87500000  0.15409886  1.0
  Ni  Ni1644  1  0.78896800  0.20833333  0.15409886  1.0
  Ni  Ni1645  1  0.78896800  0.54166667  0.15409886  1.0
  Ni  Ni1646  1  0.78896800  0.87500000  0.15409886  1.0
  Ni  Ni1647  1  0.28896800  0.04166667  0.22552743  1.0
  Ni  Ni1648  1  0.28896800  0.37500000  0.22552743  1.0
  Ni  Ni1649  1  0.28896800  0.70833333  0.22552743  1.0
  Ni  Ni1650  1  0.62230133  0.04166667  0.22552743  1.0
  Ni  Ni1651  1  0.62230133  0.37500000  0.22552743  1.0
  Ni  Ni1652  1  0.62230133  0.70833333  0.22552743  1.0
  Ni  Ni1653  1  0.95563467  0.04166667  0.22552743  1.0
  Ni  Ni1654  1  0.95563467  0.37500000  0.22552743  1.0
  Ni  Ni1655  1  0.95563467  0.70833333  0.22552743  1.0
  Ni  Ni1656  1  0.25539733  0.24730133  0.27562914  1.0
  Ni  Ni1657  1  0.25539733  0.58063467  0.27562914  1.0
  Ni  Ni1658  1  0.25539733  0.91396800  0.27562914  1.0
  Ni  Ni1659  1  0.58873067  0.24730133  0.27562914  1.0
  Ni  Ni1660  1  0.58873067  0.58063467  0.27562914  1.0
  Ni  Ni1661  1  0.58873067  0.91396800  0.27562914  1.0
  Ni  Ni1662  1  0.92206400  0.24730133  0.27562914  1.0
  Ni  Ni1663  1  0.92206400  0.58063467  0.27562914  1.0
  Ni  Ni1664  1  0.92206400  0.91396800  0.27562914  1.0
  Ni  Ni1665  1  0.08873067  0.08063467  0.20420057  1.0
  Ni  Ni1666  1  0.08873067  0.41396800  0.20420057  1.0
  Ni  Ni1667  1  0.08873067  0.74730133  0.20420057  1.0
  Ni  Ni1668  1  0.42206400  0.08063467  0.20420057  1.0
  Ni  Ni1669  1  0.42206400  0.41396800  0.20420057  1.0
  Ni  Ni1670  1  0.42206400  0.74730133  0.20420057  1.0
  Ni  Ni1671  1  0.75539733  0.08063467  0.20420057  1.0
  Ni  Ni1672  1  0.75539733  0.41396800  0.20420057  1.0
  Ni  Ni1673  1  0.75539733  0.74730133  0.20420057  1.0
  Ni  Ni1674  1  0.12365067  0.29031733  0.26182000  1.0
  Ni  Ni1675  1  0.12365067  0.62365067  0.26182000  1.0
  Ni  Ni1676  1  0.12365067  0.95698400  0.26182000  1.0
  Ni  Ni1677  1  0.45698400  0.29031733  0.26182000  1.0
  Ni  Ni1678  1  0.45698400  0.62365067  0.26182000  1.0
  Ni  Ni1679  1  0.45698400  0.95698400  0.26182000  1.0
  Ni  Ni1680  1  0.79031733  0.29031733  0.26182000  1.0
  Ni  Ni1681  1  0.79031733  0.62365067  0.26182000  1.0
  Ni  Ni1682  1  0.79031733  0.95698400  0.26182000  1.0
  Ni  Ni1683  1  0.29031733  0.12365067  0.19039143  1.0
  Ni  Ni1684  1  0.29031733  0.45698400  0.19039143  1.0
  Ni  Ni1685  1  0.29031733  0.79031733  0.19039143  1.0
  Ni  Ni1686  1  0.62365067  0.12365067  0.19039143  1.0
  Ni  Ni1687  1  0.62365067  0.45698400  0.19039143  1.0
  Ni  Ni1688  1  0.62365067  0.79031733  0.19039143  1.0
  Ni  Ni1689  1  0.95698400  0.12365067  0.19039143  1.0
  Ni  Ni1690  1  0.95698400  0.45698400  0.19039143  1.0
  Ni  Ni1691  1  0.95698400  0.79031733  0.19039143  1.0
  Ni  Ni1692  1  0.00134933  0.16801600  0.17137771  1.0
  Ni  Ni1693  1  0.00134933  0.50134933  0.17137771  1.0
  Ni  Ni1694  1  0.00134933  0.83468267  0.17137771  1.0
  Ni  Ni1695  1  0.33468267  0.16801600  0.17137771  1.0
  Ni  Ni1696  1  0.33468267  0.50134933  0.17137771  1.0
  Ni  Ni1697  1  0.33468267  0.83468267  0.17137771  1.0
  Ni  Ni1698  1  0.66801600  0.16801600  0.17137771  1.0
  Ni  Ni1699  1  0.66801600  0.50134933  0.17137771  1.0
  Ni  Ni1700  1  0.66801600  0.83468267  0.17137771  1.0
  Ni  Ni1701  1  0.16801600  0.00134933  0.24280629  1.0
  Ni  Ni1702  1  0.16801600  0.33468267  0.24280629  1.0
  Ni  Ni1703  1  0.16801600  0.66801600  0.24280629  1.0
  Ni  Ni1704  1  0.50134933  0.00134933  0.24280629  1.0
  Ni  Ni1705  1  0.50134933  0.33468267  0.24280629  1.0
  Ni  Ni1706  1  0.50134933  0.66801600  0.24280629  1.0
  Ni  Ni1707  1  0.83468267  0.00134933  0.24280629  1.0
  Ni  Ni1708  1  0.83468267  0.33468267  0.24280629  1.0
  Ni  Ni1709  1  0.83468267  0.66801600  0.24280629  1.0
  Ni  Ni1710  1  0.24460267  0.16936533  0.17542571  1.0
  Ni  Ni1711  1  0.24460267  0.50269867  0.17542571  1.0
  Ni  Ni1712  1  0.24460267  0.83603200  0.17542571  1.0
  Ni  Ni1713  1  0.57793600  0.16936533  0.17542571  1.0
  Ni  Ni1714  1  0.57793600  0.50269867  0.17542571  1.0
  Ni  Ni1715  1  0.57793600  0.83603200  0.17542571  1.0
  Ni  Ni1716  1  0.91126933  0.16936533  0.17542571  1.0
  Ni  Ni1717  1  0.91126933  0.50269867  0.17542571  1.0
  Ni  Ni1718  1  0.91126933  0.83603200  0.17542571  1.0
  Ni  Ni1719  1  0.07793600  0.00269867  0.24685429  1.0
  Ni  Ni1720  1  0.07793600  0.33603200  0.24685429  1.0
  Ni  Ni1721  1  0.07793600  0.66936533  0.24685429  1.0
  Ni  Ni1722  1  0.41126933  0.00269867  0.24685429  1.0
  Ni  Ni1723  1  0.41126933  0.33603200  0.24685429  1.0
  Ni  Ni1724  1  0.41126933  0.66936533  0.24685429  1.0
  Ni  Ni1725  1  0.74460267  0.00269867  0.24685429  1.0
  Ni  Ni1726  1  0.74460267  0.33603200  0.24685429  1.0
  Ni  Ni1727  1  0.74460267  0.66936533  0.24685429  1.0
  Ni  Ni1728  1  0.00134933  0.24865067  0.27967714  1.0
  Ni  Ni1729  1  0.00134933  0.58198400  0.27967714  1.0
  Ni  Ni1730  1  0.00134933  0.91531733  0.27967714  1.0
  Ni  Ni1731  1  0.33468267  0.24865067  0.27967714  1.0
  Ni  Ni1732  1  0.33468267  0.58198400  0.27967714  1.0
  Ni  Ni1733  1  0.33468267  0.91531733  0.27967714  1.0
  Ni  Ni1734  1  0.66801600  0.24865067  0.27967714  1.0
  Ni  Ni1735  1  0.66801600  0.58198400  0.27967714  1.0
  Ni  Ni1736  1  0.66801600  0.91531733  0.27967714  1.0
  Ni  Ni1737  1  0.16801600  0.08198400  0.20824857  1.0
  Ni  Ni1738  1  0.16801600  0.41531733  0.20824857  1.0
  Ni  Ni1739  1  0.16801600  0.74865067  0.20824857  1.0
  Ni  Ni1740  1  0.50134933  0.08198400  0.20824857  1.0
  Ni  Ni1741  1  0.50134933  0.41531733  0.20824857  1.0
  Ni  Ni1742  1  0.50134933  0.74865067  0.20824857  1.0
  Ni  Ni1743  1  0.83468267  0.08198400  0.20824857  1.0
  Ni  Ni1744  1  0.83468267  0.41531733  0.20824857  1.0
  Ni  Ni1745  1  0.83468267  0.74865067  0.20824857  1.0
  Ni  Ni1746  1  0.15992000  0.16801600  0.17600400  1.0
  Ni  Ni1747  1  0.15992000  0.50134933  0.17600400  1.0
  Ni  Ni1748  1  0.15992000  0.83468267  0.17600400  1.0
  Ni  Ni1749  1  0.49325333  0.16801600  0.17600400  1.0
  Ni  Ni1750  1  0.49325333  0.50134933  0.17600400  1.0
  Ni  Ni1751  1  0.49325333  0.83468267  0.17600400  1.0
  Ni  Ni1752  1  0.82658667  0.16801600  0.17600400  1.0
  Ni  Ni1753  1  0.82658667  0.50134933  0.17600400  1.0
  Ni  Ni1754  1  0.82658667  0.83468267  0.17600400  1.0
  Ni  Ni1755  1  0.32658667  0.00134933  0.24743257  1.0
  Ni  Ni1756  1  0.32658667  0.33468267  0.24743257  1.0
  Ni  Ni1757  1  0.32658667  0.66801600  0.24743257  1.0
  Ni  Ni1758  1  0.65992000  0.00134933  0.24743257  1.0
  Ni  Ni1759  1  0.65992000  0.33468267  0.24743257  1.0
  Ni  Ni1760  1  0.65992000  0.66801600  0.24743257  1.0
  Ni  Ni1761  1  0.99325333  0.00134933  0.24743257  1.0
  Ni  Ni1762  1  0.99325333  0.33468267  0.24743257  1.0
  Ni  Ni1763  1  0.99325333  0.66801600  0.24743257  1.0
  Ni  Ni1764  1  0.21103200  0.20833333  0.15409886  1.0
  Ni  Ni1765  1  0.21103200  0.54166667  0.15409886  1.0
  Ni  Ni1766  1  0.21103200  0.87500000  0.15409886  1.0
  Ni  Ni1767  1  0.54436533  0.20833333  0.15409886  1.0
  Ni  Ni1768  1  0.54436533  0.54166667  0.15409886  1.0
  Ni  Ni1769  1  0.54436533  0.87500000  0.15409886  1.0
  Ni  Ni1770  1  0.87769867  0.20833333  0.15409886  1.0
  Ni  Ni1771  1  0.87769867  0.54166667  0.15409886  1.0
  Ni  Ni1772  1  0.87769867  0.87500000  0.15409886  1.0
  Ni  Ni1773  1  0.04436533  0.04166667  0.22552743  1.0
  Ni  Ni1774  1  0.04436533  0.37500000  0.22552743  1.0
  Ni  Ni1775  1  0.04436533  0.70833333  0.22552743  1.0
  Ni  Ni1776  1  0.37769867  0.04166667  0.22552743  1.0
  Ni  Ni1777  1  0.37769867  0.37500000  0.22552743  1.0
  Ni  Ni1778  1  0.37769867  0.70833333  0.22552743  1.0
  Ni  Ni1779  1  0.71103200  0.04166667  0.22552743  1.0
  Ni  Ni1780  1  0.71103200  0.37500000  0.22552743  1.0
  Ni  Ni1781  1  0.71103200  0.70833333  0.22552743  1.0
  Ni  Ni1782  1  0.03761867  0.29301600  0.26528971  1.0
  Ni  Ni1783  1  0.03761867  0.62634933  0.26528971  1.0
  Ni  Ni1784  1  0.03761867  0.95968267  0.26528971  1.0
  Ni  Ni1785  1  0.37095200  0.29301600  0.26528971  1.0
  Ni  Ni1786  1  0.37095200  0.62634933  0.26528971  1.0
  Ni  Ni1787  1  0.37095200  0.95968267  0.26528971  1.0
  Ni  Ni1788  1  0.70428533  0.29301600  0.26528971  1.0
  Ni  Ni1789  1  0.70428533  0.62634933  0.26528971  1.0
  Ni  Ni1790  1  0.70428533  0.95968267  0.26528971  1.0
  Ni  Ni1791  1  0.20428533  0.12634933  0.19386114  1.0
  Ni  Ni1792  1  0.20428533  0.45968267  0.19386114  1.0
  Ni  Ni1793  1  0.20428533  0.79301600  0.19386114  1.0
  Ni  Ni1794  1  0.53761867  0.12634933  0.19386114  1.0
  Ni  Ni1795  1  0.53761867  0.45968267  0.19386114  1.0
  Ni  Ni1796  1  0.53761867  0.79301600  0.19386114  1.0
  Ni  Ni1797  1  0.87095200  0.12634933  0.19386114  1.0
  Ni  Ni1798  1  0.87095200  0.45968267  0.19386114  1.0
  Ni  Ni1799  1  0.87095200  0.79301600  0.19386114  1.0
  Ni  Ni1800  1  0.32928533  0.25134933  0.21171829  1.0
  Ni  Ni1801  1  0.32928533  0.58468267  0.21171829  1.0
  Ni  Ni1802  1  0.32928533  0.91801600  0.21171829  1.0
  Ni  Ni1803  1  0.66261867  0.25134933  0.21171829  1.0
  Ni  Ni1804  1  0.66261867  0.58468267  0.21171829  1.0
  Ni  Ni1805  1  0.66261867  0.91801600  0.21171829  1.0
  Ni  Ni1806  1  0.99595200  0.25134933  0.21171829  1.0
  Ni  Ni1807  1  0.99595200  0.58468267  0.21171829  1.0
  Ni  Ni1808  1  0.99595200  0.91801600  0.21171829  1.0
  Ni  Ni1809  1  0.16261867  0.08468267  0.28314686  1.0
  Ni  Ni1810  1  0.16261867  0.41801600  0.28314686  1.0
  Ni  Ni1811  1  0.16261867  0.75134933  0.28314686  1.0
  Ni  Ni1812  1  0.49595200  0.08468267  0.28314686  1.0
  Ni  Ni1813  1  0.49595200  0.41801600  0.28314686  1.0
  Ni  Ni1814  1  0.49595200  0.75134933  0.28314686  1.0
  Ni  Ni1815  1  0.82928533  0.08468267  0.28314686  1.0
  Ni  Ni1816  1  0.82928533  0.41801600  0.28314686  1.0
  Ni  Ni1817  1  0.82928533  0.75134933  0.28314686  1.0
  Ni  Ni1818  1  0.20968267  0.20698400  0.22610571  1.0
  Ni  Ni1819  1  0.20968267  0.54031733  0.22610571  1.0
  Ni  Ni1820  1  0.20968267  0.87365067  0.22610571  1.0
  Ni  Ni1821  1  0.54301600  0.20698400  0.22610571  1.0
  Ni  Ni1822  1  0.54301600  0.54031733  0.22610571  1.0
  Ni  Ni1823  1  0.54301600  0.87365067  0.22610571  1.0
  Ni  Ni1824  1  0.87634933  0.20698400  0.22610571  1.0
  Ni  Ni1825  1  0.87634933  0.54031733  0.22610571  1.0
  Ni  Ni1826  1  0.87634933  0.87365067  0.22610571  1.0
  Ni  Ni1827  1  0.04301600  0.04031733  0.15467714  1.0
  Ni  Ni1828  1  0.04301600  0.37365067  0.15467714  1.0
  Ni  Ni1829  1  0.04301600  0.70698400  0.15467714  1.0
  Ni  Ni1830  1  0.37634933  0.04031733  0.15467714  1.0
  Ni  Ni1831  1  0.37634933  0.37365067  0.15467714  1.0
  Ni  Ni1832  1  0.37634933  0.70698400  0.15467714  1.0
  Ni  Ni1833  1  0.70968267  0.04031733  0.15467714  1.0
  Ni  Ni1834  1  0.70968267  0.37365067  0.15467714  1.0
  Ni  Ni1835  1  0.70968267  0.70698400  0.15467714  1.0
  Ni  Ni1836  1  0.28492000  0.20968267  0.22957543  1.0
  Ni  Ni1837  1  0.28492000  0.54301600  0.22957543  1.0
  Ni  Ni1838  1  0.28492000  0.87634933  0.22957543  1.0
  Ni  Ni1839  1  0.61825333  0.20968267  0.22957543  1.0
  Ni  Ni1840  1  0.61825333  0.54301600  0.22957543  1.0
  Ni  Ni1841  1  0.61825333  0.87634933  0.22957543  1.0
  Ni  Ni1842  1  0.95158667  0.20968267  0.22957543  1.0
  Ni  Ni1843  1  0.95158667  0.54301600  0.22957543  1.0
  Ni  Ni1844  1  0.95158667  0.87634933  0.22957543  1.0
  Ni  Ni1845  1  0.11825333  0.04301600  0.15814686  1.0
  Ni  Ni1846  1  0.11825333  0.37634933  0.15814686  1.0
  Ni  Ni1847  1  0.11825333  0.70968267  0.15814686  1.0
  Ni  Ni1848  1  0.45158667  0.04301600  0.15814686  1.0
  Ni  Ni1849  1  0.45158667  0.37634933  0.15814686  1.0
  Ni  Ni1850  1  0.45158667  0.70968267  0.15814686  1.0
  Ni  Ni1851  1  0.78492000  0.04301600  0.15814686  1.0
  Ni  Ni1852  1  0.78492000  0.37634933  0.15814686  1.0
  Ni  Ni1853  1  0.78492000  0.70968267  0.15814686  1.0
  Ni  Ni1854  1  0.04436533  0.29166667  0.18981314  1.0
  Ni  Ni1855  1  0.04436533  0.62500000  0.18981314  1.0
  Ni  Ni1856  1  0.04436533  0.95833333  0.18981314  1.0
  Ni  Ni1857  1  0.37769867  0.29166667  0.18981314  1.0
  Ni  Ni1858  1  0.37769867  0.62500000  0.18981314  1.0
  Ni  Ni1859  1  0.37769867  0.95833333  0.18981314  1.0
  Ni  Ni1860  1  0.71103200  0.29166667  0.18981314  1.0
  Ni  Ni1861  1  0.71103200  0.62500000  0.18981314  1.0
  Ni  Ni1862  1  0.71103200  0.95833333  0.18981314  1.0
  Ni  Ni1863  1  0.21103200  0.12500000  0.26124171  1.0
  Ni  Ni1864  1  0.21103200  0.45833333  0.26124171  1.0
  Ni  Ni1865  1  0.21103200  0.79166667  0.26124171  1.0
  Ni  Ni1866  1  0.54436533  0.12500000  0.26124171  1.0
  Ni  Ni1867  1  0.54436533  0.45833333  0.26124171  1.0
  Ni  Ni1868  1  0.54436533  0.79166667  0.26124171  1.0
  Ni  Ni1869  1  0.87769867  0.12500000  0.26124171  1.0
  Ni  Ni1870  1  0.87769867  0.45833333  0.26124171  1.0
  Ni  Ni1871  1  0.87769867  0.79166667  0.26124171  1.0
  Ni  Ni1872  1  0.24460267  0.25269867  0.21114000  1.0
  Ni  Ni1873  1  0.24460267  0.58603200  0.21114000  1.0
  Ni  Ni1874  1  0.24460267  0.91936533  0.21114000  1.0
  Ni  Ni1875  1  0.57793600  0.25269867  0.21114000  1.0
  Ni  Ni1876  1  0.57793600  0.58603200  0.21114000  1.0
  Ni  Ni1877  1  0.57793600  0.91936533  0.21114000  1.0
  Ni  Ni1878  1  0.91126933  0.25269867  0.21114000  1.0
  Ni  Ni1879  1  0.91126933  0.58603200  0.21114000  1.0
  Ni  Ni1880  1  0.91126933  0.91936533  0.21114000  1.0
  Ni  Ni1881  1  0.07793600  0.08603200  0.28256857  1.0
  Ni  Ni1882  1  0.07793600  0.41936533  0.28256857  1.0
  Ni  Ni1883  1  0.07793600  0.75269867  0.28256857  1.0
  Ni  Ni1884  1  0.41126933  0.08603200  0.28256857  1.0
  Ni  Ni1885  1  0.41126933  0.41936533  0.28256857  1.0
  Ni  Ni1886  1  0.41126933  0.75269867  0.28256857  1.0
  Ni  Ni1887  1  0.74460267  0.08603200  0.28256857  1.0
  Ni  Ni1888  1  0.74460267  0.41936533  0.28256857  1.0
  Ni  Ni1889  1  0.74460267  0.75269867  0.28256857  1.0
  Ni  Ni1890  1  0.04301600  0.20968267  0.22494914  1.0
  Ni  Ni1891  1  0.04301600  0.54301600  0.22494914  1.0
  Ni  Ni1892  1  0.04301600  0.87634933  0.22494914  1.0
  Ni  Ni1893  1  0.37634933  0.20968267  0.22494914  1.0
  Ni  Ni1894  1  0.37634933  0.54301600  0.22494914  1.0
  Ni  Ni1895  1  0.37634933  0.87634933  0.22494914  1.0
  Ni  Ni1896  1  0.70968267  0.20968267  0.22494914  1.0
  Ni  Ni1897  1  0.70968267  0.54301600  0.22494914  1.0
  Ni  Ni1898  1  0.70968267  0.87634933  0.22494914  1.0
  Ni  Ni1899  1  0.20968267  0.04301600  0.15352057  1.0
  Ni  Ni1900  1  0.20968267  0.37634933  0.15352057  1.0
  Ni  Ni1901  1  0.20968267  0.70968267  0.15352057  1.0
  Ni  Ni1902  1  0.54301600  0.04301600  0.15352057  1.0
  Ni  Ni1903  1  0.54301600  0.37634933  0.15352057  1.0
  Ni  Ni1904  1  0.54301600  0.70968267  0.15352057  1.0
  Ni  Ni1905  1  0.87634933  0.04301600  0.15352057  1.0
  Ni  Ni1906  1  0.87634933  0.37634933  0.15352057  1.0
  Ni  Ni1907  1  0.87634933  0.70968267  0.15352057  1.0
  Ni  Ni1908  1  0.16531733  0.33198400  0.17253429  1.0
  Ni  Ni1909  1  0.16531733  0.66531733  0.17253429  1.0
  Ni  Ni1910  1  0.16531733  0.99865067  0.17253429  1.0
  Ni  Ni1911  1  0.49865067  0.33198400  0.17253429  1.0
  Ni  Ni1912  1  0.49865067  0.66531733  0.17253429  1.0
  Ni  Ni1913  1  0.49865067  0.99865067  0.17253429  1.0
  Ni  Ni1914  1  0.83198400  0.33198400  0.17253429  1.0
  Ni  Ni1915  1  0.83198400  0.66531733  0.17253429  1.0
  Ni  Ni1916  1  0.83198400  0.99865067  0.17253429  1.0
  Ni  Ni1917  1  0.33198400  0.16531733  0.24396286  1.0
  Ni  Ni1918  1  0.33198400  0.49865067  0.24396286  1.0
  Ni  Ni1919  1  0.33198400  0.83198400  0.24396286  1.0
  Ni  Ni1920  1  0.66531733  0.16531733  0.24396286  1.0
  Ni  Ni1921  1  0.66531733  0.49865067  0.24396286  1.0
  Ni  Ni1922  1  0.66531733  0.83198400  0.24396286  1.0
  Ni  Ni1923  1  0.99865067  0.16531733  0.24396286  1.0
  Ni  Ni1924  1  0.99865067  0.49865067  0.24396286  1.0
  Ni  Ni1925  1  0.99865067  0.83198400  0.24396286  1.0
  Ni  Ni1926  1  0.25539733  0.33063467  0.16848629  1.0
  Ni  Ni1927  1  0.25539733  0.66396800  0.16848629  1.0
  Ni  Ni1928  1  0.25539733  0.99730133  0.16848629  1.0
  Ni  Ni1929  1  0.58873067  0.33063467  0.16848629  1.0
  Ni  Ni1930  1  0.58873067  0.66396800  0.16848629  1.0
  Ni  Ni1931  1  0.58873067  0.99730133  0.16848629  1.0
  Ni  Ni1932  1  0.92206400  0.33063467  0.16848629  1.0
  Ni  Ni1933  1  0.92206400  0.66396800  0.16848629  1.0
  Ni  Ni1934  1  0.92206400  0.99730133  0.16848629  1.0
  Ni  Ni1935  1  0.08873067  0.16396800  0.23991486  1.0
  Ni  Ni1936  1  0.08873067  0.49730133  0.23991486  1.0
  Ni  Ni1937  1  0.08873067  0.83063467  0.23991486  1.0
  Ni  Ni1938  1  0.42206400  0.16396800  0.23991486  1.0
  Ni  Ni1939  1  0.42206400  0.49730133  0.23991486  1.0
  Ni  Ni1940  1  0.42206400  0.83063467  0.23991486  1.0
  Ni  Ni1941  1  0.75539733  0.16396800  0.23991486  1.0
  Ni  Ni1942  1  0.75539733  0.49730133  0.23991486  1.0
  Ni  Ni1943  1  0.75539733  0.83063467  0.23991486  1.0
  Ni  Ni1944  1  0.16531733  0.25134933  0.20709200  1.0
  Ni  Ni1945  1  0.16531733  0.58468267  0.20709200  1.0
  Ni  Ni1946  1  0.16531733  0.91801600  0.20709200  1.0
  Ni  Ni1947  1  0.49865067  0.25134933  0.20709200  1.0
  Ni  Ni1948  1  0.49865067  0.58468267  0.20709200  1.0
  Ni  Ni1949  1  0.49865067  0.91801600  0.20709200  1.0
  Ni  Ni1950  1  0.83198400  0.25134933  0.20709200  1.0
  Ni  Ni1951  1  0.83198400  0.58468267  0.20709200  1.0
  Ni  Ni1952  1  0.83198400  0.91801600  0.20709200  1.0
  Ni  Ni1953  1  0.33198400  0.08468267  0.27852057  1.0
  Ni  Ni1954  1  0.33198400  0.41801600  0.27852057  1.0
  Ni  Ni1955  1  0.33198400  0.75134933  0.27852057  1.0
  Ni  Ni1956  1  0.66531733  0.08468267  0.27852057  1.0
  Ni  Ni1957  1  0.66531733  0.41801600  0.27852057  1.0
  Ni  Ni1958  1  0.66531733  0.75134933  0.27852057  1.0
  Ni  Ni1959  1  0.99865067  0.08468267  0.27852057  1.0
  Ni  Ni1960  1  0.99865067  0.41801600  0.27852057  1.0
  Ni  Ni1961  1  0.99865067  0.75134933  0.27852057  1.0
  Ni  Ni1962  1  0.00674667  0.33198400  0.16790800  1.0
  Ni  Ni1963  1  0.00674667  0.66531733  0.16790800  1.0
  Ni  Ni1964  1  0.00674667  0.99865067  0.16790800  1.0
  Ni  Ni1965  1  0.34008000  0.33198400  0.16790800  1.0
  Ni  Ni1966  1  0.34008000  0.66531733  0.16790800  1.0
  Ni  Ni1967  1  0.34008000  0.99865067  0.16790800  1.0
  Ni  Ni1968  1  0.67341333  0.33198400  0.16790800  1.0
  Ni  Ni1969  1  0.67341333  0.66531733  0.16790800  1.0
  Ni  Ni1970  1  0.67341333  0.99865067  0.16790800  1.0
  Ni  Ni1971  1  0.17341333  0.16531733  0.23933657  1.0
  Ni  Ni1972  1  0.17341333  0.49865067  0.23933657  1.0
  Ni  Ni1973  1  0.17341333  0.83198400  0.23933657  1.0
  Ni  Ni1974  1  0.50674667  0.16531733  0.23933657  1.0
  Ni  Ni1975  1  0.50674667  0.49865067  0.23933657  1.0
  Ni  Ni1976  1  0.50674667  0.83198400  0.23933657  1.0
  Ni  Ni1977  1  0.84008000  0.16531733  0.23933657  1.0
  Ni  Ni1978  1  0.84008000  0.49865067  0.23933657  1.0
  Ni  Ni1979  1  0.84008000  0.83198400  0.23933657  1.0
  Ni  Ni1980  1  0.28896800  0.29166667  0.18981314  1.0
  Ni  Ni1981  1  0.28896800  0.62500000  0.18981314  1.0
  Ni  Ni1982  1  0.28896800  0.95833333  0.18981314  1.0
  Ni  Ni1983  1  0.62230133  0.29166667  0.18981314  1.0
  Ni  Ni1984  1  0.62230133  0.62500000  0.18981314  1.0
  Ni  Ni1985  1  0.62230133  0.95833333  0.18981314  1.0
  Ni  Ni1986  1  0.95563467  0.29166667  0.18981314  1.0
  Ni  Ni1987  1  0.95563467  0.62500000  0.18981314  1.0
  Ni  Ni1988  1  0.95563467  0.95833333  0.18981314  1.0
  Ni  Ni1989  1  0.12230133  0.12500000  0.26124171  1.0
  Ni  Ni1990  1  0.12230133  0.45833333  0.26124171  1.0
  Ni  Ni1991  1  0.12230133  0.79166667  0.26124171  1.0
  Ni  Ni1992  1  0.45563467  0.12500000  0.26124171  1.0
  Ni  Ni1993  1  0.45563467  0.45833333  0.26124171  1.0
  Ni  Ni1994  1  0.45563467  0.79166667  0.26124171  1.0
  Ni  Ni1995  1  0.78896800  0.12500000  0.26124171  1.0
  Ni  Ni1996  1  0.78896800  0.45833333  0.26124171  1.0
  Ni  Ni1997  1  0.78896800  0.79166667  0.26124171  1.0
  Ni  Ni1998  1  0.12904800  0.20698400  0.22147943  1.0
  Ni  Ni1999  1  0.12904800  0.54031733  0.22147943  1.0
  Ni  Ni2000  1  0.12904800  0.87365067  0.22147943  1.0
  Ni  Ni2001  1  0.46238133  0.20698400  0.22147943  1.0
  Ni  Ni2002  1  0.46238133  0.54031733  0.22147943  1.0
  Ni  Ni2003  1  0.46238133  0.87365067  0.22147943  1.0
  Ni  Ni2004  1  0.79571467  0.20698400  0.22147943  1.0
  Ni  Ni2005  1  0.79571467  0.54031733  0.22147943  1.0
  Ni  Ni2006  1  0.79571467  0.87365067  0.22147943  1.0
  Ni  Ni2007  1  0.29571467  0.04031733  0.15005086  1.0
  Ni  Ni2008  1  0.29571467  0.37365067  0.15005086  1.0
  Ni  Ni2009  1  0.29571467  0.70698400  0.15005086  1.0
  Ni  Ni2010  1  0.62904800  0.04031733  0.15005086  1.0
  Ni  Ni2011  1  0.62904800  0.37365067  0.15005086  1.0
  Ni  Ni2012  1  0.62904800  0.70698400  0.15005086  1.0
  Ni  Ni2013  1  0.96238133  0.04031733  0.15005086  1.0
  Ni  Ni2014  1  0.96238133  0.37365067  0.15005086  1.0
  Ni  Ni2015  1  0.96238133  0.70698400  0.15005086  1.0
  Ga  Ga2016  1  0.33333333  0.16666667  0.42195600  1.0
  Ga  Ga2017  1  0.33333333  0.50000000  0.42195600  1.0
  Ga  Ga2018  1  0.33333333  0.83333333  0.42195600  1.0
  Ga  Ga2019  1  0.66666667  0.16666667  0.42195600  1.0
  Ga  Ga2020  1  0.66666667  0.50000000  0.42195600  1.0
  Ga  Ga2021  1  0.66666667  0.83333333  0.42195600  1.0
  Ga  Ga2022  1  1.00000000  0.16666667  0.42195600  1.0
  Ga  Ga2023  1  1.00000000  0.50000000  0.42195600  1.0
  Ga  Ga2024  1  1.00000000  0.83333333  0.42195600  1.0
  Ga  Ga2025  1  0.16666667  0.00000000  0.35052743  1.0
  Ga  Ga2026  1  0.16666667  0.33333333  0.35052743  1.0
  Ga  Ga2027  1  0.16666667  0.66666667  0.35052743  1.0
  Ga  Ga2028  1  0.50000000  0.00000000  0.35052743  1.0
  Ga  Ga2029  1  0.50000000  0.33333333  0.35052743  1.0
  Ga  Ga2030  1  0.50000000  0.66666667  0.35052743  1.0
  Ga  Ga2031  1  0.83333333  0.00000000  0.35052743  1.0
  Ga  Ga2032  1  0.83333333  0.33333333  0.35052743  1.0
  Ga  Ga2033  1  0.83333333  0.66666667  0.35052743  1.0
  Ga  Ga2034  1  0.33333333  0.16666667  0.35052743  1.0
  Ga  Ga2035  1  0.33333333  0.50000000  0.35052743  1.0
  Ga  Ga2036  1  0.33333333  0.83333333  0.35052743  1.0
  Ga  Ga2037  1  0.66666667  0.16666667  0.35052743  1.0
  Ga  Ga2038  1  0.66666667  0.50000000  0.35052743  1.0
  Ga  Ga2039  1  0.66666667  0.83333333  0.35052743  1.0
  Ga  Ga2040  1  0.00000000  0.16666667  0.35052743  1.0
  Ga  Ga2041  1  0.00000000  0.50000000  0.35052743  1.0
  Ga  Ga2042  1  0.00000000  0.83333333  0.35052743  1.0
  Ga  Ga2043  1  0.16666667  0.33333333  0.42195600  1.0
  Ga  Ga2044  1  0.16666667  0.66666667  0.42195600  1.0
  Ga  Ga2045  1  0.16666667  0.00000000  0.42195600  1.0
  Ga  Ga2046  1  0.50000000  0.33333333  0.42195600  1.0
  Ga  Ga2047  1  0.50000000  0.66666667  0.42195600  1.0
  Ga  Ga2048  1  0.50000000  0.00000000  0.42195600  1.0
  Ga  Ga2049  1  0.83333333  0.33333333  0.42195600  1.0
  Ga  Ga2050  1  0.83333333  0.66666667  0.42195600  1.0
  Ga  Ga2051  1  0.83333333  0.00000000  0.42195600  1.0
  Ga  Ga2052  1  0.08333333  0.25000000  0.31481314  1.0
  Ga  Ga2053  1  0.08333333  0.58333333  0.31481314  1.0
  Ga  Ga2054  1  0.08333333  0.91666667  0.31481314  1.0
  Ga  Ga2055  1  0.41666667  0.25000000  0.31481314  1.0
  Ga  Ga2056  1  0.41666667  0.58333333  0.31481314  1.0
  Ga  Ga2057  1  0.41666667  0.91666667  0.31481314  1.0
  Ga  Ga2058  1  0.75000000  0.25000000  0.31481314  1.0
  Ga  Ga2059  1  0.75000000  0.58333333  0.31481314  1.0
  Ga  Ga2060  1  0.75000000  0.91666667  0.31481314  1.0
  Ga  Ga2061  1  0.25000000  0.08333333  0.38624171  1.0
  Ga  Ga2062  1  0.25000000  0.41666667  0.38624171  1.0
  Ga  Ga2063  1  0.25000000  0.75000000  0.38624171  1.0
  Ga  Ga2064  1  0.58333333  0.08333333  0.38624171  1.0
  Ga  Ga2065  1  0.58333333  0.41666667  0.38624171  1.0
  Ga  Ga2066  1  0.58333333  0.75000000  0.38624171  1.0
  Ga  Ga2067  1  0.91666667  0.08333333  0.38624171  1.0
  Ga  Ga2068  1  0.91666667  0.41666667  0.38624171  1.0
  Ga  Ga2069  1  0.91666667  0.75000000  0.38624171  1.0
  Ga  Ga2070  1  0.16666667  0.16666667  0.35052743  1.0
  Ga  Ga2071  1  0.16666667  0.50000000  0.35052743  1.0
  Ga  Ga2072  1  0.16666667  0.83333333  0.35052743  1.0
  Ga  Ga2073  1  0.50000000  0.16666667  0.35052743  1.0
  Ga  Ga2074  1  0.50000000  0.50000000  0.35052743  1.0
  Ga  Ga2075  1  0.50000000  0.83333333  0.35052743  1.0
  Ga  Ga2076  1  0.83333333  0.16666667  0.35052743  1.0
  Ga  Ga2077  1  0.83333333  0.50000000  0.35052743  1.0
  Ga  Ga2078  1  0.83333333  0.83333333  0.35052743  1.0
  Ga  Ga2079  1  0.00000000  0.00000000  0.42195600  1.0
  Ga  Ga2080  1  0.00000000  0.33333333  0.42195600  1.0
  Ga  Ga2081  1  0.00000000  0.66666667  0.42195600  1.0
  Ga  Ga2082  1  0.33333333  0.00000000  0.42195600  1.0
  Ga  Ga2083  1  0.33333333  0.33333333  0.42195600  1.0
  Ga  Ga2084  1  0.33333333  0.66666667  0.42195600  1.0
  Ga  Ga2085  1  0.66666667  0.00000000  0.42195600  1.0
  Ga  Ga2086  1  0.66666667  0.33333333  0.42195600  1.0
  Ga  Ga2087  1  0.66666667  0.66666667  0.42195600  1.0
  Ga  Ga2088  1  0.08333333  0.25000000  0.38624171  1.0
  Ga  Ga2089  1  0.08333333  0.58333333  0.38624171  1.0
  Ga  Ga2090  1  0.08333333  0.91666667  0.38624171  1.0
  Ga  Ga2091  1  0.41666667  0.25000000  0.38624171  1.0
  Ga  Ga2092  1  0.41666667  0.58333333  0.38624171  1.0
  Ga  Ga2093  1  0.41666667  0.91666667  0.38624171  1.0
  Ga  Ga2094  1  0.75000000  0.25000000  0.38624171  1.0
  Ga  Ga2095  1  0.75000000  0.58333333  0.38624171  1.0
  Ga  Ga2096  1  0.75000000  0.91666667  0.38624171  1.0
  Ga  Ga2097  1  0.25000000  0.08333333  0.31481314  1.0
  Ga  Ga2098  1  0.25000000  0.41666667  0.31481314  1.0
  Ga  Ga2099  1  0.25000000  0.75000000  0.31481314  1.0
  Ga  Ga2100  1  0.58333333  0.08333333  0.31481314  1.0
  Ga  Ga2101  1  0.58333333  0.41666667  0.31481314  1.0
  Ga  Ga2102  1  0.58333333  0.75000000  0.31481314  1.0
  Ga  Ga2103  1  0.91666667  0.08333333  0.31481314  1.0
  Ga  Ga2104  1  0.91666667  0.41666667  0.31481314  1.0
  Ga  Ga2105  1  0.91666667  0.75000000  0.31481314  1.0
  Ga  Ga2106  1  0.25000000  0.25000000  0.38624171  1.0
  Ga  Ga2107  1  0.25000000  0.58333333  0.38624171  1.0
  Ga  Ga2108  1  0.25000000  0.91666667  0.38624171  1.0
  Ga  Ga2109  1  0.58333333  0.25000000  0.38624171  1.0
  Ga  Ga2110  1  0.58333333  0.58333333  0.38624171  1.0
  Ga  Ga2111  1  0.58333333  0.91666667  0.38624171  1.0
  Ga  Ga2112  1  0.91666667  0.25000000  0.38624171  1.0
  Ga  Ga2113  1  0.91666667  0.58333333  0.38624171  1.0
  Ga  Ga2114  1  0.91666667  0.91666667  0.38624171  1.0
  Ga  Ga2115  1  0.08333333  0.08333333  0.31481314  1.0
  Ga  Ga2116  1  0.08333333  0.41666667  0.31481314  1.0
  Ga  Ga2117  1  0.08333333  0.75000000  0.31481314  1.0
  Ga  Ga2118  1  0.41666667  0.08333333  0.31481314  1.0
  Ga  Ga2119  1  0.41666667  0.41666667  0.31481314  1.0
  Ga  Ga2120  1  0.41666667  0.75000000  0.31481314  1.0
  Ga  Ga2121  1  0.75000000  0.08333333  0.31481314  1.0
  Ga  Ga2122  1  0.75000000  0.41666667  0.31481314  1.0
  Ga  Ga2123  1  0.75000000  0.75000000  0.31481314  1.0
  Ga  Ga2124  1  0.16666667  0.16666667  0.42195600  1.0
  Ga  Ga2125  1  0.16666667  0.50000000  0.42195600  1.0
  Ga  Ga2126  1  0.16666667  0.83333333  0.42195600  1.0
  Ga  Ga2127  1  0.50000000  0.16666667  0.42195600  1.0
  Ga  Ga2128  1  0.50000000  0.50000000  0.42195600  1.0
  Ga  Ga2129  1  0.50000000  0.83333333  0.42195600  1.0
  Ga  Ga2130  1  0.83333333  0.16666667  0.42195600  1.0
  Ga  Ga2131  1  0.83333333  0.50000000  0.42195600  1.0
  Ga  Ga2132  1  0.83333333  0.83333333  0.42195600  1.0
  Ga  Ga2133  1  0.33333333  0.00000000  0.35052743  1.0
  Ga  Ga2134  1  0.33333333  0.33333333  0.35052743  1.0
  Ga  Ga2135  1  0.33333333  0.66666667  0.35052743  1.0
  Ga  Ga2136  1  0.66666667  0.00000000  0.35052743  1.0
  Ga  Ga2137  1  0.66666667  0.33333333  0.35052743  1.0
  Ga  Ga2138  1  0.66666667  0.66666667  0.35052743  1.0
  Ga  Ga2139  1  0.00000000  0.00000000  0.35052743  1.0
  Ga  Ga2140  1  0.00000000  0.33333333  0.35052743  1.0
  Ga  Ga2141  1  0.00000000  0.66666667  0.35052743  1.0
  Ga  Ga2142  1  0.25000000  0.25000000  0.31481314  1.0
  Ga  Ga2143  1  0.25000000  0.58333333  0.31481314  1.0
  Ga  Ga2144  1  0.25000000  0.91666667  0.31481314  1.0
  Ga  Ga2145  1  0.58333333  0.25000000  0.31481314  1.0
  Ga  Ga2146  1  0.58333333  0.58333333  0.31481314  1.0
  Ga  Ga2147  1  0.58333333  0.91666667  0.31481314  1.0
  Ga  Ga2148  1  0.91666667  0.25000000  0.31481314  1.0
  Ga  Ga2149  1  0.91666667  0.58333333  0.31481314  1.0
  Ga  Ga2150  1  0.91666667  0.91666667  0.31481314  1.0
  Ga  Ga2151  1  0.08333333  0.08333333  0.38624171  1.0
  Ga  Ga2152  1  0.08333333  0.41666667  0.38624171  1.0
  Ga  Ga2153  1  0.08333333  0.75000000  0.38624171  1.0
  Ga  Ga2154  1  0.41666667  0.08333333  0.38624171  1.0
  Ga  Ga2155  1  0.41666667  0.41666667  0.38624171  1.0
  Ga  Ga2156  1  0.41666667  0.75000000  0.38624171  1.0
  Ga  Ga2157  1  0.75000000  0.08333333  0.38624171  1.0
  Ga  Ga2158  1  0.75000000  0.41666667  0.38624171  1.0
  Ga  Ga2159  1  0.75000000  0.75000000  0.38624171  1.0
  Ga  Ga2160  1  0.07718158  0.16871725  0.35316389  1.0
  Ga  Ga2161  1  0.07718158  0.50205058  0.35316389  1.0
  Ga  Ga2162  1  0.07718158  0.83538392  0.35316389  1.0
  Ga  Ga2163  1  0.41051492  0.16871725  0.35316389  1.0
  Ga  Ga2164  1  0.41051492  0.50205058  0.35316389  1.0
  Ga  Ga2165  1  0.41051492  0.83538392  0.35316389  1.0
  Ga  Ga2166  1  0.74384825  0.16871725  0.35316389  1.0
  Ga  Ga2167  1  0.74384825  0.50205058  0.35316389  1.0
  Ga  Ga2168  1  0.74384825  0.83538392  0.35316389  1.0
  Ga  Ga2169  1  0.24384825  0.00205058  0.42459246  1.0
  Ga  Ga2170  1  0.24384825  0.33538392  0.42459246  1.0
  Ga  Ga2171  1  0.24384825  0.66871725  0.42459246  1.0
  Ga  Ga2172  1  0.57718158  0.00205058  0.42459246  1.0
  Ga  Ga2173  1  0.57718158  0.33538392  0.42459246  1.0
  Ga  Ga2174  1  0.57718158  0.66871725  0.42459246  1.0
  Ga  Ga2175  1  0.91051492  0.00205058  0.42459246  1.0
  Ga  Ga2176  1  0.91051492  0.33538392  0.42459246  1.0
  Ga  Ga2177  1  0.91051492  0.66871725  0.42459246  1.0
  Ga  Ga2178  1  0.08128275  0.16871725  0.42459246  1.0
  Ga  Ga2179  1  0.08128275  0.50205058  0.42459246  1.0
  Ga  Ga2180  1  0.08128275  0.83538392  0.42459246  1.0
  Ga  Ga2181  1  0.41461608  0.16871725  0.42459246  1.0
  Ga  Ga2182  1  0.41461608  0.50205058  0.42459246  1.0
  Ga  Ga2183  1  0.41461608  0.83538392  0.42459246  1.0
  Ga  Ga2184  1  0.74794942  0.16871725  0.42459246  1.0
  Ga  Ga2185  1  0.74794942  0.50205058  0.42459246  1.0
  Ga  Ga2186  1  0.74794942  0.83538392  0.42459246  1.0
  Ga  Ga2187  1  0.24794942  0.00205058  0.35316389  1.0
  Ga  Ga2188  1  0.24794942  0.33538392  0.35316389  1.0
  Ga  Ga2189  1  0.24794942  0.66871725  0.35316389  1.0
  Ga  Ga2190  1  0.58128275  0.00205058  0.35316389  1.0
  Ga  Ga2191  1  0.58128275  0.33538392  0.35316389  1.0
  Ga  Ga2192  1  0.58128275  0.66871725  0.35316389  1.0
  Ga  Ga2193  1  0.91461608  0.00205058  0.35316389  1.0
  Ga  Ga2194  1  0.91461608  0.33538392  0.35316389  1.0
  Ga  Ga2195  1  0.91461608  0.66871725  0.35316389  1.0
  Ga  Ga2196  1  0.16871725  0.24794942  0.38360525  1.0
  Ga  Ga2197  1  0.16871725  0.58128275  0.38360525  1.0
  Ga  Ga2198  1  0.16871725  0.91461608  0.38360525  1.0
  Ga  Ga2199  1  0.50205058  0.24794942  0.38360525  1.0
  Ga  Ga2200  1  0.50205058  0.58128275  0.38360525  1.0
  Ga  Ga2201  1  0.50205058  0.91461608  0.38360525  1.0
  Ga  Ga2202  1  0.83538392  0.24794942  0.38360525  1.0
  Ga  Ga2203  1  0.83538392  0.58128275  0.38360525  1.0
  Ga  Ga2204  1  0.83538392  0.91461608  0.38360525  1.0
  Ga  Ga2205  1  0.00205058  0.08128275  0.31217668  1.0
  Ga  Ga2206  1  0.00205058  0.41461608  0.31217668  1.0
  Ga  Ga2207  1  0.00205058  0.74794942  0.31217668  1.0
  Ga  Ga2208  1  0.33538392  0.08128275  0.31217668  1.0
  Ga  Ga2209  1  0.33538392  0.41461608  0.31217668  1.0
  Ga  Ga2210  1  0.33538392  0.74794942  0.31217668  1.0
  Ga  Ga2211  1  0.66871725  0.08128275  0.31217668  1.0
  Ga  Ga2212  1  0.66871725  0.41461608  0.31217668  1.0
  Ga  Ga2213  1  0.66871725  0.74794942  0.31217668  1.0
  Ga  Ga2214  1  0.03756550  0.20833333  0.40761414  1.0
  Ga  Ga2215  1  0.03756550  0.54166667  0.40761414  1.0
  Ga  Ga2216  1  0.03756550  0.87500000  0.40761414  1.0
  Ga  Ga2217  1  0.37089883  0.20833333  0.40761414  1.0
  Ga  Ga2218  1  0.37089883  0.54166667  0.40761414  1.0
  Ga  Ga2219  1  0.37089883  0.87500000  0.40761414  1.0
  Ga  Ga2220  1  0.70423217  0.20833333  0.40761414  1.0
  Ga  Ga2221  1  0.70423217  0.54166667  0.40761414  1.0
  Ga  Ga2222  1  0.70423217  0.87500000  0.40761414  1.0
  Ga  Ga2223  1  0.20423217  0.04166667  0.33618557  1.0
  Ga  Ga2224  1  0.20423217  0.37500000  0.33618557  1.0
  Ga  Ga2225  1  0.20423217  0.70833333  0.33618557  1.0
  Ga  Ga2226  1  0.53756550  0.04166667  0.33618557  1.0
  Ga  Ga2227  1  0.53756550  0.37500000  0.33618557  1.0
  Ga  Ga2228  1  0.53756550  0.70833333  0.33618557  1.0
  Ga  Ga2229  1  0.87089883  0.04166667  0.33618557  1.0
  Ga  Ga2230  1  0.87089883  0.37500000  0.33618557  1.0
  Ga  Ga2231  1  0.87089883  0.70833333  0.33618557  1.0
  Ga  Ga2232  1  0.29576783  0.29166667  0.36486929  1.0
  Ga  Ga2233  1  0.29576783  0.62500000  0.36486929  1.0
  Ga  Ga2234  1  0.29576783  0.95833333  0.36486929  1.0
  Ga  Ga2235  1  0.62910117  0.29166667  0.36486929  1.0
  Ga  Ga2236  1  0.62910117  0.62500000  0.36486929  1.0
  Ga  Ga2237  1  0.62910117  0.95833333  0.36486929  1.0
  Ga  Ga2238  1  0.96243450  0.29166667  0.36486929  1.0
  Ga  Ga2239  1  0.96243450  0.62500000  0.36486929  1.0
  Ga  Ga2240  1  0.96243450  0.95833333  0.36486929  1.0
  Ga  Ga2241  1  0.12910117  0.12500000  0.29344071  1.0
  Ga  Ga2242  1  0.12910117  0.45833333  0.29344071  1.0
  Ga  Ga2243  1  0.12910117  0.79166667  0.29344071  1.0
  Ga  Ga2244  1  0.46243450  0.12500000  0.29344071  1.0
  Ga  Ga2245  1  0.46243450  0.45833333  0.29344071  1.0
  Ga  Ga2246  1  0.46243450  0.79166667  0.29344071  1.0
  Ga  Ga2247  1  0.79576783  0.12500000  0.29344071  1.0
  Ga  Ga2248  1  0.79576783  0.45833333  0.29344071  1.0
  Ga  Ga2249  1  0.79576783  0.79166667  0.29344071  1.0
  Ga  Ga2250  1  0.11884825  0.21038392  0.40673532  1.0
  Ga  Ga2251  1  0.11884825  0.54371725  0.40673532  1.0
  Ga  Ga2252  1  0.11884825  0.87705058  0.40673532  1.0
  Ga  Ga2253  1  0.45218158  0.21038392  0.40673532  1.0
  Ga  Ga2254  1  0.45218158  0.54371725  0.40673532  1.0
  Ga  Ga2255  1  0.45218158  0.87705058  0.40673532  1.0
  Ga  Ga2256  1  0.78551492  0.21038392  0.40673532  1.0
  Ga  Ga2257  1  0.78551492  0.54371725  0.40673532  1.0
  Ga  Ga2258  1  0.78551492  0.87705058  0.40673532  1.0
  Ga  Ga2259  1  0.28551492  0.04371725  0.33530675  1.0
  Ga  Ga2260  1  0.28551492  0.37705058  0.33530675  1.0
  Ga  Ga2261  1  0.28551492  0.71038392  0.33530675  1.0
  Ga  Ga2262  1  0.61884825  0.04371725  0.33530675  1.0
  Ga  Ga2263  1  0.61884825  0.37705058  0.33530675  1.0
  Ga  Ga2264  1  0.61884825  0.71038392  0.33530675  1.0
  Ga  Ga2265  1  0.95218158  0.04371725  0.33530675  1.0
  Ga  Ga2266  1  0.95218158  0.37705058  0.33530675  1.0
  Ga  Ga2267  1  0.95218158  0.71038392  0.33530675  1.0
  Ga  Ga2268  1  0.03756550  0.29166667  0.30047129  1.0
  Ga  Ga2269  1  0.03756550  0.62500000  0.30047129  1.0
  Ga  Ga2270  1  0.03756550  0.95833333  0.30047129  1.0
  Ga  Ga2271  1  0.37089883  0.29166667  0.30047129  1.0
  Ga  Ga2272  1  0.37089883  0.62500000  0.30047129  1.0
  Ga  Ga2273  1  0.37089883  0.95833333  0.30047129  1.0
  Ga  Ga2274  1  0.70423217  0.29166667  0.30047129  1.0
  Ga  Ga2275  1  0.70423217  0.62500000  0.30047129  1.0
  Ga  Ga2276  1  0.70423217  0.95833333  0.30047129  1.0
  Ga  Ga2277  1  0.20423217  0.12500000  0.37189986  1.0
  Ga  Ga2278  1  0.20423217  0.45833333  0.37189986  1.0
  Ga  Ga2279  1  0.20423217  0.79166667  0.37189986  1.0
  Ga  Ga2280  1  0.53756550  0.12500000  0.37189986  1.0
  Ga  Ga2281  1  0.53756550  0.45833333  0.37189986  1.0
  Ga  Ga2282  1  0.53756550  0.79166667  0.37189986  1.0
  Ga  Ga2283  1  0.87089883  0.12500000  0.37189986  1.0
  Ga  Ga2284  1  0.87089883  0.45833333  0.37189986  1.0
  Ga  Ga2285  1  0.87089883  0.79166667  0.37189986  1.0
  Ga  Ga2286  1  0.04371725  0.20628275  0.33003382  1.0
  Ga  Ga2287  1  0.04371725  0.53961608  0.33003382  1.0
  Ga  Ga2288  1  0.04371725  0.87294942  0.33003382  1.0
  Ga  Ga2289  1  0.37705058  0.20628275  0.33003382  1.0
  Ga  Ga2290  1  0.37705058  0.53961608  0.33003382  1.0
  Ga  Ga2291  1  0.37705058  0.87294942  0.33003382  1.0
  Ga  Ga2292  1  0.71038392  0.20628275  0.33003382  1.0
  Ga  Ga2293  1  0.71038392  0.53961608  0.33003382  1.0
  Ga  Ga2294  1  0.71038392  0.87294942  0.33003382  1.0
  Ga  Ga2295  1  0.21038392  0.03961608  0.40146239  1.0
  Ga  Ga2296  1  0.21038392  0.37294942  0.40146239  1.0
  Ga  Ga2297  1  0.21038392  0.70628275  0.40146239  1.0
  Ga  Ga2298  1  0.54371725  0.03961608  0.40146239  1.0
  Ga  Ga2299  1  0.54371725  0.37294942  0.40146239  1.0
  Ga  Ga2300  1  0.54371725  0.70628275  0.40146239  1.0
  Ga  Ga2301  1  0.87705058  0.03961608  0.40146239  1.0
  Ga  Ga2302  1  0.87705058  0.37294942  0.40146239  1.0
  Ga  Ga2303  1  0.87705058  0.70628275  0.40146239  1.0
  Ga  Ga2304  1  0.29576783  0.20833333  0.32915500  1.0
  Ga  Ga2305  1  0.29576783  0.54166667  0.32915500  1.0
  Ga  Ga2306  1  0.29576783  0.87500000  0.32915500  1.0
  Ga  Ga2307  1  0.62910117  0.20833333  0.32915500  1.0
  Ga  Ga2308  1  0.62910117  0.54166667  0.32915500  1.0
  Ga  Ga2309  1  0.62910117  0.87500000  0.32915500  1.0
  Ga  Ga2310  1  0.96243450  0.20833333  0.32915500  1.0
  Ga  Ga2311  1  0.96243450  0.54166667  0.32915500  1.0
  Ga  Ga2312  1  0.96243450  0.87500000  0.32915500  1.0
  Ga  Ga2313  1  0.12910117  0.04166667  0.40058357  1.0
  Ga  Ga2314  1  0.12910117  0.37500000  0.40058357  1.0
  Ga  Ga2315  1  0.12910117  0.70833333  0.40058357  1.0
  Ga  Ga2316  1  0.46243450  0.04166667  0.40058357  1.0
  Ga  Ga2317  1  0.46243450  0.37500000  0.40058357  1.0
  Ga  Ga2318  1  0.46243450  0.70833333  0.40058357  1.0
  Ga  Ga2319  1  0.79576783  0.04166667  0.40058357  1.0
  Ga  Ga2320  1  0.79576783  0.37500000  0.40058357  1.0
  Ga  Ga2321  1  0.79576783  0.70833333  0.40058357  1.0
  Ga  Ga2322  1  0.20628275  0.21038392  0.33530675  1.0
  Ga  Ga2323  1  0.20628275  0.54371725  0.33530675  1.0
  Ga  Ga2324  1  0.20628275  0.87705058  0.33530675  1.0
  Ga  Ga2325  1  0.53961608  0.21038392  0.33530675  1.0
  Ga  Ga2326  1  0.53961608  0.54371725  0.33530675  1.0
  Ga  Ga2327  1  0.53961608  0.87705058  0.33530675  1.0
  Ga  Ga2328  1  0.87294942  0.21038392  0.33530675  1.0
  Ga  Ga2329  1  0.87294942  0.54371725  0.33530675  1.0
  Ga  Ga2330  1  0.87294942  0.87705058  0.33530675  1.0
  Ga  Ga2331  1  0.03961608  0.04371725  0.40673532  1.0
  Ga  Ga2332  1  0.03961608  0.37705058  0.40673532  1.0
  Ga  Ga2333  1  0.03961608  0.71038392  0.40673532  1.0
  Ga  Ga2334  1  0.37294942  0.04371725  0.40673532  1.0
  Ga  Ga2335  1  0.37294942  0.37705058  0.40673532  1.0
  Ga  Ga2336  1  0.37294942  0.71038392  0.40673532  1.0
  Ga  Ga2337  1  0.70628275  0.04371725  0.40673532  1.0
  Ga  Ga2338  1  0.70628275  0.37705058  0.40673532  1.0
  Ga  Ga2339  1  0.70628275  0.71038392  0.40673532  1.0
  Ga  Ga2340  1  0.00615175  0.24794942  0.31217668  1.0
  Ga  Ga2341  1  0.00615175  0.58128275  0.31217668  1.0
  Ga  Ga2342  1  0.00615175  0.91461608  0.31217668  1.0
  Ga  Ga2343  1  0.33948508  0.24794942  0.31217668  1.0
  Ga  Ga2344  1  0.33948508  0.58128275  0.31217668  1.0
  Ga  Ga2345  1  0.33948508  0.91461608  0.31217668  1.0
  Ga  Ga2346  1  0.67281842  0.24794942  0.31217668  1.0
  Ga  Ga2347  1  0.67281842  0.58128275  0.31217668  1.0
  Ga  Ga2348  1  0.67281842  0.91461608  0.31217668  1.0
  Ga  Ga2349  1  0.17281842  0.08128275  0.38360525  1.0
  Ga  Ga2350  1  0.17281842  0.41461608  0.38360525  1.0
  Ga  Ga2351  1  0.17281842  0.74794942  0.38360525  1.0
  Ga  Ga2352  1  0.50615175  0.08128275  0.38360525  1.0
  Ga  Ga2353  1  0.50615175  0.41461608  0.38360525  1.0
  Ga  Ga2354  1  0.50615175  0.74794942  0.38360525  1.0
  Ga  Ga2355  1  0.83948508  0.08128275  0.38360525  1.0
  Ga  Ga2356  1  0.83948508  0.41461608  0.38360525  1.0
  Ga  Ga2357  1  0.83948508  0.74794942  0.38360525  1.0
  Ga  Ga2358  1  0.29781842  0.20628275  0.40146239  1.0
  Ga  Ga2359  1  0.29781842  0.53961608  0.40146239  1.0
  Ga  Ga2360  1  0.29781842  0.87294942  0.40146239  1.0
  Ga  Ga2361  1  0.63115175  0.20628275  0.40146239  1.0
  Ga  Ga2362  1  0.63115175  0.53961608  0.40146239  1.0
  Ga  Ga2363  1  0.63115175  0.87294942  0.40146239  1.0
  Ga  Ga2364  1  0.96448508  0.20628275  0.40146239  1.0
  Ga  Ga2365  1  0.96448508  0.53961608  0.40146239  1.0
  Ga  Ga2366  1  0.96448508  0.87294942  0.40146239  1.0
  Ga  Ga2367  1  0.13115175  0.03961608  0.33003382  1.0
  Ga  Ga2368  1  0.13115175  0.37294942  0.33003382  1.0
  Ga  Ga2369  1  0.13115175  0.70628275  0.33003382  1.0
  Ga  Ga2370  1  0.46448508  0.03961608  0.33003382  1.0
  Ga  Ga2371  1  0.46448508  0.37294942  0.33003382  1.0
  Ga  Ga2372  1  0.46448508  0.70628275  0.33003382  1.0
  Ga  Ga2373  1  0.79781842  0.03961608  0.33003382  1.0
  Ga  Ga2374  1  0.79781842  0.37294942  0.33003382  1.0
  Ga  Ga2375  1  0.79781842  0.70628275  0.33003382  1.0
  Ga  Ga2376  1  0.08948508  0.33128275  0.41931954  1.0
  Ga  Ga2377  1  0.08948508  0.66461608  0.41931954  1.0
  Ga  Ga2378  1  0.08948508  0.99794942  0.41931954  1.0
  Ga  Ga2379  1  0.42281842  0.33128275  0.41931954  1.0
  Ga  Ga2380  1  0.42281842  0.66461608  0.41931954  1.0
  Ga  Ga2381  1  0.42281842  0.99794942  0.41931954  1.0
  Ga  Ga2382  1  0.75615175  0.33128275  0.41931954  1.0
  Ga  Ga2383  1  0.75615175  0.66461608  0.41931954  1.0
  Ga  Ga2384  1  0.75615175  0.99794942  0.41931954  1.0
  Ga  Ga2385  1  0.25615175  0.16461608  0.34789096  1.0
  Ga  Ga2386  1  0.25615175  0.49794942  0.34789096  1.0
  Ga  Ga2387  1  0.25615175  0.83128275  0.34789096  1.0
  Ga  Ga2388  1  0.58948508  0.16461608  0.34789096  1.0
  Ga  Ga2389  1  0.58948508  0.49794942  0.34789096  1.0
  Ga  Ga2390  1  0.58948508  0.83128275  0.34789096  1.0
  Ga  Ga2391  1  0.92281842  0.16461608  0.34789096  1.0
  Ga  Ga2392  1  0.92281842  0.49794942  0.34789096  1.0
  Ga  Ga2393  1  0.92281842  0.83128275  0.34789096  1.0
  Ga  Ga2394  1  0.08538392  0.33128275  0.34789096  1.0
  Ga  Ga2395  1  0.08538392  0.66461608  0.34789096  1.0
  Ga  Ga2396  1  0.08538392  0.99794942  0.34789096  1.0
  Ga  Ga2397  1  0.41871725  0.33128275  0.34789096  1.0
  Ga  Ga2398  1  0.41871725  0.66461608  0.34789096  1.0
  Ga  Ga2399  1  0.41871725  0.99794942  0.34789096  1.0
  Ga  Ga2400  1  0.75205058  0.33128275  0.34789096  1.0
  Ga  Ga2401  1  0.75205058  0.66461608  0.34789096  1.0
  Ga  Ga2402  1  0.75205058  0.99794942  0.34789096  1.0
  Ga  Ga2403  1  0.25205058  0.16461608  0.41931954  1.0
  Ga  Ga2404  1  0.25205058  0.49794942  0.41931954  1.0
  Ga  Ga2405  1  0.25205058  0.83128275  0.41931954  1.0
  Ga  Ga2406  1  0.58538392  0.16461608  0.41931954  1.0
  Ga  Ga2407  1  0.58538392  0.49794942  0.41931954  1.0
  Ga  Ga2408  1  0.58538392  0.83128275  0.41931954  1.0
  Ga  Ga2409  1  0.91871725  0.16461608  0.41931954  1.0
  Ga  Ga2410  1  0.91871725  0.49794942  0.41931954  1.0
  Ga  Ga2411  1  0.91871725  0.83128275  0.41931954  1.0
  Ga  Ga2412  1  0.33128275  0.25205058  0.38887818  1.0
  Ga  Ga2413  1  0.33128275  0.58538392  0.38887818  1.0
  Ga  Ga2414  1  0.33128275  0.91871725  0.38887818  1.0
  Ga  Ga2415  1  0.66461608  0.25205058  0.38887818  1.0
  Ga  Ga2416  1  0.66461608  0.58538392  0.38887818  1.0
  Ga  Ga2417  1  0.66461608  0.91871725  0.38887818  1.0
  Ga  Ga2418  1  0.99794942  0.25205058  0.38887818  1.0
  Ga  Ga2419  1  0.99794942  0.58538392  0.38887818  1.0
  Ga  Ga2420  1  0.99794942  0.91871725  0.38887818  1.0
  Ga  Ga2421  1  0.16461608  0.08538392  0.31744961  1.0
  Ga  Ga2422  1  0.16461608  0.41871725  0.31744961  1.0
  Ga  Ga2423  1  0.16461608  0.75205058  0.31744961  1.0
  Ga  Ga2424  1  0.49794942  0.08538392  0.31744961  1.0
  Ga  Ga2425  1  0.49794942  0.41871725  0.31744961  1.0
  Ga  Ga2426  1  0.49794942  0.75205058  0.31744961  1.0
  Ga  Ga2427  1  0.83128275  0.08538392  0.31744961  1.0
  Ga  Ga2428  1  0.83128275  0.41871725  0.31744961  1.0
  Ga  Ga2429  1  0.83128275  0.75205058  0.31744961  1.0
  Ga  Ga2430  1  0.12910117  0.29166667  0.36486929  1.0
  Ga  Ga2431  1  0.12910117  0.62500000  0.36486929  1.0
  Ga  Ga2432  1  0.12910117  0.95833333  0.36486929  1.0
  Ga  Ga2433  1  0.46243450  0.29166667  0.36486929  1.0
  Ga  Ga2434  1  0.46243450  0.62500000  0.36486929  1.0
  Ga  Ga2435  1  0.46243450  0.95833333  0.36486929  1.0
  Ga  Ga2436  1  0.79576783  0.29166667  0.36486929  1.0
  Ga  Ga2437  1  0.79576783  0.62500000  0.36486929  1.0
  Ga  Ga2438  1  0.79576783  0.95833333  0.36486929  1.0
  Ga  Ga2439  1  0.29576783  0.12500000  0.29344071  1.0
  Ga  Ga2440  1  0.29576783  0.45833333  0.29344071  1.0
  Ga  Ga2441  1  0.29576783  0.79166667  0.29344071  1.0
  Ga  Ga2442  1  0.62910117  0.12500000  0.29344071  1.0
  Ga  Ga2443  1  0.62910117  0.45833333  0.29344071  1.0
  Ga  Ga2444  1  0.62910117  0.79166667  0.29344071  1.0
  Ga  Ga2445  1  0.96243450  0.12500000  0.29344071  1.0
  Ga  Ga2446  1  0.96243450  0.45833333  0.29344071  1.0
  Ga  Ga2447  1  0.96243450  0.79166667  0.29344071  1.0
  Ga  Ga2448  1  0.20423217  0.20833333  0.40761414  1.0
  Ga  Ga2449  1  0.20423217  0.54166667  0.40761414  1.0
  Ga  Ga2450  1  0.20423217  0.87500000  0.40761414  1.0
  Ga  Ga2451  1  0.53756550  0.20833333  0.40761414  1.0
  Ga  Ga2452  1  0.53756550  0.54166667  0.40761414  1.0
  Ga  Ga2453  1  0.53756550  0.87500000  0.40761414  1.0
  Ga  Ga2454  1  0.87089883  0.20833333  0.40761414  1.0
  Ga  Ga2455  1  0.87089883  0.54166667  0.40761414  1.0
  Ga  Ga2456  1  0.87089883  0.87500000  0.40761414  1.0
  Ga  Ga2457  1  0.03756550  0.04166667  0.33618557  1.0
  Ga  Ga2458  1  0.03756550  0.37500000  0.33618557  1.0
  Ga  Ga2459  1  0.03756550  0.70833333  0.33618557  1.0
  Ga  Ga2460  1  0.37089883  0.04166667  0.33618557  1.0
  Ga  Ga2461  1  0.37089883  0.37500000  0.33618557  1.0
  Ga  Ga2462  1  0.37089883  0.70833333  0.33618557  1.0
  Ga  Ga2463  1  0.70423217  0.04166667  0.33618557  1.0
  Ga  Ga2464  1  0.70423217  0.37500000  0.33618557  1.0
  Ga  Ga2465  1  0.70423217  0.70833333  0.33618557  1.0
  Ga  Ga2466  1  0.04781842  0.28961608  0.36574811  1.0
  Ga  Ga2467  1  0.04781842  0.62294942  0.36574811  1.0
  Ga  Ga2468  1  0.04781842  0.95628275  0.36574811  1.0
  Ga  Ga2469  1  0.38115175  0.28961608  0.36574811  1.0
  Ga  Ga2470  1  0.38115175  0.62294942  0.36574811  1.0
  Ga  Ga2471  1  0.38115175  0.95628275  0.36574811  1.0
  Ga  Ga2472  1  0.71448508  0.28961608  0.36574811  1.0
  Ga  Ga2473  1  0.71448508  0.62294942  0.36574811  1.0
  Ga  Ga2474  1  0.71448508  0.95628275  0.36574811  1.0
  Ga  Ga2475  1  0.21448508  0.12294942  0.29431954  1.0
  Ga  Ga2476  1  0.21448508  0.45628275  0.29431954  1.0
  Ga  Ga2477  1  0.21448508  0.78961608  0.29431954  1.0
  Ga  Ga2478  1  0.54781842  0.12294942  0.29431954  1.0
  Ga  Ga2479  1  0.54781842  0.45628275  0.29431954  1.0
  Ga  Ga2480  1  0.54781842  0.78961608  0.29431954  1.0
  Ga  Ga2481  1  0.88115175  0.12294942  0.29431954  1.0
  Ga  Ga2482  1  0.88115175  0.45628275  0.29431954  1.0
  Ga  Ga2483  1  0.88115175  0.78961608  0.29431954  1.0
  Ga  Ga2484  1  0.12910117  0.20833333  0.32915500  1.0
  Ga  Ga2485  1  0.12910117  0.54166667  0.32915500  1.0
  Ga  Ga2486  1  0.12910117  0.87500000  0.32915500  1.0
  Ga  Ga2487  1  0.46243450  0.20833333  0.32915500  1.0
  Ga  Ga2488  1  0.46243450  0.54166667  0.32915500  1.0
  Ga  Ga2489  1  0.46243450  0.87500000  0.32915500  1.0
  Ga  Ga2490  1  0.79576783  0.20833333  0.32915500  1.0
  Ga  Ga2491  1  0.79576783  0.54166667  0.32915500  1.0
  Ga  Ga2492  1  0.79576783  0.87500000  0.32915500  1.0
  Ga  Ga2493  1  0.29576783  0.04166667  0.40058357  1.0
  Ga  Ga2494  1  0.29576783  0.37500000  0.40058357  1.0
  Ga  Ga2495  1  0.29576783  0.70833333  0.40058357  1.0
  Ga  Ga2496  1  0.62910117  0.04166667  0.40058357  1.0
  Ga  Ga2497  1  0.62910117  0.37500000  0.40058357  1.0
  Ga  Ga2498  1  0.62910117  0.70833333  0.40058357  1.0
  Ga  Ga2499  1  0.96243450  0.04166667  0.40058357  1.0
  Ga  Ga2500  1  0.96243450  0.37500000  0.40058357  1.0
  Ga  Ga2501  1  0.96243450  0.70833333  0.40058357  1.0
  Ga  Ga2502  1  0.12294942  0.29371725  0.29959246  1.0
  Ga  Ga2503  1  0.12294942  0.62705058  0.29959246  1.0
  Ga  Ga2504  1  0.12294942  0.96038392  0.29959246  1.0
  Ga  Ga2505  1  0.45628275  0.29371725  0.29959246  1.0
  Ga  Ga2506  1  0.45628275  0.62705058  0.29959246  1.0
  Ga  Ga2507  1  0.45628275  0.96038392  0.29959246  1.0
  Ga  Ga2508  1  0.78961608  0.29371725  0.29959246  1.0
  Ga  Ga2509  1  0.78961608  0.62705058  0.29959246  1.0
  Ga  Ga2510  1  0.78961608  0.96038392  0.29959246  1.0
  Ga  Ga2511  1  0.28961608  0.12705058  0.37102104  1.0
  Ga  Ga2512  1  0.28961608  0.46038392  0.37102104  1.0
  Ga  Ga2513  1  0.28961608  0.79371725  0.37102104  1.0
  Ga  Ga2514  1  0.62294942  0.12705058  0.37102104  1.0
  Ga  Ga2515  1  0.62294942  0.46038392  0.37102104  1.0
  Ga  Ga2516  1  0.62294942  0.79371725  0.37102104  1.0
  Ga  Ga2517  1  0.95628275  0.12705058  0.37102104  1.0
  Ga  Ga2518  1  0.95628275  0.46038392  0.37102104  1.0
  Ga  Ga2519  1  0.95628275  0.79371725  0.37102104  1.0
  Ga  Ga2520  1  0.20423217  0.29166667  0.30047129  1.0
  Ga  Ga2521  1  0.20423217  0.62500000  0.30047129  1.0
  Ga  Ga2522  1  0.20423217  0.95833333  0.30047129  1.0
  Ga  Ga2523  1  0.53756550  0.29166667  0.30047129  1.0
  Ga  Ga2524  1  0.53756550  0.62500000  0.30047129  1.0
  Ga  Ga2525  1  0.53756550  0.95833333  0.30047129  1.0
  Ga  Ga2526  1  0.87089883  0.29166667  0.30047129  1.0
  Ga  Ga2527  1  0.87089883  0.62500000  0.30047129  1.0
  Ga  Ga2528  1  0.87089883  0.95833333  0.30047129  1.0
  Ga  Ga2529  1  0.03756550  0.12500000  0.37189986  1.0
  Ga  Ga2530  1  0.03756550  0.45833333  0.37189986  1.0
  Ga  Ga2531  1  0.03756550  0.79166667  0.37189986  1.0
  Ga  Ga2532  1  0.37089883  0.12500000  0.37189986  1.0
  Ga  Ga2533  1  0.37089883  0.45833333  0.37189986  1.0
  Ga  Ga2534  1  0.37089883  0.79166667  0.37189986  1.0
  Ga  Ga2535  1  0.70423217  0.12500000  0.37189986  1.0
  Ga  Ga2536  1  0.70423217  0.45833333  0.37189986  1.0
  Ga  Ga2537  1  0.70423217  0.79166667  0.37189986  1.0
  Ga  Ga2538  1  0.29371725  0.28961608  0.29431954  1.0
  Ga  Ga2539  1  0.29371725  0.62294942  0.29431954  1.0
  Ga  Ga2540  1  0.29371725  0.95628275  0.29431954  1.0
  Ga  Ga2541  1  0.62705058  0.28961608  0.29431954  1.0
  Ga  Ga2542  1  0.62705058  0.62294942  0.29431954  1.0
  Ga  Ga2543  1  0.62705058  0.95628275  0.29431954  1.0
  Ga  Ga2544  1  0.96038392  0.28961608  0.29431954  1.0
  Ga  Ga2545  1  0.96038392  0.62294942  0.29431954  1.0
  Ga  Ga2546  1  0.96038392  0.95628275  0.29431954  1.0
  Ga  Ga2547  1  0.12705058  0.12294942  0.36574811  1.0
  Ga  Ga2548  1  0.12705058  0.45628275  0.36574811  1.0
  Ga  Ga2549  1  0.12705058  0.78961608  0.36574811  1.0
  Ga  Ga2550  1  0.46038392  0.12294942  0.36574811  1.0
  Ga  Ga2551  1  0.46038392  0.45628275  0.36574811  1.0
  Ga  Ga2552  1  0.46038392  0.78961608  0.36574811  1.0
  Ga  Ga2553  1  0.79371725  0.12294942  0.36574811  1.0
  Ga  Ga2554  1  0.79371725  0.45628275  0.36574811  1.0
  Ga  Ga2555  1  0.79371725  0.78961608  0.36574811  1.0
  Ga  Ga2556  1  0.16051492  0.25205058  0.31744961  1.0
  Ga  Ga2557  1  0.16051492  0.58538392  0.31744961  1.0
  Ga  Ga2558  1  0.16051492  0.91871725  0.31744961  1.0
  Ga  Ga2559  1  0.49384825  0.25205058  0.31744961  1.0
  Ga  Ga2560  1  0.49384825  0.58538392  0.31744961  1.0
  Ga  Ga2561  1  0.49384825  0.91871725  0.31744961  1.0
  Ga  Ga2562  1  0.82718158  0.25205058  0.31744961  1.0
  Ga  Ga2563  1  0.82718158  0.58538392  0.31744961  1.0
  Ga  Ga2564  1  0.82718158  0.91871725  0.31744961  1.0
  Ga  Ga2565  1  0.32718158  0.08538392  0.38887818  1.0
  Ga  Ga2566  1  0.32718158  0.41871725  0.38887818  1.0
  Ga  Ga2567  1  0.32718158  0.75205058  0.38887818  1.0
  Ga  Ga2568  1  0.66051492  0.08538392  0.38887818  1.0
  Ga  Ga2569  1  0.66051492  0.41871725  0.38887818  1.0
  Ga  Ga2570  1  0.66051492  0.75205058  0.38887818  1.0
  Ga  Ga2571  1  0.99384825  0.08538392  0.38887818  1.0
  Ga  Ga2572  1  0.99384825  0.41871725  0.38887818  1.0
  Ga  Ga2573  1  0.99384825  0.75205058  0.38887818  1.0
  Ga  Ga2574  1  0.20218158  0.29371725  0.37102104  1.0
  Ga  Ga2575  1  0.20218158  0.62705058  0.37102104  1.0
  Ga  Ga2576  1  0.20218158  0.96038392  0.37102104  1.0
  Ga  Ga2577  1  0.53551492  0.29371725  0.37102104  1.0
  Ga  Ga2578  1  0.53551492  0.62705058  0.37102104  1.0
  Ga  Ga2579  1  0.53551492  0.96038392  0.37102104  1.0
  Ga  Ga2580  1  0.86884825  0.29371725  0.37102104  1.0
  Ga  Ga2581  1  0.86884825  0.62705058  0.37102104  1.0
  Ga  Ga2582  1  0.86884825  0.96038392  0.37102104  1.0
  Ga  Ga2583  1  0.03551492  0.12705058  0.29959246  1.0
  Ga  Ga2584  1  0.03551492  0.46038392  0.29959246  1.0
  Ga  Ga2585  1  0.03551492  0.79371725  0.29959246  1.0
  Ga  Ga2586  1  0.36884825  0.12705058  0.29959246  1.0
  Ga  Ga2587  1  0.36884825  0.46038392  0.29959246  1.0
  Ga  Ga2588  1  0.36884825  0.79371725  0.29959246  1.0
  Ga  Ga2589  1  0.70218158  0.12705058  0.29959246  1.0
  Ga  Ga2590  1  0.70218158  0.46038392  0.29959246  1.0
  Ga  Ga2591  1  0.70218158  0.79371725  0.29959246  1.0
  Ni  Ni2592  1  0.17071467  0.24865067  0.41790800  1.0
  Ni  Ni2593  1  0.17071467  0.58198400  0.41790800  1.0
  Ni  Ni2594  1  0.17071467  0.91531733  0.41790800  1.0
  Ni  Ni2595  1  0.50404800  0.24865067  0.41790800  1.0
  Ni  Ni2596  1  0.50404800  0.58198400  0.41790800  1.0
  Ni  Ni2597  1  0.50404800  0.91531733  0.41790800  1.0
  Ni  Ni2598  1  0.83738133  0.24865067  0.41790800  1.0
  Ni  Ni2599  1  0.83738133  0.58198400  0.41790800  1.0
  Ni  Ni2600  1  0.83738133  0.91531733  0.41790800  1.0
  Ni  Ni2601  1  0.00404800  0.08198400  0.34647943  1.0
  Ni  Ni2602  1  0.00404800  0.41531733  0.34647943  1.0
  Ni  Ni2603  1  0.00404800  0.74865067  0.34647943  1.0
  Ni  Ni2604  1  0.33738133  0.08198400  0.34647943  1.0
  Ni  Ni2605  1  0.33738133  0.41531733  0.34647943  1.0
  Ni  Ni2606  1  0.33738133  0.74865067  0.34647943  1.0
  Ni  Ni2607  1  0.67071467  0.08198400  0.34647943  1.0
  Ni  Ni2608  1  0.67071467  0.41531733  0.34647943  1.0
  Ni  Ni2609  1  0.67071467  0.74865067  0.34647943  1.0
  Ni  Ni2610  1  0.29031733  0.29301600  0.40352057  1.0
  Ni  Ni2611  1  0.29031733  0.62634933  0.40352057  1.0
  Ni  Ni2612  1  0.29031733  0.95968267  0.40352057  1.0
  Ni  Ni2613  1  0.62365067  0.29301600  0.40352057  1.0
  Ni  Ni2614  1  0.62365067  0.62634933  0.40352057  1.0
  Ni  Ni2615  1  0.62365067  0.95968267  0.40352057  1.0
  Ni  Ni2616  1  0.95698400  0.29301600  0.40352057  1.0
  Ni  Ni2617  1  0.95698400  0.62634933  0.40352057  1.0
  Ni  Ni2618  1  0.95698400  0.95968267  0.40352057  1.0
  Ni  Ni2619  1  0.12365067  0.12634933  0.33209200  1.0
  Ni  Ni2620  1  0.12365067  0.45968267  0.33209200  1.0
  Ni  Ni2621  1  0.12365067  0.79301600  0.33209200  1.0
  Ni  Ni2622  1  0.45698400  0.12634933  0.33209200  1.0
  Ni  Ni2623  1  0.45698400  0.45968267  0.33209200  1.0
  Ni  Ni2624  1  0.45698400  0.79301600  0.33209200  1.0
  Ni  Ni2625  1  0.79031733  0.12634933  0.33209200  1.0
  Ni  Ni2626  1  0.79031733  0.45968267  0.33209200  1.0
  Ni  Ni2627  1  0.79031733  0.79301600  0.33209200  1.0
  Ni  Ni2628  1  0.21508000  0.29031733  0.40005086  1.0
  Ni  Ni2629  1  0.21508000  0.62365067  0.40005086  1.0
  Ni  Ni2630  1  0.21508000  0.95698400  0.40005086  1.0
  Ni  Ni2631  1  0.54841333  0.29031733  0.40005086  1.0
  Ni  Ni2632  1  0.54841333  0.62365067  0.40005086  1.0
  Ni  Ni2633  1  0.54841333  0.95698400  0.40005086  1.0
  Ni  Ni2634  1  0.88174667  0.29031733  0.40005086  1.0
  Ni  Ni2635  1  0.88174667  0.62365067  0.40005086  1.0
  Ni  Ni2636  1  0.88174667  0.95698400  0.40005086  1.0
  Ni  Ni2637  1  0.04841333  0.12365067  0.32862229  1.0
  Ni  Ni2638  1  0.04841333  0.45698400  0.32862229  1.0
  Ni  Ni2639  1  0.04841333  0.79031733  0.32862229  1.0
  Ni  Ni2640  1  0.38174667  0.12365067  0.32862229  1.0
  Ni  Ni2641  1  0.38174667  0.45698400  0.32862229  1.0
  Ni  Ni2642  1  0.38174667  0.79031733  0.32862229  1.0
  Ni  Ni2643  1  0.71508000  0.12365067  0.32862229  1.0
  Ni  Ni2644  1  0.71508000  0.45698400  0.32862229  1.0
  Ni  Ni2645  1  0.71508000  0.79031733  0.32862229  1.0
  Ni  Ni2646  1  0.12230133  0.20833333  0.29695600  1.0
  Ni  Ni2647  1  0.12230133  0.54166667  0.29695600  1.0
  Ni  Ni2648  1  0.12230133  0.87500000  0.29695600  1.0
  Ni  Ni2649  1  0.45563467  0.20833333  0.29695600  1.0
  Ni  Ni2650  1  0.45563467  0.54166667  0.29695600  1.0
  Ni  Ni2651  1  0.45563467  0.87500000  0.29695600  1.0
  Ni  Ni2652  1  0.78896800  0.20833333  0.29695600  1.0
  Ni  Ni2653  1  0.78896800  0.54166667  0.29695600  1.0
  Ni  Ni2654  1  0.78896800  0.87500000  0.29695600  1.0
  Ni  Ni2655  1  0.28896800  0.04166667  0.36838457  1.0
  Ni  Ni2656  1  0.28896800  0.37500000  0.36838457  1.0
  Ni  Ni2657  1  0.28896800  0.70833333  0.36838457  1.0
  Ni  Ni2658  1  0.62230133  0.04166667  0.36838457  1.0
  Ni  Ni2659  1  0.62230133  0.37500000  0.36838457  1.0
  Ni  Ni2660  1  0.62230133  0.70833333  0.36838457  1.0
  Ni  Ni2661  1  0.95563467  0.04166667  0.36838457  1.0
  Ni  Ni2662  1  0.95563467  0.37500000  0.36838457  1.0
  Ni  Ni2663  1  0.95563467  0.70833333  0.36838457  1.0
  Ni  Ni2664  1  0.25539733  0.24730133  0.41848629  1.0
  Ni  Ni2665  1  0.25539733  0.58063467  0.41848629  1.0
  Ni  Ni2666  1  0.25539733  0.91396800  0.41848629  1.0
  Ni  Ni2667  1  0.58873067  0.24730133  0.41848629  1.0
  Ni  Ni2668  1  0.58873067  0.58063467  0.41848629  1.0
  Ni  Ni2669  1  0.58873067  0.91396800  0.41848629  1.0
  Ni  Ni2670  1  0.92206400  0.24730133  0.41848629  1.0
  Ni  Ni2671  1  0.92206400  0.58063467  0.41848629  1.0
  Ni  Ni2672  1  0.92206400  0.91396800  0.41848629  1.0
  Ni  Ni2673  1  0.08873067  0.08063467  0.34705771  1.0
  Ni  Ni2674  1  0.08873067  0.41396800  0.34705771  1.0
  Ni  Ni2675  1  0.08873067  0.74730133  0.34705771  1.0
  Ni  Ni2676  1  0.42206400  0.08063467  0.34705771  1.0
  Ni  Ni2677  1  0.42206400  0.41396800  0.34705771  1.0
  Ni  Ni2678  1  0.42206400  0.74730133  0.34705771  1.0
  Ni  Ni2679  1  0.75539733  0.08063467  0.34705771  1.0
  Ni  Ni2680  1  0.75539733  0.41396800  0.34705771  1.0
  Ni  Ni2681  1  0.75539733  0.74730133  0.34705771  1.0
  Ni  Ni2682  1  0.12365067  0.29031733  0.40467714  1.0
  Ni  Ni2683  1  0.12365067  0.62365067  0.40467714  1.0
  Ni  Ni2684  1  0.12365067  0.95698400  0.40467714  1.0
  Ni  Ni2685  1  0.45698400  0.29031733  0.40467714  1.0
  Ni  Ni2686  1  0.45698400  0.62365067  0.40467714  1.0
  Ni  Ni2687  1  0.45698400  0.95698400  0.40467714  1.0
  Ni  Ni2688  1  0.79031733  0.29031733  0.40467714  1.0
  Ni  Ni2689  1  0.79031733  0.62365067  0.40467714  1.0
  Ni  Ni2690  1  0.79031733  0.95698400  0.40467714  1.0
  Ni  Ni2691  1  0.29031733  0.12365067  0.33324857  1.0
  Ni  Ni2692  1  0.29031733  0.45698400  0.33324857  1.0
  Ni  Ni2693  1  0.29031733  0.79031733  0.33324857  1.0
  Ni  Ni2694  1  0.62365067  0.12365067  0.33324857  1.0
  Ni  Ni2695  1  0.62365067  0.45698400  0.33324857  1.0
  Ni  Ni2696  1  0.62365067  0.79031733  0.33324857  1.0
  Ni  Ni2697  1  0.95698400  0.12365067  0.33324857  1.0
  Ni  Ni2698  1  0.95698400  0.45698400  0.33324857  1.0
  Ni  Ni2699  1  0.95698400  0.79031733  0.33324857  1.0
  Ni  Ni2700  1  0.00134933  0.16801600  0.31423486  1.0
  Ni  Ni2701  1  0.00134933  0.50134933  0.31423486  1.0
  Ni  Ni2702  1  0.00134933  0.83468267  0.31423486  1.0
  Ni  Ni2703  1  0.33468267  0.16801600  0.31423486  1.0
  Ni  Ni2704  1  0.33468267  0.50134933  0.31423486  1.0
  Ni  Ni2705  1  0.33468267  0.83468267  0.31423486  1.0
  Ni  Ni2706  1  0.66801600  0.16801600  0.31423486  1.0
  Ni  Ni2707  1  0.66801600  0.50134933  0.31423486  1.0
  Ni  Ni2708  1  0.66801600  0.83468267  0.31423486  1.0
  Ni  Ni2709  1  0.16801600  0.00134933  0.38566343  1.0
  Ni  Ni2710  1  0.16801600  0.33468267  0.38566343  1.0
  Ni  Ni2711  1  0.16801600  0.66801600  0.38566343  1.0
  Ni  Ni2712  1  0.50134933  0.00134933  0.38566343  1.0
  Ni  Ni2713  1  0.50134933  0.33468267  0.38566343  1.0
  Ni  Ni2714  1  0.50134933  0.66801600  0.38566343  1.0
  Ni  Ni2715  1  0.83468267  0.00134933  0.38566343  1.0
  Ni  Ni2716  1  0.83468267  0.33468267  0.38566343  1.0
  Ni  Ni2717  1  0.83468267  0.66801600  0.38566343  1.0
  Ni  Ni2718  1  0.24460267  0.16936533  0.31828286  1.0
  Ni  Ni2719  1  0.24460267  0.50269867  0.31828286  1.0
  Ni  Ni2720  1  0.24460267  0.83603200  0.31828286  1.0
  Ni  Ni2721  1  0.57793600  0.16936533  0.31828286  1.0
  Ni  Ni2722  1  0.57793600  0.50269867  0.31828286  1.0
  Ni  Ni2723  1  0.57793600  0.83603200  0.31828286  1.0
  Ni  Ni2724  1  0.91126933  0.16936533  0.31828286  1.0
  Ni  Ni2725  1  0.91126933  0.50269867  0.31828286  1.0
  Ni  Ni2726  1  0.91126933  0.83603200  0.31828286  1.0
  Ni  Ni2727  1  0.07793600  0.00269867  0.38971143  1.0
  Ni  Ni2728  1  0.07793600  0.33603200  0.38971143  1.0
  Ni  Ni2729  1  0.07793600  0.66936533  0.38971143  1.0
  Ni  Ni2730  1  0.41126933  0.00269867  0.38971143  1.0
  Ni  Ni2731  1  0.41126933  0.33603200  0.38971143  1.0
  Ni  Ni2732  1  0.41126933  0.66936533  0.38971143  1.0
  Ni  Ni2733  1  0.74460267  0.00269867  0.38971143  1.0
  Ni  Ni2734  1  0.74460267  0.33603200  0.38971143  1.0
  Ni  Ni2735  1  0.74460267  0.66936533  0.38971143  1.0
  Ni  Ni2736  1  0.00134933  0.24865067  0.42253429  1.0
  Ni  Ni2737  1  0.00134933  0.58198400  0.42253429  1.0
  Ni  Ni2738  1  0.00134933  0.91531733  0.42253429  1.0
  Ni  Ni2739  1  0.33468267  0.24865067  0.42253429  1.0
  Ni  Ni2740  1  0.33468267  0.58198400  0.42253429  1.0
  Ni  Ni2741  1  0.33468267  0.91531733  0.42253429  1.0
  Ni  Ni2742  1  0.66801600  0.24865067  0.42253429  1.0
  Ni  Ni2743  1  0.66801600  0.58198400  0.42253429  1.0
  Ni  Ni2744  1  0.66801600  0.91531733  0.42253429  1.0
  Ni  Ni2745  1  0.16801600  0.08198400  0.35110571  1.0
  Ni  Ni2746  1  0.16801600  0.41531733  0.35110571  1.0
  Ni  Ni2747  1  0.16801600  0.74865067  0.35110571  1.0
  Ni  Ni2748  1  0.50134933  0.08198400  0.35110571  1.0
  Ni  Ni2749  1  0.50134933  0.41531733  0.35110571  1.0
  Ni  Ni2750  1  0.50134933  0.74865067  0.35110571  1.0
  Ni  Ni2751  1  0.83468267  0.08198400  0.35110571  1.0
  Ni  Ni2752  1  0.83468267  0.41531733  0.35110571  1.0
  Ni  Ni2753  1  0.83468267  0.74865067  0.35110571  1.0
  Ni  Ni2754  1  0.15992000  0.16801600  0.31886114  1.0
  Ni  Ni2755  1  0.15992000  0.50134933  0.31886114  1.0
  Ni  Ni2756  1  0.15992000  0.83468267  0.31886114  1.0
  Ni  Ni2757  1  0.49325333  0.16801600  0.31886114  1.0
  Ni  Ni2758  1  0.49325333  0.50134933  0.31886114  1.0
  Ni  Ni2759  1  0.49325333  0.83468267  0.31886114  1.0
  Ni  Ni2760  1  0.82658667  0.16801600  0.31886114  1.0
  Ni  Ni2761  1  0.82658667  0.50134933  0.31886114  1.0
  Ni  Ni2762  1  0.82658667  0.83468267  0.31886114  1.0
  Ni  Ni2763  1  0.32658667  0.00134933  0.39028971  1.0
  Ni  Ni2764  1  0.32658667  0.33468267  0.39028971  1.0
  Ni  Ni2765  1  0.32658667  0.66801600  0.39028971  1.0
  Ni  Ni2766  1  0.65992000  0.00134933  0.39028971  1.0
  Ni  Ni2767  1  0.65992000  0.33468267  0.39028971  1.0
  Ni  Ni2768  1  0.65992000  0.66801600  0.39028971  1.0
  Ni  Ni2769  1  0.99325333  0.00134933  0.39028971  1.0
  Ni  Ni2770  1  0.99325333  0.33468267  0.39028971  1.0
  Ni  Ni2771  1  0.99325333  0.66801600  0.39028971  1.0
  Ni  Ni2772  1  0.21103200  0.20833333  0.29695600  1.0
  Ni  Ni2773  1  0.21103200  0.54166667  0.29695600  1.0
  Ni  Ni2774  1  0.21103200  0.87500000  0.29695600  1.0
  Ni  Ni2775  1  0.54436533  0.20833333  0.29695600  1.0
  Ni  Ni2776  1  0.54436533  0.54166667  0.29695600  1.0
  Ni  Ni2777  1  0.54436533  0.87500000  0.29695600  1.0
  Ni  Ni2778  1  0.87769867  0.20833333  0.29695600  1.0
  Ni  Ni2779  1  0.87769867  0.54166667  0.29695600  1.0
  Ni  Ni2780  1  0.87769867  0.87500000  0.29695600  1.0
  Ni  Ni2781  1  0.04436533  0.04166667  0.36838457  1.0
  Ni  Ni2782  1  0.04436533  0.37500000  0.36838457  1.0
  Ni  Ni2783  1  0.04436533  0.70833333  0.36838457  1.0
  Ni  Ni2784  1  0.37769867  0.04166667  0.36838457  1.0
  Ni  Ni2785  1  0.37769867  0.37500000  0.36838457  1.0
  Ni  Ni2786  1  0.37769867  0.70833333  0.36838457  1.0
  Ni  Ni2787  1  0.71103200  0.04166667  0.36838457  1.0
  Ni  Ni2788  1  0.71103200  0.37500000  0.36838457  1.0
  Ni  Ni2789  1  0.71103200  0.70833333  0.36838457  1.0
  Ni  Ni2790  1  0.03761867  0.29301600  0.40814686  1.0
  Ni  Ni2791  1  0.03761867  0.62634933  0.40814686  1.0
  Ni  Ni2792  1  0.03761867  0.95968267  0.40814686  1.0
  Ni  Ni2793  1  0.37095200  0.29301600  0.40814686  1.0
  Ni  Ni2794  1  0.37095200  0.62634933  0.40814686  1.0
  Ni  Ni2795  1  0.37095200  0.95968267  0.40814686  1.0
  Ni  Ni2796  1  0.70428533  0.29301600  0.40814686  1.0
  Ni  Ni2797  1  0.70428533  0.62634933  0.40814686  1.0
  Ni  Ni2798  1  0.70428533  0.95968267  0.40814686  1.0
  Ni  Ni2799  1  0.20428533  0.12634933  0.33671829  1.0
  Ni  Ni2800  1  0.20428533  0.45968267  0.33671829  1.0
  Ni  Ni2801  1  0.20428533  0.79301600  0.33671829  1.0
  Ni  Ni2802  1  0.53761867  0.12634933  0.33671829  1.0
  Ni  Ni2803  1  0.53761867  0.45968267  0.33671829  1.0
  Ni  Ni2804  1  0.53761867  0.79301600  0.33671829  1.0
  Ni  Ni2805  1  0.87095200  0.12634933  0.33671829  1.0
  Ni  Ni2806  1  0.87095200  0.45968267  0.33671829  1.0
  Ni  Ni2807  1  0.87095200  0.79301600  0.33671829  1.0
  Ni  Ni2808  1  0.32928533  0.25134933  0.35457543  1.0
  Ni  Ni2809  1  0.32928533  0.58468267  0.35457543  1.0
  Ni  Ni2810  1  0.32928533  0.91801600  0.35457543  1.0
  Ni  Ni2811  1  0.66261867  0.25134933  0.35457543  1.0
  Ni  Ni2812  1  0.66261867  0.58468267  0.35457543  1.0
  Ni  Ni2813  1  0.66261867  0.91801600  0.35457543  1.0
  Ni  Ni2814  1  0.99595200  0.25134933  0.35457543  1.0
  Ni  Ni2815  1  0.99595200  0.58468267  0.35457543  1.0
  Ni  Ni2816  1  0.99595200  0.91801600  0.35457543  1.0
  Ni  Ni2817  1  0.16261867  0.08468267  0.42600400  1.0
  Ni  Ni2818  1  0.16261867  0.41801600  0.42600400  1.0
  Ni  Ni2819  1  0.16261867  0.75134933  0.42600400  1.0
  Ni  Ni2820  1  0.49595200  0.08468267  0.42600400  1.0
  Ni  Ni2821  1  0.49595200  0.41801600  0.42600400  1.0
  Ni  Ni2822  1  0.49595200  0.75134933  0.42600400  1.0
  Ni  Ni2823  1  0.82928533  0.08468267  0.42600400  1.0
  Ni  Ni2824  1  0.82928533  0.41801600  0.42600400  1.0
  Ni  Ni2825  1  0.82928533  0.75134933  0.42600400  1.0
  Ni  Ni2826  1  0.20968267  0.20698400  0.36896286  1.0
  Ni  Ni2827  1  0.20968267  0.54031733  0.36896286  1.0
  Ni  Ni2828  1  0.20968267  0.87365067  0.36896286  1.0
  Ni  Ni2829  1  0.54301600  0.20698400  0.36896286  1.0
  Ni  Ni2830  1  0.54301600  0.54031733  0.36896286  1.0
  Ni  Ni2831  1  0.54301600  0.87365067  0.36896286  1.0
  Ni  Ni2832  1  0.87634933  0.20698400  0.36896286  1.0
  Ni  Ni2833  1  0.87634933  0.54031733  0.36896286  1.0
  Ni  Ni2834  1  0.87634933  0.87365067  0.36896286  1.0
  Ni  Ni2835  1  0.04301600  0.04031733  0.29753429  1.0
  Ni  Ni2836  1  0.04301600  0.37365067  0.29753429  1.0
  Ni  Ni2837  1  0.04301600  0.70698400  0.29753429  1.0
  Ni  Ni2838  1  0.37634933  0.04031733  0.29753429  1.0
  Ni  Ni2839  1  0.37634933  0.37365067  0.29753429  1.0
  Ni  Ni2840  1  0.37634933  0.70698400  0.29753429  1.0
  Ni  Ni2841  1  0.70968267  0.04031733  0.29753429  1.0
  Ni  Ni2842  1  0.70968267  0.37365067  0.29753429  1.0
  Ni  Ni2843  1  0.70968267  0.70698400  0.29753429  1.0
  Ni  Ni2844  1  0.28492000  0.20968267  0.37243257  1.0
  Ni  Ni2845  1  0.28492000  0.54301600  0.37243257  1.0
  Ni  Ni2846  1  0.28492000  0.87634933  0.37243257  1.0
  Ni  Ni2847  1  0.61825333  0.20968267  0.37243257  1.0
  Ni  Ni2848  1  0.61825333  0.54301600  0.37243257  1.0
  Ni  Ni2849  1  0.61825333  0.87634933  0.37243257  1.0
  Ni  Ni2850  1  0.95158667  0.20968267  0.37243257  1.0
  Ni  Ni2851  1  0.95158667  0.54301600  0.37243257  1.0
  Ni  Ni2852  1  0.95158667  0.87634933  0.37243257  1.0
  Ni  Ni2853  1  0.11825333  0.04301600  0.30100400  1.0
  Ni  Ni2854  1  0.11825333  0.37634933  0.30100400  1.0
  Ni  Ni2855  1  0.11825333  0.70968267  0.30100400  1.0
  Ni  Ni2856  1  0.45158667  0.04301600  0.30100400  1.0
  Ni  Ni2857  1  0.45158667  0.37634933  0.30100400  1.0
  Ni  Ni2858  1  0.45158667  0.70968267  0.30100400  1.0
  Ni  Ni2859  1  0.78492000  0.04301600  0.30100400  1.0
  Ni  Ni2860  1  0.78492000  0.37634933  0.30100400  1.0
  Ni  Ni2861  1  0.78492000  0.70968267  0.30100400  1.0
  Ni  Ni2862  1  0.04436533  0.29166667  0.33267029  1.0
  Ni  Ni2863  1  0.04436533  0.62500000  0.33267029  1.0
  Ni  Ni2864  1  0.04436533  0.95833333  0.33267029  1.0
  Ni  Ni2865  1  0.37769867  0.29166667  0.33267029  1.0
  Ni  Ni2866  1  0.37769867  0.62500000  0.33267029  1.0
  Ni  Ni2867  1  0.37769867  0.95833333  0.33267029  1.0
  Ni  Ni2868  1  0.71103200  0.29166667  0.33267029  1.0
  Ni  Ni2869  1  0.71103200  0.62500000  0.33267029  1.0
  Ni  Ni2870  1  0.71103200  0.95833333  0.33267029  1.0
  Ni  Ni2871  1  0.21103200  0.12500000  0.40409886  1.0
  Ni  Ni2872  1  0.21103200  0.45833333  0.40409886  1.0
  Ni  Ni2873  1  0.21103200  0.79166667  0.40409886  1.0
  Ni  Ni2874  1  0.54436533  0.12500000  0.40409886  1.0
  Ni  Ni2875  1  0.54436533  0.45833333  0.40409886  1.0
  Ni  Ni2876  1  0.54436533  0.79166667  0.40409886  1.0
  Ni  Ni2877  1  0.87769867  0.12500000  0.40409886  1.0
  Ni  Ni2878  1  0.87769867  0.45833333  0.40409886  1.0
  Ni  Ni2879  1  0.87769867  0.79166667  0.40409886  1.0
  Ni  Ni2880  1  0.24460267  0.25269867  0.35399714  1.0
  Ni  Ni2881  1  0.24460267  0.58603200  0.35399714  1.0
  Ni  Ni2882  1  0.24460267  0.91936533  0.35399714  1.0
  Ni  Ni2883  1  0.57793600  0.25269867  0.35399714  1.0
  Ni  Ni2884  1  0.57793600  0.58603200  0.35399714  1.0
  Ni  Ni2885  1  0.57793600  0.91936533  0.35399714  1.0
  Ni  Ni2886  1  0.91126933  0.25269867  0.35399714  1.0
  Ni  Ni2887  1  0.91126933  0.58603200  0.35399714  1.0
  Ni  Ni2888  1  0.91126933  0.91936533  0.35399714  1.0
  Ni  Ni2889  1  0.07793600  0.08603200  0.42542571  1.0
  Ni  Ni2890  1  0.07793600  0.41936533  0.42542571  1.0
  Ni  Ni2891  1  0.07793600  0.75269867  0.42542571  1.0
  Ni  Ni2892  1  0.41126933  0.08603200  0.42542571  1.0
  Ni  Ni2893  1  0.41126933  0.41936533  0.42542571  1.0
  Ni  Ni2894  1  0.41126933  0.75269867  0.42542571  1.0
  Ni  Ni2895  1  0.74460267  0.08603200  0.42542571  1.0
  Ni  Ni2896  1  0.74460267  0.41936533  0.42542571  1.0
  Ni  Ni2897  1  0.74460267  0.75269867  0.42542571  1.0
  Ni  Ni2898  1  0.04301600  0.20968267  0.36780629  1.0
  Ni  Ni2899  1  0.04301600  0.54301600  0.36780629  1.0
  Ni  Ni2900  1  0.04301600  0.87634933  0.36780629  1.0
  Ni  Ni2901  1  0.37634933  0.20968267  0.36780629  1.0
  Ni  Ni2902  1  0.37634933  0.54301600  0.36780629  1.0
  Ni  Ni2903  1  0.37634933  0.87634933  0.36780629  1.0
  Ni  Ni2904  1  0.70968267  0.20968267  0.36780629  1.0
  Ni  Ni2905  1  0.70968267  0.54301600  0.36780629  1.0
  Ni  Ni2906  1  0.70968267  0.87634933  0.36780629  1.0
  Ni  Ni2907  1  0.20968267  0.04301600  0.29637771  1.0
  Ni  Ni2908  1  0.20968267  0.37634933  0.29637771  1.0
  Ni  Ni2909  1  0.20968267  0.70968267  0.29637771  1.0
  Ni  Ni2910  1  0.54301600  0.04301600  0.29637771  1.0
  Ni  Ni2911  1  0.54301600  0.37634933  0.29637771  1.0
  Ni  Ni2912  1  0.54301600  0.70968267  0.29637771  1.0
  Ni  Ni2913  1  0.87634933  0.04301600  0.29637771  1.0
  Ni  Ni2914  1  0.87634933  0.37634933  0.29637771  1.0
  Ni  Ni2915  1  0.87634933  0.70968267  0.29637771  1.0
  Ni  Ni2916  1  0.16531733  0.33198400  0.31539143  1.0
  Ni  Ni2917  1  0.16531733  0.66531733  0.31539143  1.0
  Ni  Ni2918  1  0.16531733  0.99865067  0.31539143  1.0
  Ni  Ni2919  1  0.49865067  0.33198400  0.31539143  1.0
  Ni  Ni2920  1  0.49865067  0.66531733  0.31539143  1.0
  Ni  Ni2921  1  0.49865067  0.99865067  0.31539143  1.0
  Ni  Ni2922  1  0.83198400  0.33198400  0.31539143  1.0
  Ni  Ni2923  1  0.83198400  0.66531733  0.31539143  1.0
  Ni  Ni2924  1  0.83198400  0.99865067  0.31539143  1.0
  Ni  Ni2925  1  0.33198400  0.16531733  0.38682000  1.0
  Ni  Ni2926  1  0.33198400  0.49865067  0.38682000  1.0
  Ni  Ni2927  1  0.33198400  0.83198400  0.38682000  1.0
  Ni  Ni2928  1  0.66531733  0.16531733  0.38682000  1.0
  Ni  Ni2929  1  0.66531733  0.49865067  0.38682000  1.0
  Ni  Ni2930  1  0.66531733  0.83198400  0.38682000  1.0
  Ni  Ni2931  1  0.99865067  0.16531733  0.38682000  1.0
  Ni  Ni2932  1  0.99865067  0.49865067  0.38682000  1.0
  Ni  Ni2933  1  0.99865067  0.83198400  0.38682000  1.0
  Ni  Ni2934  1  0.25539733  0.33063467  0.31134343  1.0
  Ni  Ni2935  1  0.25539733  0.66396800  0.31134343  1.0
  Ni  Ni2936  1  0.25539733  0.99730133  0.31134343  1.0
  Ni  Ni2937  1  0.58873067  0.33063467  0.31134343  1.0
  Ni  Ni2938  1  0.58873067  0.66396800  0.31134343  1.0
  Ni  Ni2939  1  0.58873067  0.99730133  0.31134343  1.0
  Ni  Ni2940  1  0.92206400  0.33063467  0.31134343  1.0
  Ni  Ni2941  1  0.92206400  0.66396800  0.31134343  1.0
  Ni  Ni2942  1  0.92206400  0.99730133  0.31134343  1.0
  Ni  Ni2943  1  0.08873067  0.16396800  0.38277200  1.0
  Ni  Ni2944  1  0.08873067  0.49730133  0.38277200  1.0
  Ni  Ni2945  1  0.08873067  0.83063467  0.38277200  1.0
  Ni  Ni2946  1  0.42206400  0.16396800  0.38277200  1.0
  Ni  Ni2947  1  0.42206400  0.49730133  0.38277200  1.0
  Ni  Ni2948  1  0.42206400  0.83063467  0.38277200  1.0
  Ni  Ni2949  1  0.75539733  0.16396800  0.38277200  1.0
  Ni  Ni2950  1  0.75539733  0.49730133  0.38277200  1.0
  Ni  Ni2951  1  0.75539733  0.83063467  0.38277200  1.0
  Ni  Ni2952  1  0.16531733  0.25134933  0.34994914  1.0
  Ni  Ni2953  1  0.16531733  0.58468267  0.34994914  1.0
  Ni  Ni2954  1  0.16531733  0.91801600  0.34994914  1.0
  Ni  Ni2955  1  0.49865067  0.25134933  0.34994914  1.0
  Ni  Ni2956  1  0.49865067  0.58468267  0.34994914  1.0
  Ni  Ni2957  1  0.49865067  0.91801600  0.34994914  1.0
  Ni  Ni2958  1  0.83198400  0.25134933  0.34994914  1.0
  Ni  Ni2959  1  0.83198400  0.58468267  0.34994914  1.0
  Ni  Ni2960  1  0.83198400  0.91801600  0.34994914  1.0
  Ni  Ni2961  1  0.33198400  0.08468267  0.42137771  1.0
  Ni  Ni2962  1  0.33198400  0.41801600  0.42137771  1.0
  Ni  Ni2963  1  0.33198400  0.75134933  0.42137771  1.0
  Ni  Ni2964  1  0.66531733  0.08468267  0.42137771  1.0
  Ni  Ni2965  1  0.66531733  0.41801600  0.42137771  1.0
  Ni  Ni2966  1  0.66531733  0.75134933  0.42137771  1.0
  Ni  Ni2967  1  0.99865067  0.08468267  0.42137771  1.0
  Ni  Ni2968  1  0.99865067  0.41801600  0.42137771  1.0
  Ni  Ni2969  1  0.99865067  0.75134933  0.42137771  1.0
  Ni  Ni2970  1  0.00674667  0.33198400  0.31076514  1.0
  Ni  Ni2971  1  0.00674667  0.66531733  0.31076514  1.0
  Ni  Ni2972  1  0.00674667  0.99865067  0.31076514  1.0
  Ni  Ni2973  1  0.34008000  0.33198400  0.31076514  1.0
  Ni  Ni2974  1  0.34008000  0.66531733  0.31076514  1.0
  Ni  Ni2975  1  0.34008000  0.99865067  0.31076514  1.0
  Ni  Ni2976  1  0.67341333  0.33198400  0.31076514  1.0
  Ni  Ni2977  1  0.67341333  0.66531733  0.31076514  1.0
  Ni  Ni2978  1  0.67341333  0.99865067  0.31076514  1.0
  Ni  Ni2979  1  0.17341333  0.16531733  0.38219371  1.0
  Ni  Ni2980  1  0.17341333  0.49865067  0.38219371  1.0
  Ni  Ni2981  1  0.17341333  0.83198400  0.38219371  1.0
  Ni  Ni2982  1  0.50674667  0.16531733  0.38219371  1.0
  Ni  Ni2983  1  0.50674667  0.49865067  0.38219371  1.0
  Ni  Ni2984  1  0.50674667  0.83198400  0.38219371  1.0
  Ni  Ni2985  1  0.84008000  0.16531733  0.38219371  1.0
  Ni  Ni2986  1  0.84008000  0.49865067  0.38219371  1.0
  Ni  Ni2987  1  0.84008000  0.83198400  0.38219371  1.0
  Ni  Ni2988  1  0.28896800  0.29166667  0.33267029  1.0
  Ni  Ni2989  1  0.28896800  0.62500000  0.33267029  1.0
  Ni  Ni2990  1  0.28896800  0.95833333  0.33267029  1.0
  Ni  Ni2991  1  0.62230133  0.29166667  0.33267029  1.0
  Ni  Ni2992  1  0.62230133  0.62500000  0.33267029  1.0
  Ni  Ni2993  1  0.62230133  0.95833333  0.33267029  1.0
  Ni  Ni2994  1  0.95563467  0.29166667  0.33267029  1.0
  Ni  Ni2995  1  0.95563467  0.62500000  0.33267029  1.0
  Ni  Ni2996  1  0.95563467  0.95833333  0.33267029  1.0
  Ni  Ni2997  1  0.12230133  0.12500000  0.40409886  1.0
  Ni  Ni2998  1  0.12230133  0.45833333  0.40409886  1.0
  Ni  Ni2999  1  0.12230133  0.79166667  0.40409886  1.0
  Ni  Ni3000  1  0.45563467  0.12500000  0.40409886  1.0
  Ni  Ni3001  1  0.45563467  0.45833333  0.40409886  1.0
  Ni  Ni3002  1  0.45563467  0.79166667  0.40409886  1.0
  Ni  Ni3003  1  0.78896800  0.12500000  0.40409886  1.0
  Ni  Ni3004  1  0.78896800  0.45833333  0.40409886  1.0
  Ni  Ni3005  1  0.78896800  0.79166667  0.40409886  1.0
  Ni  Ni3006  1  0.12904800  0.20698400  0.36433657  1.0
  Ni  Ni3007  1  0.12904800  0.54031733  0.36433657  1.0
  Ni  Ni3008  1  0.12904800  0.87365067  0.36433657  1.0
  Ni  Ni3009  1  0.46238133  0.20698400  0.36433657  1.0
  Ni  Ni3010  1  0.46238133  0.54031733  0.36433657  1.0
  Ni  Ni3011  1  0.46238133  0.87365067  0.36433657  1.0
  Ni  Ni3012  1  0.79571467  0.20698400  0.36433657  1.0
  Ni  Ni3013  1  0.79571467  0.54031733  0.36433657  1.0
  Ni  Ni3014  1  0.79571467  0.87365067  0.36433657  1.0
  Ni  Ni3015  1  0.29571467  0.04031733  0.29290800  1.0
  Ni  Ni3016  1  0.29571467  0.37365067  0.29290800  1.0
  Ni  Ni3017  1  0.29571467  0.70698400  0.29290800  1.0
  Ni  Ni3018  1  0.62904800  0.04031733  0.29290800  1.0
  Ni  Ni3019  1  0.62904800  0.37365067  0.29290800  1.0
  Ni  Ni3020  1  0.62904800  0.70698400  0.29290800  1.0
  Ni  Ni3021  1  0.96238133  0.04031733  0.29290800  1.0
  Ni  Ni3022  1  0.96238133  0.37365067  0.29290800  1.0
  Ni  Ni3023  1  0.96238133  0.70698400  0.29290800  1.0
