# generated using pymatgen
data_Ga4Ni3
_symmetry_space_group_name_H-M   'P 1'
_cell_length_a   34.43894399
_cell_length_b   57.11052769
_cell_length_c   36.30183440
_cell_angle_alpha   89.99999999
_cell_angle_beta   90.00000001
_cell_angle_gamma   107.54840062
_symmetry_Int_Tables_number   1
_chemical_formula_structural   Ga4Ni3
_chemical_formula_sum   'Ga1152 Ni864'
_cell_volume   68076.65807103
_cell_formula_units_Z   288
loop_
 _symmetry_equiv_pos_site_id
 _symmetry_equiv_pos_as_xyz
  1  'x, y, z'
loop_
 _atom_site_type_symbol
 _atom_site_label
 _atom_site_symmetry_multiplicity
 _atom_site_fract_x
 _atom_site_fract_y
 _atom_site_fract_z
 _atom_site_occupancy
  Ga  Ga0  1  0.18669040  0.22889680  0.18669040  1.0
  Ga  Ga1  1  0.18669040  0.56223013  0.18669040  1.0
  Ga  Ga2  1  0.18669040  0.89556347  0.18669040  1.0
  Ga  Ga3  1  0.52002373  0.22889680  0.18669040  1.0
  Ga  Ga4  1  0.52002373  0.56223013  0.18669040  1.0
  Ga  Ga5  1  0.52002373  0.89556347  0.18669040  1.0
  Ga  Ga6  1  0.85335707  0.22889680  0.18669040  1.0
  Ga  Ga7  1  0.85335707  0.56223013  0.18669040  1.0
  Ga  Ga8  1  0.85335707  0.89556347  0.18669040  1.0
  Ga  Ga9  1  0.08669040  0.02889680  0.08669040  1.0
  Ga  Ga10  1  0.08669040  0.36223013  0.08669040  1.0
  Ga  Ga11  1  0.08669040  0.69556347  0.08669040  1.0
  Ga  Ga12  1  0.42002373  0.02889680  0.08669040  1.0
  Ga  Ga13  1  0.42002373  0.36223013  0.08669040  1.0
  Ga  Ga14  1  0.42002373  0.69556347  0.08669040  1.0
  Ga  Ga15  1  0.75335707  0.02889680  0.08669040  1.0
  Ga  Ga16  1  0.75335707  0.36223013  0.08669040  1.0
  Ga  Ga17  1  0.75335707  0.69556347  0.08669040  1.0
  Ga  Ga18  1  0.30335707  0.29556347  0.13669040  1.0
  Ga  Ga19  1  0.30335707  0.62889680  0.13669040  1.0
  Ga  Ga20  1  0.30335707  0.96223013  0.13669040  1.0
  Ga  Ga21  1  0.63669040  0.29556347  0.13669040  1.0
  Ga  Ga22  1  0.63669040  0.62889680  0.13669040  1.0
  Ga  Ga23  1  0.63669040  0.96223013  0.13669040  1.0
  Ga  Ga24  1  0.97002373  0.29556347  0.13669040  1.0
  Ga  Ga25  1  0.97002373  0.62889680  0.13669040  1.0
  Ga  Ga26  1  0.97002373  0.96223013  0.13669040  1.0
  Ga  Ga27  1  0.20335707  0.09556347  0.03669040  1.0
  Ga  Ga28  1  0.20335707  0.42889680  0.03669040  1.0
  Ga  Ga29  1  0.20335707  0.76223013  0.03669040  1.0
  Ga  Ga30  1  0.53669040  0.09556347  0.03669040  1.0
  Ga  Ga31  1  0.53669040  0.42889680  0.03669040  1.0
  Ga  Ga32  1  0.53669040  0.76223013  0.03669040  1.0
  Ga  Ga33  1  0.87002373  0.09556347  0.03669040  1.0
  Ga  Ga34  1  0.87002373  0.42889680  0.03669040  1.0
  Ga  Ga35  1  0.87002373  0.76223013  0.03669040  1.0
  Ga  Ga36  1  0.25335707  0.19556347  0.08669040  1.0
  Ga  Ga37  1  0.25335707  0.52889680  0.08669040  1.0
  Ga  Ga38  1  0.25335707  0.86223013  0.08669040  1.0
  Ga  Ga39  1  0.58669040  0.19556347  0.08669040  1.0
  Ga  Ga40  1  0.58669040  0.52889680  0.08669040  1.0
  Ga  Ga41  1  0.58669040  0.86223013  0.08669040  1.0
  Ga  Ga42  1  0.92002373  0.19556347  0.08669040  1.0
  Ga  Ga43  1  0.92002373  0.52889680  0.08669040  1.0
  Ga  Ga44  1  0.92002373  0.86223013  0.08669040  1.0
  Ga  Ga45  1  0.02002373  0.06223013  0.18669040  1.0
  Ga  Ga46  1  0.02002373  0.39556347  0.18669040  1.0
  Ga  Ga47  1  0.02002373  0.72889680  0.18669040  1.0
  Ga  Ga48  1  0.35335707  0.06223013  0.18669040  1.0
  Ga  Ga49  1  0.35335707  0.39556347  0.18669040  1.0
  Ga  Ga50  1  0.35335707  0.72889680  0.18669040  1.0
  Ga  Ga51  1  0.68669040  0.06223013  0.18669040  1.0
  Ga  Ga52  1  0.68669040  0.39556347  0.18669040  1.0
  Ga  Ga53  1  0.68669040  0.72889680  0.18669040  1.0
  Ga  Ga54  1  0.08669040  0.19556347  0.08669040  1.0
  Ga  Ga55  1  0.08669040  0.52889680  0.08669040  1.0
  Ga  Ga56  1  0.08669040  0.86223013  0.08669040  1.0
  Ga  Ga57  1  0.42002373  0.19556347  0.08669040  1.0
  Ga  Ga58  1  0.42002373  0.52889680  0.08669040  1.0
  Ga  Ga59  1  0.42002373  0.86223013  0.08669040  1.0
  Ga  Ga60  1  0.75335707  0.19556347  0.08669040  1.0
  Ga  Ga61  1  0.75335707  0.52889680  0.08669040  1.0
  Ga  Ga62  1  0.75335707  0.86223013  0.08669040  1.0
  Ga  Ga63  1  0.18669040  0.06223013  0.18669040  1.0
  Ga  Ga64  1  0.18669040  0.39556347  0.18669040  1.0
  Ga  Ga65  1  0.18669040  0.72889680  0.18669040  1.0
  Ga  Ga66  1  0.52002373  0.06223013  0.18669040  1.0
  Ga  Ga67  1  0.52002373  0.39556347  0.18669040  1.0
  Ga  Ga68  1  0.52002373  0.72889680  0.18669040  1.0
  Ga  Ga69  1  0.85335707  0.06223013  0.18669040  1.0
  Ga  Ga70  1  0.85335707  0.39556347  0.18669040  1.0
  Ga  Ga71  1  0.85335707  0.72889680  0.18669040  1.0
  Ga  Ga72  1  0.13669040  0.12889680  0.13669040  1.0
  Ga  Ga73  1  0.13669040  0.46223013  0.13669040  1.0
  Ga  Ga74  1  0.13669040  0.79556347  0.13669040  1.0
  Ga  Ga75  1  0.47002373  0.12889680  0.13669040  1.0
  Ga  Ga76  1  0.47002373  0.46223013  0.13669040  1.0
  Ga  Ga77  1  0.47002373  0.79556347  0.13669040  1.0
  Ga  Ga78  1  0.80335707  0.12889680  0.13669040  1.0
  Ga  Ga79  1  0.80335707  0.46223013  0.13669040  1.0
  Ga  Ga80  1  0.80335707  0.79556347  0.13669040  1.0
  Ga  Ga81  1  0.03669040  0.26223013  0.03669040  1.0
  Ga  Ga82  1  0.03669040  0.59556347  0.03669040  1.0
  Ga  Ga83  1  0.03669040  0.92889680  0.03669040  1.0
  Ga  Ga84  1  0.37002373  0.26223013  0.03669040  1.0
  Ga  Ga85  1  0.37002373  0.59556347  0.03669040  1.0
  Ga  Ga86  1  0.37002373  0.92889680  0.03669040  1.0
  Ga  Ga87  1  0.70335707  0.26223013  0.03669040  1.0
  Ga  Ga88  1  0.70335707  0.59556347  0.03669040  1.0
  Ga  Ga89  1  0.70335707  0.92889680  0.03669040  1.0
  Ga  Ga90  1  0.02002373  0.22889680  0.18669040  1.0
  Ga  Ga91  1  0.02002373  0.56223013  0.18669040  1.0
  Ga  Ga92  1  0.02002373  0.89556347  0.18669040  1.0
  Ga  Ga93  1  0.35335707  0.22889680  0.18669040  1.0
  Ga  Ga94  1  0.35335707  0.56223013  0.18669040  1.0
  Ga  Ga95  1  0.35335707  0.89556347  0.18669040  1.0
  Ga  Ga96  1  0.68669040  0.22889680  0.18669040  1.0
  Ga  Ga97  1  0.68669040  0.56223013  0.18669040  1.0
  Ga  Ga98  1  0.68669040  0.89556347  0.18669040  1.0
  Ga  Ga99  1  0.25335707  0.02889680  0.08669040  1.0
  Ga  Ga100  1  0.25335707  0.36223013  0.08669040  1.0
  Ga  Ga101  1  0.25335707  0.69556347  0.08669040  1.0
  Ga  Ga102  1  0.58669040  0.02889680  0.08669040  1.0
  Ga  Ga103  1  0.58669040  0.36223013  0.08669040  1.0
  Ga  Ga104  1  0.58669040  0.69556347  0.08669040  1.0
  Ga  Ga105  1  0.92002373  0.02889680  0.08669040  1.0
  Ga  Ga106  1  0.92002373  0.36223013  0.08669040  1.0
  Ga  Ga107  1  0.92002373  0.69556347  0.08669040  1.0
  Ga  Ga108  1  0.20335707  0.26223013  0.03669040  1.0
  Ga  Ga109  1  0.20335707  0.59556347  0.03669040  1.0
  Ga  Ga110  1  0.20335707  0.92889680  0.03669040  1.0
  Ga  Ga111  1  0.53669040  0.26223013  0.03669040  1.0
  Ga  Ga112  1  0.53669040  0.59556347  0.03669040  1.0
  Ga  Ga113  1  0.53669040  0.92889680  0.03669040  1.0
  Ga  Ga114  1  0.87002373  0.26223013  0.03669040  1.0
  Ga  Ga115  1  0.87002373  0.59556347  0.03669040  1.0
  Ga  Ga116  1  0.87002373  0.92889680  0.03669040  1.0
  Ga  Ga117  1  0.30335707  0.12889680  0.13669040  1.0
  Ga  Ga118  1  0.30335707  0.46223013  0.13669040  1.0
  Ga  Ga119  1  0.30335707  0.79556347  0.13669040  1.0
  Ga  Ga120  1  0.63669040  0.12889680  0.13669040  1.0
  Ga  Ga121  1  0.63669040  0.46223013  0.13669040  1.0
  Ga  Ga122  1  0.63669040  0.79556347  0.13669040  1.0
  Ga  Ga123  1  0.97002373  0.12889680  0.13669040  1.0
  Ga  Ga124  1  0.97002373  0.46223013  0.13669040  1.0
  Ga  Ga125  1  0.97002373  0.79556347  0.13669040  1.0
  Ga  Ga126  1  0.03669040  0.09556347  0.03669040  1.0
  Ga  Ga127  1  0.03669040  0.42889680  0.03669040  1.0
  Ga  Ga128  1  0.03669040  0.76223013  0.03669040  1.0
  Ga  Ga129  1  0.37002373  0.09556347  0.03669040  1.0
  Ga  Ga130  1  0.37002373  0.42889680  0.03669040  1.0
  Ga  Ga131  1  0.37002373  0.76223013  0.03669040  1.0
  Ga  Ga132  1  0.70335707  0.09556347  0.03669040  1.0
  Ga  Ga133  1  0.70335707  0.42889680  0.03669040  1.0
  Ga  Ga134  1  0.70335707  0.76223013  0.03669040  1.0
  Ga  Ga135  1  0.13669040  0.29556347  0.13669040  1.0
  Ga  Ga136  1  0.13669040  0.62889680  0.13669040  1.0
  Ga  Ga137  1  0.13669040  0.96223013  0.13669040  1.0
  Ga  Ga138  1  0.47002373  0.29556347  0.13669040  1.0
  Ga  Ga139  1  0.47002373  0.62889680  0.13669040  1.0
  Ga  Ga140  1  0.47002373  0.96223013  0.13669040  1.0
  Ga  Ga141  1  0.80335707  0.29556347  0.13669040  1.0
  Ga  Ga142  1  0.80335707  0.62889680  0.13669040  1.0
  Ga  Ga143  1  0.80335707  0.96223013  0.13669040  1.0
  Ga  Ga144  1  0.07712672  0.00976943  0.16046005  1.0
  Ga  Ga145  1  0.07712672  0.34310277  0.16046005  1.0
  Ga  Ga146  1  0.07712672  0.67643610  0.16046005  1.0
  Ga  Ga147  1  0.41046005  0.00976943  0.16046005  1.0
  Ga  Ga148  1  0.41046005  0.34310277  0.16046005  1.0
  Ga  Ga149  1  0.41046005  0.67643610  0.16046005  1.0
  Ga  Ga150  1  0.74379338  0.00976943  0.16046005  1.0
  Ga  Ga151  1  0.74379338  0.34310277  0.16046005  1.0
  Ga  Ga152  1  0.74379338  0.67643610  0.16046005  1.0
  Ga  Ga153  1  0.31046005  0.14310277  0.06046005  1.0
  Ga  Ga154  1  0.31046005  0.47643610  0.06046005  1.0
  Ga  Ga155  1  0.31046005  0.80976943  0.06046005  1.0
  Ga  Ga156  1  0.64379338  0.14310277  0.06046005  1.0
  Ga  Ga157  1  0.64379338  0.47643610  0.06046005  1.0
  Ga  Ga158  1  0.64379338  0.80976943  0.06046005  1.0
  Ga  Ga159  1  0.97712672  0.14310277  0.06046005  1.0
  Ga  Ga160  1  0.97712672  0.47643610  0.06046005  1.0
  Ga  Ga161  1  0.97712672  0.80976943  0.06046005  1.0
  Ga  Ga162  1  0.09912490  0.21223013  0.01169040  1.0
  Ga  Ga163  1  0.09912490  0.54556347  0.01169040  1.0
  Ga  Ga164  1  0.09912490  0.87889680  0.01169040  1.0
  Ga  Ga165  1  0.43245823  0.21223013  0.01169040  1.0
  Ga  Ga166  1  0.43245823  0.54556347  0.01169040  1.0
  Ga  Ga167  1  0.43245823  0.87889680  0.01169040  1.0
  Ga  Ga168  1  0.76579157  0.21223013  0.01169040  1.0
  Ga  Ga169  1  0.76579157  0.54556347  0.01169040  1.0
  Ga  Ga170  1  0.76579157  0.87889680  0.01169040  1.0
  Ga  Ga171  1  0.19912490  0.07889680  0.11169040  1.0
  Ga  Ga172  1  0.19912490  0.41223013  0.11169040  1.0
  Ga  Ga173  1  0.19912490  0.74556347  0.11169040  1.0
  Ga  Ga174  1  0.53245823  0.07889680  0.11169040  1.0
  Ga  Ga175  1  0.53245823  0.41223013  0.11169040  1.0
  Ga  Ga176  1  0.53245823  0.74556347  0.11169040  1.0
  Ga  Ga177  1  0.86579157  0.07889680  0.11169040  1.0
  Ga  Ga178  1  0.86579157  0.41223013  0.11169040  1.0
  Ga  Ga179  1  0.86579157  0.74556347  0.11169040  1.0
  Ga  Ga180  1  0.24092257  0.17889680  0.16169040  1.0
  Ga  Ga181  1  0.24092257  0.51223013  0.16169040  1.0
  Ga  Ga182  1  0.24092257  0.84556347  0.16169040  1.0
  Ga  Ga183  1  0.57425590  0.17889680  0.16169040  1.0
  Ga  Ga184  1  0.57425590  0.51223013  0.16169040  1.0
  Ga  Ga185  1  0.57425590  0.84556347  0.16169040  1.0
  Ga  Ga186  1  0.90758923  0.17889680  0.16169040  1.0
  Ga  Ga187  1  0.90758923  0.51223013  0.16169040  1.0
  Ga  Ga188  1  0.90758923  0.84556347  0.16169040  1.0
  Ga  Ga189  1  0.14092257  0.31223013  0.06169040  1.0
  Ga  Ga190  1  0.14092257  0.64556347  0.06169040  1.0
  Ga  Ga191  1  0.14092257  0.97889680  0.06169040  1.0
  Ga  Ga192  1  0.47425590  0.31223013  0.06169040  1.0
  Ga  Ga193  1  0.47425590  0.64556347  0.06169040  1.0
  Ga  Ga194  1  0.47425590  0.97889680  0.06169040  1.0
  Ga  Ga195  1  0.80758923  0.31223013  0.06169040  1.0
  Ga  Ga196  1  0.80758923  0.64556347  0.06169040  1.0
  Ga  Ga197  1  0.80758923  0.97889680  0.06169040  1.0
  Ga  Ga198  1  0.06210052  0.14638370  0.05799935  1.0
  Ga  Ga199  1  0.06210052  0.47971703  0.05799935  1.0
  Ga  Ga200  1  0.06210052  0.81305037  0.05799935  1.0
  Ga  Ga201  1  0.39543385  0.14638370  0.05799935  1.0
  Ga  Ga202  1  0.39543385  0.47971703  0.05799935  1.0
  Ga  Ga203  1  0.39543385  0.81305037  0.05799935  1.0
  Ga  Ga204  1  0.72876718  0.14638370  0.05799935  1.0
  Ga  Ga205  1  0.72876718  0.47971703  0.05799935  1.0
  Ga  Ga206  1  0.72876718  0.81305037  0.05799935  1.0
  Ga  Ga207  1  0.16210052  0.01305037  0.15799935  1.0
  Ga  Ga208  1  0.16210052  0.34638370  0.15799935  1.0
  Ga  Ga209  1  0.16210052  0.67971703  0.15799935  1.0
  Ga  Ga210  1  0.49543385  0.01305037  0.15799935  1.0
  Ga  Ga211  1  0.49543385  0.34638370  0.15799935  1.0
  Ga  Ga212  1  0.49543385  0.67971703  0.15799935  1.0
  Ga  Ga213  1  0.82876718  0.01305037  0.15799935  1.0
  Ga  Ga214  1  0.82876718  0.34638370  0.15799935  1.0
  Ga  Ga215  1  0.82876718  0.67971703  0.15799935  1.0
  Ga  Ga216  1  0.22794695  0.14474323  0.06538145  1.0
  Ga  Ga217  1  0.22794695  0.47807657  0.06538145  1.0
  Ga  Ga218  1  0.22794695  0.81140990  0.06538145  1.0
  Ga  Ga219  1  0.56128028  0.14474323  0.06538145  1.0
  Ga  Ga220  1  0.56128028  0.47807657  0.06538145  1.0
  Ga  Ga221  1  0.56128028  0.81140990  0.06538145  1.0
  Ga  Ga222  1  0.89461362  0.14474323  0.06538145  1.0
  Ga  Ga223  1  0.89461362  0.47807657  0.06538145  1.0
  Ga  Ga224  1  0.89461362  0.81140990  0.06538145  1.0
  Ga  Ga225  1  0.32794695  0.01140990  0.16538145  1.0
  Ga  Ga226  1  0.32794695  0.34474323  0.16538145  1.0
  Ga  Ga227  1  0.32794695  0.67807657  0.16538145  1.0
  Ga  Ga228  1  0.66128028  0.01140990  0.16538145  1.0
  Ga  Ga229  1  0.66128028  0.34474323  0.16538145  1.0
  Ga  Ga230  1  0.66128028  0.67807657  0.16538145  1.0
  Ga  Ga231  1  0.99461362  0.01140990  0.16538145  1.0
  Ga  Ga232  1  0.99461362  0.34474323  0.16538145  1.0
  Ga  Ga233  1  0.99461362  0.67807657  0.16538145  1.0
  Ga  Ga234  1  0.16879338  0.19310277  0.08546005  1.0
  Ga  Ga235  1  0.16879338  0.52643610  0.08546005  1.0
  Ga  Ga236  1  0.16879338  0.85976943  0.08546005  1.0
  Ga  Ga237  1  0.50212672  0.19310277  0.08546005  1.0
  Ga  Ga238  1  0.50212672  0.52643610  0.08546005  1.0
  Ga  Ga239  1  0.50212672  0.85976943  0.08546005  1.0
  Ga  Ga240  1  0.83546005  0.19310277  0.08546005  1.0
  Ga  Ga241  1  0.83546005  0.52643610  0.08546005  1.0
  Ga  Ga242  1  0.83546005  0.85976943  0.08546005  1.0
  Ga  Ga243  1  0.26879338  0.05976943  0.18546005  1.0
  Ga  Ga244  1  0.26879338  0.39310277  0.18546005  1.0
  Ga  Ga245  1  0.26879338  0.72643610  0.18546005  1.0
  Ga  Ga246  1  0.60212672  0.05976943  0.18546005  1.0
  Ga  Ga247  1  0.60212672  0.39310277  0.18546005  1.0
  Ga  Ga248  1  0.60212672  0.72643610  0.18546005  1.0
  Ga  Ga249  1  0.93546005  0.05976943  0.18546005  1.0
  Ga  Ga250  1  0.93546005  0.39310277  0.18546005  1.0
  Ga  Ga251  1  0.93546005  0.72643610  0.18546005  1.0
  Ga  Ga252  1  0.22043385  0.12971703  0.13299935  1.0
  Ga  Ga253  1  0.22043385  0.46305037  0.13299935  1.0
  Ga  Ga254  1  0.22043385  0.79638370  0.13299935  1.0
  Ga  Ga255  1  0.55376718  0.12971703  0.13299935  1.0
  Ga  Ga256  1  0.55376718  0.46305037  0.13299935  1.0
  Ga  Ga257  1  0.55376718  0.79638370  0.13299935  1.0
  Ga  Ga258  1  0.88710052  0.12971703  0.13299935  1.0
  Ga  Ga259  1  0.88710052  0.46305037  0.13299935  1.0
  Ga  Ga260  1  0.88710052  0.79638370  0.13299935  1.0
  Ga  Ga261  1  0.12043385  0.26305037  0.03299935  1.0
  Ga  Ga262  1  0.12043385  0.59638370  0.03299935  1.0
  Ga  Ga263  1  0.12043385  0.92971703  0.03299935  1.0
  Ga  Ga264  1  0.45376718  0.26305037  0.03299935  1.0
  Ga  Ga265  1  0.45376718  0.59638370  0.03299935  1.0
  Ga  Ga266  1  0.45376718  0.92971703  0.03299935  1.0
  Ga  Ga267  1  0.78710052  0.26305037  0.03299935  1.0
  Ga  Ga268  1  0.78710052  0.59638370  0.03299935  1.0
  Ga  Ga269  1  0.78710052  0.92971703  0.03299935  1.0
  Ga  Ga270  1  0.17425590  0.21223013  0.01169040  1.0
  Ga  Ga271  1  0.17425590  0.54556347  0.01169040  1.0
  Ga  Ga272  1  0.17425590  0.87889680  0.01169040  1.0
  Ga  Ga273  1  0.50758923  0.21223013  0.01169040  1.0
  Ga  Ga274  1  0.50758923  0.54556347  0.01169040  1.0
  Ga  Ga275  1  0.50758923  0.87889680  0.01169040  1.0
  Ga  Ga276  1  0.84092257  0.21223013  0.01169040  1.0
  Ga  Ga277  1  0.84092257  0.54556347  0.01169040  1.0
  Ga  Ga278  1  0.84092257  0.87889680  0.01169040  1.0
  Ga  Ga279  1  0.27425590  0.07889680  0.11169040  1.0
  Ga  Ga280  1  0.27425590  0.41223013  0.11169040  1.0
  Ga  Ga281  1  0.27425590  0.74556347  0.11169040  1.0
  Ga  Ga282  1  0.60758923  0.07889680  0.11169040  1.0
  Ga  Ga283  1  0.60758923  0.41223013  0.11169040  1.0
  Ga  Ga284  1  0.60758923  0.74556347  0.11169040  1.0
  Ga  Ga285  1  0.94092257  0.07889680  0.11169040  1.0
  Ga  Ga286  1  0.94092257  0.41223013  0.11169040  1.0
  Ga  Ga287  1  0.94092257  0.74556347  0.11169040  1.0
  Ga  Ga288  1  0.26961362  0.22807657  0.19038145  1.0
  Ga  Ga289  1  0.26961362  0.56140990  0.19038145  1.0
  Ga  Ga290  1  0.26961362  0.89474323  0.19038145  1.0
  Ga  Ga291  1  0.60294695  0.22807657  0.19038145  1.0
  Ga  Ga292  1  0.60294695  0.56140990  0.19038145  1.0
  Ga  Ga293  1  0.60294695  0.89474323  0.19038145  1.0
  Ga  Ga294  1  0.93628028  0.22807657  0.19038145  1.0
  Ga  Ga295  1  0.93628028  0.56140990  0.19038145  1.0
  Ga  Ga296  1  0.93628028  0.89474323  0.19038145  1.0
  Ga  Ga297  1  0.16961362  0.02807657  0.09038145  1.0
  Ga  Ga298  1  0.16961362  0.36140990  0.09038145  1.0
  Ga  Ga299  1  0.16961362  0.69474323  0.09038145  1.0
  Ga  Ga300  1  0.50294695  0.02807657  0.09038145  1.0
  Ga  Ga301  1  0.50294695  0.36140990  0.09038145  1.0
  Ga  Ga302  1  0.50294695  0.69474323  0.09038145  1.0
  Ga  Ga303  1  0.83628028  0.02807657  0.09038145  1.0
  Ga  Ga304  1  0.83628028  0.36140990  0.09038145  1.0
  Ga  Ga305  1  0.83628028  0.69474323  0.09038145  1.0
  Ga  Ga306  1  0.16579157  0.17889680  0.16169040  1.0
  Ga  Ga307  1  0.16579157  0.51223013  0.16169040  1.0
  Ga  Ga308  1  0.16579157  0.84556347  0.16169040  1.0
  Ga  Ga309  1  0.49912490  0.17889680  0.16169040  1.0
  Ga  Ga310  1  0.49912490  0.51223013  0.16169040  1.0
  Ga  Ga311  1  0.49912490  0.84556347  0.16169040  1.0
  Ga  Ga312  1  0.83245823  0.17889680  0.16169040  1.0
  Ga  Ga313  1  0.83245823  0.51223013  0.16169040  1.0
  Ga  Ga314  1  0.83245823  0.84556347  0.16169040  1.0
  Ga  Ga315  1  0.06579157  0.31223013  0.06169040  1.0
  Ga  Ga316  1  0.06579157  0.64556347  0.06169040  1.0
  Ga  Ga317  1  0.06579157  0.97889680  0.06169040  1.0
  Ga  Ga318  1  0.39912490  0.31223013  0.06169040  1.0
  Ga  Ga319  1  0.39912490  0.64556347  0.06169040  1.0
  Ga  Ga320  1  0.39912490  0.97889680  0.06169040  1.0
  Ga  Ga321  1  0.73245823  0.31223013  0.06169040  1.0
  Ga  Ga322  1  0.73245823  0.64556347  0.06169040  1.0
  Ga  Ga323  1  0.73245823  0.97889680  0.06169040  1.0
  Ga  Ga324  1  0.14625408  0.14802417  0.06292075  1.0
  Ga  Ga325  1  0.14625408  0.48135750  0.06292075  1.0
  Ga  Ga326  1  0.14625408  0.81469083  0.06292075  1.0
  Ga  Ga327  1  0.47958742  0.14802417  0.06292075  1.0
  Ga  Ga328  1  0.47958742  0.48135750  0.06292075  1.0
  Ga  Ga329  1  0.47958742  0.81469083  0.06292075  1.0
  Ga  Ga330  1  0.81292075  0.14802417  0.06292075  1.0
  Ga  Ga331  1  0.81292075  0.48135750  0.06292075  1.0
  Ga  Ga332  1  0.81292075  0.81469083  0.06292075  1.0
  Ga  Ga333  1  0.24625408  0.01469083  0.16292075  1.0
  Ga  Ga334  1  0.24625408  0.34802417  0.16292075  1.0
  Ga  Ga335  1  0.24625408  0.68135750  0.16292075  1.0
  Ga  Ga336  1  0.57958742  0.01469083  0.16292075  1.0
  Ga  Ga337  1  0.57958742  0.34802417  0.16292075  1.0
  Ga  Ga338  1  0.57958742  0.68135750  0.16292075  1.0
  Ga  Ga339  1  0.91292075  0.01469083  0.16292075  1.0
  Ga  Ga340  1  0.91292075  0.34802417  0.16292075  1.0
  Ga  Ga341  1  0.91292075  0.68135750  0.16292075  1.0
  Ga  Ga342  1  0.05458742  0.29802417  0.13792075  1.0
  Ga  Ga343  1  0.05458742  0.63135750  0.13792075  1.0
  Ga  Ga344  1  0.05458742  0.96469083  0.13792075  1.0
  Ga  Ga345  1  0.38792075  0.29802417  0.13792075  1.0
  Ga  Ga346  1  0.38792075  0.63135750  0.13792075  1.0
  Ga  Ga347  1  0.38792075  0.96469083  0.13792075  1.0
  Ga  Ga348  1  0.72125408  0.29802417  0.13792075  1.0
  Ga  Ga349  1  0.72125408  0.63135750  0.13792075  1.0
  Ga  Ga350  1  0.72125408  0.96469083  0.13792075  1.0
  Ga  Ga351  1  0.28792075  0.09802417  0.03792075  1.0
  Ga  Ga352  1  0.28792075  0.43135750  0.03792075  1.0
  Ga  Ga353  1  0.28792075  0.76469083  0.03792075  1.0
  Ga  Ga354  1  0.62125408  0.09802417  0.03792075  1.0
  Ga  Ga355  1  0.62125408  0.43135750  0.03792075  1.0
  Ga  Ga356  1  0.62125408  0.76469083  0.03792075  1.0
  Ga  Ga357  1  0.95458742  0.09802417  0.03792075  1.0
  Ga  Ga358  1  0.95458742  0.43135750  0.03792075  1.0
  Ga  Ga359  1  0.95458742  0.76469083  0.03792075  1.0
  Ga  Ga360  1  0.09625408  0.04802417  0.01292075  1.0
  Ga  Ga361  1  0.09625408  0.38135750  0.01292075  1.0
  Ga  Ga362  1  0.09625408  0.71469083  0.01292075  1.0
  Ga  Ga363  1  0.42958742  0.04802417  0.01292075  1.0
  Ga  Ga364  1  0.42958742  0.38135750  0.01292075  1.0
  Ga  Ga365  1  0.42958742  0.71469083  0.01292075  1.0
  Ga  Ga366  1  0.76292075  0.04802417  0.01292075  1.0
  Ga  Ga367  1  0.76292075  0.38135750  0.01292075  1.0
  Ga  Ga368  1  0.76292075  0.71469083  0.01292075  1.0
  Ga  Ga369  1  0.19625408  0.24802417  0.11292075  1.0
  Ga  Ga370  1  0.19625408  0.58135750  0.11292075  1.0
  Ga  Ga371  1  0.19625408  0.91469083  0.11292075  1.0
  Ga  Ga372  1  0.52958742  0.24802417  0.11292075  1.0
  Ga  Ga373  1  0.52958742  0.58135750  0.11292075  1.0
  Ga  Ga374  1  0.52958742  0.91469083  0.11292075  1.0
  Ga  Ga375  1  0.86292075  0.24802417  0.11292075  1.0
  Ga  Ga376  1  0.86292075  0.58135750  0.11292075  1.0
  Ga  Ga377  1  0.86292075  0.91469083  0.11292075  1.0
  Ga  Ga378  1  0.07425590  0.17889680  0.16169040  1.0
  Ga  Ga379  1  0.07425590  0.51223013  0.16169040  1.0
  Ga  Ga380  1  0.07425590  0.84556347  0.16169040  1.0
  Ga  Ga381  1  0.40758923  0.17889680  0.16169040  1.0
  Ga  Ga382  1  0.40758923  0.51223013  0.16169040  1.0
  Ga  Ga383  1  0.40758923  0.84556347  0.16169040  1.0
  Ga  Ga384  1  0.74092257  0.17889680  0.16169040  1.0
  Ga  Ga385  1  0.74092257  0.51223013  0.16169040  1.0
  Ga  Ga386  1  0.74092257  0.84556347  0.16169040  1.0
  Ga  Ga387  1  0.30758923  0.31223013  0.06169040  1.0
  Ga  Ga388  1  0.30758923  0.64556347  0.06169040  1.0
  Ga  Ga389  1  0.30758923  0.97889680  0.06169040  1.0
  Ga  Ga390  1  0.64092257  0.31223013  0.06169040  1.0
  Ga  Ga391  1  0.64092257  0.64556347  0.06169040  1.0
  Ga  Ga392  1  0.64092257  0.97889680  0.06169040  1.0
  Ga  Ga393  1  0.97425590  0.31223013  0.06169040  1.0
  Ga  Ga394  1  0.97425590  0.64556347  0.06169040  1.0
  Ga  Ga395  1  0.97425590  0.97889680  0.06169040  1.0
  Ga  Ga396  1  0.26579157  0.21223013  0.01169040  1.0
  Ga  Ga397  1  0.26579157  0.54556347  0.01169040  1.0
  Ga  Ga398  1  0.26579157  0.87889680  0.01169040  1.0
  Ga  Ga399  1  0.59912490  0.21223013  0.01169040  1.0
  Ga  Ga400  1  0.59912490  0.54556347  0.01169040  1.0
  Ga  Ga401  1  0.59912490  0.87889680  0.01169040  1.0
  Ga  Ga402  1  0.93245823  0.21223013  0.01169040  1.0
  Ga  Ga403  1  0.93245823  0.54556347  0.01169040  1.0
  Ga  Ga404  1  0.93245823  0.87889680  0.01169040  1.0
  Ga  Ga405  1  0.03245823  0.07889680  0.11169040  1.0
  Ga  Ga406  1  0.03245823  0.41223013  0.11169040  1.0
  Ga  Ga407  1  0.03245823  0.74556347  0.11169040  1.0
  Ga  Ga408  1  0.36579157  0.07889680  0.11169040  1.0
  Ga  Ga409  1  0.36579157  0.41223013  0.11169040  1.0
  Ga  Ga410  1  0.36579157  0.74556347  0.11169040  1.0
  Ga  Ga411  1  0.69912490  0.07889680  0.11169040  1.0
  Ga  Ga412  1  0.69912490  0.41223013  0.11169040  1.0
  Ga  Ga413  1  0.69912490  0.74556347  0.11169040  1.0
  Ga  Ga414  1  0.11128028  0.24474323  0.11538145  1.0
  Ga  Ga415  1  0.11128028  0.57807657  0.11538145  1.0
  Ga  Ga416  1  0.11128028  0.91140990  0.11538145  1.0
  Ga  Ga417  1  0.44461362  0.24474323  0.11538145  1.0
  Ga  Ga418  1  0.44461362  0.57807657  0.11538145  1.0
  Ga  Ga419  1  0.44461362  0.91140990  0.11538145  1.0
  Ga  Ga420  1  0.77794695  0.24474323  0.11538145  1.0
  Ga  Ga421  1  0.77794695  0.57807657  0.11538145  1.0
  Ga  Ga422  1  0.77794695  0.91140990  0.11538145  1.0
  Ga  Ga423  1  0.01128028  0.04474323  0.01538145  1.0
  Ga  Ga424  1  0.01128028  0.37807657  0.01538145  1.0
  Ga  Ga425  1  0.01128028  0.71140990  0.01538145  1.0
  Ga  Ga426  1  0.34461362  0.04474323  0.01538145  1.0
  Ga  Ga427  1  0.34461362  0.37807657  0.01538145  1.0
  Ga  Ga428  1  0.34461362  0.71140990  0.01538145  1.0
  Ga  Ga429  1  0.67794695  0.04474323  0.01538145  1.0
  Ga  Ga430  1  0.67794695  0.37807657  0.01538145  1.0
  Ga  Ga431  1  0.67794695  0.71140990  0.01538145  1.0
  Ga  Ga432  1  0.27876718  0.24638370  0.10799935  1.0
  Ga  Ga433  1  0.27876718  0.57971703  0.10799935  1.0
  Ga  Ga434  1  0.27876718  0.91305037  0.10799935  1.0
  Ga  Ga435  1  0.61210052  0.24638370  0.10799935  1.0
  Ga  Ga436  1  0.61210052  0.57971703  0.10799935  1.0
  Ga  Ga437  1  0.61210052  0.91305037  0.10799935  1.0
  Ga  Ga438  1  0.94543385  0.24638370  0.10799935  1.0
  Ga  Ga439  1  0.94543385  0.57971703  0.10799935  1.0
  Ga  Ga440  1  0.94543385  0.91305037  0.10799935  1.0
  Ga  Ga441  1  0.17876718  0.04638370  0.00799935  1.0
  Ga  Ga442  1  0.17876718  0.37971703  0.00799935  1.0
  Ga  Ga443  1  0.17876718  0.71305037  0.00799935  1.0
  Ga  Ga444  1  0.51210052  0.04638370  0.00799935  1.0
  Ga  Ga445  1  0.51210052  0.37971703  0.00799935  1.0
  Ga  Ga446  1  0.51210052  0.71305037  0.00799935  1.0
  Ga  Ga447  1  0.84543385  0.04638370  0.00799935  1.0
  Ga  Ga448  1  0.84543385  0.37971703  0.00799935  1.0
  Ga  Ga449  1  0.84543385  0.71305037  0.00799935  1.0
  Ga  Ga450  1  0.00458742  0.19802417  0.08792075  1.0
  Ga  Ga451  1  0.00458742  0.53135750  0.08792075  1.0
  Ga  Ga452  1  0.00458742  0.86469083  0.08792075  1.0
  Ga  Ga453  1  0.33792075  0.19802417  0.08792075  1.0
  Ga  Ga454  1  0.33792075  0.53135750  0.08792075  1.0
  Ga  Ga455  1  0.33792075  0.86469083  0.08792075  1.0
  Ga  Ga456  1  0.67125408  0.19802417  0.08792075  1.0
  Ga  Ga457  1  0.67125408  0.53135750  0.08792075  1.0
  Ga  Ga458  1  0.67125408  0.86469083  0.08792075  1.0
  Ga  Ga459  1  0.10458742  0.06469083  0.18792075  1.0
  Ga  Ga460  1  0.10458742  0.39802417  0.18792075  1.0
  Ga  Ga461  1  0.10458742  0.73135750  0.18792075  1.0
  Ga  Ga462  1  0.43792075  0.06469083  0.18792075  1.0
  Ga  Ga463  1  0.43792075  0.39802417  0.18792075  1.0
  Ga  Ga464  1  0.43792075  0.73135750  0.18792075  1.0
  Ga  Ga465  1  0.77125408  0.06469083  0.18792075  1.0
  Ga  Ga466  1  0.77125408  0.39802417  0.18792075  1.0
  Ga  Ga467  1  0.77125408  0.73135750  0.18792075  1.0
  Ga  Ga468  1  0.28628028  0.26140990  0.04038145  1.0
  Ga  Ga469  1  0.28628028  0.59474323  0.04038145  1.0
  Ga  Ga470  1  0.28628028  0.92807657  0.04038145  1.0
  Ga  Ga471  1  0.61961362  0.26140990  0.04038145  1.0
  Ga  Ga472  1  0.61961362  0.59474323  0.04038145  1.0
  Ga  Ga473  1  0.61961362  0.92807657  0.04038145  1.0
  Ga  Ga474  1  0.95294695  0.26140990  0.04038145  1.0
  Ga  Ga475  1  0.95294695  0.59474323  0.04038145  1.0
  Ga  Ga476  1  0.95294695  0.92807657  0.04038145  1.0
  Ga  Ga477  1  0.05294695  0.12807657  0.14038145  1.0
  Ga  Ga478  1  0.05294695  0.46140990  0.14038145  1.0
  Ga  Ga479  1  0.05294695  0.79474323  0.14038145  1.0
  Ga  Ga480  1  0.38628028  0.12807657  0.14038145  1.0
  Ga  Ga481  1  0.38628028  0.46140990  0.14038145  1.0
  Ga  Ga482  1  0.38628028  0.79474323  0.14038145  1.0
  Ga  Ga483  1  0.71961362  0.12807657  0.14038145  1.0
  Ga  Ga484  1  0.71961362  0.46140990  0.14038145  1.0
  Ga  Ga485  1  0.71961362  0.79474323  0.14038145  1.0
  Ga  Ga486  1  0.33245823  0.17889680  0.16169040  1.0
  Ga  Ga487  1  0.33245823  0.51223013  0.16169040  1.0
  Ga  Ga488  1  0.33245823  0.84556347  0.16169040  1.0
  Ga  Ga489  1  0.66579157  0.17889680  0.16169040  1.0
  Ga  Ga490  1  0.66579157  0.51223013  0.16169040  1.0
  Ga  Ga491  1  0.66579157  0.84556347  0.16169040  1.0
  Ga  Ga492  1  0.99912490  0.17889680  0.16169040  1.0
  Ga  Ga493  1  0.99912490  0.51223013  0.16169040  1.0
  Ga  Ga494  1  0.99912490  0.84556347  0.16169040  1.0
  Ga  Ga495  1  0.23245823  0.31223013  0.06169040  1.0
  Ga  Ga496  1  0.23245823  0.64556347  0.06169040  1.0
  Ga  Ga497  1  0.23245823  0.97889680  0.06169040  1.0
  Ga  Ga498  1  0.56579157  0.31223013  0.06169040  1.0
  Ga  Ga499  1  0.56579157  0.64556347  0.06169040  1.0
  Ga  Ga500  1  0.56579157  0.97889680  0.06169040  1.0
  Ga  Ga501  1  0.89912490  0.31223013  0.06169040  1.0
  Ga  Ga502  1  0.89912490  0.64556347  0.06169040  1.0
  Ga  Ga503  1  0.89912490  0.97889680  0.06169040  1.0
  Ga  Ga504  1  0.10376718  0.22971703  0.18299935  1.0
  Ga  Ga505  1  0.10376718  0.56305037  0.18299935  1.0
  Ga  Ga506  1  0.10376718  0.89638370  0.18299935  1.0
  Ga  Ga507  1  0.43710052  0.22971703  0.18299935  1.0
  Ga  Ga508  1  0.43710052  0.56305037  0.18299935  1.0
  Ga  Ga509  1  0.43710052  0.89638370  0.18299935  1.0
  Ga  Ga510  1  0.77043385  0.22971703  0.18299935  1.0
  Ga  Ga511  1  0.77043385  0.56305037  0.18299935  1.0
  Ga  Ga512  1  0.77043385  0.89638370  0.18299935  1.0
  Ga  Ga513  1  0.00376718  0.02971703  0.08299935  1.0
  Ga  Ga514  1  0.00376718  0.36305037  0.08299935  1.0
  Ga  Ga515  1  0.00376718  0.69638370  0.08299935  1.0
  Ga  Ga516  1  0.33710052  0.02971703  0.08299935  1.0
  Ga  Ga517  1  0.33710052  0.36305037  0.08299935  1.0
  Ga  Ga518  1  0.33710052  0.69638370  0.08299935  1.0
  Ga  Ga519  1  0.67043385  0.02971703  0.08299935  1.0
  Ga  Ga520  1  0.67043385  0.36305037  0.08299935  1.0
  Ga  Ga521  1  0.67043385  0.69638370  0.08299935  1.0
  Ga  Ga522  1  0.00758923  0.21223013  0.01169040  1.0
  Ga  Ga523  1  0.00758923  0.54556347  0.01169040  1.0
  Ga  Ga524  1  0.00758923  0.87889680  0.01169040  1.0
  Ga  Ga525  1  0.34092257  0.21223013  0.01169040  1.0
  Ga  Ga526  1  0.34092257  0.54556347  0.01169040  1.0
  Ga  Ga527  1  0.34092257  0.87889680  0.01169040  1.0
  Ga  Ga528  1  0.67425590  0.21223013  0.01169040  1.0
  Ga  Ga529  1  0.67425590  0.54556347  0.01169040  1.0
  Ga  Ga530  1  0.67425590  0.87889680  0.01169040  1.0
  Ga  Ga531  1  0.10758923  0.07889680  0.11169040  1.0
  Ga  Ga532  1  0.10758923  0.41223013  0.11169040  1.0
  Ga  Ga533  1  0.10758923  0.74556347  0.11169040  1.0
  Ga  Ga534  1  0.44092257  0.07889680  0.11169040  1.0
  Ga  Ga535  1  0.44092257  0.41223013  0.11169040  1.0
  Ga  Ga536  1  0.44092257  0.74556347  0.11169040  1.0
  Ga  Ga537  1  0.77425590  0.07889680  0.11169040  1.0
  Ga  Ga538  1  0.77425590  0.41223013  0.11169040  1.0
  Ga  Ga539  1  0.77425590  0.74556347  0.11169040  1.0
  Ga  Ga540  1  0.02712672  0.24310277  0.11046005  1.0
  Ga  Ga541  1  0.02712672  0.57643610  0.11046005  1.0
  Ga  Ga542  1  0.02712672  0.90976943  0.11046005  1.0
  Ga  Ga543  1  0.36046005  0.24310277  0.11046005  1.0
  Ga  Ga544  1  0.36046005  0.57643610  0.11046005  1.0
  Ga  Ga545  1  0.36046005  0.90976943  0.11046005  1.0
  Ga  Ga546  1  0.69379338  0.24310277  0.11046005  1.0
  Ga  Ga547  1  0.69379338  0.57643610  0.11046005  1.0
  Ga  Ga548  1  0.69379338  0.90976943  0.11046005  1.0
  Ga  Ga549  1  0.26046005  0.04310277  0.01046005  1.0
  Ga  Ga550  1  0.26046005  0.37643610  0.01046005  1.0
  Ga  Ga551  1  0.26046005  0.70976943  0.01046005  1.0
  Ga  Ga552  1  0.59379338  0.04310277  0.01046005  1.0
  Ga  Ga553  1  0.59379338  0.37643610  0.01046005  1.0
  Ga  Ga554  1  0.59379338  0.70976943  0.01046005  1.0
  Ga  Ga555  1  0.92712672  0.04310277  0.01046005  1.0
  Ga  Ga556  1  0.92712672  0.37643610  0.01046005  1.0
  Ga  Ga557  1  0.92712672  0.70976943  0.01046005  1.0
  Ga  Ga558  1  0.11879338  0.09310277  0.03546005  1.0
  Ga  Ga559  1  0.11879338  0.42643610  0.03546005  1.0
  Ga  Ga560  1  0.11879338  0.75976943  0.03546005  1.0
  Ga  Ga561  1  0.45212672  0.09310277  0.03546005  1.0
  Ga  Ga562  1  0.45212672  0.42643610  0.03546005  1.0
  Ga  Ga563  1  0.45212672  0.75976943  0.03546005  1.0
  Ga  Ga564  1  0.78546005  0.09310277  0.03546005  1.0
  Ga  Ga565  1  0.78546005  0.42643610  0.03546005  1.0
  Ga  Ga566  1  0.78546005  0.75976943  0.03546005  1.0
  Ga  Ga567  1  0.21879338  0.29310277  0.13546005  1.0
  Ga  Ga568  1  0.21879338  0.62643610  0.13546005  1.0
  Ga  Ga569  1  0.21879338  0.95976943  0.13546005  1.0
  Ga  Ga570  1  0.55212672  0.29310277  0.13546005  1.0
  Ga  Ga571  1  0.55212672  0.62643610  0.13546005  1.0
  Ga  Ga572  1  0.55212672  0.95976943  0.13546005  1.0
  Ga  Ga573  1  0.88546005  0.29310277  0.13546005  1.0
  Ga  Ga574  1  0.88546005  0.62643610  0.13546005  1.0
  Ga  Ga575  1  0.88546005  0.95976943  0.13546005  1.0
  Ga  Ga576  1  0.05335707  0.29556347  0.38669040  1.0
  Ga  Ga577  1  0.05335707  0.62889680  0.38669040  1.0
  Ga  Ga578  1  0.05335707  0.96223013  0.38669040  1.0
  Ga  Ga579  1  0.38669040  0.29556347  0.38669040  1.0
  Ga  Ga580  1  0.38669040  0.62889680  0.38669040  1.0
  Ga  Ga581  1  0.38669040  0.96223013  0.38669040  1.0
  Ga  Ga582  1  0.72002373  0.29556347  0.38669040  1.0
  Ga  Ga583  1  0.72002373  0.62889680  0.38669040  1.0
  Ga  Ga584  1  0.72002373  0.96223013  0.38669040  1.0
  Ga  Ga585  1  0.28669040  0.09556347  0.28669040  1.0
  Ga  Ga586  1  0.28669040  0.42889680  0.28669040  1.0
  Ga  Ga587  1  0.28669040  0.76223013  0.28669040  1.0
  Ga  Ga588  1  0.62002373  0.09556347  0.28669040  1.0
  Ga  Ga589  1  0.62002373  0.42889680  0.28669040  1.0
  Ga  Ga590  1  0.62002373  0.76223013  0.28669040  1.0
  Ga  Ga591  1  0.95335707  0.09556347  0.28669040  1.0
  Ga  Ga592  1  0.95335707  0.42889680  0.28669040  1.0
  Ga  Ga593  1  0.95335707  0.76223013  0.28669040  1.0
  Ga  Ga594  1  0.17002373  0.02889680  0.33669040  1.0
  Ga  Ga595  1  0.17002373  0.36223013  0.33669040  1.0
  Ga  Ga596  1  0.17002373  0.69556347  0.33669040  1.0
  Ga  Ga597  1  0.50335707  0.02889680  0.33669040  1.0
  Ga  Ga598  1  0.50335707  0.36223013  0.33669040  1.0
  Ga  Ga599  1  0.50335707  0.69556347  0.33669040  1.0
  Ga  Ga600  1  0.83669040  0.02889680  0.33669040  1.0
  Ga  Ga601  1  0.83669040  0.36223013  0.33669040  1.0
  Ga  Ga602  1  0.83669040  0.69556347  0.33669040  1.0
  Ga  Ga603  1  0.07002373  0.16223013  0.23669040  1.0
  Ga  Ga604  1  0.07002373  0.49556347  0.23669040  1.0
  Ga  Ga605  1  0.07002373  0.82889680  0.23669040  1.0
  Ga  Ga606  1  0.40335707  0.16223013  0.23669040  1.0
  Ga  Ga607  1  0.40335707  0.49556347  0.23669040  1.0
  Ga  Ga608  1  0.40335707  0.82889680  0.23669040  1.0
  Ga  Ga609  1  0.73669040  0.16223013  0.23669040  1.0
  Ga  Ga610  1  0.73669040  0.49556347  0.23669040  1.0
  Ga  Ga611  1  0.73669040  0.82889680  0.23669040  1.0
  Ga  Ga612  1  0.12002373  0.26223013  0.28669040  1.0
  Ga  Ga613  1  0.12002373  0.59556347  0.28669040  1.0
  Ga  Ga614  1  0.12002373  0.92889680  0.28669040  1.0
  Ga  Ga615  1  0.45335707  0.26223013  0.28669040  1.0
  Ga  Ga616  1  0.45335707  0.59556347  0.28669040  1.0
  Ga  Ga617  1  0.45335707  0.92889680  0.28669040  1.0
  Ga  Ga618  1  0.78669040  0.26223013  0.28669040  1.0
  Ga  Ga619  1  0.78669040  0.59556347  0.28669040  1.0
  Ga  Ga620  1  0.78669040  0.92889680  0.28669040  1.0
  Ga  Ga621  1  0.22002373  0.12889680  0.38669040  1.0
  Ga  Ga622  1  0.22002373  0.46223013  0.38669040  1.0
  Ga  Ga623  1  0.22002373  0.79556347  0.38669040  1.0
  Ga  Ga624  1  0.55335707  0.12889680  0.38669040  1.0
  Ga  Ga625  1  0.55335707  0.46223013  0.38669040  1.0
  Ga  Ga626  1  0.55335707  0.79556347  0.38669040  1.0
  Ga  Ga627  1  0.88669040  0.12889680  0.38669040  1.0
  Ga  Ga628  1  0.88669040  0.46223013  0.38669040  1.0
  Ga  Ga629  1  0.88669040  0.79556347  0.38669040  1.0
  Ga  Ga630  1  0.28669040  0.26223013  0.28669040  1.0
  Ga  Ga631  1  0.28669040  0.59556347  0.28669040  1.0
  Ga  Ga632  1  0.28669040  0.92889680  0.28669040  1.0
  Ga  Ga633  1  0.62002373  0.26223013  0.28669040  1.0
  Ga  Ga634  1  0.62002373  0.59556347  0.28669040  1.0
  Ga  Ga635  1  0.62002373  0.92889680  0.28669040  1.0
  Ga  Ga636  1  0.95335707  0.26223013  0.28669040  1.0
  Ga  Ga637  1  0.95335707  0.59556347  0.28669040  1.0
  Ga  Ga638  1  0.95335707  0.92889680  0.28669040  1.0
  Ga  Ga639  1  0.05335707  0.12889680  0.38669040  1.0
  Ga  Ga640  1  0.05335707  0.46223013  0.38669040  1.0
  Ga  Ga641  1  0.05335707  0.79556347  0.38669040  1.0
  Ga  Ga642  1  0.38669040  0.12889680  0.38669040  1.0
  Ga  Ga643  1  0.38669040  0.46223013  0.38669040  1.0
  Ga  Ga644  1  0.38669040  0.79556347  0.38669040  1.0
  Ga  Ga645  1  0.72002373  0.12889680  0.38669040  1.0
  Ga  Ga646  1  0.72002373  0.46223013  0.38669040  1.0
  Ga  Ga647  1  0.72002373  0.79556347  0.38669040  1.0
  Ga  Ga648  1  0.00335707  0.19556347  0.33669040  1.0
  Ga  Ga649  1  0.00335707  0.52889680  0.33669040  1.0
  Ga  Ga650  1  0.00335707  0.86223013  0.33669040  1.0
  Ga  Ga651  1  0.33669040  0.19556347  0.33669040  1.0
  Ga  Ga652  1  0.33669040  0.52889680  0.33669040  1.0
  Ga  Ga653  1  0.33669040  0.86223013  0.33669040  1.0
  Ga  Ga654  1  0.67002373  0.19556347  0.33669040  1.0
  Ga  Ga655  1  0.67002373  0.52889680  0.33669040  1.0
  Ga  Ga656  1  0.67002373  0.86223013  0.33669040  1.0
  Ga  Ga657  1  0.23669040  0.32889680  0.23669040  1.0
  Ga  Ga658  1  0.23669040  0.66223013  0.23669040  1.0
  Ga  Ga659  1  0.23669040  0.99556347  0.23669040  1.0
  Ga  Ga660  1  0.57002373  0.32889680  0.23669040  1.0
  Ga  Ga661  1  0.57002373  0.66223013  0.23669040  1.0
  Ga  Ga662  1  0.57002373  0.99556347  0.23669040  1.0
  Ga  Ga663  1  0.90335707  0.32889680  0.23669040  1.0
  Ga  Ga664  1  0.90335707  0.66223013  0.23669040  1.0
  Ga  Ga665  1  0.90335707  0.99556347  0.23669040  1.0
  Ga  Ga666  1  0.22002373  0.29556347  0.38669040  1.0
  Ga  Ga667  1  0.22002373  0.62889680  0.38669040  1.0
  Ga  Ga668  1  0.22002373  0.96223013  0.38669040  1.0
  Ga  Ga669  1  0.55335707  0.29556347  0.38669040  1.0
  Ga  Ga670  1  0.55335707  0.62889680  0.38669040  1.0
  Ga  Ga671  1  0.55335707  0.96223013  0.38669040  1.0
  Ga  Ga672  1  0.88669040  0.29556347  0.38669040  1.0
  Ga  Ga673  1  0.88669040  0.62889680  0.38669040  1.0
  Ga  Ga674  1  0.88669040  0.96223013  0.38669040  1.0
  Ga  Ga675  1  0.12002373  0.09556347  0.28669040  1.0
  Ga  Ga676  1  0.12002373  0.42889680  0.28669040  1.0
  Ga  Ga677  1  0.12002373  0.76223013  0.28669040  1.0
  Ga  Ga678  1  0.45335707  0.09556347  0.28669040  1.0
  Ga  Ga679  1  0.45335707  0.42889680  0.28669040  1.0
  Ga  Ga680  1  0.45335707  0.76223013  0.28669040  1.0
  Ga  Ga681  1  0.78669040  0.09556347  0.28669040  1.0
  Ga  Ga682  1  0.78669040  0.42889680  0.28669040  1.0
  Ga  Ga683  1  0.78669040  0.76223013  0.28669040  1.0
  Ga  Ga684  1  0.07002373  0.32889680  0.23669040  1.0
  Ga  Ga685  1  0.07002373  0.66223013  0.23669040  1.0
  Ga  Ga686  1  0.07002373  0.99556347  0.23669040  1.0
  Ga  Ga687  1  0.40335707  0.32889680  0.23669040  1.0
  Ga  Ga688  1  0.40335707  0.66223013  0.23669040  1.0
  Ga  Ga689  1  0.40335707  0.99556347  0.23669040  1.0
  Ga  Ga690  1  0.73669040  0.32889680  0.23669040  1.0
  Ga  Ga691  1  0.73669040  0.66223013  0.23669040  1.0
  Ga  Ga692  1  0.73669040  0.99556347  0.23669040  1.0
  Ga  Ga693  1  0.17002373  0.19556347  0.33669040  1.0
  Ga  Ga694  1  0.17002373  0.52889680  0.33669040  1.0
  Ga  Ga695  1  0.17002373  0.86223013  0.33669040  1.0
  Ga  Ga696  1  0.50335707  0.19556347  0.33669040  1.0
  Ga  Ga697  1  0.50335707  0.52889680  0.33669040  1.0
  Ga  Ga698  1  0.50335707  0.86223013  0.33669040  1.0
  Ga  Ga699  1  0.83669040  0.19556347  0.33669040  1.0
  Ga  Ga700  1  0.83669040  0.52889680  0.33669040  1.0
  Ga  Ga701  1  0.83669040  0.86223013  0.33669040  1.0
  Ga  Ga702  1  0.23669040  0.16223013  0.23669040  1.0
  Ga  Ga703  1  0.23669040  0.49556347  0.23669040  1.0
  Ga  Ga704  1  0.23669040  0.82889680  0.23669040  1.0
  Ga  Ga705  1  0.57002373  0.16223013  0.23669040  1.0
  Ga  Ga706  1  0.57002373  0.49556347  0.23669040  1.0
  Ga  Ga707  1  0.57002373  0.82889680  0.23669040  1.0
  Ga  Ga708  1  0.90335707  0.16223013  0.23669040  1.0
  Ga  Ga709  1  0.90335707  0.49556347  0.23669040  1.0
  Ga  Ga710  1  0.90335707  0.82889680  0.23669040  1.0
  Ga  Ga711  1  0.00335707  0.02889680  0.33669040  1.0
  Ga  Ga712  1  0.00335707  0.36223013  0.33669040  1.0
  Ga  Ga713  1  0.00335707  0.69556347  0.33669040  1.0
  Ga  Ga714  1  0.33669040  0.02889680  0.33669040  1.0
  Ga  Ga715  1  0.33669040  0.36223013  0.33669040  1.0
  Ga  Ga716  1  0.33669040  0.69556347  0.33669040  1.0
  Ga  Ga717  1  0.67002373  0.02889680  0.33669040  1.0
  Ga  Ga718  1  0.67002373  0.36223013  0.33669040  1.0
  Ga  Ga719  1  0.67002373  0.69556347  0.33669040  1.0
  Ga  Ga720  1  0.27712672  0.07643610  0.36046005  1.0
  Ga  Ga721  1  0.27712672  0.40976943  0.36046005  1.0
  Ga  Ga722  1  0.27712672  0.74310277  0.36046005  1.0
  Ga  Ga723  1  0.61046005  0.07643610  0.36046005  1.0
  Ga  Ga724  1  0.61046005  0.40976943  0.36046005  1.0
  Ga  Ga725  1  0.61046005  0.74310277  0.36046005  1.0
  Ga  Ga726  1  0.94379338  0.07643610  0.36046005  1.0
  Ga  Ga727  1  0.94379338  0.40976943  0.36046005  1.0
  Ga  Ga728  1  0.94379338  0.74310277  0.36046005  1.0
  Ga  Ga729  1  0.17712672  0.20976943  0.26046005  1.0
  Ga  Ga730  1  0.17712672  0.54310277  0.26046005  1.0
  Ga  Ga731  1  0.17712672  0.87643610  0.26046005  1.0
  Ga  Ga732  1  0.51046005  0.20976943  0.26046005  1.0
  Ga  Ga733  1  0.51046005  0.54310277  0.26046005  1.0
  Ga  Ga734  1  0.51046005  0.87643610  0.26046005  1.0
  Ga  Ga735  1  0.84379338  0.20976943  0.26046005  1.0
  Ga  Ga736  1  0.84379338  0.54310277  0.26046005  1.0
  Ga  Ga737  1  0.84379338  0.87643610  0.26046005  1.0
  Ga  Ga738  1  0.29912490  0.27889680  0.21169040  1.0
  Ga  Ga739  1  0.29912490  0.61223013  0.21169040  1.0
  Ga  Ga740  1  0.29912490  0.94556347  0.21169040  1.0
  Ga  Ga741  1  0.63245823  0.27889680  0.21169040  1.0
  Ga  Ga742  1  0.63245823  0.61223013  0.21169040  1.0
  Ga  Ga743  1  0.63245823  0.94556347  0.21169040  1.0
  Ga  Ga744  1  0.96579157  0.27889680  0.21169040  1.0
  Ga  Ga745  1  0.96579157  0.61223013  0.21169040  1.0
  Ga  Ga746  1  0.96579157  0.94556347  0.21169040  1.0
  Ga  Ga747  1  0.06579157  0.14556347  0.31169040  1.0
  Ga  Ga748  1  0.06579157  0.47889680  0.31169040  1.0
  Ga  Ga749  1  0.06579157  0.81223013  0.31169040  1.0
  Ga  Ga750  1  0.39912490  0.14556347  0.31169040  1.0
  Ga  Ga751  1  0.39912490  0.47889680  0.31169040  1.0
  Ga  Ga752  1  0.39912490  0.81223013  0.31169040  1.0
  Ga  Ga753  1  0.73245823  0.14556347  0.31169040  1.0
  Ga  Ga754  1  0.73245823  0.47889680  0.31169040  1.0
  Ga  Ga755  1  0.73245823  0.81223013  0.31169040  1.0
  Ga  Ga756  1  0.10758923  0.24556347  0.36169040  1.0
  Ga  Ga757  1  0.10758923  0.57889680  0.36169040  1.0
  Ga  Ga758  1  0.10758923  0.91223013  0.36169040  1.0
  Ga  Ga759  1  0.44092257  0.24556347  0.36169040  1.0
  Ga  Ga760  1  0.44092257  0.57889680  0.36169040  1.0
  Ga  Ga761  1  0.44092257  0.91223013  0.36169040  1.0
  Ga  Ga762  1  0.77425590  0.24556347  0.36169040  1.0
  Ga  Ga763  1  0.77425590  0.57889680  0.36169040  1.0
  Ga  Ga764  1  0.77425590  0.91223013  0.36169040  1.0
  Ga  Ga765  1  0.00758923  0.04556347  0.26169040  1.0
  Ga  Ga766  1  0.00758923  0.37889680  0.26169040  1.0
  Ga  Ga767  1  0.00758923  0.71223013  0.26169040  1.0
  Ga  Ga768  1  0.34092257  0.04556347  0.26169040  1.0
  Ga  Ga769  1  0.34092257  0.37889680  0.26169040  1.0
  Ga  Ga770  1  0.34092257  0.71223013  0.26169040  1.0
  Ga  Ga771  1  0.67425590  0.04556347  0.26169040  1.0
  Ga  Ga772  1  0.67425590  0.37889680  0.26169040  1.0
  Ga  Ga773  1  0.67425590  0.71223013  0.26169040  1.0
  Ga  Ga774  1  0.26210052  0.21305037  0.25799935  1.0
  Ga  Ga775  1  0.26210052  0.54638370  0.25799935  1.0
  Ga  Ga776  1  0.26210052  0.87971703  0.25799935  1.0
  Ga  Ga777  1  0.59543385  0.21305037  0.25799935  1.0
  Ga  Ga778  1  0.59543385  0.54638370  0.25799935  1.0
  Ga  Ga779  1  0.59543385  0.87971703  0.25799935  1.0
  Ga  Ga780  1  0.92876718  0.21305037  0.25799935  1.0
  Ga  Ga781  1  0.92876718  0.54638370  0.25799935  1.0
  Ga  Ga782  1  0.92876718  0.87971703  0.25799935  1.0
  Ga  Ga783  1  0.02876718  0.07971703  0.35799935  1.0
  Ga  Ga784  1  0.02876718  0.41305037  0.35799935  1.0
  Ga  Ga785  1  0.02876718  0.74638370  0.35799935  1.0
  Ga  Ga786  1  0.36210052  0.07971703  0.35799935  1.0
  Ga  Ga787  1  0.36210052  0.41305037  0.35799935  1.0
  Ga  Ga788  1  0.36210052  0.74638370  0.35799935  1.0
  Ga  Ga789  1  0.69543385  0.07971703  0.35799935  1.0
  Ga  Ga790  1  0.69543385  0.41305037  0.35799935  1.0
  Ga  Ga791  1  0.69543385  0.74638370  0.35799935  1.0
  Ga  Ga792  1  0.09461362  0.21140990  0.26538145  1.0
  Ga  Ga793  1  0.09461362  0.54474323  0.26538145  1.0
  Ga  Ga794  1  0.09461362  0.87807657  0.26538145  1.0
  Ga  Ga795  1  0.42794695  0.21140990  0.26538145  1.0
  Ga  Ga796  1  0.42794695  0.54474323  0.26538145  1.0
  Ga  Ga797  1  0.42794695  0.87807657  0.26538145  1.0
  Ga  Ga798  1  0.76128028  0.21140990  0.26538145  1.0
  Ga  Ga799  1  0.76128028  0.54474323  0.26538145  1.0
  Ga  Ga800  1  0.76128028  0.87807657  0.26538145  1.0
  Ga  Ga801  1  0.19461362  0.07807657  0.36538145  1.0
  Ga  Ga802  1  0.19461362  0.41140990  0.36538145  1.0
  Ga  Ga803  1  0.19461362  0.74474323  0.36538145  1.0
  Ga  Ga804  1  0.52794695  0.07807657  0.36538145  1.0
  Ga  Ga805  1  0.52794695  0.41140990  0.36538145  1.0
  Ga  Ga806  1  0.52794695  0.74474323  0.36538145  1.0
  Ga  Ga807  1  0.86128028  0.07807657  0.36538145  1.0
  Ga  Ga808  1  0.86128028  0.41140990  0.36538145  1.0
  Ga  Ga809  1  0.86128028  0.74474323  0.36538145  1.0
  Ga  Ga810  1  0.03546005  0.25976943  0.28546005  1.0
  Ga  Ga811  1  0.03546005  0.59310277  0.28546005  1.0
  Ga  Ga812  1  0.03546005  0.92643610  0.28546005  1.0
  Ga  Ga813  1  0.36879338  0.25976943  0.28546005  1.0
  Ga  Ga814  1  0.36879338  0.59310277  0.28546005  1.0
  Ga  Ga815  1  0.36879338  0.92643610  0.28546005  1.0
  Ga  Ga816  1  0.70212672  0.25976943  0.28546005  1.0
  Ga  Ga817  1  0.70212672  0.59310277  0.28546005  1.0
  Ga  Ga818  1  0.70212672  0.92643610  0.28546005  1.0
  Ga  Ga819  1  0.13546005  0.12643610  0.38546005  1.0
  Ga  Ga820  1  0.13546005  0.45976943  0.38546005  1.0
  Ga  Ga821  1  0.13546005  0.79310277  0.38546005  1.0
  Ga  Ga822  1  0.46879338  0.12643610  0.38546005  1.0
  Ga  Ga823  1  0.46879338  0.45976943  0.38546005  1.0
  Ga  Ga824  1  0.46879338  0.79310277  0.38546005  1.0
  Ga  Ga825  1  0.80212672  0.12643610  0.38546005  1.0
  Ga  Ga826  1  0.80212672  0.45976943  0.38546005  1.0
  Ga  Ga827  1  0.80212672  0.79310277  0.38546005  1.0
  Ga  Ga828  1  0.08710052  0.19638370  0.33299935  1.0
  Ga  Ga829  1  0.08710052  0.52971703  0.33299935  1.0
  Ga  Ga830  1  0.08710052  0.86305037  0.33299935  1.0
  Ga  Ga831  1  0.42043385  0.19638370  0.33299935  1.0
  Ga  Ga832  1  0.42043385  0.52971703  0.33299935  1.0
  Ga  Ga833  1  0.42043385  0.86305037  0.33299935  1.0
  Ga  Ga834  1  0.75376718  0.19638370  0.33299935  1.0
  Ga  Ga835  1  0.75376718  0.52971703  0.33299935  1.0
  Ga  Ga836  1  0.75376718  0.86305037  0.33299935  1.0
  Ga  Ga837  1  0.32043385  0.32971703  0.23299935  1.0
  Ga  Ga838  1  0.32043385  0.66305037  0.23299935  1.0
  Ga  Ga839  1  0.32043385  0.99638370  0.23299935  1.0
  Ga  Ga840  1  0.65376718  0.32971703  0.23299935  1.0
  Ga  Ga841  1  0.65376718  0.66305037  0.23299935  1.0
  Ga  Ga842  1  0.65376718  0.99638370  0.23299935  1.0
  Ga  Ga843  1  0.98710052  0.32971703  0.23299935  1.0
  Ga  Ga844  1  0.98710052  0.66305037  0.23299935  1.0
  Ga  Ga845  1  0.98710052  0.99638370  0.23299935  1.0
  Ga  Ga846  1  0.04092257  0.27889680  0.21169040  1.0
  Ga  Ga847  1  0.04092257  0.61223013  0.21169040  1.0
  Ga  Ga848  1  0.04092257  0.94556347  0.21169040  1.0
  Ga  Ga849  1  0.37425590  0.27889680  0.21169040  1.0
  Ga  Ga850  1  0.37425590  0.61223013  0.21169040  1.0
  Ga  Ga851  1  0.37425590  0.94556347  0.21169040  1.0
  Ga  Ga852  1  0.70758923  0.27889680  0.21169040  1.0
  Ga  Ga853  1  0.70758923  0.61223013  0.21169040  1.0
  Ga  Ga854  1  0.70758923  0.94556347  0.21169040  1.0
  Ga  Ga855  1  0.14092257  0.14556347  0.31169040  1.0
  Ga  Ga856  1  0.14092257  0.47889680  0.31169040  1.0
  Ga  Ga857  1  0.14092257  0.81223013  0.31169040  1.0
  Ga  Ga858  1  0.47425590  0.14556347  0.31169040  1.0
  Ga  Ga859  1  0.47425590  0.47889680  0.31169040  1.0
  Ga  Ga860  1  0.47425590  0.81223013  0.31169040  1.0
  Ga  Ga861  1  0.80758923  0.14556347  0.31169040  1.0
  Ga  Ga862  1  0.80758923  0.47889680  0.31169040  1.0
  Ga  Ga863  1  0.80758923  0.81223013  0.31169040  1.0
  Ga  Ga864  1  0.13628028  0.29474323  0.39038145  1.0
  Ga  Ga865  1  0.13628028  0.62807657  0.39038145  1.0
  Ga  Ga866  1  0.13628028  0.96140990  0.39038145  1.0
  Ga  Ga867  1  0.46961362  0.29474323  0.39038145  1.0
  Ga  Ga868  1  0.46961362  0.62807657  0.39038145  1.0
  Ga  Ga869  1  0.46961362  0.96140990  0.39038145  1.0
  Ga  Ga870  1  0.80294695  0.29474323  0.39038145  1.0
  Ga  Ga871  1  0.80294695  0.62807657  0.39038145  1.0
  Ga  Ga872  1  0.80294695  0.96140990  0.39038145  1.0
  Ga  Ga873  1  0.03628028  0.09474323  0.29038145  1.0
  Ga  Ga874  1  0.03628028  0.42807657  0.29038145  1.0
  Ga  Ga875  1  0.03628028  0.76140990  0.29038145  1.0
  Ga  Ga876  1  0.36961362  0.09474323  0.29038145  1.0
  Ga  Ga877  1  0.36961362  0.42807657  0.29038145  1.0
  Ga  Ga878  1  0.36961362  0.76140990  0.29038145  1.0
  Ga  Ga879  1  0.70294695  0.09474323  0.29038145  1.0
  Ga  Ga880  1  0.70294695  0.42807657  0.29038145  1.0
  Ga  Ga881  1  0.70294695  0.76140990  0.29038145  1.0
  Ga  Ga882  1  0.03245823  0.24556347  0.36169040  1.0
  Ga  Ga883  1  0.03245823  0.57889680  0.36169040  1.0
  Ga  Ga884  1  0.03245823  0.91223013  0.36169040  1.0
  Ga  Ga885  1  0.36579157  0.24556347  0.36169040  1.0
  Ga  Ga886  1  0.36579157  0.57889680  0.36169040  1.0
  Ga  Ga887  1  0.36579157  0.91223013  0.36169040  1.0
  Ga  Ga888  1  0.69912490  0.24556347  0.36169040  1.0
  Ga  Ga889  1  0.69912490  0.57889680  0.36169040  1.0
  Ga  Ga890  1  0.69912490  0.91223013  0.36169040  1.0
  Ga  Ga891  1  0.26579157  0.04556347  0.26169040  1.0
  Ga  Ga892  1  0.26579157  0.37889680  0.26169040  1.0
  Ga  Ga893  1  0.26579157  0.71223013  0.26169040  1.0
  Ga  Ga894  1  0.59912490  0.04556347  0.26169040  1.0
  Ga  Ga895  1  0.59912490  0.37889680  0.26169040  1.0
  Ga  Ga896  1  0.59912490  0.71223013  0.26169040  1.0
  Ga  Ga897  1  0.93245823  0.04556347  0.26169040  1.0
  Ga  Ga898  1  0.93245823  0.37889680  0.26169040  1.0
  Ga  Ga899  1  0.93245823  0.71223013  0.26169040  1.0
  Ga  Ga900  1  0.01292075  0.21469083  0.26292075  1.0
  Ga  Ga901  1  0.01292075  0.54802417  0.26292075  1.0
  Ga  Ga902  1  0.01292075  0.88135750  0.26292075  1.0
  Ga  Ga903  1  0.34625408  0.21469083  0.26292075  1.0
  Ga  Ga904  1  0.34625408  0.54802417  0.26292075  1.0
  Ga  Ga905  1  0.34625408  0.88135750  0.26292075  1.0
  Ga  Ga906  1  0.67958742  0.21469083  0.26292075  1.0
  Ga  Ga907  1  0.67958742  0.54802417  0.26292075  1.0
  Ga  Ga908  1  0.67958742  0.88135750  0.26292075  1.0
  Ga  Ga909  1  0.11292075  0.08135750  0.36292075  1.0
  Ga  Ga910  1  0.11292075  0.41469083  0.36292075  1.0
  Ga  Ga911  1  0.11292075  0.74802417  0.36292075  1.0
  Ga  Ga912  1  0.44625408  0.08135750  0.36292075  1.0
  Ga  Ga913  1  0.44625408  0.41469083  0.36292075  1.0
  Ga  Ga914  1  0.44625408  0.74802417  0.36292075  1.0
  Ga  Ga915  1  0.77958742  0.08135750  0.36292075  1.0
  Ga  Ga916  1  0.77958742  0.41469083  0.36292075  1.0
  Ga  Ga917  1  0.77958742  0.74802417  0.36292075  1.0
  Ga  Ga918  1  0.25458742  0.03135750  0.33792075  1.0
  Ga  Ga919  1  0.25458742  0.36469083  0.33792075  1.0
  Ga  Ga920  1  0.25458742  0.69802417  0.33792075  1.0
  Ga  Ga921  1  0.58792075  0.03135750  0.33792075  1.0
  Ga  Ga922  1  0.58792075  0.36469083  0.33792075  1.0
  Ga  Ga923  1  0.58792075  0.69802417  0.33792075  1.0
  Ga  Ga924  1  0.92125408  0.03135750  0.33792075  1.0
  Ga  Ga925  1  0.92125408  0.36469083  0.33792075  1.0
  Ga  Ga926  1  0.92125408  0.69802417  0.33792075  1.0
  Ga  Ga927  1  0.15458742  0.16469083  0.23792075  1.0
  Ga  Ga928  1  0.15458742  0.49802417  0.23792075  1.0
  Ga  Ga929  1  0.15458742  0.83135750  0.23792075  1.0
  Ga  Ga930  1  0.48792075  0.16469083  0.23792075  1.0
  Ga  Ga931  1  0.48792075  0.49802417  0.23792075  1.0
  Ga  Ga932  1  0.48792075  0.83135750  0.23792075  1.0
  Ga  Ga933  1  0.82125408  0.16469083  0.23792075  1.0
  Ga  Ga934  1  0.82125408  0.49802417  0.23792075  1.0
  Ga  Ga935  1  0.82125408  0.83135750  0.23792075  1.0
  Ga  Ga936  1  0.29625408  0.11469083  0.21292075  1.0
  Ga  Ga937  1  0.29625408  0.44802417  0.21292075  1.0
  Ga  Ga938  1  0.29625408  0.78135750  0.21292075  1.0
  Ga  Ga939  1  0.62958742  0.11469083  0.21292075  1.0
  Ga  Ga940  1  0.62958742  0.44802417  0.21292075  1.0
  Ga  Ga941  1  0.62958742  0.78135750  0.21292075  1.0
  Ga  Ga942  1  0.96292075  0.11469083  0.21292075  1.0
  Ga  Ga943  1  0.96292075  0.44802417  0.21292075  1.0
  Ga  Ga944  1  0.96292075  0.78135750  0.21292075  1.0
  Ga  Ga945  1  0.06292075  0.31469083  0.31292075  1.0
  Ga  Ga946  1  0.06292075  0.64802417  0.31292075  1.0
  Ga  Ga947  1  0.06292075  0.98135750  0.31292075  1.0
  Ga  Ga948  1  0.39625408  0.31469083  0.31292075  1.0
  Ga  Ga949  1  0.39625408  0.64802417  0.31292075  1.0
  Ga  Ga950  1  0.39625408  0.98135750  0.31292075  1.0
  Ga  Ga951  1  0.72958742  0.31469083  0.31292075  1.0
  Ga  Ga952  1  0.72958742  0.64802417  0.31292075  1.0
  Ga  Ga953  1  0.72958742  0.98135750  0.31292075  1.0
  Ga  Ga954  1  0.27425590  0.24556347  0.36169040  1.0
  Ga  Ga955  1  0.27425590  0.57889680  0.36169040  1.0
  Ga  Ga956  1  0.27425590  0.91223013  0.36169040  1.0
  Ga  Ga957  1  0.60758923  0.24556347  0.36169040  1.0
  Ga  Ga958  1  0.60758923  0.57889680  0.36169040  1.0
  Ga  Ga959  1  0.60758923  0.91223013  0.36169040  1.0
  Ga  Ga960  1  0.94092257  0.24556347  0.36169040  1.0
  Ga  Ga961  1  0.94092257  0.57889680  0.36169040  1.0
  Ga  Ga962  1  0.94092257  0.91223013  0.36169040  1.0
  Ga  Ga963  1  0.17425590  0.04556347  0.26169040  1.0
  Ga  Ga964  1  0.17425590  0.37889680  0.26169040  1.0
  Ga  Ga965  1  0.17425590  0.71223013  0.26169040  1.0
  Ga  Ga966  1  0.50758923  0.04556347  0.26169040  1.0
  Ga  Ga967  1  0.50758923  0.37889680  0.26169040  1.0
  Ga  Ga968  1  0.50758923  0.71223013  0.26169040  1.0
  Ga  Ga969  1  0.84092257  0.04556347  0.26169040  1.0
  Ga  Ga970  1  0.84092257  0.37889680  0.26169040  1.0
  Ga  Ga971  1  0.84092257  0.71223013  0.26169040  1.0
  Ga  Ga972  1  0.13245823  0.27889680  0.21169040  1.0
  Ga  Ga973  1  0.13245823  0.61223013  0.21169040  1.0
  Ga  Ga974  1  0.13245823  0.94556347  0.21169040  1.0
  Ga  Ga975  1  0.46579157  0.27889680  0.21169040  1.0
  Ga  Ga976  1  0.46579157  0.61223013  0.21169040  1.0
  Ga  Ga977  1  0.46579157  0.94556347  0.21169040  1.0
  Ga  Ga978  1  0.79912490  0.27889680  0.21169040  1.0
  Ga  Ga979  1  0.79912490  0.61223013  0.21169040  1.0
  Ga  Ga980  1  0.79912490  0.94556347  0.21169040  1.0
  Ga  Ga981  1  0.23245823  0.14556347  0.31169040  1.0
  Ga  Ga982  1  0.23245823  0.47889680  0.31169040  1.0
  Ga  Ga983  1  0.23245823  0.81223013  0.31169040  1.0
  Ga  Ga984  1  0.56579157  0.14556347  0.31169040  1.0
  Ga  Ga985  1  0.56579157  0.47889680  0.31169040  1.0
  Ga  Ga986  1  0.56579157  0.81223013  0.31169040  1.0
  Ga  Ga987  1  0.89912490  0.14556347  0.31169040  1.0
  Ga  Ga988  1  0.89912490  0.47889680  0.31169040  1.0
  Ga  Ga989  1  0.89912490  0.81223013  0.31169040  1.0
  Ga  Ga990  1  0.31128028  0.31140990  0.31538145  1.0
  Ga  Ga991  1  0.31128028  0.64474323  0.31538145  1.0
  Ga  Ga992  1  0.31128028  0.97807657  0.31538145  1.0
  Ga  Ga993  1  0.64461362  0.31140990  0.31538145  1.0
  Ga  Ga994  1  0.64461362  0.64474323  0.31538145  1.0
  Ga  Ga995  1  0.64461362  0.97807657  0.31538145  1.0
  Ga  Ga996  1  0.97794695  0.31140990  0.31538145  1.0
  Ga  Ga997  1  0.97794695  0.64474323  0.31538145  1.0
  Ga  Ga998  1  0.97794695  0.97807657  0.31538145  1.0
  Ga  Ga999  1  0.21128028  0.11140990  0.21538145  1.0
  Ga  Ga1000  1  0.21128028  0.44474323  0.21538145  1.0
  Ga  Ga1001  1  0.21128028  0.77807657  0.21538145  1.0
  Ga  Ga1002  1  0.54461362  0.11140990  0.21538145  1.0
  Ga  Ga1003  1  0.54461362  0.44474323  0.21538145  1.0
  Ga  Ga1004  1  0.54461362  0.77807657  0.21538145  1.0
  Ga  Ga1005  1  0.87794695  0.11140990  0.21538145  1.0
  Ga  Ga1006  1  0.87794695  0.44474323  0.21538145  1.0
  Ga  Ga1007  1  0.87794695  0.77807657  0.21538145  1.0
  Ga  Ga1008  1  0.14543385  0.31305037  0.30799935  1.0
  Ga  Ga1009  1  0.14543385  0.64638370  0.30799935  1.0
  Ga  Ga1010  1  0.14543385  0.97971703  0.30799935  1.0
  Ga  Ga1011  1  0.47876718  0.31305037  0.30799935  1.0
  Ga  Ga1012  1  0.47876718  0.64638370  0.30799935  1.0
  Ga  Ga1013  1  0.47876718  0.97971703  0.30799935  1.0
  Ga  Ga1014  1  0.81210052  0.31305037  0.30799935  1.0
  Ga  Ga1015  1  0.81210052  0.64638370  0.30799935  1.0
  Ga  Ga1016  1  0.81210052  0.97971703  0.30799935  1.0
  Ga  Ga1017  1  0.04543385  0.11305037  0.20799935  1.0
  Ga  Ga1018  1  0.04543385  0.44638370  0.20799935  1.0
  Ga  Ga1019  1  0.04543385  0.77971703  0.20799935  1.0
  Ga  Ga1020  1  0.37876718  0.11305037  0.20799935  1.0
  Ga  Ga1021  1  0.37876718  0.44638370  0.20799935  1.0
  Ga  Ga1022  1  0.37876718  0.77971703  0.20799935  1.0
  Ga  Ga1023  1  0.71210052  0.11305037  0.20799935  1.0
  Ga  Ga1024  1  0.71210052  0.44638370  0.20799935  1.0
  Ga  Ga1025  1  0.71210052  0.77971703  0.20799935  1.0
  Ga  Ga1026  1  0.20458742  0.26469083  0.28792075  1.0
  Ga  Ga1027  1  0.20458742  0.59802417  0.28792075  1.0
  Ga  Ga1028  1  0.20458742  0.93135750  0.28792075  1.0
  Ga  Ga1029  1  0.53792075  0.26469083  0.28792075  1.0
  Ga  Ga1030  1  0.53792075  0.59802417  0.28792075  1.0
  Ga  Ga1031  1  0.53792075  0.93135750  0.28792075  1.0
  Ga  Ga1032  1  0.87125408  0.26469083  0.28792075  1.0
  Ga  Ga1033  1  0.87125408  0.59802417  0.28792075  1.0
  Ga  Ga1034  1  0.87125408  0.93135750  0.28792075  1.0
  Ga  Ga1035  1  0.30458742  0.13135750  0.38792075  1.0
  Ga  Ga1036  1  0.30458742  0.46469083  0.38792075  1.0
  Ga  Ga1037  1  0.30458742  0.79802417  0.38792075  1.0
  Ga  Ga1038  1  0.63792075  0.13135750  0.38792075  1.0
  Ga  Ga1039  1  0.63792075  0.46469083  0.38792075  1.0
  Ga  Ga1040  1  0.63792075  0.79802417  0.38792075  1.0
  Ga  Ga1041  1  0.97125408  0.13135750  0.38792075  1.0
  Ga  Ga1042  1  0.97125408  0.46469083  0.38792075  1.0
  Ga  Ga1043  1  0.97125408  0.79802417  0.38792075  1.0
  Ga  Ga1044  1  0.15294695  0.32807657  0.24038145  1.0
  Ga  Ga1045  1  0.15294695  0.66140990  0.24038145  1.0
  Ga  Ga1046  1  0.15294695  0.99474323  0.24038145  1.0
  Ga  Ga1047  1  0.48628028  0.32807657  0.24038145  1.0
  Ga  Ga1048  1  0.48628028  0.66140990  0.24038145  1.0
  Ga  Ga1049  1  0.48628028  0.99474323  0.24038145  1.0
  Ga  Ga1050  1  0.81961362  0.32807657  0.24038145  1.0
  Ga  Ga1051  1  0.81961362  0.66140990  0.24038145  1.0
  Ga  Ga1052  1  0.81961362  0.99474323  0.24038145  1.0
  Ga  Ga1053  1  0.25294695  0.19474323  0.34038145  1.0
  Ga  Ga1054  1  0.25294695  0.52807657  0.34038145  1.0
  Ga  Ga1055  1  0.25294695  0.86140990  0.34038145  1.0
  Ga  Ga1056  1  0.58628028  0.19474323  0.34038145  1.0
  Ga  Ga1057  1  0.58628028  0.52807657  0.34038145  1.0
  Ga  Ga1058  1  0.58628028  0.86140990  0.34038145  1.0
  Ga  Ga1059  1  0.91961362  0.19474323  0.34038145  1.0
  Ga  Ga1060  1  0.91961362  0.52807657  0.34038145  1.0
  Ga  Ga1061  1  0.91961362  0.86140990  0.34038145  1.0
  Ga  Ga1062  1  0.19912490  0.24556347  0.36169040  1.0
  Ga  Ga1063  1  0.19912490  0.57889680  0.36169040  1.0
  Ga  Ga1064  1  0.19912490  0.91223013  0.36169040  1.0
  Ga  Ga1065  1  0.53245823  0.24556347  0.36169040  1.0
  Ga  Ga1066  1  0.53245823  0.57889680  0.36169040  1.0
  Ga  Ga1067  1  0.53245823  0.91223013  0.36169040  1.0
  Ga  Ga1068  1  0.86579157  0.24556347  0.36169040  1.0
  Ga  Ga1069  1  0.86579157  0.57889680  0.36169040  1.0
  Ga  Ga1070  1  0.86579157  0.91223013  0.36169040  1.0
  Ga  Ga1071  1  0.09912490  0.04556347  0.26169040  1.0
  Ga  Ga1072  1  0.09912490  0.37889680  0.26169040  1.0
  Ga  Ga1073  1  0.09912490  0.71223013  0.26169040  1.0
  Ga  Ga1074  1  0.43245823  0.04556347  0.26169040  1.0
  Ga  Ga1075  1  0.43245823  0.37889680  0.26169040  1.0
  Ga  Ga1076  1  0.43245823  0.71223013  0.26169040  1.0
  Ga  Ga1077  1  0.76579157  0.04556347  0.26169040  1.0
  Ga  Ga1078  1  0.76579157  0.37889680  0.26169040  1.0
  Ga  Ga1079  1  0.76579157  0.71223013  0.26169040  1.0
  Ga  Ga1080  1  0.30376718  0.29638370  0.38299935  1.0
  Ga  Ga1081  1  0.30376718  0.62971703  0.38299935  1.0
  Ga  Ga1082  1  0.30376718  0.96305037  0.38299935  1.0
  Ga  Ga1083  1  0.63710052  0.29638370  0.38299935  1.0
  Ga  Ga1084  1  0.63710052  0.62971703  0.38299935  1.0
  Ga  Ga1085  1  0.63710052  0.96305037  0.38299935  1.0
  Ga  Ga1086  1  0.97043385  0.29638370  0.38299935  1.0
  Ga  Ga1087  1  0.97043385  0.62971703  0.38299935  1.0
  Ga  Ga1088  1  0.97043385  0.96305037  0.38299935  1.0
  Ga  Ga1089  1  0.20376718  0.09638370  0.28299935  1.0
  Ga  Ga1090  1  0.20376718  0.42971703  0.28299935  1.0
  Ga  Ga1091  1  0.20376718  0.76305037  0.28299935  1.0
  Ga  Ga1092  1  0.53710052  0.09638370  0.28299935  1.0
  Ga  Ga1093  1  0.53710052  0.42971703  0.28299935  1.0
  Ga  Ga1094  1  0.53710052  0.76305037  0.28299935  1.0
  Ga  Ga1095  1  0.87043385  0.09638370  0.28299935  1.0
  Ga  Ga1096  1  0.87043385  0.42971703  0.28299935  1.0
  Ga  Ga1097  1  0.87043385  0.76305037  0.28299935  1.0
  Ga  Ga1098  1  0.20758923  0.27889680  0.21169040  1.0
  Ga  Ga1099  1  0.20758923  0.61223013  0.21169040  1.0
  Ga  Ga1100  1  0.20758923  0.94556347  0.21169040  1.0
  Ga  Ga1101  1  0.54092257  0.27889680  0.21169040  1.0
  Ga  Ga1102  1  0.54092257  0.61223013  0.21169040  1.0
  Ga  Ga1103  1  0.54092257  0.94556347  0.21169040  1.0
  Ga  Ga1104  1  0.87425590  0.27889680  0.21169040  1.0
  Ga  Ga1105  1  0.87425590  0.61223013  0.21169040  1.0
  Ga  Ga1106  1  0.87425590  0.94556347  0.21169040  1.0
  Ga  Ga1107  1  0.30758923  0.14556347  0.31169040  1.0
  Ga  Ga1108  1  0.30758923  0.47889680  0.31169040  1.0
  Ga  Ga1109  1  0.30758923  0.81223013  0.31169040  1.0
  Ga  Ga1110  1  0.64092257  0.14556347  0.31169040  1.0
  Ga  Ga1111  1  0.64092257  0.47889680  0.31169040  1.0
  Ga  Ga1112  1  0.64092257  0.81223013  0.31169040  1.0
  Ga  Ga1113  1  0.97425590  0.14556347  0.31169040  1.0
  Ga  Ga1114  1  0.97425590  0.47889680  0.31169040  1.0
  Ga  Ga1115  1  0.97425590  0.81223013  0.31169040  1.0
  Ga  Ga1116  1  0.22712672  0.30976943  0.31046005  1.0
  Ga  Ga1117  1  0.22712672  0.64310277  0.31046005  1.0
  Ga  Ga1118  1  0.22712672  0.97643610  0.31046005  1.0
  Ga  Ga1119  1  0.56046005  0.30976943  0.31046005  1.0
  Ga  Ga1120  1  0.56046005  0.64310277  0.31046005  1.0
  Ga  Ga1121  1  0.56046005  0.97643610  0.31046005  1.0
  Ga  Ga1122  1  0.89379338  0.30976943  0.31046005  1.0
  Ga  Ga1123  1  0.89379338  0.64310277  0.31046005  1.0
  Ga  Ga1124  1  0.89379338  0.97643610  0.31046005  1.0
  Ga  Ga1125  1  0.12712672  0.10976943  0.21046005  1.0
  Ga  Ga1126  1  0.12712672  0.44310277  0.21046005  1.0
  Ga  Ga1127  1  0.12712672  0.77643610  0.21046005  1.0
  Ga  Ga1128  1  0.46046005  0.10976943  0.21046005  1.0
  Ga  Ga1129  1  0.46046005  0.44310277  0.21046005  1.0
  Ga  Ga1130  1  0.46046005  0.77643610  0.21046005  1.0
  Ga  Ga1131  1  0.79379338  0.10976943  0.21046005  1.0
  Ga  Ga1132  1  0.79379338  0.44310277  0.21046005  1.0
  Ga  Ga1133  1  0.79379338  0.77643610  0.21046005  1.0
  Ga  Ga1134  1  0.31879338  0.15976943  0.23546005  1.0
  Ga  Ga1135  1  0.31879338  0.49310277  0.23546005  1.0
  Ga  Ga1136  1  0.31879338  0.82643610  0.23546005  1.0
  Ga  Ga1137  1  0.65212672  0.15976943  0.23546005  1.0
  Ga  Ga1138  1  0.65212672  0.49310277  0.23546005  1.0
  Ga  Ga1139  1  0.65212672  0.82643610  0.23546005  1.0
  Ga  Ga1140  1  0.98546005  0.15976943  0.23546005  1.0
  Ga  Ga1141  1  0.98546005  0.49310277  0.23546005  1.0
  Ga  Ga1142  1  0.98546005  0.82643610  0.23546005  1.0
  Ga  Ga1143  1  0.08546005  0.02643610  0.33546005  1.0
  Ga  Ga1144  1  0.08546005  0.35976943  0.33546005  1.0
  Ga  Ga1145  1  0.08546005  0.69310277  0.33546005  1.0
  Ga  Ga1146  1  0.41879338  0.02643610  0.33546005  1.0
  Ga  Ga1147  1  0.41879338  0.35976943  0.33546005  1.0
  Ga  Ga1148  1  0.41879338  0.69310277  0.33546005  1.0
  Ga  Ga1149  1  0.75212672  0.02643610  0.33546005  1.0
  Ga  Ga1150  1  0.75212672  0.35976943  0.33546005  1.0
  Ga  Ga1151  1  0.75212672  0.69310277  0.33546005  1.0
  Ni  Ni1152  1  0.30038853  0.21169040  0.13911920  1.0
  Ni  Ni1153  1  0.30038853  0.54502373  0.13911920  1.0
  Ni  Ni1154  1  0.30038853  0.87835707  0.13911920  1.0
  Ni  Ni1155  1  0.63372187  0.21169040  0.13911920  1.0
  Ni  Ni1156  1  0.63372187  0.54502373  0.13911920  1.0
  Ni  Ni1157  1  0.63372187  0.87835707  0.13911920  1.0
  Ni  Ni1158  1  0.96705520  0.21169040  0.13911920  1.0
  Ni  Ni1159  1  0.96705520  0.54502373  0.13911920  1.0
  Ni  Ni1160  1  0.96705520  0.87835707  0.13911920  1.0
  Ni  Ni1161  1  0.20038853  0.01169040  0.03911920  1.0
  Ni  Ni1162  1  0.20038853  0.34502373  0.03911920  1.0
  Ni  Ni1163  1  0.20038853  0.67835707  0.03911920  1.0
  Ni  Ni1164  1  0.53372187  0.01169040  0.03911920  1.0
  Ni  Ni1165  1  0.53372187  0.34502373  0.03911920  1.0
  Ni  Ni1166  1  0.53372187  0.67835707  0.03911920  1.0
  Ni  Ni1167  1  0.86705520  0.01169040  0.03911920  1.0
  Ni  Ni1168  1  0.86705520  0.34502373  0.03911920  1.0
  Ni  Ni1169  1  0.86705520  0.67835707  0.03911920  1.0
  Ni  Ni1170  1  0.28561093  0.17673787  0.03830960  1.0
  Ni  Ni1171  1  0.28561093  0.51007120  0.03830960  1.0
  Ni  Ni1172  1  0.28561093  0.84340453  0.03830960  1.0
  Ni  Ni1173  1  0.61894427  0.17673787  0.03830960  1.0
  Ni  Ni1174  1  0.61894427  0.51007120  0.03830960  1.0
  Ni  Ni1175  1  0.61894427  0.84340453  0.03830960  1.0
  Ni  Ni1176  1  0.95227760  0.17673787  0.03830960  1.0
  Ni  Ni1177  1  0.95227760  0.51007120  0.03830960  1.0
  Ni  Ni1178  1  0.95227760  0.84340453  0.03830960  1.0
  Ni  Ni1179  1  0.05227760  0.04340453  0.13830960  1.0
  Ni  Ni1180  1  0.05227760  0.37673787  0.13830960  1.0
  Ni  Ni1181  1  0.05227760  0.71007120  0.13830960  1.0
  Ni  Ni1182  1  0.38561093  0.04340453  0.13830960  1.0
  Ni  Ni1183  1  0.38561093  0.37673787  0.13830960  1.0
  Ni  Ni1184  1  0.38561093  0.71007120  0.13830960  1.0
  Ni  Ni1185  1  0.71894427  0.04340453  0.13830960  1.0
  Ni  Ni1186  1  0.71894427  0.37673787  0.13830960  1.0
  Ni  Ni1187  1  0.71894427  0.71007120  0.13830960  1.0
  Ni  Ni1188  1  0.17889680  0.12997627  0.01492880  1.0
  Ni  Ni1189  1  0.17889680  0.46330960  0.01492880  1.0
  Ni  Ni1190  1  0.17889680  0.79664293  0.01492880  1.0
  Ni  Ni1191  1  0.51223013  0.12997627  0.01492880  1.0
  Ni  Ni1192  1  0.51223013  0.46330960  0.01492880  1.0
  Ni  Ni1193  1  0.51223013  0.79664293  0.01492880  1.0
  Ni  Ni1194  1  0.84556347  0.12997627  0.01492880  1.0
  Ni  Ni1195  1  0.84556347  0.46330960  0.01492880  1.0
  Ni  Ni1196  1  0.84556347  0.79664293  0.01492880  1.0
  Ni  Ni1197  1  0.27889680  0.32997627  0.11492880  1.0
  Ni  Ni1198  1  0.27889680  0.66330960  0.11492880  1.0
  Ni  Ni1199  1  0.27889680  0.99664293  0.11492880  1.0
  Ni  Ni1200  1  0.61223013  0.32997627  0.11492880  1.0
  Ni  Ni1201  1  0.61223013  0.66330960  0.11492880  1.0
  Ni  Ni1202  1  0.61223013  0.99664293  0.11492880  1.0
  Ni  Ni1203  1  0.94556347  0.32997627  0.11492880  1.0
  Ni  Ni1204  1  0.94556347  0.66330960  0.11492880  1.0
  Ni  Ni1205  1  0.94556347  0.99664293  0.11492880  1.0
  Ni  Ni1206  1  0.22484880  0.22727760  0.06088080  1.0
  Ni  Ni1207  1  0.22484880  0.56061093  0.06088080  1.0
  Ni  Ni1208  1  0.22484880  0.89394427  0.06088080  1.0
  Ni  Ni1209  1  0.55818213  0.22727760  0.06088080  1.0
  Ni  Ni1210  1  0.55818213  0.56061093  0.06088080  1.0
  Ni  Ni1211  1  0.55818213  0.89394427  0.06088080  1.0
  Ni  Ni1212  1  0.89151547  0.22727760  0.06088080  1.0
  Ni  Ni1213  1  0.89151547  0.56061093  0.06088080  1.0
  Ni  Ni1214  1  0.89151547  0.89394427  0.06088080  1.0
  Ni  Ni1215  1  0.32484880  0.09394427  0.16088080  1.0
  Ni  Ni1216  1  0.32484880  0.42727760  0.16088080  1.0
  Ni  Ni1217  1  0.32484880  0.76061093  0.16088080  1.0
  Ni  Ni1218  1  0.65818213  0.09394427  0.16088080  1.0
  Ni  Ni1219  1  0.65818213  0.42727760  0.16088080  1.0
  Ni  Ni1220  1  0.65818213  0.76061093  0.16088080  1.0
  Ni  Ni1221  1  0.99151547  0.09394427  0.16088080  1.0
  Ni  Ni1222  1  0.99151547  0.42727760  0.16088080  1.0
  Ni  Ni1223  1  0.99151547  0.76061093  0.16088080  1.0
  Ni  Ni1224  1  0.07646800  0.26384933  0.16250000  1.0
  Ni  Ni1225  1  0.07646800  0.59718267  0.16250000  1.0
  Ni  Ni1226  1  0.07646800  0.93051600  0.16250000  1.0
  Ni  Ni1227  1  0.40980133  0.26384933  0.16250000  1.0
  Ni  Ni1228  1  0.40980133  0.59718267  0.16250000  1.0
  Ni  Ni1229  1  0.40980133  0.93051600  0.16250000  1.0
  Ni  Ni1230  1  0.74313467  0.26384933  0.16250000  1.0
  Ni  Ni1231  1  0.74313467  0.59718267  0.16250000  1.0
  Ni  Ni1232  1  0.74313467  0.93051600  0.16250000  1.0
  Ni  Ni1233  1  0.30980133  0.06384933  0.06250000  1.0
  Ni  Ni1234  1  0.30980133  0.39718267  0.06250000  1.0
  Ni  Ni1235  1  0.30980133  0.73051600  0.06250000  1.0
  Ni  Ni1236  1  0.64313467  0.06384933  0.06250000  1.0
  Ni  Ni1237  1  0.64313467  0.39718267  0.06250000  1.0
  Ni  Ni1238  1  0.64313467  0.73051600  0.06250000  1.0
  Ni  Ni1239  1  0.97646800  0.06384933  0.06250000  1.0
  Ni  Ni1240  1  0.97646800  0.39718267  0.06250000  1.0
  Ni  Ni1241  1  0.97646800  0.73051600  0.06250000  1.0
  Ni  Ni1242  1  0.26759493  0.14610320  0.18426160  1.0
  Ni  Ni1243  1  0.26759493  0.47943653  0.18426160  1.0
  Ni  Ni1244  1  0.26759493  0.81276987  0.18426160  1.0
  Ni  Ni1245  1  0.60092827  0.14610320  0.18426160  1.0
  Ni  Ni1246  1  0.60092827  0.47943653  0.18426160  1.0
  Ni  Ni1247  1  0.60092827  0.81276987  0.18426160  1.0
  Ni  Ni1248  1  0.93426160  0.14610320  0.18426160  1.0
  Ni  Ni1249  1  0.93426160  0.47943653  0.18426160  1.0
  Ni  Ni1250  1  0.93426160  0.81276987  0.18426160  1.0
  Ni  Ni1251  1  0.16759493  0.27943653  0.08426160  1.0
  Ni  Ni1252  1  0.16759493  0.61276987  0.08426160  1.0
  Ni  Ni1253  1  0.16759493  0.94610320  0.08426160  1.0
  Ni  Ni1254  1  0.50092827  0.27943653  0.08426160  1.0
  Ni  Ni1255  1  0.50092827  0.61276987  0.08426160  1.0
  Ni  Ni1256  1  0.50092827  0.94610320  0.08426160  1.0
  Ni  Ni1257  1  0.83426160  0.27943653  0.08426160  1.0
  Ni  Ni1258  1  0.83426160  0.61276987  0.08426160  1.0
  Ni  Ni1259  1  0.83426160  0.94610320  0.08426160  1.0
  Ni  Ni1260  1  0.24745253  0.26169040  0.16411920  1.0
  Ni  Ni1261  1  0.24745253  0.59502373  0.16411920  1.0
  Ni  Ni1262  1  0.24745253  0.92835707  0.16411920  1.0
  Ni  Ni1263  1  0.58078587  0.26169040  0.16411920  1.0
  Ni  Ni1264  1  0.58078587  0.59502373  0.16411920  1.0
  Ni  Ni1265  1  0.58078587  0.92835707  0.16411920  1.0
  Ni  Ni1266  1  0.91411920  0.26169040  0.16411920  1.0
  Ni  Ni1267  1  0.91411920  0.59502373  0.16411920  1.0
  Ni  Ni1268  1  0.91411920  0.92835707  0.16411920  1.0
  Ni  Ni1269  1  0.14745253  0.06169040  0.06411920  1.0
  Ni  Ni1270  1  0.14745253  0.39502373  0.06411920  1.0
  Ni  Ni1271  1  0.14745253  0.72835707  0.06411920  1.0
  Ni  Ni1272  1  0.48078587  0.06169040  0.06411920  1.0
  Ni  Ni1273  1  0.48078587  0.39502373  0.06411920  1.0
  Ni  Ni1274  1  0.48078587  0.72835707  0.06411920  1.0
  Ni  Ni1275  1  0.81411920  0.06169040  0.06411920  1.0
  Ni  Ni1276  1  0.81411920  0.39502373  0.06411920  1.0
  Ni  Ni1277  1  0.81411920  0.72835707  0.06411920  1.0
  Ni  Ni1278  1  0.13857947  0.21061093  0.13588080  1.0
  Ni  Ni1279  1  0.13857947  0.54394427  0.13588080  1.0
  Ni  Ni1280  1  0.13857947  0.87727760  0.13588080  1.0
  Ni  Ni1281  1  0.47191280  0.21061093  0.13588080  1.0
  Ni  Ni1282  1  0.47191280  0.54394427  0.13588080  1.0
  Ni  Ni1283  1  0.47191280  0.87727760  0.13588080  1.0
  Ni  Ni1284  1  0.80524613  0.21061093  0.13588080  1.0
  Ni  Ni1285  1  0.80524613  0.54394427  0.13588080  1.0
  Ni  Ni1286  1  0.80524613  0.87727760  0.13588080  1.0
  Ni  Ni1287  1  0.03857947  0.01061093  0.03588080  1.0
  Ni  Ni1288  1  0.03857947  0.34394427  0.03588080  1.0
  Ni  Ni1289  1  0.03857947  0.67727760  0.03588080  1.0
  Ni  Ni1290  1  0.37191280  0.01061093  0.03588080  1.0
  Ni  Ni1291  1  0.37191280  0.34394427  0.03588080  1.0
  Ni  Ni1292  1  0.37191280  0.67727760  0.03588080  1.0
  Ni  Ni1293  1  0.70524613  0.01061093  0.03588080  1.0
  Ni  Ni1294  1  0.70524613  0.34394427  0.03588080  1.0
  Ni  Ni1295  1  0.70524613  0.67727760  0.03588080  1.0
  Ni  Ni1296  1  0.08776987  0.11438907  0.08507120  1.0
  Ni  Ni1297  1  0.08776987  0.44772240  0.08507120  1.0
  Ni  Ni1298  1  0.08776987  0.78105573  0.08507120  1.0
  Ni  Ni1299  1  0.42110320  0.11438907  0.08507120  1.0
  Ni  Ni1300  1  0.42110320  0.44772240  0.08507120  1.0
  Ni  Ni1301  1  0.42110320  0.78105573  0.08507120  1.0
  Ni  Ni1302  1  0.75443653  0.11438907  0.08507120  1.0
  Ni  Ni1303  1  0.75443653  0.44772240  0.08507120  1.0
  Ni  Ni1304  1  0.75443653  0.78105573  0.08507120  1.0
  Ni  Ni1305  1  0.18776987  0.31438907  0.18507120  1.0
  Ni  Ni1306  1  0.18776987  0.64772240  0.18507120  1.0
  Ni  Ni1307  1  0.18776987  0.98105573  0.18507120  1.0
  Ni  Ni1308  1  0.52110320  0.31438907  0.18507120  1.0
  Ni  Ni1309  1  0.52110320  0.64772240  0.18507120  1.0
  Ni  Ni1310  1  0.52110320  0.98105573  0.18507120  1.0
  Ni  Ni1311  1  0.85443653  0.31438907  0.18507120  1.0
  Ni  Ni1312  1  0.85443653  0.64772240  0.18507120  1.0
  Ni  Ni1313  1  0.85443653  0.98105573  0.18507120  1.0
  Ni  Ni1314  1  0.26115067  0.29448400  0.00845200  1.0
  Ni  Ni1315  1  0.26115067  0.62781733  0.00845200  1.0
  Ni  Ni1316  1  0.26115067  0.96115067  0.00845200  1.0
  Ni  Ni1317  1  0.59448400  0.29448400  0.00845200  1.0
  Ni  Ni1318  1  0.59448400  0.62781733  0.00845200  1.0
  Ni  Ni1319  1  0.59448400  0.96115067  0.00845200  1.0
  Ni  Ni1320  1  0.92781733  0.29448400  0.00845200  1.0
  Ni  Ni1321  1  0.92781733  0.62781733  0.00845200  1.0
  Ni  Ni1322  1  0.92781733  0.96115067  0.00845200  1.0
  Ni  Ni1323  1  0.02781733  0.16115067  0.10845200  1.0
  Ni  Ni1324  1  0.02781733  0.49448400  0.10845200  1.0
  Ni  Ni1325  1  0.02781733  0.82781733  0.10845200  1.0
  Ni  Ni1326  1  0.36115067  0.16115067  0.10845200  1.0
  Ni  Ni1327  1  0.36115067  0.49448400  0.10845200  1.0
  Ni  Ni1328  1  0.36115067  0.82781733  0.10845200  1.0
  Ni  Ni1329  1  0.69448400  0.16115067  0.10845200  1.0
  Ni  Ni1330  1  0.69448400  0.49448400  0.10845200  1.0
  Ni  Ni1331  1  0.69448400  0.82781733  0.10845200  1.0
  Ni  Ni1332  1  0.00686533  0.28051600  0.08750000  1.0
  Ni  Ni1333  1  0.00686533  0.61384933  0.08750000  1.0
  Ni  Ni1334  1  0.00686533  0.94718267  0.08750000  1.0
  Ni  Ni1335  1  0.34019867  0.28051600  0.08750000  1.0
  Ni  Ni1336  1  0.34019867  0.61384933  0.08750000  1.0
  Ni  Ni1337  1  0.34019867  0.94718267  0.08750000  1.0
  Ni  Ni1338  1  0.67353200  0.28051600  0.08750000  1.0
  Ni  Ni1339  1  0.67353200  0.61384933  0.08750000  1.0
  Ni  Ni1340  1  0.67353200  0.94718267  0.08750000  1.0
  Ni  Ni1341  1  0.10686533  0.14718267  0.18750000  1.0
  Ni  Ni1342  1  0.10686533  0.48051600  0.18750000  1.0
  Ni  Ni1343  1  0.10686533  0.81384933  0.18750000  1.0
  Ni  Ni1344  1  0.44019867  0.14718267  0.18750000  1.0
  Ni  Ni1345  1  0.44019867  0.48051600  0.18750000  1.0
  Ni  Ni1346  1  0.44019867  0.81384933  0.18750000  1.0
  Ni  Ni1347  1  0.77353200  0.14718267  0.18750000  1.0
  Ni  Ni1348  1  0.77353200  0.48051600  0.18750000  1.0
  Ni  Ni1349  1  0.77353200  0.81384933  0.18750000  1.0
  Ni  Ni1350  1  0.16465893  0.09610320  0.15926160  1.0
  Ni  Ni1351  1  0.16465893  0.42943653  0.15926160  1.0
  Ni  Ni1352  1  0.16465893  0.76276987  0.15926160  1.0
  Ni  Ni1353  1  0.49799227  0.09610320  0.15926160  1.0
  Ni  Ni1354  1  0.49799227  0.42943653  0.15926160  1.0
  Ni  Ni1355  1  0.49799227  0.76276987  0.15926160  1.0
  Ni  Ni1356  1  0.83132560  0.09610320  0.15926160  1.0
  Ni  Ni1357  1  0.83132560  0.42943653  0.15926160  1.0
  Ni  Ni1358  1  0.83132560  0.76276987  0.15926160  1.0
  Ni  Ni1359  1  0.06465893  0.22943653  0.05926160  1.0
  Ni  Ni1360  1  0.06465893  0.56276987  0.05926160  1.0
  Ni  Ni1361  1  0.06465893  0.89610320  0.05926160  1.0
  Ni  Ni1362  1  0.39799227  0.22943653  0.05926160  1.0
  Ni  Ni1363  1  0.39799227  0.56276987  0.05926160  1.0
  Ni  Ni1364  1  0.39799227  0.89610320  0.05926160  1.0
  Ni  Ni1365  1  0.73132560  0.22943653  0.05926160  1.0
  Ni  Ni1366  1  0.73132560  0.56276987  0.05926160  1.0
  Ni  Ni1367  1  0.73132560  0.89610320  0.05926160  1.0
  Ni  Ni1368  1  0.20632560  0.17943653  0.03426160  1.0
  Ni  Ni1369  1  0.20632560  0.51276987  0.03426160  1.0
  Ni  Ni1370  1  0.20632560  0.84610320  0.03426160  1.0
  Ni  Ni1371  1  0.53965893  0.17943653  0.03426160  1.0
  Ni  Ni1372  1  0.53965893  0.51276987  0.03426160  1.0
  Ni  Ni1373  1  0.53965893  0.84610320  0.03426160  1.0
  Ni  Ni1374  1  0.87299227  0.17943653  0.03426160  1.0
  Ni  Ni1375  1  0.87299227  0.51276987  0.03426160  1.0
  Ni  Ni1376  1  0.87299227  0.84610320  0.03426160  1.0
  Ni  Ni1377  1  0.30632560  0.04610320  0.13426160  1.0
  Ni  Ni1378  1  0.30632560  0.37943653  0.13426160  1.0
  Ni  Ni1379  1  0.30632560  0.71276987  0.13426160  1.0
  Ni  Ni1380  1  0.63965893  0.04610320  0.13426160  1.0
  Ni  Ni1381  1  0.63965893  0.37943653  0.13426160  1.0
  Ni  Ni1382  1  0.63965893  0.71276987  0.13426160  1.0
  Ni  Ni1383  1  0.97299227  0.04610320  0.13426160  1.0
  Ni  Ni1384  1  0.97299227  0.37943653  0.13426160  1.0
  Ni  Ni1385  1  0.97299227  0.71276987  0.13426160  1.0
  Ni  Ni1386  1  0.22110320  0.21438907  0.13507120  1.0
  Ni  Ni1387  1  0.22110320  0.54772240  0.13507120  1.0
  Ni  Ni1388  1  0.22110320  0.88105573  0.13507120  1.0
  Ni  Ni1389  1  0.55443653  0.21438907  0.13507120  1.0
  Ni  Ni1390  1  0.55443653  0.54772240  0.13507120  1.0
  Ni  Ni1391  1  0.55443653  0.88105573  0.13507120  1.0
  Ni  Ni1392  1  0.88776987  0.21438907  0.13507120  1.0
  Ni  Ni1393  1  0.88776987  0.54772240  0.13507120  1.0
  Ni  Ni1394  1  0.88776987  0.88105573  0.13507120  1.0
  Ni  Ni1395  1  0.12110320  0.01438907  0.03507120  1.0
  Ni  Ni1396  1  0.12110320  0.34772240  0.03507120  1.0
  Ni  Ni1397  1  0.12110320  0.68105573  0.03507120  1.0
  Ni  Ni1398  1  0.45443653  0.01438907  0.03507120  1.0
  Ni  Ni1399  1  0.45443653  0.34772240  0.03507120  1.0
  Ni  Ni1400  1  0.45443653  0.68105573  0.03507120  1.0
  Ni  Ni1401  1  0.78776987  0.01438907  0.03507120  1.0
  Ni  Ni1402  1  0.78776987  0.34772240  0.03507120  1.0
  Ni  Ni1403  1  0.78776987  0.68105573  0.03507120  1.0
  Ni  Ni1404  1  0.32781733  0.26115067  0.15845200  1.0
  Ni  Ni1405  1  0.32781733  0.59448400  0.15845200  1.0
  Ni  Ni1406  1  0.32781733  0.92781733  0.15845200  1.0
  Ni  Ni1407  1  0.66115067  0.26115067  0.15845200  1.0
  Ni  Ni1408  1  0.66115067  0.59448400  0.15845200  1.0
  Ni  Ni1409  1  0.66115067  0.92781733  0.15845200  1.0
  Ni  Ni1410  1  0.99448400  0.26115067  0.15845200  1.0
  Ni  Ni1411  1  0.99448400  0.59448400  0.15845200  1.0
  Ni  Ni1412  1  0.99448400  0.92781733  0.15845200  1.0
  Ni  Ni1413  1  0.22781733  0.06115067  0.05845200  1.0
  Ni  Ni1414  1  0.22781733  0.39448400  0.05845200  1.0
  Ni  Ni1415  1  0.22781733  0.72781733  0.05845200  1.0
  Ni  Ni1416  1  0.56115067  0.06115067  0.05845200  1.0
  Ni  Ni1417  1  0.56115067  0.39448400  0.05845200  1.0
  Ni  Ni1418  1  0.56115067  0.72781733  0.05845200  1.0
  Ni  Ni1419  1  0.89448400  0.06115067  0.05845200  1.0
  Ni  Ni1420  1  0.89448400  0.39448400  0.05845200  1.0
  Ni  Ni1421  1  0.89448400  0.72781733  0.05845200  1.0
  Ni  Ni1422  1  0.28186533  0.16384933  0.11250000  1.0
  Ni  Ni1423  1  0.28186533  0.49718267  0.11250000  1.0
  Ni  Ni1424  1  0.28186533  0.83051600  0.11250000  1.0
  Ni  Ni1425  1  0.61519867  0.16384933  0.11250000  1.0
  Ni  Ni1426  1  0.61519867  0.49718267  0.11250000  1.0
  Ni  Ni1427  1  0.61519867  0.83051600  0.11250000  1.0
  Ni  Ni1428  1  0.94853200  0.16384933  0.11250000  1.0
  Ni  Ni1429  1  0.94853200  0.49718267  0.11250000  1.0
  Ni  Ni1430  1  0.94853200  0.83051600  0.11250000  1.0
  Ni  Ni1431  1  0.18186533  0.29718267  0.01250000  1.0
  Ni  Ni1432  1  0.18186533  0.63051600  0.01250000  1.0
  Ni  Ni1433  1  0.18186533  0.96384933  0.01250000  1.0
  Ni  Ni1434  1  0.51519867  0.29718267  0.01250000  1.0
  Ni  Ni1435  1  0.51519867  0.63051600  0.01250000  1.0
  Ni  Ni1436  1  0.51519867  0.96384933  0.01250000  1.0
  Ni  Ni1437  1  0.84853200  0.29718267  0.01250000  1.0
  Ni  Ni1438  1  0.84853200  0.63051600  0.01250000  1.0
  Ni  Ni1439  1  0.84853200  0.96384933  0.01250000  1.0
  Ni  Ni1440  1  0.09691280  0.12727760  0.01088080  1.0
  Ni  Ni1441  1  0.09691280  0.46061093  0.01088080  1.0
  Ni  Ni1442  1  0.09691280  0.79394427  0.01088080  1.0
  Ni  Ni1443  1  0.43024613  0.12727760  0.01088080  1.0
  Ni  Ni1444  1  0.43024613  0.46061093  0.01088080  1.0
  Ni  Ni1445  1  0.43024613  0.79394427  0.01088080  1.0
  Ni  Ni1446  1  0.76357947  0.12727760  0.01088080  1.0
  Ni  Ni1447  1  0.76357947  0.46061093  0.01088080  1.0
  Ni  Ni1448  1  0.76357947  0.79394427  0.01088080  1.0
  Ni  Ni1449  1  0.19691280  0.32727760  0.11088080  1.0
  Ni  Ni1450  1  0.19691280  0.66061093  0.11088080  1.0
  Ni  Ni1451  1  0.19691280  0.99394427  0.11088080  1.0
  Ni  Ni1452  1  0.53024613  0.32727760  0.11088080  1.0
  Ni  Ni1453  1  0.53024613  0.66061093  0.11088080  1.0
  Ni  Ni1454  1  0.53024613  0.99394427  0.11088080  1.0
  Ni  Ni1455  1  0.86357947  0.32727760  0.11088080  1.0
  Ni  Ni1456  1  0.86357947  0.66061093  0.11088080  1.0
  Ni  Ni1457  1  0.86357947  0.99394427  0.11088080  1.0
  Ni  Ni1458  1  0.10578587  0.31169040  0.18911920  1.0
  Ni  Ni1459  1  0.10578587  0.64502373  0.18911920  1.0
  Ni  Ni1460  1  0.10578587  0.97835707  0.18911920  1.0
  Ni  Ni1461  1  0.43911920  0.31169040  0.18911920  1.0
  Ni  Ni1462  1  0.43911920  0.64502373  0.18911920  1.0
  Ni  Ni1463  1  0.43911920  0.97835707  0.18911920  1.0
  Ni  Ni1464  1  0.77245253  0.31169040  0.18911920  1.0
  Ni  Ni1465  1  0.77245253  0.64502373  0.18911920  1.0
  Ni  Ni1466  1  0.77245253  0.97835707  0.18911920  1.0
  Ni  Ni1467  1  0.00578587  0.11169040  0.08911920  1.0
  Ni  Ni1468  1  0.00578587  0.44502373  0.08911920  1.0
  Ni  Ni1469  1  0.00578587  0.77835707  0.08911920  1.0
  Ni  Ni1470  1  0.33911920  0.11169040  0.08911920  1.0
  Ni  Ni1471  1  0.33911920  0.44502373  0.08911920  1.0
  Ni  Ni1472  1  0.33911920  0.77835707  0.08911920  1.0
  Ni  Ni1473  1  0.67245253  0.11169040  0.08911920  1.0
  Ni  Ni1474  1  0.67245253  0.44502373  0.08911920  1.0
  Ni  Ni1475  1  0.67245253  0.77835707  0.08911920  1.0
  Ni  Ni1476  1  0.25926160  0.12943653  0.00926160  1.0
  Ni  Ni1477  1  0.25926160  0.46276987  0.00926160  1.0
  Ni  Ni1478  1  0.25926160  0.79610320  0.00926160  1.0
  Ni  Ni1479  1  0.59259493  0.12943653  0.00926160  1.0
  Ni  Ni1480  1  0.59259493  0.46276987  0.00926160  1.0
  Ni  Ni1481  1  0.59259493  0.79610320  0.00926160  1.0
  Ni  Ni1482  1  0.92592827  0.12943653  0.00926160  1.0
  Ni  Ni1483  1  0.92592827  0.46276987  0.00926160  1.0
  Ni  Ni1484  1  0.92592827  0.79610320  0.00926160  1.0
  Ni  Ni1485  1  0.02592827  0.32943653  0.10926160  1.0
  Ni  Ni1486  1  0.02592827  0.66276987  0.10926160  1.0
  Ni  Ni1487  1  0.02592827  0.99610320  0.10926160  1.0
  Ni  Ni1488  1  0.35926160  0.32943653  0.10926160  1.0
  Ni  Ni1489  1  0.35926160  0.66276987  0.10926160  1.0
  Ni  Ni1490  1  0.35926160  0.99610320  0.10926160  1.0
  Ni  Ni1491  1  0.69259493  0.32943653  0.10926160  1.0
  Ni  Ni1492  1  0.69259493  0.66276987  0.10926160  1.0
  Ni  Ni1493  1  0.69259493  0.99610320  0.10926160  1.0
  Ni  Ni1494  1  0.03480133  0.18051600  0.03750000  1.0
  Ni  Ni1495  1  0.03480133  0.51384933  0.03750000  1.0
  Ni  Ni1496  1  0.03480133  0.84718267  0.03750000  1.0
  Ni  Ni1497  1  0.36813467  0.18051600  0.03750000  1.0
  Ni  Ni1498  1  0.36813467  0.51384933  0.03750000  1.0
  Ni  Ni1499  1  0.36813467  0.84718267  0.03750000  1.0
  Ni  Ni1500  1  0.70146800  0.18051600  0.03750000  1.0
  Ni  Ni1501  1  0.70146800  0.51384933  0.03750000  1.0
  Ni  Ni1502  1  0.70146800  0.84718267  0.03750000  1.0
  Ni  Ni1503  1  0.13480133  0.04718267  0.13750000  1.0
  Ni  Ni1504  1  0.13480133  0.38051600  0.13750000  1.0
  Ni  Ni1505  1  0.13480133  0.71384933  0.13750000  1.0
  Ni  Ni1506  1  0.46813467  0.04718267  0.13750000  1.0
  Ni  Ni1507  1  0.46813467  0.38051600  0.13750000  1.0
  Ni  Ni1508  1  0.46813467  0.71384933  0.13750000  1.0
  Ni  Ni1509  1  0.80146800  0.04718267  0.13750000  1.0
  Ni  Ni1510  1  0.80146800  0.38051600  0.13750000  1.0
  Ni  Ni1511  1  0.80146800  0.71384933  0.13750000  1.0
  Ni  Ni1512  1  0.08561093  0.27673787  0.08830960  1.0
  Ni  Ni1513  1  0.08561093  0.61007120  0.08830960  1.0
  Ni  Ni1514  1  0.08561093  0.94340453  0.08830960  1.0
  Ni  Ni1515  1  0.41894427  0.27673787  0.08830960  1.0
  Ni  Ni1516  1  0.41894427  0.61007120  0.08830960  1.0
  Ni  Ni1517  1  0.41894427  0.94340453  0.08830960  1.0
  Ni  Ni1518  1  0.75227760  0.27673787  0.08830960  1.0
  Ni  Ni1519  1  0.75227760  0.61007120  0.08830960  1.0
  Ni  Ni1520  1  0.75227760  0.94340453  0.08830960  1.0
  Ni  Ni1521  1  0.18561093  0.14340453  0.18830960  1.0
  Ni  Ni1522  1  0.18561093  0.47673787  0.18830960  1.0
  Ni  Ni1523  1  0.18561093  0.81007120  0.18830960  1.0
  Ni  Ni1524  1  0.51894427  0.14340453  0.18830960  1.0
  Ni  Ni1525  1  0.51894427  0.47673787  0.18830960  1.0
  Ni  Ni1526  1  0.51894427  0.81007120  0.18830960  1.0
  Ni  Ni1527  1  0.85227760  0.14340453  0.18830960  1.0
  Ni  Ni1528  1  0.85227760  0.47673787  0.18830960  1.0
  Ni  Ni1529  1  0.85227760  0.81007120  0.18830960  1.0
  Ni  Ni1530  1  0.24556347  0.09664293  0.16492880  1.0
  Ni  Ni1531  1  0.24556347  0.42997627  0.16492880  1.0
  Ni  Ni1532  1  0.24556347  0.76330960  0.16492880  1.0
  Ni  Ni1533  1  0.57889680  0.09664293  0.16492880  1.0
  Ni  Ni1534  1  0.57889680  0.42997627  0.16492880  1.0
  Ni  Ni1535  1  0.57889680  0.76330960  0.16492880  1.0
  Ni  Ni1536  1  0.91223013  0.09664293  0.16492880  1.0
  Ni  Ni1537  1  0.91223013  0.42997627  0.16492880  1.0
  Ni  Ni1538  1  0.91223013  0.76330960  0.16492880  1.0
  Ni  Ni1539  1  0.14556347  0.22997627  0.06492880  1.0
  Ni  Ni1540  1  0.14556347  0.56330960  0.06492880  1.0
  Ni  Ni1541  1  0.14556347  0.89664293  0.06492880  1.0
  Ni  Ni1542  1  0.47889680  0.22997627  0.06492880  1.0
  Ni  Ni1543  1  0.47889680  0.56330960  0.06492880  1.0
  Ni  Ni1544  1  0.47889680  0.89664293  0.06492880  1.0
  Ni  Ni1545  1  0.81223013  0.22997627  0.06492880  1.0
  Ni  Ni1546  1  0.81223013  0.56330960  0.06492880  1.0
  Ni  Ni1547  1  0.81223013  0.89664293  0.06492880  1.0
  Ni  Ni1548  1  0.16651547  0.11061093  0.08588080  1.0
  Ni  Ni1549  1  0.16651547  0.44394427  0.08588080  1.0
  Ni  Ni1550  1  0.16651547  0.77727760  0.08588080  1.0
  Ni  Ni1551  1  0.49984880  0.11061093  0.08588080  1.0
  Ni  Ni1552  1  0.49984880  0.44394427  0.08588080  1.0
  Ni  Ni1553  1  0.49984880  0.77727760  0.08588080  1.0
  Ni  Ni1554  1  0.83318213  0.11061093  0.08588080  1.0
  Ni  Ni1555  1  0.83318213  0.44394427  0.08588080  1.0
  Ni  Ni1556  1  0.83318213  0.77727760  0.08588080  1.0
  Ni  Ni1557  1  0.26651547  0.31061093  0.18588080  1.0
  Ni  Ni1558  1  0.26651547  0.64394427  0.18588080  1.0
  Ni  Ni1559  1  0.26651547  0.97727760  0.18588080  1.0
  Ni  Ni1560  1  0.59984880  0.31061093  0.18588080  1.0
  Ni  Ni1561  1  0.59984880  0.64394427  0.18588080  1.0
  Ni  Ni1562  1  0.59984880  0.97727760  0.18588080  1.0
  Ni  Ni1563  1  0.93318213  0.31061093  0.18588080  1.0
  Ni  Ni1564  1  0.93318213  0.64394427  0.18588080  1.0
  Ni  Ni1565  1  0.93318213  0.97727760  0.18588080  1.0
  Ni  Ni1566  1  0.00872187  0.29502373  0.01411920  1.0
  Ni  Ni1567  1  0.00872187  0.62835707  0.01411920  1.0
  Ni  Ni1568  1  0.00872187  0.96169040  0.01411920  1.0
  Ni  Ni1569  1  0.34205520  0.29502373  0.01411920  1.0
  Ni  Ni1570  1  0.34205520  0.62835707  0.01411920  1.0
  Ni  Ni1571  1  0.34205520  0.96169040  0.01411920  1.0
  Ni  Ni1572  1  0.67538853  0.29502373  0.01411920  1.0
  Ni  Ni1573  1  0.67538853  0.62835707  0.01411920  1.0
  Ni  Ni1574  1  0.67538853  0.96169040  0.01411920  1.0
  Ni  Ni1575  1  0.10872187  0.16169040  0.11411920  1.0
  Ni  Ni1576  1  0.10872187  0.49502373  0.11411920  1.0
  Ni  Ni1577  1  0.10872187  0.82835707  0.11411920  1.0
  Ni  Ni1578  1  0.44205520  0.16169040  0.11411920  1.0
  Ni  Ni1579  1  0.44205520  0.49502373  0.11411920  1.0
  Ni  Ni1580  1  0.44205520  0.82835707  0.11411920  1.0
  Ni  Ni1581  1  0.77538853  0.16169040  0.11411920  1.0
  Ni  Ni1582  1  0.77538853  0.49502373  0.11411920  1.0
  Ni  Ni1583  1  0.77538853  0.82835707  0.11411920  1.0
  Ni  Ni1584  1  0.16705520  0.27835707  0.33911920  1.0
  Ni  Ni1585  1  0.16705520  0.61169040  0.33911920  1.0
  Ni  Ni1586  1  0.16705520  0.94502373  0.33911920  1.0
  Ni  Ni1587  1  0.50038853  0.27835707  0.33911920  1.0
  Ni  Ni1588  1  0.50038853  0.61169040  0.33911920  1.0
  Ni  Ni1589  1  0.50038853  0.94502373  0.33911920  1.0
  Ni  Ni1590  1  0.83372187  0.27835707  0.33911920  1.0
  Ni  Ni1591  1  0.83372187  0.61169040  0.33911920  1.0
  Ni  Ni1592  1  0.83372187  0.94502373  0.33911920  1.0
  Ni  Ni1593  1  0.06705520  0.07835707  0.23911920  1.0
  Ni  Ni1594  1  0.06705520  0.41169040  0.23911920  1.0
  Ni  Ni1595  1  0.06705520  0.74502373  0.23911920  1.0
  Ni  Ni1596  1  0.40038853  0.07835707  0.23911920  1.0
  Ni  Ni1597  1  0.40038853  0.41169040  0.23911920  1.0
  Ni  Ni1598  1  0.40038853  0.74502373  0.23911920  1.0
  Ni  Ni1599  1  0.73372187  0.07835707  0.23911920  1.0
  Ni  Ni1600  1  0.73372187  0.41169040  0.23911920  1.0
  Ni  Ni1601  1  0.73372187  0.74502373  0.23911920  1.0
  Ni  Ni1602  1  0.15227760  0.24340453  0.23830960  1.0
  Ni  Ni1603  1  0.15227760  0.57673787  0.23830960  1.0
  Ni  Ni1604  1  0.15227760  0.91007120  0.23830960  1.0
  Ni  Ni1605  1  0.48561093  0.24340453  0.23830960  1.0
  Ni  Ni1606  1  0.48561093  0.57673787  0.23830960  1.0
  Ni  Ni1607  1  0.48561093  0.91007120  0.23830960  1.0
  Ni  Ni1608  1  0.81894427  0.24340453  0.23830960  1.0
  Ni  Ni1609  1  0.81894427  0.57673787  0.23830960  1.0
  Ni  Ni1610  1  0.81894427  0.91007120  0.23830960  1.0
  Ni  Ni1611  1  0.25227760  0.11007120  0.33830960  1.0
  Ni  Ni1612  1  0.25227760  0.44340453  0.33830960  1.0
  Ni  Ni1613  1  0.25227760  0.77673787  0.33830960  1.0
  Ni  Ni1614  1  0.58561093  0.11007120  0.33830960  1.0
  Ni  Ni1615  1  0.58561093  0.44340453  0.33830960  1.0
  Ni  Ni1616  1  0.58561093  0.77673787  0.33830960  1.0
  Ni  Ni1617  1  0.91894427  0.11007120  0.33830960  1.0
  Ni  Ni1618  1  0.91894427  0.44340453  0.33830960  1.0
  Ni  Ni1619  1  0.91894427  0.77673787  0.33830960  1.0
  Ni  Ni1620  1  0.04556347  0.19664293  0.21492880  1.0
  Ni  Ni1621  1  0.04556347  0.52997627  0.21492880  1.0
  Ni  Ni1622  1  0.04556347  0.86330960  0.21492880  1.0
  Ni  Ni1623  1  0.37889680  0.19664293  0.21492880  1.0
  Ni  Ni1624  1  0.37889680  0.52997627  0.21492880  1.0
  Ni  Ni1625  1  0.37889680  0.86330960  0.21492880  1.0
  Ni  Ni1626  1  0.71223013  0.19664293  0.21492880  1.0
  Ni  Ni1627  1  0.71223013  0.52997627  0.21492880  1.0
  Ni  Ni1628  1  0.71223013  0.86330960  0.21492880  1.0
  Ni  Ni1629  1  0.14556347  0.06330960  0.31492880  1.0
  Ni  Ni1630  1  0.14556347  0.39664293  0.31492880  1.0
  Ni  Ni1631  1  0.14556347  0.72997627  0.31492880  1.0
  Ni  Ni1632  1  0.47889680  0.06330960  0.31492880  1.0
  Ni  Ni1633  1  0.47889680  0.39664293  0.31492880  1.0
  Ni  Ni1634  1  0.47889680  0.72997627  0.31492880  1.0
  Ni  Ni1635  1  0.81223013  0.06330960  0.31492880  1.0
  Ni  Ni1636  1  0.81223013  0.39664293  0.31492880  1.0
  Ni  Ni1637  1  0.81223013  0.72997627  0.31492880  1.0
  Ni  Ni1638  1  0.09151547  0.29394427  0.26088080  1.0
  Ni  Ni1639  1  0.09151547  0.62727760  0.26088080  1.0
  Ni  Ni1640  1  0.09151547  0.96061093  0.26088080  1.0
  Ni  Ni1641  1  0.42484880  0.29394427  0.26088080  1.0
  Ni  Ni1642  1  0.42484880  0.62727760  0.26088080  1.0
  Ni  Ni1643  1  0.42484880  0.96061093  0.26088080  1.0
  Ni  Ni1644  1  0.75818213  0.29394427  0.26088080  1.0
  Ni  Ni1645  1  0.75818213  0.62727760  0.26088080  1.0
  Ni  Ni1646  1  0.75818213  0.96061093  0.26088080  1.0
  Ni  Ni1647  1  0.19151547  0.16061093  0.36088080  1.0
  Ni  Ni1648  1  0.19151547  0.49394427  0.36088080  1.0
  Ni  Ni1649  1  0.19151547  0.82727760  0.36088080  1.0
  Ni  Ni1650  1  0.52484880  0.16061093  0.36088080  1.0
  Ni  Ni1651  1  0.52484880  0.49394427  0.36088080  1.0
  Ni  Ni1652  1  0.52484880  0.82727760  0.36088080  1.0
  Ni  Ni1653  1  0.85818213  0.16061093  0.36088080  1.0
  Ni  Ni1654  1  0.85818213  0.49394427  0.36088080  1.0
  Ni  Ni1655  1  0.85818213  0.82727760  0.36088080  1.0
  Ni  Ni1656  1  0.27646800  0.33051600  0.36250000  1.0
  Ni  Ni1657  1  0.27646800  0.66384933  0.36250000  1.0
  Ni  Ni1658  1  0.27646800  0.99718267  0.36250000  1.0
  Ni  Ni1659  1  0.60980133  0.33051600  0.36250000  1.0
  Ni  Ni1660  1  0.60980133  0.66384933  0.36250000  1.0
  Ni  Ni1661  1  0.60980133  0.99718267  0.36250000  1.0
  Ni  Ni1662  1  0.94313467  0.33051600  0.36250000  1.0
  Ni  Ni1663  1  0.94313467  0.66384933  0.36250000  1.0
  Ni  Ni1664  1  0.94313467  0.99718267  0.36250000  1.0
  Ni  Ni1665  1  0.17646800  0.13051600  0.26250000  1.0
  Ni  Ni1666  1  0.17646800  0.46384933  0.26250000  1.0
  Ni  Ni1667  1  0.17646800  0.79718267  0.26250000  1.0
  Ni  Ni1668  1  0.50980133  0.13051600  0.26250000  1.0
  Ni  Ni1669  1  0.50980133  0.46384933  0.26250000  1.0
  Ni  Ni1670  1  0.50980133  0.79718267  0.26250000  1.0
  Ni  Ni1671  1  0.84313467  0.13051600  0.26250000  1.0
  Ni  Ni1672  1  0.84313467  0.46384933  0.26250000  1.0
  Ni  Ni1673  1  0.84313467  0.79718267  0.26250000  1.0
  Ni  Ni1674  1  0.13426160  0.21276987  0.38426160  1.0
  Ni  Ni1675  1  0.13426160  0.54610320  0.38426160  1.0
  Ni  Ni1676  1  0.13426160  0.87943653  0.38426160  1.0
  Ni  Ni1677  1  0.46759493  0.21276987  0.38426160  1.0
  Ni  Ni1678  1  0.46759493  0.54610320  0.38426160  1.0
  Ni  Ni1679  1  0.46759493  0.87943653  0.38426160  1.0
  Ni  Ni1680  1  0.80092827  0.21276987  0.38426160  1.0
  Ni  Ni1681  1  0.80092827  0.54610320  0.38426160  1.0
  Ni  Ni1682  1  0.80092827  0.87943653  0.38426160  1.0
  Ni  Ni1683  1  0.03426160  0.01276987  0.28426160  1.0
  Ni  Ni1684  1  0.03426160  0.34610320  0.28426160  1.0
  Ni  Ni1685  1  0.03426160  0.67943653  0.28426160  1.0
  Ni  Ni1686  1  0.36759493  0.01276987  0.28426160  1.0
  Ni  Ni1687  1  0.36759493  0.34610320  0.28426160  1.0
  Ni  Ni1688  1  0.36759493  0.67943653  0.28426160  1.0
  Ni  Ni1689  1  0.70092827  0.01276987  0.28426160  1.0
  Ni  Ni1690  1  0.70092827  0.34610320  0.28426160  1.0
  Ni  Ni1691  1  0.70092827  0.67943653  0.28426160  1.0
  Ni  Ni1692  1  0.11411920  0.32835707  0.36411920  1.0
  Ni  Ni1693  1  0.11411920  0.66169040  0.36411920  1.0
  Ni  Ni1694  1  0.11411920  0.99502373  0.36411920  1.0
  Ni  Ni1695  1  0.44745253  0.32835707  0.36411920  1.0
  Ni  Ni1696  1  0.44745253  0.66169040  0.36411920  1.0
  Ni  Ni1697  1  0.44745253  0.99502373  0.36411920  1.0
  Ni  Ni1698  1  0.78078587  0.32835707  0.36411920  1.0
  Ni  Ni1699  1  0.78078587  0.66169040  0.36411920  1.0
  Ni  Ni1700  1  0.78078587  0.99502373  0.36411920  1.0
  Ni  Ni1701  1  0.01411920  0.12835707  0.26411920  1.0
  Ni  Ni1702  1  0.01411920  0.46169040  0.26411920  1.0
  Ni  Ni1703  1  0.01411920  0.79502373  0.26411920  1.0
  Ni  Ni1704  1  0.34745253  0.12835707  0.26411920  1.0
  Ni  Ni1705  1  0.34745253  0.46169040  0.26411920  1.0
  Ni  Ni1706  1  0.34745253  0.79502373  0.26411920  1.0
  Ni  Ni1707  1  0.68078587  0.12835707  0.26411920  1.0
  Ni  Ni1708  1  0.68078587  0.46169040  0.26411920  1.0
  Ni  Ni1709  1  0.68078587  0.79502373  0.26411920  1.0
  Ni  Ni1710  1  0.00524613  0.27727760  0.33588080  1.0
  Ni  Ni1711  1  0.00524613  0.61061093  0.33588080  1.0
  Ni  Ni1712  1  0.00524613  0.94394427  0.33588080  1.0
  Ni  Ni1713  1  0.33857947  0.27727760  0.33588080  1.0
  Ni  Ni1714  1  0.33857947  0.61061093  0.33588080  1.0
  Ni  Ni1715  1  0.33857947  0.94394427  0.33588080  1.0
  Ni  Ni1716  1  0.67191280  0.27727760  0.33588080  1.0
  Ni  Ni1717  1  0.67191280  0.61061093  0.33588080  1.0
  Ni  Ni1718  1  0.67191280  0.94394427  0.33588080  1.0
  Ni  Ni1719  1  0.23857947  0.07727760  0.23588080  1.0
  Ni  Ni1720  1  0.23857947  0.41061093  0.23588080  1.0
  Ni  Ni1721  1  0.23857947  0.74394427  0.23588080  1.0
  Ni  Ni1722  1  0.57191280  0.07727760  0.23588080  1.0
  Ni  Ni1723  1  0.57191280  0.41061093  0.23588080  1.0
  Ni  Ni1724  1  0.57191280  0.74394427  0.23588080  1.0
  Ni  Ni1725  1  0.90524613  0.07727760  0.23588080  1.0
  Ni  Ni1726  1  0.90524613  0.41061093  0.23588080  1.0
  Ni  Ni1727  1  0.90524613  0.74394427  0.23588080  1.0
  Ni  Ni1728  1  0.28776987  0.18105573  0.28507120  1.0
  Ni  Ni1729  1  0.28776987  0.51438907  0.28507120  1.0
  Ni  Ni1730  1  0.28776987  0.84772240  0.28507120  1.0
  Ni  Ni1731  1  0.62110320  0.18105573  0.28507120  1.0
  Ni  Ni1732  1  0.62110320  0.51438907  0.28507120  1.0
  Ni  Ni1733  1  0.62110320  0.84772240  0.28507120  1.0
  Ni  Ni1734  1  0.95443653  0.18105573  0.28507120  1.0
  Ni  Ni1735  1  0.95443653  0.51438907  0.28507120  1.0
  Ni  Ni1736  1  0.95443653  0.84772240  0.28507120  1.0
  Ni  Ni1737  1  0.05443653  0.04772240  0.38507120  1.0
  Ni  Ni1738  1  0.05443653  0.38105573  0.38507120  1.0
  Ni  Ni1739  1  0.05443653  0.71438907  0.38507120  1.0
  Ni  Ni1740  1  0.38776987  0.04772240  0.38507120  1.0
  Ni  Ni1741  1  0.38776987  0.38105573  0.38507120  1.0
  Ni  Ni1742  1  0.38776987  0.71438907  0.38507120  1.0
  Ni  Ni1743  1  0.72110320  0.04772240  0.38507120  1.0
  Ni  Ni1744  1  0.72110320  0.38105573  0.38507120  1.0
  Ni  Ni1745  1  0.72110320  0.71438907  0.38507120  1.0
  Ni  Ni1746  1  0.12781733  0.02781733  0.20845200  1.0
  Ni  Ni1747  1  0.12781733  0.36115067  0.20845200  1.0
  Ni  Ni1748  1  0.12781733  0.69448400  0.20845200  1.0
  Ni  Ni1749  1  0.46115067  0.02781733  0.20845200  1.0
  Ni  Ni1750  1  0.46115067  0.36115067  0.20845200  1.0
  Ni  Ni1751  1  0.46115067  0.69448400  0.20845200  1.0
  Ni  Ni1752  1  0.79448400  0.02781733  0.20845200  1.0
  Ni  Ni1753  1  0.79448400  0.36115067  0.20845200  1.0
  Ni  Ni1754  1  0.79448400  0.69448400  0.20845200  1.0
  Ni  Ni1755  1  0.22781733  0.22781733  0.30845200  1.0
  Ni  Ni1756  1  0.22781733  0.56115067  0.30845200  1.0
  Ni  Ni1757  1  0.22781733  0.89448400  0.30845200  1.0
  Ni  Ni1758  1  0.56115067  0.22781733  0.30845200  1.0
  Ni  Ni1759  1  0.56115067  0.56115067  0.30845200  1.0
  Ni  Ni1760  1  0.56115067  0.89448400  0.30845200  1.0
  Ni  Ni1761  1  0.89448400  0.22781733  0.30845200  1.0
  Ni  Ni1762  1  0.89448400  0.56115067  0.30845200  1.0
  Ni  Ni1763  1  0.89448400  0.89448400  0.30845200  1.0
  Ni  Ni1764  1  0.20686533  0.01384933  0.28750000  1.0
  Ni  Ni1765  1  0.20686533  0.34718267  0.28750000  1.0
  Ni  Ni1766  1  0.20686533  0.68051600  0.28750000  1.0
  Ni  Ni1767  1  0.54019867  0.01384933  0.28750000  1.0
  Ni  Ni1768  1  0.54019867  0.34718267  0.28750000  1.0
  Ni  Ni1769  1  0.54019867  0.68051600  0.28750000  1.0
  Ni  Ni1770  1  0.87353200  0.01384933  0.28750000  1.0
  Ni  Ni1771  1  0.87353200  0.34718267  0.28750000  1.0
  Ni  Ni1772  1  0.87353200  0.68051600  0.28750000  1.0
  Ni  Ni1773  1  0.30686533  0.21384933  0.38750000  1.0
  Ni  Ni1774  1  0.30686533  0.54718267  0.38750000  1.0
  Ni  Ni1775  1  0.30686533  0.88051600  0.38750000  1.0
  Ni  Ni1776  1  0.64019867  0.21384933  0.38750000  1.0
  Ni  Ni1777  1  0.64019867  0.54718267  0.38750000  1.0
  Ni  Ni1778  1  0.64019867  0.88051600  0.38750000  1.0
  Ni  Ni1779  1  0.97353200  0.21384933  0.38750000  1.0
  Ni  Ni1780  1  0.97353200  0.54718267  0.38750000  1.0
  Ni  Ni1781  1  0.97353200  0.88051600  0.38750000  1.0
  Ni  Ni1782  1  0.03132560  0.16276987  0.35926160  1.0
  Ni  Ni1783  1  0.03132560  0.49610320  0.35926160  1.0
  Ni  Ni1784  1  0.03132560  0.82943653  0.35926160  1.0
  Ni  Ni1785  1  0.36465893  0.16276987  0.35926160  1.0
  Ni  Ni1786  1  0.36465893  0.49610320  0.35926160  1.0
  Ni  Ni1787  1  0.36465893  0.82943653  0.35926160  1.0
  Ni  Ni1788  1  0.69799227  0.16276987  0.35926160  1.0
  Ni  Ni1789  1  0.69799227  0.49610320  0.35926160  1.0
  Ni  Ni1790  1  0.69799227  0.82943653  0.35926160  1.0
  Ni  Ni1791  1  0.26465893  0.29610320  0.25926160  1.0
  Ni  Ni1792  1  0.26465893  0.62943653  0.25926160  1.0
  Ni  Ni1793  1  0.26465893  0.96276987  0.25926160  1.0
  Ni  Ni1794  1  0.59799227  0.29610320  0.25926160  1.0
  Ni  Ni1795  1  0.59799227  0.62943653  0.25926160  1.0
  Ni  Ni1796  1  0.59799227  0.96276987  0.25926160  1.0
  Ni  Ni1797  1  0.93132560  0.29610320  0.25926160  1.0
  Ni  Ni1798  1  0.93132560  0.62943653  0.25926160  1.0
  Ni  Ni1799  1  0.93132560  0.96276987  0.25926160  1.0
  Ni  Ni1800  1  0.07299227  0.24610320  0.23426160  1.0
  Ni  Ni1801  1  0.07299227  0.57943653  0.23426160  1.0
  Ni  Ni1802  1  0.07299227  0.91276987  0.23426160  1.0
  Ni  Ni1803  1  0.40632560  0.24610320  0.23426160  1.0
  Ni  Ni1804  1  0.40632560  0.57943653  0.23426160  1.0
  Ni  Ni1805  1  0.40632560  0.91276987  0.23426160  1.0
  Ni  Ni1806  1  0.73965893  0.24610320  0.23426160  1.0
  Ni  Ni1807  1  0.73965893  0.57943653  0.23426160  1.0
  Ni  Ni1808  1  0.73965893  0.91276987  0.23426160  1.0
  Ni  Ni1809  1  0.17299227  0.11276987  0.33426160  1.0
  Ni  Ni1810  1  0.17299227  0.44610320  0.33426160  1.0
  Ni  Ni1811  1  0.17299227  0.77943653  0.33426160  1.0
  Ni  Ni1812  1  0.50632560  0.11276987  0.33426160  1.0
  Ni  Ni1813  1  0.50632560  0.44610320  0.33426160  1.0
  Ni  Ni1814  1  0.50632560  0.77943653  0.33426160  1.0
  Ni  Ni1815  1  0.83965893  0.11276987  0.33426160  1.0
  Ni  Ni1816  1  0.83965893  0.44610320  0.33426160  1.0
  Ni  Ni1817  1  0.83965893  0.77943653  0.33426160  1.0
  Ni  Ni1818  1  0.08776987  0.28105573  0.33507120  1.0
  Ni  Ni1819  1  0.08776987  0.61438907  0.33507120  1.0
  Ni  Ni1820  1  0.08776987  0.94772240  0.33507120  1.0
  Ni  Ni1821  1  0.42110320  0.28105573  0.33507120  1.0
  Ni  Ni1822  1  0.42110320  0.61438907  0.33507120  1.0
  Ni  Ni1823  1  0.42110320  0.94772240  0.33507120  1.0
  Ni  Ni1824  1  0.75443653  0.28105573  0.33507120  1.0
  Ni  Ni1825  1  0.75443653  0.61438907  0.33507120  1.0
  Ni  Ni1826  1  0.75443653  0.94772240  0.33507120  1.0
  Ni  Ni1827  1  0.32110320  0.08105573  0.23507120  1.0
  Ni  Ni1828  1  0.32110320  0.41438907  0.23507120  1.0
  Ni  Ni1829  1  0.32110320  0.74772240  0.23507120  1.0
  Ni  Ni1830  1  0.65443653  0.08105573  0.23507120  1.0
  Ni  Ni1831  1  0.65443653  0.41438907  0.23507120  1.0
  Ni  Ni1832  1  0.65443653  0.74772240  0.23507120  1.0
  Ni  Ni1833  1  0.98776987  0.08105573  0.23507120  1.0
  Ni  Ni1834  1  0.98776987  0.41438907  0.23507120  1.0
  Ni  Ni1835  1  0.98776987  0.74772240  0.23507120  1.0
  Ni  Ni1836  1  0.19448400  0.32781733  0.35845200  1.0
  Ni  Ni1837  1  0.19448400  0.66115067  0.35845200  1.0
  Ni  Ni1838  1  0.19448400  0.99448400  0.35845200  1.0
  Ni  Ni1839  1  0.52781733  0.32781733  0.35845200  1.0
  Ni  Ni1840  1  0.52781733  0.66115067  0.35845200  1.0
  Ni  Ni1841  1  0.52781733  0.99448400  0.35845200  1.0
  Ni  Ni1842  1  0.86115067  0.32781733  0.35845200  1.0
  Ni  Ni1843  1  0.86115067  0.66115067  0.35845200  1.0
  Ni  Ni1844  1  0.86115067  0.99448400  0.35845200  1.0
  Ni  Ni1845  1  0.09448400  0.12781733  0.25845200  1.0
  Ni  Ni1846  1  0.09448400  0.46115067  0.25845200  1.0
  Ni  Ni1847  1  0.09448400  0.79448400  0.25845200  1.0
  Ni  Ni1848  1  0.42781733  0.12781733  0.25845200  1.0
  Ni  Ni1849  1  0.42781733  0.46115067  0.25845200  1.0
  Ni  Ni1850  1  0.42781733  0.79448400  0.25845200  1.0
  Ni  Ni1851  1  0.76115067  0.12781733  0.25845200  1.0
  Ni  Ni1852  1  0.76115067  0.46115067  0.25845200  1.0
  Ni  Ni1853  1  0.76115067  0.79448400  0.25845200  1.0
  Ni  Ni1854  1  0.14853200  0.23051600  0.31250000  1.0
  Ni  Ni1855  1  0.14853200  0.56384933  0.31250000  1.0
  Ni  Ni1856  1  0.14853200  0.89718267  0.31250000  1.0
  Ni  Ni1857  1  0.48186533  0.23051600  0.31250000  1.0
  Ni  Ni1858  1  0.48186533  0.56384933  0.31250000  1.0
  Ni  Ni1859  1  0.48186533  0.89718267  0.31250000  1.0
  Ni  Ni1860  1  0.81519867  0.23051600  0.31250000  1.0
  Ni  Ni1861  1  0.81519867  0.56384933  0.31250000  1.0
  Ni  Ni1862  1  0.81519867  0.89718267  0.31250000  1.0
  Ni  Ni1863  1  0.04853200  0.03051600  0.21250000  1.0
  Ni  Ni1864  1  0.04853200  0.36384933  0.21250000  1.0
  Ni  Ni1865  1  0.04853200  0.69718267  0.21250000  1.0
  Ni  Ni1866  1  0.38186533  0.03051600  0.21250000  1.0
  Ni  Ni1867  1  0.38186533  0.36384933  0.21250000  1.0
  Ni  Ni1868  1  0.38186533  0.69718267  0.21250000  1.0
  Ni  Ni1869  1  0.71519867  0.03051600  0.21250000  1.0
  Ni  Ni1870  1  0.71519867  0.36384933  0.21250000  1.0
  Ni  Ni1871  1  0.71519867  0.69718267  0.21250000  1.0
  Ni  Ni1872  1  0.29691280  0.19394427  0.21088080  1.0
  Ni  Ni1873  1  0.29691280  0.52727760  0.21088080  1.0
  Ni  Ni1874  1  0.29691280  0.86061093  0.21088080  1.0
  Ni  Ni1875  1  0.63024613  0.19394427  0.21088080  1.0
  Ni  Ni1876  1  0.63024613  0.52727760  0.21088080  1.0
  Ni  Ni1877  1  0.63024613  0.86061093  0.21088080  1.0
  Ni  Ni1878  1  0.96357947  0.19394427  0.21088080  1.0
  Ni  Ni1879  1  0.96357947  0.52727760  0.21088080  1.0
  Ni  Ni1880  1  0.96357947  0.86061093  0.21088080  1.0
  Ni  Ni1881  1  0.06357947  0.06061093  0.31088080  1.0
  Ni  Ni1882  1  0.06357947  0.39394427  0.31088080  1.0
  Ni  Ni1883  1  0.06357947  0.72727760  0.31088080  1.0
  Ni  Ni1884  1  0.39691280  0.06061093  0.31088080  1.0
  Ni  Ni1885  1  0.39691280  0.39394427  0.31088080  1.0
  Ni  Ni1886  1  0.39691280  0.72727760  0.31088080  1.0
  Ni  Ni1887  1  0.73024613  0.06061093  0.31088080  1.0
  Ni  Ni1888  1  0.73024613  0.39394427  0.31088080  1.0
  Ni  Ni1889  1  0.73024613  0.72727760  0.31088080  1.0
  Ni  Ni1890  1  0.30578587  0.04502373  0.38911920  1.0
  Ni  Ni1891  1  0.30578587  0.37835707  0.38911920  1.0
  Ni  Ni1892  1  0.30578587  0.71169040  0.38911920  1.0
  Ni  Ni1893  1  0.63911920  0.04502373  0.38911920  1.0
  Ni  Ni1894  1  0.63911920  0.37835707  0.38911920  1.0
  Ni  Ni1895  1  0.63911920  0.71169040  0.38911920  1.0
  Ni  Ni1896  1  0.97245253  0.04502373  0.38911920  1.0
  Ni  Ni1897  1  0.97245253  0.37835707  0.38911920  1.0
  Ni  Ni1898  1  0.97245253  0.71169040  0.38911920  1.0
  Ni  Ni1899  1  0.20578587  0.17835707  0.28911920  1.0
  Ni  Ni1900  1  0.20578587  0.51169040  0.28911920  1.0
  Ni  Ni1901  1  0.20578587  0.84502373  0.28911920  1.0
  Ni  Ni1902  1  0.53911920  0.17835707  0.28911920  1.0
  Ni  Ni1903  1  0.53911920  0.51169040  0.28911920  1.0
  Ni  Ni1904  1  0.53911920  0.84502373  0.28911920  1.0
  Ni  Ni1905  1  0.87245253  0.17835707  0.28911920  1.0
  Ni  Ni1906  1  0.87245253  0.51169040  0.28911920  1.0
  Ni  Ni1907  1  0.87245253  0.84502373  0.28911920  1.0
  Ni  Ni1908  1  0.12592827  0.19610320  0.20926160  1.0
  Ni  Ni1909  1  0.12592827  0.52943653  0.20926160  1.0
  Ni  Ni1910  1  0.12592827  0.86276987  0.20926160  1.0
  Ni  Ni1911  1  0.45926160  0.19610320  0.20926160  1.0
  Ni  Ni1912  1  0.45926160  0.52943653  0.20926160  1.0
  Ni  Ni1913  1  0.45926160  0.86276987  0.20926160  1.0
  Ni  Ni1914  1  0.79259493  0.19610320  0.20926160  1.0
  Ni  Ni1915  1  0.79259493  0.52943653  0.20926160  1.0
  Ni  Ni1916  1  0.79259493  0.86276987  0.20926160  1.0
  Ni  Ni1917  1  0.22592827  0.06276987  0.30926160  1.0
  Ni  Ni1918  1  0.22592827  0.39610320  0.30926160  1.0
  Ni  Ni1919  1  0.22592827  0.72943653  0.30926160  1.0
  Ni  Ni1920  1  0.55926160  0.06276987  0.30926160  1.0
  Ni  Ni1921  1  0.55926160  0.39610320  0.30926160  1.0
  Ni  Ni1922  1  0.55926160  0.72943653  0.30926160  1.0
  Ni  Ni1923  1  0.89259493  0.06276987  0.30926160  1.0
  Ni  Ni1924  1  0.89259493  0.39610320  0.30926160  1.0
  Ni  Ni1925  1  0.89259493  0.72943653  0.30926160  1.0
  Ni  Ni1926  1  0.23480133  0.24718267  0.23750000  1.0
  Ni  Ni1927  1  0.23480133  0.58051600  0.23750000  1.0
  Ni  Ni1928  1  0.23480133  0.91384933  0.23750000  1.0
  Ni  Ni1929  1  0.56813467  0.24718267  0.23750000  1.0
  Ni  Ni1930  1  0.56813467  0.58051600  0.23750000  1.0
  Ni  Ni1931  1  0.56813467  0.91384933  0.23750000  1.0
  Ni  Ni1932  1  0.90146800  0.24718267  0.23750000  1.0
  Ni  Ni1933  1  0.90146800  0.58051600  0.23750000  1.0
  Ni  Ni1934  1  0.90146800  0.91384933  0.23750000  1.0
  Ni  Ni1935  1  0.00146800  0.11384933  0.33750000  1.0
  Ni  Ni1936  1  0.00146800  0.44718267  0.33750000  1.0
  Ni  Ni1937  1  0.00146800  0.78051600  0.33750000  1.0
  Ni  Ni1938  1  0.33480133  0.11384933  0.33750000  1.0
  Ni  Ni1939  1  0.33480133  0.44718267  0.33750000  1.0
  Ni  Ni1940  1  0.33480133  0.78051600  0.33750000  1.0
  Ni  Ni1941  1  0.66813467  0.11384933  0.33750000  1.0
  Ni  Ni1942  1  0.66813467  0.44718267  0.33750000  1.0
  Ni  Ni1943  1  0.66813467  0.78051600  0.33750000  1.0
  Ni  Ni1944  1  0.28561093  0.01007120  0.28830960  1.0
  Ni  Ni1945  1  0.28561093  0.34340453  0.28830960  1.0
  Ni  Ni1946  1  0.28561093  0.67673787  0.28830960  1.0
  Ni  Ni1947  1  0.61894427  0.01007120  0.28830960  1.0
  Ni  Ni1948  1  0.61894427  0.34340453  0.28830960  1.0
  Ni  Ni1949  1  0.61894427  0.67673787  0.28830960  1.0
  Ni  Ni1950  1  0.95227760  0.01007120  0.28830960  1.0
  Ni  Ni1951  1  0.95227760  0.34340453  0.28830960  1.0
  Ni  Ni1952  1  0.95227760  0.67673787  0.28830960  1.0
  Ni  Ni1953  1  0.05227760  0.21007120  0.38830960  1.0
  Ni  Ni1954  1  0.05227760  0.54340453  0.38830960  1.0
  Ni  Ni1955  1  0.05227760  0.87673787  0.38830960  1.0
  Ni  Ni1956  1  0.38561093  0.21007120  0.38830960  1.0
  Ni  Ni1957  1  0.38561093  0.54340453  0.38830960  1.0
  Ni  Ni1958  1  0.38561093  0.87673787  0.38830960  1.0
  Ni  Ni1959  1  0.71894427  0.21007120  0.38830960  1.0
  Ni  Ni1960  1  0.71894427  0.54340453  0.38830960  1.0
  Ni  Ni1961  1  0.71894427  0.87673787  0.38830960  1.0
  Ni  Ni1962  1  0.11223013  0.16330960  0.36492880  1.0
  Ni  Ni1963  1  0.11223013  0.49664293  0.36492880  1.0
  Ni  Ni1964  1  0.11223013  0.82997627  0.36492880  1.0
  Ni  Ni1965  1  0.44556347  0.16330960  0.36492880  1.0
  Ni  Ni1966  1  0.44556347  0.49664293  0.36492880  1.0
  Ni  Ni1967  1  0.44556347  0.82997627  0.36492880  1.0
  Ni  Ni1968  1  0.77889680  0.16330960  0.36492880  1.0
  Ni  Ni1969  1  0.77889680  0.49664293  0.36492880  1.0
  Ni  Ni1970  1  0.77889680  0.82997627  0.36492880  1.0
  Ni  Ni1971  1  0.01223013  0.29664293  0.26492880  1.0
  Ni  Ni1972  1  0.01223013  0.62997627  0.26492880  1.0
  Ni  Ni1973  1  0.01223013  0.96330960  0.26492880  1.0
  Ni  Ni1974  1  0.34556347  0.29664293  0.26492880  1.0
  Ni  Ni1975  1  0.34556347  0.62997627  0.26492880  1.0
  Ni  Ni1976  1  0.34556347  0.96330960  0.26492880  1.0
  Ni  Ni1977  1  0.67889680  0.29664293  0.26492880  1.0
  Ni  Ni1978  1  0.67889680  0.62997627  0.26492880  1.0
  Ni  Ni1979  1  0.67889680  0.96330960  0.26492880  1.0
  Ni  Ni1980  1  0.03318213  0.17727760  0.28588080  1.0
  Ni  Ni1981  1  0.03318213  0.51061093  0.28588080  1.0
  Ni  Ni1982  1  0.03318213  0.84394427  0.28588080  1.0
  Ni  Ni1983  1  0.36651547  0.17727760  0.28588080  1.0
  Ni  Ni1984  1  0.36651547  0.51061093  0.28588080  1.0
  Ni  Ni1985  1  0.36651547  0.84394427  0.28588080  1.0
  Ni  Ni1986  1  0.69984880  0.17727760  0.28588080  1.0
  Ni  Ni1987  1  0.69984880  0.51061093  0.28588080  1.0
  Ni  Ni1988  1  0.69984880  0.84394427  0.28588080  1.0
  Ni  Ni1989  1  0.13318213  0.04394427  0.38588080  1.0
  Ni  Ni1990  1  0.13318213  0.37727760  0.38588080  1.0
  Ni  Ni1991  1  0.13318213  0.71061093  0.38588080  1.0
  Ni  Ni1992  1  0.46651547  0.04394427  0.38588080  1.0
  Ni  Ni1993  1  0.46651547  0.37727760  0.38588080  1.0
  Ni  Ni1994  1  0.46651547  0.71061093  0.38588080  1.0
  Ni  Ni1995  1  0.79984880  0.04394427  0.38588080  1.0
  Ni  Ni1996  1  0.79984880  0.37727760  0.38588080  1.0
  Ni  Ni1997  1  0.79984880  0.71061093  0.38588080  1.0
  Ni  Ni1998  1  0.20872187  0.02835707  0.21411920  1.0
  Ni  Ni1999  1  0.20872187  0.36169040  0.21411920  1.0
  Ni  Ni2000  1  0.20872187  0.69502373  0.21411920  1.0
  Ni  Ni2001  1  0.54205520  0.02835707  0.21411920  1.0
  Ni  Ni2002  1  0.54205520  0.36169040  0.21411920  1.0
  Ni  Ni2003  1  0.54205520  0.69502373  0.21411920  1.0
  Ni  Ni2004  1  0.87538853  0.02835707  0.21411920  1.0
  Ni  Ni2005  1  0.87538853  0.36169040  0.21411920  1.0
  Ni  Ni2006  1  0.87538853  0.69502373  0.21411920  1.0
  Ni  Ni2007  1  0.30872187  0.22835707  0.31411920  1.0
  Ni  Ni2008  1  0.30872187  0.56169040  0.31411920  1.0
  Ni  Ni2009  1  0.30872187  0.89502373  0.31411920  1.0
  Ni  Ni2010  1  0.64205520  0.22835707  0.31411920  1.0
  Ni  Ni2011  1  0.64205520  0.56169040  0.31411920  1.0
  Ni  Ni2012  1  0.64205520  0.89502373  0.31411920  1.0
  Ni  Ni2013  1  0.97538853  0.22835707  0.31411920  1.0
  Ni  Ni2014  1  0.97538853  0.56169040  0.31411920  1.0
  Ni  Ni2015  1  0.97538853  0.89502373  0.31411920  1.0
