# generated using pymatgen
data_Ga4Ni3
_symmetry_space_group_name_H-M   'P 1'
_cell_length_a   48.70402166
_cell_length_b   57.11052769
_cell_length_c   34.43894399
_cell_angle_alpha   95.76818118
_cell_angle_beta   90.00000000
_cell_angle_gamma   90.00000000
_symmetry_Int_Tables_number   1
_chemical_formula_structural   Ga4Ni3
_chemical_formula_sum   'Ga1728 Ni1296'
_cell_volume   95307.32129944
_cell_formula_units_Z   432
loop_
 _symmetry_equiv_pos_site_id
 _symmetry_equiv_pos_as_xyz
  1  'x, y, z'
loop_
 _atom_site_type_symbol
 _atom_site_label
 _atom_site_symmetry_multiplicity
 _atom_site_fract_x
 _atom_site_fract_y
 _atom_site_fract_z
 _atom_site_occupancy
  Ga  Ga0  1  0.00000000  0.26938762  0.06394571  1.0
  Ga  Ga1  1  0.00000000  0.60272095  0.06394571  1.0
  Ga  Ga2  1  0.00000000  0.93605429  0.06394571  1.0
  Ga  Ga3  1  0.33333333  0.26938762  0.06394571  1.0
  Ga  Ga4  1  0.33333333  0.60272095  0.06394571  1.0
  Ga  Ga5  1  0.33333333  0.93605429  0.06394571  1.0
  Ga  Ga6  1  0.66666667  0.26938762  0.06394571  1.0
  Ga  Ga7  1  0.66666667  0.60272095  0.06394571  1.0
  Ga  Ga8  1  0.66666667  0.93605429  0.06394571  1.0
  Ga  Ga9  1  0.16666667  0.03129238  0.13537429  1.0
  Ga  Ga10  1  0.16666667  0.36462571  0.13537429  1.0
  Ga  Ga11  1  0.16666667  0.69795905  0.13537429  1.0
  Ga  Ga12  1  0.50000000  0.03129238  0.13537429  1.0
  Ga  Ga13  1  0.50000000  0.36462571  0.13537429  1.0
  Ga  Ga14  1  0.50000000  0.69795905  0.13537429  1.0
  Ga  Ga15  1  0.83333333  0.03129238  0.13537429  1.0
  Ga  Ga16  1  0.83333333  0.36462571  0.13537429  1.0
  Ga  Ga17  1  0.83333333  0.69795905  0.13537429  1.0
  Ga  Ga18  1  0.08333333  0.31700667  0.09966000  1.0
  Ga  Ga19  1  0.08333333  0.65034000  0.09966000  1.0
  Ga  Ga20  1  0.08333333  0.98367333  0.09966000  1.0
  Ga  Ga21  1  0.41666667  0.31700667  0.09966000  1.0
  Ga  Ga22  1  0.41666667  0.65034000  0.09966000  1.0
  Ga  Ga23  1  0.41666667  0.98367333  0.09966000  1.0
  Ga  Ga24  1  0.75000000  0.31700667  0.09966000  1.0
  Ga  Ga25  1  0.75000000  0.65034000  0.09966000  1.0
  Ga  Ga26  1  0.75000000  0.98367333  0.09966000  1.0
  Ga  Ga27  1  0.25000000  0.22176857  0.02823143  1.0
  Ga  Ga28  1  0.25000000  0.55510190  0.02823143  1.0
  Ga  Ga29  1  0.25000000  0.88843524  0.02823143  1.0
  Ga  Ga30  1  0.58333333  0.22176857  0.02823143  1.0
  Ga  Ga31  1  0.58333333  0.55510190  0.02823143  1.0
  Ga  Ga32  1  0.58333333  0.88843524  0.02823143  1.0
  Ga  Ga33  1  0.91666667  0.22176857  0.02823143  1.0
  Ga  Ga34  1  0.91666667  0.55510190  0.02823143  1.0
  Ga  Ga35  1  0.91666667  0.88843524  0.02823143  1.0
  Ga  Ga36  1  0.00000000  0.10272095  0.06394571  1.0
  Ga  Ga37  1  0.00000000  0.43605429  0.06394571  1.0
  Ga  Ga38  1  0.00000000  0.76938762  0.06394571  1.0
  Ga  Ga39  1  0.33333333  0.10272095  0.06394571  1.0
  Ga  Ga40  1  0.33333333  0.43605429  0.06394571  1.0
  Ga  Ga41  1  0.33333333  0.76938762  0.06394571  1.0
  Ga  Ga42  1  0.66666667  0.10272095  0.06394571  1.0
  Ga  Ga43  1  0.66666667  0.43605429  0.06394571  1.0
  Ga  Ga44  1  0.66666667  0.76938762  0.06394571  1.0
  Ga  Ga45  1  0.16666667  0.19795905  0.13537429  1.0
  Ga  Ga46  1  0.16666667  0.53129238  0.13537429  1.0
  Ga  Ga47  1  0.16666667  0.86462571  0.13537429  1.0
  Ga  Ga48  1  0.50000000  0.19795905  0.13537429  1.0
  Ga  Ga49  1  0.50000000  0.53129238  0.13537429  1.0
  Ga  Ga50  1  0.50000000  0.86462571  0.13537429  1.0
  Ga  Ga51  1  0.83333333  0.19795905  0.13537429  1.0
  Ga  Ga52  1  0.83333333  0.53129238  0.13537429  1.0
  Ga  Ga53  1  0.83333333  0.86462571  0.13537429  1.0
  Ga  Ga54  1  0.00000000  0.19795905  0.13537429  1.0
  Ga  Ga55  1  0.00000000  0.53129238  0.13537429  1.0
  Ga  Ga56  1  0.00000000  0.86462571  0.13537429  1.0
  Ga  Ga57  1  0.33333333  0.19795905  0.13537429  1.0
  Ga  Ga58  1  0.33333333  0.53129238  0.13537429  1.0
  Ga  Ga59  1  0.33333333  0.86462571  0.13537429  1.0
  Ga  Ga60  1  0.66666667  0.19795905  0.13537429  1.0
  Ga  Ga61  1  0.66666667  0.53129238  0.13537429  1.0
  Ga  Ga62  1  0.66666667  0.86462571  0.13537429  1.0
  Ga  Ga63  1  0.16666667  0.10272095  0.06394571  1.0
  Ga  Ga64  1  0.16666667  0.43605429  0.06394571  1.0
  Ga  Ga65  1  0.16666667  0.76938762  0.06394571  1.0
  Ga  Ga66  1  0.50000000  0.10272095  0.06394571  1.0
  Ga  Ga67  1  0.50000000  0.43605429  0.06394571  1.0
  Ga  Ga68  1  0.50000000  0.76938762  0.06394571  1.0
  Ga  Ga69  1  0.83333333  0.10272095  0.06394571  1.0
  Ga  Ga70  1  0.83333333  0.43605429  0.06394571  1.0
  Ga  Ga71  1  0.83333333  0.76938762  0.06394571  1.0
  Ga  Ga72  1  0.25000000  0.05510190  0.02823143  1.0
  Ga  Ga73  1  0.25000000  0.38843524  0.02823143  1.0
  Ga  Ga74  1  0.25000000  0.72176857  0.02823143  1.0
  Ga  Ga75  1  0.58333333  0.05510190  0.02823143  1.0
  Ga  Ga76  1  0.58333333  0.38843524  0.02823143  1.0
  Ga  Ga77  1  0.58333333  0.72176857  0.02823143  1.0
  Ga  Ga78  1  0.91666667  0.05510190  0.02823143  1.0
  Ga  Ga79  1  0.91666667  0.38843524  0.02823143  1.0
  Ga  Ga80  1  0.91666667  0.72176857  0.02823143  1.0
  Ga  Ga81  1  0.08333333  0.15034000  0.09966000  1.0
  Ga  Ga82  1  0.08333333  0.48367333  0.09966000  1.0
  Ga  Ga83  1  0.08333333  0.81700667  0.09966000  1.0
  Ga  Ga84  1  0.41666667  0.15034000  0.09966000  1.0
  Ga  Ga85  1  0.41666667  0.48367333  0.09966000  1.0
  Ga  Ga86  1  0.41666667  0.81700667  0.09966000  1.0
  Ga  Ga87  1  0.75000000  0.15034000  0.09966000  1.0
  Ga  Ga88  1  0.75000000  0.48367333  0.09966000  1.0
  Ga  Ga89  1  0.75000000  0.81700667  0.09966000  1.0
  Ga  Ga90  1  0.00000000  0.03129238  0.13537429  1.0
  Ga  Ga91  1  0.00000000  0.36462571  0.13537429  1.0
  Ga  Ga92  1  0.00000000  0.69795905  0.13537429  1.0
  Ga  Ga93  1  0.33333333  0.03129238  0.13537429  1.0
  Ga  Ga94  1  0.33333333  0.36462571  0.13537429  1.0
  Ga  Ga95  1  0.33333333  0.69795905  0.13537429  1.0
  Ga  Ga96  1  0.66666667  0.03129238  0.13537429  1.0
  Ga  Ga97  1  0.66666667  0.36462571  0.13537429  1.0
  Ga  Ga98  1  0.66666667  0.69795905  0.13537429  1.0
  Ga  Ga99  1  0.16666667  0.26938762  0.06394571  1.0
  Ga  Ga100  1  0.16666667  0.60272095  0.06394571  1.0
  Ga  Ga101  1  0.16666667  0.93605429  0.06394571  1.0
  Ga  Ga102  1  0.50000000  0.26938762  0.06394571  1.0
  Ga  Ga103  1  0.50000000  0.60272095  0.06394571  1.0
  Ga  Ga104  1  0.50000000  0.93605429  0.06394571  1.0
  Ga  Ga105  1  0.83333333  0.26938762  0.06394571  1.0
  Ga  Ga106  1  0.83333333  0.60272095  0.06394571  1.0
  Ga  Ga107  1  0.83333333  0.93605429  0.06394571  1.0
  Ga  Ga108  1  0.08333333  0.05510190  0.02823143  1.0
  Ga  Ga109  1  0.08333333  0.38843524  0.02823143  1.0
  Ga  Ga110  1  0.08333333  0.72176857  0.02823143  1.0
  Ga  Ga111  1  0.41666667  0.05510190  0.02823143  1.0
  Ga  Ga112  1  0.41666667  0.38843524  0.02823143  1.0
  Ga  Ga113  1  0.41666667  0.72176857  0.02823143  1.0
  Ga  Ga114  1  0.75000000  0.05510190  0.02823143  1.0
  Ga  Ga115  1  0.75000000  0.38843524  0.02823143  1.0
  Ga  Ga116  1  0.75000000  0.72176857  0.02823143  1.0
  Ga  Ga117  1  0.25000000  0.15034000  0.09966000  1.0
  Ga  Ga118  1  0.25000000  0.48367333  0.09966000  1.0
  Ga  Ga119  1  0.25000000  0.81700667  0.09966000  1.0
  Ga  Ga120  1  0.58333333  0.15034000  0.09966000  1.0
  Ga  Ga121  1  0.58333333  0.48367333  0.09966000  1.0
  Ga  Ga122  1  0.58333333  0.81700667  0.09966000  1.0
  Ga  Ga123  1  0.91666667  0.15034000  0.09966000  1.0
  Ga  Ga124  1  0.91666667  0.48367333  0.09966000  1.0
  Ga  Ga125  1  0.91666667  0.81700667  0.09966000  1.0
  Ga  Ga126  1  0.25000000  0.31700667  0.09966000  1.0
  Ga  Ga127  1  0.25000000  0.65034000  0.09966000  1.0
  Ga  Ga128  1  0.25000000  0.98367333  0.09966000  1.0
  Ga  Ga129  1  0.58333333  0.31700667  0.09966000  1.0
  Ga  Ga130  1  0.58333333  0.65034000  0.09966000  1.0
  Ga  Ga131  1  0.58333333  0.98367333  0.09966000  1.0
  Ga  Ga132  1  0.91666667  0.31700667  0.09966000  1.0
  Ga  Ga133  1  0.91666667  0.65034000  0.09966000  1.0
  Ga  Ga134  1  0.91666667  0.98367333  0.09966000  1.0
  Ga  Ga135  1  0.08333333  0.22176857  0.02823143  1.0
  Ga  Ga136  1  0.08333333  0.55510190  0.02823143  1.0
  Ga  Ga137  1  0.08333333  0.88843524  0.02823143  1.0
  Ga  Ga138  1  0.41666667  0.22176857  0.02823143  1.0
  Ga  Ga139  1  0.41666667  0.55510190  0.02823143  1.0
  Ga  Ga140  1  0.41666667  0.88843524  0.02823143  1.0
  Ga  Ga141  1  0.75000000  0.22176857  0.02823143  1.0
  Ga  Ga142  1  0.75000000  0.55510190  0.02823143  1.0
  Ga  Ga143  1  0.75000000  0.88843524  0.02823143  1.0
  Ga  Ga144  1  0.12294942  0.04261126  0.08443932  1.0
  Ga  Ga145  1  0.12294942  0.37594460  0.08443932  1.0
  Ga  Ga146  1  0.12294942  0.70927793  0.08443932  1.0
  Ga  Ga147  1  0.45628275  0.04261126  0.08443932  1.0
  Ga  Ga148  1  0.45628275  0.37594460  0.08443932  1.0
  Ga  Ga149  1  0.45628275  0.70927793  0.08443932  1.0
  Ga  Ga150  1  0.78961608  0.04261126  0.08443932  1.0
  Ga  Ga151  1  0.78961608  0.37594460  0.08443932  1.0
  Ga  Ga152  1  0.78961608  0.70927793  0.08443932  1.0
  Ga  Ga153  1  0.28961608  0.28070650  0.01301075  1.0
  Ga  Ga154  1  0.28961608  0.61403983  0.01301075  1.0
  Ga  Ga155  1  0.28961608  0.94737317  0.01301075  1.0
  Ga  Ga156  1  0.62294942  0.28070650  0.01301075  1.0
  Ga  Ga157  1  0.62294942  0.61403983  0.01301075  1.0
  Ga  Ga158  1  0.62294942  0.94737317  0.01301075  1.0
  Ga  Ga159  1  0.95628275  0.28070650  0.01301075  1.0
  Ga  Ga160  1  0.95628275  0.61403983  0.01301075  1.0
  Ga  Ga161  1  0.95628275  0.94737317  0.01301075  1.0
  Ga  Ga162  1  0.04166667  0.33125495  0.04784621  1.0
  Ga  Ga163  1  0.04166667  0.66458829  0.04784621  1.0
  Ga  Ga164  1  0.04166667  0.99792162  0.04784621  1.0
  Ga  Ga165  1  0.37500000  0.33125495  0.04784621  1.0
  Ga  Ga166  1  0.37500000  0.66458829  0.04784621  1.0
  Ga  Ga167  1  0.37500000  0.99792162  0.04784621  1.0
  Ga  Ga168  1  0.70833333  0.33125495  0.04784621  1.0
  Ga  Ga169  1  0.70833333  0.66458829  0.04784621  1.0
  Ga  Ga170  1  0.70833333  0.99792162  0.04784621  1.0
  Ga  Ga171  1  0.20833333  0.09315971  0.11927479  1.0
  Ga  Ga172  1  0.20833333  0.42649305  0.11927479  1.0
  Ga  Ga173  1  0.20833333  0.75982638  0.11927479  1.0
  Ga  Ga174  1  0.54166667  0.09315971  0.11927479  1.0
  Ga  Ga175  1  0.54166667  0.42649305  0.11927479  1.0
  Ga  Ga176  1  0.54166667  0.75982638  0.11927479  1.0
  Ga  Ga177  1  0.87500000  0.09315971  0.11927479  1.0
  Ga  Ga178  1  0.87500000  0.42649305  0.11927479  1.0
  Ga  Ga179  1  0.87500000  0.75982638  0.11927479  1.0
  Ga  Ga180  1  0.29166667  0.11228219  0.00861664  1.0
  Ga  Ga181  1  0.29166667  0.44561552  0.00861664  1.0
  Ga  Ga182  1  0.29166667  0.77894886  0.00861664  1.0
  Ga  Ga183  1  0.62500000  0.11228219  0.00861664  1.0
  Ga  Ga184  1  0.62500000  0.44561552  0.00861664  1.0
  Ga  Ga185  1  0.62500000  0.77894886  0.00861664  1.0
  Ga  Ga186  1  0.95833333  0.11228219  0.00861664  1.0
  Ga  Ga187  1  0.95833333  0.44561552  0.00861664  1.0
  Ga  Ga188  1  0.95833333  0.77894886  0.00861664  1.0
  Ga  Ga189  1  0.12500000  0.20752029  0.08004521  1.0
  Ga  Ga190  1  0.12500000  0.54085362  0.08004521  1.0
  Ga  Ga191  1  0.12500000  0.87418695  0.08004521  1.0
  Ga  Ga192  1  0.45833333  0.20752029  0.08004521  1.0
  Ga  Ga193  1  0.45833333  0.54085362  0.08004521  1.0
  Ga  Ga194  1  0.45833333  0.87418695  0.08004521  1.0
  Ga  Ga195  1  0.79166667  0.20752029  0.08004521  1.0
  Ga  Ga196  1  0.79166667  0.54085362  0.08004521  1.0
  Ga  Ga197  1  0.79166667  0.87418695  0.08004521  1.0
  Ga  Ga198  1  0.29371725  0.32832555  0.04872504  1.0
  Ga  Ga199  1  0.29371725  0.66165888  0.04872504  1.0
  Ga  Ga200  1  0.29371725  0.99499221  0.04872504  1.0
  Ga  Ga201  1  0.62705058  0.32832555  0.04872504  1.0
  Ga  Ga202  1  0.62705058  0.66165888  0.04872504  1.0
  Ga  Ga203  1  0.62705058  0.99499221  0.04872504  1.0
  Ga  Ga204  1  0.96038392  0.32832555  0.04872504  1.0
  Ga  Ga205  1  0.96038392  0.66165888  0.04872504  1.0
  Ga  Ga206  1  0.96038392  0.99499221  0.04872504  1.0
  Ga  Ga207  1  0.12705058  0.09023031  0.12015361  1.0
  Ga  Ga208  1  0.12705058  0.42356364  0.12015361  1.0
  Ga  Ga209  1  0.12705058  0.75689698  0.12015361  1.0
  Ga  Ga210  1  0.46038392  0.09023031  0.12015361  1.0
  Ga  Ga211  1  0.46038392  0.42356364  0.12015361  1.0
  Ga  Ga212  1  0.46038392  0.75689698  0.12015361  1.0
  Ga  Ga213  1  0.79371725  0.09023031  0.12015361  1.0
  Ga  Ga214  1  0.79371725  0.42356364  0.12015361  1.0
  Ga  Ga215  1  0.79371725  0.75689698  0.12015361  1.0
  Ga  Ga216  1  0.28961608  0.09140207  0.11488068  1.0
  Ga  Ga217  1  0.28961608  0.42473540  0.11488068  1.0
  Ga  Ga218  1  0.28961608  0.75806874  0.11488068  1.0
  Ga  Ga219  1  0.62294942  0.09140207  0.11488068  1.0
  Ga  Ga220  1  0.62294942  0.42473540  0.11488068  1.0
  Ga  Ga221  1  0.62294942  0.75806874  0.11488068  1.0
  Ga  Ga222  1  0.95628275  0.09140207  0.11488068  1.0
  Ga  Ga223  1  0.95628275  0.42473540  0.11488068  1.0
  Ga  Ga224  1  0.95628275  0.75806874  0.11488068  1.0
  Ga  Ga225  1  0.12294942  0.32949731  0.04345211  1.0
  Ga  Ga226  1  0.12294942  0.66283064  0.04345211  1.0
  Ga  Ga227  1  0.12294942  0.99616398  0.04345211  1.0
  Ga  Ga228  1  0.45628275  0.32949731  0.04345211  1.0
  Ga  Ga229  1  0.45628275  0.66283064  0.04345211  1.0
  Ga  Ga230  1  0.45628275  0.99616398  0.04345211  1.0
  Ga  Ga231  1  0.78961608  0.32949731  0.04345211  1.0
  Ga  Ga232  1  0.78961608  0.66283064  0.04345211  1.0
  Ga  Ga233  1  0.78961608  0.99616398  0.04345211  1.0
  Ga  Ga234  1  0.33128275  0.05451602  0.03086789  1.0
  Ga  Ga235  1  0.33128275  0.38784936  0.03086789  1.0
  Ga  Ga236  1  0.33128275  0.72118269  0.03086789  1.0
  Ga  Ga237  1  0.66461608  0.05451602  0.03086789  1.0
  Ga  Ga238  1  0.66461608  0.38784936  0.03086789  1.0
  Ga  Ga239  1  0.66461608  0.72118269  0.03086789  1.0
  Ga  Ga240  1  0.99794942  0.05451602  0.03086789  1.0
  Ga  Ga241  1  0.99794942  0.38784936  0.03086789  1.0
  Ga  Ga242  1  0.99794942  0.72118269  0.03086789  1.0
  Ga  Ga243  1  0.16461608  0.14975412  0.10229646  1.0
  Ga  Ga244  1  0.16461608  0.48308745  0.10229646  1.0
  Ga  Ga245  1  0.16461608  0.81642079  0.10229646  1.0
  Ga  Ga246  1  0.49794942  0.14975412  0.10229646  1.0
  Ga  Ga247  1  0.49794942  0.48308745  0.10229646  1.0
  Ga  Ga248  1  0.49794942  0.81642079  0.10229646  1.0
  Ga  Ga249  1  0.83128275  0.14975412  0.10229646  1.0
  Ga  Ga250  1  0.83128275  0.48308745  0.10229646  1.0
  Ga  Ga251  1  0.83128275  0.81642079  0.10229646  1.0
  Ga  Ga252  1  0.25205058  0.10213507  0.06658218  1.0
  Ga  Ga253  1  0.25205058  0.43546840  0.06658218  1.0
  Ga  Ga254  1  0.25205058  0.76880174  0.06658218  1.0
  Ga  Ga255  1  0.58538392  0.10213507  0.06658218  1.0
  Ga  Ga256  1  0.58538392  0.43546840  0.06658218  1.0
  Ga  Ga257  1  0.58538392  0.76880174  0.06658218  1.0
  Ga  Ga258  1  0.91871725  0.10213507  0.06658218  1.0
  Ga  Ga259  1  0.91871725  0.43546840  0.06658218  1.0
  Ga  Ga260  1  0.91871725  0.76880174  0.06658218  1.0
  Ga  Ga261  1  0.08538392  0.19737317  0.13801075  1.0
  Ga  Ga262  1  0.08538392  0.53070650  0.13801075  1.0
  Ga  Ga263  1  0.08538392  0.86403983  0.13801075  1.0
  Ga  Ga264  1  0.41871725  0.19737317  0.13801075  1.0
  Ga  Ga265  1  0.41871725  0.53070650  0.13801075  1.0
  Ga  Ga266  1  0.41871725  0.86403983  0.13801075  1.0
  Ga  Ga267  1  0.75205058  0.19737317  0.13801075  1.0
  Ga  Ga268  1  0.75205058  0.53070650  0.13801075  1.0
  Ga  Ga269  1  0.75205058  0.86403983  0.13801075  1.0
  Ga  Ga270  1  0.04166667  0.04085362  0.08004521  1.0
  Ga  Ga271  1  0.04166667  0.37418695  0.08004521  1.0
  Ga  Ga272  1  0.04166667  0.70752029  0.08004521  1.0
  Ga  Ga273  1  0.37500000  0.04085362  0.08004521  1.0
  Ga  Ga274  1  0.37500000  0.37418695  0.08004521  1.0
  Ga  Ga275  1  0.37500000  0.70752029  0.08004521  1.0
  Ga  Ga276  1  0.70833333  0.04085362  0.08004521  1.0
  Ga  Ga277  1  0.70833333  0.37418695  0.08004521  1.0
  Ga  Ga278  1  0.70833333  0.70752029  0.08004521  1.0
  Ga  Ga279  1  0.20833333  0.27894886  0.00861664  1.0
  Ga  Ga280  1  0.20833333  0.61228219  0.00861664  1.0
  Ga  Ga281  1  0.20833333  0.94561552  0.00861664  1.0
  Ga  Ga282  1  0.54166667  0.27894886  0.00861664  1.0
  Ga  Ga283  1  0.54166667  0.61228219  0.00861664  1.0
  Ga  Ga284  1  0.54166667  0.94561552  0.00861664  1.0
  Ga  Ga285  1  0.87500000  0.27894886  0.00861664  1.0
  Ga  Ga286  1  0.87500000  0.61228219  0.00861664  1.0
  Ga  Ga287  1  0.87500000  0.94561552  0.00861664  1.0
  Ga  Ga288  1  0.33128275  0.31759255  0.09702354  1.0
  Ga  Ga289  1  0.33128275  0.65092588  0.09702354  1.0
  Ga  Ga290  1  0.33128275  0.98425921  0.09702354  1.0
  Ga  Ga291  1  0.66461608  0.31759255  0.09702354  1.0
  Ga  Ga292  1  0.66461608  0.65092588  0.09702354  1.0
  Ga  Ga293  1  0.66461608  0.98425921  0.09702354  1.0
  Ga  Ga294  1  0.99794942  0.31759255  0.09702354  1.0
  Ga  Ga295  1  0.99794942  0.65092588  0.09702354  1.0
  Ga  Ga296  1  0.99794942  0.98425921  0.09702354  1.0
  Ga  Ga297  1  0.16461608  0.22235445  0.02559496  1.0
  Ga  Ga298  1  0.16461608  0.55568779  0.02559496  1.0
  Ga  Ga299  1  0.16461608  0.88902112  0.02559496  1.0
  Ga  Ga300  1  0.49794942  0.22235445  0.02559496  1.0
  Ga  Ga301  1  0.49794942  0.55568779  0.02559496  1.0
  Ga  Ga302  1  0.49794942  0.88902112  0.02559496  1.0
  Ga  Ga303  1  0.83128275  0.22235445  0.02559496  1.0
  Ga  Ga304  1  0.83128275  0.55568779  0.02559496  1.0
  Ga  Ga305  1  0.83128275  0.88902112  0.02559496  1.0
  Ga  Ga306  1  0.29166667  0.25982638  0.11927479  1.0
  Ga  Ga307  1  0.29166667  0.59315971  0.11927479  1.0
  Ga  Ga308  1  0.29166667  0.92649305  0.11927479  1.0
  Ga  Ga309  1  0.62500000  0.25982638  0.11927479  1.0
  Ga  Ga310  1  0.62500000  0.59315971  0.11927479  1.0
  Ga  Ga311  1  0.62500000  0.92649305  0.11927479  1.0
  Ga  Ga312  1  0.95833333  0.25982638  0.11927479  1.0
  Ga  Ga313  1  0.95833333  0.59315971  0.11927479  1.0
  Ga  Ga314  1  0.95833333  0.92649305  0.11927479  1.0
  Ga  Ga315  1  0.12500000  0.16458829  0.04784621  1.0
  Ga  Ga316  1  0.12500000  0.49792162  0.04784621  1.0
  Ga  Ga317  1  0.12500000  0.83125495  0.04784621  1.0
  Ga  Ga318  1  0.45833333  0.16458829  0.04784621  1.0
  Ga  Ga319  1  0.45833333  0.49792162  0.04784621  1.0
  Ga  Ga320  1  0.45833333  0.83125495  0.04784621  1.0
  Ga  Ga321  1  0.79166667  0.16458829  0.04784621  1.0
  Ga  Ga322  1  0.79166667  0.49792162  0.04784621  1.0
  Ga  Ga323  1  0.79166667  0.83125495  0.04784621  1.0
  Ga  Ga324  1  0.29371725  0.04378302  0.07916639  1.0
  Ga  Ga325  1  0.29371725  0.37711636  0.07916639  1.0
  Ga  Ga326  1  0.29371725  0.71044969  0.07916639  1.0
  Ga  Ga327  1  0.62705058  0.04378302  0.07916639  1.0
  Ga  Ga328  1  0.62705058  0.37711636  0.07916639  1.0
  Ga  Ga329  1  0.62705058  0.71044969  0.07916639  1.0
  Ga  Ga330  1  0.96038392  0.04378302  0.07916639  1.0
  Ga  Ga331  1  0.96038392  0.37711636  0.07916639  1.0
  Ga  Ga332  1  0.96038392  0.71044969  0.07916639  1.0
  Ga  Ga333  1  0.12705058  0.28187826  0.00773782  1.0
  Ga  Ga334  1  0.12705058  0.61521160  0.00773782  1.0
  Ga  Ga335  1  0.12705058  0.94854493  0.00773782  1.0
  Ga  Ga336  1  0.46038392  0.28187826  0.00773782  1.0
  Ga  Ga337  1  0.46038392  0.61521160  0.00773782  1.0
  Ga  Ga338  1  0.46038392  0.94854493  0.00773782  1.0
  Ga  Ga339  1  0.79371725  0.28187826  0.00773782  1.0
  Ga  Ga340  1  0.79371725  0.61521160  0.00773782  1.0
  Ga  Ga341  1  0.79371725  0.94854493  0.00773782  1.0
  Ga  Ga342  1  0.08538392  0.03187826  0.13273782  1.0
  Ga  Ga343  1  0.08538392  0.36521160  0.13273782  1.0
  Ga  Ga344  1  0.08538392  0.69854493  0.13273782  1.0
  Ga  Ga345  1  0.41871725  0.03187826  0.13273782  1.0
  Ga  Ga346  1  0.41871725  0.36521160  0.13273782  1.0
  Ga  Ga347  1  0.41871725  0.69854493  0.13273782  1.0
  Ga  Ga348  1  0.75205058  0.03187826  0.13273782  1.0
  Ga  Ga349  1  0.75205058  0.36521160  0.13273782  1.0
  Ga  Ga350  1  0.75205058  0.69854493  0.13273782  1.0
  Ga  Ga351  1  0.25205058  0.26997350  0.06130925  1.0
  Ga  Ga352  1  0.25205058  0.60330683  0.06130925  1.0
  Ga  Ga353  1  0.25205058  0.93664017  0.06130925  1.0
  Ga  Ga354  1  0.58538392  0.26997350  0.06130925  1.0
  Ga  Ga355  1  0.58538392  0.60330683  0.06130925  1.0
  Ga  Ga356  1  0.58538392  0.93664017  0.06130925  1.0
  Ga  Ga357  1  0.91871725  0.26997350  0.06130925  1.0
  Ga  Ga358  1  0.91871725  0.60330683  0.06130925  1.0
  Ga  Ga359  1  0.91871725  0.93664017  0.06130925  1.0
  Ga  Ga360  1  0.21038392  0.16283064  0.04345211  1.0
  Ga  Ga361  1  0.21038392  0.49616398  0.04345211  1.0
  Ga  Ga362  1  0.21038392  0.82949731  0.04345211  1.0
  Ga  Ga363  1  0.54371725  0.16283064  0.04345211  1.0
  Ga  Ga364  1  0.54371725  0.49616398  0.04345211  1.0
  Ga  Ga365  1  0.54371725  0.82949731  0.04345211  1.0
  Ga  Ga366  1  0.87705058  0.16283064  0.04345211  1.0
  Ga  Ga367  1  0.87705058  0.49616398  0.04345211  1.0
  Ga  Ga368  1  0.87705058  0.82949731  0.04345211  1.0
  Ga  Ga369  1  0.04371725  0.25806874  0.11488068  1.0
  Ga  Ga370  1  0.04371725  0.59140207  0.11488068  1.0
  Ga  Ga371  1  0.04371725  0.92473540  0.11488068  1.0
  Ga  Ga372  1  0.37705058  0.25806874  0.11488068  1.0
  Ga  Ga373  1  0.37705058  0.59140207  0.11488068  1.0
  Ga  Ga374  1  0.37705058  0.92473540  0.11488068  1.0
  Ga  Ga375  1  0.71038392  0.25806874  0.11488068  1.0
  Ga  Ga376  1  0.71038392  0.59140207  0.11488068  1.0
  Ga  Ga377  1  0.71038392  0.92473540  0.11488068  1.0
  Ga  Ga378  1  0.29166667  0.20752029  0.08004521  1.0
  Ga  Ga379  1  0.29166667  0.54085362  0.08004521  1.0
  Ga  Ga380  1  0.29166667  0.87418695  0.08004521  1.0
  Ga  Ga381  1  0.62500000  0.20752029  0.08004521  1.0
  Ga  Ga382  1  0.62500000  0.54085362  0.08004521  1.0
  Ga  Ga383  1  0.62500000  0.87418695  0.08004521  1.0
  Ga  Ga384  1  0.95833333  0.20752029  0.08004521  1.0
  Ga  Ga385  1  0.95833333  0.54085362  0.08004521  1.0
  Ga  Ga386  1  0.95833333  0.87418695  0.08004521  1.0
  Ga  Ga387  1  0.12500000  0.11228219  0.00861664  1.0
  Ga  Ga388  1  0.12500000  0.44561552  0.00861664  1.0
  Ga  Ga389  1  0.12500000  0.77894886  0.00861664  1.0
  Ga  Ga390  1  0.45833333  0.11228219  0.00861664  1.0
  Ga  Ga391  1  0.45833333  0.44561552  0.00861664  1.0
  Ga  Ga392  1  0.45833333  0.77894886  0.00861664  1.0
  Ga  Ga393  1  0.79166667  0.11228219  0.00861664  1.0
  Ga  Ga394  1  0.79166667  0.44561552  0.00861664  1.0
  Ga  Ga395  1  0.79166667  0.77894886  0.00861664  1.0
  Ga  Ga396  1  0.04166667  0.09315971  0.11927479  1.0
  Ga  Ga397  1  0.04166667  0.42649305  0.11927479  1.0
  Ga  Ga398  1  0.04166667  0.75982638  0.11927479  1.0
  Ga  Ga399  1  0.37500000  0.09315971  0.11927479  1.0
  Ga  Ga400  1  0.37500000  0.42649305  0.11927479  1.0
  Ga  Ga401  1  0.37500000  0.75982638  0.11927479  1.0
  Ga  Ga402  1  0.70833333  0.09315971  0.11927479  1.0
  Ga  Ga403  1  0.70833333  0.42649305  0.11927479  1.0
  Ga  Ga404  1  0.70833333  0.75982638  0.11927479  1.0
  Ga  Ga405  1  0.20833333  0.33125495  0.04784621  1.0
  Ga  Ga406  1  0.20833333  0.66458829  0.04784621  1.0
  Ga  Ga407  1  0.20833333  0.99792162  0.04784621  1.0
  Ga  Ga408  1  0.54166667  0.33125495  0.04784621  1.0
  Ga  Ga409  1  0.54166667  0.66458829  0.04784621  1.0
  Ga  Ga410  1  0.54166667  0.99792162  0.04784621  1.0
  Ga  Ga411  1  0.87500000  0.33125495  0.04784621  1.0
  Ga  Ga412  1  0.87500000  0.66458829  0.04784621  1.0
  Ga  Ga413  1  0.87500000  0.99792162  0.04784621  1.0
  Ga  Ga414  1  0.03961608  0.21044969  0.07916639  1.0
  Ga  Ga415  1  0.03961608  0.54378302  0.07916639  1.0
  Ga  Ga416  1  0.03961608  0.87711636  0.07916639  1.0
  Ga  Ga417  1  0.37294942  0.21044969  0.07916639  1.0
  Ga  Ga418  1  0.37294942  0.54378302  0.07916639  1.0
  Ga  Ga419  1  0.37294942  0.87711636  0.07916639  1.0
  Ga  Ga420  1  0.70628275  0.21044969  0.07916639  1.0
  Ga  Ga421  1  0.70628275  0.54378302  0.07916639  1.0
  Ga  Ga422  1  0.70628275  0.87711636  0.07916639  1.0
  Ga  Ga423  1  0.20628275  0.11521160  0.00773782  1.0
  Ga  Ga424  1  0.20628275  0.44854493  0.00773782  1.0
  Ga  Ga425  1  0.20628275  0.78187826  0.00773782  1.0
  Ga  Ga426  1  0.53961608  0.11521160  0.00773782  1.0
  Ga  Ga427  1  0.53961608  0.44854493  0.00773782  1.0
  Ga  Ga428  1  0.53961608  0.78187826  0.00773782  1.0
  Ga  Ga429  1  0.87294942  0.11521160  0.00773782  1.0
  Ga  Ga430  1  0.87294942  0.44854493  0.00773782  1.0
  Ga  Ga431  1  0.87294942  0.78187826  0.00773782  1.0
  Ga  Ga432  1  0.04371725  0.11403983  0.01301075  1.0
  Ga  Ga433  1  0.04371725  0.44737317  0.01301075  1.0
  Ga  Ga434  1  0.04371725  0.78070650  0.01301075  1.0
  Ga  Ga435  1  0.37705058  0.11403983  0.01301075  1.0
  Ga  Ga436  1  0.37705058  0.44737317  0.01301075  1.0
  Ga  Ga437  1  0.37705058  0.78070650  0.01301075  1.0
  Ga  Ga438  1  0.71038392  0.11403983  0.01301075  1.0
  Ga  Ga439  1  0.71038392  0.44737317  0.01301075  1.0
  Ga  Ga440  1  0.71038392  0.78070650  0.01301075  1.0
  Ga  Ga441  1  0.21038392  0.20927793  0.08443932  1.0
  Ga  Ga442  1  0.21038392  0.54261126  0.08443932  1.0
  Ga  Ga443  1  0.21038392  0.87594460  0.08443932  1.0
  Ga  Ga444  1  0.54371725  0.20927793  0.08443932  1.0
  Ga  Ga445  1  0.54371725  0.54261126  0.08443932  1.0
  Ga  Ga446  1  0.54371725  0.87594460  0.08443932  1.0
  Ga  Ga447  1  0.87705058  0.20927793  0.08443932  1.0
  Ga  Ga448  1  0.87705058  0.54261126  0.08443932  1.0
  Ga  Ga449  1  0.87705058  0.87594460  0.08443932  1.0
  Ga  Ga450  1  0.00205058  0.15092588  0.09702354  1.0
  Ga  Ga451  1  0.00205058  0.48425921  0.09702354  1.0
  Ga  Ga452  1  0.00205058  0.81759255  0.09702354  1.0
  Ga  Ga453  1  0.33538392  0.15092588  0.09702354  1.0
  Ga  Ga454  1  0.33538392  0.48425921  0.09702354  1.0
  Ga  Ga455  1  0.33538392  0.81759255  0.09702354  1.0
  Ga  Ga456  1  0.66871725  0.15092588  0.09702354  1.0
  Ga  Ga457  1  0.66871725  0.48425921  0.09702354  1.0
  Ga  Ga458  1  0.66871725  0.81759255  0.09702354  1.0
  Ga  Ga459  1  0.16871725  0.05568779  0.02559496  1.0
  Ga  Ga460  1  0.16871725  0.38902112  0.02559496  1.0
  Ga  Ga461  1  0.16871725  0.72235445  0.02559496  1.0
  Ga  Ga462  1  0.50205058  0.05568779  0.02559496  1.0
  Ga  Ga463  1  0.50205058  0.38902112  0.02559496  1.0
  Ga  Ga464  1  0.50205058  0.72235445  0.02559496  1.0
  Ga  Ga465  1  0.83538392  0.05568779  0.02559496  1.0
  Ga  Ga466  1  0.83538392  0.38902112  0.02559496  1.0
  Ga  Ga467  1  0.83538392  0.72235445  0.02559496  1.0
  Ga  Ga468  1  0.08128275  0.10330683  0.06130925  1.0
  Ga  Ga469  1  0.08128275  0.43664017  0.06130925  1.0
  Ga  Ga470  1  0.08128275  0.76997350  0.06130925  1.0
  Ga  Ga471  1  0.41461608  0.10330683  0.06130925  1.0
  Ga  Ga472  1  0.41461608  0.43664017  0.06130925  1.0
  Ga  Ga473  1  0.41461608  0.76997350  0.06130925  1.0
  Ga  Ga474  1  0.74794942  0.10330683  0.06130925  1.0
  Ga  Ga475  1  0.74794942  0.43664017  0.06130925  1.0
  Ga  Ga476  1  0.74794942  0.76997350  0.06130925  1.0
  Ga  Ga477  1  0.24794942  0.19854493  0.13273782  1.0
  Ga  Ga478  1  0.24794942  0.53187826  0.13273782  1.0
  Ga  Ga479  1  0.24794942  0.86521160  0.13273782  1.0
  Ga  Ga480  1  0.58128275  0.19854493  0.13273782  1.0
  Ga  Ga481  1  0.58128275  0.53187826  0.13273782  1.0
  Ga  Ga482  1  0.58128275  0.86521160  0.13273782  1.0
  Ga  Ga483  1  0.91461608  0.19854493  0.13273782  1.0
  Ga  Ga484  1  0.91461608  0.53187826  0.13273782  1.0
  Ga  Ga485  1  0.91461608  0.86521160  0.13273782  1.0
  Ga  Ga486  1  0.29166667  0.16458829  0.04784621  1.0
  Ga  Ga487  1  0.29166667  0.49792162  0.04784621  1.0
  Ga  Ga488  1  0.29166667  0.83125495  0.04784621  1.0
  Ga  Ga489  1  0.62500000  0.16458829  0.04784621  1.0
  Ga  Ga490  1  0.62500000  0.49792162  0.04784621  1.0
  Ga  Ga491  1  0.62500000  0.83125495  0.04784621  1.0
  Ga  Ga492  1  0.95833333  0.16458829  0.04784621  1.0
  Ga  Ga493  1  0.95833333  0.49792162  0.04784621  1.0
  Ga  Ga494  1  0.95833333  0.83125495  0.04784621  1.0
  Ga  Ga495  1  0.12500000  0.25982638  0.11927479  1.0
  Ga  Ga496  1  0.12500000  0.59315971  0.11927479  1.0
  Ga  Ga497  1  0.12500000  0.92649305  0.11927479  1.0
  Ga  Ga498  1  0.45833333  0.25982638  0.11927479  1.0
  Ga  Ga499  1  0.45833333  0.59315971  0.11927479  1.0
  Ga  Ga500  1  0.45833333  0.92649305  0.11927479  1.0
  Ga  Ga501  1  0.79166667  0.25982638  0.11927479  1.0
  Ga  Ga502  1  0.79166667  0.59315971  0.11927479  1.0
  Ga  Ga503  1  0.79166667  0.92649305  0.11927479  1.0
  Ga  Ga504  1  0.00205058  0.22118269  0.03086789  1.0
  Ga  Ga505  1  0.00205058  0.55451602  0.03086789  1.0
  Ga  Ga506  1  0.00205058  0.88784936  0.03086789  1.0
  Ga  Ga507  1  0.33538392  0.22118269  0.03086789  1.0
  Ga  Ga508  1  0.33538392  0.55451602  0.03086789  1.0
  Ga  Ga509  1  0.33538392  0.88784936  0.03086789  1.0
  Ga  Ga510  1  0.66871725  0.22118269  0.03086789  1.0
  Ga  Ga511  1  0.66871725  0.55451602  0.03086789  1.0
  Ga  Ga512  1  0.66871725  0.88784936  0.03086789  1.0
  Ga  Ga513  1  0.16871725  0.31642079  0.10229646  1.0
  Ga  Ga514  1  0.16871725  0.64975412  0.10229646  1.0
  Ga  Ga515  1  0.16871725  0.98308745  0.10229646  1.0
  Ga  Ga516  1  0.50205058  0.31642079  0.10229646  1.0
  Ga  Ga517  1  0.50205058  0.64975412  0.10229646  1.0
  Ga  Ga518  1  0.50205058  0.98308745  0.10229646  1.0
  Ga  Ga519  1  0.83538392  0.31642079  0.10229646  1.0
  Ga  Ga520  1  0.83538392  0.64975412  0.10229646  1.0
  Ga  Ga521  1  0.83538392  0.98308745  0.10229646  1.0
  Ga  Ga522  1  0.04166667  0.27894886  0.00861664  1.0
  Ga  Ga523  1  0.04166667  0.61228219  0.00861664  1.0
  Ga  Ga524  1  0.04166667  0.94561552  0.00861664  1.0
  Ga  Ga525  1  0.37500000  0.27894886  0.00861664  1.0
  Ga  Ga526  1  0.37500000  0.61228219  0.00861664  1.0
  Ga  Ga527  1  0.37500000  0.94561552  0.00861664  1.0
  Ga  Ga528  1  0.70833333  0.27894886  0.00861664  1.0
  Ga  Ga529  1  0.70833333  0.61228219  0.00861664  1.0
  Ga  Ga530  1  0.70833333  0.94561552  0.00861664  1.0
  Ga  Ga531  1  0.20833333  0.04085362  0.08004521  1.0
  Ga  Ga532  1  0.20833333  0.37418695  0.08004521  1.0
  Ga  Ga533  1  0.20833333  0.70752029  0.08004521  1.0
  Ga  Ga534  1  0.54166667  0.04085362  0.08004521  1.0
  Ga  Ga535  1  0.54166667  0.37418695  0.08004521  1.0
  Ga  Ga536  1  0.54166667  0.70752029  0.08004521  1.0
  Ga  Ga537  1  0.87500000  0.04085362  0.08004521  1.0
  Ga  Ga538  1  0.87500000  0.37418695  0.08004521  1.0
  Ga  Ga539  1  0.87500000  0.70752029  0.08004521  1.0
  Ga  Ga540  1  0.03961608  0.16165888  0.04872504  1.0
  Ga  Ga541  1  0.03961608  0.49499221  0.04872504  1.0
  Ga  Ga542  1  0.03961608  0.82832555  0.04872504  1.0
  Ga  Ga543  1  0.37294942  0.16165888  0.04872504  1.0
  Ga  Ga544  1  0.37294942  0.49499221  0.04872504  1.0
  Ga  Ga545  1  0.37294942  0.82832555  0.04872504  1.0
  Ga  Ga546  1  0.70628275  0.16165888  0.04872504  1.0
  Ga  Ga547  1  0.70628275  0.49499221  0.04872504  1.0
  Ga  Ga548  1  0.70628275  0.82832555  0.04872504  1.0
  Ga  Ga549  1  0.20628275  0.25689698  0.12015361  1.0
  Ga  Ga550  1  0.20628275  0.59023031  0.12015361  1.0
  Ga  Ga551  1  0.20628275  0.92356364  0.12015361  1.0
  Ga  Ga552  1  0.53961608  0.25689698  0.12015361  1.0
  Ga  Ga553  1  0.53961608  0.59023031  0.12015361  1.0
  Ga  Ga554  1  0.53961608  0.92356364  0.12015361  1.0
  Ga  Ga555  1  0.87294942  0.25689698  0.12015361  1.0
  Ga  Ga556  1  0.87294942  0.59023031  0.12015361  1.0
  Ga  Ga557  1  0.87294942  0.92356364  0.12015361  1.0
  Ga  Ga558  1  0.24794942  0.03070650  0.13801075  1.0
  Ga  Ga559  1  0.24794942  0.36403983  0.13801075  1.0
  Ga  Ga560  1  0.24794942  0.69737317  0.13801075  1.0
  Ga  Ga561  1  0.58128275  0.03070650  0.13801075  1.0
  Ga  Ga562  1  0.58128275  0.36403983  0.13801075  1.0
  Ga  Ga563  1  0.58128275  0.69737317  0.13801075  1.0
  Ga  Ga564  1  0.91461608  0.03070650  0.13801075  1.0
  Ga  Ga565  1  0.91461608  0.36403983  0.13801075  1.0
  Ga  Ga566  1  0.91461608  0.69737317  0.13801075  1.0
  Ga  Ga567  1  0.08128275  0.26880174  0.06658218  1.0
  Ga  Ga568  1  0.08128275  0.60213507  0.06658218  1.0
  Ga  Ga569  1  0.08128275  0.93546840  0.06658218  1.0
  Ga  Ga570  1  0.41461608  0.26880174  0.06658218  1.0
  Ga  Ga571  1  0.41461608  0.60213507  0.06658218  1.0
  Ga  Ga572  1  0.41461608  0.93546840  0.06658218  1.0
  Ga  Ga573  1  0.74794942  0.26880174  0.06658218  1.0
  Ga  Ga574  1  0.74794942  0.60213507  0.06658218  1.0
  Ga  Ga575  1  0.74794942  0.93546840  0.06658218  1.0
  Ga  Ga576  1  0.00000000  0.12653048  0.20680286  1.0
  Ga  Ga577  1  0.00000000  0.45986381  0.20680286  1.0
  Ga  Ga578  1  0.00000000  0.79319714  0.20680286  1.0
  Ga  Ga579  1  0.33333333  0.12653048  0.20680286  1.0
  Ga  Ga580  1  0.33333333  0.45986381  0.20680286  1.0
  Ga  Ga581  1  0.33333333  0.79319714  0.20680286  1.0
  Ga  Ga582  1  0.66666667  0.12653048  0.20680286  1.0
  Ga  Ga583  1  0.66666667  0.45986381  0.20680286  1.0
  Ga  Ga584  1  0.66666667  0.79319714  0.20680286  1.0
  Ga  Ga585  1  0.16666667  0.22176857  0.27823143  1.0
  Ga  Ga586  1  0.16666667  0.55510190  0.27823143  1.0
  Ga  Ga587  1  0.16666667  0.88843524  0.27823143  1.0
  Ga  Ga588  1  0.50000000  0.22176857  0.27823143  1.0
  Ga  Ga589  1  0.50000000  0.55510190  0.27823143  1.0
  Ga  Ga590  1  0.50000000  0.88843524  0.27823143  1.0
  Ga  Ga591  1  0.83333333  0.22176857  0.27823143  1.0
  Ga  Ga592  1  0.83333333  0.55510190  0.27823143  1.0
  Ga  Ga593  1  0.83333333  0.88843524  0.27823143  1.0
  Ga  Ga594  1  0.08333333  0.17414952  0.24251714  1.0
  Ga  Ga595  1  0.08333333  0.50748286  0.24251714  1.0
  Ga  Ga596  1  0.08333333  0.84081619  0.24251714  1.0
  Ga  Ga597  1  0.41666667  0.17414952  0.24251714  1.0
  Ga  Ga598  1  0.41666667  0.50748286  0.24251714  1.0
  Ga  Ga599  1  0.41666667  0.84081619  0.24251714  1.0
  Ga  Ga600  1  0.75000000  0.17414952  0.24251714  1.0
  Ga  Ga601  1  0.75000000  0.50748286  0.24251714  1.0
  Ga  Ga602  1  0.75000000  0.84081619  0.24251714  1.0
  Ga  Ga603  1  0.25000000  0.07891143  0.17108857  1.0
  Ga  Ga604  1  0.25000000  0.41224476  0.17108857  1.0
  Ga  Ga605  1  0.25000000  0.74557810  0.17108857  1.0
  Ga  Ga606  1  0.58333333  0.07891143  0.17108857  1.0
  Ga  Ga607  1  0.58333333  0.41224476  0.17108857  1.0
  Ga  Ga608  1  0.58333333  0.74557810  0.17108857  1.0
  Ga  Ga609  1  0.91666667  0.07891143  0.17108857  1.0
  Ga  Ga610  1  0.91666667  0.41224476  0.17108857  1.0
  Ga  Ga611  1  0.91666667  0.74557810  0.17108857  1.0
  Ga  Ga612  1  0.00000000  0.29319714  0.20680286  1.0
  Ga  Ga613  1  0.00000000  0.62653048  0.20680286  1.0
  Ga  Ga614  1  0.00000000  0.95986381  0.20680286  1.0
  Ga  Ga615  1  0.33333333  0.29319714  0.20680286  1.0
  Ga  Ga616  1  0.33333333  0.62653048  0.20680286  1.0
  Ga  Ga617  1  0.33333333  0.95986381  0.20680286  1.0
  Ga  Ga618  1  0.66666667  0.29319714  0.20680286  1.0
  Ga  Ga619  1  0.66666667  0.62653048  0.20680286  1.0
  Ga  Ga620  1  0.66666667  0.95986381  0.20680286  1.0
  Ga  Ga621  1  0.16666667  0.05510190  0.27823143  1.0
  Ga  Ga622  1  0.16666667  0.38843524  0.27823143  1.0
  Ga  Ga623  1  0.16666667  0.72176857  0.27823143  1.0
  Ga  Ga624  1  0.50000000  0.05510190  0.27823143  1.0
  Ga  Ga625  1  0.50000000  0.38843524  0.27823143  1.0
  Ga  Ga626  1  0.50000000  0.72176857  0.27823143  1.0
  Ga  Ga627  1  0.83333333  0.05510190  0.27823143  1.0
  Ga  Ga628  1  0.83333333  0.38843524  0.27823143  1.0
  Ga  Ga629  1  0.83333333  0.72176857  0.27823143  1.0
  Ga  Ga630  1  0.00000000  0.05510190  0.27823143  1.0
  Ga  Ga631  1  0.00000000  0.38843524  0.27823143  1.0
  Ga  Ga632  1  0.00000000  0.72176857  0.27823143  1.0
  Ga  Ga633  1  0.33333333  0.05510190  0.27823143  1.0
  Ga  Ga634  1  0.33333333  0.38843524  0.27823143  1.0
  Ga  Ga635  1  0.33333333  0.72176857  0.27823143  1.0
  Ga  Ga636  1  0.66666667  0.05510190  0.27823143  1.0
  Ga  Ga637  1  0.66666667  0.38843524  0.27823143  1.0
  Ga  Ga638  1  0.66666667  0.72176857  0.27823143  1.0
  Ga  Ga639  1  0.16666667  0.29319714  0.20680286  1.0
  Ga  Ga640  1  0.16666667  0.62653048  0.20680286  1.0
  Ga  Ga641  1  0.16666667  0.95986381  0.20680286  1.0
  Ga  Ga642  1  0.50000000  0.29319714  0.20680286  1.0
  Ga  Ga643  1  0.50000000  0.62653048  0.20680286  1.0
  Ga  Ga644  1  0.50000000  0.95986381  0.20680286  1.0
  Ga  Ga645  1  0.83333333  0.29319714  0.20680286  1.0
  Ga  Ga646  1  0.83333333  0.62653048  0.20680286  1.0
  Ga  Ga647  1  0.83333333  0.95986381  0.20680286  1.0
  Ga  Ga648  1  0.25000000  0.24557810  0.17108857  1.0
  Ga  Ga649  1  0.25000000  0.57891143  0.17108857  1.0
  Ga  Ga650  1  0.25000000  0.91224476  0.17108857  1.0
  Ga  Ga651  1  0.58333333  0.24557810  0.17108857  1.0
  Ga  Ga652  1  0.58333333  0.57891143  0.17108857  1.0
  Ga  Ga653  1  0.58333333  0.91224476  0.17108857  1.0
  Ga  Ga654  1  0.91666667  0.24557810  0.17108857  1.0
  Ga  Ga655  1  0.91666667  0.57891143  0.17108857  1.0
  Ga  Ga656  1  0.91666667  0.91224476  0.17108857  1.0
  Ga  Ga657  1  0.08333333  0.00748286  0.24251714  1.0
  Ga  Ga658  1  0.08333333  0.34081619  0.24251714  1.0
  Ga  Ga659  1  0.08333333  0.67414952  0.24251714  1.0
  Ga  Ga660  1  0.41666667  0.00748286  0.24251714  1.0
  Ga  Ga661  1  0.41666667  0.34081619  0.24251714  1.0
  Ga  Ga662  1  0.41666667  0.67414952  0.24251714  1.0
  Ga  Ga663  1  0.75000000  0.00748286  0.24251714  1.0
  Ga  Ga664  1  0.75000000  0.34081619  0.24251714  1.0
  Ga  Ga665  1  0.75000000  0.67414952  0.24251714  1.0
  Ga  Ga666  1  0.00000000  0.22176857  0.27823143  1.0
  Ga  Ga667  1  0.00000000  0.55510190  0.27823143  1.0
  Ga  Ga668  1  0.00000000  0.88843524  0.27823143  1.0
  Ga  Ga669  1  0.33333333  0.22176857  0.27823143  1.0
  Ga  Ga670  1  0.33333333  0.55510190  0.27823143  1.0
  Ga  Ga671  1  0.33333333  0.88843524  0.27823143  1.0
  Ga  Ga672  1  0.66666667  0.22176857  0.27823143  1.0
  Ga  Ga673  1  0.66666667  0.55510190  0.27823143  1.0
  Ga  Ga674  1  0.66666667  0.88843524  0.27823143  1.0
  Ga  Ga675  1  0.16666667  0.12653048  0.20680286  1.0
  Ga  Ga676  1  0.16666667  0.45986381  0.20680286  1.0
  Ga  Ga677  1  0.16666667  0.79319714  0.20680286  1.0
  Ga  Ga678  1  0.50000000  0.12653048  0.20680286  1.0
  Ga  Ga679  1  0.50000000  0.45986381  0.20680286  1.0
  Ga  Ga680  1  0.50000000  0.79319714  0.20680286  1.0
  Ga  Ga681  1  0.83333333  0.12653048  0.20680286  1.0
  Ga  Ga682  1  0.83333333  0.45986381  0.20680286  1.0
  Ga  Ga683  1  0.83333333  0.79319714  0.20680286  1.0
  Ga  Ga684  1  0.08333333  0.24557810  0.17108857  1.0
  Ga  Ga685  1  0.08333333  0.57891143  0.17108857  1.0
  Ga  Ga686  1  0.08333333  0.91224476  0.17108857  1.0
  Ga  Ga687  1  0.41666667  0.24557810  0.17108857  1.0
  Ga  Ga688  1  0.41666667  0.57891143  0.17108857  1.0
  Ga  Ga689  1  0.41666667  0.91224476  0.17108857  1.0
  Ga  Ga690  1  0.75000000  0.24557810  0.17108857  1.0
  Ga  Ga691  1  0.75000000  0.57891143  0.17108857  1.0
  Ga  Ga692  1  0.75000000  0.91224476  0.17108857  1.0
  Ga  Ga693  1  0.25000000  0.00748286  0.24251714  1.0
  Ga  Ga694  1  0.25000000  0.34081619  0.24251714  1.0
  Ga  Ga695  1  0.25000000  0.67414952  0.24251714  1.0
  Ga  Ga696  1  0.58333333  0.00748286  0.24251714  1.0
  Ga  Ga697  1  0.58333333  0.34081619  0.24251714  1.0
  Ga  Ga698  1  0.58333333  0.67414952  0.24251714  1.0
  Ga  Ga699  1  0.91666667  0.00748286  0.24251714  1.0
  Ga  Ga700  1  0.91666667  0.34081619  0.24251714  1.0
  Ga  Ga701  1  0.91666667  0.67414952  0.24251714  1.0
  Ga  Ga702  1  0.25000000  0.17414952  0.24251714  1.0
  Ga  Ga703  1  0.25000000  0.50748286  0.24251714  1.0
  Ga  Ga704  1  0.25000000  0.84081619  0.24251714  1.0
  Ga  Ga705  1  0.58333333  0.17414952  0.24251714  1.0
  Ga  Ga706  1  0.58333333  0.50748286  0.24251714  1.0
  Ga  Ga707  1  0.58333333  0.84081619  0.24251714  1.0
  Ga  Ga708  1  0.91666667  0.17414952  0.24251714  1.0
  Ga  Ga709  1  0.91666667  0.50748286  0.24251714  1.0
  Ga  Ga710  1  0.91666667  0.84081619  0.24251714  1.0
  Ga  Ga711  1  0.08333333  0.07891143  0.17108857  1.0
  Ga  Ga712  1  0.08333333  0.41224476  0.17108857  1.0
  Ga  Ga713  1  0.08333333  0.74557810  0.17108857  1.0
  Ga  Ga714  1  0.41666667  0.07891143  0.17108857  1.0
  Ga  Ga715  1  0.41666667  0.41224476  0.17108857  1.0
  Ga  Ga716  1  0.41666667  0.74557810  0.17108857  1.0
  Ga  Ga717  1  0.75000000  0.07891143  0.17108857  1.0
  Ga  Ga718  1  0.75000000  0.41224476  0.17108857  1.0
  Ga  Ga719  1  0.75000000  0.74557810  0.17108857  1.0
  Ga  Ga720  1  0.12294942  0.23308745  0.22729646  1.0
  Ga  Ga721  1  0.12294942  0.56642079  0.22729646  1.0
  Ga  Ga722  1  0.12294942  0.89975412  0.22729646  1.0
  Ga  Ga723  1  0.45628275  0.23308745  0.22729646  1.0
  Ga  Ga724  1  0.45628275  0.56642079  0.22729646  1.0
  Ga  Ga725  1  0.45628275  0.89975412  0.22729646  1.0
  Ga  Ga726  1  0.78961608  0.23308745  0.22729646  1.0
  Ga  Ga727  1  0.78961608  0.56642079  0.22729646  1.0
  Ga  Ga728  1  0.78961608  0.89975412  0.22729646  1.0
  Ga  Ga729  1  0.28961608  0.13784936  0.15586789  1.0
  Ga  Ga730  1  0.28961608  0.47118269  0.15586789  1.0
  Ga  Ga731  1  0.28961608  0.80451602  0.15586789  1.0
  Ga  Ga732  1  0.62294942  0.13784936  0.15586789  1.0
  Ga  Ga733  1  0.62294942  0.47118269  0.15586789  1.0
  Ga  Ga734  1  0.62294942  0.80451602  0.15586789  1.0
  Ga  Ga735  1  0.95628275  0.13784936  0.15586789  1.0
  Ga  Ga736  1  0.95628275  0.47118269  0.15586789  1.0
  Ga  Ga737  1  0.95628275  0.80451602  0.15586789  1.0
  Ga  Ga738  1  0.04166667  0.18839781  0.19070336  1.0
  Ga  Ga739  1  0.04166667  0.52173114  0.19070336  1.0
  Ga  Ga740  1  0.04166667  0.85506448  0.19070336  1.0
  Ga  Ga741  1  0.37500000  0.18839781  0.19070336  1.0
  Ga  Ga742  1  0.37500000  0.52173114  0.19070336  1.0
  Ga  Ga743  1  0.37500000  0.85506448  0.19070336  1.0
  Ga  Ga744  1  0.70833333  0.18839781  0.19070336  1.0
  Ga  Ga745  1  0.70833333  0.52173114  0.19070336  1.0
  Ga  Ga746  1  0.70833333  0.85506448  0.19070336  1.0
  Ga  Ga747  1  0.20833333  0.28363590  0.26213193  1.0
  Ga  Ga748  1  0.20833333  0.61696924  0.26213193  1.0
  Ga  Ga749  1  0.20833333  0.95030257  0.26213193  1.0
  Ga  Ga750  1  0.54166667  0.28363590  0.26213193  1.0
  Ga  Ga751  1  0.54166667  0.61696924  0.26213193  1.0
  Ga  Ga752  1  0.54166667  0.95030257  0.26213193  1.0
  Ga  Ga753  1  0.87500000  0.28363590  0.26213193  1.0
  Ga  Ga754  1  0.87500000  0.61696924  0.26213193  1.0
  Ga  Ga755  1  0.87500000  0.95030257  0.26213193  1.0
  Ga  Ga756  1  0.29166667  0.30275838  0.15147379  1.0
  Ga  Ga757  1  0.29166667  0.63609171  0.15147379  1.0
  Ga  Ga758  1  0.29166667  0.96942505  0.15147379  1.0
  Ga  Ga759  1  0.62500000  0.30275838  0.15147379  1.0
  Ga  Ga760  1  0.62500000  0.63609171  0.15147379  1.0
  Ga  Ga761  1  0.62500000  0.96942505  0.15147379  1.0
  Ga  Ga762  1  0.95833333  0.30275838  0.15147379  1.0
  Ga  Ga763  1  0.95833333  0.63609171  0.15147379  1.0
  Ga  Ga764  1  0.95833333  0.96942505  0.15147379  1.0
  Ga  Ga765  1  0.12500000  0.06466314  0.22290236  1.0
  Ga  Ga766  1  0.12500000  0.39799648  0.22290236  1.0
  Ga  Ga767  1  0.12500000  0.73132981  0.22290236  1.0
  Ga  Ga768  1  0.45833333  0.06466314  0.22290236  1.0
  Ga  Ga769  1  0.45833333  0.39799648  0.22290236  1.0
  Ga  Ga770  1  0.45833333  0.73132981  0.22290236  1.0
  Ga  Ga771  1  0.79166667  0.06466314  0.22290236  1.0
  Ga  Ga772  1  0.79166667  0.39799648  0.22290236  1.0
  Ga  Ga773  1  0.79166667  0.73132981  0.22290236  1.0
  Ga  Ga774  1  0.29371725  0.18546840  0.19158218  1.0
  Ga  Ga775  1  0.29371725  0.51880174  0.19158218  1.0
  Ga  Ga776  1  0.29371725  0.85213507  0.19158218  1.0
  Ga  Ga777  1  0.62705058  0.18546840  0.19158218  1.0
  Ga  Ga778  1  0.62705058  0.51880174  0.19158218  1.0
  Ga  Ga779  1  0.62705058  0.85213507  0.19158218  1.0
  Ga  Ga780  1  0.96038392  0.18546840  0.19158218  1.0
  Ga  Ga781  1  0.96038392  0.51880174  0.19158218  1.0
  Ga  Ga782  1  0.96038392  0.85213507  0.19158218  1.0
  Ga  Ga783  1  0.12705058  0.28070650  0.26301075  1.0
  Ga  Ga784  1  0.12705058  0.61403983  0.26301075  1.0
  Ga  Ga785  1  0.12705058  0.94737317  0.26301075  1.0
  Ga  Ga786  1  0.46038392  0.28070650  0.26301075  1.0
  Ga  Ga787  1  0.46038392  0.61403983  0.26301075  1.0
  Ga  Ga788  1  0.46038392  0.94737317  0.26301075  1.0
  Ga  Ga789  1  0.79371725  0.28070650  0.26301075  1.0
  Ga  Ga790  1  0.79371725  0.61403983  0.26301075  1.0
  Ga  Ga791  1  0.79371725  0.94737317  0.26301075  1.0
  Ga  Ga792  1  0.28961608  0.28187826  0.25773782  1.0
  Ga  Ga793  1  0.28961608  0.61521160  0.25773782  1.0
  Ga  Ga794  1  0.28961608  0.94854493  0.25773782  1.0
  Ga  Ga795  1  0.62294942  0.28187826  0.25773782  1.0
  Ga  Ga796  1  0.62294942  0.61521160  0.25773782  1.0
  Ga  Ga797  1  0.62294942  0.94854493  0.25773782  1.0
  Ga  Ga798  1  0.95628275  0.28187826  0.25773782  1.0
  Ga  Ga799  1  0.95628275  0.61521160  0.25773782  1.0
  Ga  Ga800  1  0.95628275  0.94854493  0.25773782  1.0
  Ga  Ga801  1  0.12294942  0.18664017  0.18630925  1.0
  Ga  Ga802  1  0.12294942  0.51997350  0.18630925  1.0
  Ga  Ga803  1  0.12294942  0.85330683  0.18630925  1.0
  Ga  Ga804  1  0.45628275  0.18664017  0.18630925  1.0
  Ga  Ga805  1  0.45628275  0.51997350  0.18630925  1.0
  Ga  Ga806  1  0.45628275  0.85330683  0.18630925  1.0
  Ga  Ga807  1  0.78961608  0.18664017  0.18630925  1.0
  Ga  Ga808  1  0.78961608  0.51997350  0.18630925  1.0
  Ga  Ga809  1  0.78961608  0.85330683  0.18630925  1.0
  Ga  Ga810  1  0.33128275  0.24499221  0.17372504  1.0
  Ga  Ga811  1  0.33128275  0.57832555  0.17372504  1.0
  Ga  Ga812  1  0.33128275  0.91165888  0.17372504  1.0
  Ga  Ga813  1  0.66461608  0.24499221  0.17372504  1.0
  Ga  Ga814  1  0.66461608  0.57832555  0.17372504  1.0
  Ga  Ga815  1  0.66461608  0.91165888  0.17372504  1.0
  Ga  Ga816  1  0.99794942  0.24499221  0.17372504  1.0
  Ga  Ga817  1  0.99794942  0.57832555  0.17372504  1.0
  Ga  Ga818  1  0.99794942  0.91165888  0.17372504  1.0
  Ga  Ga819  1  0.16461608  0.00689698  0.24515361  1.0
  Ga  Ga820  1  0.16461608  0.34023031  0.24515361  1.0
  Ga  Ga821  1  0.16461608  0.67356364  0.24515361  1.0
  Ga  Ga822  1  0.49794942  0.00689698  0.24515361  1.0
  Ga  Ga823  1  0.49794942  0.34023031  0.24515361  1.0
  Ga  Ga824  1  0.49794942  0.67356364  0.24515361  1.0
  Ga  Ga825  1  0.83128275  0.00689698  0.24515361  1.0
  Ga  Ga826  1  0.83128275  0.34023031  0.24515361  1.0
  Ga  Ga827  1  0.83128275  0.67356364  0.24515361  1.0
  Ga  Ga828  1  0.25205058  0.29261126  0.20943932  1.0
  Ga  Ga829  1  0.25205058  0.62594460  0.20943932  1.0
  Ga  Ga830  1  0.25205058  0.95927793  0.20943932  1.0
  Ga  Ga831  1  0.58538392  0.29261126  0.20943932  1.0
  Ga  Ga832  1  0.58538392  0.62594460  0.20943932  1.0
  Ga  Ga833  1  0.58538392  0.95927793  0.20943932  1.0
  Ga  Ga834  1  0.91871725  0.29261126  0.20943932  1.0
  Ga  Ga835  1  0.91871725  0.62594460  0.20943932  1.0
  Ga  Ga836  1  0.91871725  0.95927793  0.20943932  1.0
  Ga  Ga837  1  0.08538392  0.05451602  0.28086789  1.0
  Ga  Ga838  1  0.08538392  0.38784936  0.28086789  1.0
  Ga  Ga839  1  0.08538392  0.72118269  0.28086789  1.0
  Ga  Ga840  1  0.41871725  0.05451602  0.28086789  1.0
  Ga  Ga841  1  0.41871725  0.38784936  0.28086789  1.0
  Ga  Ga842  1  0.41871725  0.72118269  0.28086789  1.0
  Ga  Ga843  1  0.75205058  0.05451602  0.28086789  1.0
  Ga  Ga844  1  0.75205058  0.38784936  0.28086789  1.0
  Ga  Ga845  1  0.75205058  0.72118269  0.28086789  1.0
  Ga  Ga846  1  0.04166667  0.23132981  0.22290236  1.0
  Ga  Ga847  1  0.04166667  0.56466314  0.22290236  1.0
  Ga  Ga848  1  0.04166667  0.89799648  0.22290236  1.0
  Ga  Ga849  1  0.37500000  0.23132981  0.22290236  1.0
  Ga  Ga850  1  0.37500000  0.56466314  0.22290236  1.0
  Ga  Ga851  1  0.37500000  0.89799648  0.22290236  1.0
  Ga  Ga852  1  0.70833333  0.23132981  0.22290236  1.0
  Ga  Ga853  1  0.70833333  0.56466314  0.22290236  1.0
  Ga  Ga854  1  0.70833333  0.89799648  0.22290236  1.0
  Ga  Ga855  1  0.20833333  0.13609171  0.15147379  1.0
  Ga  Ga856  1  0.20833333  0.46942505  0.15147379  1.0
  Ga  Ga857  1  0.20833333  0.80275838  0.15147379  1.0
  Ga  Ga858  1  0.54166667  0.13609171  0.15147379  1.0
  Ga  Ga859  1  0.54166667  0.46942505  0.15147379  1.0
  Ga  Ga860  1  0.54166667  0.80275838  0.15147379  1.0
  Ga  Ga861  1  0.87500000  0.13609171  0.15147379  1.0
  Ga  Ga862  1  0.87500000  0.46942505  0.15147379  1.0
  Ga  Ga863  1  0.87500000  0.80275838  0.15147379  1.0
  Ga  Ga864  1  0.33128275  0.17473540  0.23988068  1.0
  Ga  Ga865  1  0.33128275  0.50806874  0.23988068  1.0
  Ga  Ga866  1  0.33128275  0.84140207  0.23988068  1.0
  Ga  Ga867  1  0.66461608  0.17473540  0.23988068  1.0
  Ga  Ga868  1  0.66461608  0.50806874  0.23988068  1.0
  Ga  Ga869  1  0.66461608  0.84140207  0.23988068  1.0
  Ga  Ga870  1  0.99794942  0.17473540  0.23988068  1.0
  Ga  Ga871  1  0.99794942  0.50806874  0.23988068  1.0
  Ga  Ga872  1  0.99794942  0.84140207  0.23988068  1.0
  Ga  Ga873  1  0.16461608  0.07949731  0.16845211  1.0
  Ga  Ga874  1  0.16461608  0.41283064  0.16845211  1.0
  Ga  Ga875  1  0.16461608  0.74616398  0.16845211  1.0
  Ga  Ga876  1  0.49794942  0.07949731  0.16845211  1.0
  Ga  Ga877  1  0.49794942  0.41283064  0.16845211  1.0
  Ga  Ga878  1  0.49794942  0.74616398  0.16845211  1.0
  Ga  Ga879  1  0.83128275  0.07949731  0.16845211  1.0
  Ga  Ga880  1  0.83128275  0.41283064  0.16845211  1.0
  Ga  Ga881  1  0.83128275  0.74616398  0.16845211  1.0
  Ga  Ga882  1  0.29166667  0.11696924  0.26213193  1.0
  Ga  Ga883  1  0.29166667  0.45030257  0.26213193  1.0
  Ga  Ga884  1  0.29166667  0.78363590  0.26213193  1.0
  Ga  Ga885  1  0.62500000  0.11696924  0.26213193  1.0
  Ga  Ga886  1  0.62500000  0.45030257  0.26213193  1.0
  Ga  Ga887  1  0.62500000  0.78363590  0.26213193  1.0
  Ga  Ga888  1  0.95833333  0.11696924  0.26213193  1.0
  Ga  Ga889  1  0.95833333  0.45030257  0.26213193  1.0
  Ga  Ga890  1  0.95833333  0.78363590  0.26213193  1.0
  Ga  Ga891  1  0.12500000  0.02173114  0.19070336  1.0
  Ga  Ga892  1  0.12500000  0.35506448  0.19070336  1.0
  Ga  Ga893  1  0.12500000  0.68839781  0.19070336  1.0
  Ga  Ga894  1  0.45833333  0.02173114  0.19070336  1.0
  Ga  Ga895  1  0.45833333  0.35506448  0.19070336  1.0
  Ga  Ga896  1  0.45833333  0.68839781  0.19070336  1.0
  Ga  Ga897  1  0.79166667  0.02173114  0.19070336  1.0
  Ga  Ga898  1  0.79166667  0.35506448  0.19070336  1.0
  Ga  Ga899  1  0.79166667  0.68839781  0.19070336  1.0
  Ga  Ga900  1  0.29371725  0.23425921  0.22202354  1.0
  Ga  Ga901  1  0.29371725  0.56759255  0.22202354  1.0
  Ga  Ga902  1  0.29371725  0.90092588  0.22202354  1.0
  Ga  Ga903  1  0.62705058  0.23425921  0.22202354  1.0
  Ga  Ga904  1  0.62705058  0.56759255  0.22202354  1.0
  Ga  Ga905  1  0.62705058  0.90092588  0.22202354  1.0
  Ga  Ga906  1  0.96038392  0.23425921  0.22202354  1.0
  Ga  Ga907  1  0.96038392  0.56759255  0.22202354  1.0
  Ga  Ga908  1  0.96038392  0.90092588  0.22202354  1.0
  Ga  Ga909  1  0.12705058  0.13902112  0.15059496  1.0
  Ga  Ga910  1  0.12705058  0.47235445  0.15059496  1.0
  Ga  Ga911  1  0.12705058  0.80568779  0.15059496  1.0
  Ga  Ga912  1  0.46038392  0.13902112  0.15059496  1.0
  Ga  Ga913  1  0.46038392  0.47235445  0.15059496  1.0
  Ga  Ga914  1  0.46038392  0.80568779  0.15059496  1.0
  Ga  Ga915  1  0.79371725  0.13902112  0.15059496  1.0
  Ga  Ga916  1  0.79371725  0.47235445  0.15059496  1.0
  Ga  Ga917  1  0.79371725  0.80568779  0.15059496  1.0
  Ga  Ga918  1  0.08538392  0.22235445  0.27559496  1.0
  Ga  Ga919  1  0.08538392  0.55568779  0.27559496  1.0
  Ga  Ga920  1  0.08538392  0.88902112  0.27559496  1.0
  Ga  Ga921  1  0.41871725  0.22235445  0.27559496  1.0
  Ga  Ga922  1  0.41871725  0.55568779  0.27559496  1.0
  Ga  Ga923  1  0.41871725  0.88902112  0.27559496  1.0
  Ga  Ga924  1  0.75205058  0.22235445  0.27559496  1.0
  Ga  Ga925  1  0.75205058  0.55568779  0.27559496  1.0
  Ga  Ga926  1  0.75205058  0.88902112  0.27559496  1.0
  Ga  Ga927  1  0.25205058  0.12711636  0.20416639  1.0
  Ga  Ga928  1  0.25205058  0.46044969  0.20416639  1.0
  Ga  Ga929  1  0.25205058  0.79378302  0.20416639  1.0
  Ga  Ga930  1  0.58538392  0.12711636  0.20416639  1.0
  Ga  Ga931  1  0.58538392  0.46044969  0.20416639  1.0
  Ga  Ga932  1  0.58538392  0.79378302  0.20416639  1.0
  Ga  Ga933  1  0.91871725  0.12711636  0.20416639  1.0
  Ga  Ga934  1  0.91871725  0.46044969  0.20416639  1.0
  Ga  Ga935  1  0.91871725  0.79378302  0.20416639  1.0
  Ga  Ga936  1  0.21038392  0.01997350  0.18630925  1.0
  Ga  Ga937  1  0.21038392  0.35330683  0.18630925  1.0
  Ga  Ga938  1  0.21038392  0.68664017  0.18630925  1.0
  Ga  Ga939  1  0.54371725  0.01997350  0.18630925  1.0
  Ga  Ga940  1  0.54371725  0.35330683  0.18630925  1.0
  Ga  Ga941  1  0.54371725  0.68664017  0.18630925  1.0
  Ga  Ga942  1  0.87705058  0.01997350  0.18630925  1.0
  Ga  Ga943  1  0.87705058  0.35330683  0.18630925  1.0
  Ga  Ga944  1  0.87705058  0.68664017  0.18630925  1.0
  Ga  Ga945  1  0.04371725  0.11521160  0.25773782  1.0
  Ga  Ga946  1  0.04371725  0.44854493  0.25773782  1.0
  Ga  Ga947  1  0.04371725  0.78187826  0.25773782  1.0
  Ga  Ga948  1  0.37705058  0.11521160  0.25773782  1.0
  Ga  Ga949  1  0.37705058  0.44854493  0.25773782  1.0
  Ga  Ga950  1  0.37705058  0.78187826  0.25773782  1.0
  Ga  Ga951  1  0.71038392  0.11521160  0.25773782  1.0
  Ga  Ga952  1  0.71038392  0.44854493  0.25773782  1.0
  Ga  Ga953  1  0.71038392  0.78187826  0.25773782  1.0
  Ga  Ga954  1  0.29166667  0.06466314  0.22290236  1.0
  Ga  Ga955  1  0.29166667  0.39799648  0.22290236  1.0
  Ga  Ga956  1  0.29166667  0.73132981  0.22290236  1.0
  Ga  Ga957  1  0.62500000  0.06466314  0.22290236  1.0
  Ga  Ga958  1  0.62500000  0.39799648  0.22290236  1.0
  Ga  Ga959  1  0.62500000  0.73132981  0.22290236  1.0
  Ga  Ga960  1  0.95833333  0.06466314  0.22290236  1.0
  Ga  Ga961  1  0.95833333  0.39799648  0.22290236  1.0
  Ga  Ga962  1  0.95833333  0.73132981  0.22290236  1.0
  Ga  Ga963  1  0.12500000  0.30275838  0.15147379  1.0
  Ga  Ga964  1  0.12500000  0.63609171  0.15147379  1.0
  Ga  Ga965  1  0.12500000  0.96942505  0.15147379  1.0
  Ga  Ga966  1  0.45833333  0.30275838  0.15147379  1.0
  Ga  Ga967  1  0.45833333  0.63609171  0.15147379  1.0
  Ga  Ga968  1  0.45833333  0.96942505  0.15147379  1.0
  Ga  Ga969  1  0.79166667  0.30275838  0.15147379  1.0
  Ga  Ga970  1  0.79166667  0.63609171  0.15147379  1.0
  Ga  Ga971  1  0.79166667  0.96942505  0.15147379  1.0
  Ga  Ga972  1  0.04166667  0.28363590  0.26213193  1.0
  Ga  Ga973  1  0.04166667  0.61696924  0.26213193  1.0
  Ga  Ga974  1  0.04166667  0.95030257  0.26213193  1.0
  Ga  Ga975  1  0.37500000  0.28363590  0.26213193  1.0
  Ga  Ga976  1  0.37500000  0.61696924  0.26213193  1.0
  Ga  Ga977  1  0.37500000  0.95030257  0.26213193  1.0
  Ga  Ga978  1  0.70833333  0.28363590  0.26213193  1.0
  Ga  Ga979  1  0.70833333  0.61696924  0.26213193  1.0
  Ga  Ga980  1  0.70833333  0.95030257  0.26213193  1.0
  Ga  Ga981  1  0.20833333  0.18839781  0.19070336  1.0
  Ga  Ga982  1  0.20833333  0.52173114  0.19070336  1.0
  Ga  Ga983  1  0.20833333  0.85506448  0.19070336  1.0
  Ga  Ga984  1  0.54166667  0.18839781  0.19070336  1.0
  Ga  Ga985  1  0.54166667  0.52173114  0.19070336  1.0
  Ga  Ga986  1  0.54166667  0.85506448  0.19070336  1.0
  Ga  Ga987  1  0.87500000  0.18839781  0.19070336  1.0
  Ga  Ga988  1  0.87500000  0.52173114  0.19070336  1.0
  Ga  Ga989  1  0.87500000  0.85506448  0.19070336  1.0
  Ga  Ga990  1  0.03961608  0.06759255  0.22202354  1.0
  Ga  Ga991  1  0.03961608  0.40092588  0.22202354  1.0
  Ga  Ga992  1  0.03961608  0.73425921  0.22202354  1.0
  Ga  Ga993  1  0.37294942  0.06759255  0.22202354  1.0
  Ga  Ga994  1  0.37294942  0.40092588  0.22202354  1.0
  Ga  Ga995  1  0.37294942  0.73425921  0.22202354  1.0
  Ga  Ga996  1  0.70628275  0.06759255  0.22202354  1.0
  Ga  Ga997  1  0.70628275  0.40092588  0.22202354  1.0
  Ga  Ga998  1  0.70628275  0.73425921  0.22202354  1.0
  Ga  Ga999  1  0.20628275  0.30568779  0.15059496  1.0
  Ga  Ga1000  1  0.20628275  0.63902112  0.15059496  1.0
  Ga  Ga1001  1  0.20628275  0.97235445  0.15059496  1.0
  Ga  Ga1002  1  0.53961608  0.30568779  0.15059496  1.0
  Ga  Ga1003  1  0.53961608  0.63902112  0.15059496  1.0
  Ga  Ga1004  1  0.53961608  0.97235445  0.15059496  1.0
  Ga  Ga1005  1  0.87294942  0.30568779  0.15059496  1.0
  Ga  Ga1006  1  0.87294942  0.63902112  0.15059496  1.0
  Ga  Ga1007  1  0.87294942  0.97235445  0.15059496  1.0
  Ga  Ga1008  1  0.04371725  0.30451602  0.15586789  1.0
  Ga  Ga1009  1  0.04371725  0.63784936  0.15586789  1.0
  Ga  Ga1010  1  0.04371725  0.97118269  0.15586789  1.0
  Ga  Ga1011  1  0.37705058  0.30451602  0.15586789  1.0
  Ga  Ga1012  1  0.37705058  0.63784936  0.15586789  1.0
  Ga  Ga1013  1  0.37705058  0.97118269  0.15586789  1.0
  Ga  Ga1014  1  0.71038392  0.30451602  0.15586789  1.0
  Ga  Ga1015  1  0.71038392  0.63784936  0.15586789  1.0
  Ga  Ga1016  1  0.71038392  0.97118269  0.15586789  1.0
  Ga  Ga1017  1  0.21038392  0.06642079  0.22729646  1.0
  Ga  Ga1018  1  0.21038392  0.39975412  0.22729646  1.0
  Ga  Ga1019  1  0.21038392  0.73308745  0.22729646  1.0
  Ga  Ga1020  1  0.54371725  0.06642079  0.22729646  1.0
  Ga  Ga1021  1  0.54371725  0.39975412  0.22729646  1.0
  Ga  Ga1022  1  0.54371725  0.73308745  0.22729646  1.0
  Ga  Ga1023  1  0.87705058  0.06642079  0.22729646  1.0
  Ga  Ga1024  1  0.87705058  0.39975412  0.22729646  1.0
  Ga  Ga1025  1  0.87705058  0.73308745  0.22729646  1.0
  Ga  Ga1026  1  0.00205058  0.00806874  0.23988068  1.0
  Ga  Ga1027  1  0.00205058  0.34140207  0.23988068  1.0
  Ga  Ga1028  1  0.00205058  0.67473540  0.23988068  1.0
  Ga  Ga1029  1  0.33538392  0.00806874  0.23988068  1.0
  Ga  Ga1030  1  0.33538392  0.34140207  0.23988068  1.0
  Ga  Ga1031  1  0.33538392  0.67473540  0.23988068  1.0
  Ga  Ga1032  1  0.66871725  0.00806874  0.23988068  1.0
  Ga  Ga1033  1  0.66871725  0.34140207  0.23988068  1.0
  Ga  Ga1034  1  0.66871725  0.67473540  0.23988068  1.0
  Ga  Ga1035  1  0.16871725  0.24616398  0.16845211  1.0
  Ga  Ga1036  1  0.16871725  0.57949731  0.16845211  1.0
  Ga  Ga1037  1  0.16871725  0.91283064  0.16845211  1.0
  Ga  Ga1038  1  0.50205058  0.24616398  0.16845211  1.0
  Ga  Ga1039  1  0.50205058  0.57949731  0.16845211  1.0
  Ga  Ga1040  1  0.50205058  0.91283064  0.16845211  1.0
  Ga  Ga1041  1  0.83538392  0.24616398  0.16845211  1.0
  Ga  Ga1042  1  0.83538392  0.57949731  0.16845211  1.0
  Ga  Ga1043  1  0.83538392  0.91283064  0.16845211  1.0
  Ga  Ga1044  1  0.08128275  0.29378302  0.20416639  1.0
  Ga  Ga1045  1  0.08128275  0.62711636  0.20416639  1.0
  Ga  Ga1046  1  0.08128275  0.96044969  0.20416639  1.0
  Ga  Ga1047  1  0.41461608  0.29378302  0.20416639  1.0
  Ga  Ga1048  1  0.41461608  0.62711636  0.20416639  1.0
  Ga  Ga1049  1  0.41461608  0.96044969  0.20416639  1.0
  Ga  Ga1050  1  0.74794942  0.29378302  0.20416639  1.0
  Ga  Ga1051  1  0.74794942  0.62711636  0.20416639  1.0
  Ga  Ga1052  1  0.74794942  0.96044969  0.20416639  1.0
  Ga  Ga1053  1  0.24794942  0.05568779  0.27559496  1.0
  Ga  Ga1054  1  0.24794942  0.38902112  0.27559496  1.0
  Ga  Ga1055  1  0.24794942  0.72235445  0.27559496  1.0
  Ga  Ga1056  1  0.58128275  0.05568779  0.27559496  1.0
  Ga  Ga1057  1  0.58128275  0.38902112  0.27559496  1.0
  Ga  Ga1058  1  0.58128275  0.72235445  0.27559496  1.0
  Ga  Ga1059  1  0.91461608  0.05568779  0.27559496  1.0
  Ga  Ga1060  1  0.91461608  0.38902112  0.27559496  1.0
  Ga  Ga1061  1  0.91461608  0.72235445  0.27559496  1.0
  Ga  Ga1062  1  0.29166667  0.02173114  0.19070336  1.0
  Ga  Ga1063  1  0.29166667  0.35506448  0.19070336  1.0
  Ga  Ga1064  1  0.29166667  0.68839781  0.19070336  1.0
  Ga  Ga1065  1  0.62500000  0.02173114  0.19070336  1.0
  Ga  Ga1066  1  0.62500000  0.35506448  0.19070336  1.0
  Ga  Ga1067  1  0.62500000  0.68839781  0.19070336  1.0
  Ga  Ga1068  1  0.95833333  0.02173114  0.19070336  1.0
  Ga  Ga1069  1  0.95833333  0.35506448  0.19070336  1.0
  Ga  Ga1070  1  0.95833333  0.68839781  0.19070336  1.0
  Ga  Ga1071  1  0.12500000  0.11696924  0.26213193  1.0
  Ga  Ga1072  1  0.12500000  0.45030257  0.26213193  1.0
  Ga  Ga1073  1  0.12500000  0.78363590  0.26213193  1.0
  Ga  Ga1074  1  0.45833333  0.11696924  0.26213193  1.0
  Ga  Ga1075  1  0.45833333  0.45030257  0.26213193  1.0
  Ga  Ga1076  1  0.45833333  0.78363590  0.26213193  1.0
  Ga  Ga1077  1  0.79166667  0.11696924  0.26213193  1.0
  Ga  Ga1078  1  0.79166667  0.45030257  0.26213193  1.0
  Ga  Ga1079  1  0.79166667  0.78363590  0.26213193  1.0
  Ga  Ga1080  1  0.00205058  0.07832555  0.17372504  1.0
  Ga  Ga1081  1  0.00205058  0.41165888  0.17372504  1.0
  Ga  Ga1082  1  0.00205058  0.74499221  0.17372504  1.0
  Ga  Ga1083  1  0.33538392  0.07832555  0.17372504  1.0
  Ga  Ga1084  1  0.33538392  0.41165888  0.17372504  1.0
  Ga  Ga1085  1  0.33538392  0.74499221  0.17372504  1.0
  Ga  Ga1086  1  0.66871725  0.07832555  0.17372504  1.0
  Ga  Ga1087  1  0.66871725  0.41165888  0.17372504  1.0
  Ga  Ga1088  1  0.66871725  0.74499221  0.17372504  1.0
  Ga  Ga1089  1  0.16871725  0.17356364  0.24515361  1.0
  Ga  Ga1090  1  0.16871725  0.50689698  0.24515361  1.0
  Ga  Ga1091  1  0.16871725  0.84023031  0.24515361  1.0
  Ga  Ga1092  1  0.50205058  0.17356364  0.24515361  1.0
  Ga  Ga1093  1  0.50205058  0.50689698  0.24515361  1.0
  Ga  Ga1094  1  0.50205058  0.84023031  0.24515361  1.0
  Ga  Ga1095  1  0.83538392  0.17356364  0.24515361  1.0
  Ga  Ga1096  1  0.83538392  0.50689698  0.24515361  1.0
  Ga  Ga1097  1  0.83538392  0.84023031  0.24515361  1.0
  Ga  Ga1098  1  0.04166667  0.13609171  0.15147379  1.0
  Ga  Ga1099  1  0.04166667  0.46942505  0.15147379  1.0
  Ga  Ga1100  1  0.04166667  0.80275838  0.15147379  1.0
  Ga  Ga1101  1  0.37500000  0.13609171  0.15147379  1.0
  Ga  Ga1102  1  0.37500000  0.46942505  0.15147379  1.0
  Ga  Ga1103  1  0.37500000  0.80275838  0.15147379  1.0
  Ga  Ga1104  1  0.70833333  0.13609171  0.15147379  1.0
  Ga  Ga1105  1  0.70833333  0.46942505  0.15147379  1.0
  Ga  Ga1106  1  0.70833333  0.80275838  0.15147379  1.0
  Ga  Ga1107  1  0.20833333  0.23132981  0.22290236  1.0
  Ga  Ga1108  1  0.20833333  0.56466314  0.22290236  1.0
  Ga  Ga1109  1  0.20833333  0.89799648  0.22290236  1.0
  Ga  Ga1110  1  0.54166667  0.23132981  0.22290236  1.0
  Ga  Ga1111  1  0.54166667  0.56466314  0.22290236  1.0
  Ga  Ga1112  1  0.54166667  0.89799648  0.22290236  1.0
  Ga  Ga1113  1  0.87500000  0.23132981  0.22290236  1.0
  Ga  Ga1114  1  0.87500000  0.56466314  0.22290236  1.0
  Ga  Ga1115  1  0.87500000  0.89799648  0.22290236  1.0
  Ga  Ga1116  1  0.03961608  0.01880174  0.19158218  1.0
  Ga  Ga1117  1  0.03961608  0.35213507  0.19158218  1.0
  Ga  Ga1118  1  0.03961608  0.68546840  0.19158218  1.0
  Ga  Ga1119  1  0.37294942  0.01880174  0.19158218  1.0
  Ga  Ga1120  1  0.37294942  0.35213507  0.19158218  1.0
  Ga  Ga1121  1  0.37294942  0.68546840  0.19158218  1.0
  Ga  Ga1122  1  0.70628275  0.01880174  0.19158218  1.0
  Ga  Ga1123  1  0.70628275  0.35213507  0.19158218  1.0
  Ga  Ga1124  1  0.70628275  0.68546840  0.19158218  1.0
  Ga  Ga1125  1  0.20628275  0.11403983  0.26301075  1.0
  Ga  Ga1126  1  0.20628275  0.44737317  0.26301075  1.0
  Ga  Ga1127  1  0.20628275  0.78070650  0.26301075  1.0
  Ga  Ga1128  1  0.53961608  0.11403983  0.26301075  1.0
  Ga  Ga1129  1  0.53961608  0.44737317  0.26301075  1.0
  Ga  Ga1130  1  0.53961608  0.78070650  0.26301075  1.0
  Ga  Ga1131  1  0.87294942  0.11403983  0.26301075  1.0
  Ga  Ga1132  1  0.87294942  0.44737317  0.26301075  1.0
  Ga  Ga1133  1  0.87294942  0.78070650  0.26301075  1.0
  Ga  Ga1134  1  0.24794942  0.22118269  0.28086789  1.0
  Ga  Ga1135  1  0.24794942  0.55451602  0.28086789  1.0
  Ga  Ga1136  1  0.24794942  0.88784936  0.28086789  1.0
  Ga  Ga1137  1  0.58128275  0.22118269  0.28086789  1.0
  Ga  Ga1138  1  0.58128275  0.55451602  0.28086789  1.0
  Ga  Ga1139  1  0.58128275  0.88784936  0.28086789  1.0
  Ga  Ga1140  1  0.91461608  0.22118269  0.28086789  1.0
  Ga  Ga1141  1  0.91461608  0.55451602  0.28086789  1.0
  Ga  Ga1142  1  0.91461608  0.88784936  0.28086789  1.0
  Ga  Ga1143  1  0.08128275  0.12594460  0.20943932  1.0
  Ga  Ga1144  1  0.08128275  0.45927793  0.20943932  1.0
  Ga  Ga1145  1  0.08128275  0.79261126  0.20943932  1.0
  Ga  Ga1146  1  0.41461608  0.12594460  0.20943932  1.0
  Ga  Ga1147  1  0.41461608  0.45927793  0.20943932  1.0
  Ga  Ga1148  1  0.41461608  0.79261126  0.20943932  1.0
  Ga  Ga1149  1  0.74794942  0.12594460  0.20943932  1.0
  Ga  Ga1150  1  0.74794942  0.45927793  0.20943932  1.0
  Ga  Ga1151  1  0.74794942  0.79261126  0.20943932  1.0
  Ga  Ga1152  1  0.00000000  0.31700667  0.34966000  1.0
  Ga  Ga1153  1  0.00000000  0.65034000  0.34966000  1.0
  Ga  Ga1154  1  0.00000000  0.98367333  0.34966000  1.0
  Ga  Ga1155  1  0.33333333  0.31700667  0.34966000  1.0
  Ga  Ga1156  1  0.33333333  0.65034000  0.34966000  1.0
  Ga  Ga1157  1  0.33333333  0.98367333  0.34966000  1.0
  Ga  Ga1158  1  0.66666667  0.31700667  0.34966000  1.0
  Ga  Ga1159  1  0.66666667  0.65034000  0.34966000  1.0
  Ga  Ga1160  1  0.66666667  0.98367333  0.34966000  1.0
  Ga  Ga1161  1  0.16666667  0.07891143  0.42108857  1.0
  Ga  Ga1162  1  0.16666667  0.41224476  0.42108857  1.0
  Ga  Ga1163  1  0.16666667  0.74557810  0.42108857  1.0
  Ga  Ga1164  1  0.50000000  0.07891143  0.42108857  1.0
  Ga  Ga1165  1  0.50000000  0.41224476  0.42108857  1.0
  Ga  Ga1166  1  0.50000000  0.74557810  0.42108857  1.0
  Ga  Ga1167  1  0.83333333  0.07891143  0.42108857  1.0
  Ga  Ga1168  1  0.83333333  0.41224476  0.42108857  1.0
  Ga  Ga1169  1  0.83333333  0.74557810  0.42108857  1.0
  Ga  Ga1170  1  0.08333333  0.03129238  0.38537429  1.0
  Ga  Ga1171  1  0.08333333  0.36462571  0.38537429  1.0
  Ga  Ga1172  1  0.08333333  0.69795905  0.38537429  1.0
  Ga  Ga1173  1  0.41666667  0.03129238  0.38537429  1.0
  Ga  Ga1174  1  0.41666667  0.36462571  0.38537429  1.0
  Ga  Ga1175  1  0.41666667  0.69795905  0.38537429  1.0
  Ga  Ga1176  1  0.75000000  0.03129238  0.38537429  1.0
  Ga  Ga1177  1  0.75000000  0.36462571  0.38537429  1.0
  Ga  Ga1178  1  0.75000000  0.69795905  0.38537429  1.0
  Ga  Ga1179  1  0.25000000  0.26938762  0.31394571  1.0
  Ga  Ga1180  1  0.25000000  0.60272095  0.31394571  1.0
  Ga  Ga1181  1  0.25000000  0.93605429  0.31394571  1.0
  Ga  Ga1182  1  0.58333333  0.26938762  0.31394571  1.0
  Ga  Ga1183  1  0.58333333  0.60272095  0.31394571  1.0
  Ga  Ga1184  1  0.58333333  0.93605429  0.31394571  1.0
  Ga  Ga1185  1  0.91666667  0.26938762  0.31394571  1.0
  Ga  Ga1186  1  0.91666667  0.60272095  0.31394571  1.0
  Ga  Ga1187  1  0.91666667  0.93605429  0.31394571  1.0
  Ga  Ga1188  1  0.00000000  0.15034000  0.34966000  1.0
  Ga  Ga1189  1  0.00000000  0.48367333  0.34966000  1.0
  Ga  Ga1190  1  0.00000000  0.81700667  0.34966000  1.0
  Ga  Ga1191  1  0.33333333  0.15034000  0.34966000  1.0
  Ga  Ga1192  1  0.33333333  0.48367333  0.34966000  1.0
  Ga  Ga1193  1  0.33333333  0.81700667  0.34966000  1.0
  Ga  Ga1194  1  0.66666667  0.15034000  0.34966000  1.0
  Ga  Ga1195  1  0.66666667  0.48367333  0.34966000  1.0
  Ga  Ga1196  1  0.66666667  0.81700667  0.34966000  1.0
  Ga  Ga1197  1  0.16666667  0.24557810  0.42108857  1.0
  Ga  Ga1198  1  0.16666667  0.57891143  0.42108857  1.0
  Ga  Ga1199  1  0.16666667  0.91224476  0.42108857  1.0
  Ga  Ga1200  1  0.50000000  0.24557810  0.42108857  1.0
  Ga  Ga1201  1  0.50000000  0.57891143  0.42108857  1.0
  Ga  Ga1202  1  0.50000000  0.91224476  0.42108857  1.0
  Ga  Ga1203  1  0.83333333  0.24557810  0.42108857  1.0
  Ga  Ga1204  1  0.83333333  0.57891143  0.42108857  1.0
  Ga  Ga1205  1  0.83333333  0.91224476  0.42108857  1.0
  Ga  Ga1206  1  0.00000000  0.24557810  0.42108857  1.0
  Ga  Ga1207  1  0.00000000  0.57891143  0.42108857  1.0
  Ga  Ga1208  1  0.00000000  0.91224476  0.42108857  1.0
  Ga  Ga1209  1  0.33333333  0.24557810  0.42108857  1.0
  Ga  Ga1210  1  0.33333333  0.57891143  0.42108857  1.0
  Ga  Ga1211  1  0.33333333  0.91224476  0.42108857  1.0
  Ga  Ga1212  1  0.66666667  0.24557810  0.42108857  1.0
  Ga  Ga1213  1  0.66666667  0.57891143  0.42108857  1.0
  Ga  Ga1214  1  0.66666667  0.91224476  0.42108857  1.0
  Ga  Ga1215  1  0.16666667  0.15034000  0.34966000  1.0
  Ga  Ga1216  1  0.16666667  0.48367333  0.34966000  1.0
  Ga  Ga1217  1  0.16666667  0.81700667  0.34966000  1.0
  Ga  Ga1218  1  0.50000000  0.15034000  0.34966000  1.0
  Ga  Ga1219  1  0.50000000  0.48367333  0.34966000  1.0
  Ga  Ga1220  1  0.50000000  0.81700667  0.34966000  1.0
  Ga  Ga1221  1  0.83333333  0.15034000  0.34966000  1.0
  Ga  Ga1222  1  0.83333333  0.48367333  0.34966000  1.0
  Ga  Ga1223  1  0.83333333  0.81700667  0.34966000  1.0
  Ga  Ga1224  1  0.25000000  0.10272095  0.31394571  1.0
  Ga  Ga1225  1  0.25000000  0.43605429  0.31394571  1.0
  Ga  Ga1226  1  0.25000000  0.76938762  0.31394571  1.0
  Ga  Ga1227  1  0.58333333  0.10272095  0.31394571  1.0
  Ga  Ga1228  1  0.58333333  0.43605429  0.31394571  1.0
  Ga  Ga1229  1  0.58333333  0.76938762  0.31394571  1.0
  Ga  Ga1230  1  0.91666667  0.10272095  0.31394571  1.0
  Ga  Ga1231  1  0.91666667  0.43605429  0.31394571  1.0
  Ga  Ga1232  1  0.91666667  0.76938762  0.31394571  1.0
  Ga  Ga1233  1  0.08333333  0.19795905  0.38537429  1.0
  Ga  Ga1234  1  0.08333333  0.53129238  0.38537429  1.0
  Ga  Ga1235  1  0.08333333  0.86462571  0.38537429  1.0
  Ga  Ga1236  1  0.41666667  0.19795905  0.38537429  1.0
  Ga  Ga1237  1  0.41666667  0.53129238  0.38537429  1.0
  Ga  Ga1238  1  0.41666667  0.86462571  0.38537429  1.0
  Ga  Ga1239  1  0.75000000  0.19795905  0.38537429  1.0
  Ga  Ga1240  1  0.75000000  0.53129238  0.38537429  1.0
  Ga  Ga1241  1  0.75000000  0.86462571  0.38537429  1.0
  Ga  Ga1242  1  0.00000000  0.07891143  0.42108857  1.0
  Ga  Ga1243  1  0.00000000  0.41224476  0.42108857  1.0
  Ga  Ga1244  1  0.00000000  0.74557810  0.42108857  1.0
  Ga  Ga1245  1  0.33333333  0.07891143  0.42108857  1.0
  Ga  Ga1246  1  0.33333333  0.41224476  0.42108857  1.0
  Ga  Ga1247  1  0.33333333  0.74557810  0.42108857  1.0
  Ga  Ga1248  1  0.66666667  0.07891143  0.42108857  1.0
  Ga  Ga1249  1  0.66666667  0.41224476  0.42108857  1.0
  Ga  Ga1250  1  0.66666667  0.74557810  0.42108857  1.0
  Ga  Ga1251  1  0.16666667  0.31700667  0.34966000  1.0
  Ga  Ga1252  1  0.16666667  0.65034000  0.34966000  1.0
  Ga  Ga1253  1  0.16666667  0.98367333  0.34966000  1.0
  Ga  Ga1254  1  0.50000000  0.31700667  0.34966000  1.0
  Ga  Ga1255  1  0.50000000  0.65034000  0.34966000  1.0
  Ga  Ga1256  1  0.50000000  0.98367333  0.34966000  1.0
  Ga  Ga1257  1  0.83333333  0.31700667  0.34966000  1.0
  Ga  Ga1258  1  0.83333333  0.65034000  0.34966000  1.0
  Ga  Ga1259  1  0.83333333  0.98367333  0.34966000  1.0
  Ga  Ga1260  1  0.08333333  0.10272095  0.31394571  1.0
  Ga  Ga1261  1  0.08333333  0.43605429  0.31394571  1.0
  Ga  Ga1262  1  0.08333333  0.76938762  0.31394571  1.0
  Ga  Ga1263  1  0.41666667  0.10272095  0.31394571  1.0
  Ga  Ga1264  1  0.41666667  0.43605429  0.31394571  1.0
  Ga  Ga1265  1  0.41666667  0.76938762  0.31394571  1.0
  Ga  Ga1266  1  0.75000000  0.10272095  0.31394571  1.0
  Ga  Ga1267  1  0.75000000  0.43605429  0.31394571  1.0
  Ga  Ga1268  1  0.75000000  0.76938762  0.31394571  1.0
  Ga  Ga1269  1  0.25000000  0.19795905  0.38537429  1.0
  Ga  Ga1270  1  0.25000000  0.53129238  0.38537429  1.0
  Ga  Ga1271  1  0.25000000  0.86462571  0.38537429  1.0
  Ga  Ga1272  1  0.58333333  0.19795905  0.38537429  1.0
  Ga  Ga1273  1  0.58333333  0.53129238  0.38537429  1.0
  Ga  Ga1274  1  0.58333333  0.86462571  0.38537429  1.0
  Ga  Ga1275  1  0.91666667  0.19795905  0.38537429  1.0
  Ga  Ga1276  1  0.91666667  0.53129238  0.38537429  1.0
  Ga  Ga1277  1  0.91666667  0.86462571  0.38537429  1.0
  Ga  Ga1278  1  0.25000000  0.03129238  0.38537429  1.0
  Ga  Ga1279  1  0.25000000  0.36462571  0.38537429  1.0
  Ga  Ga1280  1  0.25000000  0.69795905  0.38537429  1.0
  Ga  Ga1281  1  0.58333333  0.03129238  0.38537429  1.0
  Ga  Ga1282  1  0.58333333  0.36462571  0.38537429  1.0
  Ga  Ga1283  1  0.58333333  0.69795905  0.38537429  1.0
  Ga  Ga1284  1  0.91666667  0.03129238  0.38537429  1.0
  Ga  Ga1285  1  0.91666667  0.36462571  0.38537429  1.0
  Ga  Ga1286  1  0.91666667  0.69795905  0.38537429  1.0
  Ga  Ga1287  1  0.08333333  0.26938762  0.31394571  1.0
  Ga  Ga1288  1  0.08333333  0.60272095  0.31394571  1.0
  Ga  Ga1289  1  0.08333333  0.93605429  0.31394571  1.0
  Ga  Ga1290  1  0.41666667  0.26938762  0.31394571  1.0
  Ga  Ga1291  1  0.41666667  0.60272095  0.31394571  1.0
  Ga  Ga1292  1  0.41666667  0.93605429  0.31394571  1.0
  Ga  Ga1293  1  0.75000000  0.26938762  0.31394571  1.0
  Ga  Ga1294  1  0.75000000  0.60272095  0.31394571  1.0
  Ga  Ga1295  1  0.75000000  0.93605429  0.31394571  1.0
  Ga  Ga1296  1  0.12294942  0.09023031  0.37015361  1.0
  Ga  Ga1297  1  0.12294942  0.42356364  0.37015361  1.0
  Ga  Ga1298  1  0.12294942  0.75689698  0.37015361  1.0
  Ga  Ga1299  1  0.45628275  0.09023031  0.37015361  1.0
  Ga  Ga1300  1  0.45628275  0.42356364  0.37015361  1.0
  Ga  Ga1301  1  0.45628275  0.75689698  0.37015361  1.0
  Ga  Ga1302  1  0.78961608  0.09023031  0.37015361  1.0
  Ga  Ga1303  1  0.78961608  0.42356364  0.37015361  1.0
  Ga  Ga1304  1  0.78961608  0.75689698  0.37015361  1.0
  Ga  Ga1305  1  0.28961608  0.32832555  0.29872504  1.0
  Ga  Ga1306  1  0.28961608  0.66165888  0.29872504  1.0
  Ga  Ga1307  1  0.28961608  0.99499221  0.29872504  1.0
  Ga  Ga1308  1  0.62294942  0.32832555  0.29872504  1.0
  Ga  Ga1309  1  0.62294942  0.66165888  0.29872504  1.0
  Ga  Ga1310  1  0.62294942  0.99499221  0.29872504  1.0
  Ga  Ga1311  1  0.95628275  0.32832555  0.29872504  1.0
  Ga  Ga1312  1  0.95628275  0.66165888  0.29872504  1.0
  Ga  Ga1313  1  0.95628275  0.99499221  0.29872504  1.0
  Ga  Ga1314  1  0.04166667  0.04554067  0.33356050  1.0
  Ga  Ga1315  1  0.04166667  0.37887400  0.33356050  1.0
  Ga  Ga1316  1  0.04166667  0.71220733  0.33356050  1.0
  Ga  Ga1317  1  0.37500000  0.04554067  0.33356050  1.0
  Ga  Ga1318  1  0.37500000  0.37887400  0.33356050  1.0
  Ga  Ga1319  1  0.37500000  0.71220733  0.33356050  1.0
  Ga  Ga1320  1  0.70833333  0.04554067  0.33356050  1.0
  Ga  Ga1321  1  0.70833333  0.37887400  0.33356050  1.0
  Ga  Ga1322  1  0.70833333  0.71220733  0.33356050  1.0
  Ga  Ga1323  1  0.20833333  0.14077876  0.40498907  1.0
  Ga  Ga1324  1  0.20833333  0.47411210  0.40498907  1.0
  Ga  Ga1325  1  0.20833333  0.80744543  0.40498907  1.0
  Ga  Ga1326  1  0.54166667  0.14077876  0.40498907  1.0
  Ga  Ga1327  1  0.54166667  0.47411210  0.40498907  1.0
  Ga  Ga1328  1  0.54166667  0.80744543  0.40498907  1.0
  Ga  Ga1329  1  0.87500000  0.14077876  0.40498907  1.0
  Ga  Ga1330  1  0.87500000  0.47411210  0.40498907  1.0
  Ga  Ga1331  1  0.87500000  0.80744543  0.40498907  1.0
  Ga  Ga1332  1  0.29166667  0.15990124  0.29433093  1.0
  Ga  Ga1333  1  0.29166667  0.49323457  0.29433093  1.0
  Ga  Ga1334  1  0.29166667  0.82656790  0.29433093  1.0
  Ga  Ga1335  1  0.62500000  0.15990124  0.29433093  1.0
  Ga  Ga1336  1  0.62500000  0.49323457  0.29433093  1.0
  Ga  Ga1337  1  0.62500000  0.82656790  0.29433093  1.0
  Ga  Ga1338  1  0.95833333  0.15990124  0.29433093  1.0
  Ga  Ga1339  1  0.95833333  0.49323457  0.29433093  1.0
  Ga  Ga1340  1  0.95833333  0.82656790  0.29433093  1.0
  Ga  Ga1341  1  0.12500000  0.25513933  0.36575950  1.0
  Ga  Ga1342  1  0.12500000  0.58847267  0.36575950  1.0
  Ga  Ga1343  1  0.12500000  0.92180600  0.36575950  1.0
  Ga  Ga1344  1  0.45833333  0.25513933  0.36575950  1.0
  Ga  Ga1345  1  0.45833333  0.58847267  0.36575950  1.0
  Ga  Ga1346  1  0.45833333  0.92180600  0.36575950  1.0
  Ga  Ga1347  1  0.79166667  0.25513933  0.36575950  1.0
  Ga  Ga1348  1  0.79166667  0.58847267  0.36575950  1.0
  Ga  Ga1349  1  0.79166667  0.92180600  0.36575950  1.0
  Ga  Ga1350  1  0.29371725  0.04261126  0.33443932  1.0
  Ga  Ga1351  1  0.29371725  0.37594460  0.33443932  1.0
  Ga  Ga1352  1  0.29371725  0.70927793  0.33443932  1.0
  Ga  Ga1353  1  0.62705058  0.04261126  0.33443932  1.0
  Ga  Ga1354  1  0.62705058  0.37594460  0.33443932  1.0
  Ga  Ga1355  1  0.62705058  0.70927793  0.33443932  1.0
  Ga  Ga1356  1  0.96038392  0.04261126  0.33443932  1.0
  Ga  Ga1357  1  0.96038392  0.37594460  0.33443932  1.0
  Ga  Ga1358  1  0.96038392  0.70927793  0.33443932  1.0
  Ga  Ga1359  1  0.12705058  0.13784936  0.40586789  1.0
  Ga  Ga1360  1  0.12705058  0.47118269  0.40586789  1.0
  Ga  Ga1361  1  0.12705058  0.80451602  0.40586789  1.0
  Ga  Ga1362  1  0.46038392  0.13784936  0.40586789  1.0
  Ga  Ga1363  1  0.46038392  0.47118269  0.40586789  1.0
  Ga  Ga1364  1  0.46038392  0.80451602  0.40586789  1.0
  Ga  Ga1365  1  0.79371725  0.13784936  0.40586789  1.0
  Ga  Ga1366  1  0.79371725  0.47118269  0.40586789  1.0
  Ga  Ga1367  1  0.79371725  0.80451602  0.40586789  1.0
  Ga  Ga1368  1  0.28961608  0.13902112  0.40059496  1.0
  Ga  Ga1369  1  0.28961608  0.47235445  0.40059496  1.0
  Ga  Ga1370  1  0.28961608  0.80568779  0.40059496  1.0
  Ga  Ga1371  1  0.62294942  0.13902112  0.40059496  1.0
  Ga  Ga1372  1  0.62294942  0.47235445  0.40059496  1.0
  Ga  Ga1373  1  0.62294942  0.80568779  0.40059496  1.0
  Ga  Ga1374  1  0.95628275  0.13902112  0.40059496  1.0
  Ga  Ga1375  1  0.95628275  0.47235445  0.40059496  1.0
  Ga  Ga1376  1  0.95628275  0.80568779  0.40059496  1.0
  Ga  Ga1377  1  0.12294942  0.04378302  0.32916639  1.0
  Ga  Ga1378  1  0.12294942  0.37711636  0.32916639  1.0
  Ga  Ga1379  1  0.12294942  0.71044969  0.32916639  1.0
  Ga  Ga1380  1  0.45628275  0.04378302  0.32916639  1.0
  Ga  Ga1381  1  0.45628275  0.37711636  0.32916639  1.0
  Ga  Ga1382  1  0.45628275  0.71044969  0.32916639  1.0
  Ga  Ga1383  1  0.78961608  0.04378302  0.32916639  1.0
  Ga  Ga1384  1  0.78961608  0.37711636  0.32916639  1.0
  Ga  Ga1385  1  0.78961608  0.71044969  0.32916639  1.0
  Ga  Ga1386  1  0.33128275  0.10213507  0.31658218  1.0
  Ga  Ga1387  1  0.33128275  0.43546840  0.31658218  1.0
  Ga  Ga1388  1  0.33128275  0.76880174  0.31658218  1.0
  Ga  Ga1389  1  0.66461608  0.10213507  0.31658218  1.0
  Ga  Ga1390  1  0.66461608  0.43546840  0.31658218  1.0
  Ga  Ga1391  1  0.66461608  0.76880174  0.31658218  1.0
  Ga  Ga1392  1  0.99794942  0.10213507  0.31658218  1.0
  Ga  Ga1393  1  0.99794942  0.43546840  0.31658218  1.0
  Ga  Ga1394  1  0.99794942  0.76880174  0.31658218  1.0
  Ga  Ga1395  1  0.16461608  0.19737317  0.38801075  1.0
  Ga  Ga1396  1  0.16461608  0.53070650  0.38801075  1.0
  Ga  Ga1397  1  0.16461608  0.86403983  0.38801075  1.0
  Ga  Ga1398  1  0.49794942  0.19737317  0.38801075  1.0
  Ga  Ga1399  1  0.49794942  0.53070650  0.38801075  1.0
  Ga  Ga1400  1  0.49794942  0.86403983  0.38801075  1.0
  Ga  Ga1401  1  0.83128275  0.19737317  0.38801075  1.0
  Ga  Ga1402  1  0.83128275  0.53070650  0.38801075  1.0
  Ga  Ga1403  1  0.83128275  0.86403983  0.38801075  1.0
  Ga  Ga1404  1  0.25205058  0.14975412  0.35229646  1.0
  Ga  Ga1405  1  0.25205058  0.48308745  0.35229646  1.0
  Ga  Ga1406  1  0.25205058  0.81642079  0.35229646  1.0
  Ga  Ga1407  1  0.58538392  0.14975412  0.35229646  1.0
  Ga  Ga1408  1  0.58538392  0.48308745  0.35229646  1.0
  Ga  Ga1409  1  0.58538392  0.81642079  0.35229646  1.0
  Ga  Ga1410  1  0.91871725  0.14975412  0.35229646  1.0
  Ga  Ga1411  1  0.91871725  0.48308745  0.35229646  1.0
  Ga  Ga1412  1  0.91871725  0.81642079  0.35229646  1.0
  Ga  Ga1413  1  0.08538392  0.24499221  0.42372504  1.0
  Ga  Ga1414  1  0.08538392  0.57832555  0.42372504  1.0
  Ga  Ga1415  1  0.08538392  0.91165888  0.42372504  1.0
  Ga  Ga1416  1  0.41871725  0.24499221  0.42372504  1.0
  Ga  Ga1417  1  0.41871725  0.57832555  0.42372504  1.0
  Ga  Ga1418  1  0.41871725  0.91165888  0.42372504  1.0
  Ga  Ga1419  1  0.75205058  0.24499221  0.42372504  1.0
  Ga  Ga1420  1  0.75205058  0.57832555  0.42372504  1.0
  Ga  Ga1421  1  0.75205058  0.91165888  0.42372504  1.0
  Ga  Ga1422  1  0.04166667  0.08847267  0.36575950  1.0
  Ga  Ga1423  1  0.04166667  0.42180600  0.36575950  1.0
  Ga  Ga1424  1  0.04166667  0.75513933  0.36575950  1.0
  Ga  Ga1425  1  0.37500000  0.08847267  0.36575950  1.0
  Ga  Ga1426  1  0.37500000  0.42180600  0.36575950  1.0
  Ga  Ga1427  1  0.37500000  0.75513933  0.36575950  1.0
  Ga  Ga1428  1  0.70833333  0.08847267  0.36575950  1.0
  Ga  Ga1429  1  0.70833333  0.42180600  0.36575950  1.0
  Ga  Ga1430  1  0.70833333  0.75513933  0.36575950  1.0
  Ga  Ga1431  1  0.20833333  0.32656790  0.29433093  1.0
  Ga  Ga1432  1  0.20833333  0.65990124  0.29433093  1.0
  Ga  Ga1433  1  0.20833333  0.99323457  0.29433093  1.0
  Ga  Ga1434  1  0.54166667  0.32656790  0.29433093  1.0
  Ga  Ga1435  1  0.54166667  0.65990124  0.29433093  1.0
  Ga  Ga1436  1  0.54166667  0.99323457  0.29433093  1.0
  Ga  Ga1437  1  0.87500000  0.32656790  0.29433093  1.0
  Ga  Ga1438  1  0.87500000  0.65990124  0.29433093  1.0
  Ga  Ga1439  1  0.87500000  0.99323457  0.29433093  1.0
  Ga  Ga1440  1  0.33128275  0.03187826  0.38273782  1.0
  Ga  Ga1441  1  0.33128275  0.36521160  0.38273782  1.0
  Ga  Ga1442  1  0.33128275  0.69854493  0.38273782  1.0
  Ga  Ga1443  1  0.66461608  0.03187826  0.38273782  1.0
  Ga  Ga1444  1  0.66461608  0.36521160  0.38273782  1.0
  Ga  Ga1445  1  0.66461608  0.69854493  0.38273782  1.0
  Ga  Ga1446  1  0.99794942  0.03187826  0.38273782  1.0
  Ga  Ga1447  1  0.99794942  0.36521160  0.38273782  1.0
  Ga  Ga1448  1  0.99794942  0.69854493  0.38273782  1.0
  Ga  Ga1449  1  0.16461608  0.26997350  0.31130925  1.0
  Ga  Ga1450  1  0.16461608  0.60330683  0.31130925  1.0
  Ga  Ga1451  1  0.16461608  0.93664017  0.31130925  1.0
  Ga  Ga1452  1  0.49794942  0.26997350  0.31130925  1.0
  Ga  Ga1453  1  0.49794942  0.60330683  0.31130925  1.0
  Ga  Ga1454  1  0.49794942  0.93664017  0.31130925  1.0
  Ga  Ga1455  1  0.83128275  0.26997350  0.31130925  1.0
  Ga  Ga1456  1  0.83128275  0.60330683  0.31130925  1.0
  Ga  Ga1457  1  0.83128275  0.93664017  0.31130925  1.0
  Ga  Ga1458  1  0.29166667  0.30744543  0.40498907  1.0
  Ga  Ga1459  1  0.29166667  0.64077876  0.40498907  1.0
  Ga  Ga1460  1  0.29166667  0.97411210  0.40498907  1.0
  Ga  Ga1461  1  0.62500000  0.30744543  0.40498907  1.0
  Ga  Ga1462  1  0.62500000  0.64077876  0.40498907  1.0
  Ga  Ga1463  1  0.62500000  0.97411210  0.40498907  1.0
  Ga  Ga1464  1  0.95833333  0.30744543  0.40498907  1.0
  Ga  Ga1465  1  0.95833333  0.64077876  0.40498907  1.0
  Ga  Ga1466  1  0.95833333  0.97411210  0.40498907  1.0
  Ga  Ga1467  1  0.12500000  0.21220733  0.33356050  1.0
  Ga  Ga1468  1  0.12500000  0.54554067  0.33356050  1.0
  Ga  Ga1469  1  0.12500000  0.87887400  0.33356050  1.0
  Ga  Ga1470  1  0.45833333  0.21220733  0.33356050  1.0
  Ga  Ga1471  1  0.45833333  0.54554067  0.33356050  1.0
  Ga  Ga1472  1  0.45833333  0.87887400  0.33356050  1.0
  Ga  Ga1473  1  0.79166667  0.21220733  0.33356050  1.0
  Ga  Ga1474  1  0.79166667  0.54554067  0.33356050  1.0
  Ga  Ga1475  1  0.79166667  0.87887400  0.33356050  1.0
  Ga  Ga1476  1  0.29371725  0.09140207  0.36488068  1.0
  Ga  Ga1477  1  0.29371725  0.42473540  0.36488068  1.0
  Ga  Ga1478  1  0.29371725  0.75806874  0.36488068  1.0
  Ga  Ga1479  1  0.62705058  0.09140207  0.36488068  1.0
  Ga  Ga1480  1  0.62705058  0.42473540  0.36488068  1.0
  Ga  Ga1481  1  0.62705058  0.75806874  0.36488068  1.0
  Ga  Ga1482  1  0.96038392  0.09140207  0.36488068  1.0
  Ga  Ga1483  1  0.96038392  0.42473540  0.36488068  1.0
  Ga  Ga1484  1  0.96038392  0.75806874  0.36488068  1.0
  Ga  Ga1485  1  0.12705058  0.32949731  0.29345211  1.0
  Ga  Ga1486  1  0.12705058  0.66283064  0.29345211  1.0
  Ga  Ga1487  1  0.12705058  0.99616398  0.29345211  1.0
  Ga  Ga1488  1  0.46038392  0.32949731  0.29345211  1.0
  Ga  Ga1489  1  0.46038392  0.66283064  0.29345211  1.0
  Ga  Ga1490  1  0.46038392  0.99616398  0.29345211  1.0
  Ga  Ga1491  1  0.79371725  0.32949731  0.29345211  1.0
  Ga  Ga1492  1  0.79371725  0.66283064  0.29345211  1.0
  Ga  Ga1493  1  0.79371725  0.99616398  0.29345211  1.0
  Ga  Ga1494  1  0.08538392  0.07949731  0.41845211  1.0
  Ga  Ga1495  1  0.08538392  0.41283064  0.41845211  1.0
  Ga  Ga1496  1  0.08538392  0.74616398  0.41845211  1.0
  Ga  Ga1497  1  0.41871725  0.07949731  0.41845211  1.0
  Ga  Ga1498  1  0.41871725  0.41283064  0.41845211  1.0
  Ga  Ga1499  1  0.41871725  0.74616398  0.41845211  1.0
  Ga  Ga1500  1  0.75205058  0.07949731  0.41845211  1.0
  Ga  Ga1501  1  0.75205058  0.41283064  0.41845211  1.0
  Ga  Ga1502  1  0.75205058  0.74616398  0.41845211  1.0
  Ga  Ga1503  1  0.25205058  0.31759255  0.34702354  1.0
  Ga  Ga1504  1  0.25205058  0.65092588  0.34702354  1.0
  Ga  Ga1505  1  0.25205058  0.98425921  0.34702354  1.0
  Ga  Ga1506  1  0.58538392  0.31759255  0.34702354  1.0
  Ga  Ga1507  1  0.58538392  0.65092588  0.34702354  1.0
  Ga  Ga1508  1  0.58538392  0.98425921  0.34702354  1.0
  Ga  Ga1509  1  0.91871725  0.31759255  0.34702354  1.0
  Ga  Ga1510  1  0.91871725  0.65092588  0.34702354  1.0
  Ga  Ga1511  1  0.91871725  0.98425921  0.34702354  1.0
  Ga  Ga1512  1  0.21038392  0.21044969  0.32916639  1.0
  Ga  Ga1513  1  0.21038392  0.54378302  0.32916639  1.0
  Ga  Ga1514  1  0.21038392  0.87711636  0.32916639  1.0
  Ga  Ga1515  1  0.54371725  0.21044969  0.32916639  1.0
  Ga  Ga1516  1  0.54371725  0.54378302  0.32916639  1.0
  Ga  Ga1517  1  0.54371725  0.87711636  0.32916639  1.0
  Ga  Ga1518  1  0.87705058  0.21044969  0.32916639  1.0
  Ga  Ga1519  1  0.87705058  0.54378302  0.32916639  1.0
  Ga  Ga1520  1  0.87705058  0.87711636  0.32916639  1.0
  Ga  Ga1521  1  0.04371725  0.30568779  0.40059496  1.0
  Ga  Ga1522  1  0.04371725  0.63902112  0.40059496  1.0
  Ga  Ga1523  1  0.04371725  0.97235445  0.40059496  1.0
  Ga  Ga1524  1  0.37705058  0.30568779  0.40059496  1.0
  Ga  Ga1525  1  0.37705058  0.63902112  0.40059496  1.0
  Ga  Ga1526  1  0.37705058  0.97235445  0.40059496  1.0
  Ga  Ga1527  1  0.71038392  0.30568779  0.40059496  1.0
  Ga  Ga1528  1  0.71038392  0.63902112  0.40059496  1.0
  Ga  Ga1529  1  0.71038392  0.97235445  0.40059496  1.0
  Ga  Ga1530  1  0.29166667  0.25513933  0.36575950  1.0
  Ga  Ga1531  1  0.29166667  0.58847267  0.36575950  1.0
  Ga  Ga1532  1  0.29166667  0.92180600  0.36575950  1.0
  Ga  Ga1533  1  0.62500000  0.25513933  0.36575950  1.0
  Ga  Ga1534  1  0.62500000  0.58847267  0.36575950  1.0
  Ga  Ga1535  1  0.62500000  0.92180600  0.36575950  1.0
  Ga  Ga1536  1  0.95833333  0.25513933  0.36575950  1.0
  Ga  Ga1537  1  0.95833333  0.58847267  0.36575950  1.0
  Ga  Ga1538  1  0.95833333  0.92180600  0.36575950  1.0
  Ga  Ga1539  1  0.12500000  0.15990124  0.29433093  1.0
  Ga  Ga1540  1  0.12500000  0.49323457  0.29433093  1.0
  Ga  Ga1541  1  0.12500000  0.82656790  0.29433093  1.0
  Ga  Ga1542  1  0.45833333  0.15990124  0.29433093  1.0
  Ga  Ga1543  1  0.45833333  0.49323457  0.29433093  1.0
  Ga  Ga1544  1  0.45833333  0.82656790  0.29433093  1.0
  Ga  Ga1545  1  0.79166667  0.15990124  0.29433093  1.0
  Ga  Ga1546  1  0.79166667  0.49323457  0.29433093  1.0
  Ga  Ga1547  1  0.79166667  0.82656790  0.29433093  1.0
  Ga  Ga1548  1  0.04166667  0.14077876  0.40498907  1.0
  Ga  Ga1549  1  0.04166667  0.47411210  0.40498907  1.0
  Ga  Ga1550  1  0.04166667  0.80744543  0.40498907  1.0
  Ga  Ga1551  1  0.37500000  0.14077876  0.40498907  1.0
  Ga  Ga1552  1  0.37500000  0.47411210  0.40498907  1.0
  Ga  Ga1553  1  0.37500000  0.80744543  0.40498907  1.0
  Ga  Ga1554  1  0.70833333  0.14077876  0.40498907  1.0
  Ga  Ga1555  1  0.70833333  0.47411210  0.40498907  1.0
  Ga  Ga1556  1  0.70833333  0.80744543  0.40498907  1.0
  Ga  Ga1557  1  0.20833333  0.04554067  0.33356050  1.0
  Ga  Ga1558  1  0.20833333  0.37887400  0.33356050  1.0
  Ga  Ga1559  1  0.20833333  0.71220733  0.33356050  1.0
  Ga  Ga1560  1  0.54166667  0.04554067  0.33356050  1.0
  Ga  Ga1561  1  0.54166667  0.37887400  0.33356050  1.0
  Ga  Ga1562  1  0.54166667  0.71220733  0.33356050  1.0
  Ga  Ga1563  1  0.87500000  0.04554067  0.33356050  1.0
  Ga  Ga1564  1  0.87500000  0.37887400  0.33356050  1.0
  Ga  Ga1565  1  0.87500000  0.71220733  0.33356050  1.0
  Ga  Ga1566  1  0.03961608  0.25806874  0.36488068  1.0
  Ga  Ga1567  1  0.03961608  0.59140207  0.36488068  1.0
  Ga  Ga1568  1  0.03961608  0.92473540  0.36488068  1.0
  Ga  Ga1569  1  0.37294942  0.25806874  0.36488068  1.0
  Ga  Ga1570  1  0.37294942  0.59140207  0.36488068  1.0
  Ga  Ga1571  1  0.37294942  0.92473540  0.36488068  1.0
  Ga  Ga1572  1  0.70628275  0.25806874  0.36488068  1.0
  Ga  Ga1573  1  0.70628275  0.59140207  0.36488068  1.0
  Ga  Ga1574  1  0.70628275  0.92473540  0.36488068  1.0
  Ga  Ga1575  1  0.20628275  0.16283064  0.29345211  1.0
  Ga  Ga1576  1  0.20628275  0.49616398  0.29345211  1.0
  Ga  Ga1577  1  0.20628275  0.82949731  0.29345211  1.0
  Ga  Ga1578  1  0.53961608  0.16283064  0.29345211  1.0
  Ga  Ga1579  1  0.53961608  0.49616398  0.29345211  1.0
  Ga  Ga1580  1  0.53961608  0.82949731  0.29345211  1.0
  Ga  Ga1581  1  0.87294942  0.16283064  0.29345211  1.0
  Ga  Ga1582  1  0.87294942  0.49616398  0.29345211  1.0
  Ga  Ga1583  1  0.87294942  0.82949731  0.29345211  1.0
  Ga  Ga1584  1  0.04371725  0.16165888  0.29872504  1.0
  Ga  Ga1585  1  0.04371725  0.49499221  0.29872504  1.0
  Ga  Ga1586  1  0.04371725  0.82832555  0.29872504  1.0
  Ga  Ga1587  1  0.37705058  0.16165888  0.29872504  1.0
  Ga  Ga1588  1  0.37705058  0.49499221  0.29872504  1.0
  Ga  Ga1589  1  0.37705058  0.82832555  0.29872504  1.0
  Ga  Ga1590  1  0.71038392  0.16165888  0.29872504  1.0
  Ga  Ga1591  1  0.71038392  0.49499221  0.29872504  1.0
  Ga  Ga1592  1  0.71038392  0.82832555  0.29872504  1.0
  Ga  Ga1593  1  0.21038392  0.25689698  0.37015361  1.0
  Ga  Ga1594  1  0.21038392  0.59023031  0.37015361  1.0
  Ga  Ga1595  1  0.21038392  0.92356364  0.37015361  1.0
  Ga  Ga1596  1  0.54371725  0.25689698  0.37015361  1.0
  Ga  Ga1597  1  0.54371725  0.59023031  0.37015361  1.0
  Ga  Ga1598  1  0.54371725  0.92356364  0.37015361  1.0
  Ga  Ga1599  1  0.87705058  0.25689698  0.37015361  1.0
  Ga  Ga1600  1  0.87705058  0.59023031  0.37015361  1.0
  Ga  Ga1601  1  0.87705058  0.92356364  0.37015361  1.0
  Ga  Ga1602  1  0.00205058  0.19854493  0.38273782  1.0
  Ga  Ga1603  1  0.00205058  0.53187826  0.38273782  1.0
  Ga  Ga1604  1  0.00205058  0.86521160  0.38273782  1.0
  Ga  Ga1605  1  0.33538392  0.19854493  0.38273782  1.0
  Ga  Ga1606  1  0.33538392  0.53187826  0.38273782  1.0
  Ga  Ga1607  1  0.33538392  0.86521160  0.38273782  1.0
  Ga  Ga1608  1  0.66871725  0.19854493  0.38273782  1.0
  Ga  Ga1609  1  0.66871725  0.53187826  0.38273782  1.0
  Ga  Ga1610  1  0.66871725  0.86521160  0.38273782  1.0
  Ga  Ga1611  1  0.16871725  0.10330683  0.31130925  1.0
  Ga  Ga1612  1  0.16871725  0.43664017  0.31130925  1.0
  Ga  Ga1613  1  0.16871725  0.76997350  0.31130925  1.0
  Ga  Ga1614  1  0.50205058  0.10330683  0.31130925  1.0
  Ga  Ga1615  1  0.50205058  0.43664017  0.31130925  1.0
  Ga  Ga1616  1  0.50205058  0.76997350  0.31130925  1.0
  Ga  Ga1617  1  0.83538392  0.10330683  0.31130925  1.0
  Ga  Ga1618  1  0.83538392  0.43664017  0.31130925  1.0
  Ga  Ga1619  1  0.83538392  0.76997350  0.31130925  1.0
  Ga  Ga1620  1  0.08128275  0.15092588  0.34702354  1.0
  Ga  Ga1621  1  0.08128275  0.48425921  0.34702354  1.0
  Ga  Ga1622  1  0.08128275  0.81759255  0.34702354  1.0
  Ga  Ga1623  1  0.41461608  0.15092588  0.34702354  1.0
  Ga  Ga1624  1  0.41461608  0.48425921  0.34702354  1.0
  Ga  Ga1625  1  0.41461608  0.81759255  0.34702354  1.0
  Ga  Ga1626  1  0.74794942  0.15092588  0.34702354  1.0
  Ga  Ga1627  1  0.74794942  0.48425921  0.34702354  1.0
  Ga  Ga1628  1  0.74794942  0.81759255  0.34702354  1.0
  Ga  Ga1629  1  0.24794942  0.24616398  0.41845211  1.0
  Ga  Ga1630  1  0.24794942  0.57949731  0.41845211  1.0
  Ga  Ga1631  1  0.24794942  0.91283064  0.41845211  1.0
  Ga  Ga1632  1  0.58128275  0.24616398  0.41845211  1.0
  Ga  Ga1633  1  0.58128275  0.57949731  0.41845211  1.0
  Ga  Ga1634  1  0.58128275  0.91283064  0.41845211  1.0
  Ga  Ga1635  1  0.91461608  0.24616398  0.41845211  1.0
  Ga  Ga1636  1  0.91461608  0.57949731  0.41845211  1.0
  Ga  Ga1637  1  0.91461608  0.91283064  0.41845211  1.0
  Ga  Ga1638  1  0.29166667  0.21220733  0.33356050  1.0
  Ga  Ga1639  1  0.29166667  0.54554067  0.33356050  1.0
  Ga  Ga1640  1  0.29166667  0.87887400  0.33356050  1.0
  Ga  Ga1641  1  0.62500000  0.21220733  0.33356050  1.0
  Ga  Ga1642  1  0.62500000  0.54554067  0.33356050  1.0
  Ga  Ga1643  1  0.62500000  0.87887400  0.33356050  1.0
  Ga  Ga1644  1  0.95833333  0.21220733  0.33356050  1.0
  Ga  Ga1645  1  0.95833333  0.54554067  0.33356050  1.0
  Ga  Ga1646  1  0.95833333  0.87887400  0.33356050  1.0
  Ga  Ga1647  1  0.12500000  0.30744543  0.40498907  1.0
  Ga  Ga1648  1  0.12500000  0.64077876  0.40498907  1.0
  Ga  Ga1649  1  0.12500000  0.97411210  0.40498907  1.0
  Ga  Ga1650  1  0.45833333  0.30744543  0.40498907  1.0
  Ga  Ga1651  1  0.45833333  0.64077876  0.40498907  1.0
  Ga  Ga1652  1  0.45833333  0.97411210  0.40498907  1.0
  Ga  Ga1653  1  0.79166667  0.30744543  0.40498907  1.0
  Ga  Ga1654  1  0.79166667  0.64077876  0.40498907  1.0
  Ga  Ga1655  1  0.79166667  0.97411210  0.40498907  1.0
  Ga  Ga1656  1  0.00205058  0.26880174  0.31658218  1.0
  Ga  Ga1657  1  0.00205058  0.60213507  0.31658218  1.0
  Ga  Ga1658  1  0.00205058  0.93546840  0.31658218  1.0
  Ga  Ga1659  1  0.33538392  0.26880174  0.31658218  1.0
  Ga  Ga1660  1  0.33538392  0.60213507  0.31658218  1.0
  Ga  Ga1661  1  0.33538392  0.93546840  0.31658218  1.0
  Ga  Ga1662  1  0.66871725  0.26880174  0.31658218  1.0
  Ga  Ga1663  1  0.66871725  0.60213507  0.31658218  1.0
  Ga  Ga1664  1  0.66871725  0.93546840  0.31658218  1.0
  Ga  Ga1665  1  0.16871725  0.03070650  0.38801075  1.0
  Ga  Ga1666  1  0.16871725  0.36403983  0.38801075  1.0
  Ga  Ga1667  1  0.16871725  0.69737317  0.38801075  1.0
  Ga  Ga1668  1  0.50205058  0.03070650  0.38801075  1.0
  Ga  Ga1669  1  0.50205058  0.36403983  0.38801075  1.0
  Ga  Ga1670  1  0.50205058  0.69737317  0.38801075  1.0
  Ga  Ga1671  1  0.83538392  0.03070650  0.38801075  1.0
  Ga  Ga1672  1  0.83538392  0.36403983  0.38801075  1.0
  Ga  Ga1673  1  0.83538392  0.69737317  0.38801075  1.0
  Ga  Ga1674  1  0.04166667  0.32656790  0.29433093  1.0
  Ga  Ga1675  1  0.04166667  0.65990124  0.29433093  1.0
  Ga  Ga1676  1  0.04166667  0.99323457  0.29433093  1.0
  Ga  Ga1677  1  0.37500000  0.32656790  0.29433093  1.0
  Ga  Ga1678  1  0.37500000  0.65990124  0.29433093  1.0
  Ga  Ga1679  1  0.37500000  0.99323457  0.29433093  1.0
  Ga  Ga1680  1  0.70833333  0.32656790  0.29433093  1.0
  Ga  Ga1681  1  0.70833333  0.65990124  0.29433093  1.0
  Ga  Ga1682  1  0.70833333  0.99323457  0.29433093  1.0
  Ga  Ga1683  1  0.20833333  0.08847267  0.36575950  1.0
  Ga  Ga1684  1  0.20833333  0.42180600  0.36575950  1.0
  Ga  Ga1685  1  0.20833333  0.75513933  0.36575950  1.0
  Ga  Ga1686  1  0.54166667  0.08847267  0.36575950  1.0
  Ga  Ga1687  1  0.54166667  0.42180600  0.36575950  1.0
  Ga  Ga1688  1  0.54166667  0.75513933  0.36575950  1.0
  Ga  Ga1689  1  0.87500000  0.08847267  0.36575950  1.0
  Ga  Ga1690  1  0.87500000  0.42180600  0.36575950  1.0
  Ga  Ga1691  1  0.87500000  0.75513933  0.36575950  1.0
  Ga  Ga1692  1  0.03961608  0.20927793  0.33443932  1.0
  Ga  Ga1693  1  0.03961608  0.54261126  0.33443932  1.0
  Ga  Ga1694  1  0.03961608  0.87594460  0.33443932  1.0
  Ga  Ga1695  1  0.37294942  0.20927793  0.33443932  1.0
  Ga  Ga1696  1  0.37294942  0.54261126  0.33443932  1.0
  Ga  Ga1697  1  0.37294942  0.87594460  0.33443932  1.0
  Ga  Ga1698  1  0.70628275  0.20927793  0.33443932  1.0
  Ga  Ga1699  1  0.70628275  0.54261126  0.33443932  1.0
  Ga  Ga1700  1  0.70628275  0.87594460  0.33443932  1.0
  Ga  Ga1701  1  0.20628275  0.30451602  0.40586789  1.0
  Ga  Ga1702  1  0.20628275  0.63784936  0.40586789  1.0
  Ga  Ga1703  1  0.20628275  0.97118269  0.40586789  1.0
  Ga  Ga1704  1  0.53961608  0.30451602  0.40586789  1.0
  Ga  Ga1705  1  0.53961608  0.63784936  0.40586789  1.0
  Ga  Ga1706  1  0.53961608  0.97118269  0.40586789  1.0
  Ga  Ga1707  1  0.87294942  0.30451602  0.40586789  1.0
  Ga  Ga1708  1  0.87294942  0.63784936  0.40586789  1.0
  Ga  Ga1709  1  0.87294942  0.97118269  0.40586789  1.0
  Ga  Ga1710  1  0.24794942  0.07832555  0.42372504  1.0
  Ga  Ga1711  1  0.24794942  0.41165888  0.42372504  1.0
  Ga  Ga1712  1  0.24794942  0.74499221  0.42372504  1.0
  Ga  Ga1713  1  0.58128275  0.07832555  0.42372504  1.0
  Ga  Ga1714  1  0.58128275  0.41165888  0.42372504  1.0
  Ga  Ga1715  1  0.58128275  0.74499221  0.42372504  1.0
  Ga  Ga1716  1  0.91461608  0.07832555  0.42372504  1.0
  Ga  Ga1717  1  0.91461608  0.41165888  0.42372504  1.0
  Ga  Ga1718  1  0.91461608  0.74499221  0.42372504  1.0
  Ga  Ga1719  1  0.08128275  0.31642079  0.35229646  1.0
  Ga  Ga1720  1  0.08128275  0.64975412  0.35229646  1.0
  Ga  Ga1721  1  0.08128275  0.98308745  0.35229646  1.0
  Ga  Ga1722  1  0.41461608  0.31642079  0.35229646  1.0
  Ga  Ga1723  1  0.41461608  0.64975412  0.35229646  1.0
  Ga  Ga1724  1  0.41461608  0.98308745  0.35229646  1.0
  Ga  Ga1725  1  0.74794942  0.31642079  0.35229646  1.0
  Ga  Ga1726  1  0.74794942  0.64975412  0.35229646  1.0
  Ga  Ga1727  1  0.74794942  0.98308745  0.35229646  1.0
  Ni  Ni1728  1  0.33198400  0.13727867  0.02534000  1.0
  Ni  Ni1729  1  0.33198400  0.47061200  0.02534000  1.0
  Ni  Ni1730  1  0.33198400  0.80394533  0.02534000  1.0
  Ni  Ni1731  1  0.66531733  0.13727867  0.02534000  1.0
  Ni  Ni1732  1  0.66531733  0.47061200  0.02534000  1.0
  Ni  Ni1733  1  0.66531733  0.80394533  0.02534000  1.0
  Ni  Ni1734  1  0.99865067  0.13727867  0.02534000  1.0
  Ni  Ni1735  1  0.99865067  0.47061200  0.02534000  1.0
  Ni  Ni1736  1  0.99865067  0.80394533  0.02534000  1.0
  Ni  Ni1737  1  0.16531733  0.23251676  0.09676857  1.0
  Ni  Ni1738  1  0.16531733  0.56585010  0.09676857  1.0
  Ni  Ni1739  1  0.16531733  0.89918343  0.09676857  1.0
  Ni  Ni1740  1  0.49865067  0.23251676  0.09676857  1.0
  Ni  Ni1741  1  0.49865067  0.56585010  0.09676857  1.0
  Ni  Ni1742  1  0.49865067  0.89918343  0.09676857  1.0
  Ni  Ni1743  1  0.83198400  0.23251676  0.09676857  1.0
  Ni  Ni1744  1  0.83198400  0.56585010  0.09676857  1.0
  Ni  Ni1745  1  0.83198400  0.89918343  0.09676857  1.0
  Ni  Ni1746  1  0.33063467  0.11462571  0.13537429  1.0
  Ni  Ni1747  1  0.33063467  0.44795905  0.13537429  1.0
  Ni  Ni1748  1  0.33063467  0.78129238  0.13537429  1.0
  Ni  Ni1749  1  0.66396800  0.11462571  0.13537429  1.0
  Ni  Ni1750  1  0.66396800  0.44795905  0.13537429  1.0
  Ni  Ni1751  1  0.66396800  0.78129238  0.13537429  1.0
  Ni  Ni1752  1  0.99730133  0.11462571  0.13537429  1.0
  Ni  Ni1753  1  0.99730133  0.44795905  0.13537429  1.0
  Ni  Ni1754  1  0.99730133  0.78129238  0.13537429  1.0
  Ni  Ni1755  1  0.16396800  0.01938762  0.06394571  1.0
  Ni  Ni1756  1  0.16396800  0.35272095  0.06394571  1.0
  Ni  Ni1757  1  0.16396800  0.68605429  0.06394571  1.0
  Ni  Ni1758  1  0.49730133  0.01938762  0.06394571  1.0
  Ni  Ni1759  1  0.49730133  0.35272095  0.06394571  1.0
  Ni  Ni1760  1  0.49730133  0.68605429  0.06394571  1.0
  Ni  Ni1761  1  0.83063467  0.01938762  0.06394571  1.0
  Ni  Ni1762  1  0.83063467  0.35272095  0.06394571  1.0
  Ni  Ni1763  1  0.83063467  0.68605429  0.06394571  1.0
  Ni  Ni1764  1  0.29166667  0.19873010  0.00690457  1.0
  Ni  Ni1765  1  0.29166667  0.53206343  0.00690457  1.0
  Ni  Ni1766  1  0.29166667  0.86539676  0.00690457  1.0
  Ni  Ni1767  1  0.62500000  0.19873010  0.00690457  1.0
  Ni  Ni1768  1  0.62500000  0.53206343  0.00690457  1.0
  Ni  Ni1769  1  0.62500000  0.86539676  0.00690457  1.0
  Ni  Ni1770  1  0.95833333  0.19873010  0.00690457  1.0
  Ni  Ni1771  1  0.95833333  0.53206343  0.00690457  1.0
  Ni  Ni1772  1  0.95833333  0.86539676  0.00690457  1.0
  Ni  Ni1773  1  0.12500000  0.29396819  0.07833314  1.0
  Ni  Ni1774  1  0.12500000  0.62730152  0.07833314  1.0
  Ni  Ni1775  1  0.12500000  0.96063486  0.07833314  1.0
  Ni  Ni1776  1  0.45833333  0.29396819  0.07833314  1.0
  Ni  Ni1777  1  0.45833333  0.62730152  0.07833314  1.0
  Ni  Ni1778  1  0.45833333  0.96063486  0.07833314  1.0
  Ni  Ni1779  1  0.79166667  0.29396819  0.07833314  1.0
  Ni  Ni1780  1  0.79166667  0.62730152  0.07833314  1.0
  Ni  Ni1781  1  0.79166667  0.96063486  0.07833314  1.0
  Ni  Ni1782  1  0.04031733  0.07698381  0.04666686  1.0
  Ni  Ni1783  1  0.04031733  0.41031714  0.04666686  1.0
  Ni  Ni1784  1  0.04031733  0.74365048  0.04666686  1.0
  Ni  Ni1785  1  0.37365067  0.07698381  0.04666686  1.0
  Ni  Ni1786  1  0.37365067  0.41031714  0.04666686  1.0
  Ni  Ni1787  1  0.37365067  0.74365048  0.04666686  1.0
  Ni  Ni1788  1  0.70698400  0.07698381  0.04666686  1.0
  Ni  Ni1789  1  0.70698400  0.41031714  0.04666686  1.0
  Ni  Ni1790  1  0.70698400  0.74365048  0.04666686  1.0
  Ni  Ni1791  1  0.20698400  0.17222190  0.11809543  1.0
  Ni  Ni1792  1  0.20698400  0.50555524  0.11809543  1.0
  Ni  Ni1793  1  0.20698400  0.83888857  0.11809543  1.0
  Ni  Ni1794  1  0.54031733  0.17222190  0.11809543  1.0
  Ni  Ni1795  1  0.54031733  0.50555524  0.11809543  1.0
  Ni  Ni1796  1  0.54031733  0.83888857  0.11809543  1.0
  Ni  Ni1797  1  0.87365067  0.17222190  0.11809543  1.0
  Ni  Ni1798  1  0.87365067  0.50555524  0.11809543  1.0
  Ni  Ni1799  1  0.87365067  0.83888857  0.11809543  1.0
  Ni  Ni1800  1  0.04301600  0.19680248  0.00748286  1.0
  Ni  Ni1801  1  0.04301600  0.53013581  0.00748286  1.0
  Ni  Ni1802  1  0.04301600  0.86346914  0.00748286  1.0
  Ni  Ni1803  1  0.37634933  0.19680248  0.00748286  1.0
  Ni  Ni1804  1  0.37634933  0.53013581  0.00748286  1.0
  Ni  Ni1805  1  0.37634933  0.86346914  0.00748286  1.0
  Ni  Ni1806  1  0.70968267  0.19680248  0.00748286  1.0
  Ni  Ni1807  1  0.70968267  0.53013581  0.00748286  1.0
  Ni  Ni1808  1  0.70968267  0.86346914  0.00748286  1.0
  Ni  Ni1809  1  0.20968267  0.29204057  0.07891143  1.0
  Ni  Ni1810  1  0.20968267  0.62537390  0.07891143  1.0
  Ni  Ni1811  1  0.20968267  0.95870724  0.07891143  1.0
  Ni  Ni1812  1  0.54301600  0.29204057  0.07891143  1.0
  Ni  Ni1813  1  0.54301600  0.62537390  0.07891143  1.0
  Ni  Ni1814  1  0.54301600  0.95870724  0.07891143  1.0
  Ni  Ni1815  1  0.87634933  0.29204057  0.07891143  1.0
  Ni  Ni1816  1  0.87634933  0.62537390  0.07891143  1.0
  Ni  Ni1817  1  0.87634933  0.95870724  0.07891143  1.0
  Ni  Ni1818  1  0.25134933  0.13650762  0.02880971  1.0
  Ni  Ni1819  1  0.25134933  0.46984095  0.02880971  1.0
  Ni  Ni1820  1  0.25134933  0.80317429  0.02880971  1.0
  Ni  Ni1821  1  0.58468267  0.13650762  0.02880971  1.0
  Ni  Ni1822  1  0.58468267  0.46984095  0.02880971  1.0
  Ni  Ni1823  1  0.58468267  0.80317429  0.02880971  1.0
  Ni  Ni1824  1  0.91801600  0.13650762  0.02880971  1.0
  Ni  Ni1825  1  0.91801600  0.46984095  0.02880971  1.0
  Ni  Ni1826  1  0.91801600  0.80317429  0.02880971  1.0
  Ni  Ni1827  1  0.08468267  0.23174571  0.10023829  1.0
  Ni  Ni1828  1  0.08468267  0.56507905  0.10023829  1.0
  Ni  Ni1829  1  0.08468267  0.89841238  0.10023829  1.0
  Ni  Ni1830  1  0.41801600  0.23174571  0.10023829  1.0
  Ni  Ni1831  1  0.41801600  0.56507905  0.10023829  1.0
  Ni  Ni1832  1  0.41801600  0.89841238  0.10023829  1.0
  Ni  Ni1833  1  0.75134933  0.23174571  0.10023829  1.0
  Ni  Ni1834  1  0.75134933  0.56507905  0.10023829  1.0
  Ni  Ni1835  1  0.75134933  0.89841238  0.10023829  1.0
  Ni  Ni1836  1  0.04031733  0.29512476  0.08122457  1.0
  Ni  Ni1837  1  0.04031733  0.62845810  0.08122457  1.0
  Ni  Ni1838  1  0.04031733  0.96179143  0.08122457  1.0
  Ni  Ni1839  1  0.37365067  0.29512476  0.08122457  1.0
  Ni  Ni1840  1  0.37365067  0.62845810  0.08122457  1.0
  Ni  Ni1841  1  0.37365067  0.96179143  0.08122457  1.0
  Ni  Ni1842  1  0.70698400  0.29512476  0.08122457  1.0
  Ni  Ni1843  1  0.70698400  0.62845810  0.08122457  1.0
  Ni  Ni1844  1  0.70698400  0.96179143  0.08122457  1.0
  Ni  Ni1845  1  0.20698400  0.19988667  0.00979600  1.0
  Ni  Ni1846  1  0.20698400  0.53322000  0.00979600  1.0
  Ni  Ni1847  1  0.20698400  0.86655333  0.00979600  1.0
  Ni  Ni1848  1  0.54031733  0.19988667  0.00979600  1.0
  Ni  Ni1849  1  0.54031733  0.53322000  0.00979600  1.0
  Ni  Ni1850  1  0.54031733  0.86655333  0.00979600  1.0
  Ni  Ni1851  1  0.87365067  0.19988667  0.00979600  1.0
  Ni  Ni1852  1  0.87365067  0.53322000  0.00979600  1.0
  Ni  Ni1853  1  0.87365067  0.86655333  0.00979600  1.0
  Ni  Ni1854  1  0.33198400  0.23482990  0.10255143  1.0
  Ni  Ni1855  1  0.33198400  0.56816324  0.10255143  1.0
  Ni  Ni1856  1  0.33198400  0.90149657  0.10255143  1.0
  Ni  Ni1857  1  0.66531733  0.23482990  0.10255143  1.0
  Ni  Ni1858  1  0.66531733  0.56816324  0.10255143  1.0
  Ni  Ni1859  1  0.66531733  0.90149657  0.10255143  1.0
  Ni  Ni1860  1  0.99865067  0.23482990  0.10255143  1.0
  Ni  Ni1861  1  0.99865067  0.56816324  0.10255143  1.0
  Ni  Ni1862  1  0.99865067  0.90149657  0.10255143  1.0
  Ni  Ni1863  1  0.16531733  0.13959181  0.03112286  1.0
  Ni  Ni1864  1  0.16531733  0.47292514  0.03112286  1.0
  Ni  Ni1865  1  0.16531733  0.80625848  0.03112286  1.0
  Ni  Ni1866  1  0.49865067  0.13959181  0.03112286  1.0
  Ni  Ni1867  1  0.49865067  0.47292514  0.03112286  1.0
  Ni  Ni1868  1  0.49865067  0.80625848  0.03112286  1.0
  Ni  Ni1869  1  0.83198400  0.13959181  0.03112286  1.0
  Ni  Ni1870  1  0.83198400  0.47292514  0.03112286  1.0
  Ni  Ni1871  1  0.83198400  0.80625848  0.03112286  1.0
  Ni  Ni1872  1  0.25269867  0.01938762  0.06394571  1.0
  Ni  Ni1873  1  0.25269867  0.35272095  0.06394571  1.0
  Ni  Ni1874  1  0.25269867  0.68605429  0.06394571  1.0
  Ni  Ni1875  1  0.58603200  0.01938762  0.06394571  1.0
  Ni  Ni1876  1  0.58603200  0.35272095  0.06394571  1.0
  Ni  Ni1877  1  0.58603200  0.68605429  0.06394571  1.0
  Ni  Ni1878  1  0.91936533  0.01938762  0.06394571  1.0
  Ni  Ni1879  1  0.91936533  0.35272095  0.06394571  1.0
  Ni  Ni1880  1  0.91936533  0.68605429  0.06394571  1.0
  Ni  Ni1881  1  0.08603200  0.11462571  0.13537429  1.0
  Ni  Ni1882  1  0.08603200  0.44795905  0.13537429  1.0
  Ni  Ni1883  1  0.08603200  0.78129238  0.13537429  1.0
  Ni  Ni1884  1  0.41936533  0.11462571  0.13537429  1.0
  Ni  Ni1885  1  0.41936533  0.44795905  0.13537429  1.0
  Ni  Ni1886  1  0.41936533  0.78129238  0.13537429  1.0
  Ni  Ni1887  1  0.75269867  0.11462571  0.13537429  1.0
  Ni  Ni1888  1  0.75269867  0.44795905  0.13537429  1.0
  Ni  Ni1889  1  0.75269867  0.78129238  0.13537429  1.0
  Ni  Ni1890  1  0.12500000  0.07814038  0.04955829  1.0
  Ni  Ni1891  1  0.12500000  0.41147371  0.04955829  1.0
  Ni  Ni1892  1  0.12500000  0.74480705  0.04955829  1.0
  Ni  Ni1893  1  0.45833333  0.07814038  0.04955829  1.0
  Ni  Ni1894  1  0.45833333  0.41147371  0.04955829  1.0
  Ni  Ni1895  1  0.45833333  0.74480705  0.04955829  1.0
  Ni  Ni1896  1  0.79166667  0.07814038  0.04955829  1.0
  Ni  Ni1897  1  0.79166667  0.41147371  0.04955829  1.0
  Ni  Ni1898  1  0.79166667  0.74480705  0.04955829  1.0
  Ni  Ni1899  1  0.29166667  0.17337848  0.12098686  1.0
  Ni  Ni1900  1  0.29166667  0.50671181  0.12098686  1.0
  Ni  Ni1901  1  0.29166667  0.84004514  0.12098686  1.0
  Ni  Ni1902  1  0.62500000  0.17337848  0.12098686  1.0
  Ni  Ni1903  1  0.62500000  0.50671181  0.12098686  1.0
  Ni  Ni1904  1  0.62500000  0.84004514  0.12098686  1.0
  Ni  Ni1905  1  0.95833333  0.17337848  0.12098686  1.0
  Ni  Ni1906  1  0.95833333  0.50671181  0.12098686  1.0
  Ni  Ni1907  1  0.95833333  0.84004514  0.12098686  1.0
  Ni  Ni1908  1  0.08468267  0.14036286  0.02765314  1.0
  Ni  Ni1909  1  0.08468267  0.47369619  0.02765314  1.0
  Ni  Ni1910  1  0.08468267  0.80702952  0.02765314  1.0
  Ni  Ni1911  1  0.41801600  0.14036286  0.02765314  1.0
  Ni  Ni1912  1  0.41801600  0.47369619  0.02765314  1.0
  Ni  Ni1913  1  0.41801600  0.80702952  0.02765314  1.0
  Ni  Ni1914  1  0.75134933  0.14036286  0.02765314  1.0
  Ni  Ni1915  1  0.75134933  0.47369619  0.02765314  1.0
  Ni  Ni1916  1  0.75134933  0.80702952  0.02765314  1.0
  Ni  Ni1917  1  0.25134933  0.23560095  0.09908171  1.0
  Ni  Ni1918  1  0.25134933  0.56893429  0.09908171  1.0
  Ni  Ni1919  1  0.25134933  0.90226762  0.09908171  1.0
  Ni  Ni1920  1  0.58468267  0.23560095  0.09908171  1.0
  Ni  Ni1921  1  0.58468267  0.56893429  0.09908171  1.0
  Ni  Ni1922  1  0.58468267  0.90226762  0.09908171  1.0
  Ni  Ni1923  1  0.91801600  0.23560095  0.09908171  1.0
  Ni  Ni1924  1  0.91801600  0.56893429  0.09908171  1.0
  Ni  Ni1925  1  0.91801600  0.90226762  0.09908171  1.0
  Ni  Ni1926  1  0.20968267  0.08006800  0.04898000  1.0
  Ni  Ni1927  1  0.20968267  0.41340133  0.04898000  1.0
  Ni  Ni1928  1  0.20968267  0.74673467  0.04898000  1.0
  Ni  Ni1929  1  0.54301600  0.08006800  0.04898000  1.0
  Ni  Ni1930  1  0.54301600  0.41340133  0.04898000  1.0
  Ni  Ni1931  1  0.54301600  0.74673467  0.04898000  1.0
  Ni  Ni1932  1  0.87634933  0.08006800  0.04898000  1.0
  Ni  Ni1933  1  0.87634933  0.41340133  0.04898000  1.0
  Ni  Ni1934  1  0.87634933  0.74673467  0.04898000  1.0
  Ni  Ni1935  1  0.04301600  0.17530610  0.12040857  1.0
  Ni  Ni1936  1  0.04301600  0.50863943  0.12040857  1.0
  Ni  Ni1937  1  0.04301600  0.84197276  0.12040857  1.0
  Ni  Ni1938  1  0.37634933  0.17530610  0.12040857  1.0
  Ni  Ni1939  1  0.37634933  0.50863943  0.12040857  1.0
  Ni  Ni1940  1  0.37634933  0.84197276  0.12040857  1.0
  Ni  Ni1941  1  0.70968267  0.17530610  0.12040857  1.0
  Ni  Ni1942  1  0.70968267  0.50863943  0.12040857  1.0
  Ni  Ni1943  1  0.70968267  0.84197276  0.12040857  1.0
  Ni  Ni1944  1  0.00134933  0.06816324  0.10255143  1.0
  Ni  Ni1945  1  0.00134933  0.40149657  0.10255143  1.0
  Ni  Ni1946  1  0.00134933  0.73482990  0.10255143  1.0
  Ni  Ni1947  1  0.33468267  0.06816324  0.10255143  1.0
  Ni  Ni1948  1  0.33468267  0.40149657  0.10255143  1.0
  Ni  Ni1949  1  0.33468267  0.73482990  0.10255143  1.0
  Ni  Ni1950  1  0.66801600  0.06816324  0.10255143  1.0
  Ni  Ni1951  1  0.66801600  0.40149657  0.10255143  1.0
  Ni  Ni1952  1  0.66801600  0.73482990  0.10255143  1.0
  Ni  Ni1953  1  0.16801600  0.30625848  0.03112286  1.0
  Ni  Ni1954  1  0.16801600  0.63959181  0.03112286  1.0
  Ni  Ni1955  1  0.16801600  0.97292514  0.03112286  1.0
  Ni  Ni1956  1  0.50134933  0.30625848  0.03112286  1.0
  Ni  Ni1957  1  0.50134933  0.63959181  0.03112286  1.0
  Ni  Ni1958  1  0.50134933  0.97292514  0.03112286  1.0
  Ni  Ni1959  1  0.83468267  0.30625848  0.03112286  1.0
  Ni  Ni1960  1  0.83468267  0.63959181  0.03112286  1.0
  Ni  Ni1961  1  0.83468267  0.97292514  0.03112286  1.0
  Ni  Ni1962  1  0.00269867  0.28129238  0.13537429  1.0
  Ni  Ni1963  1  0.00269867  0.61462571  0.13537429  1.0
  Ni  Ni1964  1  0.00269867  0.94795905  0.13537429  1.0
  Ni  Ni1965  1  0.33603200  0.28129238  0.13537429  1.0
  Ni  Ni1966  1  0.33603200  0.61462571  0.13537429  1.0
  Ni  Ni1967  1  0.33603200  0.94795905  0.13537429  1.0
  Ni  Ni1968  1  0.66936533  0.28129238  0.13537429  1.0
  Ni  Ni1969  1  0.66936533  0.61462571  0.13537429  1.0
  Ni  Ni1970  1  0.66936533  0.94795905  0.13537429  1.0
  Ni  Ni1971  1  0.16936533  0.18605429  0.06394571  1.0
  Ni  Ni1972  1  0.16936533  0.51938762  0.06394571  1.0
  Ni  Ni1973  1  0.16936533  0.85272095  0.06394571  1.0
  Ni  Ni1974  1  0.50269867  0.18605429  0.06394571  1.0
  Ni  Ni1975  1  0.50269867  0.51938762  0.06394571  1.0
  Ni  Ni1976  1  0.50269867  0.85272095  0.06394571  1.0
  Ni  Ni1977  1  0.83603200  0.18605429  0.06394571  1.0
  Ni  Ni1978  1  0.83603200  0.51938762  0.06394571  1.0
  Ni  Ni1979  1  0.83603200  0.85272095  0.06394571  1.0
  Ni  Ni1980  1  0.04166667  0.00671181  0.12098686  1.0
  Ni  Ni1981  1  0.04166667  0.34004514  0.12098686  1.0
  Ni  Ni1982  1  0.04166667  0.67337848  0.12098686  1.0
  Ni  Ni1983  1  0.37500000  0.00671181  0.12098686  1.0
  Ni  Ni1984  1  0.37500000  0.34004514  0.12098686  1.0
  Ni  Ni1985  1  0.37500000  0.67337848  0.12098686  1.0
  Ni  Ni1986  1  0.70833333  0.00671181  0.12098686  1.0
  Ni  Ni1987  1  0.70833333  0.34004514  0.12098686  1.0
  Ni  Ni1988  1  0.70833333  0.67337848  0.12098686  1.0
  Ni  Ni1989  1  0.20833333  0.24480705  0.04955829  1.0
  Ni  Ni1990  1  0.20833333  0.57814038  0.04955829  1.0
  Ni  Ni1991  1  0.20833333  0.91147371  0.04955829  1.0
  Ni  Ni1992  1  0.54166667  0.24480705  0.04955829  1.0
  Ni  Ni1993  1  0.54166667  0.57814038  0.04955829  1.0
  Ni  Ni1994  1  0.54166667  0.91147371  0.04955829  1.0
  Ni  Ni1995  1  0.87500000  0.24480705  0.04955829  1.0
  Ni  Ni1996  1  0.87500000  0.57814038  0.04955829  1.0
  Ni  Ni1997  1  0.87500000  0.91147371  0.04955829  1.0
  Ni  Ni1998  1  0.29301600  0.12845810  0.08122457  1.0
  Ni  Ni1999  1  0.29301600  0.46179143  0.08122457  1.0
  Ni  Ni2000  1  0.29301600  0.79512476  0.08122457  1.0
  Ni  Ni2001  1  0.62634933  0.12845810  0.08122457  1.0
  Ni  Ni2002  1  0.62634933  0.46179143  0.08122457  1.0
  Ni  Ni2003  1  0.62634933  0.79512476  0.08122457  1.0
  Ni  Ni2004  1  0.95968267  0.12845810  0.08122457  1.0
  Ni  Ni2005  1  0.95968267  0.46179143  0.08122457  1.0
  Ni  Ni2006  1  0.95968267  0.79512476  0.08122457  1.0
  Ni  Ni2007  1  0.12634933  0.03322000  0.00979600  1.0
  Ni  Ni2008  1  0.12634933  0.36655333  0.00979600  1.0
  Ni  Ni2009  1  0.12634933  0.69988667  0.00979600  1.0
  Ni  Ni2010  1  0.45968267  0.03322000  0.00979600  1.0
  Ni  Ni2011  1  0.45968267  0.36655333  0.00979600  1.0
  Ni  Ni2012  1  0.45968267  0.69988667  0.00979600  1.0
  Ni  Ni2013  1  0.79301600  0.03322000  0.00979600  1.0
  Ni  Ni2014  1  0.79301600  0.36655333  0.00979600  1.0
  Ni  Ni2015  1  0.79301600  0.69988667  0.00979600  1.0
  Ni  Ni2016  1  0.29031733  0.00863943  0.12040857  1.0
  Ni  Ni2017  1  0.29031733  0.34197276  0.12040857  1.0
  Ni  Ni2018  1  0.29031733  0.67530610  0.12040857  1.0
  Ni  Ni2019  1  0.62365067  0.00863943  0.12040857  1.0
  Ni  Ni2020  1  0.62365067  0.34197276  0.12040857  1.0
  Ni  Ni2021  1  0.62365067  0.67530610  0.12040857  1.0
  Ni  Ni2022  1  0.95698400  0.00863943  0.12040857  1.0
  Ni  Ni2023  1  0.95698400  0.34197276  0.12040857  1.0
  Ni  Ni2024  1  0.95698400  0.67530610  0.12040857  1.0
  Ni  Ni2025  1  0.12365067  0.24673467  0.04898000  1.0
  Ni  Ni2026  1  0.12365067  0.58006800  0.04898000  1.0
  Ni  Ni2027  1  0.12365067  0.91340133  0.04898000  1.0
  Ni  Ni2028  1  0.45698400  0.24673467  0.04898000  1.0
  Ni  Ni2029  1  0.45698400  0.58006800  0.04898000  1.0
  Ni  Ni2030  1  0.45698400  0.91340133  0.04898000  1.0
  Ni  Ni2031  1  0.79031733  0.24673467  0.04898000  1.0
  Ni  Ni2032  1  0.79031733  0.58006800  0.04898000  1.0
  Ni  Ni2033  1  0.79031733  0.91340133  0.04898000  1.0
  Ni  Ni2034  1  0.08198400  0.06893429  0.09908171  1.0
  Ni  Ni2035  1  0.08198400  0.40226762  0.09908171  1.0
  Ni  Ni2036  1  0.08198400  0.73560095  0.09908171  1.0
  Ni  Ni2037  1  0.41531733  0.06893429  0.09908171  1.0
  Ni  Ni2038  1  0.41531733  0.40226762  0.09908171  1.0
  Ni  Ni2039  1  0.41531733  0.73560095  0.09908171  1.0
  Ni  Ni2040  1  0.74865067  0.06893429  0.09908171  1.0
  Ni  Ni2041  1  0.74865067  0.40226762  0.09908171  1.0
  Ni  Ni2042  1  0.74865067  0.73560095  0.09908171  1.0
  Ni  Ni2043  1  0.24865067  0.30702952  0.02765314  1.0
  Ni  Ni2044  1  0.24865067  0.64036286  0.02765314  1.0
  Ni  Ni2045  1  0.24865067  0.97369619  0.02765314  1.0
  Ni  Ni2046  1  0.58198400  0.30702952  0.02765314  1.0
  Ni  Ni2047  1  0.58198400  0.64036286  0.02765314  1.0
  Ni  Ni2048  1  0.58198400  0.97369619  0.02765314  1.0
  Ni  Ni2049  1  0.91531733  0.30702952  0.02765314  1.0
  Ni  Ni2050  1  0.91531733  0.64036286  0.02765314  1.0
  Ni  Ni2051  1  0.91531733  0.97369619  0.02765314  1.0
  Ni  Ni2052  1  0.29301600  0.24365048  0.04666686  1.0
  Ni  Ni2053  1  0.29301600  0.57698381  0.04666686  1.0
  Ni  Ni2054  1  0.29301600  0.91031714  0.04666686  1.0
  Ni  Ni2055  1  0.62634933  0.24365048  0.04666686  1.0
  Ni  Ni2056  1  0.62634933  0.57698381  0.04666686  1.0
  Ni  Ni2057  1  0.62634933  0.91031714  0.04666686  1.0
  Ni  Ni2058  1  0.95968267  0.24365048  0.04666686  1.0
  Ni  Ni2059  1  0.95968267  0.57698381  0.04666686  1.0
  Ni  Ni2060  1  0.95968267  0.91031714  0.04666686  1.0
  Ni  Ni2061  1  0.12634933  0.00555524  0.11809543  1.0
  Ni  Ni2062  1  0.12634933  0.33888857  0.11809543  1.0
  Ni  Ni2063  1  0.12634933  0.67222190  0.11809543  1.0
  Ni  Ni2064  1  0.45968267  0.00555524  0.11809543  1.0
  Ni  Ni2065  1  0.45968267  0.33888857  0.11809543  1.0
  Ni  Ni2066  1  0.45968267  0.67222190  0.11809543  1.0
  Ni  Ni2067  1  0.79301600  0.00555524  0.11809543  1.0
  Ni  Ni2068  1  0.79301600  0.33888857  0.11809543  1.0
  Ni  Ni2069  1  0.79301600  0.67222190  0.11809543  1.0
  Ni  Ni2070  1  0.00134933  0.30394533  0.02534000  1.0
  Ni  Ni2071  1  0.00134933  0.63727867  0.02534000  1.0
  Ni  Ni2072  1  0.00134933  0.97061200  0.02534000  1.0
  Ni  Ni2073  1  0.33468267  0.30394533  0.02534000  1.0
  Ni  Ni2074  1  0.33468267  0.63727867  0.02534000  1.0
  Ni  Ni2075  1  0.33468267  0.97061200  0.02534000  1.0
  Ni  Ni2076  1  0.66801600  0.30394533  0.02534000  1.0
  Ni  Ni2077  1  0.66801600  0.63727867  0.02534000  1.0
  Ni  Ni2078  1  0.66801600  0.97061200  0.02534000  1.0
  Ni  Ni2079  1  0.16801600  0.06585010  0.09676857  1.0
  Ni  Ni2080  1  0.16801600  0.39918343  0.09676857  1.0
  Ni  Ni2081  1  0.16801600  0.73251676  0.09676857  1.0
  Ni  Ni2082  1  0.50134933  0.06585010  0.09676857  1.0
  Ni  Ni2083  1  0.50134933  0.39918343  0.09676857  1.0
  Ni  Ni2084  1  0.50134933  0.73251676  0.09676857  1.0
  Ni  Ni2085  1  0.83468267  0.06585010  0.09676857  1.0
  Ni  Ni2086  1  0.83468267  0.39918343  0.09676857  1.0
  Ni  Ni2087  1  0.83468267  0.73251676  0.09676857  1.0
  Ni  Ni2088  1  0.08063467  0.18605429  0.06394571  1.0
  Ni  Ni2089  1  0.08063467  0.51938762  0.06394571  1.0
  Ni  Ni2090  1  0.08063467  0.85272095  0.06394571  1.0
  Ni  Ni2091  1  0.41396800  0.18605429  0.06394571  1.0
  Ni  Ni2092  1  0.41396800  0.51938762  0.06394571  1.0
  Ni  Ni2093  1  0.41396800  0.85272095  0.06394571  1.0
  Ni  Ni2094  1  0.74730133  0.18605429  0.06394571  1.0
  Ni  Ni2095  1  0.74730133  0.51938762  0.06394571  1.0
  Ni  Ni2096  1  0.74730133  0.85272095  0.06394571  1.0
  Ni  Ni2097  1  0.24730133  0.28129238  0.13537429  1.0
  Ni  Ni2098  1  0.24730133  0.61462571  0.13537429  1.0
  Ni  Ni2099  1  0.24730133  0.94795905  0.13537429  1.0
  Ni  Ni2100  1  0.58063467  0.28129238  0.13537429  1.0
  Ni  Ni2101  1  0.58063467  0.61462571  0.13537429  1.0
  Ni  Ni2102  1  0.58063467  0.94795905  0.13537429  1.0
  Ni  Ni2103  1  0.91396800  0.28129238  0.13537429  1.0
  Ni  Ni2104  1  0.91396800  0.61462571  0.13537429  1.0
  Ni  Ni2105  1  0.91396800  0.94795905  0.13537429  1.0
  Ni  Ni2106  1  0.20833333  0.12730152  0.07833314  1.0
  Ni  Ni2107  1  0.20833333  0.46063486  0.07833314  1.0
  Ni  Ni2108  1  0.20833333  0.79396819  0.07833314  1.0
  Ni  Ni2109  1  0.54166667  0.12730152  0.07833314  1.0
  Ni  Ni2110  1  0.54166667  0.46063486  0.07833314  1.0
  Ni  Ni2111  1  0.54166667  0.79396819  0.07833314  1.0
  Ni  Ni2112  1  0.87500000  0.12730152  0.07833314  1.0
  Ni  Ni2113  1  0.87500000  0.46063486  0.07833314  1.0
  Ni  Ni2114  1  0.87500000  0.79396819  0.07833314  1.0
  Ni  Ni2115  1  0.04166667  0.03206343  0.00690457  1.0
  Ni  Ni2116  1  0.04166667  0.36539676  0.00690457  1.0
  Ni  Ni2117  1  0.04166667  0.69873010  0.00690457  1.0
  Ni  Ni2118  1  0.37500000  0.03206343  0.00690457  1.0
  Ni  Ni2119  1  0.37500000  0.36539676  0.00690457  1.0
  Ni  Ni2120  1  0.37500000  0.69873010  0.00690457  1.0
  Ni  Ni2121  1  0.70833333  0.03206343  0.00690457  1.0
  Ni  Ni2122  1  0.70833333  0.36539676  0.00690457  1.0
  Ni  Ni2123  1  0.70833333  0.69873010  0.00690457  1.0
  Ni  Ni2124  1  0.24865067  0.06507905  0.10023829  1.0
  Ni  Ni2125  1  0.24865067  0.39841238  0.10023829  1.0
  Ni  Ni2126  1  0.24865067  0.73174571  0.10023829  1.0
  Ni  Ni2127  1  0.58198400  0.06507905  0.10023829  1.0
  Ni  Ni2128  1  0.58198400  0.39841238  0.10023829  1.0
  Ni  Ni2129  1  0.58198400  0.73174571  0.10023829  1.0
  Ni  Ni2130  1  0.91531733  0.06507905  0.10023829  1.0
  Ni  Ni2131  1  0.91531733  0.39841238  0.10023829  1.0
  Ni  Ni2132  1  0.91531733  0.73174571  0.10023829  1.0
  Ni  Ni2133  1  0.08198400  0.30317429  0.02880971  1.0
  Ni  Ni2134  1  0.08198400  0.63650762  0.02880971  1.0
  Ni  Ni2135  1  0.08198400  0.96984095  0.02880971  1.0
  Ni  Ni2136  1  0.41531733  0.30317429  0.02880971  1.0
  Ni  Ni2137  1  0.41531733  0.63650762  0.02880971  1.0
  Ni  Ni2138  1  0.41531733  0.96984095  0.02880971  1.0
  Ni  Ni2139  1  0.74865067  0.30317429  0.02880971  1.0
  Ni  Ni2140  1  0.74865067  0.63650762  0.02880971  1.0
  Ni  Ni2141  1  0.74865067  0.96984095  0.02880971  1.0
  Ni  Ni2142  1  0.12365067  0.12537390  0.07891143  1.0
  Ni  Ni2143  1  0.12365067  0.45870724  0.07891143  1.0
  Ni  Ni2144  1  0.12365067  0.79204057  0.07891143  1.0
  Ni  Ni2145  1  0.45698400  0.12537390  0.07891143  1.0
  Ni  Ni2146  1  0.45698400  0.45870724  0.07891143  1.0
  Ni  Ni2147  1  0.45698400  0.79204057  0.07891143  1.0
  Ni  Ni2148  1  0.79031733  0.12537390  0.07891143  1.0
  Ni  Ni2149  1  0.79031733  0.45870724  0.07891143  1.0
  Ni  Ni2150  1  0.79031733  0.79204057  0.07891143  1.0
  Ni  Ni2151  1  0.29031733  0.03013581  0.00748286  1.0
  Ni  Ni2152  1  0.29031733  0.36346914  0.00748286  1.0
  Ni  Ni2153  1  0.29031733  0.69680248  0.00748286  1.0
  Ni  Ni2154  1  0.62365067  0.03013581  0.00748286  1.0
  Ni  Ni2155  1  0.62365067  0.36346914  0.00748286  1.0
  Ni  Ni2156  1  0.62365067  0.69680248  0.00748286  1.0
  Ni  Ni2157  1  0.95698400  0.03013581  0.00748286  1.0
  Ni  Ni2158  1  0.95698400  0.36346914  0.00748286  1.0
  Ni  Ni2159  1  0.95698400  0.69680248  0.00748286  1.0
  Ni  Ni2160  1  0.33198400  0.32775486  0.16819714  1.0
  Ni  Ni2161  1  0.33198400  0.66108819  0.16819714  1.0
  Ni  Ni2162  1  0.33198400  0.99442152  0.16819714  1.0
  Ni  Ni2163  1  0.66531733  0.32775486  0.16819714  1.0
  Ni  Ni2164  1  0.66531733  0.66108819  0.16819714  1.0
  Ni  Ni2165  1  0.66531733  0.99442152  0.16819714  1.0
  Ni  Ni2166  1  0.99865067  0.32775486  0.16819714  1.0
  Ni  Ni2167  1  0.99865067  0.66108819  0.16819714  1.0
  Ni  Ni2168  1  0.99865067  0.99442152  0.16819714  1.0
  Ni  Ni2169  1  0.16531733  0.08965962  0.23962571  1.0
  Ni  Ni2170  1  0.16531733  0.42299295  0.23962571  1.0
  Ni  Ni2171  1  0.16531733  0.75632629  0.23962571  1.0
  Ni  Ni2172  1  0.49865067  0.08965962  0.23962571  1.0
  Ni  Ni2173  1  0.49865067  0.42299295  0.23962571  1.0
  Ni  Ni2174  1  0.49865067  0.75632629  0.23962571  1.0
  Ni  Ni2175  1  0.83198400  0.08965962  0.23962571  1.0
  Ni  Ni2176  1  0.83198400  0.42299295  0.23962571  1.0
  Ni  Ni2177  1  0.83198400  0.75632629  0.23962571  1.0
  Ni  Ni2178  1  0.33063467  0.30510190  0.27823143  1.0
  Ni  Ni2179  1  0.33063467  0.63843524  0.27823143  1.0
  Ni  Ni2180  1  0.33063467  0.97176857  0.27823143  1.0
  Ni  Ni2181  1  0.66396800  0.30510190  0.27823143  1.0
  Ni  Ni2182  1  0.66396800  0.63843524  0.27823143  1.0
  Ni  Ni2183  1  0.66396800  0.97176857  0.27823143  1.0
  Ni  Ni2184  1  0.99730133  0.30510190  0.27823143  1.0
  Ni  Ni2185  1  0.99730133  0.63843524  0.27823143  1.0
  Ni  Ni2186  1  0.99730133  0.97176857  0.27823143  1.0
  Ni  Ni2187  1  0.16396800  0.20986381  0.20680286  1.0
  Ni  Ni2188  1  0.16396800  0.54319714  0.20680286  1.0
  Ni  Ni2189  1  0.16396800  0.87653048  0.20680286  1.0
  Ni  Ni2190  1  0.49730133  0.20986381  0.20680286  1.0
  Ni  Ni2191  1  0.49730133  0.54319714  0.20680286  1.0
  Ni  Ni2192  1  0.49730133  0.87653048  0.20680286  1.0
  Ni  Ni2193  1  0.83063467  0.20986381  0.20680286  1.0
  Ni  Ni2194  1  0.83063467  0.54319714  0.20680286  1.0
  Ni  Ni2195  1  0.83063467  0.87653048  0.20680286  1.0
  Ni  Ni2196  1  0.29166667  0.05587295  0.14976171  1.0
  Ni  Ni2197  1  0.29166667  0.38920629  0.14976171  1.0
  Ni  Ni2198  1  0.29166667  0.72253962  0.14976171  1.0
  Ni  Ni2199  1  0.62500000  0.05587295  0.14976171  1.0
  Ni  Ni2200  1  0.62500000  0.38920629  0.14976171  1.0
  Ni  Ni2201  1  0.62500000  0.72253962  0.14976171  1.0
  Ni  Ni2202  1  0.95833333  0.05587295  0.14976171  1.0
  Ni  Ni2203  1  0.95833333  0.38920629  0.14976171  1.0
  Ni  Ni2204  1  0.95833333  0.72253962  0.14976171  1.0
  Ni  Ni2205  1  0.12500000  0.15111105  0.22119029  1.0
  Ni  Ni2206  1  0.12500000  0.48444438  0.22119029  1.0
  Ni  Ni2207  1  0.12500000  0.81777771  0.22119029  1.0
  Ni  Ni2208  1  0.45833333  0.15111105  0.22119029  1.0
  Ni  Ni2209  1  0.45833333  0.48444438  0.22119029  1.0
  Ni  Ni2210  1  0.45833333  0.81777771  0.22119029  1.0
  Ni  Ni2211  1  0.79166667  0.15111105  0.22119029  1.0
  Ni  Ni2212  1  0.79166667  0.48444438  0.22119029  1.0
  Ni  Ni2213  1  0.79166667  0.81777771  0.22119029  1.0
  Ni  Ni2214  1  0.04031733  0.26746000  0.18952400  1.0
  Ni  Ni2215  1  0.04031733  0.60079333  0.18952400  1.0
  Ni  Ni2216  1  0.04031733  0.93412667  0.18952400  1.0
  Ni  Ni2217  1  0.37365067  0.26746000  0.18952400  1.0
  Ni  Ni2218  1  0.37365067  0.60079333  0.18952400  1.0
  Ni  Ni2219  1  0.37365067  0.93412667  0.18952400  1.0
  Ni  Ni2220  1  0.70698400  0.26746000  0.18952400  1.0
  Ni  Ni2221  1  0.70698400  0.60079333  0.18952400  1.0
  Ni  Ni2222  1  0.70698400  0.93412667  0.18952400  1.0
  Ni  Ni2223  1  0.20698400  0.02936476  0.26095257  1.0
  Ni  Ni2224  1  0.20698400  0.36269810  0.26095257  1.0
  Ni  Ni2225  1  0.20698400  0.69603143  0.26095257  1.0
  Ni  Ni2226  1  0.54031733  0.02936476  0.26095257  1.0
  Ni  Ni2227  1  0.54031733  0.36269810  0.26095257  1.0
  Ni  Ni2228  1  0.54031733  0.69603143  0.26095257  1.0
  Ni  Ni2229  1  0.87365067  0.02936476  0.26095257  1.0
  Ni  Ni2230  1  0.87365067  0.36269810  0.26095257  1.0
  Ni  Ni2231  1  0.87365067  0.69603143  0.26095257  1.0
  Ni  Ni2232  1  0.04301600  0.05394533  0.15034000  1.0
  Ni  Ni2233  1  0.04301600  0.38727867  0.15034000  1.0
  Ni  Ni2234  1  0.04301600  0.72061200  0.15034000  1.0
  Ni  Ni2235  1  0.37634933  0.05394533  0.15034000  1.0
  Ni  Ni2236  1  0.37634933  0.38727867  0.15034000  1.0
  Ni  Ni2237  1  0.37634933  0.72061200  0.15034000  1.0
  Ni  Ni2238  1  0.70968267  0.05394533  0.15034000  1.0
  Ni  Ni2239  1  0.70968267  0.38727867  0.15034000  1.0
  Ni  Ni2240  1  0.70968267  0.72061200  0.15034000  1.0
  Ni  Ni2241  1  0.20968267  0.14918343  0.22176857  1.0
  Ni  Ni2242  1  0.20968267  0.48251676  0.22176857  1.0
  Ni  Ni2243  1  0.20968267  0.81585010  0.22176857  1.0
  Ni  Ni2244  1  0.54301600  0.14918343  0.22176857  1.0
  Ni  Ni2245  1  0.54301600  0.48251676  0.22176857  1.0
  Ni  Ni2246  1  0.54301600  0.81585010  0.22176857  1.0
  Ni  Ni2247  1  0.87634933  0.14918343  0.22176857  1.0
  Ni  Ni2248  1  0.87634933  0.48251676  0.22176857  1.0
  Ni  Ni2249  1  0.87634933  0.81585010  0.22176857  1.0
  Ni  Ni2250  1  0.25134933  0.32698381  0.17166686  1.0
  Ni  Ni2251  1  0.25134933  0.66031714  0.17166686  1.0
  Ni  Ni2252  1  0.25134933  0.99365048  0.17166686  1.0
  Ni  Ni2253  1  0.58468267  0.32698381  0.17166686  1.0
  Ni  Ni2254  1  0.58468267  0.66031714  0.17166686  1.0
  Ni  Ni2255  1  0.58468267  0.99365048  0.17166686  1.0
  Ni  Ni2256  1  0.91801600  0.32698381  0.17166686  1.0
  Ni  Ni2257  1  0.91801600  0.66031714  0.17166686  1.0
  Ni  Ni2258  1  0.91801600  0.99365048  0.17166686  1.0
  Ni  Ni2259  1  0.08468267  0.08888857  0.24309543  1.0
  Ni  Ni2260  1  0.08468267  0.42222190  0.24309543  1.0
  Ni  Ni2261  1  0.08468267  0.75555524  0.24309543  1.0
  Ni  Ni2262  1  0.41801600  0.08888857  0.24309543  1.0
  Ni  Ni2263  1  0.41801600  0.42222190  0.24309543  1.0
  Ni  Ni2264  1  0.41801600  0.75555524  0.24309543  1.0
  Ni  Ni2265  1  0.75134933  0.08888857  0.24309543  1.0
  Ni  Ni2266  1  0.75134933  0.42222190  0.24309543  1.0
  Ni  Ni2267  1  0.75134933  0.75555524  0.24309543  1.0
  Ni  Ni2268  1  0.04031733  0.15226762  0.22408171  1.0
  Ni  Ni2269  1  0.04031733  0.48560095  0.22408171  1.0
  Ni  Ni2270  1  0.04031733  0.81893429  0.22408171  1.0
  Ni  Ni2271  1  0.37365067  0.15226762  0.22408171  1.0
  Ni  Ni2272  1  0.37365067  0.48560095  0.22408171  1.0
  Ni  Ni2273  1  0.37365067  0.81893429  0.22408171  1.0
  Ni  Ni2274  1  0.70698400  0.15226762  0.22408171  1.0
  Ni  Ni2275  1  0.70698400  0.48560095  0.22408171  1.0
  Ni  Ni2276  1  0.70698400  0.81893429  0.22408171  1.0
  Ni  Ni2277  1  0.20698400  0.05702952  0.15265314  1.0
  Ni  Ni2278  1  0.20698400  0.39036286  0.15265314  1.0
  Ni  Ni2279  1  0.20698400  0.72369619  0.15265314  1.0
  Ni  Ni2280  1  0.54031733  0.05702952  0.15265314  1.0
  Ni  Ni2281  1  0.54031733  0.39036286  0.15265314  1.0
  Ni  Ni2282  1  0.54031733  0.72369619  0.15265314  1.0
  Ni  Ni2283  1  0.87365067  0.05702952  0.15265314  1.0
  Ni  Ni2284  1  0.87365067  0.39036286  0.15265314  1.0
  Ni  Ni2285  1  0.87365067  0.72369619  0.15265314  1.0
  Ni  Ni2286  1  0.33198400  0.09197276  0.24540857  1.0
  Ni  Ni2287  1  0.33198400  0.42530610  0.24540857  1.0
  Ni  Ni2288  1  0.33198400  0.75863943  0.24540857  1.0
  Ni  Ni2289  1  0.66531733  0.09197276  0.24540857  1.0
  Ni  Ni2290  1  0.66531733  0.42530610  0.24540857  1.0
  Ni  Ni2291  1  0.66531733  0.75863943  0.24540857  1.0
  Ni  Ni2292  1  0.99865067  0.09197276  0.24540857  1.0
  Ni  Ni2293  1  0.99865067  0.42530610  0.24540857  1.0
  Ni  Ni2294  1  0.99865067  0.75863943  0.24540857  1.0
  Ni  Ni2295  1  0.16531733  0.33006800  0.17398000  1.0
  Ni  Ni2296  1  0.16531733  0.66340133  0.17398000  1.0
  Ni  Ni2297  1  0.16531733  0.99673467  0.17398000  1.0
  Ni  Ni2298  1  0.49865067  0.33006800  0.17398000  1.0
  Ni  Ni2299  1  0.49865067  0.66340133  0.17398000  1.0
  Ni  Ni2300  1  0.49865067  0.99673467  0.17398000  1.0
  Ni  Ni2301  1  0.83198400  0.33006800  0.17398000  1.0
  Ni  Ni2302  1  0.83198400  0.66340133  0.17398000  1.0
  Ni  Ni2303  1  0.83198400  0.99673467  0.17398000  1.0
  Ni  Ni2304  1  0.25269867  0.20986381  0.20680286  1.0
  Ni  Ni2305  1  0.25269867  0.54319714  0.20680286  1.0
  Ni  Ni2306  1  0.25269867  0.87653048  0.20680286  1.0
  Ni  Ni2307  1  0.58603200  0.20986381  0.20680286  1.0
  Ni  Ni2308  1  0.58603200  0.54319714  0.20680286  1.0
  Ni  Ni2309  1  0.58603200  0.87653048  0.20680286  1.0
  Ni  Ni2310  1  0.91936533  0.20986381  0.20680286  1.0
  Ni  Ni2311  1  0.91936533  0.54319714  0.20680286  1.0
  Ni  Ni2312  1  0.91936533  0.87653048  0.20680286  1.0
  Ni  Ni2313  1  0.08603200  0.30510190  0.27823143  1.0
  Ni  Ni2314  1  0.08603200  0.63843524  0.27823143  1.0
  Ni  Ni2315  1  0.08603200  0.97176857  0.27823143  1.0
  Ni  Ni2316  1  0.41936533  0.30510190  0.27823143  1.0
  Ni  Ni2317  1  0.41936533  0.63843524  0.27823143  1.0
  Ni  Ni2318  1  0.41936533  0.97176857  0.27823143  1.0
  Ni  Ni2319  1  0.75269867  0.30510190  0.27823143  1.0
  Ni  Ni2320  1  0.75269867  0.63843524  0.27823143  1.0
  Ni  Ni2321  1  0.75269867  0.97176857  0.27823143  1.0
  Ni  Ni2322  1  0.12500000  0.26861657  0.19241543  1.0
  Ni  Ni2323  1  0.12500000  0.60194990  0.19241543  1.0
  Ni  Ni2324  1  0.12500000  0.93528324  0.19241543  1.0
  Ni  Ni2325  1  0.45833333  0.26861657  0.19241543  1.0
  Ni  Ni2326  1  0.45833333  0.60194990  0.19241543  1.0
  Ni  Ni2327  1  0.45833333  0.93528324  0.19241543  1.0
  Ni  Ni2328  1  0.79166667  0.26861657  0.19241543  1.0
  Ni  Ni2329  1  0.79166667  0.60194990  0.19241543  1.0
  Ni  Ni2330  1  0.79166667  0.93528324  0.19241543  1.0
  Ni  Ni2331  1  0.29166667  0.03052133  0.26384400  1.0
  Ni  Ni2332  1  0.29166667  0.36385467  0.26384400  1.0
  Ni  Ni2333  1  0.29166667  0.69718800  0.26384400  1.0
  Ni  Ni2334  1  0.62500000  0.03052133  0.26384400  1.0
  Ni  Ni2335  1  0.62500000  0.36385467  0.26384400  1.0
  Ni  Ni2336  1  0.62500000  0.69718800  0.26384400  1.0
  Ni  Ni2337  1  0.95833333  0.03052133  0.26384400  1.0
  Ni  Ni2338  1  0.95833333  0.36385467  0.26384400  1.0
  Ni  Ni2339  1  0.95833333  0.69718800  0.26384400  1.0
  Ni  Ni2340  1  0.08468267  0.33083905  0.17051029  1.0
  Ni  Ni2341  1  0.08468267  0.66417238  0.17051029  1.0
  Ni  Ni2342  1  0.08468267  0.99750571  0.17051029  1.0
  Ni  Ni2343  1  0.41801600  0.33083905  0.17051029  1.0
  Ni  Ni2344  1  0.41801600  0.66417238  0.17051029  1.0
  Ni  Ni2345  1  0.41801600  0.99750571  0.17051029  1.0
  Ni  Ni2346  1  0.75134933  0.33083905  0.17051029  1.0
  Ni  Ni2347  1  0.75134933  0.66417238  0.17051029  1.0
  Ni  Ni2348  1  0.75134933  0.99750571  0.17051029  1.0
  Ni  Ni2349  1  0.25134933  0.09274381  0.24193886  1.0
  Ni  Ni2350  1  0.25134933  0.42607714  0.24193886  1.0
  Ni  Ni2351  1  0.25134933  0.75941048  0.24193886  1.0
  Ni  Ni2352  1  0.58468267  0.09274381  0.24193886  1.0
  Ni  Ni2353  1  0.58468267  0.42607714  0.24193886  1.0
  Ni  Ni2354  1  0.58468267  0.75941048  0.24193886  1.0
  Ni  Ni2355  1  0.91801600  0.09274381  0.24193886  1.0
  Ni  Ni2356  1  0.91801600  0.42607714  0.24193886  1.0
  Ni  Ni2357  1  0.91801600  0.75941048  0.24193886  1.0
  Ni  Ni2358  1  0.20968267  0.27054419  0.19183714  1.0
  Ni  Ni2359  1  0.20968267  0.60387752  0.19183714  1.0
  Ni  Ni2360  1  0.20968267  0.93721086  0.19183714  1.0
  Ni  Ni2361  1  0.54301600  0.27054419  0.19183714  1.0
  Ni  Ni2362  1  0.54301600  0.60387752  0.19183714  1.0
  Ni  Ni2363  1  0.54301600  0.93721086  0.19183714  1.0
  Ni  Ni2364  1  0.87634933  0.27054419  0.19183714  1.0
  Ni  Ni2365  1  0.87634933  0.60387752  0.19183714  1.0
  Ni  Ni2366  1  0.87634933  0.93721086  0.19183714  1.0
  Ni  Ni2367  1  0.04301600  0.03244895  0.26326571  1.0
  Ni  Ni2368  1  0.04301600  0.36578229  0.26326571  1.0
  Ni  Ni2369  1  0.04301600  0.69911562  0.26326571  1.0
  Ni  Ni2370  1  0.37634933  0.03244895  0.26326571  1.0
  Ni  Ni2371  1  0.37634933  0.36578229  0.26326571  1.0
  Ni  Ni2372  1  0.37634933  0.69911562  0.26326571  1.0
  Ni  Ni2373  1  0.70968267  0.03244895  0.26326571  1.0
  Ni  Ni2374  1  0.70968267  0.36578229  0.26326571  1.0
  Ni  Ni2375  1  0.70968267  0.69911562  0.26326571  1.0
  Ni  Ni2376  1  0.00134933  0.25863943  0.24540857  1.0
  Ni  Ni2377  1  0.00134933  0.59197276  0.24540857  1.0
  Ni  Ni2378  1  0.00134933  0.92530610  0.24540857  1.0
  Ni  Ni2379  1  0.33468267  0.25863943  0.24540857  1.0
  Ni  Ni2380  1  0.33468267  0.59197276  0.24540857  1.0
  Ni  Ni2381  1  0.33468267  0.92530610  0.24540857  1.0
  Ni  Ni2382  1  0.66801600  0.25863943  0.24540857  1.0
  Ni  Ni2383  1  0.66801600  0.59197276  0.24540857  1.0
  Ni  Ni2384  1  0.66801600  0.92530610  0.24540857  1.0
  Ni  Ni2385  1  0.16801600  0.16340133  0.17398000  1.0
  Ni  Ni2386  1  0.16801600  0.49673467  0.17398000  1.0
  Ni  Ni2387  1  0.16801600  0.83006800  0.17398000  1.0
  Ni  Ni2388  1  0.50134933  0.16340133  0.17398000  1.0
  Ni  Ni2389  1  0.50134933  0.49673467  0.17398000  1.0
  Ni  Ni2390  1  0.50134933  0.83006800  0.17398000  1.0
  Ni  Ni2391  1  0.83468267  0.16340133  0.17398000  1.0
  Ni  Ni2392  1  0.83468267  0.49673467  0.17398000  1.0
  Ni  Ni2393  1  0.83468267  0.83006800  0.17398000  1.0
  Ni  Ni2394  1  0.00269867  0.13843524  0.27823143  1.0
  Ni  Ni2395  1  0.00269867  0.47176857  0.27823143  1.0
  Ni  Ni2396  1  0.00269867  0.80510190  0.27823143  1.0
  Ni  Ni2397  1  0.33603200  0.13843524  0.27823143  1.0
  Ni  Ni2398  1  0.33603200  0.47176857  0.27823143  1.0
  Ni  Ni2399  1  0.33603200  0.80510190  0.27823143  1.0
  Ni  Ni2400  1  0.66936533  0.13843524  0.27823143  1.0
  Ni  Ni2401  1  0.66936533  0.47176857  0.27823143  1.0
  Ni  Ni2402  1  0.66936533  0.80510190  0.27823143  1.0
  Ni  Ni2403  1  0.16936533  0.04319714  0.20680286  1.0
  Ni  Ni2404  1  0.16936533  0.37653048  0.20680286  1.0
  Ni  Ni2405  1  0.16936533  0.70986381  0.20680286  1.0
  Ni  Ni2406  1  0.50269867  0.04319714  0.20680286  1.0
  Ni  Ni2407  1  0.50269867  0.37653048  0.20680286  1.0
  Ni  Ni2408  1  0.50269867  0.70986381  0.20680286  1.0
  Ni  Ni2409  1  0.83603200  0.04319714  0.20680286  1.0
  Ni  Ni2410  1  0.83603200  0.37653048  0.20680286  1.0
  Ni  Ni2411  1  0.83603200  0.70986381  0.20680286  1.0
  Ni  Ni2412  1  0.04166667  0.19718800  0.26384400  1.0
  Ni  Ni2413  1  0.04166667  0.53052133  0.26384400  1.0
  Ni  Ni2414  1  0.04166667  0.86385467  0.26384400  1.0
  Ni  Ni2415  1  0.37500000  0.19718800  0.26384400  1.0
  Ni  Ni2416  1  0.37500000  0.53052133  0.26384400  1.0
  Ni  Ni2417  1  0.37500000  0.86385467  0.26384400  1.0
  Ni  Ni2418  1  0.70833333  0.19718800  0.26384400  1.0
  Ni  Ni2419  1  0.70833333  0.53052133  0.26384400  1.0
  Ni  Ni2420  1  0.70833333  0.86385467  0.26384400  1.0
  Ni  Ni2421  1  0.20833333  0.10194990  0.19241543  1.0
  Ni  Ni2422  1  0.20833333  0.43528324  0.19241543  1.0
  Ni  Ni2423  1  0.20833333  0.76861657  0.19241543  1.0
  Ni  Ni2424  1  0.54166667  0.10194990  0.19241543  1.0
  Ni  Ni2425  1  0.54166667  0.43528324  0.19241543  1.0
  Ni  Ni2426  1  0.54166667  0.76861657  0.19241543  1.0
  Ni  Ni2427  1  0.87500000  0.10194990  0.19241543  1.0
  Ni  Ni2428  1  0.87500000  0.43528324  0.19241543  1.0
  Ni  Ni2429  1  0.87500000  0.76861657  0.19241543  1.0
  Ni  Ni2430  1  0.29301600  0.31893429  0.22408171  1.0
  Ni  Ni2431  1  0.29301600  0.65226762  0.22408171  1.0
  Ni  Ni2432  1  0.29301600  0.98560095  0.22408171  1.0
  Ni  Ni2433  1  0.62634933  0.31893429  0.22408171  1.0
  Ni  Ni2434  1  0.62634933  0.65226762  0.22408171  1.0
  Ni  Ni2435  1  0.62634933  0.98560095  0.22408171  1.0
  Ni  Ni2436  1  0.95968267  0.31893429  0.22408171  1.0
  Ni  Ni2437  1  0.95968267  0.65226762  0.22408171  1.0
  Ni  Ni2438  1  0.95968267  0.98560095  0.22408171  1.0
  Ni  Ni2439  1  0.12634933  0.22369619  0.15265314  1.0
  Ni  Ni2440  1  0.12634933  0.55702952  0.15265314  1.0
  Ni  Ni2441  1  0.12634933  0.89036286  0.15265314  1.0
  Ni  Ni2442  1  0.45968267  0.22369619  0.15265314  1.0
  Ni  Ni2443  1  0.45968267  0.55702952  0.15265314  1.0
  Ni  Ni2444  1  0.45968267  0.89036286  0.15265314  1.0
  Ni  Ni2445  1  0.79301600  0.22369619  0.15265314  1.0
  Ni  Ni2446  1  0.79301600  0.55702952  0.15265314  1.0
  Ni  Ni2447  1  0.79301600  0.89036286  0.15265314  1.0
  Ni  Ni2448  1  0.29031733  0.19911562  0.26326571  1.0
  Ni  Ni2449  1  0.29031733  0.53244895  0.26326571  1.0
  Ni  Ni2450  1  0.29031733  0.86578229  0.26326571  1.0
  Ni  Ni2451  1  0.62365067  0.19911562  0.26326571  1.0
  Ni  Ni2452  1  0.62365067  0.53244895  0.26326571  1.0
  Ni  Ni2453  1  0.62365067  0.86578229  0.26326571  1.0
  Ni  Ni2454  1  0.95698400  0.19911562  0.26326571  1.0
  Ni  Ni2455  1  0.95698400  0.53244895  0.26326571  1.0
  Ni  Ni2456  1  0.95698400  0.86578229  0.26326571  1.0
  Ni  Ni2457  1  0.12365067  0.10387752  0.19183714  1.0
  Ni  Ni2458  1  0.12365067  0.43721086  0.19183714  1.0
  Ni  Ni2459  1  0.12365067  0.77054419  0.19183714  1.0
  Ni  Ni2460  1  0.45698400  0.10387752  0.19183714  1.0
  Ni  Ni2461  1  0.45698400  0.43721086  0.19183714  1.0
  Ni  Ni2462  1  0.45698400  0.77054419  0.19183714  1.0
  Ni  Ni2463  1  0.79031733  0.10387752  0.19183714  1.0
  Ni  Ni2464  1  0.79031733  0.43721086  0.19183714  1.0
  Ni  Ni2465  1  0.79031733  0.77054419  0.19183714  1.0
  Ni  Ni2466  1  0.08198400  0.25941048  0.24193886  1.0
  Ni  Ni2467  1  0.08198400  0.59274381  0.24193886  1.0
  Ni  Ni2468  1  0.08198400  0.92607714  0.24193886  1.0
  Ni  Ni2469  1  0.41531733  0.25941048  0.24193886  1.0
  Ni  Ni2470  1  0.41531733  0.59274381  0.24193886  1.0
  Ni  Ni2471  1  0.41531733  0.92607714  0.24193886  1.0
  Ni  Ni2472  1  0.74865067  0.25941048  0.24193886  1.0
  Ni  Ni2473  1  0.74865067  0.59274381  0.24193886  1.0
  Ni  Ni2474  1  0.74865067  0.92607714  0.24193886  1.0
  Ni  Ni2475  1  0.24865067  0.16417238  0.17051029  1.0
  Ni  Ni2476  1  0.24865067  0.49750571  0.17051029  1.0
  Ni  Ni2477  1  0.24865067  0.83083905  0.17051029  1.0
  Ni  Ni2478  1  0.58198400  0.16417238  0.17051029  1.0
  Ni  Ni2479  1  0.58198400  0.49750571  0.17051029  1.0
  Ni  Ni2480  1  0.58198400  0.83083905  0.17051029  1.0
  Ni  Ni2481  1  0.91531733  0.16417238  0.17051029  1.0
  Ni  Ni2482  1  0.91531733  0.49750571  0.17051029  1.0
  Ni  Ni2483  1  0.91531733  0.83083905  0.17051029  1.0
  Ni  Ni2484  1  0.29301600  0.10079333  0.18952400  1.0
  Ni  Ni2485  1  0.29301600  0.43412667  0.18952400  1.0
  Ni  Ni2486  1  0.29301600  0.76746000  0.18952400  1.0
  Ni  Ni2487  1  0.62634933  0.10079333  0.18952400  1.0
  Ni  Ni2488  1  0.62634933  0.43412667  0.18952400  1.0
  Ni  Ni2489  1  0.62634933  0.76746000  0.18952400  1.0
  Ni  Ni2490  1  0.95968267  0.10079333  0.18952400  1.0
  Ni  Ni2491  1  0.95968267  0.43412667  0.18952400  1.0
  Ni  Ni2492  1  0.95968267  0.76746000  0.18952400  1.0
  Ni  Ni2493  1  0.12634933  0.19603143  0.26095257  1.0
  Ni  Ni2494  1  0.12634933  0.52936476  0.26095257  1.0
  Ni  Ni2495  1  0.12634933  0.86269810  0.26095257  1.0
  Ni  Ni2496  1  0.45968267  0.19603143  0.26095257  1.0
  Ni  Ni2497  1  0.45968267  0.52936476  0.26095257  1.0
  Ni  Ni2498  1  0.45968267  0.86269810  0.26095257  1.0
  Ni  Ni2499  1  0.79301600  0.19603143  0.26095257  1.0
  Ni  Ni2500  1  0.79301600  0.52936476  0.26095257  1.0
  Ni  Ni2501  1  0.79301600  0.86269810  0.26095257  1.0
  Ni  Ni2502  1  0.00134933  0.16108819  0.16819714  1.0
  Ni  Ni2503  1  0.00134933  0.49442152  0.16819714  1.0
  Ni  Ni2504  1  0.00134933  0.82775486  0.16819714  1.0
  Ni  Ni2505  1  0.33468267  0.16108819  0.16819714  1.0
  Ni  Ni2506  1  0.33468267  0.49442152  0.16819714  1.0
  Ni  Ni2507  1  0.33468267  0.82775486  0.16819714  1.0
  Ni  Ni2508  1  0.66801600  0.16108819  0.16819714  1.0
  Ni  Ni2509  1  0.66801600  0.49442152  0.16819714  1.0
  Ni  Ni2510  1  0.66801600  0.82775486  0.16819714  1.0
  Ni  Ni2511  1  0.16801600  0.25632629  0.23962571  1.0
  Ni  Ni2512  1  0.16801600  0.58965962  0.23962571  1.0
  Ni  Ni2513  1  0.16801600  0.92299295  0.23962571  1.0
  Ni  Ni2514  1  0.50134933  0.25632629  0.23962571  1.0
  Ni  Ni2515  1  0.50134933  0.58965962  0.23962571  1.0
  Ni  Ni2516  1  0.50134933  0.92299295  0.23962571  1.0
  Ni  Ni2517  1  0.83468267  0.25632629  0.23962571  1.0
  Ni  Ni2518  1  0.83468267  0.58965962  0.23962571  1.0
  Ni  Ni2519  1  0.83468267  0.92299295  0.23962571  1.0
  Ni  Ni2520  1  0.08063467  0.04319714  0.20680286  1.0
  Ni  Ni2521  1  0.08063467  0.37653048  0.20680286  1.0
  Ni  Ni2522  1  0.08063467  0.70986381  0.20680286  1.0
  Ni  Ni2523  1  0.41396800  0.04319714  0.20680286  1.0
  Ni  Ni2524  1  0.41396800  0.37653048  0.20680286  1.0
  Ni  Ni2525  1  0.41396800  0.70986381  0.20680286  1.0
  Ni  Ni2526  1  0.74730133  0.04319714  0.20680286  1.0
  Ni  Ni2527  1  0.74730133  0.37653048  0.20680286  1.0
  Ni  Ni2528  1  0.74730133  0.70986381  0.20680286  1.0
  Ni  Ni2529  1  0.24730133  0.13843524  0.27823143  1.0
  Ni  Ni2530  1  0.24730133  0.47176857  0.27823143  1.0
  Ni  Ni2531  1  0.24730133  0.80510190  0.27823143  1.0
  Ni  Ni2532  1  0.58063467  0.13843524  0.27823143  1.0
  Ni  Ni2533  1  0.58063467  0.47176857  0.27823143  1.0
  Ni  Ni2534  1  0.58063467  0.80510190  0.27823143  1.0
  Ni  Ni2535  1  0.91396800  0.13843524  0.27823143  1.0
  Ni  Ni2536  1  0.91396800  0.47176857  0.27823143  1.0
  Ni  Ni2537  1  0.91396800  0.80510190  0.27823143  1.0
  Ni  Ni2538  1  0.20833333  0.31777771  0.22119029  1.0
  Ni  Ni2539  1  0.20833333  0.65111105  0.22119029  1.0
  Ni  Ni2540  1  0.20833333  0.98444438  0.22119029  1.0
  Ni  Ni2541  1  0.54166667  0.31777771  0.22119029  1.0
  Ni  Ni2542  1  0.54166667  0.65111105  0.22119029  1.0
  Ni  Ni2543  1  0.54166667  0.98444438  0.22119029  1.0
  Ni  Ni2544  1  0.87500000  0.31777771  0.22119029  1.0
  Ni  Ni2545  1  0.87500000  0.65111105  0.22119029  1.0
  Ni  Ni2546  1  0.87500000  0.98444438  0.22119029  1.0
  Ni  Ni2547  1  0.04166667  0.22253962  0.14976171  1.0
  Ni  Ni2548  1  0.04166667  0.55587295  0.14976171  1.0
  Ni  Ni2549  1  0.04166667  0.88920629  0.14976171  1.0
  Ni  Ni2550  1  0.37500000  0.22253962  0.14976171  1.0
  Ni  Ni2551  1  0.37500000  0.55587295  0.14976171  1.0
  Ni  Ni2552  1  0.37500000  0.88920629  0.14976171  1.0
  Ni  Ni2553  1  0.70833333  0.22253962  0.14976171  1.0
  Ni  Ni2554  1  0.70833333  0.55587295  0.14976171  1.0
  Ni  Ni2555  1  0.70833333  0.88920629  0.14976171  1.0
  Ni  Ni2556  1  0.24865067  0.25555524  0.24309543  1.0
  Ni  Ni2557  1  0.24865067  0.58888857  0.24309543  1.0
  Ni  Ni2558  1  0.24865067  0.92222190  0.24309543  1.0
  Ni  Ni2559  1  0.58198400  0.25555524  0.24309543  1.0
  Ni  Ni2560  1  0.58198400  0.58888857  0.24309543  1.0
  Ni  Ni2561  1  0.58198400  0.92222190  0.24309543  1.0
  Ni  Ni2562  1  0.91531733  0.25555524  0.24309543  1.0
  Ni  Ni2563  1  0.91531733  0.58888857  0.24309543  1.0
  Ni  Ni2564  1  0.91531733  0.92222190  0.24309543  1.0
  Ni  Ni2565  1  0.08198400  0.16031714  0.17166686  1.0
  Ni  Ni2566  1  0.08198400  0.49365048  0.17166686  1.0
  Ni  Ni2567  1  0.08198400  0.82698381  0.17166686  1.0
  Ni  Ni2568  1  0.41531733  0.16031714  0.17166686  1.0
  Ni  Ni2569  1  0.41531733  0.49365048  0.17166686  1.0
  Ni  Ni2570  1  0.41531733  0.82698381  0.17166686  1.0
  Ni  Ni2571  1  0.74865067  0.16031714  0.17166686  1.0
  Ni  Ni2572  1  0.74865067  0.49365048  0.17166686  1.0
  Ni  Ni2573  1  0.74865067  0.82698381  0.17166686  1.0
  Ni  Ni2574  1  0.12365067  0.31585010  0.22176857  1.0
  Ni  Ni2575  1  0.12365067  0.64918343  0.22176857  1.0
  Ni  Ni2576  1  0.12365067  0.98251676  0.22176857  1.0
  Ni  Ni2577  1  0.45698400  0.31585010  0.22176857  1.0
  Ni  Ni2578  1  0.45698400  0.64918343  0.22176857  1.0
  Ni  Ni2579  1  0.45698400  0.98251676  0.22176857  1.0
  Ni  Ni2580  1  0.79031733  0.31585010  0.22176857  1.0
  Ni  Ni2581  1  0.79031733  0.64918343  0.22176857  1.0
  Ni  Ni2582  1  0.79031733  0.98251676  0.22176857  1.0
  Ni  Ni2583  1  0.29031733  0.22061200  0.15034000  1.0
  Ni  Ni2584  1  0.29031733  0.55394533  0.15034000  1.0
  Ni  Ni2585  1  0.29031733  0.88727867  0.15034000  1.0
  Ni  Ni2586  1  0.62365067  0.22061200  0.15034000  1.0
  Ni  Ni2587  1  0.62365067  0.55394533  0.15034000  1.0
  Ni  Ni2588  1  0.62365067  0.88727867  0.15034000  1.0
  Ni  Ni2589  1  0.95698400  0.22061200  0.15034000  1.0
  Ni  Ni2590  1  0.95698400  0.55394533  0.15034000  1.0
  Ni  Ni2591  1  0.95698400  0.88727867  0.15034000  1.0
  Ni  Ni2592  1  0.33198400  0.18489771  0.31105429  1.0
  Ni  Ni2593  1  0.33198400  0.51823105  0.31105429  1.0
  Ni  Ni2594  1  0.33198400  0.85156438  0.31105429  1.0
  Ni  Ni2595  1  0.66531733  0.18489771  0.31105429  1.0
  Ni  Ni2596  1  0.66531733  0.51823105  0.31105429  1.0
  Ni  Ni2597  1  0.66531733  0.85156438  0.31105429  1.0
  Ni  Ni2598  1  0.99865067  0.18489771  0.31105429  1.0
  Ni  Ni2599  1  0.99865067  0.51823105  0.31105429  1.0
  Ni  Ni2600  1  0.99865067  0.85156438  0.31105429  1.0
  Ni  Ni2601  1  0.16531733  0.28013581  0.38248286  1.0
  Ni  Ni2602  1  0.16531733  0.61346914  0.38248286  1.0
  Ni  Ni2603  1  0.16531733  0.94680248  0.38248286  1.0
  Ni  Ni2604  1  0.49865067  0.28013581  0.38248286  1.0
  Ni  Ni2605  1  0.49865067  0.61346914  0.38248286  1.0
  Ni  Ni2606  1  0.49865067  0.94680248  0.38248286  1.0
  Ni  Ni2607  1  0.83198400  0.28013581  0.38248286  1.0
  Ni  Ni2608  1  0.83198400  0.61346914  0.38248286  1.0
  Ni  Ni2609  1  0.83198400  0.94680248  0.38248286  1.0
  Ni  Ni2610  1  0.33063467  0.16224476  0.42108857  1.0
  Ni  Ni2611  1  0.33063467  0.49557810  0.42108857  1.0
  Ni  Ni2612  1  0.33063467  0.82891143  0.42108857  1.0
  Ni  Ni2613  1  0.66396800  0.16224476  0.42108857  1.0
  Ni  Ni2614  1  0.66396800  0.49557810  0.42108857  1.0
  Ni  Ni2615  1  0.66396800  0.82891143  0.42108857  1.0
  Ni  Ni2616  1  0.99730133  0.16224476  0.42108857  1.0
  Ni  Ni2617  1  0.99730133  0.49557810  0.42108857  1.0
  Ni  Ni2618  1  0.99730133  0.82891143  0.42108857  1.0
  Ni  Ni2619  1  0.16396800  0.06700667  0.34966000  1.0
  Ni  Ni2620  1  0.16396800  0.40034000  0.34966000  1.0
  Ni  Ni2621  1  0.16396800  0.73367333  0.34966000  1.0
  Ni  Ni2622  1  0.49730133  0.06700667  0.34966000  1.0
  Ni  Ni2623  1  0.49730133  0.40034000  0.34966000  1.0
  Ni  Ni2624  1  0.49730133  0.73367333  0.34966000  1.0
  Ni  Ni2625  1  0.83063467  0.06700667  0.34966000  1.0
  Ni  Ni2626  1  0.83063467  0.40034000  0.34966000  1.0
  Ni  Ni2627  1  0.83063467  0.73367333  0.34966000  1.0
  Ni  Ni2628  1  0.29166667  0.24634914  0.29261886  1.0
  Ni  Ni2629  1  0.29166667  0.57968248  0.29261886  1.0
  Ni  Ni2630  1  0.29166667  0.91301581  0.29261886  1.0
  Ni  Ni2631  1  0.62500000  0.24634914  0.29261886  1.0
  Ni  Ni2632  1  0.62500000  0.57968248  0.29261886  1.0
  Ni  Ni2633  1  0.62500000  0.91301581  0.29261886  1.0
  Ni  Ni2634  1  0.95833333  0.24634914  0.29261886  1.0
  Ni  Ni2635  1  0.95833333  0.57968248  0.29261886  1.0
  Ni  Ni2636  1  0.95833333  0.91301581  0.29261886  1.0
  Ni  Ni2637  1  0.12500000  0.00825390  0.36404743  1.0
  Ni  Ni2638  1  0.12500000  0.34158724  0.36404743  1.0
  Ni  Ni2639  1  0.12500000  0.67492057  0.36404743  1.0
  Ni  Ni2640  1  0.45833333  0.00825390  0.36404743  1.0
  Ni  Ni2641  1  0.45833333  0.34158724  0.36404743  1.0
  Ni  Ni2642  1  0.45833333  0.67492057  0.36404743  1.0
  Ni  Ni2643  1  0.79166667  0.00825390  0.36404743  1.0
  Ni  Ni2644  1  0.79166667  0.34158724  0.36404743  1.0
  Ni  Ni2645  1  0.79166667  0.67492057  0.36404743  1.0
  Ni  Ni2646  1  0.04031733  0.12460286  0.33238114  1.0
  Ni  Ni2647  1  0.04031733  0.45793619  0.33238114  1.0
  Ni  Ni2648  1  0.04031733  0.79126952  0.33238114  1.0
  Ni  Ni2649  1  0.37365067  0.12460286  0.33238114  1.0
  Ni  Ni2650  1  0.37365067  0.45793619  0.33238114  1.0
  Ni  Ni2651  1  0.37365067  0.79126952  0.33238114  1.0
  Ni  Ni2652  1  0.70698400  0.12460286  0.33238114  1.0
  Ni  Ni2653  1  0.70698400  0.45793619  0.33238114  1.0
  Ni  Ni2654  1  0.70698400  0.79126952  0.33238114  1.0
  Ni  Ni2655  1  0.20698400  0.21984095  0.40380971  1.0
  Ni  Ni2656  1  0.20698400  0.55317429  0.40380971  1.0
  Ni  Ni2657  1  0.20698400  0.88650762  0.40380971  1.0
  Ni  Ni2658  1  0.54031733  0.21984095  0.40380971  1.0
  Ni  Ni2659  1  0.54031733  0.55317429  0.40380971  1.0
  Ni  Ni2660  1  0.54031733  0.88650762  0.40380971  1.0
  Ni  Ni2661  1  0.87365067  0.21984095  0.40380971  1.0
  Ni  Ni2662  1  0.87365067  0.55317429  0.40380971  1.0
  Ni  Ni2663  1  0.87365067  0.88650762  0.40380971  1.0
  Ni  Ni2664  1  0.04301600  0.24442152  0.29319714  1.0
  Ni  Ni2665  1  0.04301600  0.57775486  0.29319714  1.0
  Ni  Ni2666  1  0.04301600  0.91108819  0.29319714  1.0
  Ni  Ni2667  1  0.37634933  0.24442152  0.29319714  1.0
  Ni  Ni2668  1  0.37634933  0.57775486  0.29319714  1.0
  Ni  Ni2669  1  0.37634933  0.91108819  0.29319714  1.0
  Ni  Ni2670  1  0.70968267  0.24442152  0.29319714  1.0
  Ni  Ni2671  1  0.70968267  0.57775486  0.29319714  1.0
  Ni  Ni2672  1  0.70968267  0.91108819  0.29319714  1.0
  Ni  Ni2673  1  0.20968267  0.00632629  0.36462571  1.0
  Ni  Ni2674  1  0.20968267  0.33965962  0.36462571  1.0
  Ni  Ni2675  1  0.20968267  0.67299295  0.36462571  1.0
  Ni  Ni2676  1  0.54301600  0.00632629  0.36462571  1.0
  Ni  Ni2677  1  0.54301600  0.33965962  0.36462571  1.0
  Ni  Ni2678  1  0.54301600  0.67299295  0.36462571  1.0
  Ni  Ni2679  1  0.87634933  0.00632629  0.36462571  1.0
  Ni  Ni2680  1  0.87634933  0.33965962  0.36462571  1.0
  Ni  Ni2681  1  0.87634933  0.67299295  0.36462571  1.0
  Ni  Ni2682  1  0.25134933  0.18412667  0.31452400  1.0
  Ni  Ni2683  1  0.25134933  0.51746000  0.31452400  1.0
  Ni  Ni2684  1  0.25134933  0.85079333  0.31452400  1.0
  Ni  Ni2685  1  0.58468267  0.18412667  0.31452400  1.0
  Ni  Ni2686  1  0.58468267  0.51746000  0.31452400  1.0
  Ni  Ni2687  1  0.58468267  0.85079333  0.31452400  1.0
  Ni  Ni2688  1  0.91801600  0.18412667  0.31452400  1.0
  Ni  Ni2689  1  0.91801600  0.51746000  0.31452400  1.0
  Ni  Ni2690  1  0.91801600  0.85079333  0.31452400  1.0
  Ni  Ni2691  1  0.08468267  0.27936476  0.38595257  1.0
  Ni  Ni2692  1  0.08468267  0.61269810  0.38595257  1.0
  Ni  Ni2693  1  0.08468267  0.94603143  0.38595257  1.0
  Ni  Ni2694  1  0.41801600  0.27936476  0.38595257  1.0
  Ni  Ni2695  1  0.41801600  0.61269810  0.38595257  1.0
  Ni  Ni2696  1  0.41801600  0.94603143  0.38595257  1.0
  Ni  Ni2697  1  0.75134933  0.27936476  0.38595257  1.0
  Ni  Ni2698  1  0.75134933  0.61269810  0.38595257  1.0
  Ni  Ni2699  1  0.75134933  0.94603143  0.38595257  1.0
  Ni  Ni2700  1  0.04031733  0.00941048  0.36693886  1.0
  Ni  Ni2701  1  0.04031733  0.34274381  0.36693886  1.0
  Ni  Ni2702  1  0.04031733  0.67607714  0.36693886  1.0
  Ni  Ni2703  1  0.37365067  0.00941048  0.36693886  1.0
  Ni  Ni2704  1  0.37365067  0.34274381  0.36693886  1.0
  Ni  Ni2705  1  0.37365067  0.67607714  0.36693886  1.0
  Ni  Ni2706  1  0.70698400  0.00941048  0.36693886  1.0
  Ni  Ni2707  1  0.70698400  0.34274381  0.36693886  1.0
  Ni  Ni2708  1  0.70698400  0.67607714  0.36693886  1.0
  Ni  Ni2709  1  0.20698400  0.24750571  0.29551029  1.0
  Ni  Ni2710  1  0.20698400  0.58083905  0.29551029  1.0
  Ni  Ni2711  1  0.20698400  0.91417238  0.29551029  1.0
  Ni  Ni2712  1  0.54031733  0.24750571  0.29551029  1.0
  Ni  Ni2713  1  0.54031733  0.58083905  0.29551029  1.0
  Ni  Ni2714  1  0.54031733  0.91417238  0.29551029  1.0
  Ni  Ni2715  1  0.87365067  0.24750571  0.29551029  1.0
  Ni  Ni2716  1  0.87365067  0.58083905  0.29551029  1.0
  Ni  Ni2717  1  0.87365067  0.91417238  0.29551029  1.0
  Ni  Ni2718  1  0.33198400  0.28244895  0.38826571  1.0
  Ni  Ni2719  1  0.33198400  0.61578229  0.38826571  1.0
  Ni  Ni2720  1  0.33198400  0.94911562  0.38826571  1.0
  Ni  Ni2721  1  0.66531733  0.28244895  0.38826571  1.0
  Ni  Ni2722  1  0.66531733  0.61578229  0.38826571  1.0
  Ni  Ni2723  1  0.66531733  0.94911562  0.38826571  1.0
  Ni  Ni2724  1  0.99865067  0.28244895  0.38826571  1.0
  Ni  Ni2725  1  0.99865067  0.61578229  0.38826571  1.0
  Ni  Ni2726  1  0.99865067  0.94911562  0.38826571  1.0
  Ni  Ni2727  1  0.16531733  0.18721086  0.31683714  1.0
  Ni  Ni2728  1  0.16531733  0.52054419  0.31683714  1.0
  Ni  Ni2729  1  0.16531733  0.85387752  0.31683714  1.0
  Ni  Ni2730  1  0.49865067  0.18721086  0.31683714  1.0
  Ni  Ni2731  1  0.49865067  0.52054419  0.31683714  1.0
  Ni  Ni2732  1  0.49865067  0.85387752  0.31683714  1.0
  Ni  Ni2733  1  0.83198400  0.18721086  0.31683714  1.0
  Ni  Ni2734  1  0.83198400  0.52054419  0.31683714  1.0
  Ni  Ni2735  1  0.83198400  0.85387752  0.31683714  1.0
  Ni  Ni2736  1  0.25269867  0.06700667  0.34966000  1.0
  Ni  Ni2737  1  0.25269867  0.40034000  0.34966000  1.0
  Ni  Ni2738  1  0.25269867  0.73367333  0.34966000  1.0
  Ni  Ni2739  1  0.58603200  0.06700667  0.34966000  1.0
  Ni  Ni2740  1  0.58603200  0.40034000  0.34966000  1.0
  Ni  Ni2741  1  0.58603200  0.73367333  0.34966000  1.0
  Ni  Ni2742  1  0.91936533  0.06700667  0.34966000  1.0
  Ni  Ni2743  1  0.91936533  0.40034000  0.34966000  1.0
  Ni  Ni2744  1  0.91936533  0.73367333  0.34966000  1.0
  Ni  Ni2745  1  0.08603200  0.16224476  0.42108857  1.0
  Ni  Ni2746  1  0.08603200  0.49557810  0.42108857  1.0
  Ni  Ni2747  1  0.08603200  0.82891143  0.42108857  1.0
  Ni  Ni2748  1  0.41936533  0.16224476  0.42108857  1.0
  Ni  Ni2749  1  0.41936533  0.49557810  0.42108857  1.0
  Ni  Ni2750  1  0.41936533  0.82891143  0.42108857  1.0
  Ni  Ni2751  1  0.75269867  0.16224476  0.42108857  1.0
  Ni  Ni2752  1  0.75269867  0.49557810  0.42108857  1.0
  Ni  Ni2753  1  0.75269867  0.82891143  0.42108857  1.0
  Ni  Ni2754  1  0.12500000  0.12575943  0.33527257  1.0
  Ni  Ni2755  1  0.12500000  0.45909276  0.33527257  1.0
  Ni  Ni2756  1  0.12500000  0.79242610  0.33527257  1.0
  Ni  Ni2757  1  0.45833333  0.12575943  0.33527257  1.0
  Ni  Ni2758  1  0.45833333  0.45909276  0.33527257  1.0
  Ni  Ni2759  1  0.45833333  0.79242610  0.33527257  1.0
  Ni  Ni2760  1  0.79166667  0.12575943  0.33527257  1.0
  Ni  Ni2761  1  0.79166667  0.45909276  0.33527257  1.0
  Ni  Ni2762  1  0.79166667  0.79242610  0.33527257  1.0
  Ni  Ni2763  1  0.29166667  0.22099752  0.40670114  1.0
  Ni  Ni2764  1  0.29166667  0.55433086  0.40670114  1.0
  Ni  Ni2765  1  0.29166667  0.88766419  0.40670114  1.0
  Ni  Ni2766  1  0.62500000  0.22099752  0.40670114  1.0
  Ni  Ni2767  1  0.62500000  0.55433086  0.40670114  1.0
  Ni  Ni2768  1  0.62500000  0.88766419  0.40670114  1.0
  Ni  Ni2769  1  0.95833333  0.22099752  0.40670114  1.0
  Ni  Ni2770  1  0.95833333  0.55433086  0.40670114  1.0
  Ni  Ni2771  1  0.95833333  0.88766419  0.40670114  1.0
  Ni  Ni2772  1  0.08468267  0.18798190  0.31336743  1.0
  Ni  Ni2773  1  0.08468267  0.52131524  0.31336743  1.0
  Ni  Ni2774  1  0.08468267  0.85464857  0.31336743  1.0
  Ni  Ni2775  1  0.41801600  0.18798190  0.31336743  1.0
  Ni  Ni2776  1  0.41801600  0.52131524  0.31336743  1.0
  Ni  Ni2777  1  0.41801600  0.85464857  0.31336743  1.0
  Ni  Ni2778  1  0.75134933  0.18798190  0.31336743  1.0
  Ni  Ni2779  1  0.75134933  0.52131524  0.31336743  1.0
  Ni  Ni2780  1  0.75134933  0.85464857  0.31336743  1.0
  Ni  Ni2781  1  0.25134933  0.28322000  0.38479600  1.0
  Ni  Ni2782  1  0.25134933  0.61655333  0.38479600  1.0
  Ni  Ni2783  1  0.25134933  0.94988667  0.38479600  1.0
  Ni  Ni2784  1  0.58468267  0.28322000  0.38479600  1.0
  Ni  Ni2785  1  0.58468267  0.61655333  0.38479600  1.0
  Ni  Ni2786  1  0.58468267  0.94988667  0.38479600  1.0
  Ni  Ni2787  1  0.91801600  0.28322000  0.38479600  1.0
  Ni  Ni2788  1  0.91801600  0.61655333  0.38479600  1.0
  Ni  Ni2789  1  0.91801600  0.94988667  0.38479600  1.0
  Ni  Ni2790  1  0.20968267  0.12768705  0.33469429  1.0
  Ni  Ni2791  1  0.20968267  0.46102038  0.33469429  1.0
  Ni  Ni2792  1  0.20968267  0.79435371  0.33469429  1.0
  Ni  Ni2793  1  0.54301600  0.12768705  0.33469429  1.0
  Ni  Ni2794  1  0.54301600  0.46102038  0.33469429  1.0
  Ni  Ni2795  1  0.54301600  0.79435371  0.33469429  1.0
  Ni  Ni2796  1  0.87634933  0.12768705  0.33469429  1.0
  Ni  Ni2797  1  0.87634933  0.46102038  0.33469429  1.0
  Ni  Ni2798  1  0.87634933  0.79435371  0.33469429  1.0
  Ni  Ni2799  1  0.04301600  0.22292514  0.40612286  1.0
  Ni  Ni2800  1  0.04301600  0.55625848  0.40612286  1.0
  Ni  Ni2801  1  0.04301600  0.88959181  0.40612286  1.0
  Ni  Ni2802  1  0.37634933  0.22292514  0.40612286  1.0
  Ni  Ni2803  1  0.37634933  0.55625848  0.40612286  1.0
  Ni  Ni2804  1  0.37634933  0.88959181  0.40612286  1.0
  Ni  Ni2805  1  0.70968267  0.22292514  0.40612286  1.0
  Ni  Ni2806  1  0.70968267  0.55625848  0.40612286  1.0
  Ni  Ni2807  1  0.70968267  0.88959181  0.40612286  1.0
  Ni  Ni2808  1  0.00134933  0.11578229  0.38826571  1.0
  Ni  Ni2809  1  0.00134933  0.44911562  0.38826571  1.0
  Ni  Ni2810  1  0.00134933  0.78244895  0.38826571  1.0
  Ni  Ni2811  1  0.33468267  0.11578229  0.38826571  1.0
  Ni  Ni2812  1  0.33468267  0.44911562  0.38826571  1.0
  Ni  Ni2813  1  0.33468267  0.78244895  0.38826571  1.0
  Ni  Ni2814  1  0.66801600  0.11578229  0.38826571  1.0
  Ni  Ni2815  1  0.66801600  0.44911562  0.38826571  1.0
  Ni  Ni2816  1  0.66801600  0.78244895  0.38826571  1.0
  Ni  Ni2817  1  0.16801600  0.02054419  0.31683714  1.0
  Ni  Ni2818  1  0.16801600  0.35387752  0.31683714  1.0
  Ni  Ni2819  1  0.16801600  0.68721086  0.31683714  1.0
  Ni  Ni2820  1  0.50134933  0.02054419  0.31683714  1.0
  Ni  Ni2821  1  0.50134933  0.35387752  0.31683714  1.0
  Ni  Ni2822  1  0.50134933  0.68721086  0.31683714  1.0
  Ni  Ni2823  1  0.83468267  0.02054419  0.31683714  1.0
  Ni  Ni2824  1  0.83468267  0.35387752  0.31683714  1.0
  Ni  Ni2825  1  0.83468267  0.68721086  0.31683714  1.0
  Ni  Ni2826  1  0.00269867  0.32891143  0.42108857  1.0
  Ni  Ni2827  1  0.00269867  0.66224476  0.42108857  1.0
  Ni  Ni2828  1  0.00269867  0.99557810  0.42108857  1.0
  Ni  Ni2829  1  0.33603200  0.32891143  0.42108857  1.0
  Ni  Ni2830  1  0.33603200  0.66224476  0.42108857  1.0
  Ni  Ni2831  1  0.33603200  0.99557810  0.42108857  1.0
  Ni  Ni2832  1  0.66936533  0.32891143  0.42108857  1.0
  Ni  Ni2833  1  0.66936533  0.66224476  0.42108857  1.0
  Ni  Ni2834  1  0.66936533  0.99557810  0.42108857  1.0
  Ni  Ni2835  1  0.16936533  0.23367333  0.34966000  1.0
  Ni  Ni2836  1  0.16936533  0.56700667  0.34966000  1.0
  Ni  Ni2837  1  0.16936533  0.90034000  0.34966000  1.0
  Ni  Ni2838  1  0.50269867  0.23367333  0.34966000  1.0
  Ni  Ni2839  1  0.50269867  0.56700667  0.34966000  1.0
  Ni  Ni2840  1  0.50269867  0.90034000  0.34966000  1.0
  Ni  Ni2841  1  0.83603200  0.23367333  0.34966000  1.0
  Ni  Ni2842  1  0.83603200  0.56700667  0.34966000  1.0
  Ni  Ni2843  1  0.83603200  0.90034000  0.34966000  1.0
  Ni  Ni2844  1  0.04166667  0.05433086  0.40670114  1.0
  Ni  Ni2845  1  0.04166667  0.38766419  0.40670114  1.0
  Ni  Ni2846  1  0.04166667  0.72099752  0.40670114  1.0
  Ni  Ni2847  1  0.37500000  0.05433086  0.40670114  1.0
  Ni  Ni2848  1  0.37500000  0.38766419  0.40670114  1.0
  Ni  Ni2849  1  0.37500000  0.72099752  0.40670114  1.0
  Ni  Ni2850  1  0.70833333  0.05433086  0.40670114  1.0
  Ni  Ni2851  1  0.70833333  0.38766419  0.40670114  1.0
  Ni  Ni2852  1  0.70833333  0.72099752  0.40670114  1.0
  Ni  Ni2853  1  0.20833333  0.29242610  0.33527257  1.0
  Ni  Ni2854  1  0.20833333  0.62575943  0.33527257  1.0
  Ni  Ni2855  1  0.20833333  0.95909276  0.33527257  1.0
  Ni  Ni2856  1  0.54166667  0.29242610  0.33527257  1.0
  Ni  Ni2857  1  0.54166667  0.62575943  0.33527257  1.0
  Ni  Ni2858  1  0.54166667  0.95909276  0.33527257  1.0
  Ni  Ni2859  1  0.87500000  0.29242610  0.33527257  1.0
  Ni  Ni2860  1  0.87500000  0.62575943  0.33527257  1.0
  Ni  Ni2861  1  0.87500000  0.95909276  0.33527257  1.0
  Ni  Ni2862  1  0.29301600  0.17607714  0.36693886  1.0
  Ni  Ni2863  1  0.29301600  0.50941048  0.36693886  1.0
  Ni  Ni2864  1  0.29301600  0.84274381  0.36693886  1.0
  Ni  Ni2865  1  0.62634933  0.17607714  0.36693886  1.0
  Ni  Ni2866  1  0.62634933  0.50941048  0.36693886  1.0
  Ni  Ni2867  1  0.62634933  0.84274381  0.36693886  1.0
  Ni  Ni2868  1  0.95968267  0.17607714  0.36693886  1.0
  Ni  Ni2869  1  0.95968267  0.50941048  0.36693886  1.0
  Ni  Ni2870  1  0.95968267  0.84274381  0.36693886  1.0
  Ni  Ni2871  1  0.12634933  0.08083905  0.29551029  1.0
  Ni  Ni2872  1  0.12634933  0.41417238  0.29551029  1.0
  Ni  Ni2873  1  0.12634933  0.74750571  0.29551029  1.0
  Ni  Ni2874  1  0.45968267  0.08083905  0.29551029  1.0
  Ni  Ni2875  1  0.45968267  0.41417238  0.29551029  1.0
  Ni  Ni2876  1  0.45968267  0.74750571  0.29551029  1.0
  Ni  Ni2877  1  0.79301600  0.08083905  0.29551029  1.0
  Ni  Ni2878  1  0.79301600  0.41417238  0.29551029  1.0
  Ni  Ni2879  1  0.79301600  0.74750571  0.29551029  1.0
  Ni  Ni2880  1  0.29031733  0.05625848  0.40612286  1.0
  Ni  Ni2881  1  0.29031733  0.38959181  0.40612286  1.0
  Ni  Ni2882  1  0.29031733  0.72292514  0.40612286  1.0
  Ni  Ni2883  1  0.62365067  0.05625848  0.40612286  1.0
  Ni  Ni2884  1  0.62365067  0.38959181  0.40612286  1.0
  Ni  Ni2885  1  0.62365067  0.72292514  0.40612286  1.0
  Ni  Ni2886  1  0.95698400  0.05625848  0.40612286  1.0
  Ni  Ni2887  1  0.95698400  0.38959181  0.40612286  1.0
  Ni  Ni2888  1  0.95698400  0.72292514  0.40612286  1.0
  Ni  Ni2889  1  0.12365067  0.29435371  0.33469429  1.0
  Ni  Ni2890  1  0.12365067  0.62768705  0.33469429  1.0
  Ni  Ni2891  1  0.12365067  0.96102038  0.33469429  1.0
  Ni  Ni2892  1  0.45698400  0.29435371  0.33469429  1.0
  Ni  Ni2893  1  0.45698400  0.62768705  0.33469429  1.0
  Ni  Ni2894  1  0.45698400  0.96102038  0.33469429  1.0
  Ni  Ni2895  1  0.79031733  0.29435371  0.33469429  1.0
  Ni  Ni2896  1  0.79031733  0.62768705  0.33469429  1.0
  Ni  Ni2897  1  0.79031733  0.96102038  0.33469429  1.0
  Ni  Ni2898  1  0.08198400  0.11655333  0.38479600  1.0
  Ni  Ni2899  1  0.08198400  0.44988667  0.38479600  1.0
  Ni  Ni2900  1  0.08198400  0.78322000  0.38479600  1.0
  Ni  Ni2901  1  0.41531733  0.11655333  0.38479600  1.0
  Ni  Ni2902  1  0.41531733  0.44988667  0.38479600  1.0
  Ni  Ni2903  1  0.41531733  0.78322000  0.38479600  1.0
  Ni  Ni2904  1  0.74865067  0.11655333  0.38479600  1.0
  Ni  Ni2905  1  0.74865067  0.44988667  0.38479600  1.0
  Ni  Ni2906  1  0.74865067  0.78322000  0.38479600  1.0
  Ni  Ni2907  1  0.24865067  0.02131524  0.31336743  1.0
  Ni  Ni2908  1  0.24865067  0.35464857  0.31336743  1.0
  Ni  Ni2909  1  0.24865067  0.68798190  0.31336743  1.0
  Ni  Ni2910  1  0.58198400  0.02131524  0.31336743  1.0
  Ni  Ni2911  1  0.58198400  0.35464857  0.31336743  1.0
  Ni  Ni2912  1  0.58198400  0.68798190  0.31336743  1.0
  Ni  Ni2913  1  0.91531733  0.02131524  0.31336743  1.0
  Ni  Ni2914  1  0.91531733  0.35464857  0.31336743  1.0
  Ni  Ni2915  1  0.91531733  0.68798190  0.31336743  1.0
  Ni  Ni2916  1  0.29301600  0.29126952  0.33238114  1.0
  Ni  Ni2917  1  0.29301600  0.62460286  0.33238114  1.0
  Ni  Ni2918  1  0.29301600  0.95793619  0.33238114  1.0
  Ni  Ni2919  1  0.62634933  0.29126952  0.33238114  1.0
  Ni  Ni2920  1  0.62634933  0.62460286  0.33238114  1.0
  Ni  Ni2921  1  0.62634933  0.95793619  0.33238114  1.0
  Ni  Ni2922  1  0.95968267  0.29126952  0.33238114  1.0
  Ni  Ni2923  1  0.95968267  0.62460286  0.33238114  1.0
  Ni  Ni2924  1  0.95968267  0.95793619  0.33238114  1.0
  Ni  Ni2925  1  0.12634933  0.05317429  0.40380971  1.0
  Ni  Ni2926  1  0.12634933  0.38650762  0.40380971  1.0
  Ni  Ni2927  1  0.12634933  0.71984095  0.40380971  1.0
  Ni  Ni2928  1  0.45968267  0.05317429  0.40380971  1.0
  Ni  Ni2929  1  0.45968267  0.38650762  0.40380971  1.0
  Ni  Ni2930  1  0.45968267  0.71984095  0.40380971  1.0
  Ni  Ni2931  1  0.79301600  0.05317429  0.40380971  1.0
  Ni  Ni2932  1  0.79301600  0.38650762  0.40380971  1.0
  Ni  Ni2933  1  0.79301600  0.71984095  0.40380971  1.0
  Ni  Ni2934  1  0.00134933  0.01823105  0.31105429  1.0
  Ni  Ni2935  1  0.00134933  0.35156438  0.31105429  1.0
  Ni  Ni2936  1  0.00134933  0.68489771  0.31105429  1.0
  Ni  Ni2937  1  0.33468267  0.01823105  0.31105429  1.0
  Ni  Ni2938  1  0.33468267  0.35156438  0.31105429  1.0
  Ni  Ni2939  1  0.33468267  0.68489771  0.31105429  1.0
  Ni  Ni2940  1  0.66801600  0.01823105  0.31105429  1.0
  Ni  Ni2941  1  0.66801600  0.35156438  0.31105429  1.0
  Ni  Ni2942  1  0.66801600  0.68489771  0.31105429  1.0
  Ni  Ni2943  1  0.16801600  0.11346914  0.38248286  1.0
  Ni  Ni2944  1  0.16801600  0.44680248  0.38248286  1.0
  Ni  Ni2945  1  0.16801600  0.78013581  0.38248286  1.0
  Ni  Ni2946  1  0.50134933  0.11346914  0.38248286  1.0
  Ni  Ni2947  1  0.50134933  0.44680248  0.38248286  1.0
  Ni  Ni2948  1  0.50134933  0.78013581  0.38248286  1.0
  Ni  Ni2949  1  0.83468267  0.11346914  0.38248286  1.0
  Ni  Ni2950  1  0.83468267  0.44680248  0.38248286  1.0
  Ni  Ni2951  1  0.83468267  0.78013581  0.38248286  1.0
  Ni  Ni2952  1  0.08063467  0.23367333  0.34966000  1.0
  Ni  Ni2953  1  0.08063467  0.56700667  0.34966000  1.0
  Ni  Ni2954  1  0.08063467  0.90034000  0.34966000  1.0
  Ni  Ni2955  1  0.41396800  0.23367333  0.34966000  1.0
  Ni  Ni2956  1  0.41396800  0.56700667  0.34966000  1.0
  Ni  Ni2957  1  0.41396800  0.90034000  0.34966000  1.0
  Ni  Ni2958  1  0.74730133  0.23367333  0.34966000  1.0
  Ni  Ni2959  1  0.74730133  0.56700667  0.34966000  1.0
  Ni  Ni2960  1  0.74730133  0.90034000  0.34966000  1.0
  Ni  Ni2961  1  0.24730133  0.32891143  0.42108857  1.0
  Ni  Ni2962  1  0.24730133  0.66224476  0.42108857  1.0
  Ni  Ni2963  1  0.24730133  0.99557810  0.42108857  1.0
  Ni  Ni2964  1  0.58063467  0.32891143  0.42108857  1.0
  Ni  Ni2965  1  0.58063467  0.66224476  0.42108857  1.0
  Ni  Ni2966  1  0.58063467  0.99557810  0.42108857  1.0
  Ni  Ni2967  1  0.91396800  0.32891143  0.42108857  1.0
  Ni  Ni2968  1  0.91396800  0.66224476  0.42108857  1.0
  Ni  Ni2969  1  0.91396800  0.99557810  0.42108857  1.0
  Ni  Ni2970  1  0.20833333  0.17492057  0.36404743  1.0
  Ni  Ni2971  1  0.20833333  0.50825390  0.36404743  1.0
  Ni  Ni2972  1  0.20833333  0.84158724  0.36404743  1.0
  Ni  Ni2973  1  0.54166667  0.17492057  0.36404743  1.0
  Ni  Ni2974  1  0.54166667  0.50825390  0.36404743  1.0
  Ni  Ni2975  1  0.54166667  0.84158724  0.36404743  1.0
  Ni  Ni2976  1  0.87500000  0.17492057  0.36404743  1.0
  Ni  Ni2977  1  0.87500000  0.50825390  0.36404743  1.0
  Ni  Ni2978  1  0.87500000  0.84158724  0.36404743  1.0
  Ni  Ni2979  1  0.04166667  0.07968248  0.29261886  1.0
  Ni  Ni2980  1  0.04166667  0.41301581  0.29261886  1.0
  Ni  Ni2981  1  0.04166667  0.74634914  0.29261886  1.0
  Ni  Ni2982  1  0.37500000  0.07968248  0.29261886  1.0
  Ni  Ni2983  1  0.37500000  0.41301581  0.29261886  1.0
  Ni  Ni2984  1  0.37500000  0.74634914  0.29261886  1.0
  Ni  Ni2985  1  0.70833333  0.07968248  0.29261886  1.0
  Ni  Ni2986  1  0.70833333  0.41301581  0.29261886  1.0
  Ni  Ni2987  1  0.70833333  0.74634914  0.29261886  1.0
  Ni  Ni2988  1  0.24865067  0.11269810  0.38595257  1.0
  Ni  Ni2989  1  0.24865067  0.44603143  0.38595257  1.0
  Ni  Ni2990  1  0.24865067  0.77936476  0.38595257  1.0
  Ni  Ni2991  1  0.58198400  0.11269810  0.38595257  1.0
  Ni  Ni2992  1  0.58198400  0.44603143  0.38595257  1.0
  Ni  Ni2993  1  0.58198400  0.77936476  0.38595257  1.0
  Ni  Ni2994  1  0.91531733  0.11269810  0.38595257  1.0
  Ni  Ni2995  1  0.91531733  0.44603143  0.38595257  1.0
  Ni  Ni2996  1  0.91531733  0.77936476  0.38595257  1.0
  Ni  Ni2997  1  0.08198400  0.01746000  0.31452400  1.0
  Ni  Ni2998  1  0.08198400  0.35079333  0.31452400  1.0
  Ni  Ni2999  1  0.08198400  0.68412667  0.31452400  1.0
  Ni  Ni3000  1  0.41531733  0.01746000  0.31452400  1.0
  Ni  Ni3001  1  0.41531733  0.35079333  0.31452400  1.0
  Ni  Ni3002  1  0.41531733  0.68412667  0.31452400  1.0
  Ni  Ni3003  1  0.74865067  0.01746000  0.31452400  1.0
  Ni  Ni3004  1  0.74865067  0.35079333  0.31452400  1.0
  Ni  Ni3005  1  0.74865067  0.68412667  0.31452400  1.0
  Ni  Ni3006  1  0.12365067  0.17299295  0.36462571  1.0
  Ni  Ni3007  1  0.12365067  0.50632629  0.36462571  1.0
  Ni  Ni3008  1  0.12365067  0.83965962  0.36462571  1.0
  Ni  Ni3009  1  0.45698400  0.17299295  0.36462571  1.0
  Ni  Ni3010  1  0.45698400  0.50632629  0.36462571  1.0
  Ni  Ni3011  1  0.45698400  0.83965962  0.36462571  1.0
  Ni  Ni3012  1  0.79031733  0.17299295  0.36462571  1.0
  Ni  Ni3013  1  0.79031733  0.50632629  0.36462571  1.0
  Ni  Ni3014  1  0.79031733  0.83965962  0.36462571  1.0
  Ni  Ni3015  1  0.29031733  0.07775486  0.29319714  1.0
  Ni  Ni3016  1  0.29031733  0.41108819  0.29319714  1.0
  Ni  Ni3017  1  0.29031733  0.74442152  0.29319714  1.0
  Ni  Ni3018  1  0.62365067  0.07775486  0.29319714  1.0
  Ni  Ni3019  1  0.62365067  0.41108819  0.29319714  1.0
  Ni  Ni3020  1  0.62365067  0.74442152  0.29319714  1.0
  Ni  Ni3021  1  0.95698400  0.07775486  0.29319714  1.0
  Ni  Ni3022  1  0.95698400  0.41108819  0.29319714  1.0
  Ni  Ni3023  1  0.95698400  0.74442152  0.29319714  1.0
