# generated using pymatgen
data_Ga5Ni
_symmetry_space_group_name_H-M   'P 1'
_cell_length_a   43.11262721
_cell_length_b   35.31512097
_cell_length_c   80.27792724
_cell_angle_alpha   28.37916806
_cell_angle_beta   104.78430451
_cell_angle_gamma   86.06894820
_symmetry_Int_Tables_number   1
_chemical_formula_structural   Ga5Ni
_chemical_formula_sum   'Ga900 Ni180'
_cell_volume   43267.34830126
_cell_formula_units_Z   180
loop_
 _symmetry_equiv_pos_site_id
 _symmetry_equiv_pos_as_xyz
  1  'x, y, z'
loop_
 _atom_site_type_symbol
 _atom_site_label
 _atom_site_symmetry_multiplicity
 _atom_site_fract_x
 _atom_site_fract_y
 _atom_site_fract_z
 _atom_site_occupancy
  Ga  Ga0  1  0.16666667  0.16666667  0.03961746  1.0
  Ga  Ga1  1  0.16666667  0.50000000  0.03961746  1.0
  Ga  Ga2  1  0.16666667  0.83333333  0.03961746  1.0
  Ga  Ga3  1  0.50000000  0.16666667  0.03961746  1.0
  Ga  Ga4  1  0.50000000  0.50000000  0.03961746  1.0
  Ga  Ga5  1  0.50000000  0.83333333  0.03961746  1.0
  Ga  Ga6  1  0.83333333  0.16666667  0.03961746  1.0
  Ga  Ga7  1  0.83333333  0.50000000  0.03961746  1.0
  Ga  Ga8  1  0.83333333  0.83333333  0.03961746  1.0
  Ga  Ga9  1  0.00000000  0.00000000  0.08128412  1.0
  Ga  Ga10  1  0.00000000  0.33333333  0.08128412  1.0
  Ga  Ga11  1  0.00000000  0.66666667  0.08128412  1.0
  Ga  Ga12  1  0.33333333  0.00000000  0.08128412  1.0
  Ga  Ga13  1  0.33333333  0.33333333  0.08128413  1.0
  Ga  Ga14  1  0.33333333  0.66666667  0.08128412  1.0
  Ga  Ga15  1  0.66666667  0.00000000  0.08128412  1.0
  Ga  Ga16  1  0.66666667  0.33333333  0.08128412  1.0
  Ga  Ga17  1  0.66666667  0.66666667  0.08128412  1.0
  Ga  Ga18  1  0.25000000  0.25000000  0.01878413  1.0
  Ga  Ga19  1  0.25000000  0.58333333  0.01878413  1.0
  Ga  Ga20  1  0.25000000  0.91666667  0.01878413  1.0
  Ga  Ga21  1  0.58333333  0.25000000  0.01878413  1.0
  Ga  Ga22  1  0.58333333  0.58333333  0.01878413  1.0
  Ga  Ga23  1  0.58333333  0.91666667  0.01878412  1.0
  Ga  Ga24  1  0.91666667  0.25000000  0.01878412  1.0
  Ga  Ga25  1  0.91666667  0.58333333  0.01878413  1.0
  Ga  Ga26  1  0.91666667  0.91666667  0.01878413  1.0
  Ga  Ga27  1  0.08333333  0.08333333  0.06045079  1.0
  Ga  Ga28  1  0.08333333  0.41666667  0.06045079  1.0
  Ga  Ga29  1  0.08333333  0.75000000  0.06045079  1.0
  Ga  Ga30  1  0.41666667  0.08333333  0.06045079  1.0
  Ga  Ga31  1  0.41666667  0.41666667  0.06045079  1.0
  Ga  Ga32  1  0.41666667  0.75000000  0.06045079  1.0
  Ga  Ga33  1  0.75000000  0.08333333  0.06045079  1.0
  Ga  Ga34  1  0.75000000  0.41666667  0.06045079  1.0
  Ga  Ga35  1  0.75000000  0.75000000  0.06045079  1.0
  Ga  Ga36  1  0.25106533  0.08013733  0.04456362  1.0
  Ga  Ga37  1  0.25106533  0.41347067  0.04456362  1.0
  Ga  Ga38  1  0.25106533  0.74680400  0.04456362  1.0
  Ga  Ga39  1  0.58439867  0.08013733  0.04456362  1.0
  Ga  Ga40  1  0.58439867  0.41347067  0.04456362  1.0
  Ga  Ga41  1  0.58439867  0.74680400  0.04456362  1.0
  Ga  Ga42  1  0.91773200  0.08013733  0.04456362  1.0
  Ga  Ga43  1  0.91773200  0.41347067  0.04456362  1.0
  Ga  Ga44  1  0.91773200  0.74680400  0.04456362  1.0
  Ga  Ga45  1  0.08439867  0.24680400  0.00289696  1.0
  Ga  Ga46  1  0.08439867  0.58013733  0.00289696  1.0
  Ga  Ga47  1  0.08439867  0.91347067  0.00289696  1.0
  Ga  Ga48  1  0.41773200  0.24680400  0.00289696  1.0
  Ga  Ga49  1  0.41773200  0.58013733  0.00289696  1.0
  Ga  Ga50  1  0.41773200  0.91347067  0.00289696  1.0
  Ga  Ga51  1  0.75106533  0.24680400  0.00289696  1.0
  Ga  Ga52  1  0.75106533  0.58013733  0.00289696  1.0
  Ga  Ga53  1  0.75106533  0.91347067  0.00289696  1.0
  Ga  Ga54  1  0.20110433  0.23002033  0.04046521  1.0
  Ga  Ga55  1  0.20110433  0.56335367  0.04046521  1.0
  Ga  Ga56  1  0.20110433  0.89668700  0.04046521  1.0
  Ga  Ga57  1  0.53443767  0.23002033  0.04046521  1.0
  Ga  Ga58  1  0.53443767  0.56335367  0.04046521  1.0
  Ga  Ga59  1  0.53443767  0.89668700  0.04046521  1.0
  Ga  Ga60  1  0.86777100  0.23002033  0.04046521  1.0
  Ga  Ga61  1  0.86777100  0.56335367  0.04046521  1.0
  Ga  Ga62  1  0.86777100  0.89668700  0.04046521  1.0
  Ga  Ga63  1  0.03443767  0.06335367  0.08213187  1.0
  Ga  Ga64  1  0.03443767  0.39668700  0.08213187  1.0
  Ga  Ga65  1  0.03443767  0.73002033  0.08213187  1.0
  Ga  Ga66  1  0.36777100  0.06335367  0.08213187  1.0
  Ga  Ga67  1  0.36777100  0.39668700  0.08213187  1.0
  Ga  Ga68  1  0.36777100  0.73002033  0.08213187  1.0
  Ga  Ga69  1  0.70110433  0.06335367  0.08213187  1.0
  Ga  Ga70  1  0.70110433  0.39668700  0.08213187  1.0
  Ga  Ga71  1  0.70110433  0.73002033  0.08213187  1.0
  Ga  Ga72  1  0.28443767  0.21343167  0.06959287  1.0
  Ga  Ga73  1  0.28443767  0.54676500  0.06959287  1.0
  Ga  Ga74  1  0.28443767  0.88009833  0.06959287  1.0
  Ga  Ga75  1  0.61777100  0.21343167  0.06959287  1.0
  Ga  Ga76  1  0.61777100  0.54676500  0.06959287  1.0
  Ga  Ga77  1  0.61777100  0.88009833  0.06959287  1.0
  Ga  Ga78  1  0.95110433  0.21343167  0.06959287  1.0
  Ga  Ga79  1  0.95110433  0.54676500  0.06959287  1.0
  Ga  Ga80  1  0.95110433  0.88009833  0.06959287  1.0
  Ga  Ga81  1  0.11777100  0.04676500  0.02792621  1.0
  Ga  Ga82  1  0.11777100  0.38009833  0.02792621  1.0
  Ga  Ga83  1  0.11777100  0.71343167  0.02792621  1.0
  Ga  Ga84  1  0.45110433  0.04676500  0.02792621  1.0
  Ga  Ga85  1  0.45110433  0.38009833  0.02792621  1.0
  Ga  Ga86  1  0.45110433  0.71343167  0.02792621  1.0
  Ga  Ga87  1  0.78443767  0.04676500  0.02792621  1.0
  Ga  Ga88  1  0.78443767  0.38009833  0.02792621  1.0
  Ga  Ga89  1  0.78443767  0.71343167  0.02792621  1.0
  Ga  Ga90  1  0.16773200  0.09672600  0.01543596  1.0
  Ga  Ga91  1  0.16773200  0.43005933  0.01543596  1.0
  Ga  Ga92  1  0.16773200  0.76339267  0.01543596  1.0
  Ga  Ga93  1  0.50106533  0.09672600  0.01543596  1.0
  Ga  Ga94  1  0.50106533  0.43005933  0.01543596  1.0
  Ga  Ga95  1  0.50106533  0.76339267  0.01543596  1.0
  Ga  Ga96  1  0.83439867  0.09672600  0.01543596  1.0
  Ga  Ga97  1  0.83439867  0.43005933  0.01543596  1.0
  Ga  Ga98  1  0.83439867  0.76339267  0.01543596  1.0
  Ga  Ga99  1  0.00106533  0.26339267  0.05710262  1.0
  Ga  Ga100  1  0.00106533  0.59672600  0.05710262  1.0
  Ga  Ga101  1  0.00106533  0.93005933  0.05710263  1.0
  Ga  Ga102  1  0.33439867  0.26339267  0.05710262  1.0
  Ga  Ga103  1  0.33439867  0.59672600  0.05710263  1.0
  Ga  Ga104  1  0.33439867  0.93005933  0.05710262  1.0
  Ga  Ga105  1  0.66773200  0.26339267  0.05710262  1.0
  Ga  Ga106  1  0.66773200  0.59672600  0.05710263  1.0
  Ga  Ga107  1  0.66773200  0.93005933  0.05710262  1.0
  Ga  Ga108  1  0.24893467  0.08652933  0.07633796  1.0
  Ga  Ga109  1  0.24893467  0.41986267  0.07633796  1.0
  Ga  Ga110  1  0.24893467  0.75319600  0.07633796  1.0
  Ga  Ga111  1  0.58226800  0.08652933  0.07633796  1.0
  Ga  Ga112  1  0.58226800  0.41986267  0.07633796  1.0
  Ga  Ga113  1  0.58226800  0.75319600  0.07633796  1.0
  Ga  Ga114  1  0.91560133  0.08652933  0.07633796  1.0
  Ga  Ga115  1  0.91560133  0.41986267  0.07633796  1.0
  Ga  Ga116  1  0.91560133  0.75319600  0.07633796  1.0
  Ga  Ga117  1  0.08226800  0.25319600  0.03467129  1.0
  Ga  Ga118  1  0.08226800  0.58652933  0.03467129  1.0
  Ga  Ga119  1  0.08226800  0.91986267  0.03467129  1.0
  Ga  Ga120  1  0.41560133  0.25319600  0.03467129  1.0
  Ga  Ga121  1  0.41560133  0.58652933  0.03467129  1.0
  Ga  Ga122  1  0.41560133  0.91986267  0.03467129  1.0
  Ga  Ga123  1  0.74893467  0.25319600  0.03467129  1.0
  Ga  Ga124  1  0.74893467  0.58652933  0.03467129  1.0
  Ga  Ga125  1  0.74893467  0.91986267  0.03467129  1.0
  Ga  Ga126  1  0.29889567  0.26997967  0.08043638  1.0
  Ga  Ga127  1  0.29889567  0.60331300  0.08043637  1.0
  Ga  Ga128  1  0.29889567  0.93664633  0.08043637  1.0
  Ga  Ga129  1  0.63222900  0.26997967  0.08043637  1.0
  Ga  Ga130  1  0.63222900  0.60331300  0.08043637  1.0
  Ga  Ga131  1  0.63222900  0.93664633  0.08043637  1.0
  Ga  Ga132  1  0.96556233  0.26997967  0.08043637  1.0
  Ga  Ga133  1  0.96556233  0.60331300  0.08043637  1.0
  Ga  Ga134  1  0.96556233  0.93664633  0.08043637  1.0
  Ga  Ga135  1  0.13222900  0.10331300  0.03876971  1.0
  Ga  Ga136  1  0.13222900  0.43664633  0.03876971  1.0
  Ga  Ga137  1  0.13222900  0.76997967  0.03876971  1.0
  Ga  Ga138  1  0.46556233  0.10331300  0.03876971  1.0
  Ga  Ga139  1  0.46556233  0.43664633  0.03876971  1.0
  Ga  Ga140  1  0.46556233  0.76997967  0.03876971  1.0
  Ga  Ga141  1  0.79889567  0.10331300  0.03876971  1.0
  Ga  Ga142  1  0.79889567  0.43664633  0.03876971  1.0
  Ga  Ga143  1  0.79889567  0.76997967  0.03876971  1.0
  Ga  Ga144  1  0.21556233  0.28656833  0.05130871  1.0
  Ga  Ga145  1  0.21556233  0.61990167  0.05130871  1.0
  Ga  Ga146  1  0.21556233  0.95323500  0.05130871  1.0
  Ga  Ga147  1  0.54889567  0.28656833  0.05130871  1.0
  Ga  Ga148  1  0.54889567  0.61990167  0.05130871  1.0
  Ga  Ga149  1  0.54889567  0.95323500  0.05130871  1.0
  Ga  Ga150  1  0.88222900  0.28656833  0.05130871  1.0
  Ga  Ga151  1  0.88222900  0.61990167  0.05130871  1.0
  Ga  Ga152  1  0.88222900  0.95323500  0.05130871  1.0
  Ga  Ga153  1  0.04889567  0.11990167  0.00964204  1.0
  Ga  Ga154  1  0.04889567  0.45323500  0.00964204  1.0
  Ga  Ga155  1  0.04889567  0.78656833  0.00964204  1.0
  Ga  Ga156  1  0.38222900  0.11990167  0.00964204  1.0
  Ga  Ga157  1  0.38222900  0.45323500  0.00964204  1.0
  Ga  Ga158  1  0.38222900  0.78656833  0.00964204  1.0
  Ga  Ga159  1  0.71556233  0.11990167  0.00964204  1.0
  Ga  Ga160  1  0.71556233  0.45323500  0.00964204  1.0
  Ga  Ga161  1  0.71556233  0.78656833  0.00964204  1.0
  Ga  Ga162  1  0.33226800  0.06994067  0.02213229  1.0
  Ga  Ga163  1  0.33226800  0.40327400  0.02213229  1.0
  Ga  Ga164  1  0.33226800  0.73660733  0.02213229  1.0
  Ga  Ga165  1  0.66560133  0.06994067  0.02213229  1.0
  Ga  Ga166  1  0.66560133  0.40327400  0.02213229  1.0
  Ga  Ga167  1  0.66560133  0.73660733  0.02213229  1.0
  Ga  Ga168  1  0.99893467  0.06994067  0.02213229  1.0
  Ga  Ga169  1  0.99893467  0.40327400  0.02213229  1.0
  Ga  Ga170  1  0.99893467  0.73660733  0.02213229  1.0
  Ga  Ga171  1  0.16560133  0.23660733  0.06379896  1.0
  Ga  Ga172  1  0.16560133  0.56994067  0.06379896  1.0
  Ga  Ga173  1  0.16560133  0.90327400  0.06379896  1.0
  Ga  Ga174  1  0.49893467  0.23660733  0.06379896  1.0
  Ga  Ga175  1  0.49893467  0.56994067  0.06379896  1.0
  Ga  Ga176  1  0.49893467  0.90327400  0.06379896  1.0
  Ga  Ga177  1  0.83226800  0.23660733  0.06379896  1.0
  Ga  Ga178  1  0.83226800  0.56994067  0.06379896  1.0
  Ga  Ga179  1  0.83226800  0.90327400  0.06379896  1.0
  Ni  Ni180  1  0.29166667  0.12500000  0.05003412  1.0
  Ni  Ni181  1  0.29166667  0.45833333  0.05003412  1.0
  Ni  Ni182  1  0.29166667  0.79166667  0.05003413  1.0
  Ni  Ni183  1  0.62500000  0.12500000  0.05003412  1.0
  Ni  Ni184  1  0.62500000  0.45833333  0.05003412  1.0
  Ni  Ni185  1  0.62500000  0.79166667  0.05003412  1.0
  Ni  Ni186  1  0.95833333  0.12500000  0.05003412  1.0
  Ni  Ni187  1  0.95833333  0.45833333  0.05003412  1.0
  Ni  Ni188  1  0.95833333  0.79166667  0.05003412  1.0
  Ni  Ni189  1  0.12500000  0.29166667  0.00836746  1.0
  Ni  Ni190  1  0.12500000  0.62500000  0.00836746  1.0
  Ni  Ni191  1  0.12500000  0.95833333  0.00836746  1.0
  Ni  Ni192  1  0.45833333  0.29166667  0.00836746  1.0
  Ni  Ni193  1  0.45833333  0.62500000  0.00836746  1.0
  Ni  Ni194  1  0.45833333  0.95833333  0.00836746  1.0
  Ni  Ni195  1  0.79166667  0.29166667  0.00836746  1.0
  Ni  Ni196  1  0.79166667  0.62500000  0.00836746  1.0
  Ni  Ni197  1  0.79166667  0.95833333  0.00836746  1.0
  Ni  Ni198  1  0.20833333  0.04166667  0.07086746  1.0
  Ni  Ni199  1  0.20833333  0.37500000  0.07086746  1.0
  Ni  Ni200  1  0.20833333  0.70833333  0.07086746  1.0
  Ni  Ni201  1  0.54166667  0.04166667  0.07086746  1.0
  Ni  Ni202  1  0.54166667  0.37500000  0.07086746  1.0
  Ni  Ni203  1  0.54166667  0.70833333  0.07086746  1.0
  Ni  Ni204  1  0.87500000  0.04166667  0.07086746  1.0
  Ni  Ni205  1  0.87500000  0.37500000  0.07086746  1.0
  Ni  Ni206  1  0.87500000  0.70833333  0.07086746  1.0
  Ni  Ni207  1  0.04166667  0.20833333  0.02920079  1.0
  Ni  Ni208  1  0.04166667  0.54166667  0.02920079  1.0
  Ni  Ni209  1  0.04166667  0.87500000  0.02920079  1.0
  Ni  Ni210  1  0.37500000  0.20833333  0.02920079  1.0
  Ni  Ni211  1  0.37500000  0.54166667  0.02920079  1.0
  Ni  Ni212  1  0.37500000  0.87500000  0.02920079  1.0
  Ni  Ni213  1  0.70833333  0.20833333  0.02920079  1.0
  Ni  Ni214  1  0.70833333  0.54166667  0.02920079  1.0
  Ni  Ni215  1  0.70833333  0.87500000  0.02920079  1.0
  Ga  Ga216  1  0.16666667  0.16666667  0.12295079  1.0
  Ga  Ga217  1  0.16666667  0.50000000  0.12295079  1.0
  Ga  Ga218  1  0.16666667  0.83333333  0.12295079  1.0
  Ga  Ga219  1  0.50000000  0.16666667  0.12295079  1.0
  Ga  Ga220  1  0.50000000  0.50000000  0.12295079  1.0
  Ga  Ga221  1  0.50000000  0.83333333  0.12295079  1.0
  Ga  Ga222  1  0.83333333  0.16666667  0.12295079  1.0
  Ga  Ga223  1  0.83333333  0.50000000  0.12295079  1.0
  Ga  Ga224  1  0.83333333  0.83333333  0.12295079  1.0
  Ga  Ga225  1  0.00000000  0.00000000  0.16461746  1.0
  Ga  Ga226  1  0.00000000  0.33333333  0.16461746  1.0
  Ga  Ga227  1  0.00000000  0.66666667  0.16461746  1.0
  Ga  Ga228  1  0.33333333  0.00000000  0.16461746  1.0
  Ga  Ga229  1  0.33333333  0.33333333  0.16461746  1.0
  Ga  Ga230  1  0.33333333  0.66666667  0.16461746  1.0
  Ga  Ga231  1  0.66666667  0.00000000  0.16461746  1.0
  Ga  Ga232  1  0.66666667  0.33333333  0.16461746  1.0
  Ga  Ga233  1  0.66666667  0.66666667  0.16461746  1.0
  Ga  Ga234  1  0.25000000  0.25000000  0.10211746  1.0
  Ga  Ga235  1  0.25000000  0.58333333  0.10211746  1.0
  Ga  Ga236  1  0.25000000  0.91666667  0.10211746  1.0
  Ga  Ga237  1  0.58333333  0.25000000  0.10211746  1.0
  Ga  Ga238  1  0.58333333  0.58333333  0.10211746  1.0
  Ga  Ga239  1  0.58333333  0.91666667  0.10211746  1.0
  Ga  Ga240  1  0.91666667  0.25000000  0.10211746  1.0
  Ga  Ga241  1  0.91666667  0.58333333  0.10211746  1.0
  Ga  Ga242  1  0.91666667  0.91666667  0.10211746  1.0
  Ga  Ga243  1  0.08333333  0.08333333  0.14378412  1.0
  Ga  Ga244  1  0.08333333  0.41666667  0.14378413  1.0
  Ga  Ga245  1  0.08333333  0.75000000  0.14378413  1.0
  Ga  Ga246  1  0.41666667  0.08333333  0.14378412  1.0
  Ga  Ga247  1  0.41666667  0.41666667  0.14378413  1.0
  Ga  Ga248  1  0.41666667  0.75000000  0.14378412  1.0
  Ga  Ga249  1  0.75000000  0.08333333  0.14378412  1.0
  Ga  Ga250  1  0.75000000  0.41666667  0.14378412  1.0
  Ga  Ga251  1  0.75000000  0.75000000  0.14378413  1.0
  Ga  Ga252  1  0.25106533  0.08013733  0.12789696  1.0
  Ga  Ga253  1  0.25106533  0.41347067  0.12789696  1.0
  Ga  Ga254  1  0.25106533  0.74680400  0.12789696  1.0
  Ga  Ga255  1  0.58439867  0.08013733  0.12789696  1.0
  Ga  Ga256  1  0.58439867  0.41347067  0.12789696  1.0
  Ga  Ga257  1  0.58439867  0.74680400  0.12789696  1.0
  Ga  Ga258  1  0.91773200  0.08013733  0.12789696  1.0
  Ga  Ga259  1  0.91773200  0.41347067  0.12789696  1.0
  Ga  Ga260  1  0.91773200  0.74680400  0.12789696  1.0
  Ga  Ga261  1  0.08439867  0.24680400  0.08623029  1.0
  Ga  Ga262  1  0.08439867  0.58013733  0.08623029  1.0
  Ga  Ga263  1  0.08439867  0.91347067  0.08623029  1.0
  Ga  Ga264  1  0.41773200  0.24680400  0.08623029  1.0
  Ga  Ga265  1  0.41773200  0.58013733  0.08623029  1.0
  Ga  Ga266  1  0.41773200  0.91347067  0.08623029  1.0
  Ga  Ga267  1  0.75106533  0.24680400  0.08623029  1.0
  Ga  Ga268  1  0.75106533  0.58013733  0.08623029  1.0
  Ga  Ga269  1  0.75106533  0.91347067  0.08623029  1.0
  Ga  Ga270  1  0.20110433  0.23002033  0.12379854  1.0
  Ga  Ga271  1  0.20110433  0.56335367  0.12379854  1.0
  Ga  Ga272  1  0.20110433  0.89668700  0.12379854  1.0
  Ga  Ga273  1  0.53443767  0.23002033  0.12379854  1.0
  Ga  Ga274  1  0.53443767  0.56335367  0.12379854  1.0
  Ga  Ga275  1  0.53443767  0.89668700  0.12379854  1.0
  Ga  Ga276  1  0.86777100  0.23002033  0.12379854  1.0
  Ga  Ga277  1  0.86777100  0.56335367  0.12379854  1.0
  Ga  Ga278  1  0.86777100  0.89668700  0.12379854  1.0
  Ga  Ga279  1  0.03443767  0.06335367  0.16546521  1.0
  Ga  Ga280  1  0.03443767  0.39668700  0.16546521  1.0
  Ga  Ga281  1  0.03443767  0.73002033  0.16546521  1.0
  Ga  Ga282  1  0.36777100  0.06335367  0.16546521  1.0
  Ga  Ga283  1  0.36777100  0.39668700  0.16546521  1.0
  Ga  Ga284  1  0.36777100  0.73002033  0.16546521  1.0
  Ga  Ga285  1  0.70110433  0.06335367  0.16546521  1.0
  Ga  Ga286  1  0.70110433  0.39668700  0.16546521  1.0
  Ga  Ga287  1  0.70110433  0.73002033  0.16546521  1.0
  Ga  Ga288  1  0.28443767  0.21343167  0.15292621  1.0
  Ga  Ga289  1  0.28443767  0.54676500  0.15292621  1.0
  Ga  Ga290  1  0.28443767  0.88009833  0.15292621  1.0
  Ga  Ga291  1  0.61777100  0.21343167  0.15292621  1.0
  Ga  Ga292  1  0.61777100  0.54676500  0.15292621  1.0
  Ga  Ga293  1  0.61777100  0.88009833  0.15292621  1.0
  Ga  Ga294  1  0.95110433  0.21343167  0.15292621  1.0
  Ga  Ga295  1  0.95110433  0.54676500  0.15292621  1.0
  Ga  Ga296  1  0.95110433  0.88009833  0.15292621  1.0
  Ga  Ga297  1  0.11777100  0.04676500  0.11125954  1.0
  Ga  Ga298  1  0.11777100  0.38009833  0.11125954  1.0
  Ga  Ga299  1  0.11777100  0.71343167  0.11125954  1.0
  Ga  Ga300  1  0.45110433  0.04676500  0.11125954  1.0
  Ga  Ga301  1  0.45110433  0.38009833  0.11125954  1.0
  Ga  Ga302  1  0.45110433  0.71343167  0.11125954  1.0
  Ga  Ga303  1  0.78443767  0.04676500  0.11125954  1.0
  Ga  Ga304  1  0.78443767  0.38009833  0.11125954  1.0
  Ga  Ga305  1  0.78443767  0.71343167  0.11125954  1.0
  Ga  Ga306  1  0.16773200  0.09672600  0.09876929  1.0
  Ga  Ga307  1  0.16773200  0.43005933  0.09876929  1.0
  Ga  Ga308  1  0.16773200  0.76339267  0.09876929  1.0
  Ga  Ga309  1  0.50106533  0.09672600  0.09876929  1.0
  Ga  Ga310  1  0.50106533  0.43005933  0.09876929  1.0
  Ga  Ga311  1  0.50106533  0.76339267  0.09876929  1.0
  Ga  Ga312  1  0.83439867  0.09672600  0.09876929  1.0
  Ga  Ga313  1  0.83439867  0.43005933  0.09876929  1.0
  Ga  Ga314  1  0.83439867  0.76339267  0.09876929  1.0
  Ga  Ga315  1  0.00106533  0.26339267  0.14043596  1.0
  Ga  Ga316  1  0.00106533  0.59672600  0.14043596  1.0
  Ga  Ga317  1  0.00106533  0.93005933  0.14043596  1.0
  Ga  Ga318  1  0.33439867  0.26339267  0.14043596  1.0
  Ga  Ga319  1  0.33439867  0.59672600  0.14043596  1.0
  Ga  Ga320  1  0.33439867  0.93005933  0.14043596  1.0
  Ga  Ga321  1  0.66773200  0.26339267  0.14043596  1.0
  Ga  Ga322  1  0.66773200  0.59672600  0.14043596  1.0
  Ga  Ga323  1  0.66773200  0.93005933  0.14043596  1.0
  Ga  Ga324  1  0.24893467  0.08652933  0.15967129  1.0
  Ga  Ga325  1  0.24893467  0.41986267  0.15967129  1.0
  Ga  Ga326  1  0.24893467  0.75319600  0.15967129  1.0
  Ga  Ga327  1  0.58226800  0.08652933  0.15967129  1.0
  Ga  Ga328  1  0.58226800  0.41986267  0.15967129  1.0
  Ga  Ga329  1  0.58226800  0.75319600  0.15967129  1.0
  Ga  Ga330  1  0.91560133  0.08652933  0.15967129  1.0
  Ga  Ga331  1  0.91560133  0.41986267  0.15967129  1.0
  Ga  Ga332  1  0.91560133  0.75319600  0.15967129  1.0
  Ga  Ga333  1  0.08226800  0.25319600  0.11800462  1.0
  Ga  Ga334  1  0.08226800  0.58652933  0.11800462  1.0
  Ga  Ga335  1  0.08226800  0.91986267  0.11800462  1.0
  Ga  Ga336  1  0.41560133  0.25319600  0.11800462  1.0
  Ga  Ga337  1  0.41560133  0.58652933  0.11800462  1.0
  Ga  Ga338  1  0.41560133  0.91986267  0.11800462  1.0
  Ga  Ga339  1  0.74893467  0.25319600  0.11800462  1.0
  Ga  Ga340  1  0.74893467  0.58652933  0.11800462  1.0
  Ga  Ga341  1  0.74893467  0.91986267  0.11800462  1.0
  Ga  Ga342  1  0.29889567  0.26997967  0.16376971  1.0
  Ga  Ga343  1  0.29889567  0.60331300  0.16376971  1.0
  Ga  Ga344  1  0.29889567  0.93664633  0.16376971  1.0
  Ga  Ga345  1  0.63222900  0.26997967  0.16376971  1.0
  Ga  Ga346  1  0.63222900  0.60331300  0.16376971  1.0
  Ga  Ga347  1  0.63222900  0.93664633  0.16376971  1.0
  Ga  Ga348  1  0.96556233  0.26997967  0.16376971  1.0
  Ga  Ga349  1  0.96556233  0.60331300  0.16376971  1.0
  Ga  Ga350  1  0.96556233  0.93664633  0.16376971  1.0
  Ga  Ga351  1  0.13222900  0.10331300  0.12210304  1.0
  Ga  Ga352  1  0.13222900  0.43664633  0.12210304  1.0
  Ga  Ga353  1  0.13222900  0.76997967  0.12210304  1.0
  Ga  Ga354  1  0.46556233  0.10331300  0.12210304  1.0
  Ga  Ga355  1  0.46556233  0.43664633  0.12210304  1.0
  Ga  Ga356  1  0.46556233  0.76997967  0.12210304  1.0
  Ga  Ga357  1  0.79889567  0.10331300  0.12210304  1.0
  Ga  Ga358  1  0.79889567  0.43664633  0.12210304  1.0
  Ga  Ga359  1  0.79889567  0.76997967  0.12210304  1.0
  Ga  Ga360  1  0.21556233  0.28656833  0.13464204  1.0
  Ga  Ga361  1  0.21556233  0.61990167  0.13464204  1.0
  Ga  Ga362  1  0.21556233  0.95323500  0.13464204  1.0
  Ga  Ga363  1  0.54889567  0.28656833  0.13464204  1.0
  Ga  Ga364  1  0.54889567  0.61990167  0.13464204  1.0
  Ga  Ga365  1  0.54889567  0.95323500  0.13464204  1.0
  Ga  Ga366  1  0.88222900  0.28656833  0.13464204  1.0
  Ga  Ga367  1  0.88222900  0.61990167  0.13464204  1.0
  Ga  Ga368  1  0.88222900  0.95323500  0.13464204  1.0
  Ga  Ga369  1  0.04889567  0.11990167  0.09297537  1.0
  Ga  Ga370  1  0.04889567  0.45323500  0.09297537  1.0
  Ga  Ga371  1  0.04889567  0.78656833  0.09297537  1.0
  Ga  Ga372  1  0.38222900  0.11990167  0.09297537  1.0
  Ga  Ga373  1  0.38222900  0.45323500  0.09297537  1.0
  Ga  Ga374  1  0.38222900  0.78656833  0.09297537  1.0
  Ga  Ga375  1  0.71556233  0.11990167  0.09297537  1.0
  Ga  Ga376  1  0.71556233  0.45323500  0.09297537  1.0
  Ga  Ga377  1  0.71556233  0.78656833  0.09297537  1.0
  Ga  Ga378  1  0.33226800  0.06994067  0.10546563  1.0
  Ga  Ga379  1  0.33226800  0.40327400  0.10546563  1.0
  Ga  Ga380  1  0.33226800  0.73660733  0.10546563  1.0
  Ga  Ga381  1  0.66560133  0.06994067  0.10546562  1.0
  Ga  Ga382  1  0.66560133  0.40327400  0.10546562  1.0
  Ga  Ga383  1  0.66560133  0.73660733  0.10546563  1.0
  Ga  Ga384  1  0.99893467  0.06994067  0.10546562  1.0
  Ga  Ga385  1  0.99893467  0.40327400  0.10546562  1.0
  Ga  Ga386  1  0.99893467  0.73660733  0.10546563  1.0
  Ga  Ga387  1  0.16560133  0.23660733  0.14713229  1.0
  Ga  Ga388  1  0.16560133  0.56994067  0.14713229  1.0
  Ga  Ga389  1  0.16560133  0.90327400  0.14713229  1.0
  Ga  Ga390  1  0.49893467  0.23660733  0.14713229  1.0
  Ga  Ga391  1  0.49893467  0.56994067  0.14713229  1.0
  Ga  Ga392  1  0.49893467  0.90327400  0.14713229  1.0
  Ga  Ga393  1  0.83226800  0.23660733  0.14713229  1.0
  Ga  Ga394  1  0.83226800  0.56994067  0.14713229  1.0
  Ga  Ga395  1  0.83226800  0.90327400  0.14713229  1.0
  Ni  Ni396  1  0.29166667  0.12500000  0.13336746  1.0
  Ni  Ni397  1  0.29166667  0.45833333  0.13336746  1.0
  Ni  Ni398  1  0.29166667  0.79166667  0.13336746  1.0
  Ni  Ni399  1  0.62500000  0.12500000  0.13336746  1.0
  Ni  Ni400  1  0.62500000  0.45833333  0.13336746  1.0
  Ni  Ni401  1  0.62500000  0.79166667  0.13336746  1.0
  Ni  Ni402  1  0.95833333  0.12500000  0.13336746  1.0
  Ni  Ni403  1  0.95833333  0.45833333  0.13336746  1.0
  Ni  Ni404  1  0.95833333  0.79166667  0.13336746  1.0
  Ni  Ni405  1  0.12500000  0.29166667  0.09170079  1.0
  Ni  Ni406  1  0.12500000  0.62500000  0.09170079  1.0
  Ni  Ni407  1  0.12500000  0.95833333  0.09170079  1.0
  Ni  Ni408  1  0.45833333  0.29166667  0.09170079  1.0
  Ni  Ni409  1  0.45833333  0.62500000  0.09170079  1.0
  Ni  Ni410  1  0.45833333  0.95833333  0.09170079  1.0
  Ni  Ni411  1  0.79166667  0.29166667  0.09170079  1.0
  Ni  Ni412  1  0.79166667  0.62500000  0.09170079  1.0
  Ni  Ni413  1  0.79166667  0.95833333  0.09170079  1.0
  Ni  Ni414  1  0.20833333  0.04166667  0.15420079  1.0
  Ni  Ni415  1  0.20833333  0.37500000  0.15420079  1.0
  Ni  Ni416  1  0.20833333  0.70833333  0.15420079  1.0
  Ni  Ni417  1  0.54166667  0.04166667  0.15420079  1.0
  Ni  Ni418  1  0.54166667  0.37500000  0.15420079  1.0
  Ni  Ni419  1  0.54166667  0.70833333  0.15420079  1.0
  Ni  Ni420  1  0.87500000  0.04166667  0.15420079  1.0
  Ni  Ni421  1  0.87500000  0.37500000  0.15420079  1.0
  Ni  Ni422  1  0.87500000  0.70833333  0.15420079  1.0
  Ni  Ni423  1  0.04166667  0.20833333  0.11253412  1.0
  Ni  Ni424  1  0.04166667  0.54166667  0.11253413  1.0
  Ni  Ni425  1  0.04166667  0.87500000  0.11253412  1.0
  Ni  Ni426  1  0.37500000  0.20833333  0.11253412  1.0
  Ni  Ni427  1  0.37500000  0.54166667  0.11253412  1.0
  Ni  Ni428  1  0.37500000  0.87500000  0.11253412  1.0
  Ni  Ni429  1  0.70833333  0.20833333  0.11253412  1.0
  Ni  Ni430  1  0.70833333  0.54166667  0.11253413  1.0
  Ni  Ni431  1  0.70833333  0.87500000  0.11253412  1.0
  Ga  Ga432  1  0.16666667  0.16666667  0.20628412  1.0
  Ga  Ga433  1  0.16666667  0.50000000  0.20628412  1.0
  Ga  Ga434  1  0.16666667  0.83333333  0.20628412  1.0
  Ga  Ga435  1  0.50000000  0.16666667  0.20628412  1.0
  Ga  Ga436  1  0.50000000  0.50000000  0.20628412  1.0
  Ga  Ga437  1  0.50000000  0.83333333  0.20628412  1.0
  Ga  Ga438  1  0.83333333  0.16666667  0.20628412  1.0
  Ga  Ga439  1  0.83333333  0.50000000  0.20628412  1.0
  Ga  Ga440  1  0.83333333  0.83333333  0.20628412  1.0
  Ga  Ga441  1  0.00000000  0.00000000  0.24795079  1.0
  Ga  Ga442  1  0.00000000  0.33333333  0.24795079  1.0
  Ga  Ga443  1  0.00000000  0.66666667  0.24795079  1.0
  Ga  Ga444  1  0.33333333  0.00000000  0.24795079  1.0
  Ga  Ga445  1  0.33333333  0.33333333  0.24795079  1.0
  Ga  Ga446  1  0.33333333  0.66666667  0.24795079  1.0
  Ga  Ga447  1  0.66666667  0.00000000  0.24795079  1.0
  Ga  Ga448  1  0.66666667  0.33333333  0.24795079  1.0
  Ga  Ga449  1  0.66666667  0.66666667  0.24795079  1.0
  Ga  Ga450  1  0.25000000  0.25000000  0.18545079  1.0
  Ga  Ga451  1  0.25000000  0.58333333  0.18545079  1.0
  Ga  Ga452  1  0.25000000  0.91666667  0.18545079  1.0
  Ga  Ga453  1  0.58333333  0.25000000  0.18545079  1.0
  Ga  Ga454  1  0.58333333  0.58333333  0.18545079  1.0
  Ga  Ga455  1  0.58333333  0.91666667  0.18545079  1.0
  Ga  Ga456  1  0.91666667  0.25000000  0.18545079  1.0
  Ga  Ga457  1  0.91666667  0.58333333  0.18545079  1.0
  Ga  Ga458  1  0.91666667  0.91666667  0.18545079  1.0
  Ga  Ga459  1  0.08333333  0.08333333  0.22711746  1.0
  Ga  Ga460  1  0.08333333  0.41666667  0.22711746  1.0
  Ga  Ga461  1  0.08333333  0.75000000  0.22711746  1.0
  Ga  Ga462  1  0.41666667  0.08333333  0.22711746  1.0
  Ga  Ga463  1  0.41666667  0.41666667  0.22711746  1.0
  Ga  Ga464  1  0.41666667  0.75000000  0.22711746  1.0
  Ga  Ga465  1  0.75000000  0.08333333  0.22711746  1.0
  Ga  Ga466  1  0.75000000  0.41666667  0.22711746  1.0
  Ga  Ga467  1  0.75000000  0.75000000  0.22711746  1.0
  Ga  Ga468  1  0.25106533  0.08013733  0.21123029  1.0
  Ga  Ga469  1  0.25106533  0.41347067  0.21123029  1.0
  Ga  Ga470  1  0.25106533  0.74680400  0.21123029  1.0
  Ga  Ga471  1  0.58439867  0.08013733  0.21123029  1.0
  Ga  Ga472  1  0.58439867  0.41347067  0.21123029  1.0
  Ga  Ga473  1  0.58439867  0.74680400  0.21123029  1.0
  Ga  Ga474  1  0.91773200  0.08013733  0.21123029  1.0
  Ga  Ga475  1  0.91773200  0.41347067  0.21123029  1.0
  Ga  Ga476  1  0.91773200  0.74680400  0.21123029  1.0
  Ga  Ga477  1  0.08439867  0.24680400  0.16956362  1.0
  Ga  Ga478  1  0.08439867  0.58013733  0.16956362  1.0
  Ga  Ga479  1  0.08439867  0.91347067  0.16956363  1.0
  Ga  Ga480  1  0.41773200  0.24680400  0.16956363  1.0
  Ga  Ga481  1  0.41773200  0.58013733  0.16956362  1.0
  Ga  Ga482  1  0.41773200  0.91347067  0.16956363  1.0
  Ga  Ga483  1  0.75106533  0.24680400  0.16956362  1.0
  Ga  Ga484  1  0.75106533  0.58013733  0.16956362  1.0
  Ga  Ga485  1  0.75106533  0.91347067  0.16956363  1.0
  Ga  Ga486  1  0.20110433  0.23002033  0.20713187  1.0
  Ga  Ga487  1  0.20110433  0.56335367  0.20713187  1.0
  Ga  Ga488  1  0.20110433  0.89668700  0.20713188  1.0
  Ga  Ga489  1  0.53443767  0.23002033  0.20713187  1.0
  Ga  Ga490  1  0.53443767  0.56335367  0.20713188  1.0
  Ga  Ga491  1  0.53443767  0.89668700  0.20713188  1.0
  Ga  Ga492  1  0.86777100  0.23002033  0.20713187  1.0
  Ga  Ga493  1  0.86777100  0.56335367  0.20713187  1.0
  Ga  Ga494  1  0.86777100  0.89668700  0.20713187  1.0
  Ga  Ga495  1  0.03443767  0.06335367  0.24879854  1.0
  Ga  Ga496  1  0.03443767  0.39668700  0.24879854  1.0
  Ga  Ga497  1  0.03443767  0.73002033  0.24879854  1.0
  Ga  Ga498  1  0.36777100  0.06335367  0.24879854  1.0
  Ga  Ga499  1  0.36777100  0.39668700  0.24879854  1.0
  Ga  Ga500  1  0.36777100  0.73002033  0.24879854  1.0
  Ga  Ga501  1  0.70110433  0.06335367  0.24879854  1.0
  Ga  Ga502  1  0.70110433  0.39668700  0.24879854  1.0
  Ga  Ga503  1  0.70110433  0.73002033  0.24879854  1.0
  Ga  Ga504  1  0.28443767  0.21343167  0.23625954  1.0
  Ga  Ga505  1  0.28443767  0.54676500  0.23625954  1.0
  Ga  Ga506  1  0.28443767  0.88009833  0.23625954  1.0
  Ga  Ga507  1  0.61777100  0.21343167  0.23625954  1.0
  Ga  Ga508  1  0.61777100  0.54676500  0.23625954  1.0
  Ga  Ga509  1  0.61777100  0.88009833  0.23625954  1.0
  Ga  Ga510  1  0.95110433  0.21343167  0.23625954  1.0
  Ga  Ga511  1  0.95110433  0.54676500  0.23625954  1.0
  Ga  Ga512  1  0.95110433  0.88009833  0.23625954  1.0
  Ga  Ga513  1  0.11777100  0.04676500  0.19459287  1.0
  Ga  Ga514  1  0.11777100  0.38009833  0.19459287  1.0
  Ga  Ga515  1  0.11777100  0.71343167  0.19459287  1.0
  Ga  Ga516  1  0.45110433  0.04676500  0.19459287  1.0
  Ga  Ga517  1  0.45110433  0.38009833  0.19459287  1.0
  Ga  Ga518  1  0.45110433  0.71343167  0.19459287  1.0
  Ga  Ga519  1  0.78443767  0.04676500  0.19459287  1.0
  Ga  Ga520  1  0.78443767  0.38009833  0.19459287  1.0
  Ga  Ga521  1  0.78443767  0.71343167  0.19459287  1.0
  Ga  Ga522  1  0.16773200  0.09672600  0.18210263  1.0
  Ga  Ga523  1  0.16773200  0.43005933  0.18210263  1.0
  Ga  Ga524  1  0.16773200  0.76339267  0.18210263  1.0
  Ga  Ga525  1  0.50106533  0.09672600  0.18210263  1.0
  Ga  Ga526  1  0.50106533  0.43005933  0.18210263  1.0
  Ga  Ga527  1  0.50106533  0.76339267  0.18210263  1.0
  Ga  Ga528  1  0.83439867  0.09672600  0.18210263  1.0
  Ga  Ga529  1  0.83439867  0.43005933  0.18210263  1.0
  Ga  Ga530  1  0.83439867  0.76339267  0.18210263  1.0
  Ga  Ga531  1  0.00106533  0.26339267  0.22376929  1.0
  Ga  Ga532  1  0.00106533  0.59672600  0.22376929  1.0
  Ga  Ga533  1  0.00106533  0.93005933  0.22376929  1.0
  Ga  Ga534  1  0.33439867  0.26339267  0.22376929  1.0
  Ga  Ga535  1  0.33439867  0.59672600  0.22376929  1.0
  Ga  Ga536  1  0.33439867  0.93005933  0.22376929  1.0
  Ga  Ga537  1  0.66773200  0.26339267  0.22376929  1.0
  Ga  Ga538  1  0.66773200  0.59672600  0.22376929  1.0
  Ga  Ga539  1  0.66773200  0.93005933  0.22376929  1.0
  Ga  Ga540  1  0.24893467  0.08652933  0.24300462  1.0
  Ga  Ga541  1  0.24893467  0.41986267  0.24300462  1.0
  Ga  Ga542  1  0.24893467  0.75319600  0.24300462  1.0
  Ga  Ga543  1  0.58226800  0.08652933  0.24300462  1.0
  Ga  Ga544  1  0.58226800  0.41986267  0.24300462  1.0
  Ga  Ga545  1  0.58226800  0.75319600  0.24300462  1.0
  Ga  Ga546  1  0.91560133  0.08652933  0.24300462  1.0
  Ga  Ga547  1  0.91560133  0.41986267  0.24300462  1.0
  Ga  Ga548  1  0.91560133  0.75319600  0.24300462  1.0
  Ga  Ga549  1  0.08226800  0.25319600  0.20133796  1.0
  Ga  Ga550  1  0.08226800  0.58652933  0.20133796  1.0
  Ga  Ga551  1  0.08226800  0.91986267  0.20133796  1.0
  Ga  Ga552  1  0.41560133  0.25319600  0.20133796  1.0
  Ga  Ga553  1  0.41560133  0.58652933  0.20133796  1.0
  Ga  Ga554  1  0.41560133  0.91986267  0.20133796  1.0
  Ga  Ga555  1  0.74893467  0.25319600  0.20133796  1.0
  Ga  Ga556  1  0.74893467  0.58652933  0.20133796  1.0
  Ga  Ga557  1  0.74893467  0.91986267  0.20133796  1.0
  Ga  Ga558  1  0.29889567  0.26997967  0.24710304  1.0
  Ga  Ga559  1  0.29889567  0.60331300  0.24710304  1.0
  Ga  Ga560  1  0.29889567  0.93664633  0.24710304  1.0
  Ga  Ga561  1  0.63222900  0.26997967  0.24710304  1.0
  Ga  Ga562  1  0.63222900  0.60331300  0.24710304  1.0
  Ga  Ga563  1  0.63222900  0.93664633  0.24710304  1.0
  Ga  Ga564  1  0.96556233  0.26997967  0.24710304  1.0
  Ga  Ga565  1  0.96556233  0.60331300  0.24710304  1.0
  Ga  Ga566  1  0.96556233  0.93664633  0.24710304  1.0
  Ga  Ga567  1  0.13222900  0.10331300  0.20543637  1.0
  Ga  Ga568  1  0.13222900  0.43664633  0.20543637  1.0
  Ga  Ga569  1  0.13222900  0.76997967  0.20543637  1.0
  Ga  Ga570  1  0.46556233  0.10331300  0.20543637  1.0
  Ga  Ga571  1  0.46556233  0.43664633  0.20543637  1.0
  Ga  Ga572  1  0.46556233  0.76997967  0.20543637  1.0
  Ga  Ga573  1  0.79889567  0.10331300  0.20543637  1.0
  Ga  Ga574  1  0.79889567  0.43664633  0.20543637  1.0
  Ga  Ga575  1  0.79889567  0.76997967  0.20543637  1.0
  Ga  Ga576  1  0.21556233  0.28656833  0.21797538  1.0
  Ga  Ga577  1  0.21556233  0.61990167  0.21797537  1.0
  Ga  Ga578  1  0.21556233  0.95323500  0.21797537  1.0
  Ga  Ga579  1  0.54889567  0.28656833  0.21797537  1.0
  Ga  Ga580  1  0.54889567  0.61990167  0.21797537  1.0
  Ga  Ga581  1  0.54889567  0.95323500  0.21797537  1.0
  Ga  Ga582  1  0.88222900  0.28656833  0.21797537  1.0
  Ga  Ga583  1  0.88222900  0.61990167  0.21797537  1.0
  Ga  Ga584  1  0.88222900  0.95323500  0.21797537  1.0
  Ga  Ga585  1  0.04889567  0.11990167  0.17630871  1.0
  Ga  Ga586  1  0.04889567  0.45323500  0.17630871  1.0
  Ga  Ga587  1  0.04889567  0.78656833  0.17630871  1.0
  Ga  Ga588  1  0.38222900  0.11990167  0.17630871  1.0
  Ga  Ga589  1  0.38222900  0.45323500  0.17630871  1.0
  Ga  Ga590  1  0.38222900  0.78656833  0.17630871  1.0
  Ga  Ga591  1  0.71556233  0.11990167  0.17630871  1.0
  Ga  Ga592  1  0.71556233  0.45323500  0.17630871  1.0
  Ga  Ga593  1  0.71556233  0.78656833  0.17630871  1.0
  Ga  Ga594  1  0.33226800  0.06994067  0.18879896  1.0
  Ga  Ga595  1  0.33226800  0.40327400  0.18879896  1.0
  Ga  Ga596  1  0.33226800  0.73660733  0.18879896  1.0
  Ga  Ga597  1  0.66560133  0.06994067  0.18879896  1.0
  Ga  Ga598  1  0.66560133  0.40327400  0.18879896  1.0
  Ga  Ga599  1  0.66560133  0.73660733  0.18879896  1.0
  Ga  Ga600  1  0.99893467  0.06994067  0.18879896  1.0
  Ga  Ga601  1  0.99893467  0.40327400  0.18879896  1.0
  Ga  Ga602  1  0.99893467  0.73660733  0.18879896  1.0
  Ga  Ga603  1  0.16560133  0.23660733  0.23046562  1.0
  Ga  Ga604  1  0.16560133  0.56994067  0.23046562  1.0
  Ga  Ga605  1  0.16560133  0.90327400  0.23046563  1.0
  Ga  Ga606  1  0.49893467  0.23660733  0.23046562  1.0
  Ga  Ga607  1  0.49893467  0.56994067  0.23046562  1.0
  Ga  Ga608  1  0.49893467  0.90327400  0.23046563  1.0
  Ga  Ga609  1  0.83226800  0.23660733  0.23046562  1.0
  Ga  Ga610  1  0.83226800  0.56994067  0.23046562  1.0
  Ga  Ga611  1  0.83226800  0.90327400  0.23046562  1.0
  Ni  Ni612  1  0.29166667  0.12500000  0.21670079  1.0
  Ni  Ni613  1  0.29166667  0.45833333  0.21670079  1.0
  Ni  Ni614  1  0.29166667  0.79166667  0.21670079  1.0
  Ni  Ni615  1  0.62500000  0.12500000  0.21670079  1.0
  Ni  Ni616  1  0.62500000  0.45833333  0.21670079  1.0
  Ni  Ni617  1  0.62500000  0.79166667  0.21670079  1.0
  Ni  Ni618  1  0.95833333  0.12500000  0.21670079  1.0
  Ni  Ni619  1  0.95833333  0.45833333  0.21670079  1.0
  Ni  Ni620  1  0.95833333  0.79166667  0.21670079  1.0
  Ni  Ni621  1  0.12500000  0.29166667  0.17503413  1.0
  Ni  Ni622  1  0.12500000  0.62500000  0.17503413  1.0
  Ni  Ni623  1  0.12500000  0.95833333  0.17503412  1.0
  Ni  Ni624  1  0.45833333  0.29166667  0.17503412  1.0
  Ni  Ni625  1  0.45833333  0.62500000  0.17503413  1.0
  Ni  Ni626  1  0.45833333  0.95833333  0.17503412  1.0
  Ni  Ni627  1  0.79166667  0.29166667  0.17503412  1.0
  Ni  Ni628  1  0.79166667  0.62500000  0.17503413  1.0
  Ni  Ni629  1  0.79166667  0.95833333  0.17503413  1.0
  Ni  Ni630  1  0.20833333  0.04166667  0.23753412  1.0
  Ni  Ni631  1  0.20833333  0.37500000  0.23753413  1.0
  Ni  Ni632  1  0.20833333  0.70833333  0.23753412  1.0
  Ni  Ni633  1  0.54166667  0.04166667  0.23753412  1.0
  Ni  Ni634  1  0.54166667  0.37500000  0.23753413  1.0
  Ni  Ni635  1  0.54166667  0.70833333  0.23753412  1.0
  Ni  Ni636  1  0.87500000  0.04166667  0.23753412  1.0
  Ni  Ni637  1  0.87500000  0.37500000  0.23753412  1.0
  Ni  Ni638  1  0.87500000  0.70833333  0.23753413  1.0
  Ni  Ni639  1  0.04166667  0.20833333  0.19586746  1.0
  Ni  Ni640  1  0.04166667  0.54166667  0.19586746  1.0
  Ni  Ni641  1  0.04166667  0.87500000  0.19586746  1.0
  Ni  Ni642  1  0.37500000  0.20833333  0.19586746  1.0
  Ni  Ni643  1  0.37500000  0.54166667  0.19586746  1.0
  Ni  Ni644  1  0.37500000  0.87500000  0.19586746  1.0
  Ni  Ni645  1  0.70833333  0.20833333  0.19586746  1.0
  Ni  Ni646  1  0.70833333  0.54166667  0.19586746  1.0
  Ni  Ni647  1  0.70833333  0.87500000  0.19586746  1.0
  Ga  Ga648  1  0.16666667  0.16666667  0.28961746  1.0
  Ga  Ga649  1  0.16666667  0.50000000  0.28961746  1.0
  Ga  Ga650  1  0.16666667  0.83333333  0.28961746  1.0
  Ga  Ga651  1  0.50000000  0.16666667  0.28961746  1.0
  Ga  Ga652  1  0.50000000  0.50000000  0.28961746  1.0
  Ga  Ga653  1  0.50000000  0.83333333  0.28961746  1.0
  Ga  Ga654  1  0.83333333  0.16666667  0.28961746  1.0
  Ga  Ga655  1  0.83333333  0.50000000  0.28961746  1.0
  Ga  Ga656  1  0.83333333  0.83333333  0.28961746  1.0
  Ga  Ga657  1  0.00000000  0.00000000  0.33128412  1.0
  Ga  Ga658  1  0.00000000  0.33333333  0.33128413  1.0
  Ga  Ga659  1  0.00000000  0.66666667  0.33128412  1.0
  Ga  Ga660  1  0.33333333  0.00000000  0.33128412  1.0
  Ga  Ga661  1  0.33333333  0.33333333  0.33128412  1.0
  Ga  Ga662  1  0.33333333  0.66666667  0.33128412  1.0
  Ga  Ga663  1  0.66666667  0.00000000  0.33128412  1.0
  Ga  Ga664  1  0.66666667  0.33333333  0.33128412  1.0
  Ga  Ga665  1  0.66666667  0.66666667  0.33128412  1.0
  Ga  Ga666  1  0.25000000  0.25000000  0.26878412  1.0
  Ga  Ga667  1  0.25000000  0.58333333  0.26878413  1.0
  Ga  Ga668  1  0.25000000  0.91666667  0.26878412  1.0
  Ga  Ga669  1  0.58333333  0.25000000  0.26878412  1.0
  Ga  Ga670  1  0.58333333  0.58333333  0.26878412  1.0
  Ga  Ga671  1  0.58333333  0.91666667  0.26878412  1.0
  Ga  Ga672  1  0.91666667  0.25000000  0.26878412  1.0
  Ga  Ga673  1  0.91666667  0.58333333  0.26878413  1.0
  Ga  Ga674  1  0.91666667  0.91666667  0.26878412  1.0
  Ga  Ga675  1  0.08333333  0.08333333  0.31045079  1.0
  Ga  Ga676  1  0.08333333  0.41666667  0.31045079  1.0
  Ga  Ga677  1  0.08333333  0.75000000  0.31045079  1.0
  Ga  Ga678  1  0.41666667  0.08333333  0.31045079  1.0
  Ga  Ga679  1  0.41666667  0.41666667  0.31045079  1.0
  Ga  Ga680  1  0.41666667  0.75000000  0.31045079  1.0
  Ga  Ga681  1  0.75000000  0.08333333  0.31045079  1.0
  Ga  Ga682  1  0.75000000  0.41666667  0.31045079  1.0
  Ga  Ga683  1  0.75000000  0.75000000  0.31045079  1.0
  Ga  Ga684  1  0.25106533  0.08013733  0.29456362  1.0
  Ga  Ga685  1  0.25106533  0.41347067  0.29456363  1.0
  Ga  Ga686  1  0.25106533  0.74680400  0.29456363  1.0
  Ga  Ga687  1  0.58439867  0.08013733  0.29456362  1.0
  Ga  Ga688  1  0.58439867  0.41347067  0.29456362  1.0
  Ga  Ga689  1  0.58439867  0.74680400  0.29456362  1.0
  Ga  Ga690  1  0.91773200  0.08013733  0.29456362  1.0
  Ga  Ga691  1  0.91773200  0.41347067  0.29456362  1.0
  Ga  Ga692  1  0.91773200  0.74680400  0.29456362  1.0
  Ga  Ga693  1  0.08439867  0.24680400  0.25289696  1.0
  Ga  Ga694  1  0.08439867  0.58013733  0.25289696  1.0
  Ga  Ga695  1  0.08439867  0.91347067  0.25289696  1.0
  Ga  Ga696  1  0.41773200  0.24680400  0.25289696  1.0
  Ga  Ga697  1  0.41773200  0.58013733  0.25289696  1.0
  Ga  Ga698  1  0.41773200  0.91347067  0.25289696  1.0
  Ga  Ga699  1  0.75106533  0.24680400  0.25289696  1.0
  Ga  Ga700  1  0.75106533  0.58013733  0.25289696  1.0
  Ga  Ga701  1  0.75106533  0.91347067  0.25289696  1.0
  Ga  Ga702  1  0.20110433  0.23002033  0.29046521  1.0
  Ga  Ga703  1  0.20110433  0.56335367  0.29046521  1.0
  Ga  Ga704  1  0.20110433  0.89668700  0.29046521  1.0
  Ga  Ga705  1  0.53443767  0.23002033  0.29046521  1.0
  Ga  Ga706  1  0.53443767  0.56335367  0.29046521  1.0
  Ga  Ga707  1  0.53443767  0.89668700  0.29046521  1.0
  Ga  Ga708  1  0.86777100  0.23002033  0.29046521  1.0
  Ga  Ga709  1  0.86777100  0.56335367  0.29046521  1.0
  Ga  Ga710  1  0.86777100  0.89668700  0.29046521  1.0
  Ga  Ga711  1  0.03443767  0.06335367  0.33213187  1.0
  Ga  Ga712  1  0.03443767  0.39668700  0.33213187  1.0
  Ga  Ga713  1  0.03443767  0.73002033  0.33213187  1.0
  Ga  Ga714  1  0.36777100  0.06335367  0.33213187  1.0
  Ga  Ga715  1  0.36777100  0.39668700  0.33213187  1.0
  Ga  Ga716  1  0.36777100  0.73002033  0.33213187  1.0
  Ga  Ga717  1  0.70110433  0.06335367  0.33213187  1.0
  Ga  Ga718  1  0.70110433  0.39668700  0.33213187  1.0
  Ga  Ga719  1  0.70110433  0.73002033  0.33213187  1.0
  Ga  Ga720  1  0.28443767  0.21343167  0.31959287  1.0
  Ga  Ga721  1  0.28443767  0.54676500  0.31959287  1.0
  Ga  Ga722  1  0.28443767  0.88009833  0.31959287  1.0
  Ga  Ga723  1  0.61777100  0.21343167  0.31959287  1.0
  Ga  Ga724  1  0.61777100  0.54676500  0.31959287  1.0
  Ga  Ga725  1  0.61777100  0.88009833  0.31959287  1.0
  Ga  Ga726  1  0.95110433  0.21343167  0.31959287  1.0
  Ga  Ga727  1  0.95110433  0.54676500  0.31959287  1.0
  Ga  Ga728  1  0.95110433  0.88009833  0.31959287  1.0
  Ga  Ga729  1  0.11777100  0.04676500  0.27792621  1.0
  Ga  Ga730  1  0.11777100  0.38009833  0.27792621  1.0
  Ga  Ga731  1  0.11777100  0.71343167  0.27792621  1.0
  Ga  Ga732  1  0.45110433  0.04676500  0.27792621  1.0
  Ga  Ga733  1  0.45110433  0.38009833  0.27792621  1.0
  Ga  Ga734  1  0.45110433  0.71343167  0.27792621  1.0
  Ga  Ga735  1  0.78443767  0.04676500  0.27792621  1.0
  Ga  Ga736  1  0.78443767  0.38009833  0.27792621  1.0
  Ga  Ga737  1  0.78443767  0.71343167  0.27792621  1.0
  Ga  Ga738  1  0.16773200  0.09672600  0.26543596  1.0
  Ga  Ga739  1  0.16773200  0.43005933  0.26543596  1.0
  Ga  Ga740  1  0.16773200  0.76339267  0.26543596  1.0
  Ga  Ga741  1  0.50106533  0.09672600  0.26543596  1.0
  Ga  Ga742  1  0.50106533  0.43005933  0.26543596  1.0
  Ga  Ga743  1  0.50106533  0.76339267  0.26543596  1.0
  Ga  Ga744  1  0.83439867  0.09672600  0.26543596  1.0
  Ga  Ga745  1  0.83439867  0.43005933  0.26543596  1.0
  Ga  Ga746  1  0.83439867  0.76339267  0.26543596  1.0
  Ga  Ga747  1  0.00106533  0.26339267  0.30710262  1.0
  Ga  Ga748  1  0.00106533  0.59672600  0.30710263  1.0
  Ga  Ga749  1  0.00106533  0.93005933  0.30710263  1.0
  Ga  Ga750  1  0.33439867  0.26339267  0.30710263  1.0
  Ga  Ga751  1  0.33439867  0.59672600  0.30710263  1.0
  Ga  Ga752  1  0.33439867  0.93005933  0.30710263  1.0
  Ga  Ga753  1  0.66773200  0.26339267  0.30710262  1.0
  Ga  Ga754  1  0.66773200  0.59672600  0.30710262  1.0
  Ga  Ga755  1  0.66773200  0.93005933  0.30710263  1.0
  Ga  Ga756  1  0.24893467  0.08652933  0.32633796  1.0
  Ga  Ga757  1  0.24893467  0.41986267  0.32633796  1.0
  Ga  Ga758  1  0.24893467  0.75319600  0.32633796  1.0
  Ga  Ga759  1  0.58226800  0.08652933  0.32633796  1.0
  Ga  Ga760  1  0.58226800  0.41986267  0.32633796  1.0
  Ga  Ga761  1  0.58226800  0.75319600  0.32633796  1.0
  Ga  Ga762  1  0.91560133  0.08652933  0.32633796  1.0
  Ga  Ga763  1  0.91560133  0.41986267  0.32633796  1.0
  Ga  Ga764  1  0.91560133  0.75319600  0.32633796  1.0
  Ga  Ga765  1  0.08226800  0.25319600  0.28467129  1.0
  Ga  Ga766  1  0.08226800  0.58652933  0.28467129  1.0
  Ga  Ga767  1  0.08226800  0.91986267  0.28467129  1.0
  Ga  Ga768  1  0.41560133  0.25319600  0.28467129  1.0
  Ga  Ga769  1  0.41560133  0.58652933  0.28467129  1.0
  Ga  Ga770  1  0.41560133  0.91986267  0.28467129  1.0
  Ga  Ga771  1  0.74893467  0.25319600  0.28467129  1.0
  Ga  Ga772  1  0.74893467  0.58652933  0.28467129  1.0
  Ga  Ga773  1  0.74893467  0.91986267  0.28467129  1.0
  Ga  Ga774  1  0.29889567  0.26997967  0.33043638  1.0
  Ga  Ga775  1  0.29889567  0.60331300  0.33043637  1.0
  Ga  Ga776  1  0.29889567  0.93664633  0.33043637  1.0
  Ga  Ga777  1  0.63222900  0.26997967  0.33043637  1.0
  Ga  Ga778  1  0.63222900  0.60331300  0.33043637  1.0
  Ga  Ga779  1  0.63222900  0.93664633  0.33043637  1.0
  Ga  Ga780  1  0.96556233  0.26997967  0.33043638  1.0
  Ga  Ga781  1  0.96556233  0.60331300  0.33043637  1.0
  Ga  Ga782  1  0.96556233  0.93664633  0.33043637  1.0
  Ga  Ga783  1  0.13222900  0.10331300  0.28876971  1.0
  Ga  Ga784  1  0.13222900  0.43664633  0.28876971  1.0
  Ga  Ga785  1  0.13222900  0.76997967  0.28876971  1.0
  Ga  Ga786  1  0.46556233  0.10331300  0.28876971  1.0
  Ga  Ga787  1  0.46556233  0.43664633  0.28876971  1.0
  Ga  Ga788  1  0.46556233  0.76997967  0.28876971  1.0
  Ga  Ga789  1  0.79889567  0.10331300  0.28876971  1.0
  Ga  Ga790  1  0.79889567  0.43664633  0.28876971  1.0
  Ga  Ga791  1  0.79889567  0.76997967  0.28876971  1.0
  Ga  Ga792  1  0.21556233  0.28656833  0.30130871  1.0
  Ga  Ga793  1  0.21556233  0.61990167  0.30130871  1.0
  Ga  Ga794  1  0.21556233  0.95323500  0.30130871  1.0
  Ga  Ga795  1  0.54889567  0.28656833  0.30130871  1.0
  Ga  Ga796  1  0.54889567  0.61990167  0.30130871  1.0
  Ga  Ga797  1  0.54889567  0.95323500  0.30130871  1.0
  Ga  Ga798  1  0.88222900  0.28656833  0.30130871  1.0
  Ga  Ga799  1  0.88222900  0.61990167  0.30130871  1.0
  Ga  Ga800  1  0.88222900  0.95323500  0.30130871  1.0
  Ga  Ga801  1  0.04889567  0.11990167  0.25964204  1.0
  Ga  Ga802  1  0.04889567  0.45323500  0.25964204  1.0
  Ga  Ga803  1  0.04889567  0.78656833  0.25964204  1.0
  Ga  Ga804  1  0.38222900  0.11990167  0.25964204  1.0
  Ga  Ga805  1  0.38222900  0.45323500  0.25964204  1.0
  Ga  Ga806  1  0.38222900  0.78656833  0.25964204  1.0
  Ga  Ga807  1  0.71556233  0.11990167  0.25964204  1.0
  Ga  Ga808  1  0.71556233  0.45323500  0.25964204  1.0
  Ga  Ga809  1  0.71556233  0.78656833  0.25964204  1.0
  Ga  Ga810  1  0.33226800  0.06994067  0.27213229  1.0
  Ga  Ga811  1  0.33226800  0.40327400  0.27213229  1.0
  Ga  Ga812  1  0.33226800  0.73660733  0.27213229  1.0
  Ga  Ga813  1  0.66560133  0.06994067  0.27213229  1.0
  Ga  Ga814  1  0.66560133  0.40327400  0.27213229  1.0
  Ga  Ga815  1  0.66560133  0.73660733  0.27213229  1.0
  Ga  Ga816  1  0.99893467  0.06994067  0.27213229  1.0
  Ga  Ga817  1  0.99893467  0.40327400  0.27213229  1.0
  Ga  Ga818  1  0.99893467  0.73660733  0.27213229  1.0
  Ga  Ga819  1  0.16560133  0.23660733  0.31379896  1.0
  Ga  Ga820  1  0.16560133  0.56994067  0.31379896  1.0
  Ga  Ga821  1  0.16560133  0.90327400  0.31379896  1.0
  Ga  Ga822  1  0.49893467  0.23660733  0.31379896  1.0
  Ga  Ga823  1  0.49893467  0.56994067  0.31379896  1.0
  Ga  Ga824  1  0.49893467  0.90327400  0.31379896  1.0
  Ga  Ga825  1  0.83226800  0.23660733  0.31379896  1.0
  Ga  Ga826  1  0.83226800  0.56994067  0.31379896  1.0
  Ga  Ga827  1  0.83226800  0.90327400  0.31379896  1.0
  Ni  Ni828  1  0.29166667  0.12500000  0.30003412  1.0
  Ni  Ni829  1  0.29166667  0.45833333  0.30003412  1.0
  Ni  Ni830  1  0.29166667  0.79166667  0.30003412  1.0
  Ni  Ni831  1  0.62500000  0.12500000  0.30003412  1.0
  Ni  Ni832  1  0.62500000  0.45833333  0.30003412  1.0
  Ni  Ni833  1  0.62500000  0.79166667  0.30003412  1.0
  Ni  Ni834  1  0.95833333  0.12500000  0.30003412  1.0
  Ni  Ni835  1  0.95833333  0.45833333  0.30003412  1.0
  Ni  Ni836  1  0.95833333  0.79166667  0.30003412  1.0
  Ni  Ni837  1  0.12500000  0.29166667  0.25836746  1.0
  Ni  Ni838  1  0.12500000  0.62500000  0.25836746  1.0
  Ni  Ni839  1  0.12500000  0.95833333  0.25836746  1.0
  Ni  Ni840  1  0.45833333  0.29166667  0.25836746  1.0
  Ni  Ni841  1  0.45833333  0.62500000  0.25836746  1.0
  Ni  Ni842  1  0.45833333  0.95833333  0.25836746  1.0
  Ni  Ni843  1  0.79166667  0.29166667  0.25836746  1.0
  Ni  Ni844  1  0.79166667  0.62500000  0.25836746  1.0
  Ni  Ni845  1  0.79166667  0.95833333  0.25836746  1.0
  Ni  Ni846  1  0.20833333  0.04166667  0.32086746  1.0
  Ni  Ni847  1  0.20833333  0.37500000  0.32086746  1.0
  Ni  Ni848  1  0.20833333  0.70833333  0.32086746  1.0
  Ni  Ni849  1  0.54166667  0.04166667  0.32086746  1.0
  Ni  Ni850  1  0.54166667  0.37500000  0.32086746  1.0
  Ni  Ni851  1  0.54166667  0.70833333  0.32086746  1.0
  Ni  Ni852  1  0.87500000  0.04166667  0.32086746  1.0
  Ni  Ni853  1  0.87500000  0.37500000  0.32086746  1.0
  Ni  Ni854  1  0.87500000  0.70833333  0.32086746  1.0
  Ni  Ni855  1  0.04166667  0.20833333  0.27920079  1.0
  Ni  Ni856  1  0.04166667  0.54166667  0.27920079  1.0
  Ni  Ni857  1  0.04166667  0.87500000  0.27920079  1.0
  Ni  Ni858  1  0.37500000  0.20833333  0.27920079  1.0
  Ni  Ni859  1  0.37500000  0.54166667  0.27920079  1.0
  Ni  Ni860  1  0.37500000  0.87500000  0.27920079  1.0
  Ni  Ni861  1  0.70833333  0.20833333  0.27920079  1.0
  Ni  Ni862  1  0.70833333  0.54166667  0.27920079  1.0
  Ni  Ni863  1  0.70833333  0.87500000  0.27920079  1.0
  Ga  Ga864  1  0.16666667  0.16666667  0.37295079  1.0
  Ga  Ga865  1  0.16666667  0.50000000  0.37295079  1.0
  Ga  Ga866  1  0.16666667  0.83333333  0.37295079  1.0
  Ga  Ga867  1  0.50000000  0.16666667  0.37295079  1.0
  Ga  Ga868  1  0.50000000  0.50000000  0.37295079  1.0
  Ga  Ga869  1  0.50000000  0.83333333  0.37295079  1.0
  Ga  Ga870  1  0.83333333  0.16666667  0.37295079  1.0
  Ga  Ga871  1  0.83333333  0.50000000  0.37295079  1.0
  Ga  Ga872  1  0.83333333  0.83333333  0.37295079  1.0
  Ga  Ga873  1  0.00000000  0.00000000  0.41461746  1.0
  Ga  Ga874  1  0.00000000  0.33333333  0.41461746  1.0
  Ga  Ga875  1  0.00000000  0.66666667  0.41461746  1.0
  Ga  Ga876  1  0.33333333  0.00000000  0.41461746  1.0
  Ga  Ga877  1  0.33333333  0.33333333  0.41461746  1.0
  Ga  Ga878  1  0.33333333  0.66666667  0.41461746  1.0
  Ga  Ga879  1  0.66666667  0.00000000  0.41461746  1.0
  Ga  Ga880  1  0.66666667  0.33333333  0.41461746  1.0
  Ga  Ga881  1  0.66666667  0.66666667  0.41461746  1.0
  Ga  Ga882  1  0.25000000  0.25000000  0.35211746  1.0
  Ga  Ga883  1  0.25000000  0.58333333  0.35211746  1.0
  Ga  Ga884  1  0.25000000  0.91666667  0.35211746  1.0
  Ga  Ga885  1  0.58333333  0.25000000  0.35211746  1.0
  Ga  Ga886  1  0.58333333  0.58333333  0.35211746  1.0
  Ga  Ga887  1  0.58333333  0.91666667  0.35211746  1.0
  Ga  Ga888  1  0.91666667  0.25000000  0.35211746  1.0
  Ga  Ga889  1  0.91666667  0.58333333  0.35211746  1.0
  Ga  Ga890  1  0.91666667  0.91666667  0.35211746  1.0
  Ga  Ga891  1  0.08333333  0.08333333  0.39378412  1.0
  Ga  Ga892  1  0.08333333  0.41666667  0.39378412  1.0
  Ga  Ga893  1  0.08333333  0.75000000  0.39378413  1.0
  Ga  Ga894  1  0.41666667  0.08333333  0.39378412  1.0
  Ga  Ga895  1  0.41666667  0.41666667  0.39378412  1.0
  Ga  Ga896  1  0.41666667  0.75000000  0.39378413  1.0
  Ga  Ga897  1  0.75000000  0.08333333  0.39378412  1.0
  Ga  Ga898  1  0.75000000  0.41666667  0.39378412  1.0
  Ga  Ga899  1  0.75000000  0.75000000  0.39378412  1.0
  Ga  Ga900  1  0.25106533  0.08013733  0.37789696  1.0
  Ga  Ga901  1  0.25106533  0.41347067  0.37789696  1.0
  Ga  Ga902  1  0.25106533  0.74680400  0.37789696  1.0
  Ga  Ga903  1  0.58439867  0.08013733  0.37789696  1.0
  Ga  Ga904  1  0.58439867  0.41347067  0.37789696  1.0
  Ga  Ga905  1  0.58439867  0.74680400  0.37789696  1.0
  Ga  Ga906  1  0.91773200  0.08013733  0.37789696  1.0
  Ga  Ga907  1  0.91773200  0.41347067  0.37789696  1.0
  Ga  Ga908  1  0.91773200  0.74680400  0.37789696  1.0
  Ga  Ga909  1  0.08439867  0.24680400  0.33623029  1.0
  Ga  Ga910  1  0.08439867  0.58013733  0.33623029  1.0
  Ga  Ga911  1  0.08439867  0.91347067  0.33623029  1.0
  Ga  Ga912  1  0.41773200  0.24680400  0.33623029  1.0
  Ga  Ga913  1  0.41773200  0.58013733  0.33623029  1.0
  Ga  Ga914  1  0.41773200  0.91347067  0.33623029  1.0
  Ga  Ga915  1  0.75106533  0.24680400  0.33623029  1.0
  Ga  Ga916  1  0.75106533  0.58013733  0.33623029  1.0
  Ga  Ga917  1  0.75106533  0.91347067  0.33623029  1.0
  Ga  Ga918  1  0.20110433  0.23002033  0.37379854  1.0
  Ga  Ga919  1  0.20110433  0.56335367  0.37379854  1.0
  Ga  Ga920  1  0.20110433  0.89668700  0.37379854  1.0
  Ga  Ga921  1  0.53443767  0.23002033  0.37379854  1.0
  Ga  Ga922  1  0.53443767  0.56335367  0.37379854  1.0
  Ga  Ga923  1  0.53443767  0.89668700  0.37379854  1.0
  Ga  Ga924  1  0.86777100  0.23002033  0.37379854  1.0
  Ga  Ga925  1  0.86777100  0.56335367  0.37379854  1.0
  Ga  Ga926  1  0.86777100  0.89668700  0.37379854  1.0
  Ga  Ga927  1  0.03443767  0.06335367  0.41546521  1.0
  Ga  Ga928  1  0.03443767  0.39668700  0.41546521  1.0
  Ga  Ga929  1  0.03443767  0.73002033  0.41546521  1.0
  Ga  Ga930  1  0.36777100  0.06335367  0.41546521  1.0
  Ga  Ga931  1  0.36777100  0.39668700  0.41546521  1.0
  Ga  Ga932  1  0.36777100  0.73002033  0.41546521  1.0
  Ga  Ga933  1  0.70110433  0.06335367  0.41546521  1.0
  Ga  Ga934  1  0.70110433  0.39668700  0.41546521  1.0
  Ga  Ga935  1  0.70110433  0.73002033  0.41546521  1.0
  Ga  Ga936  1  0.28443767  0.21343167  0.40292621  1.0
  Ga  Ga937  1  0.28443767  0.54676500  0.40292621  1.0
  Ga  Ga938  1  0.28443767  0.88009833  0.40292621  1.0
  Ga  Ga939  1  0.61777100  0.21343167  0.40292621  1.0
  Ga  Ga940  1  0.61777100  0.54676500  0.40292621  1.0
  Ga  Ga941  1  0.61777100  0.88009833  0.40292621  1.0
  Ga  Ga942  1  0.95110433  0.21343167  0.40292621  1.0
  Ga  Ga943  1  0.95110433  0.54676500  0.40292621  1.0
  Ga  Ga944  1  0.95110433  0.88009833  0.40292621  1.0
  Ga  Ga945  1  0.11777100  0.04676500  0.36125954  1.0
  Ga  Ga946  1  0.11777100  0.38009833  0.36125954  1.0
  Ga  Ga947  1  0.11777100  0.71343167  0.36125954  1.0
  Ga  Ga948  1  0.45110433  0.04676500  0.36125954  1.0
  Ga  Ga949  1  0.45110433  0.38009833  0.36125954  1.0
  Ga  Ga950  1  0.45110433  0.71343167  0.36125954  1.0
  Ga  Ga951  1  0.78443767  0.04676500  0.36125954  1.0
  Ga  Ga952  1  0.78443767  0.38009833  0.36125954  1.0
  Ga  Ga953  1  0.78443767  0.71343167  0.36125954  1.0
  Ga  Ga954  1  0.16773200  0.09672600  0.34876929  1.0
  Ga  Ga955  1  0.16773200  0.43005933  0.34876929  1.0
  Ga  Ga956  1  0.16773200  0.76339267  0.34876929  1.0
  Ga  Ga957  1  0.50106533  0.09672600  0.34876929  1.0
  Ga  Ga958  1  0.50106533  0.43005933  0.34876929  1.0
  Ga  Ga959  1  0.50106533  0.76339267  0.34876929  1.0
  Ga  Ga960  1  0.83439867  0.09672600  0.34876929  1.0
  Ga  Ga961  1  0.83439867  0.43005933  0.34876929  1.0
  Ga  Ga962  1  0.83439867  0.76339267  0.34876929  1.0
  Ga  Ga963  1  0.00106533  0.26339267  0.39043596  1.0
  Ga  Ga964  1  0.00106533  0.59672600  0.39043596  1.0
  Ga  Ga965  1  0.00106533  0.93005933  0.39043596  1.0
  Ga  Ga966  1  0.33439867  0.26339267  0.39043596  1.0
  Ga  Ga967  1  0.33439867  0.59672600  0.39043596  1.0
  Ga  Ga968  1  0.33439867  0.93005933  0.39043596  1.0
  Ga  Ga969  1  0.66773200  0.26339267  0.39043596  1.0
  Ga  Ga970  1  0.66773200  0.59672600  0.39043596  1.0
  Ga  Ga971  1  0.66773200  0.93005933  0.39043596  1.0
  Ga  Ga972  1  0.24893467  0.08652933  0.40967129  1.0
  Ga  Ga973  1  0.24893467  0.41986267  0.40967129  1.0
  Ga  Ga974  1  0.24893467  0.75319600  0.40967129  1.0
  Ga  Ga975  1  0.58226800  0.08652933  0.40967129  1.0
  Ga  Ga976  1  0.58226800  0.41986267  0.40967129  1.0
  Ga  Ga977  1  0.58226800  0.75319600  0.40967129  1.0
  Ga  Ga978  1  0.91560133  0.08652933  0.40967129  1.0
  Ga  Ga979  1  0.91560133  0.41986267  0.40967129  1.0
  Ga  Ga980  1  0.91560133  0.75319600  0.40967129  1.0
  Ga  Ga981  1  0.08226800  0.25319600  0.36800462  1.0
  Ga  Ga982  1  0.08226800  0.58652933  0.36800462  1.0
  Ga  Ga983  1  0.08226800  0.91986267  0.36800462  1.0
  Ga  Ga984  1  0.41560133  0.25319600  0.36800462  1.0
  Ga  Ga985  1  0.41560133  0.58652933  0.36800462  1.0
  Ga  Ga986  1  0.41560133  0.91986267  0.36800462  1.0
  Ga  Ga987  1  0.74893467  0.25319600  0.36800462  1.0
  Ga  Ga988  1  0.74893467  0.58652933  0.36800462  1.0
  Ga  Ga989  1  0.74893467  0.91986267  0.36800462  1.0
  Ga  Ga990  1  0.29889567  0.26997967  0.41376971  1.0
  Ga  Ga991  1  0.29889567  0.60331300  0.41376971  1.0
  Ga  Ga992  1  0.29889567  0.93664633  0.41376971  1.0
  Ga  Ga993  1  0.63222900  0.26997967  0.41376971  1.0
  Ga  Ga994  1  0.63222900  0.60331300  0.41376971  1.0
  Ga  Ga995  1  0.63222900  0.93664633  0.41376971  1.0
  Ga  Ga996  1  0.96556233  0.26997967  0.41376971  1.0
  Ga  Ga997  1  0.96556233  0.60331300  0.41376971  1.0
  Ga  Ga998  1  0.96556233  0.93664633  0.41376971  1.0
  Ga  Ga999  1  0.13222900  0.10331300  0.37210304  1.0
  Ga  Ga1000  1  0.13222900  0.43664633  0.37210304  1.0
  Ga  Ga1001  1  0.13222900  0.76997967  0.37210304  1.0
  Ga  Ga1002  1  0.46556233  0.10331300  0.37210304  1.0
  Ga  Ga1003  1  0.46556233  0.43664633  0.37210304  1.0
  Ga  Ga1004  1  0.46556233  0.76997967  0.37210304  1.0
  Ga  Ga1005  1  0.79889567  0.10331300  0.37210304  1.0
  Ga  Ga1006  1  0.79889567  0.43664633  0.37210304  1.0
  Ga  Ga1007  1  0.79889567  0.76997967  0.37210304  1.0
  Ga  Ga1008  1  0.21556233  0.28656833  0.38464204  1.0
  Ga  Ga1009  1  0.21556233  0.61990167  0.38464204  1.0
  Ga  Ga1010  1  0.21556233  0.95323500  0.38464204  1.0
  Ga  Ga1011  1  0.54889567  0.28656833  0.38464204  1.0
  Ga  Ga1012  1  0.54889567  0.61990167  0.38464204  1.0
  Ga  Ga1013  1  0.54889567  0.95323500  0.38464204  1.0
  Ga  Ga1014  1  0.88222900  0.28656833  0.38464204  1.0
  Ga  Ga1015  1  0.88222900  0.61990167  0.38464204  1.0
  Ga  Ga1016  1  0.88222900  0.95323500  0.38464204  1.0
  Ga  Ga1017  1  0.04889567  0.11990167  0.34297537  1.0
  Ga  Ga1018  1  0.04889567  0.45323500  0.34297537  1.0
  Ga  Ga1019  1  0.04889567  0.78656833  0.34297537  1.0
  Ga  Ga1020  1  0.38222900  0.11990167  0.34297537  1.0
  Ga  Ga1021  1  0.38222900  0.45323500  0.34297537  1.0
  Ga  Ga1022  1  0.38222900  0.78656833  0.34297537  1.0
  Ga  Ga1023  1  0.71556233  0.11990167  0.34297537  1.0
  Ga  Ga1024  1  0.71556233  0.45323500  0.34297537  1.0
  Ga  Ga1025  1  0.71556233  0.78656833  0.34297537  1.0
  Ga  Ga1026  1  0.33226800  0.06994067  0.35546562  1.0
  Ga  Ga1027  1  0.33226800  0.40327400  0.35546563  1.0
  Ga  Ga1028  1  0.33226800  0.73660733  0.35546562  1.0
  Ga  Ga1029  1  0.66560133  0.06994067  0.35546562  1.0
  Ga  Ga1030  1  0.66560133  0.40327400  0.35546562  1.0
  Ga  Ga1031  1  0.66560133  0.73660733  0.35546562  1.0
  Ga  Ga1032  1  0.99893467  0.06994067  0.35546562  1.0
  Ga  Ga1033  1  0.99893467  0.40327400  0.35546562  1.0
  Ga  Ga1034  1  0.99893467  0.73660733  0.35546563  1.0
  Ga  Ga1035  1  0.16560133  0.23660733  0.39713229  1.0
  Ga  Ga1036  1  0.16560133  0.56994067  0.39713229  1.0
  Ga  Ga1037  1  0.16560133  0.90327400  0.39713229  1.0
  Ga  Ga1038  1  0.49893467  0.23660733  0.39713229  1.0
  Ga  Ga1039  1  0.49893467  0.56994067  0.39713229  1.0
  Ga  Ga1040  1  0.49893467  0.90327400  0.39713229  1.0
  Ga  Ga1041  1  0.83226800  0.23660733  0.39713229  1.0
  Ga  Ga1042  1  0.83226800  0.56994067  0.39713229  1.0
  Ga  Ga1043  1  0.83226800  0.90327400  0.39713229  1.0
  Ni  Ni1044  1  0.29166667  0.12500000  0.38336746  1.0
  Ni  Ni1045  1  0.29166667  0.45833333  0.38336746  1.0
  Ni  Ni1046  1  0.29166667  0.79166667  0.38336746  1.0
  Ni  Ni1047  1  0.62500000  0.12500000  0.38336746  1.0
  Ni  Ni1048  1  0.62500000  0.45833333  0.38336746  1.0
  Ni  Ni1049  1  0.62500000  0.79166667  0.38336746  1.0
  Ni  Ni1050  1  0.95833333  0.12500000  0.38336746  1.0
  Ni  Ni1051  1  0.95833333  0.45833333  0.38336746  1.0
  Ni  Ni1052  1  0.95833333  0.79166667  0.38336746  1.0
  Ni  Ni1053  1  0.12500000  0.29166667  0.34170079  1.0
  Ni  Ni1054  1  0.12500000  0.62500000  0.34170079  1.0
  Ni  Ni1055  1  0.12500000  0.95833333  0.34170079  1.0
  Ni  Ni1056  1  0.45833333  0.29166667  0.34170079  1.0
  Ni  Ni1057  1  0.45833333  0.62500000  0.34170079  1.0
  Ni  Ni1058  1  0.45833333  0.95833333  0.34170079  1.0
  Ni  Ni1059  1  0.79166667  0.29166667  0.34170079  1.0
  Ni  Ni1060  1  0.79166667  0.62500000  0.34170079  1.0
  Ni  Ni1061  1  0.79166667  0.95833333  0.34170079  1.0
  Ni  Ni1062  1  0.20833333  0.04166667  0.40420079  1.0
  Ni  Ni1063  1  0.20833333  0.37500000  0.40420079  1.0
  Ni  Ni1064  1  0.20833333  0.70833333  0.40420079  1.0
  Ni  Ni1065  1  0.54166667  0.04166667  0.40420079  1.0
  Ni  Ni1066  1  0.54166667  0.37500000  0.40420079  1.0
  Ni  Ni1067  1  0.54166667  0.70833333  0.40420079  1.0
  Ni  Ni1068  1  0.87500000  0.04166667  0.40420079  1.0
  Ni  Ni1069  1  0.87500000  0.37500000  0.40420079  1.0
  Ni  Ni1070  1  0.87500000  0.70833333  0.40420079  1.0
  Ni  Ni1071  1  0.04166667  0.20833333  0.36253412  1.0
  Ni  Ni1072  1  0.04166667  0.54166667  0.36253412  1.0
  Ni  Ni1073  1  0.04166667  0.87500000  0.36253413  1.0
  Ni  Ni1074  1  0.37500000  0.20833333  0.36253412  1.0
  Ni  Ni1075  1  0.37500000  0.54166667  0.36253412  1.0
  Ni  Ni1076  1  0.37500000  0.87500000  0.36253413  1.0
  Ni  Ni1077  1  0.70833333  0.20833333  0.36253413  1.0
  Ni  Ni1078  1  0.70833333  0.54166667  0.36253413  1.0
  Ni  Ni1079  1  0.70833333  0.87500000  0.36253413  1.0
