# generated using pymatgen
data_Ga5Ni
_symmetry_space_group_name_H-M   'P 1'
_cell_length_a   33.62649792
_cell_length_b   35.31512097
_cell_length_c   28.41134987
_cell_angle_alpha   90.96784295
_cell_angle_beta   99.64897416
_cell_angle_gamma   77.37280955
_symmetry_Int_Tables_number   1
_chemical_formula_structural   Ga5Ni
_chemical_formula_sum   'Ga720 Ni144'
_cell_volume   32450.51122594
_cell_formula_units_Z   144
loop_
 _symmetry_equiv_pos_site_id
 _symmetry_equiv_pos_as_xyz
  1  'x, y, z'
loop_
 _atom_site_type_symbol
 _atom_site_label
 _atom_site_symmetry_multiplicity
 _atom_site_fract_x
 _atom_site_fract_y
 _atom_site_fract_z
 _atom_site_occupancy
  Ga  Ga0  1  0.18816133  0.29704033  0.10887900  1.0
  Ga  Ga1  1  0.18816133  0.63037367  0.10887900  1.0
  Ga  Ga2  1  0.18816133  0.96370700  0.10887900  1.0
  Ga  Ga3  1  0.52149467  0.29704033  0.10887900  1.0
  Ga  Ga4  1  0.52149467  0.63037367  0.10887900  1.0
  Ga  Ga5  1  0.52149467  0.96370700  0.10887900  1.0
  Ga  Ga6  1  0.85482800  0.29704033  0.10887900  1.0
  Ga  Ga7  1  0.85482800  0.63037367  0.10887900  1.0
  Ga  Ga8  1  0.85482800  0.96370700  0.10887900  1.0
  Ga  Ga9  1  0.09556874  0.14889219  0.05332344  1.0
  Ga  Ga10  1  0.09556874  0.48222552  0.05332344  1.0
  Ga  Ga11  1  0.09556874  0.81555885  0.05332344  1.0
  Ga  Ga12  1  0.42890207  0.14889219  0.05332344  1.0
  Ga  Ga13  1  0.42890207  0.48222552  0.05332344  1.0
  Ga  Ga14  1  0.42890207  0.81555885  0.05332344  1.0
  Ga  Ga15  1  0.76223541  0.14889219  0.05332344  1.0
  Ga  Ga16  1  0.76223541  0.48222552  0.05332344  1.0
  Ga  Ga17  1  0.76223541  0.81555885  0.05332344  1.0
  Ga  Ga18  1  0.30853170  0.22296626  0.08110122  1.0
  Ga  Ga19  1  0.30853170  0.55629959  0.08110122  1.0
  Ga  Ga20  1  0.30853170  0.88963293  0.08110122  1.0
  Ga  Ga21  1  0.64186504  0.22296626  0.08110122  1.0
  Ga  Ga22  1  0.64186504  0.55629959  0.08110122  1.0
  Ga  Ga23  1  0.64186504  0.88963293  0.08110122  1.0
  Ga  Ga24  1  0.97519837  0.22296626  0.08110122  1.0
  Ga  Ga25  1  0.97519837  0.55629959  0.08110122  1.0
  Ga  Ga26  1  0.97519837  0.88963293  0.08110122  1.0
  Ga  Ga27  1  0.21593911  0.07481811  0.02554567  1.0
  Ga  Ga28  1  0.21593911  0.40815144  0.02554567  1.0
  Ga  Ga29  1  0.21593911  0.74148478  0.02554567  1.0
  Ga  Ga30  1  0.54927244  0.07481811  0.02554567  1.0
  Ga  Ga31  1  0.54927244  0.40815144  0.02554567  1.0
  Ga  Ga32  1  0.54927244  0.74148478  0.02554567  1.0
  Ga  Ga33  1  0.88260578  0.07481811  0.02554567  1.0
  Ga  Ga34  1  0.88260578  0.40815144  0.02554567  1.0
  Ga  Ga35  1  0.88260578  0.74148478  0.02554567  1.0
  Ga  Ga36  1  0.12296974  0.02521485  0.07104244  1.0
  Ga  Ga37  1  0.12296974  0.35854819  0.07104244  1.0
  Ga  Ga38  1  0.12296974  0.69188152  0.07104244  1.0
  Ga  Ga39  1  0.45630307  0.02521485  0.07104244  1.0
  Ga  Ga40  1  0.45630307  0.35854819  0.07104244  1.0
  Ga  Ga41  1  0.45630307  0.69188152  0.07104244  1.0
  Ga  Ga42  1  0.78963641  0.02521485  0.07104244  1.0
  Ga  Ga43  1  0.78963641  0.35854819  0.07104244  1.0
  Ga  Ga44  1  0.78963641  0.69188152  0.07104244  1.0
  Ga  Ga45  1  0.03037715  0.21040004  0.01548689  1.0
  Ga  Ga46  1  0.03037715  0.54373337  0.01548689  1.0
  Ga  Ga47  1  0.03037715  0.87706670  0.01548689  1.0
  Ga  Ga48  1  0.36371048  0.21040004  0.01548689  1.0
  Ga  Ga49  1  0.36371048  0.54373337  0.01548689  1.0
  Ga  Ga50  1  0.36371048  0.87706670  0.01548689  1.0
  Ga  Ga51  1  0.69704381  0.21040004  0.01548689  1.0
  Ga  Ga52  1  0.69704381  0.54373337  0.01548689  1.0
  Ga  Ga53  1  0.69704381  0.87706670  0.01548689  1.0
  Ga  Ga54  1  0.26929637  0.29930626  0.09888522  1.0
  Ga  Ga55  1  0.26929637  0.63263959  0.09888522  1.0
  Ga  Ga56  1  0.26929637  0.96597293  0.09888522  1.0
  Ga  Ga57  1  0.60262970  0.29930626  0.09888522  1.0
  Ga  Ga58  1  0.60262970  0.63263959  0.09888522  1.0
  Ga  Ga59  1  0.60262970  0.96597293  0.09888522  1.0
  Ga  Ga60  1  0.93596304  0.29930626  0.09888522  1.0
  Ga  Ga61  1  0.93596304  0.63263959  0.09888522  1.0
  Ga  Ga62  1  0.93596304  0.96597293  0.09888522  1.0
  Ga  Ga63  1  0.17670378  0.15115811  0.04332967  1.0
  Ga  Ga64  1  0.17670378  0.48449144  0.04332967  1.0
  Ga  Ga65  1  0.17670378  0.81782478  0.04332967  1.0
  Ga  Ga66  1  0.51003711  0.15115811  0.04332967  1.0
  Ga  Ga67  1  0.51003711  0.48449144  0.04332967  1.0
  Ga  Ga68  1  0.51003711  0.81782478  0.04332967  1.0
  Ga  Ga69  1  0.84337044  0.15115811  0.04332967  1.0
  Ga  Ga70  1  0.84337044  0.48449144  0.04332967  1.0
  Ga  Ga71  1  0.84337044  0.81782478  0.04332967  1.0
  Ga  Ga72  1  0.18782789  0.29557656  0.00995733  1.0
  Ga  Ga73  1  0.18782789  0.62890989  0.00995733  1.0
  Ga  Ga74  1  0.18782789  0.96224322  0.00995733  1.0
  Ga  Ga75  1  0.52116122  0.29557656  0.00995733  1.0
  Ga  Ga76  1  0.52116122  0.62890989  0.00995733  1.0
  Ga  Ga77  1  0.52116122  0.96224322  0.00995733  1.0
  Ga  Ga78  1  0.85449456  0.29557656  0.00995733  1.0
  Ga  Ga79  1  0.85449456  0.62890989  0.00995733  1.0
  Ga  Ga80  1  0.85449456  0.96224322  0.00995733  1.0
  Ga  Ga81  1  0.28042048  0.11039137  0.06551289  1.0
  Ga  Ga82  1  0.28042048  0.44372470  0.06551289  1.0
  Ga  Ga83  1  0.28042048  0.77705804  0.06551289  1.0
  Ga  Ga84  1  0.61375381  0.11039137  0.06551289  1.0
  Ga  Ga85  1  0.61375381  0.44372470  0.06551289  1.0
  Ga  Ga86  1  0.61375381  0.77705804  0.06551289  1.0
  Ga  Ga87  1  0.94708715  0.11039137  0.06551289  1.0
  Ga  Ga88  1  0.94708715  0.44372470  0.06551289  1.0
  Ga  Ga89  1  0.94708715  0.77705804  0.06551289  1.0
  Ga  Ga90  1  0.01925304  0.06598159  0.04885922  1.0
  Ga  Ga91  1  0.01925304  0.39931493  0.04885922  1.0
  Ga  Ga92  1  0.01925304  0.73264826  0.04885922  1.0
  Ga  Ga93  1  0.35258637  0.06598159  0.04885922  1.0
  Ga  Ga94  1  0.35258637  0.39931493  0.04885922  1.0
  Ga  Ga95  1  0.35258637  0.73264826  0.04885922  1.0
  Ga  Ga96  1  0.68591970  0.06598159  0.04885922  1.0
  Ga  Ga97  1  0.68591970  0.39931493  0.04885922  1.0
  Ga  Ga98  1  0.68591970  0.73264826  0.04885922  1.0
  Ga  Ga99  1  0.11184563  0.21412974  0.10441478  1.0
  Ga  Ga100  1  0.11184563  0.54746307  0.10441478  1.0
  Ga  Ga101  1  0.11184563  0.88079641  0.10441478  1.0
  Ga  Ga102  1  0.44517896  0.21412974  0.10441478  1.0
  Ga  Ga103  1  0.44517896  0.54746307  0.10441478  1.0
  Ga  Ga104  1  0.44517896  0.88079641  0.10441478  1.0
  Ga  Ga105  1  0.77851230  0.21412974  0.10441478  1.0
  Ga  Ga106  1  0.77851230  0.54746307  0.10441478  1.0
  Ga  Ga107  1  0.77851230  0.88079641  0.10441478  1.0
  Ga  Ga108  1  0.06816774  0.27256952  0.03560444  1.0
  Ga  Ga109  1  0.06816774  0.60590285  0.03560444  1.0
  Ga  Ga110  1  0.06816774  0.93923619  0.03560444  1.0
  Ga  Ga111  1  0.40150107  0.27256952  0.03560444  1.0
  Ga  Ga112  1  0.40150107  0.60590285  0.03560444  1.0
  Ga  Ga113  1  0.40150107  0.93923619  0.03560444  1.0
  Ga  Ga114  1  0.73483441  0.27256952  0.03560444  1.0
  Ga  Ga115  1  0.73483441  0.60590285  0.03560444  1.0
  Ga  Ga116  1  0.73483441  0.93923619  0.03560444  1.0
  Ga  Ga117  1  0.16076033  0.08738433  0.09116000  1.0
  Ga  Ga118  1  0.16076033  0.42071767  0.09116000  1.0
  Ga  Ga119  1  0.16076033  0.75405100  0.09116000  1.0
  Ga  Ga120  1  0.49409367  0.08738433  0.09116000  1.0
  Ga  Ga121  1  0.49409367  0.42071767  0.09116000  1.0
  Ga  Ga122  1  0.49409367  0.75405100  0.09116000  1.0
  Ga  Ga123  1  0.82742700  0.08738433  0.09116000  1.0
  Ga  Ga124  1  0.82742700  0.42071767  0.09116000  1.0
  Ga  Ga125  1  0.82742700  0.75405100  0.09116000  1.0
  Ga  Ga126  1  0.25517444  0.33181144  0.00776167  1.0
  Ga  Ga127  1  0.25517444  0.66514478  0.00776167  1.0
  Ga  Ga128  1  0.25517444  0.99847811  0.00776167  1.0
  Ga  Ga129  1  0.58850778  0.33181144  0.00776167  1.0
  Ga  Ga130  1  0.58850778  0.66514478  0.00776167  1.0
  Ga  Ga131  1  0.58850778  0.99847811  0.00776167  1.0
  Ga  Ga132  1  0.92184111  0.33181144  0.00776167  1.0
  Ga  Ga133  1  0.92184111  0.66514478  0.00776167  1.0
  Ga  Ga134  1  0.92184111  0.99847811  0.00776167  1.0
  Ga  Ga135  1  0.01443370  0.14662626  0.06331722  1.0
  Ga  Ga136  1  0.01443370  0.47995959  0.06331722  1.0
  Ga  Ga137  1  0.01443370  0.81329293  0.06331722  1.0
  Ga  Ga138  1  0.34776704  0.14662626  0.06331722  1.0
  Ga  Ga139  1  0.34776704  0.47995959  0.06331722  1.0
  Ga  Ga140  1  0.34776704  0.81329293  0.06331722  1.0
  Ga  Ga141  1  0.68110037  0.14662626  0.06331722  1.0
  Ga  Ga142  1  0.68110037  0.47995959  0.06331722  1.0
  Ga  Ga143  1  0.68110037  0.81329293  0.06331722  1.0
  Ga  Ga144  1  0.00330959  0.00220781  0.09668956  1.0
  Ga  Ga145  1  0.00330959  0.33554115  0.09668956  1.0
  Ga  Ga146  1  0.00330959  0.66887448  0.09668956  1.0
  Ga  Ga147  1  0.33664293  0.00220781  0.09668956  1.0
  Ga  Ga148  1  0.33664293  0.33554115  0.09668956  1.0
  Ga  Ga149  1  0.33664293  0.66887448  0.09668956  1.0
  Ga  Ga150  1  0.66997626  0.00220781  0.09668956  1.0
  Ga  Ga151  1  0.66997626  0.33554115  0.09668956  1.0
  Ga  Ga152  1  0.66997626  0.66887448  0.09668956  1.0
  Ga  Ga153  1  0.24405033  0.18739300  0.04113400  1.0
  Ga  Ga154  1  0.24405033  0.52072633  0.04113400  1.0
  Ga  Ga155  1  0.24405033  0.85405967  0.04113400  1.0
  Ga  Ga156  1  0.57738367  0.18739300  0.04113400  1.0
  Ga  Ga157  1  0.57738367  0.52072633  0.04113400  1.0
  Ga  Ga158  1  0.57738367  0.85405967  0.04113400  1.0
  Ga  Ga159  1  0.91071700  0.18739300  0.04113400  1.0
  Ga  Ga160  1  0.91071700  0.52072633  0.04113400  1.0
  Ga  Ga161  1  0.91071700  0.85405967  0.04113400  1.0
  Ga  Ga162  1  0.17188444  0.23180278  0.05778767  1.0
  Ga  Ga163  1  0.17188444  0.56513611  0.05778767  1.0
  Ga  Ga164  1  0.17188444  0.89846944  0.05778767  1.0
  Ga  Ga165  1  0.50521778  0.23180278  0.05778767  1.0
  Ga  Ga166  1  0.50521778  0.56513611  0.05778767  1.0
  Ga  Ga167  1  0.50521778  0.89846944  0.05778767  1.0
  Ga  Ga168  1  0.83855111  0.23180278  0.05778767  1.0
  Ga  Ga169  1  0.83855111  0.56513611  0.05778767  1.0
  Ga  Ga170  1  0.83855111  0.89846944  0.05778767  1.0
  Ga  Ga171  1  0.07929185  0.08365463  0.00223211  1.0
  Ga  Ga172  1  0.07929185  0.41698796  0.00223211  1.0
  Ga  Ga173  1  0.07929185  0.75032130  0.00223211  1.0
  Ga  Ga174  1  0.41262519  0.08365463  0.00223211  1.0
  Ga  Ga175  1  0.41262519  0.41698796  0.00223211  1.0
  Ga  Ga176  1  0.41262519  0.75032130  0.00223211  1.0
  Ga  Ga177  1  0.74595852  0.08365463  0.00223211  1.0
  Ga  Ga178  1  0.74595852  0.41698796  0.00223211  1.0
  Ga  Ga179  1  0.74595852  0.75032130  0.00223211  1.0
  Ga  Ga180  1  0.04001319  0.26000330  0.21999011  1.0
  Ga  Ga181  1  0.04001319  0.59333663  0.21999011  1.0
  Ga  Ga182  1  0.04001319  0.92666996  0.21999011  1.0
  Ga  Ga183  1  0.37334652  0.26000330  0.21999011  1.0
  Ga  Ga184  1  0.37334652  0.59333663  0.21999011  1.0
  Ga  Ga185  1  0.37334652  0.92666996  0.21999011  1.0
  Ga  Ga186  1  0.70667985  0.26000330  0.21999011  1.0
  Ga  Ga187  1  0.70667985  0.59333663  0.21999011  1.0
  Ga  Ga188  1  0.70667985  0.92666996  0.21999011  1.0
  Ga  Ga189  1  0.28075393  0.11185515  0.16443456  1.0
  Ga  Ga190  1  0.28075393  0.44518848  0.16443456  1.0
  Ga  Ga191  1  0.28075393  0.77852181  0.16443456  1.0
  Ga  Ga192  1  0.61408726  0.11185515  0.16443456  1.0
  Ga  Ga193  1  0.61408726  0.44518848  0.16443456  1.0
  Ga  Ga194  1  0.61408726  0.77852181  0.16443456  1.0
  Ga  Ga195  1  0.94742059  0.11185515  0.16443456  1.0
  Ga  Ga196  1  0.94742059  0.44518848  0.16443456  1.0
  Ga  Ga197  1  0.94742059  0.77852181  0.16443456  1.0
  Ga  Ga198  1  0.16038356  0.18592922  0.19221233  1.0
  Ga  Ga199  1  0.16038356  0.51926256  0.19221233  1.0
  Ga  Ga200  1  0.16038356  0.85259589  0.19221233  1.0
  Ga  Ga201  1  0.49371689  0.18592922  0.19221233  1.0
  Ga  Ga202  1  0.49371689  0.51926256  0.19221233  1.0
  Ga  Ga203  1  0.49371689  0.85259589  0.19221233  1.0
  Ga  Ga204  1  0.82705022  0.18592922  0.19221233  1.0
  Ga  Ga205  1  0.82705022  0.51926256  0.19221233  1.0
  Ga  Ga206  1  0.82705022  0.85259589  0.19221233  1.0
  Ga  Ga207  1  0.06779096  0.03778107  0.13665678  1.0
  Ga  Ga208  1  0.06779096  0.37111441  0.13665678  1.0
  Ga  Ga209  1  0.06779096  0.70444774  0.13665678  1.0
  Ga  Ga210  1  0.40112430  0.03778107  0.13665678  1.0
  Ga  Ga211  1  0.40112430  0.37111441  0.13665678  1.0
  Ga  Ga212  1  0.40112430  0.70444774  0.13665678  1.0
  Ga  Ga213  1  0.73445763  0.03778107  0.13665678  1.0
  Ga  Ga214  1  0.73445763  0.37111441  0.13665678  1.0
  Ga  Ga215  1  0.73445763  0.70444774  0.13665678  1.0
  Ga  Ga216  1  0.30815493  0.32151115  0.18215356  1.0
  Ga  Ga217  1  0.30815493  0.65484448  0.18215356  1.0
  Ga  Ga218  1  0.30815493  0.98817781  0.18215356  1.0
  Ga  Ga219  1  0.64148826  0.32151115  0.18215356  1.0
  Ga  Ga220  1  0.64148826  0.65484448  0.18215356  1.0
  Ga  Ga221  1  0.64148826  0.98817781  0.18215356  1.0
  Ga  Ga222  1  0.97482159  0.32151115  0.18215356  1.0
  Ga  Ga223  1  0.97482159  0.65484448  0.18215356  1.0
  Ga  Ga224  1  0.97482159  0.98817781  0.18215356  1.0
  Ga  Ga225  1  0.21556233  0.17336300  0.12659800  1.0
  Ga  Ga226  1  0.21556233  0.50669633  0.12659800  1.0
  Ga  Ga227  1  0.21556233  0.84002967  0.12659800  1.0
  Ga  Ga228  1  0.54889567  0.17336300  0.12659800  1.0
  Ga  Ga229  1  0.54889567  0.50669633  0.12659800  1.0
  Ga  Ga230  1  0.54889567  0.84002967  0.12659800  1.0
  Ga  Ga231  1  0.88222900  0.17336300  0.12659800  1.0
  Ga  Ga232  1  0.88222900  0.50669633  0.12659800  1.0
  Ga  Ga233  1  0.88222900  0.84002967  0.12659800  1.0
  Ga  Ga234  1  0.12114822  0.26226922  0.20999633  1.0
  Ga  Ga235  1  0.12114822  0.59560256  0.20999633  1.0
  Ga  Ga236  1  0.12114822  0.92893589  0.20999633  1.0
  Ga  Ga237  1  0.45448156  0.26226922  0.20999633  1.0
  Ga  Ga238  1  0.45448156  0.59560256  0.20999633  1.0
  Ga  Ga239  1  0.45448156  0.92893589  0.20999633  1.0
  Ga  Ga240  1  0.78781489  0.26226922  0.20999633  1.0
  Ga  Ga241  1  0.78781489  0.59560256  0.20999633  1.0
  Ga  Ga242  1  0.78781489  0.92893589  0.20999633  1.0
  Ga  Ga243  1  0.02855563  0.11412107  0.15444078  1.0
  Ga  Ga244  1  0.02855563  0.44745441  0.15444078  1.0
  Ga  Ga245  1  0.02855563  0.78078774  0.15444078  1.0
  Ga  Ga246  1  0.36188896  0.11412107  0.15444078  1.0
  Ga  Ga247  1  0.36188896  0.44745441  0.15444078  1.0
  Ga  Ga248  1  0.36188896  0.78078774  0.15444078  1.0
  Ga  Ga249  1  0.69522230  0.11412107  0.15444078  1.0
  Ga  Ga250  1  0.69522230  0.44745441  0.15444078  1.0
  Ga  Ga251  1  0.69522230  0.78078774  0.15444078  1.0
  Ga  Ga252  1  0.03967974  0.25853952  0.12106844  1.0
  Ga  Ga253  1  0.03967974  0.59187285  0.12106844  1.0
  Ga  Ga254  1  0.03967974  0.92520619  0.12106844  1.0
  Ga  Ga255  1  0.37301307  0.25853952  0.12106844  1.0
  Ga  Ga256  1  0.37301307  0.59187285  0.12106844  1.0
  Ga  Ga257  1  0.37301307  0.92520619  0.12106844  1.0
  Ga  Ga258  1  0.70634641  0.25853952  0.12106844  1.0
  Ga  Ga259  1  0.70634641  0.59187285  0.12106844  1.0
  Ga  Ga260  1  0.70634641  0.92520619  0.12106844  1.0
  Ga  Ga261  1  0.13227233  0.07335433  0.17662400  1.0
  Ga  Ga262  1  0.13227233  0.40668767  0.17662400  1.0
  Ga  Ga263  1  0.13227233  0.74002100  0.17662400  1.0
  Ga  Ga264  1  0.46560567  0.07335433  0.17662400  1.0
  Ga  Ga265  1  0.46560567  0.40668767  0.17662400  1.0
  Ga  Ga266  1  0.46560567  0.74002100  0.17662400  1.0
  Ga  Ga267  1  0.79893900  0.07335433  0.17662400  1.0
  Ga  Ga268  1  0.79893900  0.40668767  0.17662400  1.0
  Ga  Ga269  1  0.79893900  0.74002100  0.17662400  1.0
  Ga  Ga270  1  0.20443822  0.02894456  0.15997033  1.0
  Ga  Ga271  1  0.20443822  0.36227789  0.15997033  1.0
  Ga  Ga272  1  0.20443822  0.69561122  0.15997033  1.0
  Ga  Ga273  1  0.53777156  0.02894456  0.15997033  1.0
  Ga  Ga274  1  0.53777156  0.36227789  0.15997033  1.0
  Ga  Ga275  1  0.53777156  0.69561122  0.15997033  1.0
  Ga  Ga276  1  0.87110489  0.02894456  0.15997033  1.0
  Ga  Ga277  1  0.87110489  0.36227789  0.15997033  1.0
  Ga  Ga278  1  0.87110489  0.69561122  0.15997033  1.0
  Ga  Ga279  1  0.29703081  0.17709270  0.21552589  1.0
  Ga  Ga280  1  0.29703081  0.51042604  0.21552589  1.0
  Ga  Ga281  1  0.29703081  0.84375937  0.21552589  1.0
  Ga  Ga282  1  0.63036415  0.17709270  0.21552589  1.0
  Ga  Ga283  1  0.63036415  0.51042604  0.21552589  1.0
  Ga  Ga284  1  0.63036415  0.84375937  0.21552589  1.0
  Ga  Ga285  1  0.96369748  0.17709270  0.21552589  1.0
  Ga  Ga286  1  0.96369748  0.51042604  0.21552589  1.0
  Ga  Ga287  1  0.96369748  0.84375937  0.21552589  1.0
  Ga  Ga288  1  0.25335293  0.23553248  0.14671556  1.0
  Ga  Ga289  1  0.25335293  0.56886581  0.14671556  1.0
  Ga  Ga290  1  0.25335293  0.90219915  0.14671556  1.0
  Ga  Ga291  1  0.58668626  0.23553248  0.14671556  1.0
  Ga  Ga292  1  0.58668626  0.56886581  0.14671556  1.0
  Ga  Ga293  1  0.58668626  0.90219915  0.14671556  1.0
  Ga  Ga294  1  0.92001959  0.23553248  0.14671556  1.0
  Ga  Ga295  1  0.92001959  0.56886581  0.14671556  1.0
  Ga  Ga296  1  0.92001959  0.90219915  0.14671556  1.0
  Ga  Ga297  1  0.01261219  0.05034730  0.20227111  1.0
  Ga  Ga298  1  0.01261219  0.38368063  0.20227111  1.0
  Ga  Ga299  1  0.01261219  0.71701396  0.20227111  1.0
  Ga  Ga300  1  0.34594552  0.05034730  0.20227111  1.0
  Ga  Ga301  1  0.34594552  0.38368063  0.20227111  1.0
  Ga  Ga302  1  0.34594552  0.71701396  0.20227111  1.0
  Ga  Ga303  1  0.67927885  0.05034730  0.20227111  1.0
  Ga  Ga304  1  0.67927885  0.38368063  0.20227111  1.0
  Ga  Ga305  1  0.67927885  0.71701396  0.20227111  1.0
  Ga  Ga306  1  0.10702630  0.29477441  0.11887278  1.0
  Ga  Ga307  1  0.10702630  0.62810774  0.11887278  1.0
  Ga  Ga308  1  0.10702630  0.96144107  0.11887278  1.0
  Ga  Ga309  1  0.44035963  0.29477441  0.11887278  1.0
  Ga  Ga310  1  0.44035963  0.62810774  0.11887278  1.0
  Ga  Ga311  1  0.44035963  0.96144107  0.11887278  1.0
  Ga  Ga312  1  0.77369296  0.29477441  0.11887278  1.0
  Ga  Ga313  1  0.77369296  0.62810774  0.11887278  1.0
  Ga  Ga314  1  0.77369296  0.96144107  0.11887278  1.0
  Ga  Ga315  1  0.19961889  0.10958922  0.17442833  1.0
  Ga  Ga316  1  0.19961889  0.44292256  0.17442833  1.0
  Ga  Ga317  1  0.19961889  0.77625589  0.17442833  1.0
  Ga  Ga318  1  0.53295222  0.10958922  0.17442833  1.0
  Ga  Ga319  1  0.53295222  0.44292256  0.17442833  1.0
  Ga  Ga320  1  0.53295222  0.77625589  0.17442833  1.0
  Ga  Ga321  1  0.86628556  0.10958922  0.17442833  1.0
  Ga  Ga322  1  0.86628556  0.44292256  0.17442833  1.0
  Ga  Ga323  1  0.86628556  0.77625589  0.17442833  1.0
  Ga  Ga324  1  0.18849478  0.29850411  0.20780067  1.0
  Ga  Ga325  1  0.18849478  0.63183744  0.20780067  1.0
  Ga  Ga326  1  0.18849478  0.96517078  0.20780067  1.0
  Ga  Ga327  1  0.52182811  0.29850411  0.20780067  1.0
  Ga  Ga328  1  0.52182811  0.63183744  0.20780067  1.0
  Ga  Ga329  1  0.52182811  0.96517078  0.20780067  1.0
  Ga  Ga330  1  0.85516144  0.29850411  0.20780067  1.0
  Ga  Ga331  1  0.85516144  0.63183744  0.20780067  1.0
  Ga  Ga332  1  0.85516144  0.96517078  0.20780067  1.0
  Ga  Ga333  1  0.09590219  0.15035596  0.15224511  1.0
  Ga  Ga334  1  0.09590219  0.48368930  0.15224511  1.0
  Ga  Ga335  1  0.09590219  0.81702263  0.15224511  1.0
  Ga  Ga336  1  0.42923552  0.15035596  0.15224511  1.0
  Ga  Ga337  1  0.42923552  0.48368930  0.15224511  1.0
  Ga  Ga338  1  0.42923552  0.81702263  0.15224511  1.0
  Ga  Ga339  1  0.76256885  0.15035596  0.15224511  1.0
  Ga  Ga340  1  0.76256885  0.48368930  0.15224511  1.0
  Ga  Ga341  1  0.76256885  0.81702263  0.15224511  1.0
  Ga  Ga342  1  0.02373630  0.19476574  0.16889878  1.0
  Ga  Ga343  1  0.02373630  0.52809907  0.16889878  1.0
  Ga  Ga344  1  0.02373630  0.86143241  0.16889878  1.0
  Ga  Ga345  1  0.35706963  0.19476574  0.16889878  1.0
  Ga  Ga346  1  0.35706963  0.52809907  0.16889878  1.0
  Ga  Ga347  1  0.35706963  0.86143241  0.16889878  1.0
  Ga  Ga348  1  0.69040296  0.19476574  0.16889878  1.0
  Ga  Ga349  1  0.69040296  0.52809907  0.16889878  1.0
  Ga  Ga350  1  0.69040296  0.86143241  0.16889878  1.0
  Ga  Ga351  1  0.26447704  0.04661759  0.11334322  1.0
  Ga  Ga352  1  0.26447704  0.37995093  0.11334322  1.0
  Ga  Ga353  1  0.26447704  0.71328426  0.11334322  1.0
  Ga  Ga354  1  0.59781037  0.04661759  0.11334322  1.0
  Ga  Ga355  1  0.59781037  0.37995093  0.11334322  1.0
  Ga  Ga356  1  0.59781037  0.71328426  0.11334322  1.0
  Ga  Ga357  1  0.93114370  0.04661759  0.11334322  1.0
  Ga  Ga358  1  0.93114370  0.37995093  0.11334322  1.0
  Ga  Ga359  1  0.93114370  0.71328426  0.11334322  1.0
  Ga  Ga360  1  0.22519837  0.22296626  0.33110122  1.0
  Ga  Ga361  1  0.22519837  0.55629959  0.33110122  1.0
  Ga  Ga362  1  0.22519837  0.88963293  0.33110122  1.0
  Ga  Ga363  1  0.55853170  0.22296626  0.33110122  1.0
  Ga  Ga364  1  0.55853170  0.55629959  0.33110122  1.0
  Ga  Ga365  1  0.55853170  0.88963293  0.33110122  1.0
  Ga  Ga366  1  0.89186504  0.22296626  0.33110122  1.0
  Ga  Ga367  1  0.89186504  0.55629959  0.33110122  1.0
  Ga  Ga368  1  0.89186504  0.88963293  0.33110122  1.0
  Ga  Ga369  1  0.13260578  0.07481811  0.27554567  1.0
  Ga  Ga370  1  0.13260578  0.40815144  0.27554567  1.0
  Ga  Ga371  1  0.13260578  0.74148478  0.27554567  1.0
  Ga  Ga372  1  0.46593911  0.07481811  0.27554567  1.0
  Ga  Ga373  1  0.46593911  0.40815144  0.27554567  1.0
  Ga  Ga374  1  0.46593911  0.74148478  0.27554567  1.0
  Ga  Ga375  1  0.79927244  0.07481811  0.27554567  1.0
  Ga  Ga376  1  0.79927244  0.40815144  0.27554567  1.0
  Ga  Ga377  1  0.79927244  0.74148478  0.27554567  1.0
  Ga  Ga378  1  0.01223541  0.14889219  0.30332344  1.0
  Ga  Ga379  1  0.01223541  0.48222552  0.30332344  1.0
  Ga  Ga380  1  0.01223541  0.81555885  0.30332344  1.0
  Ga  Ga381  1  0.34556874  0.14889219  0.30332344  1.0
  Ga  Ga382  1  0.34556874  0.48222552  0.30332344  1.0
  Ga  Ga383  1  0.34556874  0.81555885  0.30332344  1.0
  Ga  Ga384  1  0.67890207  0.14889219  0.30332344  1.0
  Ga  Ga385  1  0.67890207  0.48222552  0.30332344  1.0
  Ga  Ga386  1  0.67890207  0.81555885  0.30332344  1.0
  Ga  Ga387  1  0.25297615  0.00074404  0.24776789  1.0
  Ga  Ga388  1  0.25297615  0.33407737  0.24776789  1.0
  Ga  Ga389  1  0.25297615  0.66741070  0.24776789  1.0
  Ga  Ga390  1  0.58630948  0.00074404  0.24776789  1.0
  Ga  Ga391  1  0.58630948  0.33407737  0.24776789  1.0
  Ga  Ga392  1  0.58630948  0.66741070  0.24776789  1.0
  Ga  Ga393  1  0.91964281  0.00074404  0.24776789  1.0
  Ga  Ga394  1  0.91964281  0.33407737  0.24776789  1.0
  Ga  Ga395  1  0.91964281  0.66741070  0.24776789  1.0
  Ga  Ga396  1  0.16000678  0.28447411  0.29326467  1.0
  Ga  Ga397  1  0.16000678  0.61780744  0.29326467  1.0
  Ga  Ga398  1  0.16000678  0.95114078  0.29326467  1.0
  Ga  Ga399  1  0.49334011  0.28447411  0.29326467  1.0
  Ga  Ga400  1  0.49334011  0.61780744  0.29326467  1.0
  Ga  Ga401  1  0.49334011  0.95114078  0.29326467  1.0
  Ga  Ga402  1  0.82667344  0.28447411  0.29326467  1.0
  Ga  Ga403  1  0.82667344  0.61780744  0.29326467  1.0
  Ga  Ga404  1  0.82667344  0.95114078  0.29326467  1.0
  Ga  Ga405  1  0.06741419  0.13632596  0.23770911  1.0
  Ga  Ga406  1  0.06741419  0.46965930  0.23770911  1.0
  Ga  Ga407  1  0.06741419  0.80299263  0.23770911  1.0
  Ga  Ga408  1  0.40074752  0.13632596  0.23770911  1.0
  Ga  Ga409  1  0.40074752  0.46965930  0.23770911  1.0
  Ga  Ga410  1  0.40074752  0.80299263  0.23770911  1.0
  Ga  Ga411  1  0.73408085  0.13632596  0.23770911  1.0
  Ga  Ga412  1  0.73408085  0.46965930  0.23770911  1.0
  Ga  Ga413  1  0.73408085  0.80299263  0.23770911  1.0
  Ga  Ga414  1  0.30633341  0.22523219  0.32110744  1.0
  Ga  Ga415  1  0.30633341  0.55856552  0.32110744  1.0
  Ga  Ga416  1  0.30633341  0.89189885  0.32110744  1.0
  Ga  Ga417  1  0.63966674  0.22523219  0.32110744  1.0
  Ga  Ga418  1  0.63966674  0.55856552  0.32110744  1.0
  Ga  Ga419  1  0.63966674  0.89189885  0.32110744  1.0
  Ga  Ga420  1  0.97300007  0.22523219  0.32110744  1.0
  Ga  Ga421  1  0.97300007  0.55856552  0.32110744  1.0
  Ga  Ga422  1  0.97300007  0.89189885  0.32110744  1.0
  Ga  Ga423  1  0.21374081  0.07708404  0.26555189  1.0
  Ga  Ga424  1  0.21374081  0.41041737  0.26555189  1.0
  Ga  Ga425  1  0.21374081  0.74375070  0.26555189  1.0
  Ga  Ga426  1  0.54707415  0.07708404  0.26555189  1.0
  Ga  Ga427  1  0.54707415  0.41041737  0.26555189  1.0
  Ga  Ga428  1  0.54707415  0.74375070  0.26555189  1.0
  Ga  Ga429  1  0.88040748  0.07708404  0.26555189  1.0
  Ga  Ga430  1  0.88040748  0.41041737  0.26555189  1.0
  Ga  Ga431  1  0.88040748  0.74375070  0.26555189  1.0
  Ga  Ga432  1  0.22486493  0.22150248  0.23217956  1.0
  Ga  Ga433  1  0.22486493  0.55483581  0.23217956  1.0
  Ga  Ga434  1  0.22486493  0.88816915  0.23217956  1.0
  Ga  Ga435  1  0.55819826  0.22150248  0.23217956  1.0
  Ga  Ga436  1  0.55819826  0.55483581  0.23217956  1.0
  Ga  Ga437  1  0.55819826  0.88816915  0.23217956  1.0
  Ga  Ga438  1  0.89153159  0.22150248  0.23217956  1.0
  Ga  Ga439  1  0.89153159  0.55483581  0.23217956  1.0
  Ga  Ga440  1  0.89153159  0.88816915  0.23217956  1.0
  Ga  Ga441  1  0.31745752  0.03631730  0.28773511  1.0
  Ga  Ga442  1  0.31745752  0.36965063  0.28773511  1.0
  Ga  Ga443  1  0.31745752  0.70298396  0.28773511  1.0
  Ga  Ga444  1  0.65079085  0.03631730  0.28773511  1.0
  Ga  Ga445  1  0.65079085  0.36965063  0.28773511  1.0
  Ga  Ga446  1  0.65079085  0.70298396  0.28773511  1.0
  Ga  Ga447  1  0.98412419  0.03631730  0.28773511  1.0
  Ga  Ga448  1  0.98412419  0.36965063  0.28773511  1.0
  Ga  Ga449  1  0.98412419  0.70298396  0.28773511  1.0
  Ga  Ga450  1  0.05629007  0.32524085  0.27108144  1.0
  Ga  Ga451  1  0.05629007  0.65857419  0.27108144  1.0
  Ga  Ga452  1  0.05629007  0.99190752  0.27108144  1.0
  Ga  Ga453  1  0.38962341  0.32524085  0.27108144  1.0
  Ga  Ga454  1  0.38962341  0.65857419  0.27108144  1.0
  Ga  Ga455  1  0.38962341  0.99190752  0.27108144  1.0
  Ga  Ga456  1  0.72295674  0.32524085  0.27108144  1.0
  Ga  Ga457  1  0.72295674  0.65857419  0.27108144  1.0
  Ga  Ga458  1  0.72295674  0.99190752  0.27108144  1.0
  Ga  Ga459  1  0.14888267  0.14005567  0.32663700  1.0
  Ga  Ga460  1  0.14888267  0.47338900  0.32663700  1.0
  Ga  Ga461  1  0.14888267  0.80672233  0.32663700  1.0
  Ga  Ga462  1  0.48221600  0.14005567  0.32663700  1.0
  Ga  Ga463  1  0.48221600  0.47338900  0.32663700  1.0
  Ga  Ga464  1  0.48221600  0.80672233  0.32663700  1.0
  Ga  Ga465  1  0.81554933  0.14005567  0.32663700  1.0
  Ga  Ga466  1  0.81554933  0.47338900  0.32663700  1.0
  Ga  Ga467  1  0.81554933  0.80672233  0.32663700  1.0
  Ga  Ga468  1  0.10520478  0.19849544  0.25782667  1.0
  Ga  Ga469  1  0.10520478  0.53182878  0.25782667  1.0
  Ga  Ga470  1  0.10520478  0.86516211  0.25782667  1.0
  Ga  Ga471  1  0.43853811  0.19849544  0.25782667  1.0
  Ga  Ga472  1  0.43853811  0.53182878  0.25782667  1.0
  Ga  Ga473  1  0.43853811  0.86516211  0.25782667  1.0
  Ga  Ga474  1  0.77187144  0.19849544  0.25782667  1.0
  Ga  Ga475  1  0.77187144  0.53182878  0.25782667  1.0
  Ga  Ga476  1  0.77187144  0.86516211  0.25782667  1.0
  Ga  Ga477  1  0.19779737  0.01331026  0.31338222  1.0
  Ga  Ga478  1  0.19779737  0.34664359  0.31338222  1.0
  Ga  Ga479  1  0.19779737  0.67997693  0.31338222  1.0
  Ga  Ga480  1  0.53113070  0.01331026  0.31338222  1.0
  Ga  Ga481  1  0.53113070  0.34664359  0.31338222  1.0
  Ga  Ga482  1  0.53113070  0.67997693  0.31338222  1.0
  Ga  Ga483  1  0.86446404  0.01331026  0.31338222  1.0
  Ga  Ga484  1  0.86446404  0.34664359  0.31338222  1.0
  Ga  Ga485  1  0.86446404  0.67997693  0.31338222  1.0
  Ga  Ga486  1  0.29221148  0.25773737  0.22998389  1.0
  Ga  Ga487  1  0.29221148  0.59107070  0.22998389  1.0
  Ga  Ga488  1  0.29221148  0.92440404  0.22998389  1.0
  Ga  Ga489  1  0.62554481  0.25773737  0.22998389  1.0
  Ga  Ga490  1  0.62554481  0.59107070  0.22998389  1.0
  Ga  Ga491  1  0.62554481  0.92440404  0.22998389  1.0
  Ga  Ga492  1  0.95887815  0.25773737  0.22998389  1.0
  Ga  Ga493  1  0.95887815  0.59107070  0.22998389  1.0
  Ga  Ga494  1  0.95887815  0.92440404  0.22998389  1.0
  Ga  Ga495  1  0.05147074  0.07255219  0.28553944  1.0
  Ga  Ga496  1  0.05147074  0.40588552  0.28553944  1.0
  Ga  Ga497  1  0.05147074  0.73921885  0.28553944  1.0
  Ga  Ga498  1  0.38480407  0.07255219  0.28553944  1.0
  Ga  Ga499  1  0.38480407  0.40588552  0.28553944  1.0
  Ga  Ga500  1  0.38480407  0.73921885  0.28553944  1.0
  Ga  Ga501  1  0.71813741  0.07255219  0.28553944  1.0
  Ga  Ga502  1  0.71813741  0.40588552  0.28553944  1.0
  Ga  Ga503  1  0.71813741  0.73921885  0.28553944  1.0
  Ga  Ga504  1  0.04034663  0.26146707  0.31891178  1.0
  Ga  Ga505  1  0.04034663  0.59480041  0.31891178  1.0
  Ga  Ga506  1  0.04034663  0.92813374  0.31891178  1.0
  Ga  Ga507  1  0.37367996  0.26146707  0.31891178  1.0
  Ga  Ga508  1  0.37367996  0.59480041  0.31891178  1.0
  Ga  Ga509  1  0.37367996  0.92813374  0.31891178  1.0
  Ga  Ga510  1  0.70701330  0.26146707  0.31891178  1.0
  Ga  Ga511  1  0.70701330  0.59480041  0.31891178  1.0
  Ga  Ga512  1  0.70701330  0.92813374  0.31891178  1.0
  Ga  Ga513  1  0.28108737  0.11331893  0.26335622  1.0
  Ga  Ga514  1  0.28108737  0.44665226  0.26335622  1.0
  Ga  Ga515  1  0.28108737  0.77998559  0.26335622  1.0
  Ga  Ga516  1  0.61442070  0.11331893  0.26335622  1.0
  Ga  Ga517  1  0.61442070  0.44665226  0.26335622  1.0
  Ga  Ga518  1  0.61442070  0.77998559  0.26335622  1.0
  Ga  Ga519  1  0.94775404  0.11331893  0.26335622  1.0
  Ga  Ga520  1  0.94775404  0.44665226  0.26335622  1.0
  Ga  Ga521  1  0.94775404  0.77998559  0.26335622  1.0
  Ga  Ga522  1  0.20892148  0.15772870  0.28000989  1.0
  Ga  Ga523  1  0.20892148  0.49106204  0.28000989  1.0
  Ga  Ga524  1  0.20892148  0.82439537  0.28000989  1.0
  Ga  Ga525  1  0.54225481  0.15772870  0.28000989  1.0
  Ga  Ga526  1  0.54225481  0.49106204  0.28000989  1.0
  Ga  Ga527  1  0.54225481  0.82439537  0.28000989  1.0
  Ga  Ga528  1  0.87558815  0.15772870  0.28000989  1.0
  Ga  Ga529  1  0.87558815  0.49106204  0.28000989  1.0
  Ga  Ga530  1  0.87558815  0.82439537  0.28000989  1.0
  Ga  Ga531  1  0.11632889  0.00958056  0.22445433  1.0
  Ga  Ga532  1  0.11632889  0.34291389  0.22445433  1.0
  Ga  Ga533  1  0.11632889  0.67624722  0.22445433  1.0
  Ga  Ga534  1  0.44966222  0.00958056  0.22445433  1.0
  Ga  Ga535  1  0.44966222  0.34291389  0.22445433  1.0
  Ga  Ga536  1  0.44966222  0.67624722  0.22445433  1.0
  Ga  Ga537  1  0.78299556  0.00958056  0.22445433  1.0
  Ga  Ga538  1  0.78299556  0.34291389  0.22445433  1.0
  Ga  Ga539  1  0.78299556  0.67624722  0.22445433  1.0
  Ga  Ga540  1  0.07705022  0.18592922  0.44221233  1.0
  Ga  Ga541  1  0.07705022  0.51926256  0.44221233  1.0
  Ga  Ga542  1  0.07705022  0.85259589  0.44221233  1.0
  Ga  Ga543  1  0.41038356  0.18592922  0.44221233  1.0
  Ga  Ga544  1  0.41038356  0.51926256  0.44221233  1.0
  Ga  Ga545  1  0.41038356  0.85259589  0.44221233  1.0
  Ga  Ga546  1  0.74371689  0.18592922  0.44221233  1.0
  Ga  Ga547  1  0.74371689  0.51926256  0.44221233  1.0
  Ga  Ga548  1  0.74371689  0.85259589  0.44221233  1.0
  Ga  Ga549  1  0.31779096  0.03778107  0.38665678  1.0
  Ga  Ga550  1  0.31779096  0.37111441  0.38665678  1.0
  Ga  Ga551  1  0.31779096  0.70444774  0.38665678  1.0
  Ga  Ga552  1  0.65112430  0.03778107  0.38665678  1.0
  Ga  Ga553  1  0.65112430  0.37111441  0.38665678  1.0
  Ga  Ga554  1  0.65112430  0.70444774  0.38665678  1.0
  Ga  Ga555  1  0.98445763  0.03778107  0.38665678  1.0
  Ga  Ga556  1  0.98445763  0.37111441  0.38665678  1.0
  Ga  Ga557  1  0.98445763  0.70444774  0.38665678  1.0
  Ga  Ga558  1  0.19742059  0.11185515  0.41443456  1.0
  Ga  Ga559  1  0.19742059  0.44518848  0.41443456  1.0
  Ga  Ga560  1  0.19742059  0.77852181  0.41443456  1.0
  Ga  Ga561  1  0.53075393  0.11185515  0.41443456  1.0
  Ga  Ga562  1  0.53075393  0.44518848  0.41443456  1.0
  Ga  Ga563  1  0.53075393  0.77852181  0.41443456  1.0
  Ga  Ga564  1  0.86408726  0.11185515  0.41443456  1.0
  Ga  Ga565  1  0.86408726  0.44518848  0.41443456  1.0
  Ga  Ga566  1  0.86408726  0.77852181  0.41443456  1.0
  Ga  Ga567  1  0.10482800  0.29704033  0.35887900  1.0
  Ga  Ga568  1  0.10482800  0.63037367  0.35887900  1.0
  Ga  Ga569  1  0.10482800  0.96370700  0.35887900  1.0
  Ga  Ga570  1  0.43816133  0.29704033  0.35887900  1.0
  Ga  Ga571  1  0.43816133  0.63037367  0.35887900  1.0
  Ga  Ga572  1  0.43816133  0.96370700  0.35887900  1.0
  Ga  Ga573  1  0.77149467  0.29704033  0.35887900  1.0
  Ga  Ga574  1  0.77149467  0.63037367  0.35887900  1.0
  Ga  Ga575  1  0.77149467  0.96370700  0.35887900  1.0
  Ga  Ga576  1  0.01185863  0.24743707  0.40437578  1.0
  Ga  Ga577  1  0.01185863  0.58077041  0.40437578  1.0
  Ga  Ga578  1  0.01185863  0.91410374  0.40437578  1.0
  Ga  Ga579  1  0.34519196  0.24743707  0.40437578  1.0
  Ga  Ga580  1  0.34519196  0.58077041  0.40437578  1.0
  Ga  Ga581  1  0.34519196  0.91410374  0.40437578  1.0
  Ga  Ga582  1  0.67852530  0.24743707  0.40437578  1.0
  Ga  Ga583  1  0.67852530  0.58077041  0.40437578  1.0
  Ga  Ga584  1  0.67852530  0.91410374  0.40437578  1.0
  Ga  Ga585  1  0.25259937  0.09928893  0.34882022  1.0
  Ga  Ga586  1  0.25259937  0.43262226  0.34882022  1.0
  Ga  Ga587  1  0.25259937  0.76595559  0.34882022  1.0
  Ga  Ga588  1  0.58593270  0.09928893  0.34882022  1.0
  Ga  Ga589  1  0.58593270  0.43262226  0.34882022  1.0
  Ga  Ga590  1  0.58593270  0.76595559  0.34882022  1.0
  Ga  Ga591  1  0.91926604  0.09928893  0.34882022  1.0
  Ga  Ga592  1  0.91926604  0.43262226  0.34882022  1.0
  Ga  Ga593  1  0.91926604  0.76595559  0.34882022  1.0
  Ga  Ga594  1  0.15818526  0.18819515  0.43221856  1.0
  Ga  Ga595  1  0.15818526  0.52152848  0.43221856  1.0
  Ga  Ga596  1  0.15818526  0.85486181  0.43221856  1.0
  Ga  Ga597  1  0.49151859  0.18819515  0.43221856  1.0
  Ga  Ga598  1  0.49151859  0.52152848  0.43221856  1.0
  Ga  Ga599  1  0.49151859  0.85486181  0.43221856  1.0
  Ga  Ga600  1  0.82485193  0.18819515  0.43221856  1.0
  Ga  Ga601  1  0.82485193  0.52152848  0.43221856  1.0
  Ga  Ga602  1  0.82485193  0.85486181  0.43221856  1.0
  Ga  Ga603  1  0.06559267  0.04004700  0.37666300  1.0
  Ga  Ga604  1  0.06559267  0.37338033  0.37666300  1.0
  Ga  Ga605  1  0.06559267  0.70671367  0.37666300  1.0
  Ga  Ga606  1  0.39892600  0.04004700  0.37666300  1.0
  Ga  Ga607  1  0.39892600  0.37338033  0.37666300  1.0
  Ga  Ga608  1  0.39892600  0.70671367  0.37666300  1.0
  Ga  Ga609  1  0.73225933  0.04004700  0.37666300  1.0
  Ga  Ga610  1  0.73225933  0.37338033  0.37666300  1.0
  Ga  Ga611  1  0.73225933  0.70671367  0.37666300  1.0
  Ga  Ga612  1  0.07671678  0.18446544  0.34329067  1.0
  Ga  Ga613  1  0.07671678  0.51779878  0.34329067  1.0
  Ga  Ga614  1  0.07671678  0.85113211  0.34329067  1.0
  Ga  Ga615  1  0.41005011  0.18446544  0.34329067  1.0
  Ga  Ga616  1  0.41005011  0.51779878  0.34329067  1.0
  Ga  Ga617  1  0.41005011  0.85113211  0.34329067  1.0
  Ga  Ga618  1  0.74338344  0.18446544  0.34329067  1.0
  Ga  Ga619  1  0.74338344  0.51779878  0.34329067  1.0
  Ga  Ga620  1  0.74338344  0.85113211  0.34329067  1.0
  Ga  Ga621  1  0.16930937  0.33261359  0.39884622  1.0
  Ga  Ga622  1  0.16930937  0.66594693  0.39884622  1.0
  Ga  Ga623  1  0.16930937  0.99928026  0.39884622  1.0
  Ga  Ga624  1  0.50264270  0.33261359  0.39884622  1.0
  Ga  Ga625  1  0.50264270  0.66594693  0.39884622  1.0
  Ga  Ga626  1  0.50264270  0.99928026  0.39884622  1.0
  Ga  Ga627  1  0.83597604  0.33261359  0.39884622  1.0
  Ga  Ga628  1  0.83597604  0.66594693  0.39884622  1.0
  Ga  Ga629  1  0.83597604  0.99928026  0.39884622  1.0
  Ga  Ga630  1  0.24147526  0.28820381  0.38219256  1.0
  Ga  Ga631  1  0.24147526  0.62153715  0.38219256  1.0
  Ga  Ga632  1  0.24147526  0.95487048  0.38219256  1.0
  Ga  Ga633  1  0.57480859  0.28820381  0.38219256  1.0
  Ga  Ga634  1  0.57480859  0.62153715  0.38219256  1.0
  Ga  Ga635  1  0.57480859  0.95487048  0.38219256  1.0
  Ga  Ga636  1  0.90814193  0.28820381  0.38219256  1.0
  Ga  Ga637  1  0.90814193  0.62153715  0.38219256  1.0
  Ga  Ga638  1  0.90814193  0.95487048  0.38219256  1.0
  Ga  Ga639  1  0.00073452  0.10301863  0.43774811  1.0
  Ga  Ga640  1  0.00073452  0.43635196  0.43774811  1.0
  Ga  Ga641  1  0.00073452  0.76968530  0.43774811  1.0
  Ga  Ga642  1  0.33406785  0.10301863  0.43774811  1.0
  Ga  Ga643  1  0.33406785  0.43635196  0.43774811  1.0
  Ga  Ga644  1  0.33406785  0.76968530  0.43774811  1.0
  Ga  Ga645  1  0.66740119  0.10301863  0.43774811  1.0
  Ga  Ga646  1  0.66740119  0.43635196  0.43774811  1.0
  Ga  Ga647  1  0.66740119  0.76968530  0.43774811  1.0
  Ga  Ga648  1  0.29038996  0.16145841  0.36893778  1.0
  Ga  Ga649  1  0.29038996  0.49479174  0.36893778  1.0
  Ga  Ga650  1  0.29038996  0.82812507  0.36893778  1.0
  Ga  Ga651  1  0.62372330  0.16145841  0.36893778  1.0
  Ga  Ga652  1  0.62372330  0.49479174  0.36893778  1.0
  Ga  Ga653  1  0.62372330  0.82812507  0.36893778  1.0
  Ga  Ga654  1  0.95705663  0.16145841  0.36893778  1.0
  Ga  Ga655  1  0.95705663  0.49479174  0.36893778  1.0
  Ga  Ga656  1  0.95705663  0.82812507  0.36893778  1.0
  Ga  Ga657  1  0.04964922  0.30960656  0.42449333  1.0
  Ga  Ga658  1  0.04964922  0.64293989  0.42449333  1.0
  Ga  Ga659  1  0.04964922  0.97627322  0.42449333  1.0
  Ga  Ga660  1  0.38298256  0.30960656  0.42449333  1.0
  Ga  Ga661  1  0.38298256  0.64293989  0.42449333  1.0
  Ga  Ga662  1  0.38298256  0.97627322  0.42449333  1.0
  Ga  Ga663  1  0.71631589  0.30960656  0.42449333  1.0
  Ga  Ga664  1  0.71631589  0.64293989  0.42449333  1.0
  Ga  Ga665  1  0.71631589  0.97627322  0.42449333  1.0
  Ga  Ga666  1  0.14406333  0.22070033  0.34109500  1.0
  Ga  Ga667  1  0.14406333  0.55403367  0.34109500  1.0
  Ga  Ga668  1  0.14406333  0.88736700  0.34109500  1.0
  Ga  Ga669  1  0.47739667  0.22070033  0.34109500  1.0
  Ga  Ga670  1  0.47739667  0.55403367  0.34109500  1.0
  Ga  Ga671  1  0.47739667  0.88736700  0.34109500  1.0
  Ga  Ga672  1  0.81073000  0.22070033  0.34109500  1.0
  Ga  Ga673  1  0.81073000  0.55403367  0.34109500  1.0
  Ga  Ga674  1  0.81073000  0.88736700  0.34109500  1.0
  Ga  Ga675  1  0.23665593  0.03551515  0.39665056  1.0
  Ga  Ga676  1  0.23665593  0.36884848  0.39665056  1.0
  Ga  Ga677  1  0.23665593  0.70218181  0.39665056  1.0
  Ga  Ga678  1  0.56998926  0.03551515  0.39665056  1.0
  Ga  Ga679  1  0.56998926  0.36884848  0.39665056  1.0
  Ga  Ga680  1  0.56998926  0.70218181  0.39665056  1.0
  Ga  Ga681  1  0.90332259  0.03551515  0.39665056  1.0
  Ga  Ga682  1  0.90332259  0.36884848  0.39665056  1.0
  Ga  Ga683  1  0.90332259  0.70218181  0.39665056  1.0
  Ga  Ga684  1  0.22553181  0.22443004  0.43002289  1.0
  Ga  Ga685  1  0.22553181  0.55776337  0.43002289  1.0
  Ga  Ga686  1  0.22553181  0.89109670  0.43002289  1.0
  Ga  Ga687  1  0.55886515  0.22443004  0.43002289  1.0
  Ga  Ga688  1  0.55886515  0.55776337  0.43002289  1.0
  Ga  Ga689  1  0.55886515  0.89109670  0.43002289  1.0
  Ga  Ga690  1  0.89219848  0.22443004  0.43002289  1.0
  Ga  Ga691  1  0.89219848  0.55776337  0.43002289  1.0
  Ga  Ga692  1  0.89219848  0.89109670  0.43002289  1.0
  Ga  Ga693  1  0.13293922  0.07628189  0.37446733  1.0
  Ga  Ga694  1  0.13293922  0.40961522  0.37446733  1.0
  Ga  Ga695  1  0.13293922  0.74294856  0.37446733  1.0
  Ga  Ga696  1  0.46627256  0.07628189  0.37446733  1.0
  Ga  Ga697  1  0.46627256  0.40961522  0.37446733  1.0
  Ga  Ga698  1  0.46627256  0.74294856  0.37446733  1.0
  Ga  Ga699  1  0.79960589  0.07628189  0.37446733  1.0
  Ga  Ga700  1  0.79960589  0.40961522  0.37446733  1.0
  Ga  Ga701  1  0.79960589  0.74294856  0.37446733  1.0
  Ga  Ga702  1  0.06077333  0.12069167  0.39112100  1.0
  Ga  Ga703  1  0.06077333  0.45402500  0.39112100  1.0
  Ga  Ga704  1  0.06077333  0.78735833  0.39112100  1.0
  Ga  Ga705  1  0.39410667  0.12069167  0.39112100  1.0
  Ga  Ga706  1  0.39410667  0.45402500  0.39112100  1.0
  Ga  Ga707  1  0.39410667  0.78735833  0.39112100  1.0
  Ga  Ga708  1  0.72744000  0.12069167  0.39112100  1.0
  Ga  Ga709  1  0.72744000  0.45402500  0.39112100  1.0
  Ga  Ga710  1  0.72744000  0.78735833  0.39112100  1.0
  Ga  Ga711  1  0.30151407  0.30587685  0.33556544  1.0
  Ga  Ga712  1  0.30151407  0.63921019  0.33556544  1.0
  Ga  Ga713  1  0.30151407  0.97254352  0.33556544  1.0
  Ga  Ga714  1  0.63484741  0.30587685  0.33556544  1.0
  Ga  Ga715  1  0.63484741  0.63921019  0.33556544  1.0
  Ga  Ga716  1  0.63484741  0.97254352  0.33556544  1.0
  Ga  Ga717  1  0.96818074  0.30587685  0.33556544  1.0
  Ga  Ga718  1  0.96818074  0.63921019  0.33556544  1.0
  Ga  Ga719  1  0.96818074  0.97254352  0.33556544  1.0
  Ni  Ni720  1  0.10945763  0.20444774  0.01165678  1.0
  Ni  Ni721  1  0.10945763  0.53778107  0.01165678  1.0
  Ni  Ni722  1  0.10945763  0.87111441  0.01165678  1.0
  Ni  Ni723  1  0.44279096  0.20444774  0.01165678  1.0
  Ni  Ni724  1  0.44279096  0.53778107  0.01165678  1.0
  Ni  Ni725  1  0.44279096  0.87111441  0.01165678  1.0
  Ni  Ni726  1  0.77612430  0.20444774  0.01165678  1.0
  Ni  Ni727  1  0.77612430  0.53778107  0.01165678  1.0
  Ni  Ni728  1  0.77612430  0.87111441  0.01165678  1.0
  Ni  Ni729  1  0.20205022  0.01926256  0.06721233  1.0
  Ni  Ni730  1  0.20205022  0.35259589  0.06721233  1.0
  Ni  Ni731  1  0.20205022  0.68592922  0.06721233  1.0
  Ni  Ni732  1  0.53538356  0.01926256  0.06721233  1.0
  Ni  Ni733  1  0.53538356  0.35259589  0.06721233  1.0
  Ni  Ni734  1  0.53538356  0.68592922  0.06721233  1.0
  Ni  Ni735  1  0.86871689  0.01926256  0.06721233  1.0
  Ni  Ni736  1  0.86871689  0.35259589  0.06721233  1.0
  Ni  Ni737  1  0.86871689  0.68592922  0.06721233  1.0
  Ni  Ni738  1  0.32242059  0.27852181  0.03943456  1.0
  Ni  Ni739  1  0.32242059  0.61185515  0.03943456  1.0
  Ni  Ni740  1  0.32242059  0.94518848  0.03943456  1.0
  Ni  Ni741  1  0.65575393  0.27852181  0.03943456  1.0
  Ni  Ni742  1  0.65575393  0.61185515  0.03943456  1.0
  Ni  Ni743  1  0.65575393  0.94518848  0.03943456  1.0
  Ni  Ni744  1  0.98908726  0.27852181  0.03943456  1.0
  Ni  Ni745  1  0.98908726  0.61185515  0.03943456  1.0
  Ni  Ni746  1  0.98908726  0.94518848  0.03943456  1.0
  Ni  Ni747  1  0.08167985  0.09333663  0.09499011  1.0
  Ni  Ni748  1  0.08167985  0.42666996  0.09499011  1.0
  Ni  Ni749  1  0.08167985  0.76000330  0.09499011  1.0
  Ni  Ni750  1  0.41501319  0.09333663  0.09499011  1.0
  Ni  Ni751  1  0.41501319  0.42666996  0.09499011  1.0
  Ni  Ni752  1  0.41501319  0.76000330  0.09499011  1.0
  Ni  Ni753  1  0.74834652  0.09333663  0.09499011  1.0
  Ni  Ni754  1  0.74834652  0.42666996  0.09499011  1.0
  Ni  Ni755  1  0.74834652  0.76000330  0.09499011  1.0
  Ni  Ni756  1  0.29464281  0.16741070  0.12276789  1.0
  Ni  Ni757  1  0.29464281  0.50074404  0.12276789  1.0
  Ni  Ni758  1  0.29464281  0.83407737  0.12276789  1.0
  Ni  Ni759  1  0.62797615  0.16741070  0.12276789  1.0
  Ni  Ni760  1  0.62797615  0.50074404  0.12276789  1.0
  Ni  Ni761  1  0.62797615  0.83407737  0.12276789  1.0
  Ni  Ni762  1  0.96130948  0.16741070  0.12276789  1.0
  Ni  Ni763  1  0.96130948  0.50074404  0.12276789  1.0
  Ni  Ni764  1  0.96130948  0.83407737  0.12276789  1.0
  Ni  Ni765  1  0.05390207  0.31555885  0.17832344  1.0
  Ni  Ni766  1  0.05390207  0.64889219  0.17832344  1.0
  Ni  Ni767  1  0.05390207  0.98222552  0.17832344  1.0
  Ni  Ni768  1  0.38723541  0.31555885  0.17832344  1.0
  Ni  Ni769  1  0.38723541  0.64889219  0.17832344  1.0
  Ni  Ni770  1  0.38723541  0.98222552  0.17832344  1.0
  Ni  Ni771  1  0.72056874  0.31555885  0.17832344  1.0
  Ni  Ni772  1  0.72056874  0.64889219  0.17832344  1.0
  Ni  Ni773  1  0.72056874  0.98222552  0.17832344  1.0
  Ni  Ni774  1  0.17427244  0.24148478  0.15054567  1.0
  Ni  Ni775  1  0.17427244  0.57481811  0.15054567  1.0
  Ni  Ni776  1  0.17427244  0.90815144  0.15054567  1.0
  Ni  Ni777  1  0.50760578  0.24148478  0.15054567  1.0
  Ni  Ni778  1  0.50760578  0.57481811  0.15054567  1.0
  Ni  Ni779  1  0.50760578  0.90815144  0.15054567  1.0
  Ni  Ni780  1  0.84093911  0.24148478  0.15054567  1.0
  Ni  Ni781  1  0.84093911  0.57481811  0.15054567  1.0
  Ni  Ni782  1  0.84093911  0.90815144  0.15054567  1.0
  Ni  Ni783  1  0.26686504  0.05629959  0.20610122  1.0
  Ni  Ni784  1  0.26686504  0.38963293  0.20610122  1.0
  Ni  Ni785  1  0.26686504  0.72296626  0.20610122  1.0
  Ni  Ni786  1  0.60019837  0.05629959  0.20610122  1.0
  Ni  Ni787  1  0.60019837  0.38963293  0.20610122  1.0
  Ni  Ni788  1  0.60019837  0.72296626  0.20610122  1.0
  Ni  Ni789  1  0.93353170  0.05629959  0.20610122  1.0
  Ni  Ni790  1  0.93353170  0.38963293  0.20610122  1.0
  Ni  Ni791  1  0.93353170  0.72296626  0.20610122  1.0
  Ni  Ni792  1  0.14649467  0.13037367  0.23387900  1.0
  Ni  Ni793  1  0.14649467  0.46370700  0.23387900  1.0
  Ni  Ni794  1  0.14649467  0.79704033  0.23387900  1.0
  Ni  Ni795  1  0.47982800  0.13037367  0.23387900  1.0
  Ni  Ni796  1  0.47982800  0.46370700  0.23387900  1.0
  Ni  Ni797  1  0.47982800  0.79704033  0.23387900  1.0
  Ni  Ni798  1  0.81316133  0.13037367  0.23387900  1.0
  Ni  Ni799  1  0.81316133  0.46370700  0.23387900  1.0
  Ni  Ni800  1  0.81316133  0.79704033  0.23387900  1.0
  Ni  Ni801  1  0.23908726  0.27852181  0.28943456  1.0
  Ni  Ni802  1  0.23908726  0.61185515  0.28943456  1.0
  Ni  Ni803  1  0.23908726  0.94518848  0.28943456  1.0
  Ni  Ni804  1  0.57242059  0.27852181  0.28943456  1.0
  Ni  Ni805  1  0.57242059  0.61185515  0.28943456  1.0
  Ni  Ni806  1  0.57242059  0.94518848  0.28943456  1.0
  Ni  Ni807  1  0.90575393  0.27852181  0.28943456  1.0
  Ni  Ni808  1  0.90575393  0.61185515  0.28943456  1.0
  Ni  Ni809  1  0.90575393  0.94518848  0.28943456  1.0
  Ni  Ni810  1  0.02612430  0.20444774  0.26165678  1.0
  Ni  Ni811  1  0.02612430  0.53778107  0.26165678  1.0
  Ni  Ni812  1  0.02612430  0.87111441  0.26165678  1.0
  Ni  Ni813  1  0.35945763  0.20444774  0.26165678  1.0
  Ni  Ni814  1  0.35945763  0.53778107  0.26165678  1.0
  Ni  Ni815  1  0.35945763  0.87111441  0.26165678  1.0
  Ni  Ni816  1  0.69279096  0.20444774  0.26165678  1.0
  Ni  Ni817  1  0.69279096  0.53778107  0.26165678  1.0
  Ni  Ni818  1  0.69279096  0.87111441  0.26165678  1.0
  Ni  Ni819  1  0.11871689  0.01926256  0.31721233  1.0
  Ni  Ni820  1  0.11871689  0.35259589  0.31721233  1.0
  Ni  Ni821  1  0.11871689  0.68592922  0.31721233  1.0
  Ni  Ni822  1  0.45205022  0.01926256  0.31721233  1.0
  Ni  Ni823  1  0.45205022  0.35259589  0.31721233  1.0
  Ni  Ni824  1  0.45205022  0.68592922  0.31721233  1.0
  Ni  Ni825  1  0.78538356  0.01926256  0.31721233  1.0
  Ni  Ni826  1  0.78538356  0.35259589  0.31721233  1.0
  Ni  Ni827  1  0.78538356  0.68592922  0.31721233  1.0
  Ni  Ni828  1  0.33167985  0.09333663  0.34499011  1.0
  Ni  Ni829  1  0.33167985  0.42666996  0.34499011  1.0
  Ni  Ni830  1  0.33167985  0.76000330  0.34499011  1.0
  Ni  Ni831  1  0.66501319  0.09333663  0.34499011  1.0
  Ni  Ni832  1  0.66501319  0.42666996  0.34499011  1.0
  Ni  Ni833  1  0.66501319  0.76000330  0.34499011  1.0
  Ni  Ni834  1  0.99834652  0.09333663  0.34499011  1.0
  Ni  Ni835  1  0.99834652  0.42666996  0.34499011  1.0
  Ni  Ni836  1  0.99834652  0.76000330  0.34499011  1.0
  Ni  Ni837  1  0.09093911  0.24148478  0.40054567  1.0
  Ni  Ni838  1  0.09093911  0.57481811  0.40054567  1.0
  Ni  Ni839  1  0.09093911  0.90815144  0.40054567  1.0
  Ni  Ni840  1  0.42427244  0.24148478  0.40054567  1.0
  Ni  Ni841  1  0.42427244  0.57481811  0.40054567  1.0
  Ni  Ni842  1  0.42427244  0.90815144  0.40054567  1.0
  Ni  Ni843  1  0.75760578  0.24148478  0.40054567  1.0
  Ni  Ni844  1  0.75760578  0.57481811  0.40054567  1.0
  Ni  Ni845  1  0.75760578  0.90815144  0.40054567  1.0
  Ni  Ni846  1  0.21130948  0.16741070  0.37276789  1.0
  Ni  Ni847  1  0.21130948  0.50074404  0.37276789  1.0
  Ni  Ni848  1  0.21130948  0.83407737  0.37276789  1.0
  Ni  Ni849  1  0.54464281  0.16741070  0.37276789  1.0
  Ni  Ni850  1  0.54464281  0.50074404  0.37276789  1.0
  Ni  Ni851  1  0.54464281  0.83407737  0.37276789  1.0
  Ni  Ni852  1  0.87797615  0.16741070  0.37276789  1.0
  Ni  Ni853  1  0.87797615  0.50074404  0.37276789  1.0
  Ni  Ni854  1  0.87797615  0.83407737  0.37276789  1.0
  Ni  Ni855  1  0.30390207  0.31555885  0.42832344  1.0
  Ni  Ni856  1  0.30390207  0.64889219  0.42832344  1.0
  Ni  Ni857  1  0.30390207  0.98222552  0.42832344  1.0
  Ni  Ni858  1  0.63723541  0.31555885  0.42832344  1.0
  Ni  Ni859  1  0.63723541  0.64889219  0.42832344  1.0
  Ni  Ni860  1  0.63723541  0.98222552  0.42832344  1.0
  Ni  Ni861  1  0.97056874  0.31555885  0.42832344  1.0
  Ni  Ni862  1  0.97056874  0.64889219  0.42832344  1.0
  Ni  Ni863  1  0.97056874  0.98222552  0.42832344  1.0
