# generated using pymatgen
data_Ga7Ni3
_symmetry_space_group_name_H-M   'P 1'
_cell_length_a   25.39397999
_cell_length_b   42.11115177
_cell_length_c   26.76760521
_cell_angle_alpha   89.99999999
_cell_angle_beta   90.00000001
_cell_angle_gamma   107.54840062
_symmetry_Int_Tables_number   1
_chemical_formula_structural   Ga7Ni3
_chemical_formula_sum   'Ga504 Ni216'
_cell_volume   27292.35857492
_cell_formula_units_Z   72
loop_
 _symmetry_equiv_pos_site_id
 _symmetry_equiv_pos_as_xyz
  1  'x, y, z'
loop_
 _atom_site_type_symbol
 _atom_site_label
 _atom_site_symmetry_multiplicity
 _atom_site_fract_x
 _atom_site_fract_y
 _atom_site_fract_z
 _atom_site_occupancy
  Ga  Ga0  1  0.25585598  0.18250755  0.17252265  1.0
  Ga  Ga1  1  0.25585598  0.51584088  0.17252265  1.0
  Ga  Ga2  1  0.25585598  0.84917422  0.17252265  1.0
  Ga  Ga3  1  0.58918932  0.18250755  0.17252265  1.0
  Ga  Ga4  1  0.58918932  0.51584088  0.17252265  1.0
  Ga  Ga5  1  0.58918932  0.84917422  0.17252265  1.0
  Ga  Ga6  1  0.92252265  0.18250755  0.17252265  1.0
  Ga  Ga7  1  0.92252265  0.51584088  0.17252265  1.0
  Ga  Ga8  1  0.92252265  0.84917422  0.17252265  1.0
  Ga  Ga9  1  0.15585598  0.31584088  0.07252265  1.0
  Ga  Ga10  1  0.15585598  0.64917422  0.07252265  1.0
  Ga  Ga11  1  0.15585598  0.98250755  0.07252265  1.0
  Ga  Ga12  1  0.48918932  0.31584088  0.07252265  1.0
  Ga  Ga13  1  0.48918932  0.64917422  0.07252265  1.0
  Ga  Ga14  1  0.48918932  0.98250755  0.07252265  1.0
  Ga  Ga15  1  0.82252265  0.31584088  0.07252265  1.0
  Ga  Ga16  1  0.82252265  0.64917422  0.07252265  1.0
  Ga  Ga17  1  0.82252265  0.98250755  0.07252265  1.0
  Ga  Ga18  1  0.13085598  0.09917422  0.04752265  1.0
  Ga  Ga19  1  0.13085598  0.43250755  0.04752265  1.0
  Ga  Ga20  1  0.13085598  0.76584088  0.04752265  1.0
  Ga  Ga21  1  0.46418932  0.09917422  0.04752265  1.0
  Ga  Ga22  1  0.46418932  0.43250755  0.04752265  1.0
  Ga  Ga23  1  0.46418932  0.76584088  0.04752265  1.0
  Ga  Ga24  1  0.79752265  0.09917422  0.04752265  1.0
  Ga  Ga25  1  0.79752265  0.43250755  0.04752265  1.0
  Ga  Ga26  1  0.79752265  0.76584088  0.04752265  1.0
  Ga  Ga27  1  0.23085598  0.29917422  0.14752265  1.0
  Ga  Ga28  1  0.23085598  0.63250755  0.14752265  1.0
  Ga  Ga29  1  0.23085598  0.96584088  0.14752265  1.0
  Ga  Ga30  1  0.56418932  0.29917422  0.14752265  1.0
  Ga  Ga31  1  0.56418932  0.63250755  0.14752265  1.0
  Ga  Ga32  1  0.56418932  0.96584088  0.14752265  1.0
  Ga  Ga33  1  0.89752265  0.29917422  0.14752265  1.0
  Ga  Ga34  1  0.89752265  0.63250755  0.14752265  1.0
  Ga  Ga35  1  0.89752265  0.96584088  0.14752265  1.0
  Ga  Ga36  1  0.06418932  0.29917422  0.14752265  1.0
  Ga  Ga37  1  0.06418932  0.63250755  0.14752265  1.0
  Ga  Ga38  1  0.06418932  0.96584088  0.14752265  1.0
  Ga  Ga39  1  0.39752265  0.29917422  0.14752265  1.0
  Ga  Ga40  1  0.39752265  0.63250755  0.14752265  1.0
  Ga  Ga41  1  0.39752265  0.96584088  0.14752265  1.0
  Ga  Ga42  1  0.73085598  0.29917422  0.14752265  1.0
  Ga  Ga43  1  0.73085598  0.63250755  0.14752265  1.0
  Ga  Ga44  1  0.73085598  0.96584088  0.14752265  1.0
  Ga  Ga45  1  0.29752265  0.09917422  0.04752265  1.0
  Ga  Ga46  1  0.29752265  0.43250755  0.04752265  1.0
  Ga  Ga47  1  0.29752265  0.76584088  0.04752265  1.0
  Ga  Ga48  1  0.63085598  0.09917422  0.04752265  1.0
  Ga  Ga49  1  0.63085598  0.43250755  0.04752265  1.0
  Ga  Ga50  1  0.63085598  0.76584088  0.04752265  1.0
  Ga  Ga51  1  0.96418932  0.09917422  0.04752265  1.0
  Ga  Ga52  1  0.96418932  0.43250755  0.04752265  1.0
  Ga  Ga53  1  0.96418932  0.76584088  0.04752265  1.0
  Ga  Ga54  1  0.23918932  0.14917422  0.07252265  1.0
  Ga  Ga55  1  0.23918932  0.48250755  0.07252265  1.0
  Ga  Ga56  1  0.23918932  0.81584088  0.07252265  1.0
  Ga  Ga57  1  0.57252265  0.14917422  0.07252265  1.0
  Ga  Ga58  1  0.57252265  0.48250755  0.07252265  1.0
  Ga  Ga59  1  0.57252265  0.81584088  0.07252265  1.0
  Ga  Ga60  1  0.90585598  0.14917422  0.07252265  1.0
  Ga  Ga61  1  0.90585598  0.48250755  0.07252265  1.0
  Ga  Ga62  1  0.90585598  0.81584088  0.07252265  1.0
  Ga  Ga63  1  0.00585598  0.01584088  0.17252265  1.0
  Ga  Ga64  1  0.00585598  0.34917422  0.17252265  1.0
  Ga  Ga65  1  0.00585598  0.68250755  0.17252265  1.0
  Ga  Ga66  1  0.33918932  0.01584088  0.17252265  1.0
  Ga  Ga67  1  0.33918932  0.34917422  0.17252265  1.0
  Ga  Ga68  1  0.33918932  0.68250755  0.17252265  1.0
  Ga  Ga69  1  0.67252265  0.01584088  0.17252265  1.0
  Ga  Ga70  1  0.67252265  0.34917422  0.17252265  1.0
  Ga  Ga71  1  0.67252265  0.68250755  0.17252265  1.0
  Ga  Ga72  1  0.28918932  0.24917422  0.12252265  1.0
  Ga  Ga73  1  0.28918932  0.58250755  0.12252265  1.0
  Ga  Ga74  1  0.28918932  0.91584088  0.12252265  1.0
  Ga  Ga75  1  0.62252265  0.24917422  0.12252265  1.0
  Ga  Ga76  1  0.62252265  0.58250755  0.12252265  1.0
  Ga  Ga77  1  0.62252265  0.91584088  0.12252265  1.0
  Ga  Ga78  1  0.95585598  0.24917422  0.12252265  1.0
  Ga  Ga79  1  0.95585598  0.58250755  0.12252265  1.0
  Ga  Ga80  1  0.95585598  0.91584088  0.12252265  1.0
  Ga  Ga81  1  0.18918932  0.04917422  0.02252265  1.0
  Ga  Ga82  1  0.18918932  0.38250755  0.02252265  1.0
  Ga  Ga83  1  0.18918932  0.71584088  0.02252265  1.0
  Ga  Ga84  1  0.52252265  0.04917422  0.02252265  1.0
  Ga  Ga85  1  0.52252265  0.38250755  0.02252265  1.0
  Ga  Ga86  1  0.52252265  0.71584088  0.02252265  1.0
  Ga  Ga87  1  0.85585598  0.04917422  0.02252265  1.0
  Ga  Ga88  1  0.85585598  0.38250755  0.02252265  1.0
  Ga  Ga89  1  0.85585598  0.71584088  0.02252265  1.0
  Ga  Ga90  1  0.27252265  0.21584088  0.02252265  1.0
  Ga  Ga91  1  0.27252265  0.54917422  0.02252265  1.0
  Ga  Ga92  1  0.27252265  0.88250755  0.02252265  1.0
  Ga  Ga93  1  0.60585598  0.21584088  0.02252265  1.0
  Ga  Ga94  1  0.60585598  0.54917422  0.02252265  1.0
  Ga  Ga95  1  0.60585598  0.88250755  0.02252265  1.0
  Ga  Ga96  1  0.93918932  0.21584088  0.02252265  1.0
  Ga  Ga97  1  0.93918932  0.54917422  0.02252265  1.0
  Ga  Ga98  1  0.93918932  0.88250755  0.02252265  1.0
  Ga  Ga99  1  0.03918932  0.08250755  0.12252265  1.0
  Ga  Ga100  1  0.03918932  0.41584088  0.12252265  1.0
  Ga  Ga101  1  0.03918932  0.74917422  0.12252265  1.0
  Ga  Ga102  1  0.37252265  0.08250755  0.12252265  1.0
  Ga  Ga103  1  0.37252265  0.41584088  0.12252265  1.0
  Ga  Ga104  1  0.37252265  0.74917422  0.12252265  1.0
  Ga  Ga105  1  0.70585598  0.08250755  0.12252265  1.0
  Ga  Ga106  1  0.70585598  0.41584088  0.12252265  1.0
  Ga  Ga107  1  0.70585598  0.74917422  0.12252265  1.0
  Ga  Ga108  1  0.14061518  0.17762795  0.03288385  1.0
  Ga  Ga109  1  0.14061518  0.51096128  0.03288385  1.0
  Ga  Ga110  1  0.14061518  0.84429462  0.03288385  1.0
  Ga  Ga111  1  0.47394852  0.17762795  0.03288385  1.0
  Ga  Ga112  1  0.47394852  0.51096128  0.03288385  1.0
  Ga  Ga113  1  0.47394852  0.84429462  0.03288385  1.0
  Ga  Ga114  1  0.80728185  0.17762795  0.03288385  1.0
  Ga  Ga115  1  0.80728185  0.51096128  0.03288385  1.0
  Ga  Ga116  1  0.80728185  0.84429462  0.03288385  1.0
  Ga  Ga117  1  0.24061518  0.04429462  0.13288385  1.0
  Ga  Ga118  1  0.24061518  0.37762795  0.13288385  1.0
  Ga  Ga119  1  0.24061518  0.71096128  0.13288385  1.0
  Ga  Ga120  1  0.57394852  0.04429462  0.13288385  1.0
  Ga  Ga121  1  0.57394852  0.37762795  0.13288385  1.0
  Ga  Ga122  1  0.57394852  0.71096128  0.13288385  1.0
  Ga  Ga123  1  0.90728185  0.04429462  0.13288385  1.0
  Ga  Ga124  1  0.90728185  0.37762795  0.13288385  1.0
  Ga  Ga125  1  0.90728185  0.71096128  0.13288385  1.0
  Ga  Ga126  1  0.12984205  0.15608168  0.12984205  1.0
  Ga  Ga127  1  0.12984205  0.48941502  0.12984205  1.0
  Ga  Ga128  1  0.12984205  0.82274835  0.12984205  1.0
  Ga  Ga129  1  0.46317538  0.15608168  0.12984205  1.0
  Ga  Ga130  1  0.46317538  0.48941502  0.12984205  1.0
  Ga  Ga131  1  0.46317538  0.82274835  0.12984205  1.0
  Ga  Ga132  1  0.79650872  0.15608168  0.12984205  1.0
  Ga  Ga133  1  0.79650872  0.48941502  0.12984205  1.0
  Ga  Ga134  1  0.79650872  0.82274835  0.12984205  1.0
  Ga  Ga135  1  0.02984205  0.28941502  0.02984205  1.0
  Ga  Ga136  1  0.02984205  0.62274835  0.02984205  1.0
  Ga  Ga137  1  0.02984205  0.95608168  0.02984205  1.0
  Ga  Ga138  1  0.36317538  0.28941502  0.02984205  1.0
  Ga  Ga139  1  0.36317538  0.62274835  0.02984205  1.0
  Ga  Ga140  1  0.36317538  0.95608168  0.02984205  1.0
  Ga  Ga141  1  0.69650872  0.28941502  0.02984205  1.0
  Ga  Ga142  1  0.69650872  0.62274835  0.02984205  1.0
  Ga  Ga143  1  0.69650872  0.95608168  0.02984205  1.0
  Ga  Ga144  1  0.03288385  0.17762795  0.03288385  1.0
  Ga  Ga145  1  0.03288385  0.51096128  0.03288385  1.0
  Ga  Ga146  1  0.03288385  0.84429462  0.03288385  1.0
  Ga  Ga147  1  0.36621718  0.17762795  0.03288385  1.0
  Ga  Ga148  1  0.36621718  0.51096128  0.03288385  1.0
  Ga  Ga149  1  0.36621718  0.84429462  0.03288385  1.0
  Ga  Ga150  1  0.69955052  0.17762795  0.03288385  1.0
  Ga  Ga151  1  0.69955052  0.51096128  0.03288385  1.0
  Ga  Ga152  1  0.69955052  0.84429462  0.03288385  1.0
  Ga  Ga153  1  0.13288385  0.04429462  0.13288385  1.0
  Ga  Ga154  1  0.13288385  0.37762795  0.13288385  1.0
  Ga  Ga155  1  0.13288385  0.71096128  0.13288385  1.0
  Ga  Ga156  1  0.46621718  0.04429462  0.13288385  1.0
  Ga  Ga157  1  0.46621718  0.37762795  0.13288385  1.0
  Ga  Ga158  1  0.46621718  0.71096128  0.13288385  1.0
  Ga  Ga159  1  0.79955052  0.04429462  0.13288385  1.0
  Ga  Ga160  1  0.79955052  0.37762795  0.13288385  1.0
  Ga  Ga161  1  0.79955052  0.71096128  0.13288385  1.0
  Ga  Ga162  1  0.17293458  0.24226675  0.06520325  1.0
  Ga  Ga163  1  0.17293458  0.57560008  0.06520325  1.0
  Ga  Ga164  1  0.17293458  0.90893342  0.06520325  1.0
  Ga  Ga165  1  0.50626792  0.24226675  0.06520325  1.0
  Ga  Ga166  1  0.50626792  0.57560008  0.06520325  1.0
  Ga  Ga167  1  0.50626792  0.90893342  0.06520325  1.0
  Ga  Ga168  1  0.83960125  0.24226675  0.06520325  1.0
  Ga  Ga169  1  0.83960125  0.57560008  0.06520325  1.0
  Ga  Ga170  1  0.83960125  0.90893342  0.06520325  1.0
  Ga  Ga171  1  0.27293458  0.10893342  0.16520325  1.0
  Ga  Ga172  1  0.27293458  0.44226675  0.16520325  1.0
  Ga  Ga173  1  0.27293458  0.77560008  0.16520325  1.0
  Ga  Ga174  1  0.60626792  0.10893342  0.16520325  1.0
  Ga  Ga175  1  0.60626792  0.44226675  0.16520325  1.0
  Ga  Ga176  1  0.60626792  0.77560008  0.16520325  1.0
  Ga  Ga177  1  0.93960125  0.10893342  0.16520325  1.0
  Ga  Ga178  1  0.93960125  0.44226675  0.16520325  1.0
  Ga  Ga179  1  0.93960125  0.77560008  0.16520325  1.0
  Ga  Ga180  1  0.16216145  0.22072048  0.16216145  1.0
  Ga  Ga181  1  0.16216145  0.55405382  0.16216145  1.0
  Ga  Ga182  1  0.16216145  0.88738715  0.16216145  1.0
  Ga  Ga183  1  0.49549478  0.22072048  0.16216145  1.0
  Ga  Ga184  1  0.49549478  0.55405382  0.16216145  1.0
  Ga  Ga185  1  0.49549478  0.88738715  0.16216145  1.0
  Ga  Ga186  1  0.82882812  0.22072048  0.16216145  1.0
  Ga  Ga187  1  0.82882812  0.55405382  0.16216145  1.0
  Ga  Ga188  1  0.82882812  0.88738715  0.16216145  1.0
  Ga  Ga189  1  0.06216145  0.02072048  0.06216145  1.0
  Ga  Ga190  1  0.06216145  0.35405382  0.06216145  1.0
  Ga  Ga191  1  0.06216145  0.68738715  0.06216145  1.0
  Ga  Ga192  1  0.39549478  0.02072048  0.06216145  1.0
  Ga  Ga193  1  0.39549478  0.35405382  0.06216145  1.0
  Ga  Ga194  1  0.39549478  0.68738715  0.06216145  1.0
  Ga  Ga195  1  0.72882812  0.02072048  0.06216145  1.0
  Ga  Ga196  1  0.72882812  0.35405382  0.06216145  1.0
  Ga  Ga197  1  0.72882812  0.68738715  0.06216145  1.0
  Ga  Ga198  1  0.25544405  0.28941502  0.02984205  1.0
  Ga  Ga199  1  0.25544405  0.62274835  0.02984205  1.0
  Ga  Ga200  1  0.25544405  0.95608168  0.02984205  1.0
  Ga  Ga201  1  0.58877738  0.28941502  0.02984205  1.0
  Ga  Ga202  1  0.58877738  0.62274835  0.02984205  1.0
  Ga  Ga203  1  0.58877738  0.95608168  0.02984205  1.0
  Ga  Ga204  1  0.92211072  0.28941502  0.02984205  1.0
  Ga  Ga205  1  0.92211072  0.62274835  0.02984205  1.0
  Ga  Ga206  1  0.92211072  0.95608168  0.02984205  1.0
  Ga  Ga207  1  0.02211072  0.15608168  0.12984205  1.0
  Ga  Ga208  1  0.02211072  0.48941502  0.12984205  1.0
  Ga  Ga209  1  0.02211072  0.82274835  0.12984205  1.0
  Ga  Ga210  1  0.35544405  0.15608168  0.12984205  1.0
  Ga  Ga211  1  0.35544405  0.48941502  0.12984205  1.0
  Ga  Ga212  1  0.35544405  0.82274835  0.12984205  1.0
  Ga  Ga213  1  0.68877738  0.15608168  0.12984205  1.0
  Ga  Ga214  1  0.68877738  0.48941502  0.12984205  1.0
  Ga  Ga215  1  0.68877738  0.82274835  0.12984205  1.0
  Ga  Ga216  1  0.16520325  0.10893342  0.16520325  1.0
  Ga  Ga217  1  0.16520325  0.44226675  0.16520325  1.0
  Ga  Ga218  1  0.16520325  0.77560008  0.16520325  1.0
  Ga  Ga219  1  0.49853658  0.10893342  0.16520325  1.0
  Ga  Ga220  1  0.49853658  0.44226675  0.16520325  1.0
  Ga  Ga221  1  0.49853658  0.77560008  0.16520325  1.0
  Ga  Ga222  1  0.83186992  0.10893342  0.16520325  1.0
  Ga  Ga223  1  0.83186992  0.44226675  0.16520325  1.0
  Ga  Ga224  1  0.83186992  0.77560008  0.16520325  1.0
  Ga  Ga225  1  0.06520325  0.24226675  0.06520325  1.0
  Ga  Ga226  1  0.06520325  0.57560008  0.06520325  1.0
  Ga  Ga227  1  0.06520325  0.90893342  0.06520325  1.0
  Ga  Ga228  1  0.39853658  0.24226675  0.06520325  1.0
  Ga  Ga229  1  0.39853658  0.57560008  0.06520325  1.0
  Ga  Ga230  1  0.39853658  0.90893342  0.06520325  1.0
  Ga  Ga231  1  0.73186992  0.24226675  0.06520325  1.0
  Ga  Ga232  1  0.73186992  0.57560008  0.06520325  1.0
  Ga  Ga233  1  0.73186992  0.90893342  0.06520325  1.0
  Ga  Ga234  1  0.05443012  0.22072048  0.16216145  1.0
  Ga  Ga235  1  0.05443012  0.55405382  0.16216145  1.0
  Ga  Ga236  1  0.05443012  0.88738715  0.16216145  1.0
  Ga  Ga237  1  0.38776345  0.22072048  0.16216145  1.0
  Ga  Ga238  1  0.38776345  0.55405382  0.16216145  1.0
  Ga  Ga239  1  0.38776345  0.88738715  0.16216145  1.0
  Ga  Ga240  1  0.72109678  0.22072048  0.16216145  1.0
  Ga  Ga241  1  0.72109678  0.55405382  0.16216145  1.0
  Ga  Ga242  1  0.72109678  0.88738715  0.16216145  1.0
  Ga  Ga243  1  0.28776345  0.02072048  0.06216145  1.0
  Ga  Ga244  1  0.28776345  0.35405382  0.06216145  1.0
  Ga  Ga245  1  0.28776345  0.68738715  0.06216145  1.0
  Ga  Ga246  1  0.62109678  0.02072048  0.06216145  1.0
  Ga  Ga247  1  0.62109678  0.35405382  0.06216145  1.0
  Ga  Ga248  1  0.62109678  0.68738715  0.06216145  1.0
  Ga  Ga249  1  0.95443012  0.02072048  0.06216145  1.0
  Ga  Ga250  1  0.95443012  0.35405382  0.06216145  1.0
  Ga  Ga251  1  0.95443012  0.68738715  0.06216145  1.0
  Ga  Ga252  1  0.12252265  0.24917422  0.37252265  1.0
  Ga  Ga253  1  0.12252265  0.58250755  0.37252265  1.0
  Ga  Ga254  1  0.12252265  0.91584088  0.37252265  1.0
  Ga  Ga255  1  0.45585598  0.24917422  0.37252265  1.0
  Ga  Ga256  1  0.45585598  0.58250755  0.37252265  1.0
  Ga  Ga257  1  0.45585598  0.91584088  0.37252265  1.0
  Ga  Ga258  1  0.78918932  0.24917422  0.37252265  1.0
  Ga  Ga259  1  0.78918932  0.58250755  0.37252265  1.0
  Ga  Ga260  1  0.78918932  0.91584088  0.37252265  1.0
  Ga  Ga261  1  0.02252265  0.04917422  0.27252265  1.0
  Ga  Ga262  1  0.02252265  0.38250755  0.27252265  1.0
  Ga  Ga263  1  0.02252265  0.71584088  0.27252265  1.0
  Ga  Ga264  1  0.35585598  0.04917422  0.27252265  1.0
  Ga  Ga265  1  0.35585598  0.38250755  0.27252265  1.0
  Ga  Ga266  1  0.35585598  0.71584088  0.27252265  1.0
  Ga  Ga267  1  0.68918932  0.04917422  0.27252265  1.0
  Ga  Ga268  1  0.68918932  0.38250755  0.27252265  1.0
  Ga  Ga269  1  0.68918932  0.71584088  0.27252265  1.0
  Ga  Ga270  1  0.33085598  0.16584088  0.24752265  1.0
  Ga  Ga271  1  0.33085598  0.49917422  0.24752265  1.0
  Ga  Ga272  1  0.33085598  0.83250755  0.24752265  1.0
  Ga  Ga273  1  0.66418932  0.16584088  0.24752265  1.0
  Ga  Ga274  1  0.66418932  0.49917422  0.24752265  1.0
  Ga  Ga275  1  0.66418932  0.83250755  0.24752265  1.0
  Ga  Ga276  1  0.99752265  0.16584088  0.24752265  1.0
  Ga  Ga277  1  0.99752265  0.49917422  0.24752265  1.0
  Ga  Ga278  1  0.99752265  0.83250755  0.24752265  1.0
  Ga  Ga279  1  0.09752265  0.03250755  0.34752265  1.0
  Ga  Ga280  1  0.09752265  0.36584088  0.34752265  1.0
  Ga  Ga281  1  0.09752265  0.69917422  0.34752265  1.0
  Ga  Ga282  1  0.43085598  0.03250755  0.34752265  1.0
  Ga  Ga283  1  0.43085598  0.36584088  0.34752265  1.0
  Ga  Ga284  1  0.43085598  0.69917422  0.34752265  1.0
  Ga  Ga285  1  0.76418932  0.03250755  0.34752265  1.0
  Ga  Ga286  1  0.76418932  0.36584088  0.34752265  1.0
  Ga  Ga287  1  0.76418932  0.69917422  0.34752265  1.0
  Ga  Ga288  1  0.26418932  0.03250755  0.34752265  1.0
  Ga  Ga289  1  0.26418932  0.36584088  0.34752265  1.0
  Ga  Ga290  1  0.26418932  0.69917422  0.34752265  1.0
  Ga  Ga291  1  0.59752265  0.03250755  0.34752265  1.0
  Ga  Ga292  1  0.59752265  0.36584088  0.34752265  1.0
  Ga  Ga293  1  0.59752265  0.69917422  0.34752265  1.0
  Ga  Ga294  1  0.93085598  0.03250755  0.34752265  1.0
  Ga  Ga295  1  0.93085598  0.36584088  0.34752265  1.0
  Ga  Ga296  1  0.93085598  0.69917422  0.34752265  1.0
  Ga  Ga297  1  0.16418932  0.16584088  0.24752265  1.0
  Ga  Ga298  1  0.16418932  0.49917422  0.24752265  1.0
  Ga  Ga299  1  0.16418932  0.83250755  0.24752265  1.0
  Ga  Ga300  1  0.49752265  0.16584088  0.24752265  1.0
  Ga  Ga301  1  0.49752265  0.49917422  0.24752265  1.0
  Ga  Ga302  1  0.49752265  0.83250755  0.24752265  1.0
  Ga  Ga303  1  0.83085598  0.16584088  0.24752265  1.0
  Ga  Ga304  1  0.83085598  0.49917422  0.24752265  1.0
  Ga  Ga305  1  0.83085598  0.83250755  0.24752265  1.0
  Ga  Ga306  1  0.10585598  0.21584088  0.27252265  1.0
  Ga  Ga307  1  0.10585598  0.54917422  0.27252265  1.0
  Ga  Ga308  1  0.10585598  0.88250755  0.27252265  1.0
  Ga  Ga309  1  0.43918932  0.21584088  0.27252265  1.0
  Ga  Ga310  1  0.43918932  0.54917422  0.27252265  1.0
  Ga  Ga311  1  0.43918932  0.88250755  0.27252265  1.0
  Ga  Ga312  1  0.77252265  0.21584088  0.27252265  1.0
  Ga  Ga313  1  0.77252265  0.54917422  0.27252265  1.0
  Ga  Ga314  1  0.77252265  0.88250755  0.27252265  1.0
  Ga  Ga315  1  0.20585598  0.08250755  0.37252265  1.0
  Ga  Ga316  1  0.20585598  0.41584088  0.37252265  1.0
  Ga  Ga317  1  0.20585598  0.74917422  0.37252265  1.0
  Ga  Ga318  1  0.53918932  0.08250755  0.37252265  1.0
  Ga  Ga319  1  0.53918932  0.41584088  0.37252265  1.0
  Ga  Ga320  1  0.53918932  0.74917422  0.37252265  1.0
  Ga  Ga321  1  0.87252265  0.08250755  0.37252265  1.0
  Ga  Ga322  1  0.87252265  0.41584088  0.37252265  1.0
  Ga  Ga323  1  0.87252265  0.74917422  0.37252265  1.0
  Ga  Ga324  1  0.15585598  0.31584088  0.32252265  1.0
  Ga  Ga325  1  0.15585598  0.64917422  0.32252265  1.0
  Ga  Ga326  1  0.15585598  0.98250755  0.32252265  1.0
  Ga  Ga327  1  0.48918932  0.31584088  0.32252265  1.0
  Ga  Ga328  1  0.48918932  0.64917422  0.32252265  1.0
  Ga  Ga329  1  0.48918932  0.98250755  0.32252265  1.0
  Ga  Ga330  1  0.82252265  0.31584088  0.32252265  1.0
  Ga  Ga331  1  0.82252265  0.64917422  0.32252265  1.0
  Ga  Ga332  1  0.82252265  0.98250755  0.32252265  1.0
  Ga  Ga333  1  0.05585598  0.11584088  0.22252265  1.0
  Ga  Ga334  1  0.05585598  0.44917422  0.22252265  1.0
  Ga  Ga335  1  0.05585598  0.78250755  0.22252265  1.0
  Ga  Ga336  1  0.38918932  0.11584088  0.22252265  1.0
  Ga  Ga337  1  0.38918932  0.44917422  0.22252265  1.0
  Ga  Ga338  1  0.38918932  0.78250755  0.22252265  1.0
  Ga  Ga339  1  0.72252265  0.11584088  0.22252265  1.0
  Ga  Ga340  1  0.72252265  0.44917422  0.22252265  1.0
  Ga  Ga341  1  0.72252265  0.78250755  0.22252265  1.0
  Ga  Ga342  1  0.13918932  0.28250755  0.22252265  1.0
  Ga  Ga343  1  0.13918932  0.61584088  0.22252265  1.0
  Ga  Ga344  1  0.13918932  0.94917422  0.22252265  1.0
  Ga  Ga345  1  0.47252265  0.28250755  0.22252265  1.0
  Ga  Ga346  1  0.47252265  0.61584088  0.22252265  1.0
  Ga  Ga347  1  0.47252265  0.94917422  0.22252265  1.0
  Ga  Ga348  1  0.80585598  0.28250755  0.22252265  1.0
  Ga  Ga349  1  0.80585598  0.61584088  0.22252265  1.0
  Ga  Ga350  1  0.80585598  0.94917422  0.22252265  1.0
  Ga  Ga351  1  0.23918932  0.14917422  0.32252265  1.0
  Ga  Ga352  1  0.23918932  0.48250755  0.32252265  1.0
  Ga  Ga353  1  0.23918932  0.81584088  0.32252265  1.0
  Ga  Ga354  1  0.57252265  0.14917422  0.32252265  1.0
  Ga  Ga355  1  0.57252265  0.48250755  0.32252265  1.0
  Ga  Ga356  1  0.57252265  0.81584088  0.32252265  1.0
  Ga  Ga357  1  0.90585598  0.14917422  0.32252265  1.0
  Ga  Ga358  1  0.90585598  0.48250755  0.32252265  1.0
  Ga  Ga359  1  0.90585598  0.81584088  0.32252265  1.0
  Ga  Ga360  1  0.00728185  0.24429462  0.23288385  1.0
  Ga  Ga361  1  0.00728185  0.57762795  0.23288385  1.0
  Ga  Ga362  1  0.00728185  0.91096128  0.23288385  1.0
  Ga  Ga363  1  0.34061518  0.24429462  0.23288385  1.0
  Ga  Ga364  1  0.34061518  0.57762795  0.23288385  1.0
  Ga  Ga365  1  0.34061518  0.91096128  0.23288385  1.0
  Ga  Ga366  1  0.67394852  0.24429462  0.23288385  1.0
  Ga  Ga367  1  0.67394852  0.57762795  0.23288385  1.0
  Ga  Ga368  1  0.67394852  0.91096128  0.23288385  1.0
  Ga  Ga369  1  0.10728185  0.11096128  0.33288385  1.0
  Ga  Ga370  1  0.10728185  0.44429462  0.33288385  1.0
  Ga  Ga371  1  0.10728185  0.77762795  0.33288385  1.0
  Ga  Ga372  1  0.44061518  0.11096128  0.33288385  1.0
  Ga  Ga373  1  0.44061518  0.44429462  0.33288385  1.0
  Ga  Ga374  1  0.44061518  0.77762795  0.33288385  1.0
  Ga  Ga375  1  0.77394852  0.11096128  0.33288385  1.0
  Ga  Ga376  1  0.77394852  0.44429462  0.33288385  1.0
  Ga  Ga377  1  0.77394852  0.77762795  0.33288385  1.0
  Ga  Ga378  1  0.32984205  0.22274835  0.32984205  1.0
  Ga  Ga379  1  0.32984205  0.55608168  0.32984205  1.0
  Ga  Ga380  1  0.32984205  0.88941502  0.32984205  1.0
  Ga  Ga381  1  0.66317538  0.22274835  0.32984205  1.0
  Ga  Ga382  1  0.66317538  0.55608168  0.32984205  1.0
  Ga  Ga383  1  0.66317538  0.88941502  0.32984205  1.0
  Ga  Ga384  1  0.99650872  0.22274835  0.32984205  1.0
  Ga  Ga385  1  0.99650872  0.55608168  0.32984205  1.0
  Ga  Ga386  1  0.99650872  0.88941502  0.32984205  1.0
  Ga  Ga387  1  0.22984205  0.02274835  0.22984205  1.0
  Ga  Ga388  1  0.22984205  0.35608168  0.22984205  1.0
  Ga  Ga389  1  0.22984205  0.68941502  0.22984205  1.0
  Ga  Ga390  1  0.56317538  0.02274835  0.22984205  1.0
  Ga  Ga391  1  0.56317538  0.35608168  0.22984205  1.0
  Ga  Ga392  1  0.56317538  0.68941502  0.22984205  1.0
  Ga  Ga393  1  0.89650872  0.02274835  0.22984205  1.0
  Ga  Ga394  1  0.89650872  0.35608168  0.22984205  1.0
  Ga  Ga395  1  0.89650872  0.68941502  0.22984205  1.0
  Ga  Ga396  1  0.23288385  0.24429462  0.23288385  1.0
  Ga  Ga397  1  0.23288385  0.57762795  0.23288385  1.0
  Ga  Ga398  1  0.23288385  0.91096128  0.23288385  1.0
  Ga  Ga399  1  0.56621718  0.24429462  0.23288385  1.0
  Ga  Ga400  1  0.56621718  0.57762795  0.23288385  1.0
  Ga  Ga401  1  0.56621718  0.91096128  0.23288385  1.0
  Ga  Ga402  1  0.89955052  0.24429462  0.23288385  1.0
  Ga  Ga403  1  0.89955052  0.57762795  0.23288385  1.0
  Ga  Ga404  1  0.89955052  0.91096128  0.23288385  1.0
  Ga  Ga405  1  0.33288385  0.11096128  0.33288385  1.0
  Ga  Ga406  1  0.33288385  0.44429462  0.33288385  1.0
  Ga  Ga407  1  0.33288385  0.77762795  0.33288385  1.0
  Ga  Ga408  1  0.66621718  0.11096128  0.33288385  1.0
  Ga  Ga409  1  0.66621718  0.44429462  0.33288385  1.0
  Ga  Ga410  1  0.66621718  0.77762795  0.33288385  1.0
  Ga  Ga411  1  0.99955052  0.11096128  0.33288385  1.0
  Ga  Ga412  1  0.99955052  0.44429462  0.33288385  1.0
  Ga  Ga413  1  0.99955052  0.77762795  0.33288385  1.0
  Ga  Ga414  1  0.03960125  0.30893342  0.26520325  1.0
  Ga  Ga415  1  0.03960125  0.64226675  0.26520325  1.0
  Ga  Ga416  1  0.03960125  0.97560008  0.26520325  1.0
  Ga  Ga417  1  0.37293458  0.30893342  0.26520325  1.0
  Ga  Ga418  1  0.37293458  0.64226675  0.26520325  1.0
  Ga  Ga419  1  0.37293458  0.97560008  0.26520325  1.0
  Ga  Ga420  1  0.70626792  0.30893342  0.26520325  1.0
  Ga  Ga421  1  0.70626792  0.64226675  0.26520325  1.0
  Ga  Ga422  1  0.70626792  0.97560008  0.26520325  1.0
  Ga  Ga423  1  0.13960125  0.17560008  0.36520325  1.0
  Ga  Ga424  1  0.13960125  0.50893342  0.36520325  1.0
  Ga  Ga425  1  0.13960125  0.84226675  0.36520325  1.0
  Ga  Ga426  1  0.47293458  0.17560008  0.36520325  1.0
  Ga  Ga427  1  0.47293458  0.50893342  0.36520325  1.0
  Ga  Ga428  1  0.47293458  0.84226675  0.36520325  1.0
  Ga  Ga429  1  0.80626792  0.17560008  0.36520325  1.0
  Ga  Ga430  1  0.80626792  0.50893342  0.36520325  1.0
  Ga  Ga431  1  0.80626792  0.84226675  0.36520325  1.0
  Ga  Ga432  1  0.02882812  0.28738715  0.36216145  1.0
  Ga  Ga433  1  0.02882812  0.62072048  0.36216145  1.0
  Ga  Ga434  1  0.02882812  0.95405382  0.36216145  1.0
  Ga  Ga435  1  0.36216145  0.28738715  0.36216145  1.0
  Ga  Ga436  1  0.36216145  0.62072048  0.36216145  1.0
  Ga  Ga437  1  0.36216145  0.95405382  0.36216145  1.0
  Ga  Ga438  1  0.69549478  0.28738715  0.36216145  1.0
  Ga  Ga439  1  0.69549478  0.62072048  0.36216145  1.0
  Ga  Ga440  1  0.69549478  0.95405382  0.36216145  1.0
  Ga  Ga441  1  0.26216145  0.08738715  0.26216145  1.0
  Ga  Ga442  1  0.26216145  0.42072048  0.26216145  1.0
  Ga  Ga443  1  0.26216145  0.75405382  0.26216145  1.0
  Ga  Ga444  1  0.59549478  0.08738715  0.26216145  1.0
  Ga  Ga445  1  0.59549478  0.42072048  0.26216145  1.0
  Ga  Ga446  1  0.59549478  0.75405382  0.26216145  1.0
  Ga  Ga447  1  0.92882812  0.08738715  0.26216145  1.0
  Ga  Ga448  1  0.92882812  0.42072048  0.26216145  1.0
  Ga  Ga449  1  0.92882812  0.75405382  0.26216145  1.0
  Ga  Ga450  1  0.12211072  0.02274835  0.22984205  1.0
  Ga  Ga451  1  0.12211072  0.35608168  0.22984205  1.0
  Ga  Ga452  1  0.12211072  0.68941502  0.22984205  1.0
  Ga  Ga453  1  0.45544405  0.02274835  0.22984205  1.0
  Ga  Ga454  1  0.45544405  0.35608168  0.22984205  1.0
  Ga  Ga455  1  0.45544405  0.68941502  0.22984205  1.0
  Ga  Ga456  1  0.78877738  0.02274835  0.22984205  1.0
  Ga  Ga457  1  0.78877738  0.35608168  0.22984205  1.0
  Ga  Ga458  1  0.78877738  0.68941502  0.22984205  1.0
  Ga  Ga459  1  0.22211072  0.22274835  0.32984205  1.0
  Ga  Ga460  1  0.22211072  0.55608168  0.32984205  1.0
  Ga  Ga461  1  0.22211072  0.88941502  0.32984205  1.0
  Ga  Ga462  1  0.55544405  0.22274835  0.32984205  1.0
  Ga  Ga463  1  0.55544405  0.55608168  0.32984205  1.0
  Ga  Ga464  1  0.55544405  0.88941502  0.32984205  1.0
  Ga  Ga465  1  0.88877738  0.22274835  0.32984205  1.0
  Ga  Ga466  1  0.88877738  0.55608168  0.32984205  1.0
  Ga  Ga467  1  0.88877738  0.88941502  0.32984205  1.0
  Ga  Ga468  1  0.03186992  0.17560008  0.36520325  1.0
  Ga  Ga469  1  0.03186992  0.50893342  0.36520325  1.0
  Ga  Ga470  1  0.03186992  0.84226675  0.36520325  1.0
  Ga  Ga471  1  0.36520325  0.17560008  0.36520325  1.0
  Ga  Ga472  1  0.36520325  0.50893342  0.36520325  1.0
  Ga  Ga473  1  0.36520325  0.84226675  0.36520325  1.0
  Ga  Ga474  1  0.69853658  0.17560008  0.36520325  1.0
  Ga  Ga475  1  0.69853658  0.50893342  0.36520325  1.0
  Ga  Ga476  1  0.69853658  0.84226675  0.36520325  1.0
  Ga  Ga477  1  0.26520325  0.30893342  0.26520325  1.0
  Ga  Ga478  1  0.26520325  0.64226675  0.26520325  1.0
  Ga  Ga479  1  0.26520325  0.97560008  0.26520325  1.0
  Ga  Ga480  1  0.59853658  0.30893342  0.26520325  1.0
  Ga  Ga481  1  0.59853658  0.64226675  0.26520325  1.0
  Ga  Ga482  1  0.59853658  0.97560008  0.26520325  1.0
  Ga  Ga483  1  0.93186992  0.30893342  0.26520325  1.0
  Ga  Ga484  1  0.93186992  0.64226675  0.26520325  1.0
  Ga  Ga485  1  0.93186992  0.97560008  0.26520325  1.0
  Ga  Ga486  1  0.25443012  0.28738715  0.36216145  1.0
  Ga  Ga487  1  0.25443012  0.62072048  0.36216145  1.0
  Ga  Ga488  1  0.25443012  0.95405382  0.36216145  1.0
  Ga  Ga489  1  0.58776345  0.28738715  0.36216145  1.0
  Ga  Ga490  1  0.58776345  0.62072048  0.36216145  1.0
  Ga  Ga491  1  0.58776345  0.95405382  0.36216145  1.0
  Ga  Ga492  1  0.92109678  0.28738715  0.36216145  1.0
  Ga  Ga493  1  0.92109678  0.62072048  0.36216145  1.0
  Ga  Ga494  1  0.92109678  0.95405382  0.36216145  1.0
  Ga  Ga495  1  0.15443012  0.08738715  0.26216145  1.0
  Ga  Ga496  1  0.15443012  0.42072048  0.26216145  1.0
  Ga  Ga497  1  0.15443012  0.75405382  0.26216145  1.0
  Ga  Ga498  1  0.48776345  0.08738715  0.26216145  1.0
  Ga  Ga499  1  0.48776345  0.42072048  0.26216145  1.0
  Ga  Ga500  1  0.48776345  0.75405382  0.26216145  1.0
  Ga  Ga501  1  0.82109678  0.08738715  0.26216145  1.0
  Ga  Ga502  1  0.82109678  0.42072048  0.26216145  1.0
  Ga  Ga503  1  0.82109678  0.75405382  0.26216145  1.0
  Ni  Ni504  1  0.30918428  0.28916415  0.19256795  1.0
  Ni  Ni505  1  0.30918428  0.62249748  0.19256795  1.0
  Ni  Ni506  1  0.30918428  0.95583082  0.19256795  1.0
  Ni  Ni507  1  0.64251762  0.28916415  0.19256795  1.0
  Ni  Ni508  1  0.64251762  0.62249748  0.19256795  1.0
  Ni  Ni509  1  0.64251762  0.95583082  0.19256795  1.0
  Ni  Ni510  1  0.97585095  0.28916415  0.19256795  1.0
  Ni  Ni511  1  0.97585095  0.62249748  0.19256795  1.0
  Ni  Ni512  1  0.97585095  0.95583082  0.19256795  1.0
  Ni  Ni513  1  0.20918428  0.08916415  0.09256795  1.0
  Ni  Ni514  1  0.20918428  0.42249748  0.09256795  1.0
  Ni  Ni515  1  0.20918428  0.75583082  0.09256795  1.0
  Ni  Ni516  1  0.54251762  0.08916415  0.09256795  1.0
  Ni  Ni517  1  0.54251762  0.42249748  0.09256795  1.0
  Ni  Ni518  1  0.54251762  0.75583082  0.09256795  1.0
  Ni  Ni519  1  0.87585095  0.08916415  0.09256795  1.0
  Ni  Ni520  1  0.87585095  0.42249748  0.09256795  1.0
  Ni  Ni521  1  0.87585095  0.75583082  0.09256795  1.0
  Ni  Ni522  1  0.21413898  0.19917422  0.09752265  1.0
  Ni  Ni523  1  0.21413898  0.53250755  0.09752265  1.0
  Ni  Ni524  1  0.21413898  0.86584088  0.09752265  1.0
  Ni  Ni525  1  0.54747232  0.19917422  0.09752265  1.0
  Ni  Ni526  1  0.54747232  0.53250755  0.09752265  1.0
  Ni  Ni527  1  0.54747232  0.86584088  0.09752265  1.0
  Ni  Ni528  1  0.88080565  0.19917422  0.09752265  1.0
  Ni  Ni529  1  0.88080565  0.53250755  0.09752265  1.0
  Ni  Ni530  1  0.88080565  0.86584088  0.09752265  1.0
  Ni  Ni531  1  0.31413898  0.06584088  0.19752265  1.0
  Ni  Ni532  1  0.31413898  0.39917422  0.19752265  1.0
  Ni  Ni533  1  0.31413898  0.73250755  0.19752265  1.0
  Ni  Ni534  1  0.64747232  0.06584088  0.19752265  1.0
  Ni  Ni535  1  0.64747232  0.39917422  0.19752265  1.0
  Ni  Ni536  1  0.64747232  0.73250755  0.19752265  1.0
  Ni  Ni537  1  0.98080565  0.06584088  0.19752265  1.0
  Ni  Ni538  1  0.98080565  0.39917422  0.19752265  1.0
  Ni  Ni539  1  0.98080565  0.73250755  0.19752265  1.0
  Ni  Ni540  1  0.31423965  0.19917422  0.09752265  1.0
  Ni  Ni541  1  0.31423965  0.53250755  0.09752265  1.0
  Ni  Ni542  1  0.31423965  0.86584088  0.09752265  1.0
  Ni  Ni543  1  0.64757298  0.19917422  0.09752265  1.0
  Ni  Ni544  1  0.64757298  0.53250755  0.09752265  1.0
  Ni  Ni545  1  0.64757298  0.86584088  0.09752265  1.0
  Ni  Ni546  1  0.98090632  0.19917422  0.09752265  1.0
  Ni  Ni547  1  0.98090632  0.53250755  0.09752265  1.0
  Ni  Ni548  1  0.98090632  0.86584088  0.09752265  1.0
  Ni  Ni549  1  0.08090632  0.06584088  0.19752265  1.0
  Ni  Ni550  1  0.08090632  0.39917422  0.19752265  1.0
  Ni  Ni551  1  0.08090632  0.73250755  0.19752265  1.0
  Ni  Ni552  1  0.41423965  0.06584088  0.19752265  1.0
  Ni  Ni553  1  0.41423965  0.39917422  0.19752265  1.0
  Ni  Ni554  1  0.41423965  0.73250755  0.19752265  1.0
  Ni  Ni555  1  0.74757298  0.06584088  0.19752265  1.0
  Ni  Ni556  1  0.74757298  0.39917422  0.19752265  1.0
  Ni  Ni557  1  0.74757298  0.73250755  0.19752265  1.0
  Ni  Ni558  1  0.03250755  0.06914402  0.03250755  1.0
  Ni  Ni559  1  0.03250755  0.40247735  0.03250755  1.0
  Ni  Ni560  1  0.03250755  0.73581068  0.03250755  1.0
  Ni  Ni561  1  0.36584088  0.06914402  0.03250755  1.0
  Ni  Ni562  1  0.36584088  0.40247735  0.03250755  1.0
  Ni  Ni563  1  0.36584088  0.73581068  0.03250755  1.0
  Ni  Ni564  1  0.69917422  0.06914402  0.03250755  1.0
  Ni  Ni565  1  0.69917422  0.40247735  0.03250755  1.0
  Ni  Ni566  1  0.69917422  0.73581068  0.03250755  1.0
  Ni  Ni567  1  0.13250755  0.26914402  0.13250755  1.0
  Ni  Ni568  1  0.13250755  0.60247735  0.13250755  1.0
  Ni  Ni569  1  0.13250755  0.93581068  0.13250755  1.0
  Ni  Ni570  1  0.46584088  0.26914402  0.13250755  1.0
  Ni  Ni571  1  0.46584088  0.60247735  0.13250755  1.0
  Ni  Ni572  1  0.46584088  0.93581068  0.13250755  1.0
  Ni  Ni573  1  0.79917422  0.26914402  0.13250755  1.0
  Ni  Ni574  1  0.79917422  0.60247735  0.13250755  1.0
  Ni  Ni575  1  0.79917422  0.93581068  0.13250755  1.0
  Ni  Ni576  1  0.06253775  0.12920442  0.06253775  1.0
  Ni  Ni577  1  0.06253775  0.46253775  0.06253775  1.0
  Ni  Ni578  1  0.06253775  0.79587108  0.06253775  1.0
  Ni  Ni579  1  0.39587108  0.12920442  0.06253775  1.0
  Ni  Ni580  1  0.39587108  0.46253775  0.06253775  1.0
  Ni  Ni581  1  0.39587108  0.79587108  0.06253775  1.0
  Ni  Ni582  1  0.72920442  0.12920442  0.06253775  1.0
  Ni  Ni583  1  0.72920442  0.46253775  0.06253775  1.0
  Ni  Ni584  1  0.72920442  0.79587108  0.06253775  1.0
  Ni  Ni585  1  0.16253775  0.32920442  0.16253775  1.0
  Ni  Ni586  1  0.16253775  0.66253775  0.16253775  1.0
  Ni  Ni587  1  0.16253775  0.99587108  0.16253775  1.0
  Ni  Ni588  1  0.49587108  0.32920442  0.16253775  1.0
  Ni  Ni589  1  0.49587108  0.66253775  0.16253775  1.0
  Ni  Ni590  1  0.49587108  0.99587108  0.16253775  1.0
  Ni  Ni591  1  0.82920442  0.32920442  0.16253775  1.0
  Ni  Ni592  1  0.82920442  0.66253775  0.16253775  1.0
  Ni  Ni593  1  0.82920442  0.99587108  0.16253775  1.0
  Ni  Ni594  1  0.31919435  0.30918428  0.10247735  1.0
  Ni  Ni595  1  0.31919435  0.64251762  0.10247735  1.0
  Ni  Ni596  1  0.31919435  0.97585095  0.10247735  1.0
  Ni  Ni597  1  0.65252768  0.30918428  0.10247735  1.0
  Ni  Ni598  1  0.65252768  0.64251762  0.10247735  1.0
  Ni  Ni599  1  0.65252768  0.97585095  0.10247735  1.0
  Ni  Ni600  1  0.98586102  0.30918428  0.10247735  1.0
  Ni  Ni601  1  0.98586102  0.64251762  0.10247735  1.0
  Ni  Ni602  1  0.98586102  0.97585095  0.10247735  1.0
  Ni  Ni603  1  0.21919435  0.10918428  0.00247735  1.0
  Ni  Ni604  1  0.21919435  0.44251762  0.00247735  1.0
  Ni  Ni605  1  0.21919435  0.77585095  0.00247735  1.0
  Ni  Ni606  1  0.55252768  0.10918428  0.00247735  1.0
  Ni  Ni607  1  0.55252768  0.44251762  0.00247735  1.0
  Ni  Ni608  1  0.55252768  0.77585095  0.00247735  1.0
  Ni  Ni609  1  0.88586102  0.10918428  0.00247735  1.0
  Ni  Ni610  1  0.88586102  0.44251762  0.00247735  1.0
  Ni  Ni611  1  0.88586102  0.77585095  0.00247735  1.0
  Ni  Ni612  1  0.17585095  0.02249748  0.39256795  1.0
  Ni  Ni613  1  0.17585095  0.35583082  0.39256795  1.0
  Ni  Ni614  1  0.17585095  0.68916415  0.39256795  1.0
  Ni  Ni615  1  0.50918428  0.02249748  0.39256795  1.0
  Ni  Ni616  1  0.50918428  0.35583082  0.39256795  1.0
  Ni  Ni617  1  0.50918428  0.68916415  0.39256795  1.0
  Ni  Ni618  1  0.84251762  0.02249748  0.39256795  1.0
  Ni  Ni619  1  0.84251762  0.35583082  0.39256795  1.0
  Ni  Ni620  1  0.84251762  0.68916415  0.39256795  1.0
  Ni  Ni621  1  0.07585095  0.15583082  0.29256795  1.0
  Ni  Ni622  1  0.07585095  0.48916415  0.29256795  1.0
  Ni  Ni623  1  0.07585095  0.82249748  0.29256795  1.0
  Ni  Ni624  1  0.40918428  0.15583082  0.29256795  1.0
  Ni  Ni625  1  0.40918428  0.48916415  0.29256795  1.0
  Ni  Ni626  1  0.40918428  0.82249748  0.29256795  1.0
  Ni  Ni627  1  0.74251762  0.15583082  0.29256795  1.0
  Ni  Ni628  1  0.74251762  0.48916415  0.29256795  1.0
  Ni  Ni629  1  0.74251762  0.82249748  0.29256795  1.0
  Ni  Ni630  1  0.08080565  0.26584088  0.29752265  1.0
  Ni  Ni631  1  0.08080565  0.59917422  0.29752265  1.0
  Ni  Ni632  1  0.08080565  0.93250755  0.29752265  1.0
  Ni  Ni633  1  0.41413898  0.26584088  0.29752265  1.0
  Ni  Ni634  1  0.41413898  0.59917422  0.29752265  1.0
  Ni  Ni635  1  0.41413898  0.93250755  0.29752265  1.0
  Ni  Ni636  1  0.74747232  0.26584088  0.29752265  1.0
  Ni  Ni637  1  0.74747232  0.59917422  0.29752265  1.0
  Ni  Ni638  1  0.74747232  0.93250755  0.29752265  1.0
  Ni  Ni639  1  0.18080565  0.13250755  0.39752265  1.0
  Ni  Ni640  1  0.18080565  0.46584088  0.39752265  1.0
  Ni  Ni641  1  0.18080565  0.79917422  0.39752265  1.0
  Ni  Ni642  1  0.51413898  0.13250755  0.39752265  1.0
  Ni  Ni643  1  0.51413898  0.46584088  0.39752265  1.0
  Ni  Ni644  1  0.51413898  0.79917422  0.39752265  1.0
  Ni  Ni645  1  0.84747232  0.13250755  0.39752265  1.0
  Ni  Ni646  1  0.84747232  0.46584088  0.39752265  1.0
  Ni  Ni647  1  0.84747232  0.79917422  0.39752265  1.0
  Ni  Ni648  1  0.18090632  0.26584088  0.29752265  1.0
  Ni  Ni649  1  0.18090632  0.59917422  0.29752265  1.0
  Ni  Ni650  1  0.18090632  0.93250755  0.29752265  1.0
  Ni  Ni651  1  0.51423965  0.26584088  0.29752265  1.0
  Ni  Ni652  1  0.51423965  0.59917422  0.29752265  1.0
  Ni  Ni653  1  0.51423965  0.93250755  0.29752265  1.0
  Ni  Ni654  1  0.84757298  0.26584088  0.29752265  1.0
  Ni  Ni655  1  0.84757298  0.59917422  0.29752265  1.0
  Ni  Ni656  1  0.84757298  0.93250755  0.29752265  1.0
  Ni  Ni657  1  0.28090632  0.13250755  0.39752265  1.0
  Ni  Ni658  1  0.28090632  0.46584088  0.39752265  1.0
  Ni  Ni659  1  0.28090632  0.79917422  0.39752265  1.0
  Ni  Ni660  1  0.61423965  0.13250755  0.39752265  1.0
  Ni  Ni661  1  0.61423965  0.46584088  0.39752265  1.0
  Ni  Ni662  1  0.61423965  0.79917422  0.39752265  1.0
  Ni  Ni663  1  0.94757298  0.13250755  0.39752265  1.0
  Ni  Ni664  1  0.94757298  0.46584088  0.39752265  1.0
  Ni  Ni665  1  0.94757298  0.79917422  0.39752265  1.0
  Ni  Ni666  1  0.23250755  0.13581068  0.23250755  1.0
  Ni  Ni667  1  0.23250755  0.46914402  0.23250755  1.0
  Ni  Ni668  1  0.23250755  0.80247735  0.23250755  1.0
  Ni  Ni669  1  0.56584088  0.13581068  0.23250755  1.0
  Ni  Ni670  1  0.56584088  0.46914402  0.23250755  1.0
  Ni  Ni671  1  0.56584088  0.80247735  0.23250755  1.0
  Ni  Ni672  1  0.89917422  0.13581068  0.23250755  1.0
  Ni  Ni673  1  0.89917422  0.46914402  0.23250755  1.0
  Ni  Ni674  1  0.89917422  0.80247735  0.23250755  1.0
  Ni  Ni675  1  0.33250755  0.00247735  0.33250755  1.0
  Ni  Ni676  1  0.33250755  0.33581068  0.33250755  1.0
  Ni  Ni677  1  0.33250755  0.66914402  0.33250755  1.0
  Ni  Ni678  1  0.66584088  0.00247735  0.33250755  1.0
  Ni  Ni679  1  0.66584088  0.33581068  0.33250755  1.0
  Ni  Ni680  1  0.66584088  0.66914402  0.33250755  1.0
  Ni  Ni681  1  0.99917422  0.00247735  0.33250755  1.0
  Ni  Ni682  1  0.99917422  0.33581068  0.33250755  1.0
  Ni  Ni683  1  0.99917422  0.66914402  0.33250755  1.0
  Ni  Ni684  1  0.26253775  0.19587108  0.26253775  1.0
  Ni  Ni685  1  0.26253775  0.52920442  0.26253775  1.0
  Ni  Ni686  1  0.26253775  0.86253775  0.26253775  1.0
  Ni  Ni687  1  0.59587108  0.19587108  0.26253775  1.0
  Ni  Ni688  1  0.59587108  0.52920442  0.26253775  1.0
  Ni  Ni689  1  0.59587108  0.86253775  0.26253775  1.0
  Ni  Ni690  1  0.92920442  0.19587108  0.26253775  1.0
  Ni  Ni691  1  0.92920442  0.52920442  0.26253775  1.0
  Ni  Ni692  1  0.92920442  0.86253775  0.26253775  1.0
  Ni  Ni693  1  0.02920442  0.06253775  0.36253775  1.0
  Ni  Ni694  1  0.02920442  0.39587108  0.36253775  1.0
  Ni  Ni695  1  0.02920442  0.72920442  0.36253775  1.0
  Ni  Ni696  1  0.36253775  0.06253775  0.36253775  1.0
  Ni  Ni697  1  0.36253775  0.39587108  0.36253775  1.0
  Ni  Ni698  1  0.36253775  0.72920442  0.36253775  1.0
  Ni  Ni699  1  0.69587108  0.06253775  0.36253775  1.0
  Ni  Ni700  1  0.69587108  0.39587108  0.36253775  1.0
  Ni  Ni701  1  0.69587108  0.72920442  0.36253775  1.0
  Ni  Ni702  1  0.18586102  0.04251762  0.30247735  1.0
  Ni  Ni703  1  0.18586102  0.37585095  0.30247735  1.0
  Ni  Ni704  1  0.18586102  0.70918428  0.30247735  1.0
  Ni  Ni705  1  0.51919435  0.04251762  0.30247735  1.0
  Ni  Ni706  1  0.51919435  0.37585095  0.30247735  1.0
  Ni  Ni707  1  0.51919435  0.70918428  0.30247735  1.0
  Ni  Ni708  1  0.85252768  0.04251762  0.30247735  1.0
  Ni  Ni709  1  0.85252768  0.37585095  0.30247735  1.0
  Ni  Ni710  1  0.85252768  0.70918428  0.30247735  1.0
  Ni  Ni711  1  0.08586102  0.17585095  0.20247735  1.0
  Ni  Ni712  1  0.08586102  0.50918428  0.20247735  1.0
  Ni  Ni713  1  0.08586102  0.84251762  0.20247735  1.0
  Ni  Ni714  1  0.41919435  0.17585095  0.20247735  1.0
  Ni  Ni715  1  0.41919435  0.50918428  0.20247735  1.0
  Ni  Ni716  1  0.41919435  0.84251762  0.20247735  1.0
  Ni  Ni717  1  0.75252768  0.17585095  0.20247735  1.0
  Ni  Ni718  1  0.75252768  0.50918428  0.20247735  1.0
  Ni  Ni719  1  0.75252768  0.84251762  0.20247735  1.0
