# generated using pymatgen
data_Ga7Ni3
_symmetry_space_group_name_H-M   'P 1'
_cell_length_a   35.91251090
_cell_length_b   35.91251090
_cell_length_c   87.96732708
_cell_angle_alpha   144.73561032
_cell_angle_beta   144.73561032
_cell_angle_gamma   60.00000000
_symmetry_Int_Tables_number   1
_chemical_formula_structural   Ga7Ni3
_chemical_formula_sum   'Ga630 Ni270'
_cell_volume   32750.83028990
_cell_formula_units_Z   90
loop_
 _symmetry_equiv_pos_site_id
 _symmetry_equiv_pos_as_xyz
  1  'x, y, z'
loop_
 _atom_site_type_symbol
 _atom_site_label
 _atom_site_symmetry_multiplicity
 _atom_site_fract_x
 _atom_site_fract_y
 _atom_site_fract_z
 _atom_site_occupancy
  Ga  Ga0  1  0.08333333  0.16666667  0.04166667  1.0
  Ga  Ga1  1  0.08333333  0.50000000  0.04166667  1.0
  Ga  Ga2  1  0.08333333  0.83333333  0.04166667  1.0
  Ga  Ga3  1  0.41666667  0.16666667  0.04166667  1.0
  Ga  Ga4  1  0.41666667  0.50000000  0.04166667  1.0
  Ga  Ga5  1  0.41666667  0.83333333  0.04166667  1.0
  Ga  Ga6  1  0.75000000  0.16666667  0.04166667  1.0
  Ga  Ga7  1  0.75000000  0.50000000  0.04166667  1.0
  Ga  Ga8  1  0.75000000  0.83333333  0.04166667  1.0
  Ga  Ga9  1  0.08333333  0.25000000  0.04166667  1.0
  Ga  Ga10  1  0.08333333  0.58333333  0.04166667  1.0
  Ga  Ga11  1  0.08333333  0.91666667  0.04166667  1.0
  Ga  Ga12  1  0.41666667  0.25000000  0.04166667  1.0
  Ga  Ga13  1  0.41666667  0.58333333  0.04166667  1.0
  Ga  Ga14  1  0.41666667  0.91666667  0.04166667  1.0
  Ga  Ga15  1  0.75000000  0.25000000  0.04166667  1.0
  Ga  Ga16  1  0.75000000  0.58333333  0.04166667  1.0
  Ga  Ga17  1  0.75000000  0.91666667  0.04166667  1.0
  Ga  Ga18  1  0.25000000  0.08333333  0.04166667  1.0
  Ga  Ga19  1  0.25000000  0.41666667  0.04166667  1.0
  Ga  Ga20  1  0.25000000  0.75000000  0.04166667  1.0
  Ga  Ga21  1  0.58333333  0.08333333  0.04166667  1.0
  Ga  Ga22  1  0.58333333  0.41666667  0.04166667  1.0
  Ga  Ga23  1  0.58333333  0.75000000  0.04166667  1.0
  Ga  Ga24  1  0.91666667  0.08333333  0.04166667  1.0
  Ga  Ga25  1  0.91666667  0.41666667  0.04166667  1.0
  Ga  Ga26  1  0.91666667  0.75000000  0.04166667  1.0
  Ga  Ga27  1  0.16666667  0.25000000  0.04166667  1.0
  Ga  Ga28  1  0.16666667  0.58333333  0.04166667  1.0
  Ga  Ga29  1  0.16666667  0.91666667  0.04166667  1.0
  Ga  Ga30  1  0.50000000  0.25000000  0.04166667  1.0
  Ga  Ga31  1  0.50000000  0.58333333  0.04166667  1.0
  Ga  Ga32  1  0.50000000  0.91666667  0.04166667  1.0
  Ga  Ga33  1  0.83333333  0.25000000  0.04166667  1.0
  Ga  Ga34  1  0.83333333  0.58333333  0.04166667  1.0
  Ga  Ga35  1  0.83333333  0.91666667  0.04166667  1.0
  Ga  Ga36  1  0.16666667  0.08333333  0.04166667  1.0
  Ga  Ga37  1  0.16666667  0.41666667  0.04166667  1.0
  Ga  Ga38  1  0.16666667  0.75000000  0.04166667  1.0
  Ga  Ga39  1  0.50000000  0.08333333  0.04166667  1.0
  Ga  Ga40  1  0.50000000  0.41666667  0.04166667  1.0
  Ga  Ga41  1  0.50000000  0.75000000  0.04166667  1.0
  Ga  Ga42  1  0.83333333  0.08333333  0.04166667  1.0
  Ga  Ga43  1  0.83333333  0.41666667  0.04166667  1.0
  Ga  Ga44  1  0.83333333  0.75000000  0.04166667  1.0
  Ga  Ga45  1  0.25000000  0.16666667  0.04166667  1.0
  Ga  Ga46  1  0.25000000  0.50000000  0.04166667  1.0
  Ga  Ga47  1  0.25000000  0.83333333  0.04166667  1.0
  Ga  Ga48  1  0.58333333  0.16666667  0.04166667  1.0
  Ga  Ga49  1  0.58333333  0.50000000  0.04166667  1.0
  Ga  Ga50  1  0.58333333  0.83333333  0.04166667  1.0
  Ga  Ga51  1  0.91666667  0.16666667  0.04166667  1.0
  Ga  Ga52  1  0.91666667  0.50000000  0.04166667  1.0
  Ga  Ga53  1  0.91666667  0.83333333  0.04166667  1.0
  Ga  Ga54  1  0.10773133  0.10773133  0.08079850  1.0
  Ga  Ga55  1  0.10773133  0.44106467  0.08079850  1.0
  Ga  Ga56  1  0.10773133  0.77439800  0.08079850  1.0
  Ga  Ga57  1  0.44106467  0.10773133  0.08079850  1.0
  Ga  Ga58  1  0.44106467  0.44106467  0.08079850  1.0
  Ga  Ga59  1  0.44106467  0.77439800  0.08079850  1.0
  Ga  Ga60  1  0.77439800  0.10773133  0.08079850  1.0
  Ga  Ga61  1  0.77439800  0.44106467  0.08079850  1.0
  Ga  Ga62  1  0.77439800  0.77439800  0.08079850  1.0
  Ga  Ga63  1  0.00000000  0.10773133  0.02693283  1.0
  Ga  Ga64  1  0.00000000  0.44106467  0.02693283  1.0
  Ga  Ga65  1  0.00000000  0.77439800  0.02693283  1.0
  Ga  Ga66  1  0.33333333  0.10773133  0.02693283  1.0
  Ga  Ga67  1  0.33333333  0.44106467  0.02693283  1.0
  Ga  Ga68  1  0.33333333  0.77439800  0.02693283  1.0
  Ga  Ga69  1  0.66666667  0.10773133  0.02693283  1.0
  Ga  Ga70  1  0.66666667  0.44106467  0.02693283  1.0
  Ga  Ga71  1  0.66666667  0.77439800  0.02693283  1.0
  Ga  Ga72  1  0.00000000  0.00000000  0.02693283  1.0
  Ga  Ga73  1  0.00000000  0.33333333  0.02693283  1.0
  Ga  Ga74  1  0.00000000  0.66666667  0.02693283  1.0
  Ga  Ga75  1  0.33333333  0.00000000  0.02693283  1.0
  Ga  Ga76  1  0.33333333  0.33333333  0.02693283  1.0
  Ga  Ga77  1  0.33333333  0.66666667  0.02693283  1.0
  Ga  Ga78  1  0.66666667  0.00000000  0.02693283  1.0
  Ga  Ga79  1  0.66666667  0.33333333  0.02693283  1.0
  Ga  Ga80  1  0.66666667  0.66666667  0.02693283  1.0
  Ga  Ga81  1  0.10773133  0.00000000  0.02693283  1.0
  Ga  Ga82  1  0.10773133  0.33333333  0.02693283  1.0
  Ga  Ga83  1  0.10773133  0.66666667  0.02693283  1.0
  Ga  Ga84  1  0.44106467  0.00000000  0.02693283  1.0
  Ga  Ga85  1  0.44106467  0.33333333  0.02693283  1.0
  Ga  Ga86  1  0.44106467  0.66666667  0.02693283  1.0
  Ga  Ga87  1  0.77439800  0.00000000  0.02693283  1.0
  Ga  Ga88  1  0.77439800  0.33333333  0.02693283  1.0
  Ga  Ga89  1  0.77439800  0.66666667  0.02693283  1.0
  Ga  Ga90  1  0.00000000  0.00000000  0.05640050  1.0
  Ga  Ga91  1  0.00000000  0.33333333  0.05640050  1.0
  Ga  Ga92  1  0.00000000  0.66666667  0.05640050  1.0
  Ga  Ga93  1  0.33333333  0.00000000  0.05640050  1.0
  Ga  Ga94  1  0.33333333  0.33333333  0.05640050  1.0
  Ga  Ga95  1  0.33333333  0.66666667  0.05640050  1.0
  Ga  Ga96  1  0.66666667  0.00000000  0.05640050  1.0
  Ga  Ga97  1  0.66666667  0.33333333  0.05640050  1.0
  Ga  Ga98  1  0.66666667  0.66666667  0.05640050  1.0
  Ga  Ga99  1  0.22560200  0.00000000  0.05640050  1.0
  Ga  Ga100  1  0.22560200  0.33333333  0.05640050  1.0
  Ga  Ga101  1  0.22560200  0.66666667  0.05640050  1.0
  Ga  Ga102  1  0.55893533  0.00000000  0.05640050  1.0
  Ga  Ga103  1  0.55893533  0.33333333  0.05640050  1.0
  Ga  Ga104  1  0.55893533  0.66666667  0.05640050  1.0
  Ga  Ga105  1  0.89226867  0.00000000  0.05640050  1.0
  Ga  Ga106  1  0.89226867  0.33333333  0.05640050  1.0
  Ga  Ga107  1  0.89226867  0.66666667  0.05640050  1.0
  Ga  Ga108  1  0.00000000  0.22560200  0.05640050  1.0
  Ga  Ga109  1  0.00000000  0.55893533  0.05640050  1.0
  Ga  Ga110  1  0.00000000  0.89226867  0.05640050  1.0
  Ga  Ga111  1  0.33333333  0.22560200  0.05640050  1.0
  Ga  Ga112  1  0.33333333  0.55893533  0.05640050  1.0
  Ga  Ga113  1  0.33333333  0.89226867  0.05640050  1.0
  Ga  Ga114  1  0.66666667  0.22560200  0.05640050  1.0
  Ga  Ga115  1  0.66666667  0.55893533  0.05640050  1.0
  Ga  Ga116  1  0.66666667  0.89226867  0.05640050  1.0
  Ga  Ga117  1  0.22560200  0.22560200  0.00253483  1.0
  Ga  Ga118  1  0.22560200  0.55893533  0.00253483  1.0
  Ga  Ga119  1  0.22560200  0.89226867  0.00253483  1.0
  Ga  Ga120  1  0.55893533  0.22560200  0.00253483  1.0
  Ga  Ga121  1  0.55893533  0.55893533  0.00253483  1.0
  Ga  Ga122  1  0.55893533  0.89226867  0.00253483  1.0
  Ga  Ga123  1  0.89226867  0.22560200  0.00253483  1.0
  Ga  Ga124  1  0.89226867  0.55893533  0.00253483  1.0
  Ga  Ga125  1  0.89226867  0.89226867  0.00253483  1.0
  Ni  Ni126  1  0.11661633  0.00000000  0.05830817  1.0
  Ni  Ni127  1  0.11661633  0.33333333  0.05830817  1.0
  Ni  Ni128  1  0.11661633  0.66666667  0.05830817  1.0
  Ni  Ni129  1  0.44994967  0.00000000  0.05830817  1.0
  Ni  Ni130  1  0.44994967  0.33333333  0.05830817  1.0
  Ni  Ni131  1  0.44994967  0.66666667  0.05830817  1.0
  Ni  Ni132  1  0.78328300  0.00000000  0.05830817  1.0
  Ni  Ni133  1  0.78328300  0.33333333  0.05830817  1.0
  Ni  Ni134  1  0.78328300  0.66666667  0.05830817  1.0
  Ni  Ni135  1  0.11661633  0.11661633  0.05830817  1.0
  Ni  Ni136  1  0.11661633  0.44994967  0.05830817  1.0
  Ni  Ni137  1  0.11661633  0.78328300  0.05830817  1.0
  Ni  Ni138  1  0.44994967  0.11661633  0.05830817  1.0
  Ni  Ni139  1  0.44994967  0.44994967  0.05830817  1.0
  Ni  Ni140  1  0.44994967  0.78328300  0.05830817  1.0
  Ni  Ni141  1  0.78328300  0.11661633  0.05830817  1.0
  Ni  Ni142  1  0.78328300  0.44994967  0.05830817  1.0
  Ni  Ni143  1  0.78328300  0.78328300  0.05830817  1.0
  Ni  Ni144  1  0.21671700  0.21671700  0.02502517  1.0
  Ni  Ni145  1  0.21671700  0.55005033  0.02502517  1.0
  Ni  Ni146  1  0.21671700  0.88338367  0.02502517  1.0
  Ni  Ni147  1  0.55005033  0.21671700  0.02502517  1.0
  Ni  Ni148  1  0.55005033  0.55005033  0.02502517  1.0
  Ni  Ni149  1  0.55005033  0.88338367  0.02502517  1.0
  Ni  Ni150  1  0.88338367  0.21671700  0.02502517  1.0
  Ni  Ni151  1  0.88338367  0.55005033  0.02502517  1.0
  Ni  Ni152  1  0.88338367  0.88338367  0.02502517  1.0
  Ni  Ni153  1  0.00000000  0.21671700  0.02502517  1.0
  Ni  Ni154  1  0.00000000  0.55005033  0.02502517  1.0
  Ni  Ni155  1  0.00000000  0.88338367  0.02502517  1.0
  Ni  Ni156  1  0.33333333  0.21671700  0.02502517  1.0
  Ni  Ni157  1  0.33333333  0.55005033  0.02502517  1.0
  Ni  Ni158  1  0.33333333  0.88338367  0.02502517  1.0
  Ni  Ni159  1  0.66666667  0.21671700  0.02502517  1.0
  Ni  Ni160  1  0.66666667  0.55005033  0.02502517  1.0
  Ni  Ni161  1  0.66666667  0.88338367  0.02502517  1.0
  Ni  Ni162  1  0.00000000  0.11661633  0.05830817  1.0
  Ni  Ni163  1  0.00000000  0.44994967  0.05830817  1.0
  Ni  Ni164  1  0.00000000  0.78328300  0.05830817  1.0
  Ni  Ni165  1  0.33333333  0.11661633  0.05830817  1.0
  Ni  Ni166  1  0.33333333  0.44994967  0.05830817  1.0
  Ni  Ni167  1  0.33333333  0.78328300  0.05830817  1.0
  Ni  Ni168  1  0.66666667  0.11661633  0.05830817  1.0
  Ni  Ni169  1  0.66666667  0.44994967  0.05830817  1.0
  Ni  Ni170  1  0.66666667  0.78328300  0.05830817  1.0
  Ni  Ni171  1  0.21671700  0.00000000  0.02502517  1.0
  Ni  Ni172  1  0.21671700  0.33333333  0.02502517  1.0
  Ni  Ni173  1  0.21671700  0.66666667  0.02502517  1.0
  Ni  Ni174  1  0.55005033  0.00000000  0.02502517  1.0
  Ni  Ni175  1  0.55005033  0.33333333  0.02502517  1.0
  Ni  Ni176  1  0.55005033  0.66666667  0.02502517  1.0
  Ni  Ni177  1  0.88338367  0.00000000  0.02502517  1.0
  Ni  Ni178  1  0.88338367  0.33333333  0.02502517  1.0
  Ni  Ni179  1  0.88338367  0.66666667  0.02502517  1.0
  Ga  Ga180  1  0.08333333  0.16666667  0.12500000  1.0
  Ga  Ga181  1  0.08333333  0.50000000  0.12500000  1.0
  Ga  Ga182  1  0.08333333  0.83333333  0.12500000  1.0
  Ga  Ga183  1  0.41666667  0.16666667  0.12500000  1.0
  Ga  Ga184  1  0.41666667  0.50000000  0.12500000  1.0
  Ga  Ga185  1  0.41666667  0.83333333  0.12500000  1.0
  Ga  Ga186  1  0.75000000  0.16666667  0.12500000  1.0
  Ga  Ga187  1  0.75000000  0.50000000  0.12500000  1.0
  Ga  Ga188  1  0.75000000  0.83333333  0.12500000  1.0
  Ga  Ga189  1  0.08333333  0.25000000  0.12500000  1.0
  Ga  Ga190  1  0.08333333  0.58333333  0.12500000  1.0
  Ga  Ga191  1  0.08333333  0.91666667  0.12500000  1.0
  Ga  Ga192  1  0.41666667  0.25000000  0.12500000  1.0
  Ga  Ga193  1  0.41666667  0.58333333  0.12500000  1.0
  Ga  Ga194  1  0.41666667  0.91666667  0.12500000  1.0
  Ga  Ga195  1  0.75000000  0.25000000  0.12500000  1.0
  Ga  Ga196  1  0.75000000  0.58333333  0.12500000  1.0
  Ga  Ga197  1  0.75000000  0.91666667  0.12500000  1.0
  Ga  Ga198  1  0.25000000  0.08333333  0.12500000  1.0
  Ga  Ga199  1  0.25000000  0.41666667  0.12500000  1.0
  Ga  Ga200  1  0.25000000  0.75000000  0.12500000  1.0
  Ga  Ga201  1  0.58333333  0.08333333  0.12500000  1.0
  Ga  Ga202  1  0.58333333  0.41666667  0.12500000  1.0
  Ga  Ga203  1  0.58333333  0.75000000  0.12500000  1.0
  Ga  Ga204  1  0.91666667  0.08333333  0.12500000  1.0
  Ga  Ga205  1  0.91666667  0.41666667  0.12500000  1.0
  Ga  Ga206  1  0.91666667  0.75000000  0.12500000  1.0
  Ga  Ga207  1  0.16666667  0.25000000  0.12500000  1.0
  Ga  Ga208  1  0.16666667  0.58333333  0.12500000  1.0
  Ga  Ga209  1  0.16666667  0.91666667  0.12500000  1.0
  Ga  Ga210  1  0.50000000  0.25000000  0.12500000  1.0
  Ga  Ga211  1  0.50000000  0.58333333  0.12500000  1.0
  Ga  Ga212  1  0.50000000  0.91666667  0.12500000  1.0
  Ga  Ga213  1  0.83333333  0.25000000  0.12500000  1.0
  Ga  Ga214  1  0.83333333  0.58333333  0.12500000  1.0
  Ga  Ga215  1  0.83333333  0.91666667  0.12500000  1.0
  Ga  Ga216  1  0.16666667  0.08333333  0.12500000  1.0
  Ga  Ga217  1  0.16666667  0.41666667  0.12500000  1.0
  Ga  Ga218  1  0.16666667  0.75000000  0.12500000  1.0
  Ga  Ga219  1  0.50000000  0.08333333  0.12500000  1.0
  Ga  Ga220  1  0.50000000  0.41666667  0.12500000  1.0
  Ga  Ga221  1  0.50000000  0.75000000  0.12500000  1.0
  Ga  Ga222  1  0.83333333  0.08333333  0.12500000  1.0
  Ga  Ga223  1  0.83333333  0.41666667  0.12500000  1.0
  Ga  Ga224  1  0.83333333  0.75000000  0.12500000  1.0
  Ga  Ga225  1  0.25000000  0.16666667  0.12500000  1.0
  Ga  Ga226  1  0.25000000  0.50000000  0.12500000  1.0
  Ga  Ga227  1  0.25000000  0.83333333  0.12500000  1.0
  Ga  Ga228  1  0.58333333  0.16666667  0.12500000  1.0
  Ga  Ga229  1  0.58333333  0.50000000  0.12500000  1.0
  Ga  Ga230  1  0.58333333  0.83333333  0.12500000  1.0
  Ga  Ga231  1  0.91666667  0.16666667  0.12500000  1.0
  Ga  Ga232  1  0.91666667  0.50000000  0.12500000  1.0
  Ga  Ga233  1  0.91666667  0.83333333  0.12500000  1.0
  Ga  Ga234  1  0.10773133  0.10773133  0.16413183  1.0
  Ga  Ga235  1  0.10773133  0.44106467  0.16413183  1.0
  Ga  Ga236  1  0.10773133  0.77439800  0.16413183  1.0
  Ga  Ga237  1  0.44106467  0.10773133  0.16413183  1.0
  Ga  Ga238  1  0.44106467  0.44106467  0.16413183  1.0
  Ga  Ga239  1  0.44106467  0.77439800  0.16413183  1.0
  Ga  Ga240  1  0.77439800  0.10773133  0.16413183  1.0
  Ga  Ga241  1  0.77439800  0.44106467  0.16413183  1.0
  Ga  Ga242  1  0.77439800  0.77439800  0.16413183  1.0
  Ga  Ga243  1  0.00000000  0.10773133  0.11026617  1.0
  Ga  Ga244  1  0.00000000  0.44106467  0.11026617  1.0
  Ga  Ga245  1  0.00000000  0.77439800  0.11026617  1.0
  Ga  Ga246  1  0.33333333  0.10773133  0.11026617  1.0
  Ga  Ga247  1  0.33333333  0.44106467  0.11026617  1.0
  Ga  Ga248  1  0.33333333  0.77439800  0.11026617  1.0
  Ga  Ga249  1  0.66666667  0.10773133  0.11026617  1.0
  Ga  Ga250  1  0.66666667  0.44106467  0.11026617  1.0
  Ga  Ga251  1  0.66666667  0.77439800  0.11026617  1.0
  Ga  Ga252  1  0.00000000  0.00000000  0.11026617  1.0
  Ga  Ga253  1  0.00000000  0.33333333  0.11026617  1.0
  Ga  Ga254  1  0.00000000  0.66666667  0.11026617  1.0
  Ga  Ga255  1  0.33333333  0.00000000  0.11026617  1.0
  Ga  Ga256  1  0.33333333  0.33333333  0.11026617  1.0
  Ga  Ga257  1  0.33333333  0.66666667  0.11026617  1.0
  Ga  Ga258  1  0.66666667  0.00000000  0.11026617  1.0
  Ga  Ga259  1  0.66666667  0.33333333  0.11026617  1.0
  Ga  Ga260  1  0.66666667  0.66666667  0.11026617  1.0
  Ga  Ga261  1  0.10773133  0.00000000  0.11026617  1.0
  Ga  Ga262  1  0.10773133  0.33333333  0.11026617  1.0
  Ga  Ga263  1  0.10773133  0.66666667  0.11026617  1.0
  Ga  Ga264  1  0.44106467  0.00000000  0.11026617  1.0
  Ga  Ga265  1  0.44106467  0.33333333  0.11026617  1.0
  Ga  Ga266  1  0.44106467  0.66666667  0.11026617  1.0
  Ga  Ga267  1  0.77439800  0.00000000  0.11026617  1.0
  Ga  Ga268  1  0.77439800  0.33333333  0.11026617  1.0
  Ga  Ga269  1  0.77439800  0.66666667  0.11026617  1.0
  Ga  Ga270  1  0.00000000  0.00000000  0.13973383  1.0
  Ga  Ga271  1  0.00000000  0.33333333  0.13973383  1.0
  Ga  Ga272  1  0.00000000  0.66666667  0.13973383  1.0
  Ga  Ga273  1  0.33333333  0.00000000  0.13973383  1.0
  Ga  Ga274  1  0.33333333  0.33333333  0.13973383  1.0
  Ga  Ga275  1  0.33333333  0.66666667  0.13973383  1.0
  Ga  Ga276  1  0.66666667  0.00000000  0.13973383  1.0
  Ga  Ga277  1  0.66666667  0.33333333  0.13973383  1.0
  Ga  Ga278  1  0.66666667  0.66666667  0.13973383  1.0
  Ga  Ga279  1  0.22560200  0.00000000  0.13973383  1.0
  Ga  Ga280  1  0.22560200  0.33333333  0.13973383  1.0
  Ga  Ga281  1  0.22560200  0.66666667  0.13973383  1.0
  Ga  Ga282  1  0.55893533  0.00000000  0.13973383  1.0
  Ga  Ga283  1  0.55893533  0.33333333  0.13973383  1.0
  Ga  Ga284  1  0.55893533  0.66666667  0.13973383  1.0
  Ga  Ga285  1  0.89226867  0.00000000  0.13973383  1.0
  Ga  Ga286  1  0.89226867  0.33333333  0.13973383  1.0
  Ga  Ga287  1  0.89226867  0.66666667  0.13973383  1.0
  Ga  Ga288  1  0.00000000  0.22560200  0.13973383  1.0
  Ga  Ga289  1  0.00000000  0.55893533  0.13973383  1.0
  Ga  Ga290  1  0.00000000  0.89226867  0.13973383  1.0
  Ga  Ga291  1  0.33333333  0.22560200  0.13973383  1.0
  Ga  Ga292  1  0.33333333  0.55893533  0.13973383  1.0
  Ga  Ga293  1  0.33333333  0.89226867  0.13973383  1.0
  Ga  Ga294  1  0.66666667  0.22560200  0.13973383  1.0
  Ga  Ga295  1  0.66666667  0.55893533  0.13973383  1.0
  Ga  Ga296  1  0.66666667  0.89226867  0.13973383  1.0
  Ga  Ga297  1  0.22560200  0.22560200  0.08586817  1.0
  Ga  Ga298  1  0.22560200  0.55893533  0.08586817  1.0
  Ga  Ga299  1  0.22560200  0.89226867  0.08586817  1.0
  Ga  Ga300  1  0.55893533  0.22560200  0.08586817  1.0
  Ga  Ga301  1  0.55893533  0.55893533  0.08586817  1.0
  Ga  Ga302  1  0.55893533  0.89226867  0.08586817  1.0
  Ga  Ga303  1  0.89226867  0.22560200  0.08586817  1.0
  Ga  Ga304  1  0.89226867  0.55893533  0.08586817  1.0
  Ga  Ga305  1  0.89226867  0.89226867  0.08586817  1.0
  Ni  Ni306  1  0.11661633  0.00000000  0.14164150  1.0
  Ni  Ni307  1  0.11661633  0.33333333  0.14164150  1.0
  Ni  Ni308  1  0.11661633  0.66666667  0.14164150  1.0
  Ni  Ni309  1  0.44994967  0.00000000  0.14164150  1.0
  Ni  Ni310  1  0.44994967  0.33333333  0.14164150  1.0
  Ni  Ni311  1  0.44994967  0.66666667  0.14164150  1.0
  Ni  Ni312  1  0.78328300  0.00000000  0.14164150  1.0
  Ni  Ni313  1  0.78328300  0.33333333  0.14164150  1.0
  Ni  Ni314  1  0.78328300  0.66666667  0.14164150  1.0
  Ni  Ni315  1  0.11661633  0.11661633  0.14164150  1.0
  Ni  Ni316  1  0.11661633  0.44994967  0.14164150  1.0
  Ni  Ni317  1  0.11661633  0.78328300  0.14164150  1.0
  Ni  Ni318  1  0.44994967  0.11661633  0.14164150  1.0
  Ni  Ni319  1  0.44994967  0.44994967  0.14164150  1.0
  Ni  Ni320  1  0.44994967  0.78328300  0.14164150  1.0
  Ni  Ni321  1  0.78328300  0.11661633  0.14164150  1.0
  Ni  Ni322  1  0.78328300  0.44994967  0.14164150  1.0
  Ni  Ni323  1  0.78328300  0.78328300  0.14164150  1.0
  Ni  Ni324  1  0.21671700  0.21671700  0.10835850  1.0
  Ni  Ni325  1  0.21671700  0.55005033  0.10835850  1.0
  Ni  Ni326  1  0.21671700  0.88338367  0.10835850  1.0
  Ni  Ni327  1  0.55005033  0.21671700  0.10835850  1.0
  Ni  Ni328  1  0.55005033  0.55005033  0.10835850  1.0
  Ni  Ni329  1  0.55005033  0.88338367  0.10835850  1.0
  Ni  Ni330  1  0.88338367  0.21671700  0.10835850  1.0
  Ni  Ni331  1  0.88338367  0.55005033  0.10835850  1.0
  Ni  Ni332  1  0.88338367  0.88338367  0.10835850  1.0
  Ni  Ni333  1  0.00000000  0.21671700  0.10835850  1.0
  Ni  Ni334  1  0.00000000  0.55005033  0.10835850  1.0
  Ni  Ni335  1  0.00000000  0.88338367  0.10835850  1.0
  Ni  Ni336  1  0.33333333  0.21671700  0.10835850  1.0
  Ni  Ni337  1  0.33333333  0.55005033  0.10835850  1.0
  Ni  Ni338  1  0.33333333  0.88338367  0.10835850  1.0
  Ni  Ni339  1  0.66666667  0.21671700  0.10835850  1.0
  Ni  Ni340  1  0.66666667  0.55005033  0.10835850  1.0
  Ni  Ni341  1  0.66666667  0.88338367  0.10835850  1.0
  Ni  Ni342  1  0.00000000  0.11661633  0.14164150  1.0
  Ni  Ni343  1  0.00000000  0.44994967  0.14164150  1.0
  Ni  Ni344  1  0.00000000  0.78328300  0.14164150  1.0
  Ni  Ni345  1  0.33333333  0.11661633  0.14164150  1.0
  Ni  Ni346  1  0.33333333  0.44994967  0.14164150  1.0
  Ni  Ni347  1  0.33333333  0.78328300  0.14164150  1.0
  Ni  Ni348  1  0.66666667  0.11661633  0.14164150  1.0
  Ni  Ni349  1  0.66666667  0.44994967  0.14164150  1.0
  Ni  Ni350  1  0.66666667  0.78328300  0.14164150  1.0
  Ni  Ni351  1  0.21671700  0.00000000  0.10835850  1.0
  Ni  Ni352  1  0.21671700  0.33333333  0.10835850  1.0
  Ni  Ni353  1  0.21671700  0.66666667  0.10835850  1.0
  Ni  Ni354  1  0.55005033  0.00000000  0.10835850  1.0
  Ni  Ni355  1  0.55005033  0.33333333  0.10835850  1.0
  Ni  Ni356  1  0.55005033  0.66666667  0.10835850  1.0
  Ni  Ni357  1  0.88338367  0.00000000  0.10835850  1.0
  Ni  Ni358  1  0.88338367  0.33333333  0.10835850  1.0
  Ni  Ni359  1  0.88338367  0.66666667  0.10835850  1.0
  Ga  Ga360  1  0.08333333  0.16666667  0.20833333  1.0
  Ga  Ga361  1  0.08333333  0.50000000  0.20833333  1.0
  Ga  Ga362  1  0.08333333  0.83333333  0.20833333  1.0
  Ga  Ga363  1  0.41666667  0.16666667  0.20833333  1.0
  Ga  Ga364  1  0.41666667  0.50000000  0.20833333  1.0
  Ga  Ga365  1  0.41666667  0.83333333  0.20833333  1.0
  Ga  Ga366  1  0.75000000  0.16666667  0.20833333  1.0
  Ga  Ga367  1  0.75000000  0.50000000  0.20833333  1.0
  Ga  Ga368  1  0.75000000  0.83333333  0.20833333  1.0
  Ga  Ga369  1  0.08333333  0.25000000  0.20833333  1.0
  Ga  Ga370  1  0.08333333  0.58333333  0.20833333  1.0
  Ga  Ga371  1  0.08333333  0.91666667  0.20833333  1.0
  Ga  Ga372  1  0.41666667  0.25000000  0.20833333  1.0
  Ga  Ga373  1  0.41666667  0.58333333  0.20833333  1.0
  Ga  Ga374  1  0.41666667  0.91666667  0.20833333  1.0
  Ga  Ga375  1  0.75000000  0.25000000  0.20833333  1.0
  Ga  Ga376  1  0.75000000  0.58333333  0.20833333  1.0
  Ga  Ga377  1  0.75000000  0.91666667  0.20833333  1.0
  Ga  Ga378  1  0.25000000  0.08333333  0.20833333  1.0
  Ga  Ga379  1  0.25000000  0.41666667  0.20833333  1.0
  Ga  Ga380  1  0.25000000  0.75000000  0.20833333  1.0
  Ga  Ga381  1  0.58333333  0.08333333  0.20833333  1.0
  Ga  Ga382  1  0.58333333  0.41666667  0.20833333  1.0
  Ga  Ga383  1  0.58333333  0.75000000  0.20833333  1.0
  Ga  Ga384  1  0.91666667  0.08333333  0.20833333  1.0
  Ga  Ga385  1  0.91666667  0.41666667  0.20833333  1.0
  Ga  Ga386  1  0.91666667  0.75000000  0.20833333  1.0
  Ga  Ga387  1  0.16666667  0.25000000  0.20833333  1.0
  Ga  Ga388  1  0.16666667  0.58333333  0.20833333  1.0
  Ga  Ga389  1  0.16666667  0.91666667  0.20833333  1.0
  Ga  Ga390  1  0.50000000  0.25000000  0.20833333  1.0
  Ga  Ga391  1  0.50000000  0.58333333  0.20833333  1.0
  Ga  Ga392  1  0.50000000  0.91666667  0.20833333  1.0
  Ga  Ga393  1  0.83333333  0.25000000  0.20833333  1.0
  Ga  Ga394  1  0.83333333  0.58333333  0.20833333  1.0
  Ga  Ga395  1  0.83333333  0.91666667  0.20833333  1.0
  Ga  Ga396  1  0.16666667  0.08333333  0.20833333  1.0
  Ga  Ga397  1  0.16666667  0.41666667  0.20833333  1.0
  Ga  Ga398  1  0.16666667  0.75000000  0.20833333  1.0
  Ga  Ga399  1  0.50000000  0.08333333  0.20833333  1.0
  Ga  Ga400  1  0.50000000  0.41666667  0.20833333  1.0
  Ga  Ga401  1  0.50000000  0.75000000  0.20833333  1.0
  Ga  Ga402  1  0.83333333  0.08333333  0.20833333  1.0
  Ga  Ga403  1  0.83333333  0.41666667  0.20833333  1.0
  Ga  Ga404  1  0.83333333  0.75000000  0.20833333  1.0
  Ga  Ga405  1  0.25000000  0.16666667  0.20833333  1.0
  Ga  Ga406  1  0.25000000  0.50000000  0.20833333  1.0
  Ga  Ga407  1  0.25000000  0.83333333  0.20833333  1.0
  Ga  Ga408  1  0.58333333  0.16666667  0.20833333  1.0
  Ga  Ga409  1  0.58333333  0.50000000  0.20833333  1.0
  Ga  Ga410  1  0.58333333  0.83333333  0.20833333  1.0
  Ga  Ga411  1  0.91666667  0.16666667  0.20833333  1.0
  Ga  Ga412  1  0.91666667  0.50000000  0.20833333  1.0
  Ga  Ga413  1  0.91666667  0.83333333  0.20833333  1.0
  Ga  Ga414  1  0.10773133  0.10773133  0.24746517  1.0
  Ga  Ga415  1  0.10773133  0.44106467  0.24746517  1.0
  Ga  Ga416  1  0.10773133  0.77439800  0.24746517  1.0
  Ga  Ga417  1  0.44106467  0.10773133  0.24746517  1.0
  Ga  Ga418  1  0.44106467  0.44106467  0.24746517  1.0
  Ga  Ga419  1  0.44106467  0.77439800  0.24746517  1.0
  Ga  Ga420  1  0.77439800  0.10773133  0.24746517  1.0
  Ga  Ga421  1  0.77439800  0.44106467  0.24746517  1.0
  Ga  Ga422  1  0.77439800  0.77439800  0.24746517  1.0
  Ga  Ga423  1  0.00000000  0.10773133  0.19359950  1.0
  Ga  Ga424  1  0.00000000  0.44106467  0.19359950  1.0
  Ga  Ga425  1  0.00000000  0.77439800  0.19359950  1.0
  Ga  Ga426  1  0.33333333  0.10773133  0.19359950  1.0
  Ga  Ga427  1  0.33333333  0.44106467  0.19359950  1.0
  Ga  Ga428  1  0.33333333  0.77439800  0.19359950  1.0
  Ga  Ga429  1  0.66666667  0.10773133  0.19359950  1.0
  Ga  Ga430  1  0.66666667  0.44106467  0.19359950  1.0
  Ga  Ga431  1  0.66666667  0.77439800  0.19359950  1.0
  Ga  Ga432  1  0.00000000  0.00000000  0.19359950  1.0
  Ga  Ga433  1  0.00000000  0.33333333  0.19359950  1.0
  Ga  Ga434  1  0.00000000  0.66666667  0.19359950  1.0
  Ga  Ga435  1  0.33333333  0.00000000  0.19359950  1.0
  Ga  Ga436  1  0.33333333  0.33333333  0.19359950  1.0
  Ga  Ga437  1  0.33333333  0.66666667  0.19359950  1.0
  Ga  Ga438  1  0.66666667  0.00000000  0.19359950  1.0
  Ga  Ga439  1  0.66666667  0.33333333  0.19359950  1.0
  Ga  Ga440  1  0.66666667  0.66666667  0.19359950  1.0
  Ga  Ga441  1  0.10773133  0.00000000  0.19359950  1.0
  Ga  Ga442  1  0.10773133  0.33333333  0.19359950  1.0
  Ga  Ga443  1  0.10773133  0.66666667  0.19359950  1.0
  Ga  Ga444  1  0.44106467  0.00000000  0.19359950  1.0
  Ga  Ga445  1  0.44106467  0.33333333  0.19359950  1.0
  Ga  Ga446  1  0.44106467  0.66666667  0.19359950  1.0
  Ga  Ga447  1  0.77439800  0.00000000  0.19359950  1.0
  Ga  Ga448  1  0.77439800  0.33333333  0.19359950  1.0
  Ga  Ga449  1  0.77439800  0.66666667  0.19359950  1.0
  Ga  Ga450  1  0.00000000  0.00000000  0.22306717  1.0
  Ga  Ga451  1  0.00000000  0.33333333  0.22306717  1.0
  Ga  Ga452  1  0.00000000  0.66666667  0.22306717  1.0
  Ga  Ga453  1  0.33333333  0.00000000  0.22306717  1.0
  Ga  Ga454  1  0.33333333  0.33333333  0.22306717  1.0
  Ga  Ga455  1  0.33333333  0.66666667  0.22306717  1.0
  Ga  Ga456  1  0.66666667  0.00000000  0.22306717  1.0
  Ga  Ga457  1  0.66666667  0.33333333  0.22306717  1.0
  Ga  Ga458  1  0.66666667  0.66666667  0.22306717  1.0
  Ga  Ga459  1  0.22560200  0.00000000  0.22306717  1.0
  Ga  Ga460  1  0.22560200  0.33333333  0.22306717  1.0
  Ga  Ga461  1  0.22560200  0.66666667  0.22306717  1.0
  Ga  Ga462  1  0.55893533  0.00000000  0.22306717  1.0
  Ga  Ga463  1  0.55893533  0.33333333  0.22306717  1.0
  Ga  Ga464  1  0.55893533  0.66666667  0.22306717  1.0
  Ga  Ga465  1  0.89226867  0.00000000  0.22306717  1.0
  Ga  Ga466  1  0.89226867  0.33333333  0.22306717  1.0
  Ga  Ga467  1  0.89226867  0.66666667  0.22306717  1.0
  Ga  Ga468  1  0.00000000  0.22560200  0.22306717  1.0
  Ga  Ga469  1  0.00000000  0.55893533  0.22306717  1.0
  Ga  Ga470  1  0.00000000  0.89226867  0.22306717  1.0
  Ga  Ga471  1  0.33333333  0.22560200  0.22306717  1.0
  Ga  Ga472  1  0.33333333  0.55893533  0.22306717  1.0
  Ga  Ga473  1  0.33333333  0.89226867  0.22306717  1.0
  Ga  Ga474  1  0.66666667  0.22560200  0.22306717  1.0
  Ga  Ga475  1  0.66666667  0.55893533  0.22306717  1.0
  Ga  Ga476  1  0.66666667  0.89226867  0.22306717  1.0
  Ga  Ga477  1  0.22560200  0.22560200  0.16920150  1.0
  Ga  Ga478  1  0.22560200  0.55893533  0.16920150  1.0
  Ga  Ga479  1  0.22560200  0.89226867  0.16920150  1.0
  Ga  Ga480  1  0.55893533  0.22560200  0.16920150  1.0
  Ga  Ga481  1  0.55893533  0.55893533  0.16920150  1.0
  Ga  Ga482  1  0.55893533  0.89226867  0.16920150  1.0
  Ga  Ga483  1  0.89226867  0.22560200  0.16920150  1.0
  Ga  Ga484  1  0.89226867  0.55893533  0.16920150  1.0
  Ga  Ga485  1  0.89226867  0.89226867  0.16920150  1.0
  Ni  Ni486  1  0.11661633  0.00000000  0.22497483  1.0
  Ni  Ni487  1  0.11661633  0.33333333  0.22497483  1.0
  Ni  Ni488  1  0.11661633  0.66666667  0.22497483  1.0
  Ni  Ni489  1  0.44994967  0.00000000  0.22497483  1.0
  Ni  Ni490  1  0.44994967  0.33333333  0.22497483  1.0
  Ni  Ni491  1  0.44994967  0.66666667  0.22497483  1.0
  Ni  Ni492  1  0.78328300  0.00000000  0.22497483  1.0
  Ni  Ni493  1  0.78328300  0.33333333  0.22497483  1.0
  Ni  Ni494  1  0.78328300  0.66666667  0.22497483  1.0
  Ni  Ni495  1  0.11661633  0.11661633  0.22497483  1.0
  Ni  Ni496  1  0.11661633  0.44994967  0.22497483  1.0
  Ni  Ni497  1  0.11661633  0.78328300  0.22497483  1.0
  Ni  Ni498  1  0.44994967  0.11661633  0.22497483  1.0
  Ni  Ni499  1  0.44994967  0.44994967  0.22497483  1.0
  Ni  Ni500  1  0.44994967  0.78328300  0.22497483  1.0
  Ni  Ni501  1  0.78328300  0.11661633  0.22497483  1.0
  Ni  Ni502  1  0.78328300  0.44994967  0.22497483  1.0
  Ni  Ni503  1  0.78328300  0.78328300  0.22497483  1.0
  Ni  Ni504  1  0.21671700  0.21671700  0.19169183  1.0
  Ni  Ni505  1  0.21671700  0.55005033  0.19169183  1.0
  Ni  Ni506  1  0.21671700  0.88338367  0.19169183  1.0
  Ni  Ni507  1  0.55005033  0.21671700  0.19169183  1.0
  Ni  Ni508  1  0.55005033  0.55005033  0.19169183  1.0
  Ni  Ni509  1  0.55005033  0.88338367  0.19169183  1.0
  Ni  Ni510  1  0.88338367  0.21671700  0.19169183  1.0
  Ni  Ni511  1  0.88338367  0.55005033  0.19169183  1.0
  Ni  Ni512  1  0.88338367  0.88338367  0.19169183  1.0
  Ni  Ni513  1  0.00000000  0.21671700  0.19169183  1.0
  Ni  Ni514  1  0.00000000  0.55005033  0.19169183  1.0
  Ni  Ni515  1  0.00000000  0.88338367  0.19169183  1.0
  Ni  Ni516  1  0.33333333  0.21671700  0.19169183  1.0
  Ni  Ni517  1  0.33333333  0.55005033  0.19169183  1.0
  Ni  Ni518  1  0.33333333  0.88338367  0.19169183  1.0
  Ni  Ni519  1  0.66666667  0.21671700  0.19169183  1.0
  Ni  Ni520  1  0.66666667  0.55005033  0.19169183  1.0
  Ni  Ni521  1  0.66666667  0.88338367  0.19169183  1.0
  Ni  Ni522  1  0.00000000  0.11661633  0.22497483  1.0
  Ni  Ni523  1  0.00000000  0.44994967  0.22497483  1.0
  Ni  Ni524  1  0.00000000  0.78328300  0.22497483  1.0
  Ni  Ni525  1  0.33333333  0.11661633  0.22497483  1.0
  Ni  Ni526  1  0.33333333  0.44994967  0.22497483  1.0
  Ni  Ni527  1  0.33333333  0.78328300  0.22497483  1.0
  Ni  Ni528  1  0.66666667  0.11661633  0.22497483  1.0
  Ni  Ni529  1  0.66666667  0.44994967  0.22497483  1.0
  Ni  Ni530  1  0.66666667  0.78328300  0.22497483  1.0
  Ni  Ni531  1  0.21671700  0.00000000  0.19169183  1.0
  Ni  Ni532  1  0.21671700  0.33333333  0.19169183  1.0
  Ni  Ni533  1  0.21671700  0.66666667  0.19169183  1.0
  Ni  Ni534  1  0.55005033  0.00000000  0.19169183  1.0
  Ni  Ni535  1  0.55005033  0.33333333  0.19169183  1.0
  Ni  Ni536  1  0.55005033  0.66666667  0.19169183  1.0
  Ni  Ni537  1  0.88338367  0.00000000  0.19169183  1.0
  Ni  Ni538  1  0.88338367  0.33333333  0.19169183  1.0
  Ni  Ni539  1  0.88338367  0.66666667  0.19169183  1.0
  Ga  Ga540  1  0.08333333  0.16666667  0.29166667  1.0
  Ga  Ga541  1  0.08333333  0.50000000  0.29166667  1.0
  Ga  Ga542  1  0.08333333  0.83333333  0.29166667  1.0
  Ga  Ga543  1  0.41666667  0.16666667  0.29166667  1.0
  Ga  Ga544  1  0.41666667  0.50000000  0.29166667  1.0
  Ga  Ga545  1  0.41666667  0.83333333  0.29166667  1.0
  Ga  Ga546  1  0.75000000  0.16666667  0.29166667  1.0
  Ga  Ga547  1  0.75000000  0.50000000  0.29166667  1.0
  Ga  Ga548  1  0.75000000  0.83333333  0.29166667  1.0
  Ga  Ga549  1  0.08333333  0.25000000  0.29166667  1.0
  Ga  Ga550  1  0.08333333  0.58333333  0.29166667  1.0
  Ga  Ga551  1  0.08333333  0.91666667  0.29166667  1.0
  Ga  Ga552  1  0.41666667  0.25000000  0.29166667  1.0
  Ga  Ga553  1  0.41666667  0.58333333  0.29166667  1.0
  Ga  Ga554  1  0.41666667  0.91666667  0.29166667  1.0
  Ga  Ga555  1  0.75000000  0.25000000  0.29166667  1.0
  Ga  Ga556  1  0.75000000  0.58333333  0.29166667  1.0
  Ga  Ga557  1  0.75000000  0.91666667  0.29166667  1.0
  Ga  Ga558  1  0.25000000  0.08333333  0.29166667  1.0
  Ga  Ga559  1  0.25000000  0.41666667  0.29166667  1.0
  Ga  Ga560  1  0.25000000  0.75000000  0.29166667  1.0
  Ga  Ga561  1  0.58333333  0.08333333  0.29166667  1.0
  Ga  Ga562  1  0.58333333  0.41666667  0.29166667  1.0
  Ga  Ga563  1  0.58333333  0.75000000  0.29166667  1.0
  Ga  Ga564  1  0.91666667  0.08333333  0.29166667  1.0
  Ga  Ga565  1  0.91666667  0.41666667  0.29166667  1.0
  Ga  Ga566  1  0.91666667  0.75000000  0.29166667  1.0
  Ga  Ga567  1  0.16666667  0.25000000  0.29166667  1.0
  Ga  Ga568  1  0.16666667  0.58333333  0.29166667  1.0
  Ga  Ga569  1  0.16666667  0.91666667  0.29166667  1.0
  Ga  Ga570  1  0.50000000  0.25000000  0.29166667  1.0
  Ga  Ga571  1  0.50000000  0.58333333  0.29166667  1.0
  Ga  Ga572  1  0.50000000  0.91666667  0.29166667  1.0
  Ga  Ga573  1  0.83333333  0.25000000  0.29166667  1.0
  Ga  Ga574  1  0.83333333  0.58333333  0.29166667  1.0
  Ga  Ga575  1  0.83333333  0.91666667  0.29166667  1.0
  Ga  Ga576  1  0.16666667  0.08333333  0.29166667  1.0
  Ga  Ga577  1  0.16666667  0.41666667  0.29166667  1.0
  Ga  Ga578  1  0.16666667  0.75000000  0.29166667  1.0
  Ga  Ga579  1  0.50000000  0.08333333  0.29166667  1.0
  Ga  Ga580  1  0.50000000  0.41666667  0.29166667  1.0
  Ga  Ga581  1  0.50000000  0.75000000  0.29166667  1.0
  Ga  Ga582  1  0.83333333  0.08333333  0.29166667  1.0
  Ga  Ga583  1  0.83333333  0.41666667  0.29166667  1.0
  Ga  Ga584  1  0.83333333  0.75000000  0.29166667  1.0
  Ga  Ga585  1  0.25000000  0.16666667  0.29166667  1.0
  Ga  Ga586  1  0.25000000  0.50000000  0.29166667  1.0
  Ga  Ga587  1  0.25000000  0.83333333  0.29166667  1.0
  Ga  Ga588  1  0.58333333  0.16666667  0.29166667  1.0
  Ga  Ga589  1  0.58333333  0.50000000  0.29166667  1.0
  Ga  Ga590  1  0.58333333  0.83333333  0.29166667  1.0
  Ga  Ga591  1  0.91666667  0.16666667  0.29166667  1.0
  Ga  Ga592  1  0.91666667  0.50000000  0.29166667  1.0
  Ga  Ga593  1  0.91666667  0.83333333  0.29166667  1.0
  Ga  Ga594  1  0.10773133  0.10773133  0.33079850  1.0
  Ga  Ga595  1  0.10773133  0.44106467  0.33079850  1.0
  Ga  Ga596  1  0.10773133  0.77439800  0.33079850  1.0
  Ga  Ga597  1  0.44106467  0.10773133  0.33079850  1.0
  Ga  Ga598  1  0.44106467  0.44106467  0.33079850  1.0
  Ga  Ga599  1  0.44106467  0.77439800  0.33079850  1.0
  Ga  Ga600  1  0.77439800  0.10773133  0.33079850  1.0
  Ga  Ga601  1  0.77439800  0.44106467  0.33079850  1.0
  Ga  Ga602  1  0.77439800  0.77439800  0.33079850  1.0
  Ga  Ga603  1  0.00000000  0.10773133  0.27693283  1.0
  Ga  Ga604  1  0.00000000  0.44106467  0.27693283  1.0
  Ga  Ga605  1  0.00000000  0.77439800  0.27693283  1.0
  Ga  Ga606  1  0.33333333  0.10773133  0.27693283  1.0
  Ga  Ga607  1  0.33333333  0.44106467  0.27693283  1.0
  Ga  Ga608  1  0.33333333  0.77439800  0.27693283  1.0
  Ga  Ga609  1  0.66666667  0.10773133  0.27693283  1.0
  Ga  Ga610  1  0.66666667  0.44106467  0.27693283  1.0
  Ga  Ga611  1  0.66666667  0.77439800  0.27693283  1.0
  Ga  Ga612  1  0.00000000  0.00000000  0.27693283  1.0
  Ga  Ga613  1  0.00000000  0.33333333  0.27693283  1.0
  Ga  Ga614  1  0.00000000  0.66666667  0.27693283  1.0
  Ga  Ga615  1  0.33333333  0.00000000  0.27693283  1.0
  Ga  Ga616  1  0.33333333  0.33333333  0.27693283  1.0
  Ga  Ga617  1  0.33333333  0.66666667  0.27693283  1.0
  Ga  Ga618  1  0.66666667  0.00000000  0.27693283  1.0
  Ga  Ga619  1  0.66666667  0.33333333  0.27693283  1.0
  Ga  Ga620  1  0.66666667  0.66666667  0.27693283  1.0
  Ga  Ga621  1  0.10773133  0.00000000  0.27693283  1.0
  Ga  Ga622  1  0.10773133  0.33333333  0.27693283  1.0
  Ga  Ga623  1  0.10773133  0.66666667  0.27693283  1.0
  Ga  Ga624  1  0.44106467  0.00000000  0.27693283  1.0
  Ga  Ga625  1  0.44106467  0.33333333  0.27693283  1.0
  Ga  Ga626  1  0.44106467  0.66666667  0.27693283  1.0
  Ga  Ga627  1  0.77439800  0.00000000  0.27693283  1.0
  Ga  Ga628  1  0.77439800  0.33333333  0.27693283  1.0
  Ga  Ga629  1  0.77439800  0.66666667  0.27693283  1.0
  Ga  Ga630  1  0.00000000  0.00000000  0.30640050  1.0
  Ga  Ga631  1  0.00000000  0.33333333  0.30640050  1.0
  Ga  Ga632  1  0.00000000  0.66666667  0.30640050  1.0
  Ga  Ga633  1  0.33333333  0.00000000  0.30640050  1.0
  Ga  Ga634  1  0.33333333  0.33333333  0.30640050  1.0
  Ga  Ga635  1  0.33333333  0.66666667  0.30640050  1.0
  Ga  Ga636  1  0.66666667  0.00000000  0.30640050  1.0
  Ga  Ga637  1  0.66666667  0.33333333  0.30640050  1.0
  Ga  Ga638  1  0.66666667  0.66666667  0.30640050  1.0
  Ga  Ga639  1  0.22560200  0.00000000  0.30640050  1.0
  Ga  Ga640  1  0.22560200  0.33333333  0.30640050  1.0
  Ga  Ga641  1  0.22560200  0.66666667  0.30640050  1.0
  Ga  Ga642  1  0.55893533  0.00000000  0.30640050  1.0
  Ga  Ga643  1  0.55893533  0.33333333  0.30640050  1.0
  Ga  Ga644  1  0.55893533  0.66666667  0.30640050  1.0
  Ga  Ga645  1  0.89226867  0.00000000  0.30640050  1.0
  Ga  Ga646  1  0.89226867  0.33333333  0.30640050  1.0
  Ga  Ga647  1  0.89226867  0.66666667  0.30640050  1.0
  Ga  Ga648  1  0.00000000  0.22560200  0.30640050  1.0
  Ga  Ga649  1  0.00000000  0.55893533  0.30640050  1.0
  Ga  Ga650  1  0.00000000  0.89226867  0.30640050  1.0
  Ga  Ga651  1  0.33333333  0.22560200  0.30640050  1.0
  Ga  Ga652  1  0.33333333  0.55893533  0.30640050  1.0
  Ga  Ga653  1  0.33333333  0.89226867  0.30640050  1.0
  Ga  Ga654  1  0.66666667  0.22560200  0.30640050  1.0
  Ga  Ga655  1  0.66666667  0.55893533  0.30640050  1.0
  Ga  Ga656  1  0.66666667  0.89226867  0.30640050  1.0
  Ga  Ga657  1  0.22560200  0.22560200  0.25253483  1.0
  Ga  Ga658  1  0.22560200  0.55893533  0.25253483  1.0
  Ga  Ga659  1  0.22560200  0.89226867  0.25253483  1.0
  Ga  Ga660  1  0.55893533  0.22560200  0.25253483  1.0
  Ga  Ga661  1  0.55893533  0.55893533  0.25253483  1.0
  Ga  Ga662  1  0.55893533  0.89226867  0.25253483  1.0
  Ga  Ga663  1  0.89226867  0.22560200  0.25253483  1.0
  Ga  Ga664  1  0.89226867  0.55893533  0.25253483  1.0
  Ga  Ga665  1  0.89226867  0.89226867  0.25253483  1.0
  Ni  Ni666  1  0.11661633  0.00000000  0.30830817  1.0
  Ni  Ni667  1  0.11661633  0.33333333  0.30830817  1.0
  Ni  Ni668  1  0.11661633  0.66666667  0.30830817  1.0
  Ni  Ni669  1  0.44994967  0.00000000  0.30830817  1.0
  Ni  Ni670  1  0.44994967  0.33333333  0.30830817  1.0
  Ni  Ni671  1  0.44994967  0.66666667  0.30830817  1.0
  Ni  Ni672  1  0.78328300  0.00000000  0.30830817  1.0
  Ni  Ni673  1  0.78328300  0.33333333  0.30830817  1.0
  Ni  Ni674  1  0.78328300  0.66666667  0.30830817  1.0
  Ni  Ni675  1  0.11661633  0.11661633  0.30830817  1.0
  Ni  Ni676  1  0.11661633  0.44994967  0.30830817  1.0
  Ni  Ni677  1  0.11661633  0.78328300  0.30830817  1.0
  Ni  Ni678  1  0.44994967  0.11661633  0.30830817  1.0
  Ni  Ni679  1  0.44994967  0.44994967  0.30830817  1.0
  Ni  Ni680  1  0.44994967  0.78328300  0.30830817  1.0
  Ni  Ni681  1  0.78328300  0.11661633  0.30830817  1.0
  Ni  Ni682  1  0.78328300  0.44994967  0.30830817  1.0
  Ni  Ni683  1  0.78328300  0.78328300  0.30830817  1.0
  Ni  Ni684  1  0.21671700  0.21671700  0.27502517  1.0
  Ni  Ni685  1  0.21671700  0.55005033  0.27502517  1.0
  Ni  Ni686  1  0.21671700  0.88338367  0.27502517  1.0
  Ni  Ni687  1  0.55005033  0.21671700  0.27502517  1.0
  Ni  Ni688  1  0.55005033  0.55005033  0.27502517  1.0
  Ni  Ni689  1  0.55005033  0.88338367  0.27502517  1.0
  Ni  Ni690  1  0.88338367  0.21671700  0.27502517  1.0
  Ni  Ni691  1  0.88338367  0.55005033  0.27502517  1.0
  Ni  Ni692  1  0.88338367  0.88338367  0.27502517  1.0
  Ni  Ni693  1  0.00000000  0.21671700  0.27502517  1.0
  Ni  Ni694  1  0.00000000  0.55005033  0.27502517  1.0
  Ni  Ni695  1  0.00000000  0.88338367  0.27502517  1.0
  Ni  Ni696  1  0.33333333  0.21671700  0.27502517  1.0
  Ni  Ni697  1  0.33333333  0.55005033  0.27502517  1.0
  Ni  Ni698  1  0.33333333  0.88338367  0.27502517  1.0
  Ni  Ni699  1  0.66666667  0.21671700  0.27502517  1.0
  Ni  Ni700  1  0.66666667  0.55005033  0.27502517  1.0
  Ni  Ni701  1  0.66666667  0.88338367  0.27502517  1.0
  Ni  Ni702  1  0.00000000  0.11661633  0.30830817  1.0
  Ni  Ni703  1  0.00000000  0.44994967  0.30830817  1.0
  Ni  Ni704  1  0.00000000  0.78328300  0.30830817  1.0
  Ni  Ni705  1  0.33333333  0.11661633  0.30830817  1.0
  Ni  Ni706  1  0.33333333  0.44994967  0.30830817  1.0
  Ni  Ni707  1  0.33333333  0.78328300  0.30830817  1.0
  Ni  Ni708  1  0.66666667  0.11661633  0.30830817  1.0
  Ni  Ni709  1  0.66666667  0.44994967  0.30830817  1.0
  Ni  Ni710  1  0.66666667  0.78328300  0.30830817  1.0
  Ni  Ni711  1  0.21671700  0.00000000  0.27502517  1.0
  Ni  Ni712  1  0.21671700  0.33333333  0.27502517  1.0
  Ni  Ni713  1  0.21671700  0.66666667  0.27502517  1.0
  Ni  Ni714  1  0.55005033  0.00000000  0.27502517  1.0
  Ni  Ni715  1  0.55005033  0.33333333  0.27502517  1.0
  Ni  Ni716  1  0.55005033  0.66666667  0.27502517  1.0
  Ni  Ni717  1  0.88338367  0.00000000  0.27502517  1.0
  Ni  Ni718  1  0.88338367  0.33333333  0.27502517  1.0
  Ni  Ni719  1  0.88338367  0.66666667  0.27502517  1.0
  Ga  Ga720  1  0.08333333  0.16666667  0.37500000  1.0
  Ga  Ga721  1  0.08333333  0.50000000  0.37500000  1.0
  Ga  Ga722  1  0.08333333  0.83333333  0.37500000  1.0
  Ga  Ga723  1  0.41666667  0.16666667  0.37500000  1.0
  Ga  Ga724  1  0.41666667  0.50000000  0.37500000  1.0
  Ga  Ga725  1  0.41666667  0.83333333  0.37500000  1.0
  Ga  Ga726  1  0.75000000  0.16666667  0.37500000  1.0
  Ga  Ga727  1  0.75000000  0.50000000  0.37500000  1.0
  Ga  Ga728  1  0.75000000  0.83333333  0.37500000  1.0
  Ga  Ga729  1  0.08333333  0.25000000  0.37500000  1.0
  Ga  Ga730  1  0.08333333  0.58333333  0.37500000  1.0
  Ga  Ga731  1  0.08333333  0.91666667  0.37500000  1.0
  Ga  Ga732  1  0.41666667  0.25000000  0.37500000  1.0
  Ga  Ga733  1  0.41666667  0.58333333  0.37500000  1.0
  Ga  Ga734  1  0.41666667  0.91666667  0.37500000  1.0
  Ga  Ga735  1  0.75000000  0.25000000  0.37500000  1.0
  Ga  Ga736  1  0.75000000  0.58333333  0.37500000  1.0
  Ga  Ga737  1  0.75000000  0.91666667  0.37500000  1.0
  Ga  Ga738  1  0.25000000  0.08333333  0.37500000  1.0
  Ga  Ga739  1  0.25000000  0.41666667  0.37500000  1.0
  Ga  Ga740  1  0.25000000  0.75000000  0.37500000  1.0
  Ga  Ga741  1  0.58333333  0.08333333  0.37500000  1.0
  Ga  Ga742  1  0.58333333  0.41666667  0.37500000  1.0
  Ga  Ga743  1  0.58333333  0.75000000  0.37500000  1.0
  Ga  Ga744  1  0.91666667  0.08333333  0.37500000  1.0
  Ga  Ga745  1  0.91666667  0.41666667  0.37500000  1.0
  Ga  Ga746  1  0.91666667  0.75000000  0.37500000  1.0
  Ga  Ga747  1  0.16666667  0.25000000  0.37500000  1.0
  Ga  Ga748  1  0.16666667  0.58333333  0.37500000  1.0
  Ga  Ga749  1  0.16666667  0.91666667  0.37500000  1.0
  Ga  Ga750  1  0.50000000  0.25000000  0.37500000  1.0
  Ga  Ga751  1  0.50000000  0.58333333  0.37500000  1.0
  Ga  Ga752  1  0.50000000  0.91666667  0.37500000  1.0
  Ga  Ga753  1  0.83333333  0.25000000  0.37500000  1.0
  Ga  Ga754  1  0.83333333  0.58333333  0.37500000  1.0
  Ga  Ga755  1  0.83333333  0.91666667  0.37500000  1.0
  Ga  Ga756  1  0.16666667  0.08333333  0.37500000  1.0
  Ga  Ga757  1  0.16666667  0.41666667  0.37500000  1.0
  Ga  Ga758  1  0.16666667  0.75000000  0.37500000  1.0
  Ga  Ga759  1  0.50000000  0.08333333  0.37500000  1.0
  Ga  Ga760  1  0.50000000  0.41666667  0.37500000  1.0
  Ga  Ga761  1  0.50000000  0.75000000  0.37500000  1.0
  Ga  Ga762  1  0.83333333  0.08333333  0.37500000  1.0
  Ga  Ga763  1  0.83333333  0.41666667  0.37500000  1.0
  Ga  Ga764  1  0.83333333  0.75000000  0.37500000  1.0
  Ga  Ga765  1  0.25000000  0.16666667  0.37500000  1.0
  Ga  Ga766  1  0.25000000  0.50000000  0.37500000  1.0
  Ga  Ga767  1  0.25000000  0.83333333  0.37500000  1.0
  Ga  Ga768  1  0.58333333  0.16666667  0.37500000  1.0
  Ga  Ga769  1  0.58333333  0.50000000  0.37500000  1.0
  Ga  Ga770  1  0.58333333  0.83333333  0.37500000  1.0
  Ga  Ga771  1  0.91666667  0.16666667  0.37500000  1.0
  Ga  Ga772  1  0.91666667  0.50000000  0.37500000  1.0
  Ga  Ga773  1  0.91666667  0.83333333  0.37500000  1.0
  Ga  Ga774  1  0.10773133  0.10773133  0.41413183  1.0
  Ga  Ga775  1  0.10773133  0.44106467  0.41413183  1.0
  Ga  Ga776  1  0.10773133  0.77439800  0.41413183  1.0
  Ga  Ga777  1  0.44106467  0.10773133  0.41413183  1.0
  Ga  Ga778  1  0.44106467  0.44106467  0.41413183  1.0
  Ga  Ga779  1  0.44106467  0.77439800  0.41413183  1.0
  Ga  Ga780  1  0.77439800  0.10773133  0.41413183  1.0
  Ga  Ga781  1  0.77439800  0.44106467  0.41413183  1.0
  Ga  Ga782  1  0.77439800  0.77439800  0.41413183  1.0
  Ga  Ga783  1  0.00000000  0.10773133  0.36026617  1.0
  Ga  Ga784  1  0.00000000  0.44106467  0.36026617  1.0
  Ga  Ga785  1  0.00000000  0.77439800  0.36026617  1.0
  Ga  Ga786  1  0.33333333  0.10773133  0.36026617  1.0
  Ga  Ga787  1  0.33333333  0.44106467  0.36026617  1.0
  Ga  Ga788  1  0.33333333  0.77439800  0.36026617  1.0
  Ga  Ga789  1  0.66666667  0.10773133  0.36026617  1.0
  Ga  Ga790  1  0.66666667  0.44106467  0.36026617  1.0
  Ga  Ga791  1  0.66666667  0.77439800  0.36026617  1.0
  Ga  Ga792  1  0.00000000  0.00000000  0.36026617  1.0
  Ga  Ga793  1  0.00000000  0.33333333  0.36026617  1.0
  Ga  Ga794  1  0.00000000  0.66666667  0.36026617  1.0
  Ga  Ga795  1  0.33333333  0.00000000  0.36026617  1.0
  Ga  Ga796  1  0.33333333  0.33333333  0.36026617  1.0
  Ga  Ga797  1  0.33333333  0.66666667  0.36026617  1.0
  Ga  Ga798  1  0.66666667  0.00000000  0.36026617  1.0
  Ga  Ga799  1  0.66666667  0.33333333  0.36026617  1.0
  Ga  Ga800  1  0.66666667  0.66666667  0.36026617  1.0
  Ga  Ga801  1  0.10773133  0.00000000  0.36026617  1.0
  Ga  Ga802  1  0.10773133  0.33333333  0.36026617  1.0
  Ga  Ga803  1  0.10773133  0.66666667  0.36026617  1.0
  Ga  Ga804  1  0.44106467  0.00000000  0.36026617  1.0
  Ga  Ga805  1  0.44106467  0.33333333  0.36026617  1.0
  Ga  Ga806  1  0.44106467  0.66666667  0.36026617  1.0
  Ga  Ga807  1  0.77439800  0.00000000  0.36026617  1.0
  Ga  Ga808  1  0.77439800  0.33333333  0.36026617  1.0
  Ga  Ga809  1  0.77439800  0.66666667  0.36026617  1.0
  Ga  Ga810  1  0.00000000  0.00000000  0.38973383  1.0
  Ga  Ga811  1  0.00000000  0.33333333  0.38973383  1.0
  Ga  Ga812  1  0.00000000  0.66666667  0.38973383  1.0
  Ga  Ga813  1  0.33333333  0.00000000  0.38973383  1.0
  Ga  Ga814  1  0.33333333  0.33333333  0.38973383  1.0
  Ga  Ga815  1  0.33333333  0.66666667  0.38973383  1.0
  Ga  Ga816  1  0.66666667  0.00000000  0.38973383  1.0
  Ga  Ga817  1  0.66666667  0.33333333  0.38973383  1.0
  Ga  Ga818  1  0.66666667  0.66666667  0.38973383  1.0
  Ga  Ga819  1  0.22560200  0.00000000  0.38973383  1.0
  Ga  Ga820  1  0.22560200  0.33333333  0.38973383  1.0
  Ga  Ga821  1  0.22560200  0.66666667  0.38973383  1.0
  Ga  Ga822  1  0.55893533  0.00000000  0.38973383  1.0
  Ga  Ga823  1  0.55893533  0.33333333  0.38973383  1.0
  Ga  Ga824  1  0.55893533  0.66666667  0.38973383  1.0
  Ga  Ga825  1  0.89226867  0.00000000  0.38973383  1.0
  Ga  Ga826  1  0.89226867  0.33333333  0.38973383  1.0
  Ga  Ga827  1  0.89226867  0.66666667  0.38973383  1.0
  Ga  Ga828  1  0.00000000  0.22560200  0.38973383  1.0
  Ga  Ga829  1  0.00000000  0.55893533  0.38973383  1.0
  Ga  Ga830  1  0.00000000  0.89226867  0.38973383  1.0
  Ga  Ga831  1  0.33333333  0.22560200  0.38973383  1.0
  Ga  Ga832  1  0.33333333  0.55893533  0.38973383  1.0
  Ga  Ga833  1  0.33333333  0.89226867  0.38973383  1.0
  Ga  Ga834  1  0.66666667  0.22560200  0.38973383  1.0
  Ga  Ga835  1  0.66666667  0.55893533  0.38973383  1.0
  Ga  Ga836  1  0.66666667  0.89226867  0.38973383  1.0
  Ga  Ga837  1  0.22560200  0.22560200  0.33586817  1.0
  Ga  Ga838  1  0.22560200  0.55893533  0.33586817  1.0
  Ga  Ga839  1  0.22560200  0.89226867  0.33586817  1.0
  Ga  Ga840  1  0.55893533  0.22560200  0.33586817  1.0
  Ga  Ga841  1  0.55893533  0.55893533  0.33586817  1.0
  Ga  Ga842  1  0.55893533  0.89226867  0.33586817  1.0
  Ga  Ga843  1  0.89226867  0.22560200  0.33586817  1.0
  Ga  Ga844  1  0.89226867  0.55893533  0.33586817  1.0
  Ga  Ga845  1  0.89226867  0.89226867  0.33586817  1.0
  Ni  Ni846  1  0.11661633  0.00000000  0.39164150  1.0
  Ni  Ni847  1  0.11661633  0.33333333  0.39164150  1.0
  Ni  Ni848  1  0.11661633  0.66666667  0.39164150  1.0
  Ni  Ni849  1  0.44994967  0.00000000  0.39164150  1.0
  Ni  Ni850  1  0.44994967  0.33333333  0.39164150  1.0
  Ni  Ni851  1  0.44994967  0.66666667  0.39164150  1.0
  Ni  Ni852  1  0.78328300  0.00000000  0.39164150  1.0
  Ni  Ni853  1  0.78328300  0.33333333  0.39164150  1.0
  Ni  Ni854  1  0.78328300  0.66666667  0.39164150  1.0
  Ni  Ni855  1  0.11661633  0.11661633  0.39164150  1.0
  Ni  Ni856  1  0.11661633  0.44994967  0.39164150  1.0
  Ni  Ni857  1  0.11661633  0.78328300  0.39164150  1.0
  Ni  Ni858  1  0.44994967  0.11661633  0.39164150  1.0
  Ni  Ni859  1  0.44994967  0.44994967  0.39164150  1.0
  Ni  Ni860  1  0.44994967  0.78328300  0.39164150  1.0
  Ni  Ni861  1  0.78328300  0.11661633  0.39164150  1.0
  Ni  Ni862  1  0.78328300  0.44994967  0.39164150  1.0
  Ni  Ni863  1  0.78328300  0.78328300  0.39164150  1.0
  Ni  Ni864  1  0.21671700  0.21671700  0.35835850  1.0
  Ni  Ni865  1  0.21671700  0.55005033  0.35835850  1.0
  Ni  Ni866  1  0.21671700  0.88338367  0.35835850  1.0
  Ni  Ni867  1  0.55005033  0.21671700  0.35835850  1.0
  Ni  Ni868  1  0.55005033  0.55005033  0.35835850  1.0
  Ni  Ni869  1  0.55005033  0.88338367  0.35835850  1.0
  Ni  Ni870  1  0.88338367  0.21671700  0.35835850  1.0
  Ni  Ni871  1  0.88338367  0.55005033  0.35835850  1.0
  Ni  Ni872  1  0.88338367  0.88338367  0.35835850  1.0
  Ni  Ni873  1  0.00000000  0.21671700  0.35835850  1.0
  Ni  Ni874  1  0.00000000  0.55005033  0.35835850  1.0
  Ni  Ni875  1  0.00000000  0.88338367  0.35835850  1.0
  Ni  Ni876  1  0.33333333  0.21671700  0.35835850  1.0
  Ni  Ni877  1  0.33333333  0.55005033  0.35835850  1.0
  Ni  Ni878  1  0.33333333  0.88338367  0.35835850  1.0
  Ni  Ni879  1  0.66666667  0.21671700  0.35835850  1.0
  Ni  Ni880  1  0.66666667  0.55005033  0.35835850  1.0
  Ni  Ni881  1  0.66666667  0.88338367  0.35835850  1.0
  Ni  Ni882  1  0.00000000  0.11661633  0.39164150  1.0
  Ni  Ni883  1  0.00000000  0.44994967  0.39164150  1.0
  Ni  Ni884  1  0.00000000  0.78328300  0.39164150  1.0
  Ni  Ni885  1  0.33333333  0.11661633  0.39164150  1.0
  Ni  Ni886  1  0.33333333  0.44994967  0.39164150  1.0
  Ni  Ni887  1  0.33333333  0.78328300  0.39164150  1.0
  Ni  Ni888  1  0.66666667  0.11661633  0.39164150  1.0
  Ni  Ni889  1  0.66666667  0.44994967  0.39164150  1.0
  Ni  Ni890  1  0.66666667  0.78328300  0.39164150  1.0
  Ni  Ni891  1  0.21671700  0.00000000  0.35835850  1.0
  Ni  Ni892  1  0.21671700  0.33333333  0.35835850  1.0
  Ni  Ni893  1  0.21671700  0.66666667  0.35835850  1.0
  Ni  Ni894  1  0.55005033  0.00000000  0.35835850  1.0
  Ni  Ni895  1  0.55005033  0.33333333  0.35835850  1.0
  Ni  Ni896  1  0.55005033  0.66666667  0.35835850  1.0
  Ni  Ni897  1  0.88338367  0.00000000  0.35835850  1.0
  Ni  Ni898  1  0.88338367  0.33333333  0.35835850  1.0
  Ni  Ni899  1  0.88338367  0.66666667  0.35835850  1.0
