# generated using pymatgen
data_Ga7Ni3
_symmetry_space_group_name_H-M   'P 1'
_cell_length_a   35.91251090
_cell_length_b   42.11115177
_cell_length_c   29.32244237
_cell_angle_alpha   100.02498786
_cell_angle_beta   90.00000000
_cell_angle_gamma   90.00000000
_symmetry_Int_Tables_number   1
_chemical_formula_structural   Ga7Ni3
_chemical_formula_sum   'Ga756 Ni324'
_cell_volume   43667.77371987
_cell_formula_units_Z   108
loop_
 _symmetry_equiv_pos_site_id
 _symmetry_equiv_pos_as_xyz
  1  'x, y, z'
loop_
 _atom_site_type_symbol
 _atom_site_label
 _atom_site_symmetry_multiplicity
 _atom_site_fract_x
 _atom_site_fract_y
 _atom_site_fract_z
 _atom_site_occupancy
  Ga  Ga0  1  0.04166667  0.21871854  0.00778891  1.0
  Ga  Ga1  1  0.04166667  0.55205187  0.00778891  1.0
  Ga  Ga2  1  0.04166667  0.88538521  0.00778891  1.0
  Ga  Ga3  1  0.37500000  0.21871854  0.00778891  1.0
  Ga  Ga4  1  0.37500000  0.55205187  0.00778891  1.0
  Ga  Ga5  1  0.37500000  0.88538521  0.00778891  1.0
  Ga  Ga6  1  0.70833333  0.21871854  0.00778891  1.0
  Ga  Ga7  1  0.70833333  0.55205187  0.00778891  1.0
  Ga  Ga8  1  0.70833333  0.88538521  0.00778891  1.0
  Ga  Ga9  1  0.20833333  0.13538521  0.07028891  1.0
  Ga  Ga10  1  0.20833333  0.46871854  0.07028891  1.0
  Ga  Ga11  1  0.20833333  0.80205187  0.07028891  1.0
  Ga  Ga12  1  0.54166667  0.13538521  0.07028891  1.0
  Ga  Ga13  1  0.54166667  0.46871854  0.07028891  1.0
  Ga  Ga14  1  0.54166667  0.80205187  0.07028891  1.0
  Ga  Ga15  1  0.87500000  0.13538521  0.07028891  1.0
  Ga  Ga16  1  0.87500000  0.46871854  0.07028891  1.0
  Ga  Ga17  1  0.87500000  0.80205187  0.07028891  1.0
  Ga  Ga18  1  0.08333333  0.32288521  0.11716391  1.0
  Ga  Ga19  1  0.08333333  0.65621854  0.11716391  1.0
  Ga  Ga20  1  0.08333333  0.98955187  0.11716391  1.0
  Ga  Ga21  1  0.41666667  0.32288521  0.11716391  1.0
  Ga  Ga22  1  0.41666667  0.65621854  0.11716391  1.0
  Ga  Ga23  1  0.41666667  0.98955187  0.11716391  1.0
  Ga  Ga24  1  0.75000000  0.32288521  0.11716391  1.0
  Ga  Ga25  1  0.75000000  0.65621854  0.11716391  1.0
  Ga  Ga26  1  0.75000000  0.98955187  0.11716391  1.0
  Ga  Ga27  1  0.25000000  0.07288521  0.05466391  1.0
  Ga  Ga28  1  0.25000000  0.40621854  0.05466391  1.0
  Ga  Ga29  1  0.25000000  0.73955187  0.05466391  1.0
  Ga  Ga30  1  0.58333333  0.07288521  0.05466391  1.0
  Ga  Ga31  1  0.58333333  0.40621854  0.05466391  1.0
  Ga  Ga32  1  0.58333333  0.73955187  0.05466391  1.0
  Ga  Ga33  1  0.91666667  0.07288521  0.05466391  1.0
  Ga  Ga34  1  0.91666667  0.40621854  0.05466391  1.0
  Ga  Ga35  1  0.91666667  0.73955187  0.05466391  1.0
  Ga  Ga36  1  0.25000000  0.32288521  0.11716391  1.0
  Ga  Ga37  1  0.25000000  0.65621854  0.11716391  1.0
  Ga  Ga38  1  0.25000000  0.98955187  0.11716391  1.0
  Ga  Ga39  1  0.58333333  0.32288521  0.11716391  1.0
  Ga  Ga40  1  0.58333333  0.65621854  0.11716391  1.0
  Ga  Ga41  1  0.58333333  0.98955187  0.11716391  1.0
  Ga  Ga42  1  0.91666667  0.32288521  0.11716391  1.0
  Ga  Ga43  1  0.91666667  0.65621854  0.11716391  1.0
  Ga  Ga44  1  0.91666667  0.98955187  0.11716391  1.0
  Ga  Ga45  1  0.08333333  0.07288521  0.05466391  1.0
  Ga  Ga46  1  0.08333333  0.40621854  0.05466391  1.0
  Ga  Ga47  1  0.08333333  0.73955187  0.05466391  1.0
  Ga  Ga48  1  0.41666667  0.07288521  0.05466391  1.0
  Ga  Ga49  1  0.41666667  0.40621854  0.05466391  1.0
  Ga  Ga50  1  0.41666667  0.73955187  0.05466391  1.0
  Ga  Ga51  1  0.75000000  0.07288521  0.05466391  1.0
  Ga  Ga52  1  0.75000000  0.40621854  0.05466391  1.0
  Ga  Ga53  1  0.75000000  0.73955187  0.05466391  1.0
  Ga  Ga54  1  0.04166667  0.26038521  0.10153891  1.0
  Ga  Ga55  1  0.04166667  0.59371854  0.10153891  1.0
  Ga  Ga56  1  0.04166667  0.92705187  0.10153891  1.0
  Ga  Ga57  1  0.37500000  0.26038521  0.10153891  1.0
  Ga  Ga58  1  0.37500000  0.59371854  0.10153891  1.0
  Ga  Ga59  1  0.37500000  0.92705187  0.10153891  1.0
  Ga  Ga60  1  0.70833333  0.26038521  0.10153891  1.0
  Ga  Ga61  1  0.70833333  0.59371854  0.10153891  1.0
  Ga  Ga62  1  0.70833333  0.92705187  0.10153891  1.0
  Ga  Ga63  1  0.20833333  0.01038521  0.03903891  1.0
  Ga  Ga64  1  0.20833333  0.34371854  0.03903891  1.0
  Ga  Ga65  1  0.20833333  0.67705187  0.03903891  1.0
  Ga  Ga66  1  0.54166667  0.01038521  0.03903891  1.0
  Ga  Ga67  1  0.54166667  0.34371854  0.03903891  1.0
  Ga  Ga68  1  0.54166667  0.67705187  0.03903891  1.0
  Ga  Ga69  1  0.87500000  0.01038521  0.03903891  1.0
  Ga  Ga70  1  0.87500000  0.34371854  0.03903891  1.0
  Ga  Ga71  1  0.87500000  0.67705187  0.03903891  1.0
  Ga  Ga72  1  0.29166667  0.21871854  0.00778891  1.0
  Ga  Ga73  1  0.29166667  0.55205187  0.00778891  1.0
  Ga  Ga74  1  0.29166667  0.88538521  0.00778891  1.0
  Ga  Ga75  1  0.62500000  0.21871854  0.00778891  1.0
  Ga  Ga76  1  0.62500000  0.55205187  0.00778891  1.0
  Ga  Ga77  1  0.62500000  0.88538521  0.00778891  1.0
  Ga  Ga78  1  0.95833333  0.21871854  0.00778891  1.0
  Ga  Ga79  1  0.95833333  0.55205187  0.00778891  1.0
  Ga  Ga80  1  0.95833333  0.88538521  0.00778891  1.0
  Ga  Ga81  1  0.12500000  0.13538521  0.07028891  1.0
  Ga  Ga82  1  0.12500000  0.46871854  0.07028891  1.0
  Ga  Ga83  1  0.12500000  0.80205187  0.07028891  1.0
  Ga  Ga84  1  0.45833333  0.13538521  0.07028891  1.0
  Ga  Ga85  1  0.45833333  0.46871854  0.07028891  1.0
  Ga  Ga86  1  0.45833333  0.80205187  0.07028891  1.0
  Ga  Ga87  1  0.79166667  0.13538521  0.07028891  1.0
  Ga  Ga88  1  0.79166667  0.46871854  0.07028891  1.0
  Ga  Ga89  1  0.79166667  0.80205187  0.07028891  1.0
  Ga  Ga90  1  0.29166667  0.26038521  0.10153891  1.0
  Ga  Ga91  1  0.29166667  0.59371854  0.10153891  1.0
  Ga  Ga92  1  0.29166667  0.92705187  0.10153891  1.0
  Ga  Ga93  1  0.62500000  0.26038521  0.10153891  1.0
  Ga  Ga94  1  0.62500000  0.59371854  0.10153891  1.0
  Ga  Ga95  1  0.62500000  0.92705187  0.10153891  1.0
  Ga  Ga96  1  0.95833333  0.26038521  0.10153891  1.0
  Ga  Ga97  1  0.95833333  0.59371854  0.10153891  1.0
  Ga  Ga98  1  0.95833333  0.92705187  0.10153891  1.0
  Ga  Ga99  1  0.12500000  0.01038521  0.03903891  1.0
  Ga  Ga100  1  0.12500000  0.34371854  0.03903891  1.0
  Ga  Ga101  1  0.12500000  0.67705187  0.03903891  1.0
  Ga  Ga102  1  0.45833333  0.01038521  0.03903891  1.0
  Ga  Ga103  1  0.45833333  0.34371854  0.03903891  1.0
  Ga  Ga104  1  0.45833333  0.67705187  0.03903891  1.0
  Ga  Ga105  1  0.79166667  0.01038521  0.03903891  1.0
  Ga  Ga106  1  0.79166667  0.34371854  0.03903891  1.0
  Ga  Ga107  1  0.79166667  0.67705187  0.03903891  1.0
  Ga  Ga108  1  0.33333333  0.32288521  0.07296241  1.0
  Ga  Ga109  1  0.33333333  0.65621854  0.07296241  1.0
  Ga  Ga110  1  0.33333333  0.98955187  0.07296241  1.0
  Ga  Ga111  1  0.66666667  0.32288521  0.07296241  1.0
  Ga  Ga112  1  0.66666667  0.65621854  0.07296241  1.0
  Ga  Ga113  1  0.66666667  0.98955187  0.07296241  1.0
  Ga  Ga114  1  0.00000000  0.32288521  0.07296241  1.0
  Ga  Ga115  1  0.00000000  0.65621854  0.07296241  1.0
  Ga  Ga116  1  0.00000000  0.98955187  0.07296241  1.0
  Ga  Ga117  1  0.16666667  0.07288521  0.01046241  1.0
  Ga  Ga118  1  0.16666667  0.40621854  0.01046241  1.0
  Ga  Ga119  1  0.16666667  0.73955187  0.01046241  1.0
  Ga  Ga120  1  0.50000000  0.07288521  0.01046241  1.0
  Ga  Ga121  1  0.50000000  0.40621854  0.01046241  1.0
  Ga  Ga122  1  0.50000000  0.73955187  0.01046241  1.0
  Ga  Ga123  1  0.83333333  0.07288521  0.01046241  1.0
  Ga  Ga124  1  0.83333333  0.40621854  0.01046241  1.0
  Ga  Ga125  1  0.83333333  0.73955187  0.01046241  1.0
  Ga  Ga126  1  0.05386567  0.29595237  0.01236353  1.0
  Ga  Ga127  1  0.05386567  0.62928571  0.01236353  1.0
  Ga  Ga128  1  0.05386567  0.96261904  0.01236353  1.0
  Ga  Ga129  1  0.38719900  0.29595237  0.01236353  1.0
  Ga  Ga130  1  0.38719900  0.62928571  0.01236353  1.0
  Ga  Ga131  1  0.38719900  0.96261904  0.01236353  1.0
  Ga  Ga132  1  0.72053233  0.29595237  0.01236353  1.0
  Ga  Ga133  1  0.72053233  0.62928571  0.01236353  1.0
  Ga  Ga134  1  0.72053233  0.96261904  0.01236353  1.0
  Ga  Ga135  1  0.22053233  0.21261904  0.07486353  1.0
  Ga  Ga136  1  0.22053233  0.54595237  0.07486353  1.0
  Ga  Ga137  1  0.22053233  0.87928571  0.07486353  1.0
  Ga  Ga138  1  0.55386567  0.21261904  0.07486353  1.0
  Ga  Ga139  1  0.55386567  0.54595237  0.07486353  1.0
  Ga  Ga140  1  0.55386567  0.87928571  0.07486353  1.0
  Ga  Ga141  1  0.88719900  0.21261904  0.07486353  1.0
  Ga  Ga142  1  0.88719900  0.54595237  0.07486353  1.0
  Ga  Ga143  1  0.88719900  0.87928571  0.07486353  1.0
  Ga  Ga144  1  0.00000000  0.04341754  0.03256316  1.0
  Ga  Ga145  1  0.00000000  0.37675087  0.03256316  1.0
  Ga  Ga146  1  0.00000000  0.71008421  0.03256316  1.0
  Ga  Ga147  1  0.33333333  0.04341754  0.03256316  1.0
  Ga  Ga148  1  0.33333333  0.37675087  0.03256316  1.0
  Ga  Ga149  1  0.33333333  0.71008421  0.03256316  1.0
  Ga  Ga150  1  0.66666667  0.04341754  0.03256316  1.0
  Ga  Ga151  1  0.66666667  0.37675087  0.03256316  1.0
  Ga  Ga152  1  0.66666667  0.71008421  0.03256316  1.0
  Ga  Ga153  1  0.16666667  0.29341754  0.09506316  1.0
  Ga  Ga154  1  0.16666667  0.62675087  0.09506316  1.0
  Ga  Ga155  1  0.16666667  0.96008421  0.09506316  1.0
  Ga  Ga156  1  0.50000000  0.29341754  0.09506316  1.0
  Ga  Ga157  1  0.50000000  0.62675087  0.09506316  1.0
  Ga  Ga158  1  0.50000000  0.96008421  0.09506316  1.0
  Ga  Ga159  1  0.83333333  0.29341754  0.09506316  1.0
  Ga  Ga160  1  0.83333333  0.62675087  0.09506316  1.0
  Ga  Ga161  1  0.83333333  0.96008421  0.09506316  1.0
  Ga  Ga162  1  0.27946767  0.29595237  0.01236353  1.0
  Ga  Ga163  1  0.27946767  0.62928571  0.01236353  1.0
  Ga  Ga164  1  0.27946767  0.96261904  0.01236353  1.0
  Ga  Ga165  1  0.61280100  0.29595237  0.01236353  1.0
  Ga  Ga166  1  0.61280100  0.62928571  0.01236353  1.0
  Ga  Ga167  1  0.61280100  0.96261904  0.01236353  1.0
  Ga  Ga168  1  0.94613433  0.29595237  0.01236353  1.0
  Ga  Ga169  1  0.94613433  0.62928571  0.01236353  1.0
  Ga  Ga170  1  0.94613433  0.96261904  0.01236353  1.0
  Ga  Ga171  1  0.11280100  0.21261904  0.07486353  1.0
  Ga  Ga172  1  0.11280100  0.54595237  0.07486353  1.0
  Ga  Ga173  1  0.11280100  0.87928571  0.07486353  1.0
  Ga  Ga174  1  0.44613433  0.21261904  0.07486353  1.0
  Ga  Ga175  1  0.44613433  0.54595237  0.07486353  1.0
  Ga  Ga176  1  0.44613433  0.87928571  0.07486353  1.0
  Ga  Ga177  1  0.77946767  0.21261904  0.07486353  1.0
  Ga  Ga178  1  0.77946767  0.54595237  0.07486353  1.0
  Ga  Ga179  1  0.77946767  0.87928571  0.07486353  1.0
  Ga  Ga180  1  0.00000000  0.10235287  0.07676466  1.0
  Ga  Ga181  1  0.00000000  0.43568621  0.07676466  1.0
  Ga  Ga182  1  0.00000000  0.76901954  0.07676466  1.0
  Ga  Ga183  1  0.33333333  0.10235287  0.07676466  1.0
  Ga  Ga184  1  0.33333333  0.43568621  0.07676466  1.0
  Ga  Ga185  1  0.33333333  0.76901954  0.07676466  1.0
  Ga  Ga186  1  0.66666667  0.10235287  0.07676466  1.0
  Ga  Ga187  1  0.66666667  0.43568621  0.07676466  1.0
  Ga  Ga188  1  0.66666667  0.76901954  0.07676466  1.0
  Ga  Ga189  1  0.16666667  0.18568621  0.01426466  1.0
  Ga  Ga190  1  0.16666667  0.51901954  0.01426466  1.0
  Ga  Ga191  1  0.16666667  0.85235288  0.01426466  1.0
  Ga  Ga192  1  0.50000000  0.18568621  0.01426466  1.0
  Ga  Ga193  1  0.50000000  0.51901954  0.01426466  1.0
  Ga  Ga194  1  0.50000000  0.85235288  0.01426466  1.0
  Ga  Ga195  1  0.83333333  0.18568621  0.01426466  1.0
  Ga  Ga196  1  0.83333333  0.51901954  0.01426466  1.0
  Ga  Ga197  1  0.83333333  0.85235288  0.01426466  1.0
  Ga  Ga198  1  0.22053233  0.26648471  0.03446428  1.0
  Ga  Ga199  1  0.22053233  0.59981804  0.03446428  1.0
  Ga  Ga200  1  0.22053233  0.93315137  0.03446428  1.0
  Ga  Ga201  1  0.55386567  0.26648471  0.03446428  1.0
  Ga  Ga202  1  0.55386567  0.59981804  0.03446428  1.0
  Ga  Ga203  1  0.55386567  0.93315137  0.03446428  1.0
  Ga  Ga204  1  0.88719900  0.26648471  0.03446428  1.0
  Ga  Ga205  1  0.88719900  0.59981804  0.03446428  1.0
  Ga  Ga206  1  0.88719900  0.93315137  0.03446428  1.0
  Ga  Ga207  1  0.05386567  0.18315137  0.09696428  1.0
  Ga  Ga208  1  0.05386567  0.51648471  0.09696428  1.0
  Ga  Ga209  1  0.05386567  0.84981804  0.09696428  1.0
  Ga  Ga210  1  0.38719900  0.18315137  0.09696428  1.0
  Ga  Ga211  1  0.38719900  0.51648471  0.09696428  1.0
  Ga  Ga212  1  0.38719900  0.84981804  0.09696428  1.0
  Ga  Ga213  1  0.72053233  0.18315137  0.09696428  1.0
  Ga  Ga214  1  0.72053233  0.51648471  0.09696428  1.0
  Ga  Ga215  1  0.72053233  0.84981804  0.09696428  1.0
  Ga  Ga216  1  0.11280100  0.26648471  0.03446428  1.0
  Ga  Ga217  1  0.11280100  0.59981804  0.03446428  1.0
  Ga  Ga218  1  0.11280100  0.93315137  0.03446428  1.0
  Ga  Ga219  1  0.44613433  0.26648471  0.03446428  1.0
  Ga  Ga220  1  0.44613433  0.59981804  0.03446428  1.0
  Ga  Ga221  1  0.44613433  0.93315137  0.03446428  1.0
  Ga  Ga222  1  0.77946767  0.26648471  0.03446428  1.0
  Ga  Ga223  1  0.77946767  0.59981804  0.03446428  1.0
  Ga  Ga224  1  0.77946767  0.93315137  0.03446428  1.0
  Ga  Ga225  1  0.27946767  0.18315137  0.09696428  1.0
  Ga  Ga226  1  0.27946767  0.51648471  0.09696428  1.0
  Ga  Ga227  1  0.27946767  0.84981804  0.09696428  1.0
  Ga  Ga228  1  0.61280100  0.18315137  0.09696428  1.0
  Ga  Ga229  1  0.61280100  0.51648471  0.09696428  1.0
  Ga  Ga230  1  0.61280100  0.84981804  0.09696428  1.0
  Ga  Ga231  1  0.94613433  0.18315137  0.09696428  1.0
  Ga  Ga232  1  0.94613433  0.51648471  0.09696428  1.0
  Ga  Ga233  1  0.94613433  0.84981804  0.09696428  1.0
  Ga  Ga234  1  0.33333333  0.15621854  0.03636541  1.0
  Ga  Ga235  1  0.33333333  0.48955187  0.03636541  1.0
  Ga  Ga236  1  0.33333333  0.82288521  0.03636541  1.0
  Ga  Ga237  1  0.66666667  0.15621854  0.03636541  1.0
  Ga  Ga238  1  0.66666667  0.48955187  0.03636541  1.0
  Ga  Ga239  1  0.66666667  0.82288521  0.03636541  1.0
  Ga  Ga240  1  0.00000000  0.15621854  0.03636541  1.0
  Ga  Ga241  1  0.00000000  0.48955187  0.03636541  1.0
  Ga  Ga242  1  0.00000000  0.82288521  0.03636541  1.0
  Ga  Ga243  1  0.16666667  0.07288521  0.09886541  1.0
  Ga  Ga244  1  0.16666667  0.40621854  0.09886541  1.0
  Ga  Ga245  1  0.16666667  0.73955187  0.09886541  1.0
  Ga  Ga246  1  0.50000000  0.07288521  0.09886541  1.0
  Ga  Ga247  1  0.50000000  0.40621854  0.09886541  1.0
  Ga  Ga248  1  0.50000000  0.73955187  0.09886541  1.0
  Ga  Ga249  1  0.83333333  0.07288521  0.09886541  1.0
  Ga  Ga250  1  0.83333333  0.40621854  0.09886541  1.0
  Ga  Ga251  1  0.83333333  0.73955187  0.09886541  1.0
  Ga  Ga252  1  0.04166667  0.05205187  0.13278891  1.0
  Ga  Ga253  1  0.04166667  0.38538521  0.13278891  1.0
  Ga  Ga254  1  0.04166667  0.71871854  0.13278891  1.0
  Ga  Ga255  1  0.37500000  0.05205187  0.13278891  1.0
  Ga  Ga256  1  0.37500000  0.38538521  0.13278891  1.0
  Ga  Ga257  1  0.37500000  0.71871854  0.13278891  1.0
  Ga  Ga258  1  0.70833333  0.05205187  0.13278891  1.0
  Ga  Ga259  1  0.70833333  0.38538521  0.13278891  1.0
  Ga  Ga260  1  0.70833333  0.71871854  0.13278891  1.0
  Ga  Ga261  1  0.20833333  0.30205187  0.19528891  1.0
  Ga  Ga262  1  0.20833333  0.63538521  0.19528891  1.0
  Ga  Ga263  1  0.20833333  0.96871854  0.19528891  1.0
  Ga  Ga264  1  0.54166667  0.30205187  0.19528891  1.0
  Ga  Ga265  1  0.54166667  0.63538521  0.19528891  1.0
  Ga  Ga266  1  0.54166667  0.96871854  0.19528891  1.0
  Ga  Ga267  1  0.87500000  0.30205187  0.19528891  1.0
  Ga  Ga268  1  0.87500000  0.63538521  0.19528891  1.0
  Ga  Ga269  1  0.87500000  0.96871854  0.19528891  1.0
  Ga  Ga270  1  0.08333333  0.15621854  0.24216391  1.0
  Ga  Ga271  1  0.08333333  0.48955187  0.24216391  1.0
  Ga  Ga272  1  0.08333333  0.82288521  0.24216391  1.0
  Ga  Ga273  1  0.41666667  0.15621854  0.24216391  1.0
  Ga  Ga274  1  0.41666667  0.48955187  0.24216391  1.0
  Ga  Ga275  1  0.41666667  0.82288521  0.24216391  1.0
  Ga  Ga276  1  0.75000000  0.15621854  0.24216391  1.0
  Ga  Ga277  1  0.75000000  0.48955187  0.24216391  1.0
  Ga  Ga278  1  0.75000000  0.82288521  0.24216391  1.0
  Ga  Ga279  1  0.25000000  0.23955187  0.17966391  1.0
  Ga  Ga280  1  0.25000000  0.57288521  0.17966391  1.0
  Ga  Ga281  1  0.25000000  0.90621854  0.17966391  1.0
  Ga  Ga282  1  0.58333333  0.23955187  0.17966391  1.0
  Ga  Ga283  1  0.58333333  0.57288521  0.17966391  1.0
  Ga  Ga284  1  0.58333333  0.90621854  0.17966391  1.0
  Ga  Ga285  1  0.91666667  0.23955187  0.17966391  1.0
  Ga  Ga286  1  0.91666667  0.57288521  0.17966391  1.0
  Ga  Ga287  1  0.91666667  0.90621854  0.17966391  1.0
  Ga  Ga288  1  0.25000000  0.15621854  0.24216391  1.0
  Ga  Ga289  1  0.25000000  0.48955187  0.24216391  1.0
  Ga  Ga290  1  0.25000000  0.82288521  0.24216391  1.0
  Ga  Ga291  1  0.58333333  0.15621854  0.24216391  1.0
  Ga  Ga292  1  0.58333333  0.48955187  0.24216391  1.0
  Ga  Ga293  1  0.58333333  0.82288521  0.24216391  1.0
  Ga  Ga294  1  0.91666667  0.15621854  0.24216391  1.0
  Ga  Ga295  1  0.91666667  0.48955187  0.24216391  1.0
  Ga  Ga296  1  0.91666667  0.82288521  0.24216391  1.0
  Ga  Ga297  1  0.08333333  0.23955187  0.17966391  1.0
  Ga  Ga298  1  0.08333333  0.57288521  0.17966391  1.0
  Ga  Ga299  1  0.08333333  0.90621854  0.17966391  1.0
  Ga  Ga300  1  0.41666667  0.23955187  0.17966391  1.0
  Ga  Ga301  1  0.41666667  0.57288521  0.17966391  1.0
  Ga  Ga302  1  0.41666667  0.90621854  0.17966391  1.0
  Ga  Ga303  1  0.75000000  0.23955187  0.17966391  1.0
  Ga  Ga304  1  0.75000000  0.57288521  0.17966391  1.0
  Ga  Ga305  1  0.75000000  0.90621854  0.17966391  1.0
  Ga  Ga306  1  0.04166667  0.09371854  0.22653891  1.0
  Ga  Ga307  1  0.04166667  0.42705187  0.22653891  1.0
  Ga  Ga308  1  0.04166667  0.76038521  0.22653891  1.0
  Ga  Ga309  1  0.37500000  0.09371854  0.22653891  1.0
  Ga  Ga310  1  0.37500000  0.42705187  0.22653891  1.0
  Ga  Ga311  1  0.37500000  0.76038521  0.22653891  1.0
  Ga  Ga312  1  0.70833333  0.09371854  0.22653891  1.0
  Ga  Ga313  1  0.70833333  0.42705187  0.22653891  1.0
  Ga  Ga314  1  0.70833333  0.76038521  0.22653891  1.0
  Ga  Ga315  1  0.20833333  0.17705187  0.16403891  1.0
  Ga  Ga316  1  0.20833333  0.51038521  0.16403891  1.0
  Ga  Ga317  1  0.20833333  0.84371854  0.16403891  1.0
  Ga  Ga318  1  0.54166667  0.17705187  0.16403891  1.0
  Ga  Ga319  1  0.54166667  0.51038521  0.16403891  1.0
  Ga  Ga320  1  0.54166667  0.84371854  0.16403891  1.0
  Ga  Ga321  1  0.87500000  0.17705187  0.16403891  1.0
  Ga  Ga322  1  0.87500000  0.51038521  0.16403891  1.0
  Ga  Ga323  1  0.87500000  0.84371854  0.16403891  1.0
  Ga  Ga324  1  0.29166667  0.05205187  0.13278891  1.0
  Ga  Ga325  1  0.29166667  0.38538521  0.13278891  1.0
  Ga  Ga326  1  0.29166667  0.71871854  0.13278891  1.0
  Ga  Ga327  1  0.62500000  0.05205187  0.13278891  1.0
  Ga  Ga328  1  0.62500000  0.38538521  0.13278891  1.0
  Ga  Ga329  1  0.62500000  0.71871854  0.13278891  1.0
  Ga  Ga330  1  0.95833333  0.05205187  0.13278891  1.0
  Ga  Ga331  1  0.95833333  0.38538521  0.13278891  1.0
  Ga  Ga332  1  0.95833333  0.71871854  0.13278891  1.0
  Ga  Ga333  1  0.12500000  0.30205187  0.19528891  1.0
  Ga  Ga334  1  0.12500000  0.63538521  0.19528891  1.0
  Ga  Ga335  1  0.12500000  0.96871854  0.19528891  1.0
  Ga  Ga336  1  0.45833333  0.30205187  0.19528891  1.0
  Ga  Ga337  1  0.45833333  0.63538521  0.19528891  1.0
  Ga  Ga338  1  0.45833333  0.96871854  0.19528891  1.0
  Ga  Ga339  1  0.79166667  0.30205187  0.19528891  1.0
  Ga  Ga340  1  0.79166667  0.63538521  0.19528891  1.0
  Ga  Ga341  1  0.79166667  0.96871854  0.19528891  1.0
  Ga  Ga342  1  0.29166667  0.09371854  0.22653891  1.0
  Ga  Ga343  1  0.29166667  0.42705187  0.22653891  1.0
  Ga  Ga344  1  0.29166667  0.76038521  0.22653891  1.0
  Ga  Ga345  1  0.62500000  0.09371854  0.22653891  1.0
  Ga  Ga346  1  0.62500000  0.42705187  0.22653891  1.0
  Ga  Ga347  1  0.62500000  0.76038521  0.22653891  1.0
  Ga  Ga348  1  0.95833333  0.09371854  0.22653891  1.0
  Ga  Ga349  1  0.95833333  0.42705187  0.22653891  1.0
  Ga  Ga350  1  0.95833333  0.76038521  0.22653891  1.0
  Ga  Ga351  1  0.12500000  0.17705187  0.16403891  1.0
  Ga  Ga352  1  0.12500000  0.51038521  0.16403891  1.0
  Ga  Ga353  1  0.12500000  0.84371854  0.16403891  1.0
  Ga  Ga354  1  0.45833333  0.17705187  0.16403891  1.0
  Ga  Ga355  1  0.45833333  0.51038521  0.16403891  1.0
  Ga  Ga356  1  0.45833333  0.84371854  0.16403891  1.0
  Ga  Ga357  1  0.79166667  0.17705187  0.16403891  1.0
  Ga  Ga358  1  0.79166667  0.51038521  0.16403891  1.0
  Ga  Ga359  1  0.79166667  0.84371854  0.16403891  1.0
  Ga  Ga360  1  0.33333333  0.15621854  0.19796241  1.0
  Ga  Ga361  1  0.33333333  0.48955187  0.19796241  1.0
  Ga  Ga362  1  0.33333333  0.82288521  0.19796241  1.0
  Ga  Ga363  1  0.66666667  0.15621854  0.19796241  1.0
  Ga  Ga364  1  0.66666667  0.48955187  0.19796241  1.0
  Ga  Ga365  1  0.66666667  0.82288521  0.19796241  1.0
  Ga  Ga366  1  0.00000000  0.15621854  0.19796241  1.0
  Ga  Ga367  1  0.00000000  0.48955187  0.19796241  1.0
  Ga  Ga368  1  0.00000000  0.82288521  0.19796241  1.0
  Ga  Ga369  1  0.16666667  0.23955187  0.13546241  1.0
  Ga  Ga370  1  0.16666667  0.57288521  0.13546241  1.0
  Ga  Ga371  1  0.16666667  0.90621854  0.13546241  1.0
  Ga  Ga372  1  0.50000000  0.23955187  0.13546241  1.0
  Ga  Ga373  1  0.50000000  0.57288521  0.13546241  1.0
  Ga  Ga374  1  0.50000000  0.90621854  0.13546241  1.0
  Ga  Ga375  1  0.83333333  0.23955187  0.13546241  1.0
  Ga  Ga376  1  0.83333333  0.57288521  0.13546241  1.0
  Ga  Ga377  1  0.83333333  0.90621854  0.13546241  1.0
  Ga  Ga378  1  0.05386567  0.12928571  0.13736353  1.0
  Ga  Ga379  1  0.05386567  0.46261904  0.13736353  1.0
  Ga  Ga380  1  0.05386567  0.79595237  0.13736353  1.0
  Ga  Ga381  1  0.38719900  0.12928571  0.13736353  1.0
  Ga  Ga382  1  0.38719900  0.46261904  0.13736353  1.0
  Ga  Ga383  1  0.38719900  0.79595237  0.13736353  1.0
  Ga  Ga384  1  0.72053233  0.12928571  0.13736353  1.0
  Ga  Ga385  1  0.72053233  0.46261904  0.13736353  1.0
  Ga  Ga386  1  0.72053233  0.79595237  0.13736353  1.0
  Ga  Ga387  1  0.22053233  0.04595237  0.19986353  1.0
  Ga  Ga388  1  0.22053233  0.37928571  0.19986353  1.0
  Ga  Ga389  1  0.22053233  0.71261904  0.19986353  1.0
  Ga  Ga390  1  0.55386567  0.04595237  0.19986353  1.0
  Ga  Ga391  1  0.55386567  0.37928571  0.19986353  1.0
  Ga  Ga392  1  0.55386567  0.71261904  0.19986353  1.0
  Ga  Ga393  1  0.88719900  0.04595237  0.19986353  1.0
  Ga  Ga394  1  0.88719900  0.37928571  0.19986353  1.0
  Ga  Ga395  1  0.88719900  0.71261904  0.19986353  1.0
  Ga  Ga396  1  0.00000000  0.21008421  0.15756316  1.0
  Ga  Ga397  1  0.00000000  0.54341754  0.15756316  1.0
  Ga  Ga398  1  0.00000000  0.87675087  0.15756316  1.0
  Ga  Ga399  1  0.33333333  0.21008421  0.15756316  1.0
  Ga  Ga400  1  0.33333333  0.54341754  0.15756316  1.0
  Ga  Ga401  1  0.33333333  0.87675087  0.15756316  1.0
  Ga  Ga402  1  0.66666667  0.21008421  0.15756316  1.0
  Ga  Ga403  1  0.66666667  0.54341754  0.15756316  1.0
  Ga  Ga404  1  0.66666667  0.87675087  0.15756316  1.0
  Ga  Ga405  1  0.16666667  0.12675087  0.22006316  1.0
  Ga  Ga406  1  0.16666667  0.46008421  0.22006316  1.0
  Ga  Ga407  1  0.16666667  0.79341754  0.22006316  1.0
  Ga  Ga408  1  0.50000000  0.12675087  0.22006316  1.0
  Ga  Ga409  1  0.50000000  0.46008421  0.22006316  1.0
  Ga  Ga410  1  0.50000000  0.79341754  0.22006316  1.0
  Ga  Ga411  1  0.83333333  0.12675087  0.22006316  1.0
  Ga  Ga412  1  0.83333333  0.46008421  0.22006316  1.0
  Ga  Ga413  1  0.83333333  0.79341754  0.22006316  1.0
  Ga  Ga414  1  0.27946767  0.12928571  0.13736353  1.0
  Ga  Ga415  1  0.27946767  0.46261904  0.13736353  1.0
  Ga  Ga416  1  0.27946767  0.79595237  0.13736353  1.0
  Ga  Ga417  1  0.61280100  0.12928571  0.13736353  1.0
  Ga  Ga418  1  0.61280100  0.46261904  0.13736353  1.0
  Ga  Ga419  1  0.61280100  0.79595237  0.13736353  1.0
  Ga  Ga420  1  0.94613433  0.12928571  0.13736353  1.0
  Ga  Ga421  1  0.94613433  0.46261904  0.13736353  1.0
  Ga  Ga422  1  0.94613433  0.79595237  0.13736353  1.0
  Ga  Ga423  1  0.11280100  0.04595237  0.19986353  1.0
  Ga  Ga424  1  0.11280100  0.37928571  0.19986353  1.0
  Ga  Ga425  1  0.11280100  0.71261904  0.19986353  1.0
  Ga  Ga426  1  0.44613433  0.04595237  0.19986353  1.0
  Ga  Ga427  1  0.44613433  0.37928571  0.19986353  1.0
  Ga  Ga428  1  0.44613433  0.71261904  0.19986353  1.0
  Ga  Ga429  1  0.77946767  0.04595237  0.19986353  1.0
  Ga  Ga430  1  0.77946767  0.37928571  0.19986353  1.0
  Ga  Ga431  1  0.77946767  0.71261904  0.19986353  1.0
  Ga  Ga432  1  0.00000000  0.26901954  0.20176466  1.0
  Ga  Ga433  1  0.00000000  0.60235287  0.20176466  1.0
  Ga  Ga434  1  0.00000000  0.93568621  0.20176466  1.0
  Ga  Ga435  1  0.33333333  0.26901954  0.20176466  1.0
  Ga  Ga436  1  0.33333333  0.60235287  0.20176466  1.0
  Ga  Ga437  1  0.33333333  0.93568621  0.20176466  1.0
  Ga  Ga438  1  0.66666667  0.26901954  0.20176466  1.0
  Ga  Ga439  1  0.66666667  0.60235287  0.20176466  1.0
  Ga  Ga440  1  0.66666667  0.93568621  0.20176466  1.0
  Ga  Ga441  1  0.16666667  0.01901954  0.13926466  1.0
  Ga  Ga442  1  0.16666667  0.35235287  0.13926466  1.0
  Ga  Ga443  1  0.16666667  0.68568621  0.13926466  1.0
  Ga  Ga444  1  0.50000000  0.01901954  0.13926466  1.0
  Ga  Ga445  1  0.50000000  0.35235287  0.13926466  1.0
  Ga  Ga446  1  0.50000000  0.68568621  0.13926466  1.0
  Ga  Ga447  1  0.83333333  0.01901954  0.13926466  1.0
  Ga  Ga448  1  0.83333333  0.35235287  0.13926466  1.0
  Ga  Ga449  1  0.83333333  0.68568621  0.13926466  1.0
  Ga  Ga450  1  0.22053233  0.09981804  0.15946428  1.0
  Ga  Ga451  1  0.22053233  0.43315137  0.15946428  1.0
  Ga  Ga452  1  0.22053233  0.76648471  0.15946428  1.0
  Ga  Ga453  1  0.55386567  0.09981804  0.15946428  1.0
  Ga  Ga454  1  0.55386567  0.43315137  0.15946428  1.0
  Ga  Ga455  1  0.55386567  0.76648471  0.15946428  1.0
  Ga  Ga456  1  0.88719900  0.09981804  0.15946428  1.0
  Ga  Ga457  1  0.88719900  0.43315137  0.15946428  1.0
  Ga  Ga458  1  0.88719900  0.76648471  0.15946428  1.0
  Ga  Ga459  1  0.05386567  0.01648471  0.22196428  1.0
  Ga  Ga460  1  0.05386567  0.34981804  0.22196428  1.0
  Ga  Ga461  1  0.05386567  0.68315138  0.22196428  1.0
  Ga  Ga462  1  0.38719900  0.01648471  0.22196428  1.0
  Ga  Ga463  1  0.38719900  0.34981804  0.22196428  1.0
  Ga  Ga464  1  0.38719900  0.68315138  0.22196428  1.0
  Ga  Ga465  1  0.72053233  0.01648471  0.22196428  1.0
  Ga  Ga466  1  0.72053233  0.34981804  0.22196428  1.0
  Ga  Ga467  1  0.72053233  0.68315138  0.22196428  1.0
  Ga  Ga468  1  0.11280100  0.09981804  0.15946428  1.0
  Ga  Ga469  1  0.11280100  0.43315137  0.15946428  1.0
  Ga  Ga470  1  0.11280100  0.76648471  0.15946428  1.0
  Ga  Ga471  1  0.44613433  0.09981804  0.15946428  1.0
  Ga  Ga472  1  0.44613433  0.43315137  0.15946428  1.0
  Ga  Ga473  1  0.44613433  0.76648471  0.15946428  1.0
  Ga  Ga474  1  0.77946767  0.09981804  0.15946428  1.0
  Ga  Ga475  1  0.77946767  0.43315137  0.15946428  1.0
  Ga  Ga476  1  0.77946767  0.76648471  0.15946428  1.0
  Ga  Ga477  1  0.27946767  0.01648471  0.22196428  1.0
  Ga  Ga478  1  0.27946767  0.34981804  0.22196428  1.0
  Ga  Ga479  1  0.27946767  0.68315138  0.22196428  1.0
  Ga  Ga480  1  0.61280100  0.01648471  0.22196428  1.0
  Ga  Ga481  1  0.61280100  0.34981804  0.22196428  1.0
  Ga  Ga482  1  0.61280100  0.68315138  0.22196428  1.0
  Ga  Ga483  1  0.94613433  0.01648471  0.22196428  1.0
  Ga  Ga484  1  0.94613433  0.34981804  0.22196428  1.0
  Ga  Ga485  1  0.94613433  0.68315138  0.22196428  1.0
  Ga  Ga486  1  0.33333333  0.32288521  0.16136541  1.0
  Ga  Ga487  1  0.33333333  0.65621854  0.16136541  1.0
  Ga  Ga488  1  0.33333333  0.98955187  0.16136541  1.0
  Ga  Ga489  1  0.66666667  0.32288521  0.16136541  1.0
  Ga  Ga490  1  0.66666667  0.65621854  0.16136541  1.0
  Ga  Ga491  1  0.66666667  0.98955187  0.16136541  1.0
  Ga  Ga492  1  0.00000000  0.32288521  0.16136541  1.0
  Ga  Ga493  1  0.00000000  0.65621854  0.16136541  1.0
  Ga  Ga494  1  0.00000000  0.98955187  0.16136541  1.0
  Ga  Ga495  1  0.16666667  0.23955187  0.22386541  1.0
  Ga  Ga496  1  0.16666667  0.57288521  0.22386541  1.0
  Ga  Ga497  1  0.16666667  0.90621854  0.22386541  1.0
  Ga  Ga498  1  0.50000000  0.23955187  0.22386541  1.0
  Ga  Ga499  1  0.50000000  0.57288521  0.22386541  1.0
  Ga  Ga500  1  0.50000000  0.90621854  0.22386541  1.0
  Ga  Ga501  1  0.83333333  0.23955187  0.22386541  1.0
  Ga  Ga502  1  0.83333333  0.57288521  0.22386541  1.0
  Ga  Ga503  1  0.83333333  0.90621854  0.22386541  1.0
  Ga  Ga504  1  0.04166667  0.21871854  0.25778891  1.0
  Ga  Ga505  1  0.04166667  0.55205187  0.25778891  1.0
  Ga  Ga506  1  0.04166667  0.88538521  0.25778891  1.0
  Ga  Ga507  1  0.37500000  0.21871854  0.25778891  1.0
  Ga  Ga508  1  0.37500000  0.55205187  0.25778891  1.0
  Ga  Ga509  1  0.37500000  0.88538521  0.25778891  1.0
  Ga  Ga510  1  0.70833333  0.21871854  0.25778891  1.0
  Ga  Ga511  1  0.70833333  0.55205187  0.25778891  1.0
  Ga  Ga512  1  0.70833333  0.88538521  0.25778891  1.0
  Ga  Ga513  1  0.20833333  0.13538521  0.32028891  1.0
  Ga  Ga514  1  0.20833333  0.46871854  0.32028891  1.0
  Ga  Ga515  1  0.20833333  0.80205187  0.32028891  1.0
  Ga  Ga516  1  0.54166667  0.13538521  0.32028891  1.0
  Ga  Ga517  1  0.54166667  0.46871854  0.32028891  1.0
  Ga  Ga518  1  0.54166667  0.80205187  0.32028891  1.0
  Ga  Ga519  1  0.87500000  0.13538521  0.32028891  1.0
  Ga  Ga520  1  0.87500000  0.46871854  0.32028891  1.0
  Ga  Ga521  1  0.87500000  0.80205187  0.32028891  1.0
  Ga  Ga522  1  0.08333333  0.32288521  0.36716391  1.0
  Ga  Ga523  1  0.08333333  0.65621854  0.36716391  1.0
  Ga  Ga524  1  0.08333333  0.98955187  0.36716391  1.0
  Ga  Ga525  1  0.41666667  0.32288521  0.36716391  1.0
  Ga  Ga526  1  0.41666667  0.65621854  0.36716391  1.0
  Ga  Ga527  1  0.41666667  0.98955187  0.36716391  1.0
  Ga  Ga528  1  0.75000000  0.32288521  0.36716391  1.0
  Ga  Ga529  1  0.75000000  0.65621854  0.36716391  1.0
  Ga  Ga530  1  0.75000000  0.98955187  0.36716391  1.0
  Ga  Ga531  1  0.25000000  0.07288521  0.30466391  1.0
  Ga  Ga532  1  0.25000000  0.40621854  0.30466391  1.0
  Ga  Ga533  1  0.25000000  0.73955187  0.30466391  1.0
  Ga  Ga534  1  0.58333333  0.07288521  0.30466391  1.0
  Ga  Ga535  1  0.58333333  0.40621854  0.30466391  1.0
  Ga  Ga536  1  0.58333333  0.73955187  0.30466391  1.0
  Ga  Ga537  1  0.91666667  0.07288521  0.30466391  1.0
  Ga  Ga538  1  0.91666667  0.40621854  0.30466391  1.0
  Ga  Ga539  1  0.91666667  0.73955187  0.30466391  1.0
  Ga  Ga540  1  0.25000000  0.32288521  0.36716391  1.0
  Ga  Ga541  1  0.25000000  0.65621854  0.36716391  1.0
  Ga  Ga542  1  0.25000000  0.98955187  0.36716391  1.0
  Ga  Ga543  1  0.58333333  0.32288521  0.36716391  1.0
  Ga  Ga544  1  0.58333333  0.65621854  0.36716391  1.0
  Ga  Ga545  1  0.58333333  0.98955187  0.36716391  1.0
  Ga  Ga546  1  0.91666667  0.32288521  0.36716391  1.0
  Ga  Ga547  1  0.91666667  0.65621854  0.36716391  1.0
  Ga  Ga548  1  0.91666667  0.98955187  0.36716391  1.0
  Ga  Ga549  1  0.08333333  0.07288521  0.30466391  1.0
  Ga  Ga550  1  0.08333333  0.40621854  0.30466391  1.0
  Ga  Ga551  1  0.08333333  0.73955187  0.30466391  1.0
  Ga  Ga552  1  0.41666667  0.07288521  0.30466391  1.0
  Ga  Ga553  1  0.41666667  0.40621854  0.30466391  1.0
  Ga  Ga554  1  0.41666667  0.73955187  0.30466391  1.0
  Ga  Ga555  1  0.75000000  0.07288521  0.30466391  1.0
  Ga  Ga556  1  0.75000000  0.40621854  0.30466391  1.0
  Ga  Ga557  1  0.75000000  0.73955187  0.30466391  1.0
  Ga  Ga558  1  0.04166667  0.26038521  0.35153891  1.0
  Ga  Ga559  1  0.04166667  0.59371854  0.35153891  1.0
  Ga  Ga560  1  0.04166667  0.92705187  0.35153891  1.0
  Ga  Ga561  1  0.37500000  0.26038521  0.35153891  1.0
  Ga  Ga562  1  0.37500000  0.59371854  0.35153891  1.0
  Ga  Ga563  1  0.37500000  0.92705187  0.35153891  1.0
  Ga  Ga564  1  0.70833333  0.26038521  0.35153891  1.0
  Ga  Ga565  1  0.70833333  0.59371854  0.35153891  1.0
  Ga  Ga566  1  0.70833333  0.92705187  0.35153891  1.0
  Ga  Ga567  1  0.20833333  0.01038521  0.28903891  1.0
  Ga  Ga568  1  0.20833333  0.34371854  0.28903891  1.0
  Ga  Ga569  1  0.20833333  0.67705187  0.28903891  1.0
  Ga  Ga570  1  0.54166667  0.01038521  0.28903891  1.0
  Ga  Ga571  1  0.54166667  0.34371854  0.28903891  1.0
  Ga  Ga572  1  0.54166667  0.67705187  0.28903891  1.0
  Ga  Ga573  1  0.87500000  0.01038521  0.28903891  1.0
  Ga  Ga574  1  0.87500000  0.34371854  0.28903891  1.0
  Ga  Ga575  1  0.87500000  0.67705187  0.28903891  1.0
  Ga  Ga576  1  0.29166667  0.21871854  0.25778891  1.0
  Ga  Ga577  1  0.29166667  0.55205187  0.25778891  1.0
  Ga  Ga578  1  0.29166667  0.88538521  0.25778891  1.0
  Ga  Ga579  1  0.62500000  0.21871854  0.25778891  1.0
  Ga  Ga580  1  0.62500000  0.55205187  0.25778891  1.0
  Ga  Ga581  1  0.62500000  0.88538521  0.25778891  1.0
  Ga  Ga582  1  0.95833333  0.21871854  0.25778891  1.0
  Ga  Ga583  1  0.95833333  0.55205187  0.25778891  1.0
  Ga  Ga584  1  0.95833333  0.88538521  0.25778891  1.0
  Ga  Ga585  1  0.12500000  0.13538521  0.32028891  1.0
  Ga  Ga586  1  0.12500000  0.46871854  0.32028891  1.0
  Ga  Ga587  1  0.12500000  0.80205187  0.32028891  1.0
  Ga  Ga588  1  0.45833333  0.13538521  0.32028891  1.0
  Ga  Ga589  1  0.45833333  0.46871854  0.32028891  1.0
  Ga  Ga590  1  0.45833333  0.80205187  0.32028891  1.0
  Ga  Ga591  1  0.79166667  0.13538521  0.32028891  1.0
  Ga  Ga592  1  0.79166667  0.46871854  0.32028891  1.0
  Ga  Ga593  1  0.79166667  0.80205187  0.32028891  1.0
  Ga  Ga594  1  0.29166667  0.26038521  0.35153891  1.0
  Ga  Ga595  1  0.29166667  0.59371854  0.35153891  1.0
  Ga  Ga596  1  0.29166667  0.92705187  0.35153891  1.0
  Ga  Ga597  1  0.62500000  0.26038521  0.35153891  1.0
  Ga  Ga598  1  0.62500000  0.59371854  0.35153891  1.0
  Ga  Ga599  1  0.62500000  0.92705187  0.35153891  1.0
  Ga  Ga600  1  0.95833333  0.26038521  0.35153891  1.0
  Ga  Ga601  1  0.95833333  0.59371854  0.35153891  1.0
  Ga  Ga602  1  0.95833333  0.92705187  0.35153891  1.0
  Ga  Ga603  1  0.12500000  0.01038521  0.28903891  1.0
  Ga  Ga604  1  0.12500000  0.34371854  0.28903891  1.0
  Ga  Ga605  1  0.12500000  0.67705187  0.28903891  1.0
  Ga  Ga606  1  0.45833333  0.01038521  0.28903891  1.0
  Ga  Ga607  1  0.45833333  0.34371854  0.28903891  1.0
  Ga  Ga608  1  0.45833333  0.67705187  0.28903891  1.0
  Ga  Ga609  1  0.79166667  0.01038521  0.28903891  1.0
  Ga  Ga610  1  0.79166667  0.34371854  0.28903891  1.0
  Ga  Ga611  1  0.79166667  0.67705187  0.28903891  1.0
  Ga  Ga612  1  0.33333333  0.32288521  0.32296241  1.0
  Ga  Ga613  1  0.33333333  0.65621854  0.32296241  1.0
  Ga  Ga614  1  0.33333333  0.98955187  0.32296241  1.0
  Ga  Ga615  1  0.66666667  0.32288521  0.32296241  1.0
  Ga  Ga616  1  0.66666667  0.65621854  0.32296241  1.0
  Ga  Ga617  1  0.66666667  0.98955187  0.32296241  1.0
  Ga  Ga618  1  0.00000000  0.32288521  0.32296241  1.0
  Ga  Ga619  1  0.00000000  0.65621854  0.32296241  1.0
  Ga  Ga620  1  0.00000000  0.98955187  0.32296241  1.0
  Ga  Ga621  1  0.16666667  0.07288521  0.26046241  1.0
  Ga  Ga622  1  0.16666667  0.40621854  0.26046241  1.0
  Ga  Ga623  1  0.16666667  0.73955187  0.26046241  1.0
  Ga  Ga624  1  0.50000000  0.07288521  0.26046241  1.0
  Ga  Ga625  1  0.50000000  0.40621854  0.26046241  1.0
  Ga  Ga626  1  0.50000000  0.73955187  0.26046241  1.0
  Ga  Ga627  1  0.83333333  0.07288521  0.26046241  1.0
  Ga  Ga628  1  0.83333333  0.40621854  0.26046241  1.0
  Ga  Ga629  1  0.83333333  0.73955187  0.26046241  1.0
  Ga  Ga630  1  0.05386567  0.29595237  0.26236353  1.0
  Ga  Ga631  1  0.05386567  0.62928571  0.26236353  1.0
  Ga  Ga632  1  0.05386567  0.96261904  0.26236353  1.0
  Ga  Ga633  1  0.38719900  0.29595237  0.26236353  1.0
  Ga  Ga634  1  0.38719900  0.62928571  0.26236353  1.0
  Ga  Ga635  1  0.38719900  0.96261904  0.26236353  1.0
  Ga  Ga636  1  0.72053233  0.29595237  0.26236353  1.0
  Ga  Ga637  1  0.72053233  0.62928571  0.26236353  1.0
  Ga  Ga638  1  0.72053233  0.96261904  0.26236353  1.0
  Ga  Ga639  1  0.22053233  0.21261904  0.32486353  1.0
  Ga  Ga640  1  0.22053233  0.54595237  0.32486353  1.0
  Ga  Ga641  1  0.22053233  0.87928571  0.32486353  1.0
  Ga  Ga642  1  0.55386567  0.21261904  0.32486353  1.0
  Ga  Ga643  1  0.55386567  0.54595237  0.32486353  1.0
  Ga  Ga644  1  0.55386567  0.87928571  0.32486353  1.0
  Ga  Ga645  1  0.88719900  0.21261904  0.32486353  1.0
  Ga  Ga646  1  0.88719900  0.54595237  0.32486353  1.0
  Ga  Ga647  1  0.88719900  0.87928571  0.32486353  1.0
  Ga  Ga648  1  0.00000000  0.04341754  0.28256316  1.0
  Ga  Ga649  1  0.00000000  0.37675087  0.28256316  1.0
  Ga  Ga650  1  0.00000000  0.71008421  0.28256316  1.0
  Ga  Ga651  1  0.33333333  0.04341754  0.28256316  1.0
  Ga  Ga652  1  0.33333333  0.37675087  0.28256316  1.0
  Ga  Ga653  1  0.33333333  0.71008421  0.28256316  1.0
  Ga  Ga654  1  0.66666667  0.04341754  0.28256316  1.0
  Ga  Ga655  1  0.66666667  0.37675087  0.28256316  1.0
  Ga  Ga656  1  0.66666667  0.71008421  0.28256316  1.0
  Ga  Ga657  1  0.16666667  0.29341754  0.34506316  1.0
  Ga  Ga658  1  0.16666667  0.62675087  0.34506316  1.0
  Ga  Ga659  1  0.16666667  0.96008421  0.34506316  1.0
  Ga  Ga660  1  0.50000000  0.29341754  0.34506316  1.0
  Ga  Ga661  1  0.50000000  0.62675087  0.34506316  1.0
  Ga  Ga662  1  0.50000000  0.96008421  0.34506316  1.0
  Ga  Ga663  1  0.83333333  0.29341754  0.34506316  1.0
  Ga  Ga664  1  0.83333333  0.62675087  0.34506316  1.0
  Ga  Ga665  1  0.83333333  0.96008421  0.34506316  1.0
  Ga  Ga666  1  0.27946767  0.29595237  0.26236353  1.0
  Ga  Ga667  1  0.27946767  0.62928571  0.26236353  1.0
  Ga  Ga668  1  0.27946767  0.96261904  0.26236353  1.0
  Ga  Ga669  1  0.61280100  0.29595237  0.26236353  1.0
  Ga  Ga670  1  0.61280100  0.62928571  0.26236353  1.0
  Ga  Ga671  1  0.61280100  0.96261904  0.26236353  1.0
  Ga  Ga672  1  0.94613433  0.29595237  0.26236353  1.0
  Ga  Ga673  1  0.94613433  0.62928571  0.26236353  1.0
  Ga  Ga674  1  0.94613433  0.96261904  0.26236353  1.0
  Ga  Ga675  1  0.11280100  0.21261904  0.32486353  1.0
  Ga  Ga676  1  0.11280100  0.54595238  0.32486353  1.0
  Ga  Ga677  1  0.11280100  0.87928571  0.32486353  1.0
  Ga  Ga678  1  0.44613433  0.21261904  0.32486353  1.0
  Ga  Ga679  1  0.44613433  0.54595238  0.32486353  1.0
  Ga  Ga680  1  0.44613433  0.87928571  0.32486353  1.0
  Ga  Ga681  1  0.77946767  0.21261904  0.32486353  1.0
  Ga  Ga682  1  0.77946767  0.54595238  0.32486353  1.0
  Ga  Ga683  1  0.77946767  0.87928571  0.32486353  1.0
  Ga  Ga684  1  0.00000000  0.10235287  0.32676466  1.0
  Ga  Ga685  1  0.00000000  0.43568621  0.32676466  1.0
  Ga  Ga686  1  0.00000000  0.76901954  0.32676466  1.0
  Ga  Ga687  1  0.33333333  0.10235287  0.32676466  1.0
  Ga  Ga688  1  0.33333333  0.43568621  0.32676466  1.0
  Ga  Ga689  1  0.33333333  0.76901954  0.32676466  1.0
  Ga  Ga690  1  0.66666667  0.10235287  0.32676466  1.0
  Ga  Ga691  1  0.66666667  0.43568621  0.32676466  1.0
  Ga  Ga692  1  0.66666667  0.76901954  0.32676466  1.0
  Ga  Ga693  1  0.16666667  0.18568621  0.26426466  1.0
  Ga  Ga694  1  0.16666667  0.51901954  0.26426466  1.0
  Ga  Ga695  1  0.16666667  0.85235287  0.26426466  1.0
  Ga  Ga696  1  0.50000000  0.18568621  0.26426466  1.0
  Ga  Ga697  1  0.50000000  0.51901954  0.26426466  1.0
  Ga  Ga698  1  0.50000000  0.85235287  0.26426466  1.0
  Ga  Ga699  1  0.83333333  0.18568621  0.26426466  1.0
  Ga  Ga700  1  0.83333333  0.51901954  0.26426466  1.0
  Ga  Ga701  1  0.83333333  0.85235287  0.26426466  1.0
  Ga  Ga702  1  0.22053233  0.26648471  0.28446428  1.0
  Ga  Ga703  1  0.22053233  0.59981804  0.28446428  1.0
  Ga  Ga704  1  0.22053233  0.93315137  0.28446428  1.0
  Ga  Ga705  1  0.55386567  0.26648471  0.28446428  1.0
  Ga  Ga706  1  0.55386567  0.59981804  0.28446428  1.0
  Ga  Ga707  1  0.55386567  0.93315137  0.28446428  1.0
  Ga  Ga708  1  0.88719900  0.26648471  0.28446428  1.0
  Ga  Ga709  1  0.88719900  0.59981804  0.28446428  1.0
  Ga  Ga710  1  0.88719900  0.93315137  0.28446428  1.0
  Ga  Ga711  1  0.05386567  0.18315138  0.34696428  1.0
  Ga  Ga712  1  0.05386567  0.51648471  0.34696428  1.0
  Ga  Ga713  1  0.05386567  0.84981804  0.34696428  1.0
  Ga  Ga714  1  0.38719900  0.18315138  0.34696428  1.0
  Ga  Ga715  1  0.38719900  0.51648471  0.34696428  1.0
  Ga  Ga716  1  0.38719900  0.84981804  0.34696428  1.0
  Ga  Ga717  1  0.72053233  0.18315138  0.34696428  1.0
  Ga  Ga718  1  0.72053233  0.51648471  0.34696428  1.0
  Ga  Ga719  1  0.72053233  0.84981804  0.34696428  1.0
  Ga  Ga720  1  0.11280100  0.26648471  0.28446428  1.0
  Ga  Ga721  1  0.11280100  0.59981804  0.28446428  1.0
  Ga  Ga722  1  0.11280100  0.93315137  0.28446428  1.0
  Ga  Ga723  1  0.44613433  0.26648471  0.28446428  1.0
  Ga  Ga724  1  0.44613433  0.59981804  0.28446428  1.0
  Ga  Ga725  1  0.44613433  0.93315137  0.28446428  1.0
  Ga  Ga726  1  0.77946767  0.26648471  0.28446428  1.0
  Ga  Ga727  1  0.77946767  0.59981804  0.28446428  1.0
  Ga  Ga728  1  0.77946767  0.93315137  0.28446428  1.0
  Ga  Ga729  1  0.27946767  0.18315137  0.34696428  1.0
  Ga  Ga730  1  0.27946767  0.51648471  0.34696428  1.0
  Ga  Ga731  1  0.27946767  0.84981804  0.34696428  1.0
  Ga  Ga732  1  0.61280100  0.18315137  0.34696428  1.0
  Ga  Ga733  1  0.61280100  0.51648471  0.34696428  1.0
  Ga  Ga734  1  0.61280100  0.84981804  0.34696428  1.0
  Ga  Ga735  1  0.94613433  0.18315137  0.34696428  1.0
  Ga  Ga736  1  0.94613433  0.51648471  0.34696428  1.0
  Ga  Ga737  1  0.94613433  0.84981804  0.34696428  1.0
  Ga  Ga738  1  0.33333333  0.15621854  0.28636541  1.0
  Ga  Ga739  1  0.33333333  0.48955187  0.28636541  1.0
  Ga  Ga740  1  0.33333333  0.82288521  0.28636541  1.0
  Ga  Ga741  1  0.66666667  0.15621854  0.28636541  1.0
  Ga  Ga742  1  0.66666667  0.48955187  0.28636541  1.0
  Ga  Ga743  1  0.66666667  0.82288521  0.28636541  1.0
  Ga  Ga744  1  0.00000000  0.15621854  0.28636541  1.0
  Ga  Ga745  1  0.00000000  0.48955187  0.28636541  1.0
  Ga  Ga746  1  0.00000000  0.82288521  0.28636541  1.0
  Ga  Ga747  1  0.16666667  0.07288521  0.34886541  1.0
  Ga  Ga748  1  0.16666667  0.40621854  0.34886541  1.0
  Ga  Ga749  1  0.16666667  0.73955187  0.34886541  1.0
  Ga  Ga750  1  0.50000000  0.07288521  0.34886541  1.0
  Ga  Ga751  1  0.50000000  0.40621854  0.34886541  1.0
  Ga  Ga752  1  0.50000000  0.73955187  0.34886541  1.0
  Ga  Ga753  1  0.83333333  0.07288521  0.34886541  1.0
  Ga  Ga754  1  0.83333333  0.40621854  0.34886541  1.0
  Ga  Ga755  1  0.83333333  0.73955187  0.34886541  1.0
  Ni  Ni756  1  0.27502517  0.01870596  0.05776059  1.0
  Ni  Ni757  1  0.27502517  0.35203929  0.05776059  1.0
  Ni  Ni758  1  0.27502517  0.68537262  0.05776059  1.0
  Ni  Ni759  1  0.60835850  0.01870596  0.05776059  1.0
  Ni  Ni760  1  0.60835850  0.35203929  0.05776059  1.0
  Ni  Ni761  1  0.60835850  0.68537262  0.05776059  1.0
  Ni  Ni762  1  0.94169183  0.01870596  0.05776059  1.0
  Ni  Ni763  1  0.94169183  0.35203929  0.05776059  1.0
  Ni  Ni764  1  0.94169183  0.68537262  0.05776059  1.0
  Ni  Ni765  1  0.10835850  0.26870596  0.12026059  1.0
  Ni  Ni766  1  0.10835850  0.60203929  0.12026059  1.0
  Ni  Ni767  1  0.10835850  0.93537262  0.12026059  1.0
  Ni  Ni768  1  0.44169183  0.26870596  0.12026059  1.0
  Ni  Ni769  1  0.44169183  0.60203929  0.12026059  1.0
  Ni  Ni770  1  0.44169183  0.93537262  0.12026059  1.0
  Ni  Ni771  1  0.77502517  0.26870596  0.12026059  1.0
  Ni  Ni772  1  0.77502517  0.60203929  0.12026059  1.0
  Ni  Ni773  1  0.77502517  0.93537262  0.12026059  1.0
  Ni  Ni774  1  0.00000000  0.26457704  0.03589503  1.0
  Ni  Ni775  1  0.00000000  0.59791037  0.03589503  1.0
  Ni  Ni776  1  0.00000000  0.93124371  0.03589503  1.0
  Ni  Ni777  1  0.33333333  0.26457704  0.03589503  1.0
  Ni  Ni778  1  0.33333333  0.59791037  0.03589503  1.0
  Ni  Ni779  1  0.33333333  0.93124371  0.03589503  1.0
  Ni  Ni780  1  0.66666667  0.26457704  0.03589503  1.0
  Ni  Ni781  1  0.66666667  0.59791037  0.03589503  1.0
  Ni  Ni782  1  0.66666667  0.93124371  0.03589503  1.0
  Ni  Ni783  1  0.16666667  0.18124371  0.09839503  1.0
  Ni  Ni784  1  0.16666667  0.51457704  0.09839503  1.0
  Ni  Ni785  1  0.16666667  0.84791037  0.09839503  1.0
  Ni  Ni786  1  0.50000000  0.18124371  0.09839503  1.0
  Ni  Ni787  1  0.50000000  0.51457704  0.09839503  1.0
  Ni  Ni788  1  0.50000000  0.84791037  0.09839503  1.0
  Ni  Ni789  1  0.83333333  0.18124371  0.09839503  1.0
  Ni  Ni790  1  0.83333333  0.51457704  0.09839503  1.0
  Ni  Ni791  1  0.83333333  0.84791037  0.09839503  1.0
  Ni  Ni792  1  0.33333333  0.21452671  0.07343278  1.0
  Ni  Ni793  1  0.33333333  0.54786004  0.07343278  1.0
  Ni  Ni794  1  0.33333333  0.88119337  0.07343278  1.0
  Ni  Ni795  1  0.66666667  0.21452671  0.07343278  1.0
  Ni  Ni796  1  0.66666667  0.54786004  0.07343278  1.0
  Ni  Ni797  1  0.66666667  0.88119337  0.07343278  1.0
  Ni  Ni798  1  0.00000000  0.21452671  0.07343278  1.0
  Ni  Ni799  1  0.00000000  0.54786004  0.07343278  1.0
  Ni  Ni800  1  0.00000000  0.88119337  0.07343278  1.0
  Ni  Ni801  1  0.16666667  0.29786004  0.01093278  1.0
  Ni  Ni802  1  0.16666667  0.63119337  0.01093278  1.0
  Ni  Ni803  1  0.16666667  0.96452671  0.01093278  1.0
  Ni  Ni804  1  0.50000000  0.29786004  0.01093278  1.0
  Ni  Ni805  1  0.50000000  0.63119337  0.01093278  1.0
  Ni  Ni806  1  0.50000000  0.96452671  0.01093278  1.0
  Ni  Ni807  1  0.83333333  0.29786004  0.01093278  1.0
  Ni  Ni808  1  0.83333333  0.63119337  0.01093278  1.0
  Ni  Ni809  1  0.83333333  0.96452671  0.01093278  1.0
  Ni  Ni810  1  0.10835850  0.04373112  0.11406722  1.0
  Ni  Ni811  1  0.10835850  0.37706446  0.11406722  1.0
  Ni  Ni812  1  0.10835850  0.71039779  0.11406722  1.0
  Ni  Ni813  1  0.44169183  0.04373112  0.11406722  1.0
  Ni  Ni814  1  0.44169183  0.37706446  0.11406722  1.0
  Ni  Ni815  1  0.44169183  0.71039779  0.11406722  1.0
  Ni  Ni816  1  0.77502517  0.04373112  0.11406722  1.0
  Ni  Ni817  1  0.77502517  0.37706446  0.11406722  1.0
  Ni  Ni818  1  0.77502517  0.71039779  0.11406722  1.0
  Ni  Ni819  1  0.27502517  0.12706446  0.05156722  1.0
  Ni  Ni820  1  0.27502517  0.46039779  0.05156722  1.0
  Ni  Ni821  1  0.27502517  0.79373112  0.05156722  1.0
  Ni  Ni822  1  0.60835850  0.12706446  0.05156722  1.0
  Ni  Ni823  1  0.60835850  0.46039779  0.05156722  1.0
  Ni  Ni824  1  0.60835850  0.79373112  0.05156722  1.0
  Ni  Ni825  1  0.94169183  0.12706446  0.05156722  1.0
  Ni  Ni826  1  0.94169183  0.46039779  0.05156722  1.0
  Ni  Ni827  1  0.94169183  0.79373112  0.05156722  1.0
  Ni  Ni828  1  0.05830817  0.01870596  0.05776059  1.0
  Ni  Ni829  1  0.05830817  0.35203929  0.05776059  1.0
  Ni  Ni830  1  0.05830817  0.68537262  0.05776059  1.0
  Ni  Ni831  1  0.39164150  0.01870596  0.05776059  1.0
  Ni  Ni832  1  0.39164150  0.35203929  0.05776059  1.0
  Ni  Ni833  1  0.39164150  0.68537262  0.05776059  1.0
  Ni  Ni834  1  0.72497483  0.01870596  0.05776059  1.0
  Ni  Ni835  1  0.72497483  0.35203929  0.05776059  1.0
  Ni  Ni836  1  0.72497483  0.68537262  0.05776059  1.0
  Ni  Ni837  1  0.22497483  0.26870596  0.12026059  1.0
  Ni  Ni838  1  0.22497483  0.60203929  0.12026059  1.0
  Ni  Ni839  1  0.22497483  0.93537262  0.12026059  1.0
  Ni  Ni840  1  0.55830817  0.26870596  0.12026059  1.0
  Ni  Ni841  1  0.55830817  0.60203929  0.12026059  1.0
  Ni  Ni842  1  0.55830817  0.93537262  0.12026059  1.0
  Ni  Ni843  1  0.89164150  0.26870596  0.12026059  1.0
  Ni  Ni844  1  0.89164150  0.60203929  0.12026059  1.0
  Ni  Ni845  1  0.89164150  0.93537262  0.12026059  1.0
  Ni  Ni846  1  0.22497483  0.04373112  0.11406722  1.0
  Ni  Ni847  1  0.22497483  0.37706446  0.11406722  1.0
  Ni  Ni848  1  0.22497483  0.71039779  0.11406722  1.0
  Ni  Ni849  1  0.55830817  0.04373112  0.11406722  1.0
  Ni  Ni850  1  0.55830817  0.37706446  0.11406722  1.0
  Ni  Ni851  1  0.55830817  0.71039779  0.11406722  1.0
  Ni  Ni852  1  0.89164150  0.04373112  0.11406722  1.0
  Ni  Ni853  1  0.89164150  0.37706446  0.11406722  1.0
  Ni  Ni854  1  0.89164150  0.71039779  0.11406722  1.0
  Ni  Ni855  1  0.05830817  0.12706446  0.05156722  1.0
  Ni  Ni856  1  0.05830817  0.46039779  0.05156722  1.0
  Ni  Ni857  1  0.05830817  0.79373112  0.05156722  1.0
  Ni  Ni858  1  0.39164150  0.12706446  0.05156722  1.0
  Ni  Ni859  1  0.39164150  0.46039779  0.05156722  1.0
  Ni  Ni860  1  0.39164150  0.79373112  0.05156722  1.0
  Ni  Ni861  1  0.72497483  0.12706446  0.05156722  1.0
  Ni  Ni862  1  0.72497483  0.46039779  0.05156722  1.0
  Ni  Ni863  1  0.72497483  0.79373112  0.05156722  1.0
  Ni  Ni864  1  0.27502517  0.18537262  0.18276059  1.0
  Ni  Ni865  1  0.27502517  0.51870596  0.18276059  1.0
  Ni  Ni866  1  0.27502517  0.85203929  0.18276059  1.0
  Ni  Ni867  1  0.60835850  0.18537262  0.18276059  1.0
  Ni  Ni868  1  0.60835850  0.51870596  0.18276059  1.0
  Ni  Ni869  1  0.60835850  0.85203929  0.18276059  1.0
  Ni  Ni870  1  0.94169183  0.18537262  0.18276059  1.0
  Ni  Ni871  1  0.94169183  0.51870596  0.18276059  1.0
  Ni  Ni872  1  0.94169183  0.85203929  0.18276059  1.0
  Ni  Ni873  1  0.10835850  0.10203929  0.24526059  1.0
  Ni  Ni874  1  0.10835850  0.43537262  0.24526059  1.0
  Ni  Ni875  1  0.10835850  0.76870596  0.24526059  1.0
  Ni  Ni876  1  0.44169183  0.10203929  0.24526059  1.0
  Ni  Ni877  1  0.44169183  0.43537262  0.24526059  1.0
  Ni  Ni878  1  0.44169183  0.76870596  0.24526059  1.0
  Ni  Ni879  1  0.77502517  0.10203929  0.24526059  1.0
  Ni  Ni880  1  0.77502517  0.43537262  0.24526059  1.0
  Ni  Ni881  1  0.77502517  0.76870596  0.24526059  1.0
  Ni  Ni882  1  0.00000000  0.09791037  0.16089503  1.0
  Ni  Ni883  1  0.00000000  0.43124371  0.16089503  1.0
  Ni  Ni884  1  0.00000000  0.76457704  0.16089503  1.0
  Ni  Ni885  1  0.33333333  0.09791037  0.16089503  1.0
  Ni  Ni886  1  0.33333333  0.43124371  0.16089503  1.0
  Ni  Ni887  1  0.33333333  0.76457704  0.16089503  1.0
  Ni  Ni888  1  0.66666667  0.09791037  0.16089503  1.0
  Ni  Ni889  1  0.66666667  0.43124371  0.16089503  1.0
  Ni  Ni890  1  0.66666667  0.76457704  0.16089503  1.0
  Ni  Ni891  1  0.16666667  0.01457704  0.22339503  1.0
  Ni  Ni892  1  0.16666667  0.34791037  0.22339503  1.0
  Ni  Ni893  1  0.16666667  0.68124371  0.22339503  1.0
  Ni  Ni894  1  0.50000000  0.01457704  0.22339503  1.0
  Ni  Ni895  1  0.50000000  0.34791037  0.22339503  1.0
  Ni  Ni896  1  0.50000000  0.68124371  0.22339503  1.0
  Ni  Ni897  1  0.83333333  0.01457704  0.22339503  1.0
  Ni  Ni898  1  0.83333333  0.34791037  0.22339503  1.0
  Ni  Ni899  1  0.83333333  0.68124371  0.22339503  1.0
  Ni  Ni900  1  0.33333333  0.04786004  0.19843278  1.0
  Ni  Ni901  1  0.33333333  0.38119337  0.19843278  1.0
  Ni  Ni902  1  0.33333333  0.71452671  0.19843278  1.0
  Ni  Ni903  1  0.66666667  0.04786004  0.19843278  1.0
  Ni  Ni904  1  0.66666667  0.38119337  0.19843278  1.0
  Ni  Ni905  1  0.66666667  0.71452671  0.19843278  1.0
  Ni  Ni906  1  0.00000000  0.04786004  0.19843278  1.0
  Ni  Ni907  1  0.00000000  0.38119337  0.19843278  1.0
  Ni  Ni908  1  0.00000000  0.71452671  0.19843278  1.0
  Ni  Ni909  1  0.16666667  0.13119337  0.13593278  1.0
  Ni  Ni910  1  0.16666667  0.46452671  0.13593278  1.0
  Ni  Ni911  1  0.16666667  0.79786004  0.13593278  1.0
  Ni  Ni912  1  0.50000000  0.13119337  0.13593278  1.0
  Ni  Ni913  1  0.50000000  0.46452671  0.13593278  1.0
  Ni  Ni914  1  0.50000000  0.79786004  0.13593278  1.0
  Ni  Ni915  1  0.83333333  0.13119337  0.13593278  1.0
  Ni  Ni916  1  0.83333333  0.46452671  0.13593278  1.0
  Ni  Ni917  1  0.83333333  0.79786004  0.13593278  1.0
  Ni  Ni918  1  0.10835850  0.21039779  0.23906722  1.0
  Ni  Ni919  1  0.10835850  0.54373112  0.23906722  1.0
  Ni  Ni920  1  0.10835850  0.87706446  0.23906722  1.0
  Ni  Ni921  1  0.44169183  0.21039779  0.23906722  1.0
  Ni  Ni922  1  0.44169183  0.54373112  0.23906722  1.0
  Ni  Ni923  1  0.44169183  0.87706446  0.23906722  1.0
  Ni  Ni924  1  0.77502517  0.21039779  0.23906722  1.0
  Ni  Ni925  1  0.77502517  0.54373112  0.23906722  1.0
  Ni  Ni926  1  0.77502517  0.87706446  0.23906722  1.0
  Ni  Ni927  1  0.27502517  0.29373112  0.17656722  1.0
  Ni  Ni928  1  0.27502517  0.62706446  0.17656722  1.0
  Ni  Ni929  1  0.27502517  0.96039779  0.17656722  1.0
  Ni  Ni930  1  0.60835850  0.29373112  0.17656722  1.0
  Ni  Ni931  1  0.60835850  0.62706446  0.17656722  1.0
  Ni  Ni932  1  0.60835850  0.96039779  0.17656722  1.0
  Ni  Ni933  1  0.94169183  0.29373112  0.17656722  1.0
  Ni  Ni934  1  0.94169183  0.62706446  0.17656722  1.0
  Ni  Ni935  1  0.94169183  0.96039779  0.17656722  1.0
  Ni  Ni936  1  0.05830817  0.18537262  0.18276059  1.0
  Ni  Ni937  1  0.05830817  0.51870596  0.18276059  1.0
  Ni  Ni938  1  0.05830817  0.85203929  0.18276059  1.0
  Ni  Ni939  1  0.39164150  0.18537262  0.18276059  1.0
  Ni  Ni940  1  0.39164150  0.51870596  0.18276059  1.0
  Ni  Ni941  1  0.39164150  0.85203929  0.18276059  1.0
  Ni  Ni942  1  0.72497483  0.18537262  0.18276059  1.0
  Ni  Ni943  1  0.72497483  0.51870596  0.18276059  1.0
  Ni  Ni944  1  0.72497483  0.85203929  0.18276059  1.0
  Ni  Ni945  1  0.22497483  0.10203929  0.24526059  1.0
  Ni  Ni946  1  0.22497483  0.43537262  0.24526059  1.0
  Ni  Ni947  1  0.22497483  0.76870596  0.24526059  1.0
  Ni  Ni948  1  0.55830817  0.10203929  0.24526059  1.0
  Ni  Ni949  1  0.55830817  0.43537262  0.24526059  1.0
  Ni  Ni950  1  0.55830817  0.76870596  0.24526059  1.0
  Ni  Ni951  1  0.89164150  0.10203929  0.24526059  1.0
  Ni  Ni952  1  0.89164150  0.43537262  0.24526059  1.0
  Ni  Ni953  1  0.89164150  0.76870596  0.24526059  1.0
  Ni  Ni954  1  0.22497483  0.21039779  0.23906722  1.0
  Ni  Ni955  1  0.22497483  0.54373112  0.23906722  1.0
  Ni  Ni956  1  0.22497483  0.87706446  0.23906722  1.0
  Ni  Ni957  1  0.55830817  0.21039779  0.23906722  1.0
  Ni  Ni958  1  0.55830817  0.54373112  0.23906722  1.0
  Ni  Ni959  1  0.55830817  0.87706446  0.23906722  1.0
  Ni  Ni960  1  0.89164150  0.21039779  0.23906722  1.0
  Ni  Ni961  1  0.89164150  0.54373112  0.23906722  1.0
  Ni  Ni962  1  0.89164150  0.87706446  0.23906722  1.0
  Ni  Ni963  1  0.05830817  0.29373112  0.17656722  1.0
  Ni  Ni964  1  0.05830817  0.62706446  0.17656722  1.0
  Ni  Ni965  1  0.05830817  0.96039779  0.17656722  1.0
  Ni  Ni966  1  0.39164150  0.29373112  0.17656722  1.0
  Ni  Ni967  1  0.39164150  0.62706446  0.17656722  1.0
  Ni  Ni968  1  0.39164150  0.96039779  0.17656722  1.0
  Ni  Ni969  1  0.72497483  0.29373112  0.17656722  1.0
  Ni  Ni970  1  0.72497483  0.62706446  0.17656722  1.0
  Ni  Ni971  1  0.72497483  0.96039779  0.17656722  1.0
  Ni  Ni972  1  0.27502517  0.01870596  0.30776059  1.0
  Ni  Ni973  1  0.27502517  0.35203929  0.30776059  1.0
  Ni  Ni974  1  0.27502517  0.68537262  0.30776059  1.0
  Ni  Ni975  1  0.60835850  0.01870596  0.30776059  1.0
  Ni  Ni976  1  0.60835850  0.35203929  0.30776059  1.0
  Ni  Ni977  1  0.60835850  0.68537262  0.30776059  1.0
  Ni  Ni978  1  0.94169183  0.01870596  0.30776059  1.0
  Ni  Ni979  1  0.94169183  0.35203929  0.30776059  1.0
  Ni  Ni980  1  0.94169183  0.68537262  0.30776059  1.0
  Ni  Ni981  1  0.10835850  0.26870596  0.37026059  1.0
  Ni  Ni982  1  0.10835850  0.60203929  0.37026059  1.0
  Ni  Ni983  1  0.10835850  0.93537262  0.37026059  1.0
  Ni  Ni984  1  0.44169183  0.26870596  0.37026059  1.0
  Ni  Ni985  1  0.44169183  0.60203929  0.37026059  1.0
  Ni  Ni986  1  0.44169183  0.93537262  0.37026059  1.0
  Ni  Ni987  1  0.77502517  0.26870596  0.37026059  1.0
  Ni  Ni988  1  0.77502517  0.60203929  0.37026059  1.0
  Ni  Ni989  1  0.77502517  0.93537262  0.37026059  1.0
  Ni  Ni990  1  0.00000000  0.26457704  0.28589503  1.0
  Ni  Ni991  1  0.00000000  0.59791037  0.28589503  1.0
  Ni  Ni992  1  0.00000000  0.93124371  0.28589503  1.0
  Ni  Ni993  1  0.33333333  0.26457704  0.28589503  1.0
  Ni  Ni994  1  0.33333333  0.59791037  0.28589503  1.0
  Ni  Ni995  1  0.33333333  0.93124371  0.28589503  1.0
  Ni  Ni996  1  0.66666667  0.26457704  0.28589503  1.0
  Ni  Ni997  1  0.66666667  0.59791037  0.28589503  1.0
  Ni  Ni998  1  0.66666667  0.93124371  0.28589503  1.0
  Ni  Ni999  1  0.16666667  0.18124371  0.34839503  1.0
  Ni  Ni1000  1  0.16666667  0.51457704  0.34839503  1.0
  Ni  Ni1001  1  0.16666667  0.84791037  0.34839503  1.0
  Ni  Ni1002  1  0.50000000  0.18124371  0.34839503  1.0
  Ni  Ni1003  1  0.50000000  0.51457704  0.34839503  1.0
  Ni  Ni1004  1  0.50000000  0.84791037  0.34839503  1.0
  Ni  Ni1005  1  0.83333333  0.18124371  0.34839503  1.0
  Ni  Ni1006  1  0.83333333  0.51457704  0.34839503  1.0
  Ni  Ni1007  1  0.83333333  0.84791037  0.34839503  1.0
  Ni  Ni1008  1  0.00000000  0.21452671  0.32343278  1.0
  Ni  Ni1009  1  0.00000000  0.54786004  0.32343278  1.0
  Ni  Ni1010  1  0.00000000  0.88119337  0.32343278  1.0
  Ni  Ni1011  1  0.33333333  0.21452671  0.32343278  1.0
  Ni  Ni1012  1  0.33333333  0.54786004  0.32343278  1.0
  Ni  Ni1013  1  0.33333333  0.88119337  0.32343278  1.0
  Ni  Ni1014  1  0.66666667  0.21452671  0.32343278  1.0
  Ni  Ni1015  1  0.66666667  0.54786004  0.32343278  1.0
  Ni  Ni1016  1  0.66666667  0.88119337  0.32343278  1.0
  Ni  Ni1017  1  0.16666667  0.29786004  0.26093278  1.0
  Ni  Ni1018  1  0.16666667  0.63119337  0.26093278  1.0
  Ni  Ni1019  1  0.16666667  0.96452671  0.26093278  1.0
  Ni  Ni1020  1  0.50000000  0.29786004  0.26093278  1.0
  Ni  Ni1021  1  0.50000000  0.63119337  0.26093278  1.0
  Ni  Ni1022  1  0.50000000  0.96452671  0.26093278  1.0
  Ni  Ni1023  1  0.83333333  0.29786004  0.26093278  1.0
  Ni  Ni1024  1  0.83333333  0.63119337  0.26093278  1.0
  Ni  Ni1025  1  0.83333333  0.96452671  0.26093278  1.0
  Ni  Ni1026  1  0.10835850  0.04373112  0.36406722  1.0
  Ni  Ni1027  1  0.10835850  0.37706446  0.36406722  1.0
  Ni  Ni1028  1  0.10835850  0.71039779  0.36406722  1.0
  Ni  Ni1029  1  0.44169183  0.04373112  0.36406722  1.0
  Ni  Ni1030  1  0.44169183  0.37706446  0.36406722  1.0
  Ni  Ni1031  1  0.44169183  0.71039779  0.36406722  1.0
  Ni  Ni1032  1  0.77502517  0.04373112  0.36406722  1.0
  Ni  Ni1033  1  0.77502517  0.37706446  0.36406722  1.0
  Ni  Ni1034  1  0.77502517  0.71039779  0.36406722  1.0
  Ni  Ni1035  1  0.27502517  0.12706446  0.30156722  1.0
  Ni  Ni1036  1  0.27502517  0.46039779  0.30156722  1.0
  Ni  Ni1037  1  0.27502517  0.79373112  0.30156722  1.0
  Ni  Ni1038  1  0.60835850  0.12706446  0.30156722  1.0
  Ni  Ni1039  1  0.60835850  0.46039779  0.30156722  1.0
  Ni  Ni1040  1  0.60835850  0.79373112  0.30156722  1.0
  Ni  Ni1041  1  0.94169183  0.12706446  0.30156722  1.0
  Ni  Ni1042  1  0.94169183  0.46039779  0.30156722  1.0
  Ni  Ni1043  1  0.94169183  0.79373112  0.30156722  1.0
  Ni  Ni1044  1  0.05830817  0.01870596  0.30776059  1.0
  Ni  Ni1045  1  0.05830817  0.35203929  0.30776059  1.0
  Ni  Ni1046  1  0.05830817  0.68537262  0.30776059  1.0
  Ni  Ni1047  1  0.39164150  0.01870596  0.30776059  1.0
  Ni  Ni1048  1  0.39164150  0.35203929  0.30776059  1.0
  Ni  Ni1049  1  0.39164150  0.68537262  0.30776059  1.0
  Ni  Ni1050  1  0.72497483  0.01870596  0.30776059  1.0
  Ni  Ni1051  1  0.72497483  0.35203929  0.30776059  1.0
  Ni  Ni1052  1  0.72497483  0.68537262  0.30776059  1.0
  Ni  Ni1053  1  0.22497483  0.26870596  0.37026059  1.0
  Ni  Ni1054  1  0.22497483  0.60203929  0.37026059  1.0
  Ni  Ni1055  1  0.22497483  0.93537262  0.37026059  1.0
  Ni  Ni1056  1  0.55830817  0.26870596  0.37026059  1.0
  Ni  Ni1057  1  0.55830817  0.60203929  0.37026059  1.0
  Ni  Ni1058  1  0.55830817  0.93537262  0.37026059  1.0
  Ni  Ni1059  1  0.89164150  0.26870596  0.37026059  1.0
  Ni  Ni1060  1  0.89164150  0.60203929  0.37026059  1.0
  Ni  Ni1061  1  0.89164150  0.93537262  0.37026059  1.0
  Ni  Ni1062  1  0.22497483  0.04373112  0.36406722  1.0
  Ni  Ni1063  1  0.22497483  0.37706446  0.36406722  1.0
  Ni  Ni1064  1  0.22497483  0.71039779  0.36406722  1.0
  Ni  Ni1065  1  0.55830817  0.04373112  0.36406722  1.0
  Ni  Ni1066  1  0.55830817  0.37706446  0.36406722  1.0
  Ni  Ni1067  1  0.55830817  0.71039779  0.36406722  1.0
  Ni  Ni1068  1  0.89164150  0.04373112  0.36406722  1.0
  Ni  Ni1069  1  0.89164150  0.37706446  0.36406722  1.0
  Ni  Ni1070  1  0.89164150  0.71039779  0.36406722  1.0
  Ni  Ni1071  1  0.05830817  0.12706446  0.30156722  1.0
  Ni  Ni1072  1  0.05830817  0.46039779  0.30156722  1.0
  Ni  Ni1073  1  0.05830817  0.79373112  0.30156722  1.0
  Ni  Ni1074  1  0.39164150  0.12706446  0.30156722  1.0
  Ni  Ni1075  1  0.39164150  0.46039779  0.30156722  1.0
  Ni  Ni1076  1  0.39164150  0.79373112  0.30156722  1.0
  Ni  Ni1077  1  0.72497483  0.12706446  0.30156722  1.0
  Ni  Ni1078  1  0.72497483  0.46039779  0.30156722  1.0
  Ni  Ni1079  1  0.72497483  0.79373112  0.30156722  1.0
