# generated using pymatgen
data_Ga7Ni3
_symmetry_space_group_name_H-M   'P 1'
_cell_length_a   21.99183177
_cell_length_b   55.34489626
_cell_length_c   51.31427413
_cell_angle_alpha   131.47293431
_cell_angle_beta   109.47122063
_cell_angle_gamma   97.61137852
_symmetry_Int_Tables_number   1
_chemical_formula_structural   Ga7Ni3
_chemical_formula_sum   'Ga756 Ni324'
_cell_volume   38209.30200488
_cell_formula_units_Z   108
loop_
 _symmetry_equiv_pos_site_id
 _symmetry_equiv_pos_as_xyz
  1  'x, y, z'
loop_
 _atom_site_type_symbol
 _atom_site_label
 _atom_site_symmetry_multiplicity
 _atom_site_fract_x
 _atom_site_fract_y
 _atom_site_fract_z
 _atom_site_occupancy
  Ga  Ga0  1  0.16666667  0.12500000  0.07858761  1.0
  Ga  Ga1  1  0.16666667  0.45833333  0.07858761  1.0
  Ga  Ga2  1  0.16666667  0.79166667  0.07858761  1.0
  Ga  Ga3  1  0.50000000  0.12500000  0.07858761  1.0
  Ga  Ga4  1  0.50000000  0.45833333  0.07858761  1.0
  Ga  Ga5  1  0.50000000  0.79166667  0.07858761  1.0
  Ga  Ga6  1  0.83333333  0.12500000  0.07858761  1.0
  Ga  Ga7  1  0.83333333  0.45833333  0.07858761  1.0
  Ga  Ga8  1  0.83333333  0.79166667  0.07858761  1.0
  Ga  Ga9  1  0.16666667  0.29166667  0.00715904  1.0
  Ga  Ga10  1  0.16666667  0.62500000  0.00715904  1.0
  Ga  Ga11  1  0.16666667  0.95833333  0.00715904  1.0
  Ga  Ga12  1  0.50000000  0.29166667  0.00715904  1.0
  Ga  Ga13  1  0.50000000  0.62500000  0.00715904  1.0
  Ga  Ga14  1  0.50000000  0.95833333  0.00715904  1.0
  Ga  Ga15  1  0.83333333  0.29166667  0.00715904  1.0
  Ga  Ga16  1  0.83333333  0.62500000  0.00715904  1.0
  Ga  Ga17  1  0.83333333  0.95833333  0.00715904  1.0
  Ga  Ga18  1  0.08333333  0.12500000  0.11430189  1.0
  Ga  Ga19  1  0.08333333  0.45833333  0.11430189  1.0
  Ga  Ga20  1  0.08333333  0.79166667  0.11430189  1.0
  Ga  Ga21  1  0.41666667  0.12500000  0.11430189  1.0
  Ga  Ga22  1  0.41666667  0.45833333  0.11430189  1.0
  Ga  Ga23  1  0.41666667  0.79166667  0.11430189  1.0
  Ga  Ga24  1  0.75000000  0.12500000  0.11430189  1.0
  Ga  Ga25  1  0.75000000  0.45833333  0.11430189  1.0
  Ga  Ga26  1  0.75000000  0.79166667  0.11430189  1.0
  Ga  Ga27  1  0.08333333  0.29166667  0.04287332  1.0
  Ga  Ga28  1  0.08333333  0.62500000  0.04287332  1.0
  Ga  Ga29  1  0.08333333  0.95833333  0.04287332  1.0
  Ga  Ga30  1  0.41666667  0.29166667  0.04287332  1.0
  Ga  Ga31  1  0.41666667  0.62500000  0.04287332  1.0
  Ga  Ga32  1  0.41666667  0.95833333  0.04287332  1.0
  Ga  Ga33  1  0.75000000  0.29166667  0.04287332  1.0
  Ga  Ga34  1  0.75000000  0.62500000  0.04287332  1.0
  Ga  Ga35  1  0.75000000  0.95833333  0.04287332  1.0
  Ga  Ga36  1  0.25000000  0.04166667  0.07858761  1.0
  Ga  Ga37  1  0.25000000  0.37500000  0.07858761  1.0
  Ga  Ga38  1  0.25000000  0.70833333  0.07858761  1.0
  Ga  Ga39  1  0.58333333  0.04166667  0.07858761  1.0
  Ga  Ga40  1  0.58333333  0.37500000  0.07858761  1.0
  Ga  Ga41  1  0.58333333  0.70833333  0.07858761  1.0
  Ga  Ga42  1  0.91666667  0.04166667  0.07858761  1.0
  Ga  Ga43  1  0.91666667  0.37500000  0.07858761  1.0
  Ga  Ga44  1  0.91666667  0.70833333  0.07858761  1.0
  Ga  Ga45  1  0.25000000  0.20833333  0.00715904  1.0
  Ga  Ga46  1  0.25000000  0.54166667  0.00715904  1.0
  Ga  Ga47  1  0.25000000  0.87500000  0.00715904  1.0
  Ga  Ga48  1  0.58333333  0.20833333  0.00715904  1.0
  Ga  Ga49  1  0.58333333  0.54166667  0.00715904  1.0
  Ga  Ga50  1  0.58333333  0.87500000  0.00715904  1.0
  Ga  Ga51  1  0.91666667  0.20833333  0.00715904  1.0
  Ga  Ga52  1  0.91666667  0.54166667  0.00715904  1.0
  Ga  Ga53  1  0.91666667  0.87500000  0.00715904  1.0
  Ga  Ga54  1  0.08333333  0.08333333  0.13215904  1.0
  Ga  Ga55  1  0.08333333  0.41666667  0.13215904  1.0
  Ga  Ga56  1  0.08333333  0.75000000  0.13215904  1.0
  Ga  Ga57  1  0.41666667  0.08333333  0.13215904  1.0
  Ga  Ga58  1  0.41666667  0.41666667  0.13215904  1.0
  Ga  Ga59  1  0.41666667  0.75000000  0.13215904  1.0
  Ga  Ga60  1  0.75000000  0.08333333  0.13215904  1.0
  Ga  Ga61  1  0.75000000  0.41666667  0.13215904  1.0
  Ga  Ga62  1  0.75000000  0.75000000  0.13215904  1.0
  Ga  Ga63  1  0.08333333  0.25000000  0.06073046  1.0
  Ga  Ga64  1  0.08333333  0.58333333  0.06073046  1.0
  Ga  Ga65  1  0.08333333  0.91666667  0.06073046  1.0
  Ga  Ga66  1  0.41666667  0.25000000  0.06073046  1.0
  Ga  Ga67  1  0.41666667  0.58333333  0.06073046  1.0
  Ga  Ga68  1  0.41666667  0.91666667  0.06073046  1.0
  Ga  Ga69  1  0.75000000  0.25000000  0.06073046  1.0
  Ga  Ga70  1  0.75000000  0.58333333  0.06073046  1.0
  Ga  Ga71  1  0.75000000  0.91666667  0.06073046  1.0
  Ga  Ga72  1  0.25000000  0.08333333  0.06073046  1.0
  Ga  Ga73  1  0.25000000  0.41666667  0.06073046  1.0
  Ga  Ga74  1  0.25000000  0.75000000  0.06073046  1.0
  Ga  Ga75  1  0.58333333  0.08333333  0.06073046  1.0
  Ga  Ga76  1  0.58333333  0.41666667  0.06073046  1.0
  Ga  Ga77  1  0.58333333  0.75000000  0.06073046  1.0
  Ga  Ga78  1  0.91666667  0.08333333  0.06073046  1.0
  Ga  Ga79  1  0.91666667  0.41666667  0.06073046  1.0
  Ga  Ga80  1  0.91666667  0.75000000  0.06073046  1.0
  Ga  Ga81  1  0.25000000  0.25000000  0.13215904  1.0
  Ga  Ga82  1  0.25000000  0.58333333  0.13215904  1.0
  Ga  Ga83  1  0.25000000  0.91666667  0.13215904  1.0
  Ga  Ga84  1  0.58333333  0.25000000  0.13215904  1.0
  Ga  Ga85  1  0.58333333  0.58333333  0.13215904  1.0
  Ga  Ga86  1  0.58333333  0.91666667  0.13215904  1.0
  Ga  Ga87  1  0.91666667  0.25000000  0.13215904  1.0
  Ga  Ga88  1  0.91666667  0.58333333  0.13215904  1.0
  Ga  Ga89  1  0.91666667  0.91666667  0.13215904  1.0
  Ga  Ga90  1  0.16666667  0.04166667  0.11430189  1.0
  Ga  Ga91  1  0.16666667  0.37500000  0.11430189  1.0
  Ga  Ga92  1  0.16666667  0.70833333  0.11430189  1.0
  Ga  Ga93  1  0.50000000  0.04166667  0.11430189  1.0
  Ga  Ga94  1  0.50000000  0.37500000  0.11430189  1.0
  Ga  Ga95  1  0.50000000  0.70833333  0.11430189  1.0
  Ga  Ga96  1  0.83333333  0.04166667  0.11430189  1.0
  Ga  Ga97  1  0.83333333  0.37500000  0.11430189  1.0
  Ga  Ga98  1  0.83333333  0.70833333  0.11430189  1.0
  Ga  Ga99  1  0.16666667  0.20833333  0.04287332  1.0
  Ga  Ga100  1  0.16666667  0.54166667  0.04287332  1.0
  Ga  Ga101  1  0.16666667  0.87500000  0.04287332  1.0
  Ga  Ga102  1  0.50000000  0.20833333  0.04287332  1.0
  Ga  Ga103  1  0.50000000  0.54166667  0.04287332  1.0
  Ga  Ga104  1  0.50000000  0.87500000  0.04287332  1.0
  Ga  Ga105  1  0.83333333  0.20833333  0.04287332  1.0
  Ga  Ga106  1  0.83333333  0.54166667  0.04287332  1.0
  Ga  Ga107  1  0.83333333  0.87500000  0.04287332  1.0
  Ga  Ga108  1  0.22560200  0.11280100  0.13433175  1.0
  Ga  Ga109  1  0.22560200  0.44613433  0.13433175  1.0
  Ga  Ga110  1  0.22560200  0.77946767  0.13433175  1.0
  Ga  Ga111  1  0.55893533  0.11280100  0.13433175  1.0
  Ga  Ga112  1  0.55893533  0.44613433  0.13433175  1.0
  Ga  Ga113  1  0.55893533  0.77946767  0.13433175  1.0
  Ga  Ga114  1  0.89226867  0.11280100  0.13433175  1.0
  Ga  Ga115  1  0.89226867  0.44613433  0.13433175  1.0
  Ga  Ga116  1  0.89226867  0.77946767  0.13433175  1.0
  Ga  Ga117  1  0.22560200  0.27946767  0.06290318  1.0
  Ga  Ga118  1  0.22560200  0.61280100  0.06290318  1.0
  Ga  Ga119  1  0.22560200  0.94613433  0.06290318  1.0
  Ga  Ga120  1  0.55893533  0.27946767  0.06290318  1.0
  Ga  Ga121  1  0.55893533  0.61280100  0.06290318  1.0
  Ga  Ga122  1  0.55893533  0.94613433  0.06290318  1.0
  Ga  Ga123  1  0.89226867  0.27946767  0.06290318  1.0
  Ga  Ga124  1  0.89226867  0.61280100  0.06290318  1.0
  Ga  Ga125  1  0.89226867  0.94613433  0.06290318  1.0
  Ga  Ga126  1  0.22560200  0.16666667  0.06073046  1.0
  Ga  Ga127  1  0.22560200  0.50000000  0.06073046  1.0
  Ga  Ga128  1  0.22560200  0.83333333  0.06073046  1.0
  Ga  Ga129  1  0.55893533  0.16666667  0.06073046  1.0
  Ga  Ga130  1  0.55893533  0.50000000  0.06073046  1.0
  Ga  Ga131  1  0.55893533  0.83333333  0.06073046  1.0
  Ga  Ga132  1  0.89226867  0.16666667  0.06073046  1.0
  Ga  Ga133  1  0.89226867  0.50000000  0.06073046  1.0
  Ga  Ga134  1  0.89226867  0.83333333  0.06073046  1.0
  Ga  Ga135  1  0.22560200  0.00000000  0.13215904  1.0
  Ga  Ga136  1  0.22560200  0.33333333  0.13215904  1.0
  Ga  Ga137  1  0.22560200  0.66666667  0.13215904  1.0
  Ga  Ga138  1  0.55893533  0.00000000  0.13215904  1.0
  Ga  Ga139  1  0.55893533  0.33333333  0.13215904  1.0
  Ga  Ga140  1  0.55893533  0.66666667  0.13215904  1.0
  Ga  Ga141  1  0.89226867  0.00000000  0.13215904  1.0
  Ga  Ga142  1  0.89226867  0.33333333  0.13215904  1.0
  Ga  Ga143  1  0.89226867  0.66666667  0.13215904  1.0
  Ga  Ga144  1  0.00000000  0.16666667  0.01455989  1.0
  Ga  Ga145  1  0.00000000  0.50000000  0.01455989  1.0
  Ga  Ga146  1  0.00000000  0.83333333  0.01455989  1.0
  Ga  Ga147  1  0.33333333  0.16666667  0.01455989  1.0
  Ga  Ga148  1  0.33333333  0.50000000  0.01455989  1.0
  Ga  Ga149  1  0.33333333  0.83333333  0.01455989  1.0
  Ga  Ga150  1  0.66666667  0.16666667  0.01455989  1.0
  Ga  Ga151  1  0.66666667  0.50000000  0.01455989  1.0
  Ga  Ga152  1  0.66666667  0.83333333  0.01455989  1.0
  Ga  Ga153  1  0.00000000  0.00000000  0.08598846  1.0
  Ga  Ga154  1  0.00000000  0.33333333  0.08598846  1.0
  Ga  Ga155  1  1.00000000  0.66666667  0.08598846  1.0
  Ga  Ga156  1  0.33333333  0.00000000  0.08598846  1.0
  Ga  Ga157  1  0.33333333  0.33333333  0.08598846  1.0
  Ga  Ga158  1  0.33333333  0.66666667  0.08598846  1.0
  Ga  Ga159  1  0.66666667  0.00000000  0.08598846  1.0
  Ga  Ga160  1  0.66666667  0.33333333  0.08598846  1.0
  Ga  Ga161  1  0.66666667  0.66666667  0.08598846  1.0
  Ga  Ga162  1  0.00000000  0.11280100  0.03764518  1.0
  Ga  Ga163  1  0.00000000  0.44613433  0.03764518  1.0
  Ga  Ga164  1  1.00000000  0.77946767  0.03764518  1.0
  Ga  Ga165  1  0.33333333  0.11280100  0.03764518  1.0
  Ga  Ga166  1  0.33333333  0.44613433  0.03764518  1.0
  Ga  Ga167  1  0.33333333  0.77946767  0.03764518  1.0
  Ga  Ga168  1  0.66666667  0.11280100  0.03764518  1.0
  Ga  Ga169  1  0.66666667  0.44613433  0.03764518  1.0
  Ga  Ga170  1  0.66666667  0.77946767  0.03764518  1.0
  Ga  Ga171  1  0.00000000  0.27946767  0.10907375  1.0
  Ga  Ga172  1  0.00000000  0.61280100  0.10907375  1.0
  Ga  Ga173  1  0.00000000  0.94613433  0.10907375  1.0
  Ga  Ga174  1  0.33333333  0.27946767  0.10907375  1.0
  Ga  Ga175  1  0.33333333  0.61280100  0.10907375  1.0
  Ga  Ga176  1  0.33333333  0.94613433  0.10907375  1.0
  Ga  Ga177  1  0.66666667  0.27946767  0.10907375  1.0
  Ga  Ga178  1  0.66666667  0.61280100  0.10907375  1.0
  Ga  Ga179  1  0.66666667  0.94613433  0.10907375  1.0
  Ga  Ga180  1  0.00000000  0.16666667  0.10690104  1.0
  Ga  Ga181  1  0.00000000  0.50000000  0.10690104  1.0
  Ga  Ga182  1  0.00000000  0.83333333  0.10690104  1.0
  Ga  Ga183  1  0.33333333  0.16666667  0.10690104  1.0
  Ga  Ga184  1  0.33333333  0.50000000  0.10690104  1.0
  Ga  Ga185  1  0.33333333  0.83333333  0.10690104  1.0
  Ga  Ga186  1  0.66666667  0.16666667  0.10690104  1.0
  Ga  Ga187  1  0.66666667  0.50000000  0.10690104  1.0
  Ga  Ga188  1  0.66666667  0.83333333  0.10690104  1.0
  Ga  Ga189  1  0.00000000  0.00000000  0.03547246  1.0
  Ga  Ga190  1  0.00000000  0.33333333  0.03547246  1.0
  Ga  Ga191  1  1.00000000  0.66666667  0.03547246  1.0
  Ga  Ga192  1  0.33333333  0.00000000  0.03547246  1.0
  Ga  Ga193  1  0.33333333  0.33333333  0.03547246  1.0
  Ga  Ga194  1  0.33333333  0.66666667  0.03547246  1.0
  Ga  Ga195  1  0.66666667  0.00000000  0.03547246  1.0
  Ga  Ga196  1  0.66666667  0.33333333  0.03547246  1.0
  Ga  Ga197  1  0.66666667  0.66666667  0.03547246  1.0
  Ga  Ga198  1  0.00000000  0.05386567  0.01238718  1.0
  Ga  Ga199  1  0.00000000  0.38719900  0.01238718  1.0
  Ga  Ga200  1  0.00000000  0.72053233  0.01238718  1.0
  Ga  Ga201  1  0.33333333  0.05386567  0.01238718  1.0
  Ga  Ga202  1  0.33333333  0.38719900  0.01238718  1.0
  Ga  Ga203  1  0.33333333  0.72053233  0.01238718  1.0
  Ga  Ga204  1  0.66666667  0.05386567  0.01238718  1.0
  Ga  Ga205  1  0.66666667  0.38719900  0.01238718  1.0
  Ga  Ga206  1  0.66666667  0.72053233  0.01238718  1.0
  Ga  Ga207  1  0.00000000  0.22053233  0.08381575  1.0
  Ga  Ga208  1  0.00000000  0.55386567  0.08381575  1.0
  Ga  Ga209  1  0.00000000  0.88719900  0.08381575  1.0
  Ga  Ga210  1  0.33333333  0.22053233  0.08381575  1.0
  Ga  Ga211  1  0.33333333  0.55386567  0.08381575  1.0
  Ga  Ga212  1  0.33333333  0.88719900  0.08381575  1.0
  Ga  Ga213  1  0.66666667  0.22053233  0.08381575  1.0
  Ga  Ga214  1  0.66666667  0.55386567  0.08381575  1.0
  Ga  Ga215  1  0.66666667  0.88719900  0.08381575  1.0
  Ga  Ga216  1  0.10773133  0.16666667  0.06073046  1.0
  Ga  Ga217  1  0.10773133  0.50000000  0.06073046  1.0
  Ga  Ga218  1  0.10773133  0.83333333  0.06073046  1.0
  Ga  Ga219  1  0.44106467  0.16666667  0.06073046  1.0
  Ga  Ga220  1  0.44106467  0.50000000  0.06073046  1.0
  Ga  Ga221  1  0.44106467  0.83333333  0.06073046  1.0
  Ga  Ga222  1  0.77439800  0.16666667  0.06073046  1.0
  Ga  Ga223  1  0.77439800  0.50000000  0.06073046  1.0
  Ga  Ga224  1  0.77439800  0.83333333  0.06073046  1.0
  Ga  Ga225  1  0.10773133  0.00000000  0.13215904  1.0
  Ga  Ga226  1  0.10773133  0.33333333  0.13215904  1.0
  Ga  Ga227  1  0.10773133  0.66666667  0.13215904  1.0
  Ga  Ga228  1  0.44106467  0.00000000  0.13215904  1.0
  Ga  Ga229  1  0.44106467  0.33333333  0.13215904  1.0
  Ga  Ga230  1  0.44106467  0.66666667  0.13215904  1.0
  Ga  Ga231  1  0.77439800  0.00000000  0.13215904  1.0
  Ga  Ga232  1  0.77439800  0.33333333  0.13215904  1.0
  Ga  Ga233  1  0.77439800  0.66666667  0.13215904  1.0
  Ga  Ga234  1  0.10773133  0.05386567  0.05855775  1.0
  Ga  Ga235  1  0.10773133  0.38719900  0.05855775  1.0
  Ga  Ga236  1  0.10773133  0.72053233  0.05855775  1.0
  Ga  Ga237  1  0.44106467  0.05386567  0.05855775  1.0
  Ga  Ga238  1  0.44106467  0.38719900  0.05855775  1.0
  Ga  Ga239  1  0.44106467  0.72053233  0.05855775  1.0
  Ga  Ga240  1  0.77439800  0.05386567  0.05855775  1.0
  Ga  Ga241  1  0.77439800  0.38719900  0.05855775  1.0
  Ga  Ga242  1  0.77439800  0.72053233  0.05855775  1.0
  Ga  Ga243  1  0.10773133  0.22053233  0.12998632  1.0
  Ga  Ga244  1  0.10773133  0.55386567  0.12998632  1.0
  Ga  Ga245  1  0.10773133  0.88719900  0.12998632  1.0
  Ga  Ga246  1  0.44106467  0.22053233  0.12998632  1.0
  Ga  Ga247  1  0.44106467  0.55386567  0.12998632  1.0
  Ga  Ga248  1  0.44106467  0.88719900  0.12998632  1.0
  Ga  Ga249  1  0.77439800  0.22053233  0.12998632  1.0
  Ga  Ga250  1  0.77439800  0.55386567  0.12998632  1.0
  Ga  Ga251  1  0.77439800  0.88719900  0.12998632  1.0
  Ni  Ni252  1  0.00000000  0.10835850  0.12861996  1.0
  Ni  Ni253  1  0.00000000  0.44169183  0.12861996  1.0
  Ni  Ni254  1  0.00000000  0.77502517  0.12861996  1.0
  Ni  Ni255  1  0.33333333  0.10835850  0.12861996  1.0
  Ni  Ni256  1  0.33333333  0.44169183  0.12861996  1.0
  Ni  Ni257  1  0.33333333  0.77502517  0.12861996  1.0
  Ni  Ni258  1  0.66666667  0.10835850  0.12861996  1.0
  Ni  Ni259  1  0.66666667  0.44169183  0.12861996  1.0
  Ni  Ni260  1  0.66666667  0.77502517  0.12861996  1.0
  Ni  Ni261  1  0.00000000  0.27502517  0.05719139  1.0
  Ni  Ni262  1  0.00000000  0.60835850  0.05719139  1.0
  Ni  Ni263  1  1.00000000  0.94169183  0.05719139  1.0
  Ni  Ni264  1  0.33333333  0.27502517  0.05719139  1.0
  Ni  Ni265  1  0.33333333  0.60835850  0.05719139  1.0
  Ni  Ni266  1  0.33333333  0.94169183  0.05719139  1.0
  Ni  Ni267  1  0.66666667  0.27502517  0.05719139  1.0
  Ni  Ni268  1  0.66666667  0.60835850  0.05719139  1.0
  Ni  Ni269  1  0.66666667  0.94169183  0.05719139  1.0
  Ni  Ni270  1  0.21671700  0.10835850  0.03574125  1.0
  Ni  Ni271  1  0.21671700  0.44169183  0.03574125  1.0
  Ni  Ni272  1  0.21671700  0.77502517  0.03574125  1.0
  Ni  Ni273  1  0.55005033  0.10835850  0.03574125  1.0
  Ni  Ni274  1  0.55005033  0.44169183  0.03574125  1.0
  Ni  Ni275  1  0.55005033  0.77502517  0.03574125  1.0
  Ni  Ni276  1  0.88338367  0.10835850  0.03574125  1.0
  Ni  Ni277  1  0.88338367  0.44169183  0.03574125  1.0
  Ni  Ni278  1  0.88338367  0.77502517  0.03574125  1.0
  Ni  Ni279  1  0.21671700  0.27502517  0.10716982  1.0
  Ni  Ni280  1  0.21671700  0.60835850  0.10716982  1.0
  Ni  Ni281  1  0.21671700  0.94169183  0.10716982  1.0
  Ni  Ni282  1  0.55005033  0.27502517  0.10716982  1.0
  Ni  Ni283  1  0.55005033  0.60835850  0.10716982  1.0
  Ni  Ni284  1  0.55005033  0.94169183  0.10716982  1.0
  Ni  Ni285  1  0.88338367  0.27502517  0.10716982  1.0
  Ni  Ni286  1  0.88338367  0.60835850  0.10716982  1.0
  Ni  Ni287  1  0.88338367  0.94169183  0.10716982  1.0
  Ni  Ni288  1  0.11661633  0.05830817  0.01429111  1.0
  Ni  Ni289  1  0.11661633  0.39164150  0.01429111  1.0
  Ni  Ni290  1  0.11661633  0.72497483  0.01429111  1.0
  Ni  Ni291  1  0.44994967  0.05830817  0.01429111  1.0
  Ni  Ni292  1  0.44994967  0.39164150  0.01429111  1.0
  Ni  Ni293  1  0.44994967  0.72497483  0.01429111  1.0
  Ni  Ni294  1  0.78328300  0.05830817  0.01429111  1.0
  Ni  Ni295  1  0.78328300  0.39164150  0.01429111  1.0
  Ni  Ni296  1  0.78328300  0.72497483  0.01429111  1.0
  Ni  Ni297  1  0.11661633  0.22497483  0.08571968  1.0
  Ni  Ni298  1  0.11661633  0.55830817  0.08571968  1.0
  Ni  Ni299  1  0.11661633  0.89164150  0.08571968  1.0
  Ni  Ni300  1  0.44994967  0.22497483  0.08571968  1.0
  Ni  Ni301  1  0.44994967  0.55830817  0.08571968  1.0
  Ni  Ni302  1  0.44994967  0.89164150  0.08571968  1.0
  Ni  Ni303  1  0.78328300  0.22497483  0.08571968  1.0
  Ni  Ni304  1  0.78328300  0.55830817  0.08571968  1.0
  Ni  Ni305  1  0.78328300  0.89164150  0.08571968  1.0
  Ni  Ni306  1  0.11661633  0.16666667  0.11070889  1.0
  Ni  Ni307  1  0.11661633  0.50000000  0.11070889  1.0
  Ni  Ni308  1  0.11661633  0.83333333  0.11070889  1.0
  Ni  Ni309  1  0.44994967  0.16666667  0.11070889  1.0
  Ni  Ni310  1  0.44994967  0.50000000  0.11070889  1.0
  Ni  Ni311  1  0.44994967  0.83333333  0.11070889  1.0
  Ni  Ni312  1  0.78328300  0.16666667  0.11070889  1.0
  Ni  Ni313  1  0.78328300  0.50000000  0.11070889  1.0
  Ni  Ni314  1  0.78328300  0.83333333  0.11070889  1.0
  Ni  Ni315  1  0.11661633  0.00000000  0.03928032  1.0
  Ni  Ni316  1  0.11661633  0.33333333  0.03928032  1.0
  Ni  Ni317  1  0.11661633  0.66666667  0.03928032  1.0
  Ni  Ni318  1  0.44994967  0.00000000  0.03928032  1.0
  Ni  Ni319  1  0.44994967  0.33333333  0.03928032  1.0
  Ni  Ni320  1  0.44994967  0.66666667  0.03928032  1.0
  Ni  Ni321  1  0.78328300  0.00000000  0.03928032  1.0
  Ni  Ni322  1  0.78328300  0.33333333  0.03928032  1.0
  Ni  Ni323  1  0.78328300  0.66666667  0.03928032  1.0
  Ni  Ni324  1  0.21671700  0.16666667  0.01075204  1.0
  Ni  Ni325  1  0.21671700  0.50000000  0.01075204  1.0
  Ni  Ni326  1  0.21671700  0.83333333  0.01075204  1.0
  Ni  Ni327  1  0.55005033  0.16666667  0.01075204  1.0
  Ni  Ni328  1  0.55005033  0.50000000  0.01075204  1.0
  Ni  Ni329  1  0.55005033  0.83333333  0.01075204  1.0
  Ni  Ni330  1  0.88338367  0.16666667  0.01075204  1.0
  Ni  Ni331  1  0.88338367  0.50000000  0.01075204  1.0
  Ni  Ni332  1  0.88338367  0.83333333  0.01075204  1.0
  Ni  Ni333  1  0.21671700  0.00000000  0.08218061  1.0
  Ni  Ni334  1  0.21671700  0.33333333  0.08218061  1.0
  Ni  Ni335  1  0.21671700  0.66666667  0.08218061  1.0
  Ni  Ni336  1  0.55005033  0.00000000  0.08218061  1.0
  Ni  Ni337  1  0.55005033  0.33333333  0.08218061  1.0
  Ni  Ni338  1  0.55005033  0.66666667  0.08218061  1.0
  Ni  Ni339  1  0.88338367  0.00000000  0.08218061  1.0
  Ni  Ni340  1  0.88338367  0.33333333  0.08218061  1.0
  Ni  Ni341  1  0.88338367  0.66666667  0.08218061  1.0
  Ni  Ni342  1  0.00000000  0.05830817  0.06426954  1.0
  Ni  Ni343  1  0.00000000  0.39164150  0.06426954  1.0
  Ni  Ni344  1  1.00000000  0.72497483  0.06426954  1.0
  Ni  Ni345  1  0.33333333  0.05830817  0.06426954  1.0
  Ni  Ni346  1  0.33333333  0.39164150  0.06426954  1.0
  Ni  Ni347  1  0.33333333  0.72497483  0.06426954  1.0
  Ni  Ni348  1  0.66666667  0.05830817  0.06426954  1.0
  Ni  Ni349  1  0.66666667  0.39164150  0.06426954  1.0
  Ni  Ni350  1  0.66666667  0.72497483  0.06426954  1.0
  Ni  Ni351  1  0.00000000  0.22497483  0.13569811  1.0
  Ni  Ni352  1  0.00000000  0.55830817  0.13569811  1.0
  Ni  Ni353  1  0.00000000  0.89164150  0.13569811  1.0
  Ni  Ni354  1  0.33333333  0.22497483  0.13569811  1.0
  Ni  Ni355  1  0.33333333  0.55830817  0.13569811  1.0
  Ni  Ni356  1  0.33333333  0.89164150  0.13569811  1.0
  Ni  Ni357  1  0.66666667  0.22497483  0.13569811  1.0
  Ni  Ni358  1  0.66666667  0.55830817  0.13569811  1.0
  Ni  Ni359  1  0.66666667  0.89164150  0.13569811  1.0
  Ga  Ga360  1  0.16666667  0.12500000  0.22144475  1.0
  Ga  Ga361  1  0.16666667  0.45833333  0.22144475  1.0
  Ga  Ga362  1  0.16666667  0.79166667  0.22144475  1.0
  Ga  Ga363  1  0.50000000  0.12500000  0.22144475  1.0
  Ga  Ga364  1  0.50000000  0.45833333  0.22144475  1.0
  Ga  Ga365  1  0.50000000  0.79166667  0.22144475  1.0
  Ga  Ga366  1  0.83333333  0.12500000  0.22144475  1.0
  Ga  Ga367  1  0.83333333  0.45833333  0.22144475  1.0
  Ga  Ga368  1  0.83333333  0.79166667  0.22144475  1.0
  Ga  Ga369  1  0.16666667  0.29166667  0.15001618  1.0
  Ga  Ga370  1  0.16666667  0.62500000  0.15001618  1.0
  Ga  Ga371  1  0.16666667  0.95833333  0.15001618  1.0
  Ga  Ga372  1  0.50000000  0.29166667  0.15001618  1.0
  Ga  Ga373  1  0.50000000  0.62500000  0.15001618  1.0
  Ga  Ga374  1  0.50000000  0.95833333  0.15001618  1.0
  Ga  Ga375  1  0.83333333  0.29166667  0.15001618  1.0
  Ga  Ga376  1  0.83333333  0.62500000  0.15001618  1.0
  Ga  Ga377  1  0.83333333  0.95833333  0.15001618  1.0
  Ga  Ga378  1  0.08333333  0.12500000  0.25715904  1.0
  Ga  Ga379  1  0.08333333  0.45833333  0.25715904  1.0
  Ga  Ga380  1  0.08333333  0.79166667  0.25715904  1.0
  Ga  Ga381  1  0.41666667  0.12500000  0.25715904  1.0
  Ga  Ga382  1  0.41666667  0.45833333  0.25715904  1.0
  Ga  Ga383  1  0.41666667  0.79166667  0.25715904  1.0
  Ga  Ga384  1  0.75000000  0.12500000  0.25715904  1.0
  Ga  Ga385  1  0.75000000  0.45833333  0.25715904  1.0
  Ga  Ga386  1  0.75000000  0.79166667  0.25715904  1.0
  Ga  Ga387  1  0.08333333  0.29166667  0.18573046  1.0
  Ga  Ga388  1  0.08333333  0.62500000  0.18573046  1.0
  Ga  Ga389  1  0.08333333  0.95833333  0.18573046  1.0
  Ga  Ga390  1  0.41666667  0.29166667  0.18573046  1.0
  Ga  Ga391  1  0.41666667  0.62500000  0.18573046  1.0
  Ga  Ga392  1  0.41666667  0.95833333  0.18573046  1.0
  Ga  Ga393  1  0.75000000  0.29166667  0.18573046  1.0
  Ga  Ga394  1  0.75000000  0.62500000  0.18573046  1.0
  Ga  Ga395  1  0.75000000  0.95833333  0.18573046  1.0
  Ga  Ga396  1  0.25000000  0.04166667  0.22144475  1.0
  Ga  Ga397  1  0.25000000  0.37500000  0.22144475  1.0
  Ga  Ga398  1  0.25000000  0.70833333  0.22144475  1.0
  Ga  Ga399  1  0.58333333  0.04166667  0.22144475  1.0
  Ga  Ga400  1  0.58333333  0.37500000  0.22144475  1.0
  Ga  Ga401  1  0.58333333  0.70833333  0.22144475  1.0
  Ga  Ga402  1  0.91666667  0.04166667  0.22144475  1.0
  Ga  Ga403  1  0.91666667  0.37500000  0.22144475  1.0
  Ga  Ga404  1  0.91666667  0.70833333  0.22144475  1.0
  Ga  Ga405  1  0.25000000  0.20833333  0.15001618  1.0
  Ga  Ga406  1  0.25000000  0.54166667  0.15001618  1.0
  Ga  Ga407  1  0.25000000  0.87500000  0.15001618  1.0
  Ga  Ga408  1  0.58333333  0.20833333  0.15001618  1.0
  Ga  Ga409  1  0.58333333  0.54166667  0.15001618  1.0
  Ga  Ga410  1  0.58333333  0.87500000  0.15001618  1.0
  Ga  Ga411  1  0.91666667  0.20833333  0.15001618  1.0
  Ga  Ga412  1  0.91666667  0.54166667  0.15001618  1.0
  Ga  Ga413  1  0.91666667  0.87500000  0.15001618  1.0
  Ga  Ga414  1  0.08333333  0.08333333  0.27501618  1.0
  Ga  Ga415  1  0.08333333  0.41666667  0.27501618  1.0
  Ga  Ga416  1  0.08333333  0.75000000  0.27501618  1.0
  Ga  Ga417  1  0.41666667  0.08333333  0.27501618  1.0
  Ga  Ga418  1  0.41666667  0.41666667  0.27501618  1.0
  Ga  Ga419  1  0.41666667  0.75000000  0.27501618  1.0
  Ga  Ga420  1  0.75000000  0.08333333  0.27501618  1.0
  Ga  Ga421  1  0.75000000  0.41666667  0.27501618  1.0
  Ga  Ga422  1  0.75000000  0.75000000  0.27501618  1.0
  Ga  Ga423  1  0.08333333  0.25000000  0.20358761  1.0
  Ga  Ga424  1  0.08333333  0.58333333  0.20358761  1.0
  Ga  Ga425  1  0.08333333  0.91666667  0.20358761  1.0
  Ga  Ga426  1  0.41666667  0.25000000  0.20358761  1.0
  Ga  Ga427  1  0.41666667  0.58333333  0.20358761  1.0
  Ga  Ga428  1  0.41666667  0.91666667  0.20358761  1.0
  Ga  Ga429  1  0.75000000  0.25000000  0.20358761  1.0
  Ga  Ga430  1  0.75000000  0.58333333  0.20358761  1.0
  Ga  Ga431  1  0.75000000  0.91666667  0.20358761  1.0
  Ga  Ga432  1  0.25000000  0.08333333  0.20358761  1.0
  Ga  Ga433  1  0.25000000  0.41666667  0.20358761  1.0
  Ga  Ga434  1  0.25000000  0.75000000  0.20358761  1.0
  Ga  Ga435  1  0.58333333  0.08333333  0.20358761  1.0
  Ga  Ga436  1  0.58333333  0.41666667  0.20358761  1.0
  Ga  Ga437  1  0.58333333  0.75000000  0.20358761  1.0
  Ga  Ga438  1  0.91666667  0.08333333  0.20358761  1.0
  Ga  Ga439  1  0.91666667  0.41666667  0.20358761  1.0
  Ga  Ga440  1  0.91666667  0.75000000  0.20358761  1.0
  Ga  Ga441  1  0.25000000  0.25000000  0.27501618  1.0
  Ga  Ga442  1  0.25000000  0.58333333  0.27501618  1.0
  Ga  Ga443  1  0.25000000  0.91666667  0.27501618  1.0
  Ga  Ga444  1  0.58333333  0.25000000  0.27501618  1.0
  Ga  Ga445  1  0.58333333  0.58333333  0.27501618  1.0
  Ga  Ga446  1  0.58333333  0.91666667  0.27501618  1.0
  Ga  Ga447  1  0.91666667  0.25000000  0.27501618  1.0
  Ga  Ga448  1  0.91666667  0.58333333  0.27501618  1.0
  Ga  Ga449  1  0.91666667  0.91666667  0.27501618  1.0
  Ga  Ga450  1  0.16666667  0.04166667  0.25715904  1.0
  Ga  Ga451  1  0.16666667  0.37500000  0.25715904  1.0
  Ga  Ga452  1  0.16666667  0.70833333  0.25715904  1.0
  Ga  Ga453  1  0.50000000  0.04166667  0.25715904  1.0
  Ga  Ga454  1  0.50000000  0.37500000  0.25715904  1.0
  Ga  Ga455  1  0.50000000  0.70833333  0.25715904  1.0
  Ga  Ga456  1  0.83333333  0.04166667  0.25715904  1.0
  Ga  Ga457  1  0.83333333  0.37500000  0.25715904  1.0
  Ga  Ga458  1  0.83333333  0.70833333  0.25715904  1.0
  Ga  Ga459  1  0.16666667  0.20833333  0.18573046  1.0
  Ga  Ga460  1  0.16666667  0.54166667  0.18573046  1.0
  Ga  Ga461  1  0.16666667  0.87500000  0.18573046  1.0
  Ga  Ga462  1  0.50000000  0.20833333  0.18573046  1.0
  Ga  Ga463  1  0.50000000  0.54166667  0.18573046  1.0
  Ga  Ga464  1  0.50000000  0.87500000  0.18573046  1.0
  Ga  Ga465  1  0.83333333  0.20833333  0.18573046  1.0
  Ga  Ga466  1  0.83333333  0.54166667  0.18573046  1.0
  Ga  Ga467  1  0.83333333  0.87500000  0.18573046  1.0
  Ga  Ga468  1  0.22560200  0.11280100  0.27718889  1.0
  Ga  Ga469  1  0.22560200  0.44613433  0.27718889  1.0
  Ga  Ga470  1  0.22560200  0.77946767  0.27718889  1.0
  Ga  Ga471  1  0.55893533  0.11280100  0.27718889  1.0
  Ga  Ga472  1  0.55893533  0.44613433  0.27718889  1.0
  Ga  Ga473  1  0.55893533  0.77946767  0.27718889  1.0
  Ga  Ga474  1  0.89226867  0.11280100  0.27718889  1.0
  Ga  Ga475  1  0.89226867  0.44613433  0.27718889  1.0
  Ga  Ga476  1  0.89226867  0.77946767  0.27718889  1.0
  Ga  Ga477  1  0.22560200  0.27946767  0.20576032  1.0
  Ga  Ga478  1  0.22560200  0.61280100  0.20576032  1.0
  Ga  Ga479  1  0.22560200  0.94613433  0.20576032  1.0
  Ga  Ga480  1  0.55893533  0.27946767  0.20576032  1.0
  Ga  Ga481  1  0.55893533  0.61280100  0.20576032  1.0
  Ga  Ga482  1  0.55893533  0.94613433  0.20576032  1.0
  Ga  Ga483  1  0.89226867  0.27946767  0.20576032  1.0
  Ga  Ga484  1  0.89226867  0.61280100  0.20576032  1.0
  Ga  Ga485  1  0.89226867  0.94613433  0.20576032  1.0
  Ga  Ga486  1  0.22560200  0.16666667  0.20358761  1.0
  Ga  Ga487  1  0.22560200  0.50000000  0.20358761  1.0
  Ga  Ga488  1  0.22560200  0.83333333  0.20358761  1.0
  Ga  Ga489  1  0.55893533  0.16666667  0.20358761  1.0
  Ga  Ga490  1  0.55893533  0.50000000  0.20358761  1.0
  Ga  Ga491  1  0.55893533  0.83333333  0.20358761  1.0
  Ga  Ga492  1  0.89226867  0.16666667  0.20358761  1.0
  Ga  Ga493  1  0.89226867  0.50000000  0.20358761  1.0
  Ga  Ga494  1  0.89226867  0.83333333  0.20358761  1.0
  Ga  Ga495  1  0.22560200  0.00000000  0.27501618  1.0
  Ga  Ga496  1  0.22560200  0.33333333  0.27501618  1.0
  Ga  Ga497  1  0.22560200  0.66666667  0.27501618  1.0
  Ga  Ga498  1  0.55893533  0.00000000  0.27501618  1.0
  Ga  Ga499  1  0.55893533  0.33333333  0.27501618  1.0
  Ga  Ga500  1  0.55893533  0.66666667  0.27501618  1.0
  Ga  Ga501  1  0.89226867  0.00000000  0.27501618  1.0
  Ga  Ga502  1  0.89226867  0.33333333  0.27501618  1.0
  Ga  Ga503  1  0.89226867  0.66666667  0.27501618  1.0
  Ga  Ga504  1  0.00000000  0.16666667  0.15741704  1.0
  Ga  Ga505  1  0.00000000  0.50000000  0.15741704  1.0
  Ga  Ga506  1  0.00000000  0.83333333  0.15741704  1.0
  Ga  Ga507  1  0.33333333  0.16666667  0.15741704  1.0
  Ga  Ga508  1  0.33333333  0.50000000  0.15741704  1.0
  Ga  Ga509  1  0.33333333  0.83333333  0.15741704  1.0
  Ga  Ga510  1  0.66666667  0.16666667  0.15741704  1.0
  Ga  Ga511  1  0.66666667  0.50000000  0.15741704  1.0
  Ga  Ga512  1  0.66666667  0.83333333  0.15741704  1.0
  Ga  Ga513  1  0.00000000  0.00000000  0.22884561  1.0
  Ga  Ga514  1  0.00000000  0.33333333  0.22884561  1.0
  Ga  Ga515  1  1.00000000  0.66666667  0.22884561  1.0
  Ga  Ga516  1  0.33333333  0.00000000  0.22884561  1.0
  Ga  Ga517  1  0.33333333  0.33333333  0.22884561  1.0
  Ga  Ga518  1  0.33333333  0.66666667  0.22884561  1.0
  Ga  Ga519  1  0.66666667  0.00000000  0.22884561  1.0
  Ga  Ga520  1  0.66666667  0.33333333  0.22884561  1.0
  Ga  Ga521  1  0.66666667  0.66666667  0.22884561  1.0
  Ga  Ga522  1  0.00000000  0.11280100  0.18050232  1.0
  Ga  Ga523  1  0.00000000  0.44613433  0.18050232  1.0
  Ga  Ga524  1  1.00000000  0.77946767  0.18050232  1.0
  Ga  Ga525  1  0.33333333  0.11280100  0.18050232  1.0
  Ga  Ga526  1  0.33333333  0.44613433  0.18050232  1.0
  Ga  Ga527  1  0.33333333  0.77946767  0.18050232  1.0
  Ga  Ga528  1  0.66666667  0.11280100  0.18050232  1.0
  Ga  Ga529  1  0.66666667  0.44613433  0.18050232  1.0
  Ga  Ga530  1  0.66666667  0.77946767  0.18050232  1.0
  Ga  Ga531  1  0.00000000  0.27946767  0.25193089  1.0
  Ga  Ga532  1  0.00000000  0.61280100  0.25193089  1.0
  Ga  Ga533  1  0.00000000  0.94613433  0.25193089  1.0
  Ga  Ga534  1  0.33333333  0.27946767  0.25193089  1.0
  Ga  Ga535  1  0.33333333  0.61280100  0.25193089  1.0
  Ga  Ga536  1  0.33333333  0.94613433  0.25193089  1.0
  Ga  Ga537  1  0.66666667  0.27946767  0.25193089  1.0
  Ga  Ga538  1  0.66666667  0.61280100  0.25193089  1.0
  Ga  Ga539  1  0.66666667  0.94613433  0.25193089  1.0
  Ga  Ga540  1  0.00000000  0.16666667  0.24975818  1.0
  Ga  Ga541  1  0.00000000  0.50000000  0.24975818  1.0
  Ga  Ga542  1  0.00000000  0.83333333  0.24975818  1.0
  Ga  Ga543  1  0.33333333  0.16666667  0.24975818  1.0
  Ga  Ga544  1  0.33333333  0.50000000  0.24975818  1.0
  Ga  Ga545  1  0.33333333  0.83333333  0.24975818  1.0
  Ga  Ga546  1  0.66666667  0.16666667  0.24975818  1.0
  Ga  Ga547  1  0.66666667  0.50000000  0.24975818  1.0
  Ga  Ga548  1  0.66666667  0.83333333  0.24975818  1.0
  Ga  Ga549  1  0.00000000  0.00000000  0.17832961  1.0
  Ga  Ga550  1  0.00000000  0.33333333  0.17832961  1.0
  Ga  Ga551  1  1.00000000  0.66666667  0.17832961  1.0
  Ga  Ga552  1  0.33333333  0.00000000  0.17832961  1.0
  Ga  Ga553  1  0.33333333  0.33333333  0.17832961  1.0
  Ga  Ga554  1  0.33333333  0.66666667  0.17832961  1.0
  Ga  Ga555  1  0.66666667  0.00000000  0.17832961  1.0
  Ga  Ga556  1  0.66666667  0.33333333  0.17832961  1.0
  Ga  Ga557  1  0.66666667  0.66666667  0.17832961  1.0
  Ga  Ga558  1  0.00000000  0.05386567  0.15524432  1.0
  Ga  Ga559  1  0.00000000  0.38719900  0.15524432  1.0
  Ga  Ga560  1  0.00000000  0.72053233  0.15524432  1.0
  Ga  Ga561  1  0.33333333  0.05386567  0.15524432  1.0
  Ga  Ga562  1  0.33333333  0.38719900  0.15524432  1.0
  Ga  Ga563  1  0.33333333  0.72053233  0.15524432  1.0
  Ga  Ga564  1  0.66666667  0.05386567  0.15524432  1.0
  Ga  Ga565  1  0.66666667  0.38719900  0.15524432  1.0
  Ga  Ga566  1  0.66666667  0.72053233  0.15524432  1.0
  Ga  Ga567  1  0.00000000  0.22053233  0.22667289  1.0
  Ga  Ga568  1  0.00000000  0.55386567  0.22667289  1.0
  Ga  Ga569  1  0.00000000  0.88719900  0.22667289  1.0
  Ga  Ga570  1  0.33333333  0.22053233  0.22667289  1.0
  Ga  Ga571  1  0.33333333  0.55386567  0.22667289  1.0
  Ga  Ga572  1  0.33333333  0.88719900  0.22667289  1.0
  Ga  Ga573  1  0.66666667  0.22053233  0.22667289  1.0
  Ga  Ga574  1  0.66666667  0.55386567  0.22667289  1.0
  Ga  Ga575  1  0.66666667  0.88719900  0.22667289  1.0
  Ga  Ga576  1  0.10773133  0.16666667  0.20358761  1.0
  Ga  Ga577  1  0.10773133  0.50000000  0.20358761  1.0
  Ga  Ga578  1  0.10773133  0.83333333  0.20358761  1.0
  Ga  Ga579  1  0.44106467  0.16666667  0.20358761  1.0
  Ga  Ga580  1  0.44106467  0.50000000  0.20358761  1.0
  Ga  Ga581  1  0.44106467  0.83333333  0.20358761  1.0
  Ga  Ga582  1  0.77439800  0.16666667  0.20358761  1.0
  Ga  Ga583  1  0.77439800  0.50000000  0.20358761  1.0
  Ga  Ga584  1  0.77439800  0.83333333  0.20358761  1.0
  Ga  Ga585  1  0.10773133  0.00000000  0.27501618  1.0
  Ga  Ga586  1  0.10773133  0.33333333  0.27501618  1.0
  Ga  Ga587  1  0.10773133  0.66666667  0.27501618  1.0
  Ga  Ga588  1  0.44106467  0.00000000  0.27501618  1.0
  Ga  Ga589  1  0.44106467  0.33333333  0.27501618  1.0
  Ga  Ga590  1  0.44106467  0.66666667  0.27501618  1.0
  Ga  Ga591  1  0.77439800  0.00000000  0.27501618  1.0
  Ga  Ga592  1  0.77439800  0.33333333  0.27501618  1.0
  Ga  Ga593  1  0.77439800  0.66666667  0.27501618  1.0
  Ga  Ga594  1  0.10773133  0.05386567  0.20141489  1.0
  Ga  Ga595  1  0.10773133  0.38719900  0.20141489  1.0
  Ga  Ga596  1  0.10773133  0.72053233  0.20141489  1.0
  Ga  Ga597  1  0.44106467  0.05386567  0.20141489  1.0
  Ga  Ga598  1  0.44106467  0.38719900  0.20141489  1.0
  Ga  Ga599  1  0.44106467  0.72053233  0.20141489  1.0
  Ga  Ga600  1  0.77439800  0.05386567  0.20141489  1.0
  Ga  Ga601  1  0.77439800  0.38719900  0.20141489  1.0
  Ga  Ga602  1  0.77439800  0.72053233  0.20141489  1.0
  Ga  Ga603  1  0.10773133  0.22053233  0.27284346  1.0
  Ga  Ga604  1  0.10773133  0.55386567  0.27284346  1.0
  Ga  Ga605  1  0.10773133  0.88719900  0.27284346  1.0
  Ga  Ga606  1  0.44106467  0.22053233  0.27284346  1.0
  Ga  Ga607  1  0.44106467  0.55386567  0.27284346  1.0
  Ga  Ga608  1  0.44106467  0.88719900  0.27284346  1.0
  Ga  Ga609  1  0.77439800  0.22053233  0.27284346  1.0
  Ga  Ga610  1  0.77439800  0.55386567  0.27284346  1.0
  Ga  Ga611  1  0.77439800  0.88719900  0.27284346  1.0
  Ni  Ni612  1  0.00000000  0.10835850  0.27147711  1.0
  Ni  Ni613  1  0.00000000  0.44169183  0.27147711  1.0
  Ni  Ni614  1  0.00000000  0.77502517  0.27147711  1.0
  Ni  Ni615  1  0.33333333  0.10835850  0.27147711  1.0
  Ni  Ni616  1  0.33333333  0.44169183  0.27147711  1.0
  Ni  Ni617  1  0.33333333  0.77502517  0.27147711  1.0
  Ni  Ni618  1  0.66666667  0.10835850  0.27147711  1.0
  Ni  Ni619  1  0.66666667  0.44169183  0.27147711  1.0
  Ni  Ni620  1  0.66666667  0.77502517  0.27147711  1.0
  Ni  Ni621  1  0.00000000  0.27502517  0.20004854  1.0
  Ni  Ni622  1  0.00000000  0.60835850  0.20004854  1.0
  Ni  Ni623  1  1.00000000  0.94169183  0.20004854  1.0
  Ni  Ni624  1  0.33333333  0.27502517  0.20004854  1.0
  Ni  Ni625  1  0.33333333  0.60835850  0.20004854  1.0
  Ni  Ni626  1  0.33333333  0.94169183  0.20004854  1.0
  Ni  Ni627  1  0.66666667  0.27502517  0.20004854  1.0
  Ni  Ni628  1  0.66666667  0.60835850  0.20004854  1.0
  Ni  Ni629  1  0.66666667  0.94169183  0.20004854  1.0
  Ni  Ni630  1  0.21671700  0.10835850  0.17859839  1.0
  Ni  Ni631  1  0.21671700  0.44169183  0.17859839  1.0
  Ni  Ni632  1  0.21671700  0.77502517  0.17859839  1.0
  Ni  Ni633  1  0.55005033  0.10835850  0.17859839  1.0
  Ni  Ni634  1  0.55005033  0.44169183  0.17859839  1.0
  Ni  Ni635  1  0.55005033  0.77502517  0.17859839  1.0
  Ni  Ni636  1  0.88338367  0.10835850  0.17859839  1.0
  Ni  Ni637  1  0.88338367  0.44169183  0.17859839  1.0
  Ni  Ni638  1  0.88338367  0.77502517  0.17859839  1.0
  Ni  Ni639  1  0.21671700  0.27502517  0.25002696  1.0
  Ni  Ni640  1  0.21671700  0.60835850  0.25002696  1.0
  Ni  Ni641  1  0.21671700  0.94169183  0.25002696  1.0
  Ni  Ni642  1  0.55005033  0.27502517  0.25002696  1.0
  Ni  Ni643  1  0.55005033  0.60835850  0.25002696  1.0
  Ni  Ni644  1  0.55005033  0.94169183  0.25002696  1.0
  Ni  Ni645  1  0.88338367  0.27502517  0.25002696  1.0
  Ni  Ni646  1  0.88338367  0.60835850  0.25002696  1.0
  Ni  Ni647  1  0.88338367  0.94169183  0.25002696  1.0
  Ni  Ni648  1  0.11661633  0.05830817  0.15714825  1.0
  Ni  Ni649  1  0.11661633  0.39164150  0.15714825  1.0
  Ni  Ni650  1  0.11661633  0.72497483  0.15714825  1.0
  Ni  Ni651  1  0.44994967  0.05830817  0.15714825  1.0
  Ni  Ni652  1  0.44994967  0.39164150  0.15714825  1.0
  Ni  Ni653  1  0.44994967  0.72497483  0.15714825  1.0
  Ni  Ni654  1  0.78328300  0.05830817  0.15714825  1.0
  Ni  Ni655  1  0.78328300  0.39164150  0.15714825  1.0
  Ni  Ni656  1  0.78328300  0.72497483  0.15714825  1.0
  Ni  Ni657  1  0.11661633  0.22497483  0.22857682  1.0
  Ni  Ni658  1  0.11661633  0.55830817  0.22857682  1.0
  Ni  Ni659  1  0.11661633  0.89164150  0.22857682  1.0
  Ni  Ni660  1  0.44994967  0.22497483  0.22857682  1.0
  Ni  Ni661  1  0.44994967  0.55830817  0.22857682  1.0
  Ni  Ni662  1  0.44994967  0.89164150  0.22857682  1.0
  Ni  Ni663  1  0.78328300  0.22497483  0.22857682  1.0
  Ni  Ni664  1  0.78328300  0.55830817  0.22857682  1.0
  Ni  Ni665  1  0.78328300  0.89164150  0.22857682  1.0
  Ni  Ni666  1  0.11661633  0.16666667  0.25356604  1.0
  Ni  Ni667  1  0.11661633  0.50000000  0.25356604  1.0
  Ni  Ni668  1  0.11661633  0.83333333  0.25356604  1.0
  Ni  Ni669  1  0.44994967  0.16666667  0.25356604  1.0
  Ni  Ni670  1  0.44994967  0.50000000  0.25356604  1.0
  Ni  Ni671  1  0.44994967  0.83333333  0.25356604  1.0
  Ni  Ni672  1  0.78328300  0.16666667  0.25356604  1.0
  Ni  Ni673  1  0.78328300  0.50000000  0.25356604  1.0
  Ni  Ni674  1  0.78328300  0.83333333  0.25356604  1.0
  Ni  Ni675  1  0.11661633  0.00000000  0.18213746  1.0
  Ni  Ni676  1  0.11661633  0.33333333  0.18213746  1.0
  Ni  Ni677  1  0.11661633  0.66666667  0.18213746  1.0
  Ni  Ni678  1  0.44994967  0.00000000  0.18213746  1.0
  Ni  Ni679  1  0.44994967  0.33333333  0.18213746  1.0
  Ni  Ni680  1  0.44994967  0.66666667  0.18213746  1.0
  Ni  Ni681  1  0.78328300  0.00000000  0.18213746  1.0
  Ni  Ni682  1  0.78328300  0.33333333  0.18213746  1.0
  Ni  Ni683  1  0.78328300  0.66666667  0.18213746  1.0
  Ni  Ni684  1  0.21671700  0.16666667  0.15360918  1.0
  Ni  Ni685  1  0.21671700  0.50000000  0.15360918  1.0
  Ni  Ni686  1  0.21671700  0.83333333  0.15360918  1.0
  Ni  Ni687  1  0.55005033  0.16666667  0.15360918  1.0
  Ni  Ni688  1  0.55005033  0.50000000  0.15360918  1.0
  Ni  Ni689  1  0.55005033  0.83333333  0.15360918  1.0
  Ni  Ni690  1  0.88338367  0.16666667  0.15360918  1.0
  Ni  Ni691  1  0.88338367  0.50000000  0.15360918  1.0
  Ni  Ni692  1  0.88338367  0.83333333  0.15360918  1.0
  Ni  Ni693  1  0.21671700  0.00000000  0.22503775  1.0
  Ni  Ni694  1  0.21671700  0.33333333  0.22503775  1.0
  Ni  Ni695  1  0.21671700  0.66666667  0.22503775  1.0
  Ni  Ni696  1  0.55005033  0.00000000  0.22503775  1.0
  Ni  Ni697  1  0.55005033  0.33333333  0.22503775  1.0
  Ni  Ni698  1  0.55005033  0.66666667  0.22503775  1.0
  Ni  Ni699  1  0.88338367  0.00000000  0.22503775  1.0
  Ni  Ni700  1  0.88338367  0.33333333  0.22503775  1.0
  Ni  Ni701  1  0.88338367  0.66666667  0.22503775  1.0
  Ni  Ni702  1  0.00000000  0.05830817  0.20712668  1.0
  Ni  Ni703  1  0.00000000  0.39164150  0.20712668  1.0
  Ni  Ni704  1  1.00000000  0.72497483  0.20712668  1.0
  Ni  Ni705  1  0.33333333  0.05830817  0.20712668  1.0
  Ni  Ni706  1  0.33333333  0.39164150  0.20712668  1.0
  Ni  Ni707  1  0.33333333  0.72497483  0.20712668  1.0
  Ni  Ni708  1  0.66666667  0.05830817  0.20712668  1.0
  Ni  Ni709  1  0.66666667  0.39164150  0.20712668  1.0
  Ni  Ni710  1  0.66666667  0.72497483  0.20712668  1.0
  Ni  Ni711  1  0.00000000  0.22497483  0.27855525  1.0
  Ni  Ni712  1  0.00000000  0.55830817  0.27855525  1.0
  Ni  Ni713  1  0.00000000  0.89164150  0.27855525  1.0
  Ni  Ni714  1  0.33333333  0.22497483  0.27855525  1.0
  Ni  Ni715  1  0.33333333  0.55830817  0.27855525  1.0
  Ni  Ni716  1  0.33333333  0.89164150  0.27855525  1.0
  Ni  Ni717  1  0.66666667  0.22497483  0.27855525  1.0
  Ni  Ni718  1  0.66666667  0.55830817  0.27855525  1.0
  Ni  Ni719  1  0.66666667  0.89164150  0.27855525  1.0
  Ga  Ga720  1  0.16666667  0.12500000  0.36430189  1.0
  Ga  Ga721  1  0.16666667  0.45833333  0.36430189  1.0
  Ga  Ga722  1  0.16666667  0.79166667  0.36430189  1.0
  Ga  Ga723  1  0.50000000  0.12500000  0.36430189  1.0
  Ga  Ga724  1  0.50000000  0.45833333  0.36430189  1.0
  Ga  Ga725  1  0.50000000  0.79166667  0.36430189  1.0
  Ga  Ga726  1  0.83333333  0.12500000  0.36430189  1.0
  Ga  Ga727  1  0.83333333  0.45833333  0.36430189  1.0
  Ga  Ga728  1  0.83333333  0.79166667  0.36430189  1.0
  Ga  Ga729  1  0.16666667  0.29166667  0.29287332  1.0
  Ga  Ga730  1  0.16666667  0.62500000  0.29287332  1.0
  Ga  Ga731  1  0.16666667  0.95833333  0.29287332  1.0
  Ga  Ga732  1  0.50000000  0.29166667  0.29287332  1.0
  Ga  Ga733  1  0.50000000  0.62500000  0.29287332  1.0
  Ga  Ga734  1  0.50000000  0.95833333  0.29287332  1.0
  Ga  Ga735  1  0.83333333  0.29166667  0.29287332  1.0
  Ga  Ga736  1  0.83333333  0.62500000  0.29287332  1.0
  Ga  Ga737  1  0.83333333  0.95833333  0.29287332  1.0
  Ga  Ga738  1  0.08333333  0.12500000  0.40001618  1.0
  Ga  Ga739  1  0.08333333  0.45833333  0.40001618  1.0
  Ga  Ga740  1  0.08333333  0.79166667  0.40001618  1.0
  Ga  Ga741  1  0.41666667  0.12500000  0.40001618  1.0
  Ga  Ga742  1  0.41666667  0.45833333  0.40001618  1.0
  Ga  Ga743  1  0.41666667  0.79166667  0.40001618  1.0
  Ga  Ga744  1  0.75000000  0.12500000  0.40001618  1.0
  Ga  Ga745  1  0.75000000  0.45833333  0.40001618  1.0
  Ga  Ga746  1  0.75000000  0.79166667  0.40001618  1.0
  Ga  Ga747  1  0.08333333  0.29166667  0.32858761  1.0
  Ga  Ga748  1  0.08333333  0.62500000  0.32858761  1.0
  Ga  Ga749  1  0.08333333  0.95833333  0.32858761  1.0
  Ga  Ga750  1  0.41666667  0.29166667  0.32858761  1.0
  Ga  Ga751  1  0.41666667  0.62500000  0.32858761  1.0
  Ga  Ga752  1  0.41666667  0.95833333  0.32858761  1.0
  Ga  Ga753  1  0.75000000  0.29166667  0.32858761  1.0
  Ga  Ga754  1  0.75000000  0.62500000  0.32858761  1.0
  Ga  Ga755  1  0.75000000  0.95833333  0.32858761  1.0
  Ga  Ga756  1  0.25000000  0.04166667  0.36430189  1.0
  Ga  Ga757  1  0.25000000  0.37500000  0.36430189  1.0
  Ga  Ga758  1  0.25000000  0.70833333  0.36430189  1.0
  Ga  Ga759  1  0.58333333  0.04166667  0.36430189  1.0
  Ga  Ga760  1  0.58333333  0.37500000  0.36430189  1.0
  Ga  Ga761  1  0.58333333  0.70833333  0.36430189  1.0
  Ga  Ga762  1  0.91666667  0.04166667  0.36430189  1.0
  Ga  Ga763  1  0.91666667  0.37500000  0.36430189  1.0
  Ga  Ga764  1  0.91666667  0.70833333  0.36430189  1.0
  Ga  Ga765  1  0.25000000  0.20833333  0.29287332  1.0
  Ga  Ga766  1  0.25000000  0.54166667  0.29287332  1.0
  Ga  Ga767  1  0.25000000  0.87500000  0.29287332  1.0
  Ga  Ga768  1  0.58333333  0.20833333  0.29287332  1.0
  Ga  Ga769  1  0.58333333  0.54166667  0.29287332  1.0
  Ga  Ga770  1  0.58333333  0.87500000  0.29287332  1.0
  Ga  Ga771  1  0.91666667  0.20833333  0.29287332  1.0
  Ga  Ga772  1  0.91666667  0.54166667  0.29287332  1.0
  Ga  Ga773  1  0.91666667  0.87500000  0.29287332  1.0
  Ga  Ga774  1  0.08333333  0.08333333  0.41787332  1.0
  Ga  Ga775  1  0.08333333  0.41666667  0.41787332  1.0
  Ga  Ga776  1  0.08333333  0.75000000  0.41787332  1.0
  Ga  Ga777  1  0.41666667  0.08333333  0.41787332  1.0
  Ga  Ga778  1  0.41666667  0.41666667  0.41787332  1.0
  Ga  Ga779  1  0.41666667  0.75000000  0.41787332  1.0
  Ga  Ga780  1  0.75000000  0.08333333  0.41787332  1.0
  Ga  Ga781  1  0.75000000  0.41666667  0.41787332  1.0
  Ga  Ga782  1  0.75000000  0.75000000  0.41787332  1.0
  Ga  Ga783  1  0.08333333  0.25000000  0.34644475  1.0
  Ga  Ga784  1  0.08333333  0.58333333  0.34644475  1.0
  Ga  Ga785  1  0.08333333  0.91666667  0.34644475  1.0
  Ga  Ga786  1  0.41666667  0.25000000  0.34644475  1.0
  Ga  Ga787  1  0.41666667  0.58333333  0.34644475  1.0
  Ga  Ga788  1  0.41666667  0.91666667  0.34644475  1.0
  Ga  Ga789  1  0.75000000  0.25000000  0.34644475  1.0
  Ga  Ga790  1  0.75000000  0.58333333  0.34644475  1.0
  Ga  Ga791  1  0.75000000  0.91666667  0.34644475  1.0
  Ga  Ga792  1  0.25000000  0.08333333  0.34644475  1.0
  Ga  Ga793  1  0.25000000  0.41666667  0.34644475  1.0
  Ga  Ga794  1  0.25000000  0.75000000  0.34644475  1.0
  Ga  Ga795  1  0.58333333  0.08333333  0.34644475  1.0
  Ga  Ga796  1  0.58333333  0.41666667  0.34644475  1.0
  Ga  Ga797  1  0.58333333  0.75000000  0.34644475  1.0
  Ga  Ga798  1  0.91666667  0.08333333  0.34644475  1.0
  Ga  Ga799  1  0.91666667  0.41666667  0.34644475  1.0
  Ga  Ga800  1  0.91666667  0.75000000  0.34644475  1.0
  Ga  Ga801  1  0.25000000  0.25000000  0.41787332  1.0
  Ga  Ga802  1  0.25000000  0.58333333  0.41787332  1.0
  Ga  Ga803  1  0.25000000  0.91666667  0.41787332  1.0
  Ga  Ga804  1  0.58333333  0.25000000  0.41787332  1.0
  Ga  Ga805  1  0.58333333  0.58333333  0.41787332  1.0
  Ga  Ga806  1  0.58333333  0.91666667  0.41787332  1.0
  Ga  Ga807  1  0.91666667  0.25000000  0.41787332  1.0
  Ga  Ga808  1  0.91666667  0.58333333  0.41787332  1.0
  Ga  Ga809  1  0.91666667  0.91666667  0.41787332  1.0
  Ga  Ga810  1  0.16666667  0.04166667  0.40001618  1.0
  Ga  Ga811  1  0.16666667  0.37500000  0.40001618  1.0
  Ga  Ga812  1  0.16666667  0.70833333  0.40001618  1.0
  Ga  Ga813  1  0.50000000  0.04166667  0.40001618  1.0
  Ga  Ga814  1  0.50000000  0.37500000  0.40001618  1.0
  Ga  Ga815  1  0.50000000  0.70833333  0.40001618  1.0
  Ga  Ga816  1  0.83333333  0.04166667  0.40001618  1.0
  Ga  Ga817  1  0.83333333  0.37500000  0.40001618  1.0
  Ga  Ga818  1  0.83333333  0.70833333  0.40001618  1.0
  Ga  Ga819  1  0.16666667  0.20833333  0.32858761  1.0
  Ga  Ga820  1  0.16666667  0.54166667  0.32858761  1.0
  Ga  Ga821  1  0.16666667  0.87500000  0.32858761  1.0
  Ga  Ga822  1  0.50000000  0.20833333  0.32858761  1.0
  Ga  Ga823  1  0.50000000  0.54166667  0.32858761  1.0
  Ga  Ga824  1  0.50000000  0.87500000  0.32858761  1.0
  Ga  Ga825  1  0.83333333  0.20833333  0.32858761  1.0
  Ga  Ga826  1  0.83333333  0.54166667  0.32858761  1.0
  Ga  Ga827  1  0.83333333  0.87500000  0.32858761  1.0
  Ga  Ga828  1  0.22560200  0.11280100  0.42004604  1.0
  Ga  Ga829  1  0.22560200  0.44613433  0.42004604  1.0
  Ga  Ga830  1  0.22560200  0.77946767  0.42004604  1.0
  Ga  Ga831  1  0.55893533  0.11280100  0.42004604  1.0
  Ga  Ga832  1  0.55893533  0.44613433  0.42004604  1.0
  Ga  Ga833  1  0.55893533  0.77946767  0.42004604  1.0
  Ga  Ga834  1  0.89226867  0.11280100  0.42004604  1.0
  Ga  Ga835  1  0.89226867  0.44613433  0.42004604  1.0
  Ga  Ga836  1  0.89226867  0.77946767  0.42004604  1.0
  Ga  Ga837  1  0.22560200  0.27946767  0.34861746  1.0
  Ga  Ga838  1  0.22560200  0.61280100  0.34861746  1.0
  Ga  Ga839  1  0.22560200  0.94613433  0.34861746  1.0
  Ga  Ga840  1  0.55893533  0.27946767  0.34861746  1.0
  Ga  Ga841  1  0.55893533  0.61280100  0.34861746  1.0
  Ga  Ga842  1  0.55893533  0.94613433  0.34861746  1.0
  Ga  Ga843  1  0.89226867  0.27946767  0.34861746  1.0
  Ga  Ga844  1  0.89226867  0.61280100  0.34861746  1.0
  Ga  Ga845  1  0.89226867  0.94613433  0.34861746  1.0
  Ga  Ga846  1  0.22560200  0.16666667  0.34644475  1.0
  Ga  Ga847  1  0.22560200  0.50000000  0.34644475  1.0
  Ga  Ga848  1  0.22560200  0.83333333  0.34644475  1.0
  Ga  Ga849  1  0.55893533  0.16666667  0.34644475  1.0
  Ga  Ga850  1  0.55893533  0.50000000  0.34644475  1.0
  Ga  Ga851  1  0.55893533  0.83333333  0.34644475  1.0
  Ga  Ga852  1  0.89226867  0.16666667  0.34644475  1.0
  Ga  Ga853  1  0.89226867  0.50000000  0.34644475  1.0
  Ga  Ga854  1  0.89226867  0.83333333  0.34644475  1.0
  Ga  Ga855  1  0.22560200  0.00000000  0.41787332  1.0
  Ga  Ga856  1  0.22560200  0.33333333  0.41787332  1.0
  Ga  Ga857  1  0.22560200  0.66666667  0.41787332  1.0
  Ga  Ga858  1  0.55893533  0.00000000  0.41787332  1.0
  Ga  Ga859  1  0.55893533  0.33333333  0.41787332  1.0
  Ga  Ga860  1  0.55893533  0.66666667  0.41787332  1.0
  Ga  Ga861  1  0.89226867  0.00000000  0.41787332  1.0
  Ga  Ga862  1  0.89226867  0.33333333  0.41787332  1.0
  Ga  Ga863  1  0.89226867  0.66666667  0.41787332  1.0
  Ga  Ga864  1  0.00000000  0.16666667  0.30027418  1.0
  Ga  Ga865  1  0.00000000  0.50000000  0.30027418  1.0
  Ga  Ga866  1  0.00000000  0.83333333  0.30027418  1.0
  Ga  Ga867  1  0.33333333  0.16666667  0.30027418  1.0
  Ga  Ga868  1  0.33333333  0.50000000  0.30027418  1.0
  Ga  Ga869  1  0.33333333  0.83333333  0.30027418  1.0
  Ga  Ga870  1  0.66666667  0.16666667  0.30027418  1.0
  Ga  Ga871  1  0.66666667  0.50000000  0.30027418  1.0
  Ga  Ga872  1  0.66666667  0.83333333  0.30027418  1.0
  Ga  Ga873  1  0.00000000  0.00000000  0.37170275  1.0
  Ga  Ga874  1  0.00000000  0.33333333  0.37170275  1.0
  Ga  Ga875  1  1.00000000  0.66666667  0.37170275  1.0
  Ga  Ga876  1  0.33333333  0.00000000  0.37170275  1.0
  Ga  Ga877  1  0.33333333  0.33333333  0.37170275  1.0
  Ga  Ga878  1  0.33333333  0.66666667  0.37170275  1.0
  Ga  Ga879  1  0.66666667  0.00000000  0.37170275  1.0
  Ga  Ga880  1  0.66666667  0.33333333  0.37170275  1.0
  Ga  Ga881  1  0.66666667  0.66666667  0.37170275  1.0
  Ga  Ga882  1  0.00000000  0.11280100  0.32335946  1.0
  Ga  Ga883  1  0.00000000  0.44613433  0.32335946  1.0
  Ga  Ga884  1  1.00000000  0.77946767  0.32335946  1.0
  Ga  Ga885  1  0.33333333  0.11280100  0.32335946  1.0
  Ga  Ga886  1  0.33333333  0.44613433  0.32335946  1.0
  Ga  Ga887  1  0.33333333  0.77946767  0.32335946  1.0
  Ga  Ga888  1  0.66666667  0.11280100  0.32335946  1.0
  Ga  Ga889  1  0.66666667  0.44613433  0.32335946  1.0
  Ga  Ga890  1  0.66666667  0.77946767  0.32335946  1.0
  Ga  Ga891  1  0.00000000  0.27946767  0.39478804  1.0
  Ga  Ga892  1  0.00000000  0.61280100  0.39478804  1.0
  Ga  Ga893  1  0.00000000  0.94613433  0.39478804  1.0
  Ga  Ga894  1  0.33333333  0.27946767  0.39478804  1.0
  Ga  Ga895  1  0.33333333  0.61280100  0.39478804  1.0
  Ga  Ga896  1  0.33333333  0.94613433  0.39478804  1.0
  Ga  Ga897  1  0.66666667  0.27946767  0.39478804  1.0
  Ga  Ga898  1  0.66666667  0.61280100  0.39478804  1.0
  Ga  Ga899  1  0.66666667  0.94613433  0.39478804  1.0
  Ga  Ga900  1  0.00000000  0.16666667  0.39261532  1.0
  Ga  Ga901  1  0.00000000  0.50000000  0.39261532  1.0
  Ga  Ga902  1  0.00000000  0.83333333  0.39261532  1.0
  Ga  Ga903  1  0.33333333  0.16666667  0.39261532  1.0
  Ga  Ga904  1  0.33333333  0.50000000  0.39261532  1.0
  Ga  Ga905  1  0.33333333  0.83333333  0.39261532  1.0
  Ga  Ga906  1  0.66666667  0.16666667  0.39261532  1.0
  Ga  Ga907  1  0.66666667  0.50000000  0.39261532  1.0
  Ga  Ga908  1  0.66666667  0.83333333  0.39261532  1.0
  Ga  Ga909  1  0.00000000  0.00000000  0.32118675  1.0
  Ga  Ga910  1  0.00000000  0.33333333  0.32118675  1.0
  Ga  Ga911  1  1.00000000  0.66666667  0.32118675  1.0
  Ga  Ga912  1  0.33333333  0.00000000  0.32118675  1.0
  Ga  Ga913  1  0.33333333  0.33333333  0.32118675  1.0
  Ga  Ga914  1  0.33333333  0.66666667  0.32118675  1.0
  Ga  Ga915  1  0.66666667  0.00000000  0.32118675  1.0
  Ga  Ga916  1  0.66666667  0.33333333  0.32118675  1.0
  Ga  Ga917  1  0.66666667  0.66666667  0.32118675  1.0
  Ga  Ga918  1  0.00000000  0.05386567  0.29810146  1.0
  Ga  Ga919  1  0.00000000  0.38719900  0.29810146  1.0
  Ga  Ga920  1  0.00000000  0.72053233  0.29810146  1.0
  Ga  Ga921  1  0.33333333  0.05386567  0.29810146  1.0
  Ga  Ga922  1  0.33333333  0.38719900  0.29810146  1.0
  Ga  Ga923  1  0.33333333  0.72053233  0.29810146  1.0
  Ga  Ga924  1  0.66666667  0.05386567  0.29810146  1.0
  Ga  Ga925  1  0.66666667  0.38719900  0.29810146  1.0
  Ga  Ga926  1  0.66666667  0.72053233  0.29810146  1.0
  Ga  Ga927  1  0.00000000  0.22053233  0.36953004  1.0
  Ga  Ga928  1  0.00000000  0.55386567  0.36953004  1.0
  Ga  Ga929  1  0.00000000  0.88719900  0.36953004  1.0
  Ga  Ga930  1  0.33333333  0.22053233  0.36953004  1.0
  Ga  Ga931  1  0.33333333  0.55386567  0.36953004  1.0
  Ga  Ga932  1  0.33333333  0.88719900  0.36953004  1.0
  Ga  Ga933  1  0.66666667  0.22053233  0.36953004  1.0
  Ga  Ga934  1  0.66666667  0.55386567  0.36953004  1.0
  Ga  Ga935  1  0.66666667  0.88719900  0.36953004  1.0
  Ga  Ga936  1  0.10773133  0.16666667  0.34644475  1.0
  Ga  Ga937  1  0.10773133  0.50000000  0.34644475  1.0
  Ga  Ga938  1  0.10773133  0.83333333  0.34644475  1.0
  Ga  Ga939  1  0.44106467  0.16666667  0.34644475  1.0
  Ga  Ga940  1  0.44106467  0.50000000  0.34644475  1.0
  Ga  Ga941  1  0.44106467  0.83333333  0.34644475  1.0
  Ga  Ga942  1  0.77439800  0.16666667  0.34644475  1.0
  Ga  Ga943  1  0.77439800  0.50000000  0.34644475  1.0
  Ga  Ga944  1  0.77439800  0.83333333  0.34644475  1.0
  Ga  Ga945  1  0.10773133  0.00000000  0.41787332  1.0
  Ga  Ga946  1  0.10773133  0.33333333  0.41787332  1.0
  Ga  Ga947  1  0.10773133  0.66666667  0.41787332  1.0
  Ga  Ga948  1  0.44106467  0.00000000  0.41787332  1.0
  Ga  Ga949  1  0.44106467  0.33333333  0.41787332  1.0
  Ga  Ga950  1  0.44106467  0.66666667  0.41787332  1.0
  Ga  Ga951  1  0.77439800  0.00000000  0.41787332  1.0
  Ga  Ga952  1  0.77439800  0.33333333  0.41787332  1.0
  Ga  Ga953  1  0.77439800  0.66666667  0.41787332  1.0
  Ga  Ga954  1  0.10773133  0.05386567  0.34427204  1.0
  Ga  Ga955  1  0.10773133  0.38719900  0.34427204  1.0
  Ga  Ga956  1  0.10773133  0.72053233  0.34427204  1.0
  Ga  Ga957  1  0.44106467  0.05386567  0.34427204  1.0
  Ga  Ga958  1  0.44106467  0.38719900  0.34427204  1.0
  Ga  Ga959  1  0.44106467  0.72053233  0.34427204  1.0
  Ga  Ga960  1  0.77439800  0.05386567  0.34427204  1.0
  Ga  Ga961  1  0.77439800  0.38719900  0.34427204  1.0
  Ga  Ga962  1  0.77439800  0.72053233  0.34427204  1.0
  Ga  Ga963  1  0.10773133  0.22053233  0.41570061  1.0
  Ga  Ga964  1  0.10773133  0.55386567  0.41570061  1.0
  Ga  Ga965  1  0.10773133  0.88719900  0.41570061  1.0
  Ga  Ga966  1  0.44106467  0.22053233  0.41570061  1.0
  Ga  Ga967  1  0.44106467  0.55386567  0.41570061  1.0
  Ga  Ga968  1  0.44106467  0.88719900  0.41570061  1.0
  Ga  Ga969  1  0.77439800  0.22053233  0.41570061  1.0
  Ga  Ga970  1  0.77439800  0.55386567  0.41570061  1.0
  Ga  Ga971  1  0.77439800  0.88719900  0.41570061  1.0
  Ni  Ni972  1  0.00000000  0.10835850  0.41433425  1.0
  Ni  Ni973  1  0.00000000  0.44169183  0.41433425  1.0
  Ni  Ni974  1  0.00000000  0.77502517  0.41433425  1.0
  Ni  Ni975  1  0.33333333  0.10835850  0.41433425  1.0
  Ni  Ni976  1  0.33333333  0.44169183  0.41433425  1.0
  Ni  Ni977  1  0.33333333  0.77502517  0.41433425  1.0
  Ni  Ni978  1  0.66666667  0.10835850  0.41433425  1.0
  Ni  Ni979  1  0.66666667  0.44169183  0.41433425  1.0
  Ni  Ni980  1  0.66666667  0.77502517  0.41433425  1.0
  Ni  Ni981  1  0.00000000  0.27502517  0.34290568  1.0
  Ni  Ni982  1  0.00000000  0.60835850  0.34290568  1.0
  Ni  Ni983  1  1.00000000  0.94169183  0.34290568  1.0
  Ni  Ni984  1  0.33333333  0.27502517  0.34290568  1.0
  Ni  Ni985  1  0.33333333  0.60835850  0.34290568  1.0
  Ni  Ni986  1  0.33333333  0.94169183  0.34290568  1.0
  Ni  Ni987  1  0.66666667  0.27502517  0.34290568  1.0
  Ni  Ni988  1  0.66666667  0.60835850  0.34290568  1.0
  Ni  Ni989  1  0.66666667  0.94169183  0.34290568  1.0
  Ni  Ni990  1  0.21671700  0.10835850  0.32145554  1.0
  Ni  Ni991  1  0.21671700  0.44169183  0.32145554  1.0
  Ni  Ni992  1  0.21671700  0.77502517  0.32145554  1.0
  Ni  Ni993  1  0.55005033  0.10835850  0.32145554  1.0
  Ni  Ni994  1  0.55005033  0.44169183  0.32145554  1.0
  Ni  Ni995  1  0.55005033  0.77502517  0.32145554  1.0
  Ni  Ni996  1  0.88338367  0.10835850  0.32145554  1.0
  Ni  Ni997  1  0.88338367  0.44169183  0.32145554  1.0
  Ni  Ni998  1  0.88338367  0.77502517  0.32145554  1.0
  Ni  Ni999  1  0.21671700  0.27502517  0.39288411  1.0
  Ni  Ni1000  1  0.21671700  0.60835850  0.39288411  1.0
  Ni  Ni1001  1  0.21671700  0.94169183  0.39288411  1.0
  Ni  Ni1002  1  0.55005033  0.27502517  0.39288411  1.0
  Ni  Ni1003  1  0.55005033  0.60835850  0.39288411  1.0
  Ni  Ni1004  1  0.55005033  0.94169183  0.39288411  1.0
  Ni  Ni1005  1  0.88338367  0.27502517  0.39288411  1.0
  Ni  Ni1006  1  0.88338367  0.60835850  0.39288411  1.0
  Ni  Ni1007  1  0.88338367  0.94169183  0.39288411  1.0
  Ni  Ni1008  1  0.11661633  0.05830817  0.30000539  1.0
  Ni  Ni1009  1  0.11661633  0.39164150  0.30000539  1.0
  Ni  Ni1010  1  0.11661633  0.72497483  0.30000539  1.0
  Ni  Ni1011  1  0.44994967  0.05830817  0.30000539  1.0
  Ni  Ni1012  1  0.44994967  0.39164150  0.30000539  1.0
  Ni  Ni1013  1  0.44994967  0.72497483  0.30000539  1.0
  Ni  Ni1014  1  0.78328300  0.05830817  0.30000539  1.0
  Ni  Ni1015  1  0.78328300  0.39164150  0.30000539  1.0
  Ni  Ni1016  1  0.78328300  0.72497483  0.30000539  1.0
  Ni  Ni1017  1  0.11661633  0.22497483  0.37143396  1.0
  Ni  Ni1018  1  0.11661633  0.55830817  0.37143396  1.0
  Ni  Ni1019  1  0.11661633  0.89164150  0.37143396  1.0
  Ni  Ni1020  1  0.44994967  0.22497483  0.37143396  1.0
  Ni  Ni1021  1  0.44994967  0.55830817  0.37143396  1.0
  Ni  Ni1022  1  0.44994967  0.89164150  0.37143396  1.0
  Ni  Ni1023  1  0.78328300  0.22497483  0.37143396  1.0
  Ni  Ni1024  1  0.78328300  0.55830817  0.37143396  1.0
  Ni  Ni1025  1  0.78328300  0.89164150  0.37143396  1.0
  Ni  Ni1026  1  0.11661633  0.16666667  0.39642318  1.0
  Ni  Ni1027  1  0.11661633  0.50000000  0.39642318  1.0
  Ni  Ni1028  1  0.11661633  0.83333333  0.39642318  1.0
  Ni  Ni1029  1  0.44994967  0.16666667  0.39642318  1.0
  Ni  Ni1030  1  0.44994967  0.50000000  0.39642318  1.0
  Ni  Ni1031  1  0.44994967  0.83333333  0.39642318  1.0
  Ni  Ni1032  1  0.78328300  0.16666667  0.39642318  1.0
  Ni  Ni1033  1  0.78328300  0.50000000  0.39642318  1.0
  Ni  Ni1034  1  0.78328300  0.83333333  0.39642318  1.0
  Ni  Ni1035  1  0.11661633  0.00000000  0.32499461  1.0
  Ni  Ni1036  1  0.11661633  0.33333333  0.32499461  1.0
  Ni  Ni1037  1  0.11661633  0.66666667  0.32499461  1.0
  Ni  Ni1038  1  0.44994967  0.00000000  0.32499461  1.0
  Ni  Ni1039  1  0.44994967  0.33333333  0.32499461  1.0
  Ni  Ni1040  1  0.44994967  0.66666667  0.32499461  1.0
  Ni  Ni1041  1  0.78328300  0.00000000  0.32499461  1.0
  Ni  Ni1042  1  0.78328300  0.33333333  0.32499461  1.0
  Ni  Ni1043  1  0.78328300  0.66666667  0.32499461  1.0
  Ni  Ni1044  1  0.21671700  0.16666667  0.29646632  1.0
  Ni  Ni1045  1  0.21671700  0.50000000  0.29646632  1.0
  Ni  Ni1046  1  0.21671700  0.83333333  0.29646632  1.0
  Ni  Ni1047  1  0.55005033  0.16666667  0.29646632  1.0
  Ni  Ni1048  1  0.55005033  0.50000000  0.29646632  1.0
  Ni  Ni1049  1  0.55005033  0.83333333  0.29646632  1.0
  Ni  Ni1050  1  0.88338367  0.16666667  0.29646632  1.0
  Ni  Ni1051  1  0.88338367  0.50000000  0.29646632  1.0
  Ni  Ni1052  1  0.88338367  0.83333333  0.29646632  1.0
  Ni  Ni1053  1  0.21671700  0.00000000  0.36789489  1.0
  Ni  Ni1054  1  0.21671700  0.33333333  0.36789489  1.0
  Ni  Ni1055  1  0.21671700  0.66666667  0.36789489  1.0
  Ni  Ni1056  1  0.55005033  0.00000000  0.36789489  1.0
  Ni  Ni1057  1  0.55005033  0.33333333  0.36789489  1.0
  Ni  Ni1058  1  0.55005033  0.66666667  0.36789489  1.0
  Ni  Ni1059  1  0.88338367  0.00000000  0.36789489  1.0
  Ni  Ni1060  1  0.88338367  0.33333333  0.36789489  1.0
  Ni  Ni1061  1  0.88338367  0.66666667  0.36789489  1.0
  Ni  Ni1062  1  0.00000000  0.05830817  0.34998382  1.0
  Ni  Ni1063  1  0.00000000  0.39164150  0.34998382  1.0
  Ni  Ni1064  1  1.00000000  0.72497483  0.34998382  1.0
  Ni  Ni1065  1  0.33333333  0.05830817  0.34998382  1.0
  Ni  Ni1066  1  0.33333333  0.39164150  0.34998382  1.0
  Ni  Ni1067  1  0.33333333  0.72497483  0.34998382  1.0
  Ni  Ni1068  1  0.66666667  0.05830817  0.34998382  1.0
  Ni  Ni1069  1  0.66666667  0.39164150  0.34998382  1.0
  Ni  Ni1070  1  0.66666667  0.72497483  0.34998382  1.0
  Ni  Ni1071  1  0.00000000  0.22497483  0.42141239  1.0
  Ni  Ni1072  1  0.00000000  0.55830817  0.42141239  1.0
  Ni  Ni1073  1  0.00000000  0.89164150  0.42141239  1.0
  Ni  Ni1074  1  0.33333333  0.22497483  0.42141239  1.0
  Ni  Ni1075  1  0.33333333  0.55830817  0.42141239  1.0
  Ni  Ni1076  1  0.33333333  0.89164150  0.42141239  1.0
  Ni  Ni1077  1  0.66666667  0.22497483  0.42141239  1.0
  Ni  Ni1078  1  0.66666667  0.55830817  0.42141239  1.0
  Ni  Ni1079  1  0.66666667  0.89164150  0.42141239  1.0
