# generated using pymatgen
data_Ga9Ni13
_symmetry_space_group_name_H-M   'P 1'
_cell_length_a   34.76666456
_cell_length_b   38.12226974
_cell_length_c   29.00359550
_cell_angle_alpha   96.32938573
_cell_angle_beta   92.04033812
_cell_angle_gamma   116.30486937
_symmetry_Int_Tables_number   1
_chemical_formula_structural   Ga9Ni13
_chemical_formula_sum   'Ga486 Ni702'
_cell_volume   34096.02915152
_cell_formula_units_Z   54
loop_
 _symmetry_equiv_pos_site_id
 _symmetry_equiv_pos_as_xyz
  1  'x, y, z'
loop_
 _atom_site_type_symbol
 _atom_site_label
 _atom_site_symmetry_multiplicity
 _atom_site_fract_x
 _atom_site_fract_y
 _atom_site_fract_z
 _atom_site_occupancy
  Ga  Ga0  1  0.08199818  0.08660167  0.89241218  1.0
  Ga  Ga1  1  0.08199818  0.41993500  0.89241218  1.0
  Ga  Ga2  1  0.08199818  0.75326833  0.89241218  1.0
  Ga  Ga3  1  0.41533151  0.08660167  0.89241218  1.0
  Ga  Ga4  1  0.41533151  0.41993500  0.89241218  1.0
  Ga  Ga5  1  0.41533151  0.75326833  0.89241218  1.0
  Ga  Ga6  1  0.74866485  0.08660167  0.89241218  1.0
  Ga  Ga7  1  0.74866485  0.41993500  0.89241218  1.0
  Ga  Ga8  1  0.74866485  0.75326833  0.89241218  1.0
  Ga  Ga9  1  0.32009342  0.25326833  0.96384075  1.0
  Ga  Ga10  1  0.32009342  0.58660167  0.96384075  1.0
  Ga  Ga11  1  0.32009342  0.91993500  0.96384075  1.0
  Ga  Ga12  1  0.65342675  0.25326833  0.96384075  1.0
  Ga  Ga13  1  0.65342675  0.58660167  0.96384075  1.0
  Ga  Ga14  1  0.65342675  0.91993500  0.96384075  1.0
  Ga  Ga15  1  0.98676008  0.25326833  0.96384075  1.0
  Ga  Ga16  1  0.98676008  0.58660167  0.96384075  1.0
  Ga  Ga17  1  0.98676008  0.91993500  0.96384075  1.0
  Ga  Ga18  1  0.12209737  0.00993683  0.88181154  1.0
  Ga  Ga19  1  0.12209737  0.34327017  0.88181154  1.0
  Ga  Ga20  1  0.12209737  0.67660350  0.88181154  1.0
  Ga  Ga21  1  0.45543070  0.00993683  0.88181154  1.0
  Ga  Ga22  1  0.45543070  0.34327017  0.88181154  1.0
  Ga  Ga23  1  0.45543070  0.67660350  0.88181154  1.0
  Ga  Ga24  1  0.78876404  0.00993683  0.88181154  1.0
  Ga  Ga25  1  0.78876404  0.34327017  0.88181154  1.0
  Ga  Ga26  1  0.78876404  0.67660350  0.88181154  1.0
  Ga  Ga27  1  0.02685927  0.17660350  0.95324011  1.0
  Ga  Ga28  1  0.02685927  0.50993683  0.95324011  1.0
  Ga  Ga29  1  0.02685927  0.84327017  0.95324011  1.0
  Ga  Ga30  1  0.36019261  0.17660350  0.95324011  1.0
  Ga  Ga31  1  0.36019261  0.50993683  0.95324011  1.0
  Ga  Ga32  1  0.36019261  0.84327017  0.95324011  1.0
  Ga  Ga33  1  0.69352594  0.17660350  0.95324011  1.0
  Ga  Ga34  1  0.69352594  0.50993683  0.95324011  1.0
  Ga  Ga35  1  0.69352594  0.84327017  0.95324011  1.0
  Ga  Ga36  1  0.12704237  0.24673167  0.98329504  1.0
  Ga  Ga37  1  0.12704237  0.58006500  0.98329504  1.0
  Ga  Ga38  1  0.12704237  0.91339833  0.98329504  1.0
  Ga  Ga39  1  0.46037570  0.24673167  0.98329504  1.0
  Ga  Ga40  1  0.46037570  0.58006500  0.98329504  1.0
  Ga  Ga41  1  0.46037570  0.91339833  0.98329504  1.0
  Ga  Ga42  1  0.79370904  0.24673167  0.98329504  1.0
  Ga  Ga43  1  0.79370904  0.58006500  0.98329504  1.0
  Ga  Ga44  1  0.79370904  0.91339833  0.98329504  1.0
  Ga  Ga45  1  0.22228046  0.08006500  0.91186646  1.0
  Ga  Ga46  1  0.22228046  0.41339833  0.91186646  1.0
  Ga  Ga47  1  0.22228046  0.74673167  0.91186646  1.0
  Ga  Ga48  1  0.55561380  0.08006500  0.91186646  1.0
  Ga  Ga49  1  0.55561380  0.41339833  0.91186646  1.0
  Ga  Ga50  1  0.55561380  0.74673167  0.91186646  1.0
  Ga  Ga51  1  0.88894713  0.08006500  0.91186646  1.0
  Ga  Ga52  1  0.88894713  0.41339833  0.91186646  1.0
  Ga  Ga53  1  0.88894713  0.74673167  0.91186646  1.0
  Ga  Ga54  1  0.08694318  0.32339650  0.99389568  1.0
  Ga  Ga55  1  0.08694318  0.65672983  0.99389568  1.0
  Ga  Ga56  1  0.08694318  0.99006317  0.99389568  1.0
  Ga  Ga57  1  0.42027651  0.32339650  0.99389568  1.0
  Ga  Ga58  1  0.42027651  0.65672983  0.99389568  1.0
  Ga  Ga59  1  0.42027651  0.99006317  0.99389568  1.0
  Ga  Ga60  1  0.75360985  0.32339650  0.99389568  1.0
  Ga  Ga61  1  0.75360985  0.65672983  0.99389568  1.0
  Ga  Ga62  1  0.75360985  0.99006317  0.99389568  1.0
  Ga  Ga63  1  0.18218127  0.15672983  0.92246711  1.0
  Ga  Ga64  1  0.18218127  0.49006317  0.92246711  1.0
  Ga  Ga65  1  0.18218127  0.82339650  0.92246711  1.0
  Ga  Ga66  1  0.51551461  0.15672983  0.92246711  1.0
  Ga  Ga67  1  0.51551461  0.49006317  0.92246711  1.0
  Ga  Ga68  1  0.51551461  0.82339650  0.92246711  1.0
  Ga  Ga69  1  0.84884794  0.15672983  0.92246711  1.0
  Ga  Ga70  1  0.84884794  0.49006317  0.92246711  1.0
  Ga  Ga71  1  0.84884794  0.82339650  0.92246711  1.0
  Ga  Ga72  1  0.01190551  0.00961150  0.96470768  1.0
  Ga  Ga73  1  0.01190551  0.34294483  0.96470768  1.0
  Ga  Ga74  1  0.01190551  0.67627817  0.96470768  1.0
  Ga  Ga75  1  0.34523885  0.00961150  0.96470768  1.0
  Ga  Ga76  1  0.34523885  0.34294483  0.96470768  1.0
  Ga  Ga77  1  0.34523885  0.67627817  0.96470768  1.0
  Ga  Ga78  1  0.67857218  0.00961150  0.96470768  1.0
  Ga  Ga79  1  0.67857218  0.34294483  0.96470768  1.0
  Ga  Ga80  1  0.67857218  0.67627817  0.96470768  1.0
  Ga  Ga81  1  0.10714361  0.17627817  0.89327911  1.0
  Ga  Ga82  1  0.10714361  0.50961150  0.89327911  1.0
  Ga  Ga83  1  0.10714361  0.84294483  0.89327911  1.0
  Ga  Ga84  1  0.44047694  0.17627817  0.89327911  1.0
  Ga  Ga85  1  0.44047694  0.50961150  0.89327911  1.0
  Ga  Ga86  1  0.44047694  0.84294483  0.89327911  1.0
  Ga  Ga87  1  0.77381027  0.17627817  0.89327911  1.0
  Ga  Ga88  1  0.77381027  0.50961150  0.89327911  1.0
  Ga  Ga89  1  0.77381027  0.84294483  0.89327911  1.0
  Ga  Ga90  1  0.19713504  0.32372183  0.91099954  1.0
  Ga  Ga91  1  0.19713504  0.65705517  0.91099954  1.0
  Ga  Ga92  1  0.19713504  0.99038850  0.91099954  1.0
  Ga  Ga93  1  0.53046837  0.32372183  0.91099954  1.0
  Ga  Ga94  1  0.53046837  0.65705517  0.91099954  1.0
  Ga  Ga95  1  0.53046837  0.99038850  0.91099954  1.0
  Ga  Ga96  1  0.86380170  0.32372183  0.91099954  1.0
  Ga  Ga97  1  0.86380170  0.65705517  0.91099954  1.0
  Ga  Ga98  1  0.86380170  0.99038850  0.91099954  1.0
  Ga  Ga99  1  0.10189694  0.15705517  0.98242811  1.0
  Ga  Ga100  1  0.10189694  0.49038850  0.98242811  1.0
  Ga  Ga101  1  0.10189694  0.82372183  0.98242811  1.0
  Ga  Ga102  1  0.43523027  0.15705517  0.98242811  1.0
  Ga  Ga103  1  0.43523027  0.49038850  0.98242811  1.0
  Ga  Ga104  1  0.43523027  0.82372183  0.98242811  1.0
  Ga  Ga105  1  0.76856361  0.15705517  0.98242811  1.0
  Ga  Ga106  1  0.76856361  0.49038850  0.98242811  1.0
  Ga  Ga107  1  0.76856361  0.82372183  0.98242811  1.0
  Ga  Ga108  1  0.13435823  0.09012400  0.98845389  1.0
  Ga  Ga109  1  0.13435823  0.42345733  0.98845389  1.0
  Ga  Ga110  1  0.13435823  0.75679067  0.98845389  1.0
  Ga  Ga111  1  0.46769156  0.09012400  0.98845389  1.0
  Ga  Ga112  1  0.46769156  0.42345733  0.98845389  1.0
  Ga  Ga113  1  0.46769156  0.75679067  0.98845389  1.0
  Ga  Ga114  1  0.80102489  0.09012400  0.98845389  1.0
  Ga  Ga115  1  0.80102489  0.42345733  0.98845389  1.0
  Ga  Ga116  1  0.80102489  0.75679067  0.98845389  1.0
  Ga  Ga117  1  0.22959632  0.25679067  0.91702532  1.0
  Ga  Ga118  1  0.22959632  0.59012400  0.91702532  1.0
  Ga  Ga119  1  0.22959632  0.92345733  0.91702532  1.0
  Ga  Ga120  1  0.56292965  0.25679067  0.91702532  1.0
  Ga  Ga121  1  0.56292965  0.59012400  0.91702532  1.0
  Ga  Ga122  1  0.56292965  0.92345733  0.91702532  1.0
  Ga  Ga123  1  0.89626299  0.25679067  0.91702532  1.0
  Ga  Ga124  1  0.89626299  0.59012400  0.91702532  1.0
  Ga  Ga125  1  0.89626299  0.92345733  0.91702532  1.0
  Ga  Ga126  1  0.07468232  0.24320933  0.88725332  1.0
  Ga  Ga127  1  0.07468232  0.57654267  0.88725332  1.0
  Ga  Ga128  1  0.07468232  0.90987600  0.88725332  1.0
  Ga  Ga129  1  0.40801565  0.24320933  0.88725332  1.0
  Ga  Ga130  1  0.40801565  0.57654267  0.88725332  1.0
  Ga  Ga131  1  0.40801565  0.90987600  0.88725332  1.0
  Ga  Ga132  1  0.74134899  0.24320933  0.88725332  1.0
  Ga  Ga133  1  0.74134899  0.57654267  0.88725332  1.0
  Ga  Ga134  1  0.74134899  0.90987600  0.88725332  1.0
  Ga  Ga135  1  0.31277756  0.07654267  0.95868189  1.0
  Ga  Ga136  1  0.31277756  0.40987600  0.95868189  1.0
  Ga  Ga137  1  0.31277756  0.74320933  0.95868189  1.0
  Ga  Ga138  1  0.64611089  0.07654267  0.95868189  1.0
  Ga  Ga139  1  0.64611089  0.40987600  0.95868189  1.0
  Ga  Ga140  1  0.64611089  0.74320933  0.95868189  1.0
  Ga  Ga141  1  0.97944423  0.07654267  0.95868189  1.0
  Ga  Ga142  1  0.97944423  0.40987600  0.95868189  1.0
  Ga  Ga143  1  0.97944423  0.74320933  0.95868189  1.0
  Ga  Ga144  1  0.03309170  0.00000000  0.86642504  1.0
  Ga  Ga145  1  0.03309170  0.33333333  0.86642504  1.0
  Ga  Ga146  1  0.03309170  0.66666667  0.86642504  1.0
  Ga  Ga147  1  0.36642504  0.00000000  0.86642504  1.0
  Ga  Ga148  1  0.36642504  0.33333333  0.86642504  1.0
  Ga  Ga149  1  0.36642504  0.66666667  0.86642504  1.0
  Ga  Ga150  1  0.69975837  0.00000000  0.86642504  1.0
  Ga  Ga151  1  0.69975837  0.33333333  0.86642504  1.0
  Ga  Ga152  1  0.69975837  0.66666667  0.86642504  1.0
  Ga  Ga153  1  0.27118694  0.16666667  0.93785361  1.0
  Ga  Ga154  1  0.27118694  0.50000000  0.93785361  1.0
  Ga  Ga155  1  0.27118694  0.83333333  0.93785361  1.0
  Ga  Ga156  1  0.60452027  0.16666667  0.93785361  1.0
  Ga  Ga157  1  0.60452027  0.50000000  0.93785361  1.0
  Ga  Ga158  1  0.60452027  0.83333333  0.93785361  1.0
  Ga  Ga159  1  0.93785361  0.16666667  0.93785361  1.0
  Ga  Ga160  1  0.93785361  0.50000000  0.93785361  1.0
  Ga  Ga161  1  0.93785361  0.83333333  0.93785361  1.0
  Ga  Ga162  1  0.27247437  0.08660167  0.74955504  1.0
  Ga  Ga163  1  0.27247437  0.41993500  0.74955504  1.0
  Ga  Ga164  1  0.27247437  0.75326833  0.74955504  1.0
  Ga  Ga165  1  0.60580770  0.08660167  0.74955504  1.0
  Ga  Ga166  1  0.60580770  0.41993500  0.74955504  1.0
  Ga  Ga167  1  0.60580770  0.75326833  0.74955504  1.0
  Ga  Ga168  1  0.93914104  0.08660167  0.74955504  1.0
  Ga  Ga169  1  0.93914104  0.41993500  0.74955504  1.0
  Ga  Ga170  1  0.93914104  0.75326833  0.74955504  1.0
  Ga  Ga171  1  0.17723627  0.25326833  0.82098361  1.0
  Ga  Ga172  1  0.17723627  0.58660167  0.82098361  1.0
  Ga  Ga173  1  0.17723627  0.91993500  0.82098361  1.0
  Ga  Ga174  1  0.51056961  0.25326833  0.82098361  1.0
  Ga  Ga175  1  0.51056961  0.58660167  0.82098361  1.0
  Ga  Ga176  1  0.51056961  0.91993500  0.82098361  1.0
  Ga  Ga177  1  0.84390294  0.25326833  0.82098361  1.0
  Ga  Ga178  1  0.84390294  0.58660167  0.82098361  1.0
  Ga  Ga179  1  0.84390294  0.91993500  0.82098361  1.0
  Ga  Ga180  1  0.31257356  0.00993683  0.73895439  1.0
  Ga  Ga181  1  0.31257356  0.34327017  0.73895439  1.0
  Ga  Ga182  1  0.31257356  0.67660350  0.73895439  1.0
  Ga  Ga183  1  0.64590689  0.00993683  0.73895439  1.0
  Ga  Ga184  1  0.64590689  0.34327017  0.73895439  1.0
  Ga  Ga185  1  0.64590689  0.67660350  0.73895439  1.0
  Ga  Ga186  1  0.97924023  0.00993683  0.73895439  1.0
  Ga  Ga187  1  0.97924023  0.34327017  0.73895439  1.0
  Ga  Ga188  1  0.97924023  0.67660350  0.73895439  1.0
  Ga  Ga189  1  0.21733546  0.17660350  0.81038296  1.0
  Ga  Ga190  1  0.21733546  0.50993683  0.81038296  1.0
  Ga  Ga191  1  0.21733546  0.84327017  0.81038296  1.0
  Ga  Ga192  1  0.55066880  0.17660350  0.81038296  1.0
  Ga  Ga193  1  0.55066880  0.50993683  0.81038296  1.0
  Ga  Ga194  1  0.55066880  0.84327017  0.81038296  1.0
  Ga  Ga195  1  0.88400213  0.17660350  0.81038296  1.0
  Ga  Ga196  1  0.88400213  0.50993683  0.81038296  1.0
  Ga  Ga197  1  0.88400213  0.84327017  0.81038296  1.0
  Ga  Ga198  1  0.31751856  0.24673167  0.84043789  1.0
  Ga  Ga199  1  0.31751856  0.58006500  0.84043789  1.0
  Ga  Ga200  1  0.31751856  0.91339833  0.84043789  1.0
  Ga  Ga201  1  0.65085189  0.24673167  0.84043789  1.0
  Ga  Ga202  1  0.65085189  0.58006500  0.84043789  1.0
  Ga  Ga203  1  0.65085189  0.91339833  0.84043789  1.0
  Ga  Ga204  1  0.98418523  0.24673167  0.84043789  1.0
  Ga  Ga205  1  0.98418523  0.58006500  0.84043789  1.0
  Ga  Ga206  1  0.98418523  0.91339833  0.84043789  1.0
  Ga  Ga207  1  0.07942332  0.08006500  0.76900932  1.0
  Ga  Ga208  1  0.07942332  0.41339833  0.76900932  1.0
  Ga  Ga209  1  0.07942332  0.74673167  0.76900932  1.0
  Ga  Ga210  1  0.41275665  0.08006500  0.76900932  1.0
  Ga  Ga211  1  0.41275665  0.41339833  0.76900932  1.0
  Ga  Ga212  1  0.41275665  0.74673167  0.76900932  1.0
  Ga  Ga213  1  0.74608999  0.08006500  0.76900932  1.0
  Ga  Ga214  1  0.74608999  0.41339833  0.76900932  1.0
  Ga  Ga215  1  0.74608999  0.74673167  0.76900932  1.0
  Ga  Ga216  1  0.27741937  0.32339650  0.85103854  1.0
  Ga  Ga217  1  0.27741937  0.65672983  0.85103854  1.0
  Ga  Ga218  1  0.27741937  0.99006317  0.85103854  1.0
  Ga  Ga219  1  0.61075270  0.32339650  0.85103854  1.0
  Ga  Ga220  1  0.61075270  0.65672983  0.85103854  1.0
  Ga  Ga221  1  0.61075270  0.99006317  0.85103854  1.0
  Ga  Ga222  1  0.94408604  0.32339650  0.85103854  1.0
  Ga  Ga223  1  0.94408604  0.65672983  0.85103854  1.0
  Ga  Ga224  1  0.94408604  0.99006317  0.85103854  1.0
  Ga  Ga225  1  0.03932413  0.15672983  0.77960996  1.0
  Ga  Ga226  1  0.03932413  0.49006317  0.77960996  1.0
  Ga  Ga227  1  0.03932413  0.82339650  0.77960996  1.0
  Ga  Ga228  1  0.37265746  0.15672983  0.77960996  1.0
  Ga  Ga229  1  0.37265746  0.49006317  0.77960996  1.0
  Ga  Ga230  1  0.37265746  0.82339650  0.77960996  1.0
  Ga  Ga231  1  0.70599080  0.15672983  0.77960996  1.0
  Ga  Ga232  1  0.70599080  0.49006317  0.77960996  1.0
  Ga  Ga233  1  0.70599080  0.82339650  0.77960996  1.0
  Ga  Ga234  1  0.20238170  0.00961150  0.82185054  1.0
  Ga  Ga235  1  0.20238170  0.34294483  0.82185054  1.0
  Ga  Ga236  1  0.20238170  0.67627817  0.82185054  1.0
  Ga  Ga237  1  0.53571504  0.00961150  0.82185054  1.0
  Ga  Ga238  1  0.53571504  0.34294483  0.82185054  1.0
  Ga  Ga239  1  0.53571504  0.67627817  0.82185054  1.0
  Ga  Ga240  1  0.86904837  0.00961150  0.82185054  1.0
  Ga  Ga241  1  0.86904837  0.34294483  0.82185054  1.0
  Ga  Ga242  1  0.86904837  0.67627817  0.82185054  1.0
  Ga  Ga243  1  0.29761980  0.17627817  0.75042196  1.0
  Ga  Ga244  1  0.29761980  0.50961150  0.75042196  1.0
  Ga  Ga245  1  0.29761980  0.84294483  0.75042196  1.0
  Ga  Ga246  1  0.63095313  0.17627817  0.75042196  1.0
  Ga  Ga247  1  0.63095313  0.50961150  0.75042196  1.0
  Ga  Ga248  1  0.63095313  0.84294483  0.75042196  1.0
  Ga  Ga249  1  0.96428646  0.17627817  0.75042196  1.0
  Ga  Ga250  1  0.96428646  0.50961150  0.75042196  1.0
  Ga  Ga251  1  0.96428646  0.84294483  0.75042196  1.0
  Ga  Ga252  1  0.05427789  0.32372183  0.76814239  1.0
  Ga  Ga253  1  0.05427789  0.65705517  0.76814239  1.0
  Ga  Ga254  1  0.05427789  0.99038850  0.76814239  1.0
  Ga  Ga255  1  0.38761123  0.32372183  0.76814239  1.0
  Ga  Ga256  1  0.38761123  0.65705517  0.76814239  1.0
  Ga  Ga257  1  0.38761123  0.99038850  0.76814239  1.0
  Ga  Ga258  1  0.72094456  0.32372183  0.76814239  1.0
  Ga  Ga259  1  0.72094456  0.65705517  0.76814239  1.0
  Ga  Ga260  1  0.72094456  0.99038850  0.76814239  1.0
  Ga  Ga261  1  0.29237313  0.15705517  0.83957096  1.0
  Ga  Ga262  1  0.29237313  0.49038850  0.83957096  1.0
  Ga  Ga263  1  0.29237313  0.82372183  0.83957096  1.0
  Ga  Ga264  1  0.62570646  0.15705517  0.83957096  1.0
  Ga  Ga265  1  0.62570646  0.49038850  0.83957096  1.0
  Ga  Ga266  1  0.62570646  0.82372183  0.83957096  1.0
  Ga  Ga267  1  0.95903980  0.15705517  0.83957096  1.0
  Ga  Ga268  1  0.95903980  0.49038850  0.83957096  1.0
  Ga  Ga269  1  0.95903980  0.82372183  0.83957096  1.0
  Ga  Ga270  1  0.32483442  0.09012400  0.84559675  1.0
  Ga  Ga271  1  0.32483442  0.42345733  0.84559675  1.0
  Ga  Ga272  1  0.32483442  0.75679067  0.84559675  1.0
  Ga  Ga273  1  0.65816775  0.09012400  0.84559675  1.0
  Ga  Ga274  1  0.65816775  0.42345733  0.84559675  1.0
  Ga  Ga275  1  0.65816775  0.75679067  0.84559675  1.0
  Ga  Ga276  1  0.99150108  0.09012400  0.84559675  1.0
  Ga  Ga277  1  0.99150108  0.42345733  0.84559675  1.0
  Ga  Ga278  1  0.99150108  0.75679067  0.84559675  1.0
  Ga  Ga279  1  0.08673918  0.25679067  0.77416818  1.0
  Ga  Ga280  1  0.08673918  0.59012400  0.77416818  1.0
  Ga  Ga281  1  0.08673918  0.92345733  0.77416818  1.0
  Ga  Ga282  1  0.42007251  0.25679067  0.77416818  1.0
  Ga  Ga283  1  0.42007251  0.59012400  0.77416818  1.0
  Ga  Ga284  1  0.42007251  0.92345733  0.77416818  1.0
  Ga  Ga285  1  0.75340585  0.25679067  0.77416818  1.0
  Ga  Ga286  1  0.75340585  0.59012400  0.77416818  1.0
  Ga  Ga287  1  0.75340585  0.92345733  0.77416818  1.0
  Ga  Ga288  1  0.26515851  0.24320933  0.74439618  1.0
  Ga  Ga289  1  0.26515851  0.57654267  0.74439618  1.0
  Ga  Ga290  1  0.26515851  0.90987600  0.74439618  1.0
  Ga  Ga291  1  0.59849185  0.24320933  0.74439618  1.0
  Ga  Ga292  1  0.59849185  0.57654267  0.74439618  1.0
  Ga  Ga293  1  0.59849185  0.90987600  0.74439618  1.0
  Ga  Ga294  1  0.93182518  0.24320933  0.74439618  1.0
  Ga  Ga295  1  0.93182518  0.57654267  0.74439618  1.0
  Ga  Ga296  1  0.93182518  0.90987600  0.74439618  1.0
  Ga  Ga297  1  0.16992042  0.07654267  0.81582475  1.0
  Ga  Ga298  1  0.16992042  0.40987600  0.81582475  1.0
  Ga  Ga299  1  0.16992042  0.74320933  0.81582475  1.0
  Ga  Ga300  1  0.50325375  0.07654267  0.81582475  1.0
  Ga  Ga301  1  0.50325375  0.40987600  0.81582475  1.0
  Ga  Ga302  1  0.50325375  0.74320933  0.81582475  1.0
  Ga  Ga303  1  0.83658708  0.07654267  0.81582475  1.0
  Ga  Ga304  1  0.83658708  0.40987600  0.81582475  1.0
  Ga  Ga305  1  0.83658708  0.74320933  0.81582475  1.0
  Ga  Ga306  1  0.22356789  0.33333333  0.72356789  1.0
  Ga  Ga307  1  0.22356789  0.66666667  0.72356789  1.0
  Ga  Ga308  1  0.22356789  1.00000000  0.72356789  1.0
  Ga  Ga309  1  0.55690123  0.33333333  0.72356789  1.0
  Ga  Ga310  1  0.55690123  0.66666667  0.72356789  1.0
  Ga  Ga311  1  0.55690123  1.00000000  0.72356789  1.0
  Ga  Ga312  1  0.89023456  0.33333333  0.72356789  1.0
  Ga  Ga313  1  0.89023456  0.66666667  0.72356789  1.0
  Ga  Ga314  1  0.89023456  1.00000000  0.72356789  1.0
  Ga  Ga315  1  0.12832980  0.16666667  0.79499646  1.0
  Ga  Ga316  1  0.12832980  0.50000000  0.79499646  1.0
  Ga  Ga317  1  0.12832980  0.83333333  0.79499646  1.0
  Ga  Ga318  1  0.46166313  0.16666667  0.79499646  1.0
  Ga  Ga319  1  0.46166313  0.50000000  0.79499646  1.0
  Ga  Ga320  1  0.46166313  0.83333333  0.79499646  1.0
  Ga  Ga321  1  0.79499646  0.16666667  0.79499646  1.0
  Ga  Ga322  1  0.79499646  0.50000000  0.79499646  1.0
  Ga  Ga323  1  0.79499646  0.83333333  0.79499646  1.0
  Ga  Ga324  1  0.12961723  0.08660167  0.60669789  1.0
  Ga  Ga325  1  0.12961723  0.41993500  0.60669789  1.0
  Ga  Ga326  1  0.12961723  0.75326833  0.60669789  1.0
  Ga  Ga327  1  0.46295056  0.08660167  0.60669789  1.0
  Ga  Ga328  1  0.46295056  0.41993500  0.60669789  1.0
  Ga  Ga329  1  0.46295056  0.75326833  0.60669789  1.0
  Ga  Ga330  1  0.79628389  0.08660167  0.60669789  1.0
  Ga  Ga331  1  0.79628389  0.41993500  0.60669789  1.0
  Ga  Ga332  1  0.79628389  0.75326833  0.60669789  1.0
  Ga  Ga333  1  0.03437913  0.25326833  0.67812646  1.0
  Ga  Ga334  1  0.03437913  0.58660167  0.67812646  1.0
  Ga  Ga335  1  0.03437913  0.91993500  0.67812646  1.0
  Ga  Ga336  1  0.36771246  0.25326833  0.67812646  1.0
  Ga  Ga337  1  0.36771246  0.58660167  0.67812646  1.0
  Ga  Ga338  1  0.36771246  0.91993500  0.67812646  1.0
  Ga  Ga339  1  0.70104580  0.25326833  0.67812646  1.0
  Ga  Ga340  1  0.70104580  0.58660167  0.67812646  1.0
  Ga  Ga341  1  0.70104580  0.91993500  0.67812646  1.0
  Ga  Ga342  1  0.16971642  0.00993683  0.59609725  1.0
  Ga  Ga343  1  0.16971642  0.34327017  0.59609725  1.0
  Ga  Ga344  1  0.16971642  0.67660350  0.59609725  1.0
  Ga  Ga345  1  0.50304975  0.00993683  0.59609725  1.0
  Ga  Ga346  1  0.50304975  0.34327017  0.59609725  1.0
  Ga  Ga347  1  0.50304975  0.67660350  0.59609725  1.0
  Ga  Ga348  1  0.83638308  0.00993683  0.59609725  1.0
  Ga  Ga349  1  0.83638308  0.34327017  0.59609725  1.0
  Ga  Ga350  1  0.83638308  0.67660350  0.59609725  1.0
  Ga  Ga351  1  0.07447832  0.17660350  0.66752582  1.0
  Ga  Ga352  1  0.07447832  0.50993683  0.66752582  1.0
  Ga  Ga353  1  0.07447832  0.84327017  0.66752582  1.0
  Ga  Ga354  1  0.40781165  0.17660350  0.66752582  1.0
  Ga  Ga355  1  0.40781165  0.50993683  0.66752582  1.0
  Ga  Ga356  1  0.40781165  0.84327017  0.66752582  1.0
  Ga  Ga357  1  0.74114499  0.17660350  0.66752582  1.0
  Ga  Ga358  1  0.74114499  0.50993683  0.66752582  1.0
  Ga  Ga359  1  0.74114499  0.84327017  0.66752582  1.0
  Ga  Ga360  1  0.17466142  0.24673167  0.69758075  1.0
  Ga  Ga361  1  0.17466142  0.58006500  0.69758075  1.0
  Ga  Ga362  1  0.17466142  0.91339833  0.69758075  1.0
  Ga  Ga363  1  0.50799475  0.24673167  0.69758075  1.0
  Ga  Ga364  1  0.50799475  0.58006500  0.69758075  1.0
  Ga  Ga365  1  0.50799475  0.91339833  0.69758075  1.0
  Ga  Ga366  1  0.84132808  0.24673167  0.69758075  1.0
  Ga  Ga367  1  0.84132808  0.58006500  0.69758075  1.0
  Ga  Ga368  1  0.84132808  0.91339833  0.69758075  1.0
  Ga  Ga369  1  0.26989951  0.08006500  0.62615218  1.0
  Ga  Ga370  1  0.26989951  0.41339833  0.62615218  1.0
  Ga  Ga371  1  0.26989951  0.74673167  0.62615218  1.0
  Ga  Ga372  1  0.60323285  0.08006500  0.62615218  1.0
  Ga  Ga373  1  0.60323285  0.41339833  0.62615218  1.0
  Ga  Ga374  1  0.60323285  0.74673167  0.62615218  1.0
  Ga  Ga375  1  0.93656618  0.08006500  0.62615218  1.0
  Ga  Ga376  1  0.93656618  0.41339833  0.62615218  1.0
  Ga  Ga377  1  0.93656618  0.74673167  0.62615218  1.0
  Ga  Ga378  1  0.13456223  0.32339650  0.70818139  1.0
  Ga  Ga379  1  0.13456223  0.65672983  0.70818139  1.0
  Ga  Ga380  1  0.13456223  0.99006317  0.70818139  1.0
  Ga  Ga381  1  0.46789556  0.32339650  0.70818139  1.0
  Ga  Ga382  1  0.46789556  0.65672983  0.70818139  1.0
  Ga  Ga383  1  0.46789556  0.99006317  0.70818139  1.0
  Ga  Ga384  1  0.80122889  0.32339650  0.70818139  1.0
  Ga  Ga385  1  0.80122889  0.65672983  0.70818139  1.0
  Ga  Ga386  1  0.80122889  0.99006317  0.70818139  1.0
  Ga  Ga387  1  0.22980032  0.15672983  0.63675282  1.0
  Ga  Ga388  1  0.22980032  0.49006317  0.63675282  1.0
  Ga  Ga389  1  0.22980032  0.82339650  0.63675282  1.0
  Ga  Ga390  1  0.56313365  0.15672983  0.63675282  1.0
  Ga  Ga391  1  0.56313365  0.49006317  0.63675282  1.0
  Ga  Ga392  1  0.56313365  0.82339650  0.63675282  1.0
  Ga  Ga393  1  0.89646699  0.15672983  0.63675282  1.0
  Ga  Ga394  1  0.89646699  0.49006317  0.63675282  1.0
  Ga  Ga395  1  0.89646699  0.82339650  0.63675282  1.0
  Ga  Ga396  1  0.05952456  0.00961150  0.67899339  1.0
  Ga  Ga397  1  0.05952456  0.34294483  0.67899339  1.0
  Ga  Ga398  1  0.05952456  0.67627817  0.67899339  1.0
  Ga  Ga399  1  0.39285789  0.00961150  0.67899339  1.0
  Ga  Ga400  1  0.39285789  0.34294483  0.67899339  1.0
  Ga  Ga401  1  0.39285789  0.67627817  0.67899339  1.0
  Ga  Ga402  1  0.72619123  0.00961150  0.67899339  1.0
  Ga  Ga403  1  0.72619123  0.34294483  0.67899339  1.0
  Ga  Ga404  1  0.72619123  0.67627817  0.67899339  1.0
  Ga  Ga405  1  0.15476265  0.17627817  0.60756482  1.0
  Ga  Ga406  1  0.15476265  0.50961150  0.60756482  1.0
  Ga  Ga407  1  0.15476265  0.84294483  0.60756482  1.0
  Ga  Ga408  1  0.48809599  0.17627817  0.60756482  1.0
  Ga  Ga409  1  0.48809599  0.50961150  0.60756482  1.0
  Ga  Ga410  1  0.48809599  0.84294483  0.60756482  1.0
  Ga  Ga411  1  0.82142932  0.17627817  0.60756482  1.0
  Ga  Ga412  1  0.82142932  0.50961150  0.60756482  1.0
  Ga  Ga413  1  0.82142932  0.84294483  0.60756482  1.0
  Ga  Ga414  1  0.24475408  0.32372183  0.62528525  1.0
  Ga  Ga415  1  0.24475408  0.65705517  0.62528525  1.0
  Ga  Ga416  1  0.24475408  0.99038850  0.62528525  1.0
  Ga  Ga417  1  0.57808742  0.32372183  0.62528525  1.0
  Ga  Ga418  1  0.57808742  0.65705517  0.62528525  1.0
  Ga  Ga419  1  0.57808742  0.99038850  0.62528525  1.0
  Ga  Ga420  1  0.91142075  0.32372183  0.62528525  1.0
  Ga  Ga421  1  0.91142075  0.65705517  0.62528525  1.0
  Ga  Ga422  1  0.91142075  0.99038850  0.62528525  1.0
  Ga  Ga423  1  0.14951599  0.15705517  0.69671382  1.0
  Ga  Ga424  1  0.14951599  0.49038850  0.69671382  1.0
  Ga  Ga425  1  0.14951599  0.82372183  0.69671382  1.0
  Ga  Ga426  1  0.48284932  0.15705517  0.69671382  1.0
  Ga  Ga427  1  0.48284932  0.49038850  0.69671382  1.0
  Ga  Ga428  1  0.48284932  0.82372183  0.69671382  1.0
  Ga  Ga429  1  0.81618265  0.15705517  0.69671382  1.0
  Ga  Ga430  1  0.81618265  0.49038850  0.69671382  1.0
  Ga  Ga431  1  0.81618265  0.82372183  0.69671382  1.0
  Ga  Ga432  1  0.18197727  0.09012400  0.70273961  1.0
  Ga  Ga433  1  0.18197727  0.42345733  0.70273961  1.0
  Ga  Ga434  1  0.18197727  0.75679067  0.70273961  1.0
  Ga  Ga435  1  0.51531061  0.09012400  0.70273961  1.0
  Ga  Ga436  1  0.51531061  0.42345733  0.70273961  1.0
  Ga  Ga437  1  0.51531061  0.75679067  0.70273961  1.0
  Ga  Ga438  1  0.84864394  0.09012400  0.70273961  1.0
  Ga  Ga439  1  0.84864394  0.42345733  0.70273961  1.0
  Ga  Ga440  1  0.84864394  0.75679067  0.70273961  1.0
  Ga  Ga441  1  0.27721537  0.25679067  0.63131104  1.0
  Ga  Ga442  1  0.27721537  0.59012400  0.63131104  1.0
  Ga  Ga443  1  0.27721537  0.92345733  0.63131104  1.0
  Ga  Ga444  1  0.61054870  0.25679067  0.63131104  1.0
  Ga  Ga445  1  0.61054870  0.59012400  0.63131104  1.0
  Ga  Ga446  1  0.61054870  0.92345733  0.63131104  1.0
  Ga  Ga447  1  0.94388204  0.25679067  0.63131104  1.0
  Ga  Ga448  1  0.94388204  0.59012400  0.63131104  1.0
  Ga  Ga449  1  0.94388204  0.92345733  0.63131104  1.0
  Ga  Ga450  1  0.12230137  0.24320933  0.60153904  1.0
  Ga  Ga451  1  0.12230137  0.57654267  0.60153904  1.0
  Ga  Ga452  1  0.12230137  0.90987600  0.60153904  1.0
  Ga  Ga453  1  0.45563470  0.24320933  0.60153904  1.0
  Ga  Ga454  1  0.45563470  0.57654267  0.60153904  1.0
  Ga  Ga455  1  0.45563470  0.90987600  0.60153904  1.0
  Ga  Ga456  1  0.78896804  0.24320933  0.60153904  1.0
  Ga  Ga457  1  0.78896804  0.57654267  0.60153904  1.0
  Ga  Ga458  1  0.78896804  0.90987600  0.60153904  1.0
  Ga  Ga459  1  0.02706327  0.07654267  0.67296761  1.0
  Ga  Ga460  1  0.02706327  0.40987600  0.67296761  1.0
  Ga  Ga461  1  0.02706327  0.74320933  0.67296761  1.0
  Ga  Ga462  1  0.36039661  0.07654267  0.67296761  1.0
  Ga  Ga463  1  0.36039661  0.40987600  0.67296761  1.0
  Ga  Ga464  1  0.36039661  0.74320933  0.67296761  1.0
  Ga  Ga465  1  0.69372994  0.07654267  0.67296761  1.0
  Ga  Ga466  1  0.69372994  0.40987600  0.67296761  1.0
  Ga  Ga467  1  0.69372994  0.74320933  0.67296761  1.0
  Ga  Ga468  1  0.08071075  0.33333333  0.58071075  1.0
  Ga  Ga469  1  0.08071075  0.66666667  0.58071075  1.0
  Ga  Ga470  1  0.08071075  1.00000000  0.58071075  1.0
  Ga  Ga471  1  0.41404408  0.33333333  0.58071075  1.0
  Ga  Ga472  1  0.41404408  0.66666667  0.58071075  1.0
  Ga  Ga473  1  0.41404408  1.00000000  0.58071075  1.0
  Ga  Ga474  1  0.74737742  0.33333333  0.58071075  1.0
  Ga  Ga475  1  0.74737742  0.66666667  0.58071075  1.0
  Ga  Ga476  1  0.74737742  1.00000000  0.58071075  1.0
  Ga  Ga477  1  0.31880599  0.16666667  0.65213932  1.0
  Ga  Ga478  1  0.31880599  0.50000000  0.65213932  1.0
  Ga  Ga479  1  0.31880599  0.83333333  0.65213932  1.0
  Ga  Ga480  1  0.65213932  0.16666667  0.65213932  1.0
  Ga  Ga481  1  0.65213932  0.50000000  0.65213932  1.0
  Ga  Ga482  1  0.65213932  0.83333333  0.65213932  1.0
  Ga  Ga483  1  0.98547265  0.16666667  0.65213932  1.0
  Ga  Ga484  1  0.98547265  0.50000000  0.65213932  1.0
  Ga  Ga485  1  0.98547265  0.83333333  0.65213932  1.0
  Ni  Ni486  1  0.23872385  0.04565183  0.97276568  1.0
  Ni  Ni487  1  0.23872385  0.37898517  0.97276568  1.0
  Ni  Ni488  1  0.23872385  0.71231850  0.97276568  1.0
  Ni  Ni489  1  0.57205718  0.04565183  0.97276568  1.0
  Ni  Ni490  1  0.57205718  0.37898517  0.97276568  1.0
  Ni  Ni491  1  0.57205718  0.71231850  0.97276568  1.0
  Ni  Ni492  1  0.90539051  0.04565183  0.97276568  1.0
  Ni  Ni493  1  0.90539051  0.37898517  0.97276568  1.0
  Ni  Ni494  1  0.90539051  0.71231850  0.97276568  1.0
  Ni  Ni495  1  0.00062861  0.21231850  0.90133711  1.0
  Ni  Ni496  1  0.00062861  0.54565183  0.90133711  1.0
  Ni  Ni497  1  0.00062861  0.87898517  0.90133711  1.0
  Ni  Ni498  1  0.33396194  0.21231850  0.90133711  1.0
  Ni  Ni499  1  0.33396194  0.54565183  0.90133711  1.0
  Ni  Ni500  1  0.33396194  0.87898517  0.90133711  1.0
  Ni  Ni501  1  0.66729527  0.21231850  0.90133711  1.0
  Ni  Ni502  1  0.66729527  0.54565183  0.90133711  1.0
  Ni  Ni503  1  0.66729527  0.87898517  0.90133711  1.0
  Ni  Ni504  1  0.08390932  0.03386300  0.93701932  1.0
  Ni  Ni505  1  0.08390932  0.36719633  0.93701932  1.0
  Ni  Ni506  1  0.08390932  0.70052967  0.93701932  1.0
  Ni  Ni507  1  0.41724265  0.03386300  0.93701932  1.0
  Ni  Ni508  1  0.41724265  0.36719633  0.93701932  1.0
  Ni  Ni509  1  0.41724265  0.70052967  0.93701932  1.0
  Ni  Ni510  1  0.75057599  0.03386300  0.93701932  1.0
  Ni  Ni511  1  0.75057599  0.36719633  0.93701932  1.0
  Ni  Ni512  1  0.75057599  0.70052967  0.93701932  1.0
  Ni  Ni513  1  0.17914742  0.20052967  0.86559075  1.0
  Ni  Ni514  1  0.17914742  0.53386300  0.86559075  1.0
  Ni  Ni515  1  0.17914742  0.86719633  0.86559075  1.0
  Ni  Ni516  1  0.51248075  0.20052967  0.86559075  1.0
  Ni  Ni517  1  0.51248075  0.53386300  0.86559075  1.0
  Ni  Ni518  1  0.51248075  0.86719633  0.86559075  1.0
  Ni  Ni519  1  0.84581408  0.20052967  0.86559075  1.0
  Ni  Ni520  1  0.84581408  0.53386300  0.86559075  1.0
  Ni  Ni521  1  0.84581408  0.86719633  0.86559075  1.0
  Ni  Ni522  1  0.30365004  0.28768150  0.90294154  1.0
  Ni  Ni523  1  0.30365004  0.62101483  0.90294154  1.0
  Ni  Ni524  1  0.30365004  0.95434817  0.90294154  1.0
  Ni  Ni525  1  0.63698337  0.28768150  0.90294154  1.0
  Ni  Ni526  1  0.63698337  0.62101483  0.90294154  1.0
  Ni  Ni527  1  0.63698337  0.95434817  0.90294154  1.0
  Ni  Ni528  1  0.97031670  0.28768150  0.90294154  1.0
  Ni  Ni529  1  0.97031670  0.62101483  0.90294154  1.0
  Ni  Ni530  1  0.97031670  0.95434817  0.90294154  1.0
  Ni  Ni531  1  0.20841194  0.12101483  0.97437011  1.0
  Ni  Ni532  1  0.20841194  0.45434817  0.97437011  1.0
  Ni  Ni533  1  0.20841194  0.78768150  0.97437011  1.0
  Ni  Ni534  1  0.54174527  0.12101483  0.97437011  1.0
  Ni  Ni535  1  0.54174527  0.45434817  0.97437011  1.0
  Ni  Ni536  1  0.54174527  0.78768150  0.97437011  1.0
  Ni  Ni537  1  0.87507861  0.12101483  0.97437011  1.0
  Ni  Ni538  1  0.87507861  0.45434817  0.97437011  1.0
  Ni  Ni539  1  0.87507861  0.78768150  0.97437011  1.0
  Ni  Ni540  1  0.12513123  0.29947033  0.93868789  1.0
  Ni  Ni541  1  0.12513123  0.63280367  0.93868789  1.0
  Ni  Ni542  1  0.12513123  0.96613700  0.93868789  1.0
  Ni  Ni543  1  0.45846456  0.29947033  0.93868789  1.0
  Ni  Ni544  1  0.45846456  0.63280367  0.93868789  1.0
  Ni  Ni545  1  0.45846456  0.96613700  0.93868789  1.0
  Ni  Ni546  1  0.79179789  0.29947033  0.93868789  1.0
  Ni  Ni547  1  0.79179789  0.63280367  0.93868789  1.0
  Ni  Ni548  1  0.79179789  0.96613700  0.93868789  1.0
  Ni  Ni549  1  0.22036932  0.13280367  0.86725932  1.0
  Ni  Ni550  1  0.22036932  0.46613700  0.86725932  1.0
  Ni  Ni551  1  0.22036932  0.79947033  0.86725932  1.0
  Ni  Ni552  1  0.55370265  0.13280367  0.86725932  1.0
  Ni  Ni553  1  0.55370265  0.46613700  0.86725932  1.0
  Ni  Ni554  1  0.55370265  0.79947033  0.86725932  1.0
  Ni  Ni555  1  0.88703599  0.13280367  0.86725932  1.0
  Ni  Ni556  1  0.88703599  0.46613700  0.86725932  1.0
  Ni  Ni557  1  0.88703599  0.79947033  0.86725932  1.0
  Ni  Ni558  1  0.00491923  0.04506267  0.90027189  1.0
  Ni  Ni559  1  0.00491923  0.37839600  0.90027189  1.0
  Ni  Ni560  1  0.00491923  0.71172933  0.90027189  1.0
  Ni  Ni561  1  0.33825256  0.04506267  0.90027189  1.0
  Ni  Ni562  1  0.33825256  0.37839600  0.90027189  1.0
  Ni  Ni563  1  0.33825256  0.71172933  0.90027189  1.0
  Ni  Ni564  1  0.67158589  0.04506267  0.90027189  1.0
  Ni  Ni565  1  0.67158589  0.37839600  0.90027189  1.0
  Ni  Ni566  1  0.67158589  0.71172933  0.90027189  1.0
  Ni  Ni567  1  0.24301446  0.21172933  0.97170046  1.0
  Ni  Ni568  1  0.24301446  0.54506267  0.97170046  1.0
  Ni  Ni569  1  0.24301446  0.87839600  0.97170046  1.0
  Ni  Ni570  1  0.57634780  0.21172933  0.97170046  1.0
  Ni  Ni571  1  0.57634780  0.54506267  0.97170046  1.0
  Ni  Ni572  1  0.57634780  0.87839600  0.97170046  1.0
  Ni  Ni573  1  0.90968113  0.21172933  0.97170046  1.0
  Ni  Ni574  1  0.90968113  0.54506267  0.97170046  1.0
  Ni  Ni575  1  0.90968113  0.87839600  0.97170046  1.0
  Ni  Ni576  1  0.20412132  0.28827067  0.97543532  1.0
  Ni  Ni577  1  0.20412132  0.62160400  0.97543532  1.0
  Ni  Ni578  1  0.20412132  0.95493733  0.97543532  1.0
  Ni  Ni579  1  0.53745465  0.28827067  0.97543532  1.0
  Ni  Ni580  1  0.53745465  0.62160400  0.97543532  1.0
  Ni  Ni581  1  0.53745465  0.95493733  0.97543532  1.0
  Ni  Ni582  1  0.87078799  0.28827067  0.97543532  1.0
  Ni  Ni583  1  0.87078799  0.62160400  0.97543532  1.0
  Ni  Ni584  1  0.87078799  0.95493733  0.97543532  1.0
  Ni  Ni585  1  0.29935942  0.12160400  0.90400675  1.0
  Ni  Ni586  1  0.29935942  0.45493733  0.90400675  1.0
  Ni  Ni587  1  0.29935942  0.78827067  0.90400675  1.0
  Ni  Ni588  1  0.63269275  0.12160400  0.90400675  1.0
  Ni  Ni589  1  0.63269275  0.45493733  0.90400675  1.0
  Ni  Ni590  1  0.63269275  0.78827067  0.90400675  1.0
  Ni  Ni591  1  0.96602608  0.12160400  0.90400675  1.0
  Ni  Ni592  1  0.96602608  0.45493733  0.90400675  1.0
  Ni  Ni593  1  0.96602608  0.78827067  0.90400675  1.0
  Ni  Ni594  1  0.04578351  0.29097283  0.91735568  1.0
  Ni  Ni595  1  0.04578351  0.62430617  0.91735568  1.0
  Ni  Ni596  1  0.04578351  0.95763950  0.91735568  1.0
  Ni  Ni597  1  0.37911685  0.29097283  0.91735568  1.0
  Ni  Ni598  1  0.37911685  0.62430617  0.91735568  1.0
  Ni  Ni599  1  0.37911685  0.95763950  0.91735568  1.0
  Ni  Ni600  1  0.71245018  0.29097283  0.91735568  1.0
  Ni  Ni601  1  0.71245018  0.62430617  0.91735568  1.0
  Ni  Ni602  1  0.71245018  0.95763950  0.91735568  1.0
  Ni  Ni603  1  0.28387875  0.12430617  0.98878425  1.0
  Ni  Ni604  1  0.28387875  0.45763950  0.98878425  1.0
  Ni  Ni605  1  0.28387875  0.79097283  0.98878425  1.0
  Ni  Ni606  1  0.61721208  0.12430617  0.98878425  1.0
  Ni  Ni607  1  0.61721208  0.45763950  0.98878425  1.0
  Ni  Ni608  1  0.61721208  0.79097283  0.98878425  1.0
  Ni  Ni609  1  0.95054542  0.12430617  0.98878425  1.0
  Ni  Ni610  1  0.95054542  0.45763950  0.98878425  1.0
  Ni  Ni611  1  0.95054542  0.79097283  0.98878425  1.0
  Ni  Ni612  1  0.16325704  0.04236050  0.95835154  1.0
  Ni  Ni613  1  0.16325704  0.37569383  0.95835154  1.0
  Ni  Ni614  1  0.16325704  0.70902717  0.95835154  1.0
  Ni  Ni615  1  0.49659037  0.04236050  0.95835154  1.0
  Ni  Ni616  1  0.49659037  0.37569383  0.95835154  1.0
  Ni  Ni617  1  0.49659037  0.70902717  0.95835154  1.0
  Ni  Ni618  1  0.82992370  0.04236050  0.95835154  1.0
  Ni  Ni619  1  0.82992370  0.37569383  0.95835154  1.0
  Ni  Ni620  1  0.82992370  0.70902717  0.95835154  1.0
  Ni  Ni621  1  0.25849513  0.20902717  0.88692296  1.0
  Ni  Ni622  1  0.25849513  0.54236050  0.88692296  1.0
  Ni  Ni623  1  0.25849513  0.87569383  0.88692296  1.0
  Ni  Ni624  1  0.59182846  0.20902717  0.88692296  1.0
  Ni  Ni625  1  0.59182846  0.54236050  0.88692296  1.0
  Ni  Ni626  1  0.59182846  0.87569383  0.88692296  1.0
  Ni  Ni627  1  0.92516180  0.20902717  0.88692296  1.0
  Ni  Ni628  1  0.92516180  0.54236050  0.88692296  1.0
  Ni  Ni629  1  0.92516180  0.87569383  0.88692296  1.0
  Ni  Ni630  1  0.28073432  0.29001650  0.99071782  1.0
  Ni  Ni631  1  0.28073432  0.62334983  0.99071782  1.0
  Ni  Ni632  1  0.28073432  0.95668317  0.99071782  1.0
  Ni  Ni633  1  0.61406765  0.29001650  0.99071782  1.0
  Ni  Ni634  1  0.61406765  0.62334983  0.99071782  1.0
  Ni  Ni635  1  0.61406765  0.95668317  0.99071782  1.0
  Ni  Ni636  1  0.94740099  0.29001650  0.99071782  1.0
  Ni  Ni637  1  0.94740099  0.62334983  0.99071782  1.0
  Ni  Ni638  1  0.94740099  0.95668317  0.99071782  1.0
  Ni  Ni639  1  0.04263908  0.12334983  0.91928925  1.0
  Ni  Ni640  1  0.04263908  0.45668317  0.91928925  1.0
  Ni  Ni641  1  0.04263908  0.79001650  0.91928925  1.0
  Ni  Ni642  1  0.37597242  0.12334983  0.91928925  1.0
  Ni  Ni643  1  0.37597242  0.45668317  0.91928925  1.0
  Ni  Ni644  1  0.37597242  0.79001650  0.91928925  1.0
  Ni  Ni645  1  0.70930575  0.12334983  0.91928925  1.0
  Ni  Ni646  1  0.70930575  0.45668317  0.91928925  1.0
  Ni  Ni647  1  0.70930575  0.79001650  0.91928925  1.0
  Ni  Ni648  1  0.05690123  0.25000000  0.97356789  1.0
  Ni  Ni649  1  0.05690123  0.58333333  0.97356789  1.0
  Ni  Ni650  1  0.05690123  0.91666667  0.97356789  1.0
  Ni  Ni651  1  0.39023456  0.25000000  0.97356789  1.0
  Ni  Ni652  1  0.39023456  0.58333333  0.97356789  1.0
  Ni  Ni653  1  0.39023456  0.91666667  0.97356789  1.0
  Ni  Ni654  1  0.72356789  0.25000000  0.97356789  1.0
  Ni  Ni655  1  0.72356789  0.58333333  0.97356789  1.0
  Ni  Ni656  1  0.72356789  0.91666667  0.97356789  1.0
  Ni  Ni657  1  0.15213932  0.08333333  0.90213932  1.0
  Ni  Ni658  1  0.15213932  0.41666667  0.90213932  1.0
  Ni  Ni659  1  0.15213932  0.75000000  0.90213932  1.0
  Ni  Ni660  1  0.48547265  0.08333333  0.90213932  1.0
  Ni  Ni661  1  0.48547265  0.41666667  0.90213932  1.0
  Ni  Ni662  1  0.48547265  0.75000000  0.90213932  1.0
  Ni  Ni663  1  0.81880599  0.08333333  0.90213932  1.0
  Ni  Ni664  1  0.81880599  0.41666667  0.90213932  1.0
  Ni  Ni665  1  0.81880599  0.75000000  0.90213932  1.0
  Ni  Ni666  1  0.03309170  0.16666667  0.86642504  1.0
  Ni  Ni667  1  0.03309170  0.50000000  0.86642504  1.0
  Ni  Ni668  1  0.03309170  0.83333333  0.86642504  1.0
  Ni  Ni669  1  0.36642504  0.16666667  0.86642504  1.0
  Ni  Ni670  1  0.36642504  0.50000000  0.86642504  1.0
  Ni  Ni671  1  0.36642504  0.83333333  0.86642504  1.0
  Ni  Ni672  1  0.69975837  0.16666667  0.86642504  1.0
  Ni  Ni673  1  0.69975837  0.50000000  0.86642504  1.0
  Ni  Ni674  1  0.69975837  0.83333333  0.86642504  1.0
  Ni  Ni675  1  0.27118694  0.33333333  0.93785361  1.0
  Ni  Ni676  1  0.27118694  0.66666667  0.93785361  1.0
  Ni  Ni677  1  0.27118694  0.00000000  0.93785361  1.0
  Ni  Ni678  1  0.60452027  0.33333333  0.93785361  1.0
  Ni  Ni679  1  0.60452027  0.66666667  0.93785361  1.0
  Ni  Ni680  1  0.60452027  0.00000000  0.93785361  1.0
  Ni  Ni681  1  0.93785361  0.33333333  0.93785361  1.0
  Ni  Ni682  1  0.93785361  0.66666667  0.93785361  1.0
  Ni  Ni683  1  0.93785361  0.00000000  0.93785361  1.0
  Ni  Ni684  1  0.15213932  0.25000000  0.90213932  1.0
  Ni  Ni685  1  0.15213932  0.58333333  0.90213932  1.0
  Ni  Ni686  1  0.15213932  0.91666667  0.90213932  1.0
  Ni  Ni687  1  0.48547265  0.25000000  0.90213932  1.0
  Ni  Ni688  1  0.48547265  0.58333333  0.90213932  1.0
  Ni  Ni689  1  0.48547265  0.91666667  0.90213932  1.0
  Ni  Ni690  1  0.81880599  0.25000000  0.90213932  1.0
  Ni  Ni691  1  0.81880599  0.58333333  0.90213932  1.0
  Ni  Ni692  1  0.81880599  0.91666667  0.90213932  1.0
  Ni  Ni693  1  0.05690123  0.08333333  0.97356789  1.0
  Ni  Ni694  1  0.05690123  0.41666667  0.97356789  1.0
  Ni  Ni695  1  0.05690123  0.75000000  0.97356789  1.0
  Ni  Ni696  1  0.39023456  0.08333333  0.97356789  1.0
  Ni  Ni697  1  0.39023456  0.41666667  0.97356789  1.0
  Ni  Ni698  1  0.39023456  0.75000000  0.97356789  1.0
  Ni  Ni699  1  0.72356789  0.08333333  0.97356789  1.0
  Ni  Ni700  1  0.72356789  0.41666667  0.97356789  1.0
  Ni  Ni701  1  0.72356789  0.75000000  0.97356789  1.0
  Ni  Ni702  1  0.16640146  0.20998350  0.95641796  1.0
  Ni  Ni703  1  0.16640146  0.54331683  0.95641796  1.0
  Ni  Ni704  1  0.16640146  0.87665017  0.95641796  1.0
  Ni  Ni705  1  0.49973480  0.20998350  0.95641796  1.0
  Ni  Ni706  1  0.49973480  0.54331683  0.95641796  1.0
  Ni  Ni707  1  0.49973480  0.87665017  0.95641796  1.0
  Ni  Ni708  1  0.83306813  0.20998350  0.95641796  1.0
  Ni  Ni709  1  0.83306813  0.54331683  0.95641796  1.0
  Ni  Ni710  1  0.83306813  0.87665017  0.95641796  1.0
  Ni  Ni711  1  0.26163956  0.04331683  0.88498939  1.0
  Ni  Ni712  1  0.26163956  0.37665017  0.88498939  1.0
  Ni  Ni713  1  0.26163956  0.70998350  0.88498939  1.0
  Ni  Ni714  1  0.59497289  0.04331683  0.88498939  1.0
  Ni  Ni715  1  0.59497289  0.37665017  0.88498939  1.0
  Ni  Ni716  1  0.59497289  0.70998350  0.88498939  1.0
  Ni  Ni717  1  0.92830623  0.04331683  0.88498939  1.0
  Ni  Ni718  1  0.92830623  0.37665017  0.88498939  1.0
  Ni  Ni719  1  0.92830623  0.70998350  0.88498939  1.0
  Ni  Ni720  1  0.09586670  0.04565183  0.82990854  1.0
  Ni  Ni721  1  0.09586670  0.37898517  0.82990854  1.0
  Ni  Ni722  1  0.09586670  0.71231850  0.82990854  1.0
  Ni  Ni723  1  0.42920004  0.04565183  0.82990854  1.0
  Ni  Ni724  1  0.42920004  0.37898517  0.82990854  1.0
  Ni  Ni725  1  0.42920004  0.71231850  0.82990854  1.0
  Ni  Ni726  1  0.76253337  0.04565183  0.82990854  1.0
  Ni  Ni727  1  0.76253337  0.37898517  0.82990854  1.0
  Ni  Ni728  1  0.76253337  0.71231850  0.82990854  1.0
  Ni  Ni729  1  0.19110480  0.21231850  0.75847996  1.0
  Ni  Ni730  1  0.19110480  0.54565183  0.75847996  1.0
  Ni  Ni731  1  0.19110480  0.87898517  0.75847996  1.0
  Ni  Ni732  1  0.52443813  0.21231850  0.75847996  1.0
  Ni  Ni733  1  0.52443813  0.54565183  0.75847996  1.0
  Ni  Ni734  1  0.52443813  0.87898517  0.75847996  1.0
  Ni  Ni735  1  0.85777146  0.21231850  0.75847996  1.0
  Ni  Ni736  1  0.85777146  0.54565183  0.75847996  1.0
  Ni  Ni737  1  0.85777146  0.87898517  0.75847996  1.0
  Ni  Ni738  1  0.27438551  0.03386300  0.79416218  1.0
  Ni  Ni739  1  0.27438551  0.36719633  0.79416218  1.0
  Ni  Ni740  1  0.27438551  0.70052967  0.79416218  1.0
  Ni  Ni741  1  0.60771885  0.03386300  0.79416218  1.0
  Ni  Ni742  1  0.60771885  0.36719633  0.79416218  1.0
  Ni  Ni743  1  0.60771885  0.70052967  0.79416218  1.0
  Ni  Ni744  1  0.94105218  0.03386300  0.79416218  1.0
  Ni  Ni745  1  0.94105218  0.36719633  0.79416218  1.0
  Ni  Ni746  1  0.94105218  0.70052967  0.79416218  1.0
  Ni  Ni747  1  0.03629027  0.20052967  0.72273361  1.0
  Ni  Ni748  1  0.03629027  0.53386300  0.72273361  1.0
  Ni  Ni749  1  0.03629027  0.86719633  0.72273361  1.0
  Ni  Ni750  1  0.36962361  0.20052967  0.72273361  1.0
  Ni  Ni751  1  0.36962361  0.53386300  0.72273361  1.0
  Ni  Ni752  1  0.36962361  0.86719633  0.72273361  1.0
  Ni  Ni753  1  0.70295694  0.20052967  0.72273361  1.0
  Ni  Ni754  1  0.70295694  0.53386300  0.72273361  1.0
  Ni  Ni755  1  0.70295694  0.86719633  0.72273361  1.0
  Ni  Ni756  1  0.16079289  0.28768150  0.76008439  1.0
  Ni  Ni757  1  0.16079289  0.62101483  0.76008439  1.0
  Ni  Ni758  1  0.16079289  0.95434817  0.76008439  1.0
  Ni  Ni759  1  0.49412623  0.28768150  0.76008439  1.0
  Ni  Ni760  1  0.49412623  0.62101483  0.76008439  1.0
  Ni  Ni761  1  0.49412623  0.95434817  0.76008439  1.0
  Ni  Ni762  1  0.82745956  0.28768150  0.76008439  1.0
  Ni  Ni763  1  0.82745956  0.62101483  0.76008439  1.0
  Ni  Ni764  1  0.82745956  0.95434817  0.76008439  1.0
  Ni  Ni765  1  0.06555480  0.12101483  0.83151296  1.0
  Ni  Ni766  1  0.06555480  0.45434817  0.83151296  1.0
  Ni  Ni767  1  0.06555480  0.78768150  0.83151296  1.0
  Ni  Ni768  1  0.39888813  0.12101483  0.83151296  1.0
  Ni  Ni769  1  0.39888813  0.45434817  0.83151296  1.0
  Ni  Ni770  1  0.39888813  0.78768150  0.83151296  1.0
  Ni  Ni771  1  0.73222146  0.12101483  0.83151296  1.0
  Ni  Ni772  1  0.73222146  0.45434817  0.83151296  1.0
  Ni  Ni773  1  0.73222146  0.78768150  0.83151296  1.0
  Ni  Ni774  1  0.31560742  0.29947033  0.79583075  1.0
  Ni  Ni775  1  0.31560742  0.63280367  0.79583075  1.0
  Ni  Ni776  1  0.31560742  0.96613700  0.79583075  1.0
  Ni  Ni777  1  0.64894075  0.29947033  0.79583075  1.0
  Ni  Ni778  1  0.64894075  0.63280367  0.79583075  1.0
  Ni  Ni779  1  0.64894075  0.96613700  0.79583075  1.0
  Ni  Ni780  1  0.98227408  0.29947033  0.79583075  1.0
  Ni  Ni781  1  0.98227408  0.63280367  0.79583075  1.0
  Ni  Ni782  1  0.98227408  0.96613700  0.79583075  1.0
  Ni  Ni783  1  0.07751218  0.13280367  0.72440218  1.0
  Ni  Ni784  1  0.07751218  0.46613700  0.72440218  1.0
  Ni  Ni785  1  0.07751218  0.79947033  0.72440218  1.0
  Ni  Ni786  1  0.41084551  0.13280367  0.72440218  1.0
  Ni  Ni787  1  0.41084551  0.46613700  0.72440218  1.0
  Ni  Ni788  1  0.41084551  0.79947033  0.72440218  1.0
  Ni  Ni789  1  0.74417885  0.13280367  0.72440218  1.0
  Ni  Ni790  1  0.74417885  0.46613700  0.72440218  1.0
  Ni  Ni791  1  0.74417885  0.79947033  0.72440218  1.0
  Ni  Ni792  1  0.19539542  0.04506267  0.75741475  1.0
  Ni  Ni793  1  0.19539542  0.37839600  0.75741475  1.0
  Ni  Ni794  1  0.19539542  0.71172933  0.75741475  1.0
  Ni  Ni795  1  0.52872875  0.04506267  0.75741475  1.0
  Ni  Ni796  1  0.52872875  0.37839600  0.75741475  1.0
  Ni  Ni797  1  0.52872875  0.71172933  0.75741475  1.0
  Ni  Ni798  1  0.86206208  0.04506267  0.75741475  1.0
  Ni  Ni799  1  0.86206208  0.37839600  0.75741475  1.0
  Ni  Ni800  1  0.86206208  0.71172933  0.75741475  1.0
  Ni  Ni801  1  0.10015732  0.21172933  0.82884332  1.0
  Ni  Ni802  1  0.10015732  0.54506267  0.82884332  1.0
  Ni  Ni803  1  0.10015732  0.87839600  0.82884332  1.0
  Ni  Ni804  1  0.43349065  0.21172933  0.82884332  1.0
  Ni  Ni805  1  0.43349065  0.54506267  0.82884332  1.0
  Ni  Ni806  1  0.43349065  0.87839600  0.82884332  1.0
  Ni  Ni807  1  0.76682399  0.21172933  0.82884332  1.0
  Ni  Ni808  1  0.76682399  0.54506267  0.82884332  1.0
  Ni  Ni809  1  0.76682399  0.87839600  0.82884332  1.0
  Ni  Ni810  1  0.06126418  0.28827067  0.83257818  1.0
  Ni  Ni811  1  0.06126418  0.62160400  0.83257818  1.0
  Ni  Ni812  1  0.06126418  0.95493733  0.83257818  1.0
  Ni  Ni813  1  0.39459751  0.28827067  0.83257818  1.0
  Ni  Ni814  1  0.39459751  0.62160400  0.83257818  1.0
  Ni  Ni815  1  0.39459751  0.95493733  0.83257818  1.0
  Ni  Ni816  1  0.72793085  0.28827067  0.83257818  1.0
  Ni  Ni817  1  0.72793085  0.62160400  0.83257818  1.0
  Ni  Ni818  1  0.72793085  0.95493733  0.83257818  1.0
  Ni  Ni819  1  0.15650227  0.12160400  0.76114961  1.0
  Ni  Ni820  1  0.15650227  0.45493733  0.76114961  1.0
  Ni  Ni821  1  0.15650227  0.78827067  0.76114961  1.0
  Ni  Ni822  1  0.48983561  0.12160400  0.76114961  1.0
  Ni  Ni823  1  0.48983561  0.45493733  0.76114961  1.0
  Ni  Ni824  1  0.48983561  0.78827067  0.76114961  1.0
  Ni  Ni825  1  0.82316894  0.12160400  0.76114961  1.0
  Ni  Ni826  1  0.82316894  0.45493733  0.76114961  1.0
  Ni  Ni827  1  0.82316894  0.78827067  0.76114961  1.0
  Ni  Ni828  1  0.23625970  0.29097283  0.77449854  1.0
  Ni  Ni829  1  0.23625970  0.62430617  0.77449854  1.0
  Ni  Ni830  1  0.23625970  0.95763950  0.77449854  1.0
  Ni  Ni831  1  0.56959304  0.29097283  0.77449854  1.0
  Ni  Ni832  1  0.56959304  0.62430617  0.77449854  1.0
  Ni  Ni833  1  0.56959304  0.95763950  0.77449854  1.0
  Ni  Ni834  1  0.90292637  0.29097283  0.77449854  1.0
  Ni  Ni835  1  0.90292637  0.62430617  0.77449854  1.0
  Ni  Ni836  1  0.90292637  0.95763950  0.77449854  1.0
  Ni  Ni837  1  0.14102161  0.12430617  0.84592711  1.0
  Ni  Ni838  1  0.14102161  0.45763950  0.84592711  1.0
  Ni  Ni839  1  0.14102161  0.79097283  0.84592711  1.0
  Ni  Ni840  1  0.47435494  0.12430617  0.84592711  1.0
  Ni  Ni841  1  0.47435494  0.45763950  0.84592711  1.0
  Ni  Ni842  1  0.47435494  0.79097283  0.84592711  1.0
  Ni  Ni843  1  0.80768827  0.12430617  0.84592711  1.0
  Ni  Ni844  1  0.80768827  0.45763950  0.84592711  1.0
  Ni  Ni845  1  0.80768827  0.79097283  0.84592711  1.0
  Ni  Ni846  1  0.02039989  0.04236050  0.81549439  1.0
  Ni  Ni847  1  0.02039989  0.37569383  0.81549439  1.0
  Ni  Ni848  1  0.02039989  0.70902717  0.81549439  1.0
  Ni  Ni849  1  0.35373323  0.04236050  0.81549439  1.0
  Ni  Ni850  1  0.35373323  0.37569383  0.81549439  1.0
  Ni  Ni851  1  0.35373323  0.70902717  0.81549439  1.0
  Ni  Ni852  1  0.68706656  0.04236050  0.81549439  1.0
  Ni  Ni853  1  0.68706656  0.37569383  0.81549439  1.0
  Ni  Ni854  1  0.68706656  0.70902717  0.81549439  1.0
  Ni  Ni855  1  0.11563799  0.20902717  0.74406582  1.0
  Ni  Ni856  1  0.11563799  0.54236050  0.74406582  1.0
  Ni  Ni857  1  0.11563799  0.87569383  0.74406582  1.0
  Ni  Ni858  1  0.44897132  0.20902717  0.74406582  1.0
  Ni  Ni859  1  0.44897132  0.54236050  0.74406582  1.0
  Ni  Ni860  1  0.44897132  0.87569383  0.74406582  1.0
  Ni  Ni861  1  0.78230465  0.20902717  0.74406582  1.0
  Ni  Ni862  1  0.78230465  0.54236050  0.74406582  1.0
  Ni  Ni863  1  0.78230465  0.87569383  0.74406582  1.0
  Ni  Ni864  1  0.13787718  0.29001650  0.84786068  1.0
  Ni  Ni865  1  0.13787718  0.62334983  0.84786068  1.0
  Ni  Ni866  1  0.13787718  0.95668317  0.84786068  1.0
  Ni  Ni867  1  0.47121051  0.29001650  0.84786068  1.0
  Ni  Ni868  1  0.47121051  0.62334983  0.84786068  1.0
  Ni  Ni869  1  0.47121051  0.95668317  0.84786068  1.0
  Ni  Ni870  1  0.80454385  0.29001650  0.84786068  1.0
  Ni  Ni871  1  0.80454385  0.62334983  0.84786068  1.0
  Ni  Ni872  1  0.80454385  0.95668317  0.84786068  1.0
  Ni  Ni873  1  0.23311527  0.12334983  0.77643211  1.0
  Ni  Ni874  1  0.23311527  0.45668317  0.77643211  1.0
  Ni  Ni875  1  0.23311527  0.79001650  0.77643211  1.0
  Ni  Ni876  1  0.56644861  0.12334983  0.77643211  1.0
  Ni  Ni877  1  0.56644861  0.45668317  0.77643211  1.0
  Ni  Ni878  1  0.56644861  0.79001650  0.77643211  1.0
  Ni  Ni879  1  0.89978194  0.12334983  0.77643211  1.0
  Ni  Ni880  1  0.89978194  0.45668317  0.77643211  1.0
  Ni  Ni881  1  0.89978194  0.79001650  0.77643211  1.0
  Ni  Ni882  1  0.24737742  0.25000000  0.83071075  1.0
  Ni  Ni883  1  0.24737742  0.58333333  0.83071075  1.0
  Ni  Ni884  1  0.24737742  0.91666667  0.83071075  1.0
  Ni  Ni885  1  0.58071075  0.25000000  0.83071075  1.0
  Ni  Ni886  1  0.58071075  0.58333333  0.83071075  1.0
  Ni  Ni887  1  0.58071075  0.91666667  0.83071075  1.0
  Ni  Ni888  1  0.91404408  0.25000000  0.83071075  1.0
  Ni  Ni889  1  0.91404408  0.58333333  0.83071075  1.0
  Ni  Ni890  1  0.91404408  0.91666667  0.83071075  1.0
  Ni  Ni891  1  0.00928218  0.08333333  0.75928218  1.0
  Ni  Ni892  1  0.00928218  0.41666667  0.75928218  1.0
  Ni  Ni893  1  0.00928218  0.75000000  0.75928218  1.0
  Ni  Ni894  1  0.34261551  0.08333333  0.75928218  1.0
  Ni  Ni895  1  0.34261551  0.41666667  0.75928218  1.0
  Ni  Ni896  1  0.34261551  0.75000000  0.75928218  1.0
  Ni  Ni897  1  0.67594885  0.08333333  0.75928218  1.0
  Ni  Ni898  1  0.67594885  0.41666667  0.75928218  1.0
  Ni  Ni899  1  0.67594885  0.75000000  0.75928218  1.0
  Ni  Ni900  1  0.22356789  0.16666667  0.72356789  1.0
  Ni  Ni901  1  0.22356789  0.50000000  0.72356789  1.0
  Ni  Ni902  1  0.22356789  0.83333333  0.72356789  1.0
  Ni  Ni903  1  0.55690123  0.16666667  0.72356789  1.0
  Ni  Ni904  1  0.55690123  0.50000000  0.72356789  1.0
  Ni  Ni905  1  0.55690123  0.83333333  0.72356789  1.0
  Ni  Ni906  1  0.89023456  0.16666667  0.72356789  1.0
  Ni  Ni907  1  0.89023456  0.50000000  0.72356789  1.0
  Ni  Ni908  1  0.89023456  0.83333333  0.72356789  1.0
  Ni  Ni909  1  0.12832980  0.33333333  0.79499646  1.0
  Ni  Ni910  1  0.12832980  0.66666667  0.79499646  1.0
  Ni  Ni911  1  0.12832980  0.00000000  0.79499646  1.0
  Ni  Ni912  1  0.46166313  0.33333333  0.79499646  1.0
  Ni  Ni913  1  0.46166313  0.66666667  0.79499646  1.0
  Ni  Ni914  1  0.46166313  0.00000000  0.79499646  1.0
  Ni  Ni915  1  0.79499646  0.33333333  0.79499646  1.0
  Ni  Ni916  1  0.79499646  0.66666667  0.79499646  1.0
  Ni  Ni917  1  0.79499646  0.00000000  0.79499646  1.0
  Ni  Ni918  1  0.00928218  0.25000000  0.75928218  1.0
  Ni  Ni919  1  0.00928218  0.58333333  0.75928218  1.0
  Ni  Ni920  1  0.00928218  0.91666667  0.75928218  1.0
  Ni  Ni921  1  0.34261551  0.25000000  0.75928218  1.0
  Ni  Ni922  1  0.34261551  0.58333333  0.75928218  1.0
  Ni  Ni923  1  0.34261551  0.91666667  0.75928218  1.0
  Ni  Ni924  1  0.67594885  0.25000000  0.75928218  1.0
  Ni  Ni925  1  0.67594885  0.58333333  0.75928218  1.0
  Ni  Ni926  1  0.67594885  0.91666667  0.75928218  1.0
  Ni  Ni927  1  0.24737742  0.08333333  0.83071075  1.0
  Ni  Ni928  1  0.24737742  0.41666667  0.83071075  1.0
  Ni  Ni929  1  0.24737742  0.75000000  0.83071075  1.0
  Ni  Ni930  1  0.58071075  0.08333333  0.83071075  1.0
  Ni  Ni931  1  0.58071075  0.41666667  0.83071075  1.0
  Ni  Ni932  1  0.58071075  0.75000000  0.83071075  1.0
  Ni  Ni933  1  0.91404408  0.08333333  0.83071075  1.0
  Ni  Ni934  1  0.91404408  0.41666667  0.83071075  1.0
  Ni  Ni935  1  0.91404408  0.75000000  0.83071075  1.0
  Ni  Ni936  1  0.02354432  0.20998350  0.81356082  1.0
  Ni  Ni937  1  0.02354432  0.54331683  0.81356082  1.0
  Ni  Ni938  1  0.02354432  0.87665017  0.81356082  1.0
  Ni  Ni939  1  0.35687765  0.20998350  0.81356082  1.0
  Ni  Ni940  1  0.35687765  0.54331683  0.81356082  1.0
  Ni  Ni941  1  0.35687765  0.87665017  0.81356082  1.0
  Ni  Ni942  1  0.69021099  0.20998350  0.81356082  1.0
  Ni  Ni943  1  0.69021099  0.54331683  0.81356082  1.0
  Ni  Ni944  1  0.69021099  0.87665017  0.81356082  1.0
  Ni  Ni945  1  0.11878242  0.04331683  0.74213225  1.0
  Ni  Ni946  1  0.11878242  0.37665017  0.74213225  1.0
  Ni  Ni947  1  0.11878242  0.70998350  0.74213225  1.0
  Ni  Ni948  1  0.45211575  0.04331683  0.74213225  1.0
  Ni  Ni949  1  0.45211575  0.37665017  0.74213225  1.0
  Ni  Ni950  1  0.45211575  0.70998350  0.74213225  1.0
  Ni  Ni951  1  0.78544908  0.04331683  0.74213225  1.0
  Ni  Ni952  1  0.78544908  0.37665017  0.74213225  1.0
  Ni  Ni953  1  0.78544908  0.70998350  0.74213225  1.0
  Ni  Ni954  1  0.28634289  0.04565183  0.68705139  1.0
  Ni  Ni955  1  0.28634289  0.37898517  0.68705139  1.0
  Ni  Ni956  1  0.28634289  0.71231850  0.68705139  1.0
  Ni  Ni957  1  0.61967623  0.04565183  0.68705139  1.0
  Ni  Ni958  1  0.61967623  0.37898517  0.68705139  1.0
  Ni  Ni959  1  0.61967623  0.71231850  0.68705139  1.0
  Ni  Ni960  1  0.95300956  0.04565183  0.68705139  1.0
  Ni  Ni961  1  0.95300956  0.37898517  0.68705139  1.0
  Ni  Ni962  1  0.95300956  0.71231850  0.68705139  1.0
  Ni  Ni963  1  0.04824765  0.21231850  0.61562282  1.0
  Ni  Ni964  1  0.04824765  0.54565183  0.61562282  1.0
  Ni  Ni965  1  0.04824765  0.87898517  0.61562282  1.0
  Ni  Ni966  1  0.38158099  0.21231850  0.61562282  1.0
  Ni  Ni967  1  0.38158099  0.54565183  0.61562282  1.0
  Ni  Ni968  1  0.38158099  0.87898517  0.61562282  1.0
  Ni  Ni969  1  0.71491432  0.21231850  0.61562282  1.0
  Ni  Ni970  1  0.71491432  0.54565183  0.61562282  1.0
  Ni  Ni971  1  0.71491432  0.87898517  0.61562282  1.0
  Ni  Ni972  1  0.13152837  0.03386300  0.65130504  1.0
  Ni  Ni973  1  0.13152837  0.36719633  0.65130504  1.0
  Ni  Ni974  1  0.13152837  0.70052967  0.65130504  1.0
  Ni  Ni975  1  0.46486170  0.03386300  0.65130504  1.0
  Ni  Ni976  1  0.46486170  0.36719633  0.65130504  1.0
  Ni  Ni977  1  0.46486170  0.70052967  0.65130504  1.0
  Ni  Ni978  1  0.79819504  0.03386300  0.65130504  1.0
  Ni  Ni979  1  0.79819504  0.36719633  0.65130504  1.0
  Ni  Ni980  1  0.79819504  0.70052967  0.65130504  1.0
  Ni  Ni981  1  0.22676646  0.20052967  0.57987646  1.0
  Ni  Ni982  1  0.22676646  0.53386300  0.57987646  1.0
  Ni  Ni983  1  0.22676646  0.86719633  0.57987646  1.0
  Ni  Ni984  1  0.56009980  0.20052967  0.57987646  1.0
  Ni  Ni985  1  0.56009980  0.53386300  0.57987646  1.0
  Ni  Ni986  1  0.56009980  0.86719633  0.57987646  1.0
  Ni  Ni987  1  0.89343313  0.20052967  0.57987646  1.0
  Ni  Ni988  1  0.89343313  0.53386300  0.57987646  1.0
  Ni  Ni989  1  0.89343313  0.86719633  0.57987646  1.0
  Ni  Ni990  1  0.01793575  0.28768150  0.61722725  1.0
  Ni  Ni991  1  0.01793575  0.62101483  0.61722725  1.0
  Ni  Ni992  1  0.01793575  0.95434817  0.61722725  1.0
  Ni  Ni993  1  0.35126908  0.28768150  0.61722725  1.0
  Ni  Ni994  1  0.35126908  0.62101483  0.61722725  1.0
  Ni  Ni995  1  0.35126908  0.95434817  0.61722725  1.0
  Ni  Ni996  1  0.68460242  0.28768150  0.61722725  1.0
  Ni  Ni997  1  0.68460242  0.62101483  0.61722725  1.0
  Ni  Ni998  1  0.68460242  0.95434817  0.61722725  1.0
  Ni  Ni999  1  0.25603099  0.12101483  0.68865582  1.0
  Ni  Ni1000  1  0.25603099  0.45434817  0.68865582  1.0
  Ni  Ni1001  1  0.25603099  0.78768150  0.68865582  1.0
  Ni  Ni1002  1  0.58936432  0.12101483  0.68865582  1.0
  Ni  Ni1003  1  0.58936432  0.45434817  0.68865582  1.0
  Ni  Ni1004  1  0.58936432  0.78768150  0.68865582  1.0
  Ni  Ni1005  1  0.92269765  0.12101483  0.68865582  1.0
  Ni  Ni1006  1  0.92269765  0.45434817  0.68865582  1.0
  Ni  Ni1007  1  0.92269765  0.78768150  0.68865582  1.0
  Ni  Ni1008  1  0.17275027  0.29947033  0.65297361  1.0
  Ni  Ni1009  1  0.17275027  0.63280367  0.65297361  1.0
  Ni  Ni1010  1  0.17275027  0.96613700  0.65297361  1.0
  Ni  Ni1011  1  0.50608361  0.29947033  0.65297361  1.0
  Ni  Ni1012  1  0.50608361  0.63280367  0.65297361  1.0
  Ni  Ni1013  1  0.50608361  0.96613700  0.65297361  1.0
  Ni  Ni1014  1  0.83941694  0.29947033  0.65297361  1.0
  Ni  Ni1015  1  0.83941694  0.63280367  0.65297361  1.0
  Ni  Ni1016  1  0.83941694  0.96613700  0.65297361  1.0
  Ni  Ni1017  1  0.26798837  0.13280367  0.58154504  1.0
  Ni  Ni1018  1  0.26798837  0.46613700  0.58154504  1.0
  Ni  Ni1019  1  0.26798837  0.79947033  0.58154504  1.0
  Ni  Ni1020  1  0.60132170  0.13280367  0.58154504  1.0
  Ni  Ni1021  1  0.60132170  0.46613700  0.58154504  1.0
  Ni  Ni1022  1  0.60132170  0.79947033  0.58154504  1.0
  Ni  Ni1023  1  0.93465504  0.13280367  0.58154504  1.0
  Ni  Ni1024  1  0.93465504  0.46613700  0.58154504  1.0
  Ni  Ni1025  1  0.93465504  0.79947033  0.58154504  1.0
  Ni  Ni1026  1  0.05253827  0.04506267  0.61455761  1.0
  Ni  Ni1027  1  0.05253827  0.37839600  0.61455761  1.0
  Ni  Ni1028  1  0.05253827  0.71172933  0.61455761  1.0
  Ni  Ni1029  1  0.38587161  0.04506267  0.61455761  1.0
  Ni  Ni1030  1  0.38587161  0.37839600  0.61455761  1.0
  Ni  Ni1031  1  0.38587161  0.71172933  0.61455761  1.0
  Ni  Ni1032  1  0.71920494  0.04506267  0.61455761  1.0
  Ni  Ni1033  1  0.71920494  0.37839600  0.61455761  1.0
  Ni  Ni1034  1  0.71920494  0.71172933  0.61455761  1.0
  Ni  Ni1035  1  0.29063351  0.21172933  0.68598618  1.0
  Ni  Ni1036  1  0.29063351  0.54506267  0.68598618  1.0
  Ni  Ni1037  1  0.29063351  0.87839600  0.68598618  1.0
  Ni  Ni1038  1  0.62396685  0.21172933  0.68598618  1.0
  Ni  Ni1039  1  0.62396685  0.54506267  0.68598618  1.0
  Ni  Ni1040  1  0.62396685  0.87839600  0.68598618  1.0
  Ni  Ni1041  1  0.95730018  0.21172933  0.68598618  1.0
  Ni  Ni1042  1  0.95730018  0.54506267  0.68598618  1.0
  Ni  Ni1043  1  0.95730018  0.87839600  0.68598618  1.0
  Ni  Ni1044  1  0.25174037  0.28827067  0.68972104  1.0
  Ni  Ni1045  1  0.25174037  0.62160400  0.68972104  1.0
  Ni  Ni1046  1  0.25174037  0.95493733  0.68972104  1.0
  Ni  Ni1047  1  0.58507370  0.28827067  0.68972104  1.0
  Ni  Ni1048  1  0.58507370  0.62160400  0.68972104  1.0
  Ni  Ni1049  1  0.58507370  0.95493733  0.68972104  1.0
  Ni  Ni1050  1  0.91840704  0.28827067  0.68972104  1.0
  Ni  Ni1051  1  0.91840704  0.62160400  0.68972104  1.0
  Ni  Ni1052  1  0.91840704  0.95493733  0.68972104  1.0
  Ni  Ni1053  1  0.01364513  0.12160400  0.61829246  1.0
  Ni  Ni1054  1  0.01364513  0.45493733  0.61829246  1.0
  Ni  Ni1055  1  0.01364513  0.78827067  0.61829246  1.0
  Ni  Ni1056  1  0.34697846  0.12160400  0.61829246  1.0
  Ni  Ni1057  1  0.34697846  0.45493733  0.61829246  1.0
  Ni  Ni1058  1  0.34697846  0.78827067  0.61829246  1.0
  Ni  Ni1059  1  0.68031180  0.12160400  0.61829246  1.0
  Ni  Ni1060  1  0.68031180  0.45493733  0.61829246  1.0
  Ni  Ni1061  1  0.68031180  0.78827067  0.61829246  1.0
  Ni  Ni1062  1  0.09340256  0.29097283  0.63164139  1.0
  Ni  Ni1063  1  0.09340256  0.62430617  0.63164139  1.0
  Ni  Ni1064  1  0.09340256  0.95763950  0.63164139  1.0
  Ni  Ni1065  1  0.42673589  0.29097283  0.63164139  1.0
  Ni  Ni1066  1  0.42673589  0.62430617  0.63164139  1.0
  Ni  Ni1067  1  0.42673589  0.95763950  0.63164139  1.0
  Ni  Ni1068  1  0.76006923  0.29097283  0.63164139  1.0
  Ni  Ni1069  1  0.76006923  0.62430617  0.63164139  1.0
  Ni  Ni1070  1  0.76006923  0.95763950  0.63164139  1.0
  Ni  Ni1071  1  0.33149780  0.12430617  0.70306996  1.0
  Ni  Ni1072  1  0.33149780  0.45763950  0.70306996  1.0
  Ni  Ni1073  1  0.33149780  0.79097283  0.70306996  1.0
  Ni  Ni1074  1  0.66483113  0.12430617  0.70306996  1.0
  Ni  Ni1075  1  0.66483113  0.45763950  0.70306996  1.0
  Ni  Ni1076  1  0.66483113  0.79097283  0.70306996  1.0
  Ni  Ni1077  1  0.99816446  0.12430617  0.70306996  1.0
  Ni  Ni1078  1  0.99816446  0.45763950  0.70306996  1.0
  Ni  Ni1079  1  0.99816446  0.79097283  0.70306996  1.0
  Ni  Ni1080  1  0.21087608  0.04236050  0.67263725  1.0
  Ni  Ni1081  1  0.21087608  0.37569383  0.67263725  1.0
  Ni  Ni1082  1  0.21087608  0.70902717  0.67263725  1.0
  Ni  Ni1083  1  0.54420942  0.04236050  0.67263725  1.0
  Ni  Ni1084  1  0.54420942  0.37569383  0.67263725  1.0
  Ni  Ni1085  1  0.54420942  0.70902717  0.67263725  1.0
  Ni  Ni1086  1  0.87754275  0.04236050  0.67263725  1.0
  Ni  Ni1087  1  0.87754275  0.37569383  0.67263725  1.0
  Ni  Ni1088  1  0.87754275  0.70902717  0.67263725  1.0
  Ni  Ni1089  1  0.30611418  0.20902717  0.60120868  1.0
  Ni  Ni1090  1  0.30611418  0.54236050  0.60120868  1.0
  Ni  Ni1091  1  0.30611418  0.87569383  0.60120868  1.0
  Ni  Ni1092  1  0.63944751  0.20902717  0.60120868  1.0
  Ni  Ni1093  1  0.63944751  0.54236050  0.60120868  1.0
  Ni  Ni1094  1  0.63944751  0.87569383  0.60120868  1.0
  Ni  Ni1095  1  0.97278085  0.20902717  0.60120868  1.0
  Ni  Ni1096  1  0.97278085  0.54236050  0.60120868  1.0
  Ni  Ni1097  1  0.97278085  0.87569383  0.60120868  1.0
  Ni  Ni1098  1  0.32835337  0.29001650  0.70500354  1.0
  Ni  Ni1099  1  0.32835337  0.62334983  0.70500354  1.0
  Ni  Ni1100  1  0.32835337  0.95668317  0.70500354  1.0
  Ni  Ni1101  1  0.66168670  0.29001650  0.70500354  1.0
  Ni  Ni1102  1  0.66168670  0.62334983  0.70500354  1.0
  Ni  Ni1103  1  0.66168670  0.95668317  0.70500354  1.0
  Ni  Ni1104  1  0.99502004  0.29001650  0.70500354  1.0
  Ni  Ni1105  1  0.99502004  0.62334983  0.70500354  1.0
  Ni  Ni1106  1  0.99502004  0.95668317  0.70500354  1.0
  Ni  Ni1107  1  0.09025813  0.12334983  0.63357496  1.0
  Ni  Ni1108  1  0.09025813  0.45668317  0.63357496  1.0
  Ni  Ni1109  1  0.09025813  0.79001650  0.63357496  1.0
  Ni  Ni1110  1  0.42359146  0.12334983  0.63357496  1.0
  Ni  Ni1111  1  0.42359146  0.45668317  0.63357496  1.0
  Ni  Ni1112  1  0.42359146  0.79001650  0.63357496  1.0
  Ni  Ni1113  1  0.75692480  0.12334983  0.63357496  1.0
  Ni  Ni1114  1  0.75692480  0.45668317  0.63357496  1.0
  Ni  Ni1115  1  0.75692480  0.79001650  0.63357496  1.0
  Ni  Ni1116  1  0.10452027  0.25000000  0.68785361  1.0
  Ni  Ni1117  1  0.10452027  0.58333333  0.68785361  1.0
  Ni  Ni1118  1  0.10452027  0.91666667  0.68785361  1.0
  Ni  Ni1119  1  0.43785361  0.25000000  0.68785361  1.0
  Ni  Ni1120  1  0.43785361  0.58333333  0.68785361  1.0
  Ni  Ni1121  1  0.43785361  0.91666667  0.68785361  1.0
  Ni  Ni1122  1  0.77118694  0.25000000  0.68785361  1.0
  Ni  Ni1123  1  0.77118694  0.58333333  0.68785361  1.0
  Ni  Ni1124  1  0.77118694  0.91666667  0.68785361  1.0
  Ni  Ni1125  1  0.19975837  0.08333333  0.61642504  1.0
  Ni  Ni1126  1  0.19975837  0.41666667  0.61642504  1.0
  Ni  Ni1127  1  0.19975837  0.75000000  0.61642504  1.0
  Ni  Ni1128  1  0.53309170  0.08333333  0.61642504  1.0
  Ni  Ni1129  1  0.53309170  0.41666667  0.61642504  1.0
  Ni  Ni1130  1  0.53309170  0.75000000  0.61642504  1.0
  Ni  Ni1131  1  0.86642504  0.08333333  0.61642504  1.0
  Ni  Ni1132  1  0.86642504  0.41666667  0.61642504  1.0
  Ni  Ni1133  1  0.86642504  0.75000000  0.61642504  1.0
  Ni  Ni1134  1  0.08071075  0.16666667  0.58071075  1.0
  Ni  Ni1135  1  0.08071075  0.50000000  0.58071075  1.0
  Ni  Ni1136  1  0.08071075  0.83333333  0.58071075  1.0
  Ni  Ni1137  1  0.41404408  0.16666667  0.58071075  1.0
  Ni  Ni1138  1  0.41404408  0.50000000  0.58071075  1.0
  Ni  Ni1139  1  0.41404408  0.83333333  0.58071075  1.0
  Ni  Ni1140  1  0.74737742  0.16666667  0.58071075  1.0
  Ni  Ni1141  1  0.74737742  0.50000000  0.58071075  1.0
  Ni  Ni1142  1  0.74737742  0.83333333  0.58071075  1.0
  Ni  Ni1143  1  0.31880599  0.33333333  0.65213932  1.0
  Ni  Ni1144  1  0.31880599  0.66666667  0.65213932  1.0
  Ni  Ni1145  1  0.31880599  0.00000000  0.65213932  1.0
  Ni  Ni1146  1  0.65213932  0.33333333  0.65213932  1.0
  Ni  Ni1147  1  0.65213932  0.66666667  0.65213932  1.0
  Ni  Ni1148  1  0.65213932  0.00000000  0.65213932  1.0
  Ni  Ni1149  1  0.98547265  0.33333333  0.65213932  1.0
  Ni  Ni1150  1  0.98547265  0.66666667  0.65213932  1.0
  Ni  Ni1151  1  0.98547265  0.00000000  0.65213932  1.0
  Ni  Ni1152  1  0.19975837  0.25000000  0.61642504  1.0
  Ni  Ni1153  1  0.19975837  0.58333333  0.61642504  1.0
  Ni  Ni1154  1  0.19975837  0.91666667  0.61642504  1.0
  Ni  Ni1155  1  0.53309170  0.25000000  0.61642504  1.0
  Ni  Ni1156  1  0.53309170  0.58333333  0.61642504  1.0
  Ni  Ni1157  1  0.53309170  0.91666667  0.61642504  1.0
  Ni  Ni1158  1  0.86642504  0.25000000  0.61642504  1.0
  Ni  Ni1159  1  0.86642504  0.58333333  0.61642504  1.0
  Ni  Ni1160  1  0.86642504  0.91666667  0.61642504  1.0
  Ni  Ni1161  1  0.10452027  0.08333333  0.68785361  1.0
  Ni  Ni1162  1  0.10452027  0.41666667  0.68785361  1.0
  Ni  Ni1163  1  0.10452027  0.75000000  0.68785361  1.0
  Ni  Ni1164  1  0.43785361  0.08333333  0.68785361  1.0
  Ni  Ni1165  1  0.43785361  0.41666667  0.68785361  1.0
  Ni  Ni1166  1  0.43785361  0.75000000  0.68785361  1.0
  Ni  Ni1167  1  0.77118694  0.08333333  0.68785361  1.0
  Ni  Ni1168  1  0.77118694  0.41666667  0.68785361  1.0
  Ni  Ni1169  1  0.77118694  0.75000000  0.68785361  1.0
  Ni  Ni1170  1  0.21402051  0.20998350  0.67070368  1.0
  Ni  Ni1171  1  0.21402051  0.54331683  0.67070368  1.0
  Ni  Ni1172  1  0.21402051  0.87665017  0.67070368  1.0
  Ni  Ni1173  1  0.54735385  0.20998350  0.67070368  1.0
  Ni  Ni1174  1  0.54735385  0.54331683  0.67070368  1.0
  Ni  Ni1175  1  0.54735385  0.87665017  0.67070368  1.0
  Ni  Ni1176  1  0.88068718  0.20998350  0.67070368  1.0
  Ni  Ni1177  1  0.88068718  0.54331683  0.67070368  1.0
  Ni  Ni1178  1  0.88068718  0.87665017  0.67070368  1.0
  Ni  Ni1179  1  0.30925861  0.04331683  0.59927511  1.0
  Ni  Ni1180  1  0.30925861  0.37665017  0.59927511  1.0
  Ni  Ni1181  1  0.30925861  0.70998350  0.59927511  1.0
  Ni  Ni1182  1  0.64259194  0.04331683  0.59927511  1.0
  Ni  Ni1183  1  0.64259194  0.37665017  0.59927511  1.0
  Ni  Ni1184  1  0.64259194  0.70998350  0.59927511  1.0
  Ni  Ni1185  1  0.97592527  0.04331683  0.59927511  1.0
  Ni  Ni1186  1  0.97592527  0.37665017  0.59927511  1.0
  Ni  Ni1187  1  0.97592527  0.70998350  0.59927511  1.0
