# generated using pymatgen
data_Ga9Ni13
_symmetry_space_group_name_H-M   'P 1'
_cell_length_a   23.80705972
_cell_length_b   34.76666456
_cell_length_c   30.28923838
_cell_angle_alpha   98.02310756
_cell_angle_beta   93.43886658
_cell_angle_gamma   100.02443573
_symmetry_Int_Tables_number   1
_chemical_formula_structural   Ga9Ni13
_chemical_formula_sum   'Ga324 Ni468'
_cell_volume   24354.30653680
_cell_formula_units_Z   36
loop_
 _symmetry_equiv_pos_site_id
 _symmetry_equiv_pos_as_xyz
  1  'x, y, z'
loop_
 _atom_site_type_symbol
 _atom_site_label
 _atom_site_symmetry_multiplicity
 _atom_site_fract_x
 _atom_site_fract_y
 _atom_site_fract_z
 _atom_site_occupancy
  Ga  Ga0  1  0.24716707  0.08006500  0.18974080  1.0
  Ga  Ga1  1  0.24716707  0.41339833  0.18974080  1.0
  Ga  Ga2  1  0.24716707  0.74673167  0.18974080  1.0
  Ga  Ga3  1  0.58050040  0.08006500  0.18974080  1.0
  Ga  Ga4  1  0.58050040  0.41339833  0.18974080  1.0
  Ga  Ga5  1  0.58050040  0.74673167  0.18974080  1.0
  Ga  Ga6  1  0.91383373  0.08006500  0.18974080  1.0
  Ga  Ga7  1  0.91383373  0.41339833  0.18974080  1.0
  Ga  Ga8  1  0.91383373  0.74673167  0.18974080  1.0
  Ga  Ga9  1  0.11383373  0.24673167  0.08974080  1.0
  Ga  Ga10  1  0.11383373  0.58006500  0.08974080  1.0
  Ga  Ga11  1  0.11383373  0.91339833  0.08974080  1.0
  Ga  Ga12  1  0.44716707  0.24673167  0.08974080  1.0
  Ga  Ga13  1  0.44716707  0.58006500  0.08974080  1.0
  Ga  Ga14  1  0.44716707  0.91339833  0.08974080  1.0
  Ga  Ga15  1  0.78050040  0.24673167  0.08974080  1.0
  Ga  Ga16  1  0.78050040  0.58006500  0.08974080  1.0
  Ga  Ga17  1  0.78050040  0.91339833  0.08974080  1.0
  Ga  Ga18  1  0.24260793  0.15672983  0.05131870  1.0
  Ga  Ga19  1  0.24260793  0.49006317  0.05131870  1.0
  Ga  Ga20  1  0.24260793  0.82339650  0.05131870  1.0
  Ga  Ga21  1  0.57594127  0.15672983  0.05131870  1.0
  Ga  Ga22  1  0.57594127  0.49006317  0.05131870  1.0
  Ga  Ga23  1  0.57594127  0.82339650  0.05131870  1.0
  Ga  Ga24  1  0.90927460  0.15672983  0.05131870  1.0
  Ga  Ga25  1  0.90927460  0.49006317  0.05131870  1.0
  Ga  Ga26  1  0.90927460  0.82339650  0.05131870  1.0
  Ga  Ga27  1  0.04260793  0.32339650  0.15131870  1.0
  Ga  Ga28  1  0.04260793  0.65672983  0.15131870  1.0
  Ga  Ga29  1  0.04260793  0.99006317  0.15131870  1.0
  Ga  Ga30  1  0.37594127  0.32339650  0.15131870  1.0
  Ga  Ga31  1  0.37594127  0.65672983  0.15131870  1.0
  Ga  Ga32  1  0.37594127  0.99006317  0.15131870  1.0
  Ga  Ga33  1  0.70927460  0.32339650  0.15131870  1.0
  Ga  Ga34  1  0.70927460  0.65672983  0.15131870  1.0
  Ga  Ga35  1  0.70927460  0.99006317  0.15131870  1.0
  Ga  Ga36  1  0.29178747  0.25326833  0.19339560  1.0
  Ga  Ga37  1  0.29178747  0.58660167  0.19339560  1.0
  Ga  Ga38  1  0.29178747  0.91993500  0.19339560  1.0
  Ga  Ga39  1  0.62512080  0.25326833  0.19339560  1.0
  Ga  Ga40  1  0.62512080  0.58660167  0.19339560  1.0
  Ga  Ga41  1  0.62512080  0.91993500  0.19339560  1.0
  Ga  Ga42  1  0.95845413  0.25326833  0.19339560  1.0
  Ga  Ga43  1  0.95845413  0.58660167  0.19339560  1.0
  Ga  Ga44  1  0.95845413  0.91993500  0.19339560  1.0
  Ga  Ga45  1  0.15845413  0.08660167  0.09339560  1.0
  Ga  Ga46  1  0.15845413  0.41993500  0.09339560  1.0
  Ga  Ga47  1  0.15845413  0.75326833  0.09339560  1.0
  Ga  Ga48  1  0.49178747  0.08660167  0.09339560  1.0
  Ga  Ga49  1  0.49178747  0.41993500  0.09339560  1.0
  Ga  Ga50  1  0.49178747  0.75326833  0.09339560  1.0
  Ga  Ga51  1  0.82512080  0.08660167  0.09339560  1.0
  Ga  Ga52  1  0.82512080  0.41993500  0.09339560  1.0
  Ga  Ga53  1  0.82512080  0.75326833  0.09339560  1.0
  Ga  Ga54  1  0.02967993  0.17660350  0.13181770  1.0
  Ga  Ga55  1  0.02967993  0.50993683  0.13181770  1.0
  Ga  Ga56  1  0.02967993  0.84327017  0.13181770  1.0
  Ga  Ga57  1  0.36301327  0.17660350  0.13181770  1.0
  Ga  Ga58  1  0.36301327  0.50993683  0.13181770  1.0
  Ga  Ga59  1  0.36301327  0.84327017  0.13181770  1.0
  Ga  Ga60  1  0.69634660  0.17660350  0.13181770  1.0
  Ga  Ga61  1  0.69634660  0.50993683  0.13181770  1.0
  Ga  Ga62  1  0.69634660  0.84327017  0.13181770  1.0
  Ga  Ga63  1  0.22967993  0.00993683  0.03181770  1.0
  Ga  Ga64  1  0.22967993  0.34327017  0.03181770  1.0
  Ga  Ga65  1  0.22967993  0.67660350  0.03181770  1.0
  Ga  Ga66  1  0.56301327  0.00993683  0.03181770  1.0
  Ga  Ga67  1  0.56301327  0.34327017  0.03181770  1.0
  Ga  Ga68  1  0.56301327  0.67660350  0.03181770  1.0
  Ga  Ga69  1  0.89634660  0.00993683  0.03181770  1.0
  Ga  Ga70  1  0.89634660  0.34327017  0.03181770  1.0
  Ga  Ga71  1  0.89634660  0.67660350  0.03181770  1.0
  Ga  Ga72  1  0.10223027  0.15705517  0.05171570  1.0
  Ga  Ga73  1  0.10223027  0.49038850  0.05171570  1.0
  Ga  Ga74  1  0.10223027  0.82372183  0.05171570  1.0
  Ga  Ga75  1  0.43556360  0.15705517  0.05171570  1.0
  Ga  Ga76  1  0.43556360  0.49038850  0.05171570  1.0
  Ga  Ga77  1  0.43556360  0.82372183  0.05171570  1.0
  Ga  Ga78  1  0.76889693  0.15705517  0.05171570  1.0
  Ga  Ga79  1  0.76889693  0.49038850  0.05171570  1.0
  Ga  Ga80  1  0.76889693  0.82372183  0.05171570  1.0
  Ga  Ga81  1  0.23556360  0.32372183  0.15171570  1.0
  Ga  Ga82  1  0.23556360  0.65705517  0.15171570  1.0
  Ga  Ga83  1  0.23556360  0.99038850  0.15171570  1.0
  Ga  Ga84  1  0.56889693  0.32372183  0.15171570  1.0
  Ga  Ga85  1  0.56889693  0.65705517  0.15171570  1.0
  Ga  Ga86  1  0.56889693  0.99038850  0.15171570  1.0
  Ga  Ga87  1  0.90223027  0.32372183  0.15171570  1.0
  Ga  Ga88  1  0.90223027  0.65705517  0.15171570  1.0
  Ga  Ga89  1  0.90223027  0.99038850  0.15171570  1.0
  Ga  Ga90  1  0.17005760  0.17627817  0.13142070  1.0
  Ga  Ga91  1  0.17005760  0.50961150  0.13142070  1.0
  Ga  Ga92  1  0.17005760  0.84294483  0.13142070  1.0
  Ga  Ga93  1  0.50339093  0.17627817  0.13142070  1.0
  Ga  Ga94  1  0.50339093  0.50961150  0.13142070  1.0
  Ga  Ga95  1  0.50339093  0.84294483  0.13142070  1.0
  Ga  Ga96  1  0.83672427  0.17627817  0.13142070  1.0
  Ga  Ga97  1  0.83672427  0.50961150  0.13142070  1.0
  Ga  Ga98  1  0.83672427  0.84294483  0.13142070  1.0
  Ga  Ga99  1  0.03672427  0.00961150  0.03142070  1.0
  Ga  Ga100  1  0.03672427  0.34294483  0.03142070  1.0
  Ga  Ga101  1  0.03672427  0.67627817  0.03142070  1.0
  Ga  Ga102  1  0.37005760  0.00961150  0.03142070  1.0
  Ga  Ga103  1  0.37005760  0.34294483  0.03142070  1.0
  Ga  Ga104  1  0.37005760  0.67627817  0.03142070  1.0
  Ga  Ga105  1  0.70339093  0.00961150  0.03142070  1.0
  Ga  Ga106  1  0.70339093  0.34294483  0.03142070  1.0
  Ga  Ga107  1  0.70339093  0.67627817  0.03142070  1.0
  Ga  Ga108  1  0.32213673  0.07654267  0.09587680  1.0
  Ga  Ga109  1  0.32213673  0.40987600  0.09587680  1.0
  Ga  Ga110  1  0.32213673  0.74320933  0.09587680  1.0
  Ga  Ga111  1  0.65547007  0.07654267  0.09587680  1.0
  Ga  Ga112  1  0.65547007  0.40987600  0.09587680  1.0
  Ga  Ga113  1  0.65547007  0.74320933  0.09587680  1.0
  Ga  Ga114  1  0.98880340  0.07654267  0.09587680  1.0
  Ga  Ga115  1  0.98880340  0.40987600  0.09587680  1.0
  Ga  Ga116  1  0.98880340  0.74320933  0.09587680  1.0
  Ga  Ga117  1  0.12213673  0.24320933  0.19587680  1.0
  Ga  Ga118  1  0.12213673  0.57654267  0.19587680  1.0
  Ga  Ga119  1  0.12213673  0.90987600  0.19587680  1.0
  Ga  Ga120  1  0.45547007  0.24320933  0.19587680  1.0
  Ga  Ga121  1  0.45547007  0.57654267  0.19587680  1.0
  Ga  Ga122  1  0.45547007  0.90987600  0.19587680  1.0
  Ga  Ga123  1  0.78880340  0.24320933  0.19587680  1.0
  Ga  Ga124  1  0.78880340  0.57654267  0.19587680  1.0
  Ga  Ga125  1  0.78880340  0.90987600  0.19587680  1.0
  Ga  Ga126  1  0.28348447  0.25679067  0.08725960  1.0
  Ga  Ga127  1  0.28348447  0.59012400  0.08725960  1.0
  Ga  Ga128  1  0.28348447  0.92345733  0.08725960  1.0
  Ga  Ga129  1  0.61681780  0.25679067  0.08725960  1.0
  Ga  Ga130  1  0.61681780  0.59012400  0.08725960  1.0
  Ga  Ga131  1  0.61681780  0.92345733  0.08725960  1.0
  Ga  Ga132  1  0.95015113  0.25679067  0.08725960  1.0
  Ga  Ga133  1  0.95015113  0.59012400  0.08725960  1.0
  Ga  Ga134  1  0.95015113  0.92345733  0.08725960  1.0
  Ga  Ga135  1  0.08348447  0.09012400  0.18725960  1.0
  Ga  Ga136  1  0.08348447  0.42345733  0.18725960  1.0
  Ga  Ga137  1  0.08348447  0.75679067  0.18725960  1.0
  Ga  Ga138  1  0.41681780  0.09012400  0.18725960  1.0
  Ga  Ga139  1  0.41681780  0.42345733  0.18725960  1.0
  Ga  Ga140  1  0.41681780  0.75679067  0.18725960  1.0
  Ga  Ga141  1  0.75015113  0.09012400  0.18725960  1.0
  Ga  Ga142  1  0.75015113  0.42345733  0.18725960  1.0
  Ga  Ga143  1  0.75015113  0.75679067  0.18725960  1.0
  Ga  Ga144  1  0.26947727  0.16666667  0.19156820  1.0
  Ga  Ga145  1  0.26947727  0.50000000  0.19156820  1.0
  Ga  Ga146  1  0.26947727  0.83333333  0.19156820  1.0
  Ga  Ga147  1  0.60281060  0.16666667  0.19156820  1.0
  Ga  Ga148  1  0.60281060  0.50000000  0.19156820  1.0
  Ga  Ga149  1  0.60281060  0.83333333  0.19156820  1.0
  Ga  Ga150  1  0.93614393  0.16666667  0.19156820  1.0
  Ga  Ga151  1  0.93614393  0.50000000  0.19156820  1.0
  Ga  Ga152  1  0.93614393  0.83333333  0.19156820  1.0
  Ga  Ga153  1  0.13614393  0.33333333  0.09156820  1.0
  Ga  Ga154  1  0.13614393  0.66666667  0.09156820  1.0
  Ga  Ga155  1  0.13614393  0.00000000  0.09156820  1.0
  Ga  Ga156  1  0.46947727  0.33333333  0.09156820  1.0
  Ga  Ga157  1  0.46947727  0.66666667  0.09156820  1.0
  Ga  Ga158  1  0.46947727  0.00000000  0.09156820  1.0
  Ga  Ga159  1  0.80281060  0.33333333  0.09156820  1.0
  Ga  Ga160  1  0.80281060  0.66666667  0.09156820  1.0
  Ga  Ga161  1  0.80281060  0.00000000  0.09156820  1.0
  Ga  Ga162  1  0.18050040  0.08006500  0.38974080  1.0
  Ga  Ga163  1  0.18050040  0.41339833  0.38974080  1.0
  Ga  Ga164  1  0.18050040  0.74673167  0.38974080  1.0
  Ga  Ga165  1  0.51383373  0.08006500  0.38974080  1.0
  Ga  Ga166  1  0.51383373  0.41339833  0.38974080  1.0
  Ga  Ga167  1  0.51383373  0.74673167  0.38974080  1.0
  Ga  Ga168  1  0.84716707  0.08006500  0.38974080  1.0
  Ga  Ga169  1  0.84716707  0.41339833  0.38974080  1.0
  Ga  Ga170  1  0.84716707  0.74673167  0.38974080  1.0
  Ga  Ga171  1  0.04716707  0.24673167  0.28974080  1.0
  Ga  Ga172  1  0.04716707  0.58006500  0.28974080  1.0
  Ga  Ga173  1  0.04716707  0.91339833  0.28974080  1.0
  Ga  Ga174  1  0.38050040  0.24673167  0.28974080  1.0
  Ga  Ga175  1  0.38050040  0.58006500  0.28974080  1.0
  Ga  Ga176  1  0.38050040  0.91339833  0.28974080  1.0
  Ga  Ga177  1  0.71383373  0.24673167  0.28974080  1.0
  Ga  Ga178  1  0.71383373  0.58006500  0.28974080  1.0
  Ga  Ga179  1  0.71383373  0.91339833  0.28974080  1.0
  Ga  Ga180  1  0.17594127  0.15672983  0.25131870  1.0
  Ga  Ga181  1  0.17594127  0.49006317  0.25131870  1.0
  Ga  Ga182  1  0.17594127  0.82339650  0.25131870  1.0
  Ga  Ga183  1  0.50927460  0.15672983  0.25131870  1.0
  Ga  Ga184  1  0.50927460  0.49006317  0.25131870  1.0
  Ga  Ga185  1  0.50927460  0.82339650  0.25131870  1.0
  Ga  Ga186  1  0.84260793  0.15672983  0.25131870  1.0
  Ga  Ga187  1  0.84260793  0.49006317  0.25131870  1.0
  Ga  Ga188  1  0.84260793  0.82339650  0.25131870  1.0
  Ga  Ga189  1  0.30927460  0.32339650  0.35131870  1.0
  Ga  Ga190  1  0.30927460  0.65672983  0.35131870  1.0
  Ga  Ga191  1  0.30927460  0.99006317  0.35131870  1.0
  Ga  Ga192  1  0.64260793  0.32339650  0.35131870  1.0
  Ga  Ga193  1  0.64260793  0.65672983  0.35131870  1.0
  Ga  Ga194  1  0.64260793  0.99006317  0.35131870  1.0
  Ga  Ga195  1  0.97594127  0.32339650  0.35131870  1.0
  Ga  Ga196  1  0.97594127  0.65672983  0.35131870  1.0
  Ga  Ga197  1  0.97594127  0.99006317  0.35131870  1.0
  Ga  Ga198  1  0.22512080  0.25326833  0.39339560  1.0
  Ga  Ga199  1  0.22512080  0.58660167  0.39339560  1.0
  Ga  Ga200  1  0.22512080  0.91993500  0.39339560  1.0
  Ga  Ga201  1  0.55845413  0.25326833  0.39339560  1.0
  Ga  Ga202  1  0.55845413  0.58660167  0.39339560  1.0
  Ga  Ga203  1  0.55845413  0.91993500  0.39339560  1.0
  Ga  Ga204  1  0.89178747  0.25326833  0.39339560  1.0
  Ga  Ga205  1  0.89178747  0.58660167  0.39339560  1.0
  Ga  Ga206  1  0.89178747  0.91993500  0.39339560  1.0
  Ga  Ga207  1  0.09178747  0.08660167  0.29339560  1.0
  Ga  Ga208  1  0.09178747  0.41993500  0.29339560  1.0
  Ga  Ga209  1  0.09178747  0.75326833  0.29339560  1.0
  Ga  Ga210  1  0.42512080  0.08660167  0.29339560  1.0
  Ga  Ga211  1  0.42512080  0.41993500  0.29339560  1.0
  Ga  Ga212  1  0.42512080  0.75326833  0.29339560  1.0
  Ga  Ga213  1  0.75845413  0.08660167  0.29339560  1.0
  Ga  Ga214  1  0.75845413  0.41993500  0.29339560  1.0
  Ga  Ga215  1  0.75845413  0.75326833  0.29339560  1.0
  Ga  Ga216  1  0.29634660  0.17660350  0.33181770  1.0
  Ga  Ga217  1  0.29634660  0.50993683  0.33181770  1.0
  Ga  Ga218  1  0.29634660  0.84327017  0.33181770  1.0
  Ga  Ga219  1  0.62967993  0.17660350  0.33181770  1.0
  Ga  Ga220  1  0.62967993  0.50993683  0.33181770  1.0
  Ga  Ga221  1  0.62967993  0.84327017  0.33181770  1.0
  Ga  Ga222  1  0.96301327  0.17660350  0.33181770  1.0
  Ga  Ga223  1  0.96301327  0.50993683  0.33181770  1.0
  Ga  Ga224  1  0.96301327  0.84327017  0.33181770  1.0
  Ga  Ga225  1  0.16301327  0.00993683  0.23181770  1.0
  Ga  Ga226  1  0.16301327  0.34327017  0.23181770  1.0
  Ga  Ga227  1  0.16301327  0.67660350  0.23181770  1.0
  Ga  Ga228  1  0.49634660  0.00993683  0.23181770  1.0
  Ga  Ga229  1  0.49634660  0.34327017  0.23181770  1.0
  Ga  Ga230  1  0.49634660  0.67660350  0.23181770  1.0
  Ga  Ga231  1  0.82967993  0.00993683  0.23181770  1.0
  Ga  Ga232  1  0.82967993  0.34327017  0.23181770  1.0
  Ga  Ga233  1  0.82967993  0.67660350  0.23181770  1.0
  Ga  Ga234  1  0.03556360  0.15705517  0.25171570  1.0
  Ga  Ga235  1  0.03556360  0.49038850  0.25171570  1.0
  Ga  Ga236  1  0.03556360  0.82372183  0.25171570  1.0
  Ga  Ga237  1  0.36889693  0.15705517  0.25171570  1.0
  Ga  Ga238  1  0.36889693  0.49038850  0.25171570  1.0
  Ga  Ga239  1  0.36889693  0.82372183  0.25171570  1.0
  Ga  Ga240  1  0.70223027  0.15705517  0.25171570  1.0
  Ga  Ga241  1  0.70223027  0.49038850  0.25171570  1.0
  Ga  Ga242  1  0.70223027  0.82372183  0.25171570  1.0
  Ga  Ga243  1  0.16889693  0.32372183  0.35171570  1.0
  Ga  Ga244  1  0.16889693  0.65705517  0.35171570  1.0
  Ga  Ga245  1  0.16889693  0.99038850  0.35171570  1.0
  Ga  Ga246  1  0.50223027  0.32372183  0.35171570  1.0
  Ga  Ga247  1  0.50223027  0.65705517  0.35171570  1.0
  Ga  Ga248  1  0.50223027  0.99038850  0.35171570  1.0
  Ga  Ga249  1  0.83556360  0.32372183  0.35171570  1.0
  Ga  Ga250  1  0.83556360  0.65705517  0.35171570  1.0
  Ga  Ga251  1  0.83556360  0.99038850  0.35171570  1.0
  Ga  Ga252  1  0.10339093  0.17627817  0.33142070  1.0
  Ga  Ga253  1  0.10339093  0.50961150  0.33142070  1.0
  Ga  Ga254  1  0.10339093  0.84294483  0.33142070  1.0
  Ga  Ga255  1  0.43672427  0.17627817  0.33142070  1.0
  Ga  Ga256  1  0.43672427  0.50961150  0.33142070  1.0
  Ga  Ga257  1  0.43672427  0.84294483  0.33142070  1.0
  Ga  Ga258  1  0.77005760  0.17627817  0.33142070  1.0
  Ga  Ga259  1  0.77005760  0.50961150  0.33142070  1.0
  Ga  Ga260  1  0.77005760  0.84294483  0.33142070  1.0
  Ga  Ga261  1  0.30339093  0.00961150  0.23142070  1.0
  Ga  Ga262  1  0.30339093  0.34294483  0.23142070  1.0
  Ga  Ga263  1  0.30339093  0.67627817  0.23142070  1.0
  Ga  Ga264  1  0.63672427  0.00961150  0.23142070  1.0
  Ga  Ga265  1  0.63672427  0.34294483  0.23142070  1.0
  Ga  Ga266  1  0.63672427  0.67627817  0.23142070  1.0
  Ga  Ga267  1  0.97005760  0.00961150  0.23142070  1.0
  Ga  Ga268  1  0.97005760  0.34294483  0.23142070  1.0
  Ga  Ga269  1  0.97005760  0.67627817  0.23142070  1.0
  Ga  Ga270  1  0.25547007  0.07654267  0.29587680  1.0
  Ga  Ga271  1  0.25547007  0.40987600  0.29587680  1.0
  Ga  Ga272  1  0.25547007  0.74320933  0.29587680  1.0
  Ga  Ga273  1  0.58880340  0.07654267  0.29587680  1.0
  Ga  Ga274  1  0.58880340  0.40987600  0.29587680  1.0
  Ga  Ga275  1  0.58880340  0.74320933  0.29587680  1.0
  Ga  Ga276  1  0.92213673  0.07654267  0.29587680  1.0
  Ga  Ga277  1  0.92213673  0.40987600  0.29587680  1.0
  Ga  Ga278  1  0.92213673  0.74320933  0.29587680  1.0
  Ga  Ga279  1  0.05547007  0.24320933  0.39587680  1.0
  Ga  Ga280  1  0.05547007  0.57654267  0.39587680  1.0
  Ga  Ga281  1  0.05547007  0.90987600  0.39587680  1.0
  Ga  Ga282  1  0.38880340  0.24320933  0.39587680  1.0
  Ga  Ga283  1  0.38880340  0.57654267  0.39587680  1.0
  Ga  Ga284  1  0.38880340  0.90987600  0.39587680  1.0
  Ga  Ga285  1  0.72213673  0.24320933  0.39587680  1.0
  Ga  Ga286  1  0.72213673  0.57654267  0.39587680  1.0
  Ga  Ga287  1  0.72213673  0.90987600  0.39587680  1.0
  Ga  Ga288  1  0.21681780  0.25679067  0.28725960  1.0
  Ga  Ga289  1  0.21681780  0.59012400  0.28725960  1.0
  Ga  Ga290  1  0.21681780  0.92345733  0.28725960  1.0
  Ga  Ga291  1  0.55015113  0.25679067  0.28725960  1.0
  Ga  Ga292  1  0.55015113  0.59012400  0.28725960  1.0
  Ga  Ga293  1  0.55015113  0.92345733  0.28725960  1.0
  Ga  Ga294  1  0.88348447  0.25679067  0.28725960  1.0
  Ga  Ga295  1  0.88348447  0.59012400  0.28725960  1.0
  Ga  Ga296  1  0.88348447  0.92345733  0.28725960  1.0
  Ga  Ga297  1  0.01681780  0.09012400  0.38725960  1.0
  Ga  Ga298  1  0.01681780  0.42345733  0.38725960  1.0
  Ga  Ga299  1  0.01681780  0.75679067  0.38725960  1.0
  Ga  Ga300  1  0.35015113  0.09012400  0.38725960  1.0
  Ga  Ga301  1  0.35015113  0.42345733  0.38725960  1.0
  Ga  Ga302  1  0.35015113  0.75679067  0.38725960  1.0
  Ga  Ga303  1  0.68348447  0.09012400  0.38725960  1.0
  Ga  Ga304  1  0.68348447  0.42345733  0.38725960  1.0
  Ga  Ga305  1  0.68348447  0.75679067  0.38725960  1.0
  Ga  Ga306  1  0.20281060  0.16666667  0.39156820  1.0
  Ga  Ga307  1  0.20281060  0.50000000  0.39156820  1.0
  Ga  Ga308  1  0.20281060  0.83333333  0.39156820  1.0
  Ga  Ga309  1  0.53614393  0.16666667  0.39156820  1.0
  Ga  Ga310  1  0.53614393  0.50000000  0.39156820  1.0
  Ga  Ga311  1  0.53614393  0.83333333  0.39156820  1.0
  Ga  Ga312  1  0.86947727  0.16666667  0.39156820  1.0
  Ga  Ga313  1  0.86947727  0.50000000  0.39156820  1.0
  Ga  Ga314  1  0.86947727  0.83333333  0.39156820  1.0
  Ga  Ga315  1  0.06947727  0.33333333  0.29156820  1.0
  Ga  Ga316  1  0.06947727  0.66666667  0.29156820  1.0
  Ga  Ga317  1  0.06947727  1.00000000  0.29156820  1.0
  Ga  Ga318  1  0.40281060  0.33333333  0.29156820  1.0
  Ga  Ga319  1  0.40281060  0.66666667  0.29156820  1.0
  Ga  Ga320  1  0.40281060  1.00000000  0.29156820  1.0
  Ga  Ga321  1  0.73614393  0.33333333  0.29156820  1.0
  Ga  Ga322  1  0.73614393  0.66666667  0.29156820  1.0
  Ga  Ga323  1  0.73614393  1.00000000  0.29156820  1.0
  Ni  Ni324  1  0.17649887  0.12101483  0.17262890  1.0
  Ni  Ni325  1  0.17649887  0.45434817  0.17262890  1.0
  Ni  Ni326  1  0.17649887  0.78768150  0.17262890  1.0
  Ni  Ni327  1  0.50983220  0.12101483  0.17262890  1.0
  Ni  Ni328  1  0.50983220  0.45434817  0.17262890  1.0
  Ni  Ni329  1  0.50983220  0.78768150  0.17262890  1.0
  Ni  Ni330  1  0.84316553  0.12101483  0.17262890  1.0
  Ni  Ni331  1  0.84316553  0.45434817  0.17262890  1.0
  Ni  Ni332  1  0.84316553  0.78768150  0.17262890  1.0
  Ni  Ni333  1  0.04316553  0.28768150  0.07262890  1.0
  Ni  Ni334  1  0.04316553  0.62101483  0.07262890  1.0
  Ni  Ni335  1  0.04316553  0.95434817  0.07262890  1.0
  Ni  Ni336  1  0.37649887  0.28768150  0.07262890  1.0
  Ni  Ni337  1  0.37649887  0.62101483  0.07262890  1.0
  Ni  Ni338  1  0.37649887  0.95434817  0.07262890  1.0
  Ni  Ni339  1  0.70983220  0.28768150  0.07262890  1.0
  Ni  Ni340  1  0.70983220  0.62101483  0.07262890  1.0
  Ni  Ni341  1  0.70983220  0.95434817  0.07262890  1.0
  Ni  Ni342  1  0.00037120  0.13280367  0.05821640  1.0
  Ni  Ni343  1  0.00037120  0.46613700  0.05821640  1.0
  Ni  Ni344  1  0.00037120  0.79947033  0.05821640  1.0
  Ni  Ni345  1  0.33370453  0.13280367  0.05821640  1.0
  Ni  Ni346  1  0.33370453  0.46613700  0.05821640  1.0
  Ni  Ni347  1  0.33370453  0.79947033  0.05821640  1.0
  Ni  Ni348  1  0.66703787  0.13280367  0.05821640  1.0
  Ni  Ni349  1  0.66703787  0.46613700  0.05821640  1.0
  Ni  Ni350  1  0.66703787  0.79947033  0.05821640  1.0
  Ni  Ni351  1  0.13370453  0.29947033  0.15821640  1.0
  Ni  Ni352  1  0.13370453  0.63280367  0.15821640  1.0
  Ni  Ni353  1  0.13370453  0.96613700  0.15821640  1.0
  Ni  Ni354  1  0.46703787  0.29947033  0.15821640  1.0
  Ni  Ni355  1  0.46703787  0.63280367  0.15821640  1.0
  Ni  Ni356  1  0.46703787  0.96613700  0.15821640  1.0
  Ni  Ni357  1  0.80037120  0.29947033  0.15821640  1.0
  Ni  Ni358  1  0.80037120  0.63280367  0.15821640  1.0
  Ni  Ni359  1  0.80037120  0.96613700  0.15821640  1.0
  Ni  Ni360  1  0.09578900  0.21231850  0.01050750  1.0
  Ni  Ni361  1  0.09578900  0.54565183  0.01050750  1.0
  Ni  Ni362  1  0.09578900  0.87898517  0.01050750  1.0
  Ni  Ni363  1  0.42912233  0.21231850  0.01050750  1.0
  Ni  Ni364  1  0.42912233  0.54565183  0.01050750  1.0
  Ni  Ni365  1  0.42912233  0.87898517  0.01050750  1.0
  Ni  Ni366  1  0.76245567  0.21231850  0.01050750  1.0
  Ni  Ni367  1  0.76245567  0.54565183  0.01050750  1.0
  Ni  Ni368  1  0.76245567  0.87898517  0.01050750  1.0
  Ni  Ni369  1  0.22912233  0.04565183  0.11050750  1.0
  Ni  Ni370  1  0.22912233  0.37898517  0.11050750  1.0
  Ni  Ni371  1  0.22912233  0.71231850  0.11050750  1.0
  Ni  Ni372  1  0.56245567  0.04565183  0.11050750  1.0
  Ni  Ni373  1  0.56245567  0.37898517  0.11050750  1.0
  Ni  Ni374  1  0.56245567  0.71231850  0.11050750  1.0
  Ni  Ni375  1  0.89578900  0.04565183  0.11050750  1.0
  Ni  Ni376  1  0.89578900  0.37898517  0.11050750  1.0
  Ni  Ni377  1  0.89578900  0.71231850  0.11050750  1.0
  Ni  Ni378  1  0.27191667  0.20052967  0.12492000  1.0
  Ni  Ni379  1  0.27191667  0.53386300  0.12492000  1.0
  Ni  Ni380  1  0.27191667  0.86719633  0.12492000  1.0
  Ni  Ni381  1  0.60525000  0.20052967  0.12492000  1.0
  Ni  Ni382  1  0.60525000  0.53386300  0.12492000  1.0
  Ni  Ni383  1  0.60525000  0.86719633  0.12492000  1.0
  Ni  Ni384  1  0.93858333  0.20052967  0.12492000  1.0
  Ni  Ni385  1  0.93858333  0.53386300  0.12492000  1.0
  Ni  Ni386  1  0.93858333  0.86719633  0.12492000  1.0
  Ni  Ni387  1  0.13858333  0.03386300  0.02492000  1.0
  Ni  Ni388  1  0.13858333  0.36719633  0.02492000  1.0
  Ni  Ni389  1  0.13858333  0.70052967  0.02492000  1.0
  Ni  Ni390  1  0.47191667  0.03386300  0.02492000  1.0
  Ni  Ni391  1  0.47191667  0.36719633  0.02492000  1.0
  Ni  Ni392  1  0.47191667  0.70052967  0.02492000  1.0
  Ni  Ni393  1  0.80525000  0.03386300  0.02492000  1.0
  Ni  Ni394  1  0.80525000  0.36719633  0.02492000  1.0
  Ni  Ni395  1  0.80525000  0.70052967  0.02492000  1.0
  Ni  Ni396  1  0.00378447  0.12160400  0.17470460  1.0
  Ni  Ni397  1  0.00378447  0.45493733  0.17470460  1.0
  Ni  Ni398  1  0.00378447  0.78827067  0.17470460  1.0
  Ni  Ni399  1  0.33711780  0.12160400  0.17470460  1.0
  Ni  Ni400  1  0.33711780  0.45493733  0.17470460  1.0
  Ni  Ni401  1  0.33711780  0.78827067  0.17470460  1.0
  Ni  Ni402  1  0.67045113  0.12160400  0.17470460  1.0
  Ni  Ni403  1  0.67045113  0.45493733  0.17470460  1.0
  Ni  Ni404  1  0.67045113  0.78827067  0.17470460  1.0
  Ni  Ni405  1  0.20378447  0.28827067  0.07470460  1.0
  Ni  Ni406  1  0.20378447  0.62160400  0.07470460  1.0
  Ni  Ni407  1  0.20378447  0.95493733  0.07470460  1.0
  Ni  Ni408  1  0.53711780  0.28827067  0.07470460  1.0
  Ni  Ni409  1  0.53711780  0.62160400  0.07470460  1.0
  Ni  Ni410  1  0.53711780  0.95493733  0.07470460  1.0
  Ni  Ni411  1  0.87045113  0.28827067  0.07470460  1.0
  Ni  Ni412  1  0.87045113  0.62160400  0.07470460  1.0
  Ni  Ni413  1  0.87045113  0.95493733  0.07470460  1.0
  Ni  Ni414  1  0.26850340  0.21172933  0.00843180  1.0
  Ni  Ni415  1  0.26850340  0.54506267  0.00843180  1.0
  Ni  Ni416  1  0.26850340  0.87839600  0.00843180  1.0
  Ni  Ni417  1  0.60183673  0.21172933  0.00843180  1.0
  Ni  Ni418  1  0.60183673  0.54506267  0.00843180  1.0
  Ni  Ni419  1  0.60183673  0.87839600  0.00843180  1.0
  Ni  Ni420  1  0.93517007  0.21172933  0.00843180  1.0
  Ni  Ni421  1  0.93517007  0.54506267  0.00843180  1.0
  Ni  Ni422  1  0.93517007  0.87839600  0.00843180  1.0
  Ni  Ni423  1  0.06850340  0.04506267  0.10843180  1.0
  Ni  Ni424  1  0.06850340  0.37839600  0.10843180  1.0
  Ni  Ni425  1  0.06850340  0.71172933  0.10843180  1.0
  Ni  Ni426  1  0.40183673  0.04506267  0.10843180  1.0
  Ni  Ni427  1  0.40183673  0.37839600  0.10843180  1.0
  Ni  Ni428  1  0.40183673  0.71172933  0.10843180  1.0
  Ni  Ni429  1  0.73517007  0.04506267  0.10843180  1.0
  Ni  Ni430  1  0.73517007  0.37839600  0.10843180  1.0
  Ni  Ni431  1  0.73517007  0.71172933  0.10843180  1.0
  Ni  Ni432  1  0.01645747  0.20902717  0.06534410  1.0
  Ni  Ni433  1  0.01645747  0.54236050  0.06534410  1.0
  Ni  Ni434  1  0.01645747  0.87569383  0.06534410  1.0
  Ni  Ni435  1  0.34979080  0.20902717  0.06534410  1.0
  Ni  Ni436  1  0.34979080  0.54236050  0.06534410  1.0
  Ni  Ni437  1  0.34979080  0.87569383  0.06534410  1.0
  Ni  Ni438  1  0.68312413  0.20902717  0.06534410  1.0
  Ni  Ni439  1  0.68312413  0.54236050  0.06534410  1.0
  Ni  Ni440  1  0.68312413  0.87569383  0.06534410  1.0
  Ni  Ni441  1  0.14979080  0.04236050  0.16534410  1.0
  Ni  Ni442  1  0.14979080  0.37569383  0.16534410  1.0
  Ni  Ni443  1  0.14979080  0.70902717  0.16534410  1.0
  Ni  Ni444  1  0.48312413  0.04236050  0.16534410  1.0
  Ni  Ni445  1  0.48312413  0.37569383  0.16534410  1.0
  Ni  Ni446  1  0.48312413  0.70902717  0.16534410  1.0
  Ni  Ni447  1  0.81645747  0.04236050  0.16534410  1.0
  Ni  Ni448  1  0.81645747  0.37569383  0.16534410  1.0
  Ni  Ni449  1  0.81645747  0.70902717  0.16534410  1.0
  Ni  Ni450  1  0.25583040  0.12430617  0.11779230  1.0
  Ni  Ni451  1  0.25583040  0.45763950  0.11779230  1.0
  Ni  Ni452  1  0.25583040  0.79097283  0.11779230  1.0
  Ni  Ni453  1  0.58916373  0.12430617  0.11779230  1.0
  Ni  Ni454  1  0.58916373  0.45763950  0.11779230  1.0
  Ni  Ni455  1  0.58916373  0.79097283  0.11779230  1.0
  Ni  Ni456  1  0.92249707  0.12430617  0.11779230  1.0
  Ni  Ni457  1  0.92249707  0.45763950  0.11779230  1.0
  Ni  Ni458  1  0.92249707  0.79097283  0.11779230  1.0
  Ni  Ni459  1  0.12249707  0.29097283  0.01779230  1.0
  Ni  Ni460  1  0.12249707  0.62430617  0.01779230  1.0
  Ni  Ni461  1  0.12249707  0.95763950  0.01779230  1.0
  Ni  Ni462  1  0.45583040  0.29097283  0.01779230  1.0
  Ni  Ni463  1  0.45583040  0.62430617  0.01779230  1.0
  Ni  Ni464  1  0.45583040  0.95763950  0.01779230  1.0
  Ni  Ni465  1  0.78916373  0.29097283  0.01779230  1.0
  Ni  Ni466  1  0.78916373  0.62430617  0.01779230  1.0
  Ni  Ni467  1  0.78916373  0.95763950  0.01779230  1.0
  Ni  Ni468  1  0.18812413  0.20998350  0.06557810  1.0
  Ni  Ni469  1  0.18812413  0.54331683  0.06557810  1.0
  Ni  Ni470  1  0.18812413  0.87665017  0.06557810  1.0
  Ni  Ni471  1  0.52145747  0.20998350  0.06557810  1.0
  Ni  Ni472  1  0.52145747  0.54331683  0.06557810  1.0
  Ni  Ni473  1  0.52145747  0.87665017  0.06557810  1.0
  Ni  Ni474  1  0.85479080  0.20998350  0.06557810  1.0
  Ni  Ni475  1  0.85479080  0.54331683  0.06557810  1.0
  Ni  Ni476  1  0.85479080  0.87665017  0.06557810  1.0
  Ni  Ni477  1  0.32145747  0.04331683  0.16557810  1.0
  Ni  Ni478  1  0.32145747  0.37665017  0.16557810  1.0
  Ni  Ni479  1  0.32145747  0.70998350  0.16557810  1.0
  Ni  Ni480  1  0.65479080  0.04331683  0.16557810  1.0
  Ni  Ni481  1  0.65479080  0.37665017  0.16557810  1.0
  Ni  Ni482  1  0.65479080  0.70998350  0.16557810  1.0
  Ni  Ni483  1  0.98812413  0.04331683  0.16557810  1.0
  Ni  Ni484  1  0.98812413  0.37665017  0.16557810  1.0
  Ni  Ni485  1  0.98812413  0.70998350  0.16557810  1.0
  Ni  Ni486  1  0.03614393  0.25000000  0.14156820  1.0
  Ni  Ni487  1  0.03614393  0.58333333  0.14156820  1.0
  Ni  Ni488  1  0.03614393  0.91666667  0.14156820  1.0
  Ni  Ni489  1  0.36947727  0.25000000  0.14156820  1.0
  Ni  Ni490  1  0.36947727  0.58333333  0.14156820  1.0
  Ni  Ni491  1  0.36947727  0.91666667  0.14156820  1.0
  Ni  Ni492  1  0.70281060  0.25000000  0.14156820  1.0
  Ni  Ni493  1  0.70281060  0.58333333  0.14156820  1.0
  Ni  Ni494  1  0.70281060  0.91666667  0.14156820  1.0
  Ni  Ni495  1  0.23614393  0.08333333  0.04156820  1.0
  Ni  Ni496  1  0.23614393  0.41666667  0.04156820  1.0
  Ni  Ni497  1  0.23614393  0.75000000  0.04156820  1.0
  Ni  Ni498  1  0.56947727  0.08333333  0.04156820  1.0
  Ni  Ni499  1  0.56947727  0.41666667  0.04156820  1.0
  Ni  Ni500  1  0.56947727  0.75000000  0.04156820  1.0
  Ni  Ni501  1  0.90281060  0.08333333  0.04156820  1.0
  Ni  Ni502  1  0.90281060  0.41666667  0.04156820  1.0
  Ni  Ni503  1  0.90281060  0.75000000  0.04156820  1.0
  Ni  Ni504  1  0.30281060  0.00000000  0.09156820  1.0
  Ni  Ni505  1  0.30281060  0.33333333  0.09156820  1.0
  Ni  Ni506  1  0.30281060  0.66666667  0.09156820  1.0
  Ni  Ni507  1  0.63614393  0.00000000  0.09156820  1.0
  Ni  Ni508  1  0.63614393  0.33333333  0.09156820  1.0
  Ni  Ni509  1  0.63614393  0.66666667  0.09156820  1.0
  Ni  Ni510  1  0.96947727  0.00000000  0.09156820  1.0
  Ni  Ni511  1  0.96947727  0.33333333  0.09156820  1.0
  Ni  Ni512  1  0.96947727  0.66666667  0.09156820  1.0
  Ni  Ni513  1  0.10281060  0.16666667  0.19156820  1.0
  Ni  Ni514  1  0.10281060  0.50000000  0.19156820  1.0
  Ni  Ni515  1  0.10281060  0.83333333  0.19156820  1.0
  Ni  Ni516  1  0.43614393  0.16666667  0.19156820  1.0
  Ni  Ni517  1  0.43614393  0.50000000  0.19156820  1.0
  Ni  Ni518  1  0.43614393  0.83333333  0.19156820  1.0
  Ni  Ni519  1  0.76947727  0.16666667  0.19156820  1.0
  Ni  Ni520  1  0.76947727  0.50000000  0.19156820  1.0
  Ni  Ni521  1  0.76947727  0.83333333  0.19156820  1.0
  Ni  Ni522  1  0.20281060  0.25000000  0.14156820  1.0
  Ni  Ni523  1  0.20281060  0.58333333  0.14156820  1.0
  Ni  Ni524  1  0.20281060  0.91666667  0.14156820  1.0
  Ni  Ni525  1  0.53614393  0.25000000  0.14156820  1.0
  Ni  Ni526  1  0.53614393  0.58333333  0.14156820  1.0
  Ni  Ni527  1  0.53614393  0.91666667  0.14156820  1.0
  Ni  Ni528  1  0.86947727  0.25000000  0.14156820  1.0
  Ni  Ni529  1  0.86947727  0.58333333  0.14156820  1.0
  Ni  Ni530  1  0.86947727  0.91666667  0.14156820  1.0
  Ni  Ni531  1  0.06947727  0.08333333  0.04156820  1.0
  Ni  Ni532  1  0.06947727  0.41666667  0.04156820  1.0
  Ni  Ni533  1  0.06947727  0.75000000  0.04156820  1.0
  Ni  Ni534  1  0.40281060  0.08333333  0.04156820  1.0
  Ni  Ni535  1  0.40281060  0.41666667  0.04156820  1.0
  Ni  Ni536  1  0.40281060  0.75000000  0.04156820  1.0
  Ni  Ni537  1  0.73614393  0.08333333  0.04156820  1.0
  Ni  Ni538  1  0.73614393  0.41666667  0.04156820  1.0
  Ni  Ni539  1  0.73614393  0.75000000  0.04156820  1.0
  Ni  Ni540  1  0.28416373  0.29001650  0.01755830  1.0
  Ni  Ni541  1  0.28416373  0.62334983  0.01755830  1.0
  Ni  Ni542  1  0.28416373  0.95668317  0.01755830  1.0
  Ni  Ni543  1  0.61749707  0.29001650  0.01755830  1.0
  Ni  Ni544  1  0.61749707  0.62334983  0.01755830  1.0
  Ni  Ni545  1  0.61749707  0.95668317  0.01755830  1.0
  Ni  Ni546  1  0.95083040  0.29001650  0.01755830  1.0
  Ni  Ni547  1  0.95083040  0.62334983  0.01755830  1.0
  Ni  Ni548  1  0.95083040  0.95668317  0.01755830  1.0
  Ni  Ni549  1  0.08416373  0.12334983  0.11755830  1.0
  Ni  Ni550  1  0.08416373  0.45668317  0.11755830  1.0
  Ni  Ni551  1  0.08416373  0.79001650  0.11755830  1.0
  Ni  Ni552  1  0.41749707  0.12334983  0.11755830  1.0
  Ni  Ni553  1  0.41749707  0.45668317  0.11755830  1.0
  Ni  Ni554  1  0.41749707  0.79001650  0.11755830  1.0
  Ni  Ni555  1  0.75083040  0.12334983  0.11755830  1.0
  Ni  Ni556  1  0.75083040  0.45668317  0.11755830  1.0
  Ni  Ni557  1  0.75083040  0.79001650  0.11755830  1.0
  Ni  Ni558  1  0.10983220  0.12101483  0.37262890  1.0
  Ni  Ni559  1  0.10983220  0.45434817  0.37262890  1.0
  Ni  Ni560  1  0.10983220  0.78768150  0.37262890  1.0
  Ni  Ni561  1  0.44316553  0.12101483  0.37262890  1.0
  Ni  Ni562  1  0.44316553  0.45434817  0.37262890  1.0
  Ni  Ni563  1  0.44316553  0.78768150  0.37262890  1.0
  Ni  Ni564  1  0.77649887  0.12101483  0.37262890  1.0
  Ni  Ni565  1  0.77649887  0.45434817  0.37262890  1.0
  Ni  Ni566  1  0.77649887  0.78768150  0.37262890  1.0
  Ni  Ni567  1  0.30983220  0.28768150  0.27262890  1.0
  Ni  Ni568  1  0.30983220  0.62101483  0.27262890  1.0
  Ni  Ni569  1  0.30983220  0.95434817  0.27262890  1.0
  Ni  Ni570  1  0.64316553  0.28768150  0.27262890  1.0
  Ni  Ni571  1  0.64316553  0.62101483  0.27262890  1.0
  Ni  Ni572  1  0.64316553  0.95434817  0.27262890  1.0
  Ni  Ni573  1  0.97649887  0.28768150  0.27262890  1.0
  Ni  Ni574  1  0.97649887  0.62101483  0.27262890  1.0
  Ni  Ni575  1  0.97649887  0.95434817  0.27262890  1.0
  Ni  Ni576  1  0.26703787  0.13280367  0.25821640  1.0
  Ni  Ni577  1  0.26703787  0.46613700  0.25821640  1.0
  Ni  Ni578  1  0.26703787  0.79947033  0.25821640  1.0
  Ni  Ni579  1  0.60037120  0.13280367  0.25821640  1.0
  Ni  Ni580  1  0.60037120  0.46613700  0.25821640  1.0
  Ni  Ni581  1  0.60037120  0.79947033  0.25821640  1.0
  Ni  Ni582  1  0.93370453  0.13280367  0.25821640  1.0
  Ni  Ni583  1  0.93370453  0.46613700  0.25821640  1.0
  Ni  Ni584  1  0.93370453  0.79947033  0.25821640  1.0
  Ni  Ni585  1  0.06703787  0.29947033  0.35821640  1.0
  Ni  Ni586  1  0.06703787  0.63280367  0.35821640  1.0
  Ni  Ni587  1  0.06703787  0.96613700  0.35821640  1.0
  Ni  Ni588  1  0.40037120  0.29947033  0.35821640  1.0
  Ni  Ni589  1  0.40037120  0.63280367  0.35821640  1.0
  Ni  Ni590  1  0.40037120  0.96613700  0.35821640  1.0
  Ni  Ni591  1  0.73370453  0.29947033  0.35821640  1.0
  Ni  Ni592  1  0.73370453  0.63280367  0.35821640  1.0
  Ni  Ni593  1  0.73370453  0.96613700  0.35821640  1.0
  Ni  Ni594  1  0.02912233  0.21231850  0.21050750  1.0
  Ni  Ni595  1  0.02912233  0.54565183  0.21050750  1.0
  Ni  Ni596  1  0.02912233  0.87898517  0.21050750  1.0
  Ni  Ni597  1  0.36245567  0.21231850  0.21050750  1.0
  Ni  Ni598  1  0.36245567  0.54565183  0.21050750  1.0
  Ni  Ni599  1  0.36245567  0.87898517  0.21050750  1.0
  Ni  Ni600  1  0.69578900  0.21231850  0.21050750  1.0
  Ni  Ni601  1  0.69578900  0.54565183  0.21050750  1.0
  Ni  Ni602  1  0.69578900  0.87898517  0.21050750  1.0
  Ni  Ni603  1  0.16245567  0.04565183  0.31050750  1.0
  Ni  Ni604  1  0.16245567  0.37898517  0.31050750  1.0
  Ni  Ni605  1  0.16245567  0.71231850  0.31050750  1.0
  Ni  Ni606  1  0.49578900  0.04565183  0.31050750  1.0
  Ni  Ni607  1  0.49578900  0.37898517  0.31050750  1.0
  Ni  Ni608  1  0.49578900  0.71231850  0.31050750  1.0
  Ni  Ni609  1  0.82912233  0.04565183  0.31050750  1.0
  Ni  Ni610  1  0.82912233  0.37898517  0.31050750  1.0
  Ni  Ni611  1  0.82912233  0.71231850  0.31050750  1.0
  Ni  Ni612  1  0.20525000  0.20052967  0.32492000  1.0
  Ni  Ni613  1  0.20525000  0.53386300  0.32492000  1.0
  Ni  Ni614  1  0.20525000  0.86719633  0.32492000  1.0
  Ni  Ni615  1  0.53858333  0.20052967  0.32492000  1.0
  Ni  Ni616  1  0.53858333  0.53386300  0.32492000  1.0
  Ni  Ni617  1  0.53858333  0.86719633  0.32492000  1.0
  Ni  Ni618  1  0.87191667  0.20052967  0.32492000  1.0
  Ni  Ni619  1  0.87191667  0.53386300  0.32492000  1.0
  Ni  Ni620  1  0.87191667  0.86719633  0.32492000  1.0
  Ni  Ni621  1  0.07191667  0.03386300  0.22492000  1.0
  Ni  Ni622  1  0.07191667  0.36719633  0.22492000  1.0
  Ni  Ni623  1  0.07191667  0.70052967  0.22492000  1.0
  Ni  Ni624  1  0.40525000  0.03386300  0.22492000  1.0
  Ni  Ni625  1  0.40525000  0.36719633  0.22492000  1.0
  Ni  Ni626  1  0.40525000  0.70052967  0.22492000  1.0
  Ni  Ni627  1  0.73858333  0.03386300  0.22492000  1.0
  Ni  Ni628  1  0.73858333  0.36719633  0.22492000  1.0
  Ni  Ni629  1  0.73858333  0.70052967  0.22492000  1.0
  Ni  Ni630  1  0.27045113  0.12160400  0.37470460  1.0
  Ni  Ni631  1  0.27045113  0.45493733  0.37470460  1.0
  Ni  Ni632  1  0.27045113  0.78827067  0.37470460  1.0
  Ni  Ni633  1  0.60378447  0.12160400  0.37470460  1.0
  Ni  Ni634  1  0.60378447  0.45493733  0.37470460  1.0
  Ni  Ni635  1  0.60378447  0.78827067  0.37470460  1.0
  Ni  Ni636  1  0.93711780  0.12160400  0.37470460  1.0
  Ni  Ni637  1  0.93711780  0.45493733  0.37470460  1.0
  Ni  Ni638  1  0.93711780  0.78827067  0.37470460  1.0
  Ni  Ni639  1  0.13711780  0.28827067  0.27470460  1.0
  Ni  Ni640  1  0.13711780  0.62160400  0.27470460  1.0
  Ni  Ni641  1  0.13711780  0.95493733  0.27470460  1.0
  Ni  Ni642  1  0.47045113  0.28827067  0.27470460  1.0
  Ni  Ni643  1  0.47045113  0.62160400  0.27470460  1.0
  Ni  Ni644  1  0.47045113  0.95493733  0.27470460  1.0
  Ni  Ni645  1  0.80378447  0.28827067  0.27470460  1.0
  Ni  Ni646  1  0.80378447  0.62160400  0.27470460  1.0
  Ni  Ni647  1  0.80378447  0.95493733  0.27470460  1.0
  Ni  Ni648  1  0.20183673  0.21172933  0.20843180  1.0
  Ni  Ni649  1  0.20183673  0.54506267  0.20843180  1.0
  Ni  Ni650  1  0.20183673  0.87839600  0.20843180  1.0
  Ni  Ni651  1  0.53517007  0.21172933  0.20843180  1.0
  Ni  Ni652  1  0.53517007  0.54506267  0.20843180  1.0
  Ni  Ni653  1  0.53517007  0.87839600  0.20843180  1.0
  Ni  Ni654  1  0.86850340  0.21172933  0.20843180  1.0
  Ni  Ni655  1  0.86850340  0.54506267  0.20843180  1.0
  Ni  Ni656  1  0.86850340  0.87839600  0.20843180  1.0
  Ni  Ni657  1  0.00183673  0.04506267  0.30843180  1.0
  Ni  Ni658  1  0.00183673  0.37839600  0.30843180  1.0
  Ni  Ni659  1  0.00183673  0.71172933  0.30843180  1.0
  Ni  Ni660  1  0.33517007  0.04506267  0.30843180  1.0
  Ni  Ni661  1  0.33517007  0.37839600  0.30843180  1.0
  Ni  Ni662  1  0.33517007  0.71172933  0.30843180  1.0
  Ni  Ni663  1  0.66850340  0.04506267  0.30843180  1.0
  Ni  Ni664  1  0.66850340  0.37839600  0.30843180  1.0
  Ni  Ni665  1  0.66850340  0.71172933  0.30843180  1.0
  Ni  Ni666  1  0.28312413  0.20902717  0.26534410  1.0
  Ni  Ni667  1  0.28312413  0.54236050  0.26534410  1.0
  Ni  Ni668  1  0.28312413  0.87569383  0.26534410  1.0
  Ni  Ni669  1  0.61645747  0.20902717  0.26534410  1.0
  Ni  Ni670  1  0.61645747  0.54236050  0.26534410  1.0
  Ni  Ni671  1  0.61645747  0.87569383  0.26534410  1.0
  Ni  Ni672  1  0.94979080  0.20902717  0.26534410  1.0
  Ni  Ni673  1  0.94979080  0.54236050  0.26534410  1.0
  Ni  Ni674  1  0.94979080  0.87569383  0.26534410  1.0
  Ni  Ni675  1  0.08312413  0.04236050  0.36534410  1.0
  Ni  Ni676  1  0.08312413  0.37569383  0.36534410  1.0
  Ni  Ni677  1  0.08312413  0.70902717  0.36534410  1.0
  Ni  Ni678  1  0.41645747  0.04236050  0.36534410  1.0
  Ni  Ni679  1  0.41645747  0.37569383  0.36534410  1.0
  Ni  Ni680  1  0.41645747  0.70902717  0.36534410  1.0
  Ni  Ni681  1  0.74979080  0.04236050  0.36534410  1.0
  Ni  Ni682  1  0.74979080  0.37569383  0.36534410  1.0
  Ni  Ni683  1  0.74979080  0.70902717  0.36534410  1.0
  Ni  Ni684  1  0.18916373  0.12430617  0.31779230  1.0
  Ni  Ni685  1  0.18916373  0.45763950  0.31779230  1.0
  Ni  Ni686  1  0.18916373  0.79097283  0.31779230  1.0
  Ni  Ni687  1  0.52249707  0.12430617  0.31779230  1.0
  Ni  Ni688  1  0.52249707  0.45763950  0.31779230  1.0
  Ni  Ni689  1  0.52249707  0.79097283  0.31779230  1.0
  Ni  Ni690  1  0.85583040  0.12430617  0.31779230  1.0
  Ni  Ni691  1  0.85583040  0.45763950  0.31779230  1.0
  Ni  Ni692  1  0.85583040  0.79097283  0.31779230  1.0
  Ni  Ni693  1  0.05583040  0.29097283  0.21779230  1.0
  Ni  Ni694  1  0.05583040  0.62430617  0.21779230  1.0
  Ni  Ni695  1  0.05583040  0.95763950  0.21779230  1.0
  Ni  Ni696  1  0.38916373  0.29097283  0.21779230  1.0
  Ni  Ni697  1  0.38916373  0.62430617  0.21779230  1.0
  Ni  Ni698  1  0.38916373  0.95763950  0.21779230  1.0
  Ni  Ni699  1  0.72249707  0.29097283  0.21779230  1.0
  Ni  Ni700  1  0.72249707  0.62430617  0.21779230  1.0
  Ni  Ni701  1  0.72249707  0.95763950  0.21779230  1.0
  Ni  Ni702  1  0.12145747  0.20998350  0.26557810  1.0
  Ni  Ni703  1  0.12145747  0.54331683  0.26557810  1.0
  Ni  Ni704  1  0.12145747  0.87665017  0.26557810  1.0
  Ni  Ni705  1  0.45479080  0.20998350  0.26557810  1.0
  Ni  Ni706  1  0.45479080  0.54331683  0.26557810  1.0
  Ni  Ni707  1  0.45479080  0.87665017  0.26557810  1.0
  Ni  Ni708  1  0.78812413  0.20998350  0.26557810  1.0
  Ni  Ni709  1  0.78812413  0.54331683  0.26557810  1.0
  Ni  Ni710  1  0.78812413  0.87665017  0.26557810  1.0
  Ni  Ni711  1  0.25479080  0.04331683  0.36557810  1.0
  Ni  Ni712  1  0.25479080  0.37665017  0.36557810  1.0
  Ni  Ni713  1  0.25479080  0.70998350  0.36557810  1.0
  Ni  Ni714  1  0.58812413  0.04331683  0.36557810  1.0
  Ni  Ni715  1  0.58812413  0.37665017  0.36557810  1.0
  Ni  Ni716  1  0.58812413  0.70998350  0.36557810  1.0
  Ni  Ni717  1  0.92145747  0.04331683  0.36557810  1.0
  Ni  Ni718  1  0.92145747  0.37665017  0.36557810  1.0
  Ni  Ni719  1  0.92145747  0.70998350  0.36557810  1.0
  Ni  Ni720  1  0.30281060  0.25000000  0.34156820  1.0
  Ni  Ni721  1  0.30281060  0.58333333  0.34156820  1.0
  Ni  Ni722  1  0.30281060  0.91666667  0.34156820  1.0
  Ni  Ni723  1  0.63614393  0.25000000  0.34156820  1.0
  Ni  Ni724  1  0.63614393  0.58333333  0.34156820  1.0
  Ni  Ni725  1  0.63614393  0.91666667  0.34156820  1.0
  Ni  Ni726  1  0.96947727  0.25000000  0.34156820  1.0
  Ni  Ni727  1  0.96947727  0.58333333  0.34156820  1.0
  Ni  Ni728  1  0.96947727  0.91666667  0.34156820  1.0
  Ni  Ni729  1  0.16947727  0.08333333  0.24156820  1.0
  Ni  Ni730  1  0.16947727  0.41666667  0.24156820  1.0
  Ni  Ni731  1  0.16947727  0.75000000  0.24156820  1.0
  Ni  Ni732  1  0.50281060  0.08333333  0.24156820  1.0
  Ni  Ni733  1  0.50281060  0.41666667  0.24156820  1.0
  Ni  Ni734  1  0.50281060  0.75000000  0.24156820  1.0
  Ni  Ni735  1  0.83614393  0.08333333  0.24156820  1.0
  Ni  Ni736  1  0.83614393  0.41666667  0.24156820  1.0
  Ni  Ni737  1  0.83614393  0.75000000  0.24156820  1.0
  Ni  Ni738  1  0.23614393  0.33333333  0.29156820  1.0
  Ni  Ni739  1  0.23614393  0.66666667  0.29156820  1.0
  Ni  Ni740  1  0.23614393  0.00000000  0.29156820  1.0
  Ni  Ni741  1  0.56947727  0.33333333  0.29156820  1.0
  Ni  Ni742  1  0.56947727  0.66666667  0.29156820  1.0
  Ni  Ni743  1  0.56947727  0.00000000  0.29156820  1.0
  Ni  Ni744  1  0.90281060  0.33333333  0.29156820  1.0
  Ni  Ni745  1  0.90281060  0.66666667  0.29156820  1.0
  Ni  Ni746  1  0.90281060  0.00000000  0.29156820  1.0
  Ni  Ni747  1  0.03614393  0.16666667  0.39156820  1.0
  Ni  Ni748  1  0.03614393  0.50000000  0.39156820  1.0
  Ni  Ni749  1  0.03614393  0.83333333  0.39156820  1.0
  Ni  Ni750  1  0.36947727  0.16666667  0.39156820  1.0
  Ni  Ni751  1  0.36947727  0.50000000  0.39156820  1.0
  Ni  Ni752  1  0.36947727  0.83333333  0.39156820  1.0
  Ni  Ni753  1  0.70281060  0.16666667  0.39156820  1.0
  Ni  Ni754  1  0.70281060  0.50000000  0.39156820  1.0
  Ni  Ni755  1  0.70281060  0.83333333  0.39156820  1.0
  Ni  Ni756  1  0.13614393  0.25000000  0.34156820  1.0
  Ni  Ni757  1  0.13614393  0.58333333  0.34156820  1.0
  Ni  Ni758  1  0.13614393  0.91666667  0.34156820  1.0
  Ni  Ni759  1  0.46947727  0.25000000  0.34156820  1.0
  Ni  Ni760  1  0.46947727  0.58333333  0.34156820  1.0
  Ni  Ni761  1  0.46947727  0.91666667  0.34156820  1.0
  Ni  Ni762  1  0.80281060  0.25000000  0.34156820  1.0
  Ni  Ni763  1  0.80281060  0.58333333  0.34156820  1.0
  Ni  Ni764  1  0.80281060  0.91666667  0.34156820  1.0
  Ni  Ni765  1  0.00281060  0.08333333  0.24156820  1.0
  Ni  Ni766  1  0.00281060  0.41666667  0.24156820  1.0
  Ni  Ni767  1  0.00281060  0.75000000  0.24156820  1.0
  Ni  Ni768  1  0.33614393  0.08333333  0.24156820  1.0
  Ni  Ni769  1  0.33614393  0.41666667  0.24156820  1.0
  Ni  Ni770  1  0.33614393  0.75000000  0.24156820  1.0
  Ni  Ni771  1  0.66947727  0.08333333  0.24156820  1.0
  Ni  Ni772  1  0.66947727  0.41666667  0.24156820  1.0
  Ni  Ni773  1  0.66947727  0.75000000  0.24156820  1.0
  Ni  Ni774  1  0.21749707  0.29001650  0.21755830  1.0
  Ni  Ni775  1  0.21749707  0.62334983  0.21755830  1.0
  Ni  Ni776  1  0.21749707  0.95668317  0.21755830  1.0
  Ni  Ni777  1  0.55083040  0.29001650  0.21755830  1.0
  Ni  Ni778  1  0.55083040  0.62334983  0.21755830  1.0
  Ni  Ni779  1  0.55083040  0.95668317  0.21755830  1.0
  Ni  Ni780  1  0.88416373  0.29001650  0.21755830  1.0
  Ni  Ni781  1  0.88416373  0.62334983  0.21755830  1.0
  Ni  Ni782  1  0.88416373  0.95668317  0.21755830  1.0
  Ni  Ni783  1  0.01749707  0.12334983  0.31755830  1.0
  Ni  Ni784  1  0.01749707  0.45668317  0.31755830  1.0
  Ni  Ni785  1  0.01749707  0.79001650  0.31755830  1.0
  Ni  Ni786  1  0.35083040  0.12334983  0.31755830  1.0
  Ni  Ni787  1  0.35083040  0.45668317  0.31755830  1.0
  Ni  Ni788  1  0.35083040  0.79001650  0.31755830  1.0
  Ni  Ni789  1  0.68416373  0.12334983  0.31755830  1.0
  Ni  Ni790  1  0.68416373  0.45668317  0.31755830  1.0
  Ni  Ni791  1  0.68416373  0.79001650  0.31755830  1.0
