# generated using pymatgen
data_Ga9Ni13
_symmetry_space_group_name_H-M   'P 1'
_cell_length_a   38.56614291
_cell_length_b   38.12226974
_cell_length_c   57.18362508
_cell_angle_alpha   36.38921312
_cell_angle_beta   74.31974330
_cell_angle_gamma   90.89455491
_symmetry_Int_Tables_number   1
_chemical_formula_structural   Ga9Ni13
_chemical_formula_sum   'Ga648 Ni936'
_cell_volume   43837.75176625
_cell_formula_units_Z   72
loop_
 _symmetry_equiv_pos_site_id
 _symmetry_equiv_pos_as_xyz
  1  'x, y, z'
loop_
 _atom_site_type_symbol
 _atom_site_label
 _atom_site_symmetry_multiplicity
 _atom_site_fract_x
 _atom_site_fract_y
 _atom_site_fract_z
 _atom_site_occupancy
  Ga  Ga0  1  0.02857283  0.23034900  0.04528792  1.0
  Ga  Ga1  1  0.02857283  0.56368233  0.04528792  1.0
  Ga  Ga2  1  0.02857283  0.89701567  0.04528792  1.0
  Ga  Ga3  1  0.36190617  0.23034900  0.04528792  1.0
  Ga  Ga4  1  0.36190617  0.56368233  0.04528792  1.0
  Ga  Ga5  1  0.36190617  0.89701567  0.04528792  1.0
  Ga  Ga6  1  0.69523950  0.23034900  0.04528792  1.0
  Ga  Ga7  1  0.69523950  0.56368233  0.04528792  1.0
  Ga  Ga8  1  0.69523950  0.89701567  0.04528792  1.0
  Ga  Ga9  1  0.19523950  0.23034900  0.10084347  1.0
  Ga  Ga10  1  0.19523950  0.56368233  0.10084347  1.0
  Ga  Ga11  1  0.19523950  0.89701567  0.10084347  1.0
  Ga  Ga12  1  0.52857283  0.23034900  0.10084347  1.0
  Ga  Ga13  1  0.52857283  0.56368233  0.10084347  1.0
  Ga  Ga14  1  0.52857283  0.89701567  0.10084347  1.0
  Ga  Ga15  1  0.86190617  0.23034900  0.10084347  1.0
  Ga  Ga16  1  0.86190617  0.56368233  0.10084347  1.0
  Ga  Ga17  1  0.86190617  0.89701567  0.10084347  1.0
  Ga  Ga18  1  0.04155533  0.10298433  0.07476031  1.0
  Ga  Ga19  1  0.04155533  0.43631767  0.07476031  1.0
  Ga  Ga20  1  0.04155533  0.76965100  0.07476031  1.0
  Ga  Ga21  1  0.37488867  0.10298433  0.07476031  1.0
  Ga  Ga22  1  0.37488867  0.43631767  0.07476031  1.0
  Ga  Ga23  1  0.37488867  0.76965100  0.07476031  1.0
  Ga  Ga24  1  0.70822200  0.10298433  0.07476031  1.0
  Ga  Ga25  1  0.70822200  0.43631767  0.07476031  1.0
  Ga  Ga26  1  0.70822200  0.76965100  0.07476031  1.0
  Ga  Ga27  1  0.20822200  0.10298433  0.01920475  1.0
  Ga  Ga28  1  0.20822200  0.43631767  0.01920475  1.0
  Ga  Ga29  1  0.20822200  0.76965100  0.01920475  1.0
  Ga  Ga30  1  0.54155533  0.10298433  0.01920475  1.0
  Ga  Ga31  1  0.54155533  0.43631767  0.01920475  1.0
  Ga  Ga32  1  0.54155533  0.76965100  0.01920475  1.0
  Ga  Ga33  1  0.87488867  0.10298433  0.01920475  1.0
  Ga  Ga34  1  0.87488867  0.43631767  0.01920475  1.0
  Ga  Ga35  1  0.87488867  0.76965100  0.01920475  1.0
  Ga  Ga36  1  0.13809383  0.10298433  0.10693981  1.0
  Ga  Ga37  1  0.13809383  0.43631767  0.10693981  1.0
  Ga  Ga38  1  0.13809383  0.76965100  0.10693981  1.0
  Ga  Ga39  1  0.47142717  0.10298433  0.10693981  1.0
  Ga  Ga40  1  0.47142717  0.43631767  0.10693981  1.0
  Ga  Ga41  1  0.47142717  0.76965100  0.10693981  1.0
  Ga  Ga42  1  0.80476050  0.10298433  0.10693981  1.0
  Ga  Ga43  1  0.80476050  0.43631767  0.10693981  1.0
  Ga  Ga44  1  0.80476050  0.76965100  0.10693981  1.0
  Ga  Ga45  1  0.30476050  0.10298433  0.05138425  1.0
  Ga  Ga46  1  0.30476050  0.43631767  0.05138425  1.0
  Ga  Ga47  1  0.30476050  0.76965100  0.05138425  1.0
  Ga  Ga48  1  0.63809383  0.10298433  0.05138425  1.0
  Ga  Ga49  1  0.63809383  0.43631767  0.05138425  1.0
  Ga  Ga50  1  0.63809383  0.76965100  0.05138425  1.0
  Ga  Ga51  1  0.97142717  0.10298433  0.05138425  1.0
  Ga  Ga52  1  0.97142717  0.43631767  0.05138425  1.0
  Ga  Ga53  1  0.97142717  0.76965100  0.05138425  1.0
  Ga  Ga54  1  0.12511133  0.23034900  0.07746742  1.0
  Ga  Ga55  1  0.12511133  0.56368233  0.07746742  1.0
  Ga  Ga56  1  0.12511133  0.89701567  0.07746742  1.0
  Ga  Ga57  1  0.45844467  0.23034900  0.07746742  1.0
  Ga  Ga58  1  0.45844467  0.56368233  0.07746742  1.0
  Ga  Ga59  1  0.45844467  0.89701567  0.07746742  1.0
  Ga  Ga60  1  0.79177800  0.23034900  0.07746742  1.0
  Ga  Ga61  1  0.79177800  0.56368233  0.07746742  1.0
  Ga  Ga62  1  0.79177800  0.89701567  0.07746742  1.0
  Ga  Ga63  1  0.29177800  0.23034900  0.02191186  1.0
  Ga  Ga64  1  0.29177800  0.56368233  0.02191186  1.0
  Ga  Ga65  1  0.29177800  0.89701567  0.02191186  1.0
  Ga  Ga66  1  0.62511133  0.23034900  0.02191186  1.0
  Ga  Ga67  1  0.62511133  0.56368233  0.02191186  1.0
  Ga  Ga68  1  0.62511133  0.89701567  0.02191186  1.0
  Ga  Ga69  1  0.95844467  0.23034900  0.02191186  1.0
  Ga  Ga70  1  0.95844467  0.56368233  0.02191186  1.0
  Ga  Ga71  1  0.95844467  0.89701567  0.02191186  1.0
  Ga  Ga72  1  0.13826200  0.29574700  0.08926953  1.0
  Ga  Ga73  1  0.13826200  0.62908033  0.08926953  1.0
  Ga  Ga74  1  0.13826200  0.96241367  0.08926953  1.0
  Ga  Ga75  1  0.47159533  0.29574700  0.08926953  1.0
  Ga  Ga76  1  0.47159533  0.62908033  0.08926953  1.0
  Ga  Ga77  1  0.47159533  0.96241367  0.08926953  1.0
  Ga  Ga78  1  0.80492867  0.29574700  0.08926953  1.0
  Ga  Ga79  1  0.80492867  0.62908033  0.08926953  1.0
  Ga  Ga80  1  0.80492867  0.96241367  0.08926953  1.0
  Ga  Ga81  1  0.30492867  0.29574700  0.03371397  1.0
  Ga  Ga82  1  0.30492867  0.62908033  0.03371397  1.0
  Ga  Ga83  1  0.30492867  0.96241367  0.03371397  1.0
  Ga  Ga84  1  0.63826200  0.29574700  0.03371397  1.0
  Ga  Ga85  1  0.63826200  0.62908033  0.03371397  1.0
  Ga  Ga86  1  0.63826200  0.96241367  0.03371397  1.0
  Ga  Ga87  1  0.97159533  0.29574700  0.03371397  1.0
  Ga  Ga88  1  0.97159533  0.62908033  0.03371397  1.0
  Ga  Ga89  1  0.97159533  0.96241367  0.03371397  1.0
  Ga  Ga90  1  0.02840467  0.03758633  0.06295819  1.0
  Ga  Ga91  1  0.02840467  0.37091967  0.06295819  1.0
  Ga  Ga92  1  0.02840467  0.70425300  0.06295819  1.0
  Ga  Ga93  1  0.36173800  0.03758633  0.06295819  1.0
  Ga  Ga94  1  0.36173800  0.37091967  0.06295819  1.0
  Ga  Ga95  1  0.36173800  0.70425300  0.06295819  1.0
  Ga  Ga96  1  0.69507133  0.03758633  0.06295819  1.0
  Ga  Ga97  1  0.69507133  0.37091967  0.06295819  1.0
  Ga  Ga98  1  0.69507133  0.70425300  0.06295819  1.0
  Ga  Ga99  1  0.19507133  0.03758633  0.00740264  1.0
  Ga  Ga100  1  0.19507133  0.37091967  0.00740264  1.0
  Ga  Ga101  1  0.19507133  0.70425300  0.00740264  1.0
  Ga  Ga102  1  0.52840467  0.03758633  0.00740264  1.0
  Ga  Ga103  1  0.52840467  0.37091967  0.00740264  1.0
  Ga  Ga104  1  0.52840467  0.70425300  0.00740264  1.0
  Ga  Ga105  1  0.86173800  0.03758633  0.00740264  1.0
  Ga  Ga106  1  0.86173800  0.37091967  0.00740264  1.0
  Ga  Ga107  1  0.86173800  0.70425300  0.00740264  1.0
  Ga  Ga108  1  0.04865250  0.27755300  0.07383258  1.0
  Ga  Ga109  1  0.04865250  0.61088633  0.07383258  1.0
  Ga  Ga110  1  0.04865250  0.94421967  0.07383258  1.0
  Ga  Ga111  1  0.38198583  0.27755300  0.07383258  1.0
  Ga  Ga112  1  0.38198583  0.61088633  0.07383258  1.0
  Ga  Ga113  1  0.38198583  0.94421967  0.07383258  1.0
  Ga  Ga114  1  0.71531917  0.27755300  0.07383258  1.0
  Ga  Ga115  1  0.71531917  0.61088633  0.07383258  1.0
  Ga  Ga116  1  0.71531917  0.94421967  0.07383258  1.0
  Ga  Ga117  1  0.21531917  0.27755300  0.01827703  1.0
  Ga  Ga118  1  0.21531917  0.61088633  0.01827703  1.0
  Ga  Ga119  1  0.21531917  0.94421967  0.01827703  1.0
  Ga  Ga120  1  0.54865250  0.27755300  0.01827703  1.0
  Ga  Ga121  1  0.54865250  0.61088633  0.01827703  1.0
  Ga  Ga122  1  0.54865250  0.94421967  0.01827703  1.0
  Ga  Ga123  1  0.88198583  0.27755300  0.01827703  1.0
  Ga  Ga124  1  0.88198583  0.61088633  0.01827703  1.0
  Ga  Ga125  1  0.88198583  0.94421967  0.01827703  1.0
  Ga  Ga126  1  0.11801417  0.05578033  0.07839514  1.0
  Ga  Ga127  1  0.11801417  0.38911367  0.07839514  1.0
  Ga  Ga128  1  0.11801417  0.72244700  0.07839514  1.0
  Ga  Ga129  1  0.45134750  0.05578033  0.07839514  1.0
  Ga  Ga130  1  0.45134750  0.38911367  0.07839514  1.0
  Ga  Ga131  1  0.45134750  0.72244700  0.07839514  1.0
  Ga  Ga132  1  0.78468083  0.05578033  0.07839514  1.0
  Ga  Ga133  1  0.78468083  0.38911367  0.07839514  1.0
  Ga  Ga134  1  0.78468083  0.72244700  0.07839514  1.0
  Ga  Ga135  1  0.28468083  0.05578033  0.02283958  1.0
  Ga  Ga136  1  0.28468083  0.38911367  0.02283958  1.0
  Ga  Ga137  1  0.28468083  0.72244700  0.02283958  1.0
  Ga  Ga138  1  0.61801417  0.05578033  0.02283958  1.0
  Ga  Ga139  1  0.61801417  0.38911367  0.02283958  1.0
  Ga  Ga140  1  0.61801417  0.72244700  0.02283958  1.0
  Ga  Ga141  1  0.95134750  0.05578033  0.02283958  1.0
  Ga  Ga142  1  0.95134750  0.38911367  0.02283958  1.0
  Ga  Ga143  1  0.95134750  0.72244700  0.02283958  1.0
  Ga  Ga144  1  0.08333333  0.16666667  0.07611386  1.0
  Ga  Ga145  1  0.08333333  0.50000000  0.07611386  1.0
  Ga  Ga146  1  0.08333333  0.83333333  0.07611386  1.0
  Ga  Ga147  1  0.41666667  0.16666667  0.07611386  1.0
  Ga  Ga148  1  0.41666667  0.50000000  0.07611386  1.0
  Ga  Ga149  1  0.41666667  0.83333333  0.07611386  1.0
  Ga  Ga150  1  0.75000000  0.16666667  0.07611386  1.0
  Ga  Ga151  1  0.75000000  0.50000000  0.07611386  1.0
  Ga  Ga152  1  0.75000000  0.83333333  0.07611386  1.0
  Ga  Ga153  1  0.25000000  0.16666667  0.02055831  1.0
  Ga  Ga154  1  0.25000000  0.50000000  0.02055831  1.0
  Ga  Ga155  1  0.25000000  0.83333333  0.02055831  1.0
  Ga  Ga156  1  0.58333333  0.16666667  0.02055831  1.0
  Ga  Ga157  1  0.58333333  0.50000000  0.02055831  1.0
  Ga  Ga158  1  0.58333333  0.83333333  0.02055831  1.0
  Ga  Ga159  1  0.91666667  0.16666667  0.02055831  1.0
  Ga  Ga160  1  0.91666667  0.50000000  0.02055831  1.0
  Ga  Ga161  1  0.91666667  0.83333333  0.02055831  1.0
  Ni  Ni162  1  0.01086167  0.11302700  0.00234442  1.0
  Ni  Ni163  1  0.01086167  0.44636033  0.00234442  1.0
  Ni  Ni164  1  0.01086167  0.77969367  0.00234442  1.0
  Ni  Ni165  1  0.34419500  0.11302700  0.00234442  1.0
  Ni  Ni166  1  0.34419500  0.44636033  0.00234442  1.0
  Ni  Ni167  1  0.34419500  0.77969367  0.00234442  1.0
  Ni  Ni168  1  0.67752833  0.11302700  0.00234442  1.0
  Ni  Ni169  1  0.67752833  0.44636033  0.00234442  1.0
  Ni  Ni170  1  0.67752833  0.77969367  0.00234442  1.0
  Ni  Ni171  1  0.17752833  0.11302700  0.05789997  1.0
  Ni  Ni172  1  0.17752833  0.44636033  0.05789997  1.0
  Ni  Ni173  1  0.17752833  0.77969367  0.05789997  1.0
  Ni  Ni174  1  0.51086167  0.11302700  0.05789997  1.0
  Ni  Ni175  1  0.51086167  0.44636033  0.05789997  1.0
  Ni  Ni176  1  0.51086167  0.77969367  0.05789997  1.0
  Ni  Ni177  1  0.84419500  0.11302700  0.05789997  1.0
  Ni  Ni178  1  0.84419500  0.44636033  0.05789997  1.0
  Ni  Ni179  1  0.84419500  0.77969367  0.05789997  1.0
  Ni  Ni180  1  0.07629017  0.22030633  0.01226725  1.0
  Ni  Ni181  1  0.07629017  0.55363967  0.01226725  1.0
  Ni  Ni182  1  0.07629017  0.88697300  0.01226725  1.0
  Ni  Ni183  1  0.40962350  0.22030633  0.01226725  1.0
  Ni  Ni184  1  0.40962350  0.55363967  0.01226725  1.0
  Ni  Ni185  1  0.40962350  0.88697300  0.01226725  1.0
  Ni  Ni186  1  0.74295683  0.22030633  0.01226725  1.0
  Ni  Ni187  1  0.74295683  0.55363967  0.01226725  1.0
  Ni  Ni188  1  0.74295683  0.88697300  0.01226725  1.0
  Ni  Ni189  1  0.24295683  0.22030633  0.06782281  1.0
  Ni  Ni190  1  0.24295683  0.55363967  0.06782281  1.0
  Ni  Ni191  1  0.24295683  0.88697300  0.06782281  1.0
  Ni  Ni192  1  0.57629017  0.22030633  0.06782281  1.0
  Ni  Ni193  1  0.57629017  0.55363967  0.06782281  1.0
  Ni  Ni194  1  0.57629017  0.88697300  0.06782281  1.0
  Ni  Ni195  1  0.90962350  0.22030633  0.06782281  1.0
  Ni  Ni196  1  0.90962350  0.55363967  0.06782281  1.0
  Ni  Ni197  1  0.90962350  0.88697300  0.06782281  1.0
  Ni  Ni198  1  0.15580500  0.22030633  0.03877219  1.0
  Ni  Ni199  1  0.15580500  0.55363967  0.03877219  1.0
  Ni  Ni200  1  0.15580500  0.88697300  0.03877219  1.0
  Ni  Ni201  1  0.48913833  0.22030633  0.03877219  1.0
  Ni  Ni202  1  0.48913833  0.55363967  0.03877219  1.0
  Ni  Ni203  1  0.48913833  0.88697300  0.03877219  1.0
  Ni  Ni204  1  0.82247167  0.22030633  0.03877219  1.0
  Ni  Ni205  1  0.82247167  0.55363967  0.03877219  1.0
  Ni  Ni206  1  0.82247167  0.88697300  0.03877219  1.0
  Ni  Ni207  1  0.32247167  0.22030633  0.09432775  1.0
  Ni  Ni208  1  0.32247167  0.55363967  0.09432775  1.0
  Ni  Ni209  1  0.32247167  0.88697300  0.09432775  1.0
  Ni  Ni210  1  0.65580500  0.22030633  0.09432775  1.0
  Ni  Ni211  1  0.65580500  0.55363967  0.09432775  1.0
  Ni  Ni212  1  0.65580500  0.88697300  0.09432775  1.0
  Ni  Ni213  1  0.98913833  0.22030633  0.09432775  1.0
  Ni  Ni214  1  0.98913833  0.55363967  0.09432775  1.0
  Ni  Ni215  1  0.98913833  0.88697300  0.09432775  1.0
  Ni  Ni216  1  0.09037650  0.11302700  0.02884936  1.0
  Ni  Ni217  1  0.09037650  0.44636033  0.02884936  1.0
  Ni  Ni218  1  0.09037650  0.77969367  0.02884936  1.0
  Ni  Ni219  1  0.42370983  0.11302700  0.02884936  1.0
  Ni  Ni220  1  0.42370983  0.44636033  0.02884936  1.0
  Ni  Ni221  1  0.42370983  0.77969367  0.02884936  1.0
  Ni  Ni222  1  0.75704317  0.11302700  0.02884936  1.0
  Ni  Ni223  1  0.75704317  0.44636033  0.02884936  1.0
  Ni  Ni224  1  0.75704317  0.77969367  0.02884936  1.0
  Ni  Ni225  1  0.25704317  0.11302700  0.08440492  1.0
  Ni  Ni226  1  0.25704317  0.44636033  0.08440492  1.0
  Ni  Ni227  1  0.25704317  0.77969367  0.08440492  1.0
  Ni  Ni228  1  0.59037650  0.11302700  0.08440492  1.0
  Ni  Ni229  1  0.59037650  0.44636033  0.08440492  1.0
  Ni  Ni230  1  0.59037650  0.77969367  0.08440492  1.0
  Ni  Ni231  1  0.92370983  0.11302700  0.08440492  1.0
  Ni  Ni232  1  0.92370983  0.44636033  0.08440492  1.0
  Ni  Ni233  1  0.92370983  0.77969367  0.08440492  1.0
  Ni  Ni234  1  0.09181167  0.27374867  0.03194153  1.0
  Ni  Ni235  1  0.09181167  0.60708200  0.03194153  1.0
  Ni  Ni236  1  0.09181167  0.94041533  0.03194153  1.0
  Ni  Ni237  1  0.42514500  0.27374867  0.03194153  1.0
  Ni  Ni238  1  0.42514500  0.60708200  0.03194153  1.0
  Ni  Ni239  1  0.42514500  0.94041533  0.03194153  1.0
  Ni  Ni240  1  0.75847833  0.27374867  0.03194153  1.0
  Ni  Ni241  1  0.75847833  0.60708200  0.03194153  1.0
  Ni  Ni242  1  0.75847833  0.94041533  0.03194153  1.0
  Ni  Ni243  1  0.25847833  0.27374867  0.08749708  1.0
  Ni  Ni244  1  0.25847833  0.60708200  0.08749708  1.0
  Ni  Ni245  1  0.25847833  0.94041533  0.08749708  1.0
  Ni  Ni246  1  0.59181167  0.27374867  0.08749708  1.0
  Ni  Ni247  1  0.59181167  0.60708200  0.08749708  1.0
  Ni  Ni248  1  0.59181167  0.94041533  0.08749708  1.0
  Ni  Ni249  1  0.92514500  0.27374867  0.08749708  1.0
  Ni  Ni250  1  0.92514500  0.60708200  0.08749708  1.0
  Ni  Ni251  1  0.92514500  0.94041533  0.08749708  1.0
  Ni  Ni252  1  0.07485500  0.05958467  0.00917508  1.0
  Ni  Ni253  1  0.07485500  0.39291800  0.00917508  1.0
  Ni  Ni254  1  0.07485500  0.72625133  0.00917508  1.0
  Ni  Ni255  1  0.40818833  0.05958467  0.00917508  1.0
  Ni  Ni256  1  0.40818833  0.39291800  0.00917508  1.0
  Ni  Ni257  1  0.40818833  0.72625133  0.00917508  1.0
  Ni  Ni258  1  0.74152167  0.05958467  0.00917508  1.0
  Ni  Ni259  1  0.74152167  0.39291800  0.00917508  1.0
  Ni  Ni260  1  0.74152167  0.72625133  0.00917508  1.0
  Ni  Ni261  1  0.24152167  0.05958467  0.06473064  1.0
  Ni  Ni262  1  0.24152167  0.39291800  0.06473064  1.0
  Ni  Ni263  1  0.24152167  0.72625133  0.06473064  1.0
  Ni  Ni264  1  0.57485500  0.05958467  0.06473064  1.0
  Ni  Ni265  1  0.57485500  0.39291800  0.06473064  1.0
  Ni  Ni266  1  0.57485500  0.72625133  0.06473064  1.0
  Ni  Ni267  1  0.90818833  0.05958467  0.06473064  1.0
  Ni  Ni268  1  0.90818833  0.39291800  0.06473064  1.0
  Ni  Ni269  1  0.90818833  0.72625133  0.06473064  1.0
  Ni  Ni270  1  0.12363300  0.16254500  0.03718808  1.0
  Ni  Ni271  1  0.12363300  0.49587833  0.03718808  1.0
  Ni  Ni272  1  0.12363300  0.82921167  0.03718808  1.0
  Ni  Ni273  1  0.45696633  0.16254500  0.03718808  1.0
  Ni  Ni274  1  0.45696633  0.49587833  0.03718808  1.0
  Ni  Ni275  1  0.45696633  0.82921167  0.03718808  1.0
  Ni  Ni276  1  0.79029967  0.16254500  0.03718808  1.0
  Ni  Ni277  1  0.79029967  0.49587833  0.03718808  1.0
  Ni  Ni278  1  0.79029967  0.82921167  0.03718808  1.0
  Ni  Ni279  1  0.29029967  0.16254500  0.09274364  1.0
  Ni  Ni280  1  0.29029967  0.49587833  0.09274364  1.0
  Ni  Ni281  1  0.29029967  0.82921167  0.09274364  1.0
  Ni  Ni282  1  0.62363300  0.16254500  0.09274364  1.0
  Ni  Ni283  1  0.62363300  0.49587833  0.09274364  1.0
  Ni  Ni284  1  0.62363300  0.82921167  0.09274364  1.0
  Ni  Ni285  1  0.95696633  0.16254500  0.09274364  1.0
  Ni  Ni286  1  0.95696633  0.49587833  0.09274364  1.0
  Ni  Ni287  1  0.95696633  0.82921167  0.09274364  1.0
  Ni  Ni288  1  0.04303367  0.17078833  0.00392853  1.0
  Ni  Ni289  1  0.04303367  0.50412167  0.00392853  1.0
  Ni  Ni290  1  0.04303367  0.83745500  0.00392853  1.0
  Ni  Ni291  1  0.37636700  0.17078833  0.00392853  1.0
  Ni  Ni292  1  0.37636700  0.50412167  0.00392853  1.0
  Ni  Ni293  1  0.37636700  0.83745500  0.00392853  1.0
  Ni  Ni294  1  0.70970033  0.17078833  0.00392853  1.0
  Ni  Ni295  1  0.70970033  0.50412167  0.00392853  1.0
  Ni  Ni296  1  0.70970033  0.83745500  0.00392853  1.0
  Ni  Ni297  1  0.20970033  0.17078833  0.05948408  1.0
  Ni  Ni298  1  0.20970033  0.50412167  0.05948408  1.0
  Ni  Ni299  1  0.20970033  0.83745500  0.05948408  1.0
  Ni  Ni300  1  0.54303367  0.17078833  0.05948408  1.0
  Ni  Ni301  1  0.54303367  0.50412167  0.05948408  1.0
  Ni  Ni302  1  0.54303367  0.83745500  0.05948408  1.0
  Ni  Ni303  1  0.87636700  0.17078833  0.05948408  1.0
  Ni  Ni304  1  0.87636700  0.50412167  0.05948408  1.0
  Ni  Ni305  1  0.87636700  0.83745500  0.05948408  1.0
  Ni  Ni306  1  0.04331683  0.00000000  0.00721947  1.0
  Ni  Ni307  1  0.04331683  0.33333333  0.00721947  1.0
  Ni  Ni308  1  0.04331683  0.66666667  0.00721947  1.0
  Ni  Ni309  1  0.37665017  0.00000000  0.00721947  1.0
  Ni  Ni310  1  0.37665017  0.33333333  0.00721947  1.0
  Ni  Ni311  1  0.37665017  0.66666667  0.00721947  1.0
  Ni  Ni312  1  0.70998350  0.00000000  0.00721947  1.0
  Ni  Ni313  1  0.70998350  0.33333333  0.00721947  1.0
  Ni  Ni314  1  0.70998350  0.66666667  0.00721947  1.0
  Ni  Ni315  1  0.20998350  0.00000000  0.06277503  1.0
  Ni  Ni316  1  0.20998350  0.33333333  0.06277503  1.0
  Ni  Ni317  1  0.20998350  0.66666667  0.06277503  1.0
  Ni  Ni318  1  0.54331683  0.00000000  0.06277503  1.0
  Ni  Ni319  1  0.54331683  0.33333333  0.06277503  1.0
  Ni  Ni320  1  0.54331683  0.66666667  0.06277503  1.0
  Ni  Ni321  1  0.87665017  0.00000000  0.06277503  1.0
  Ni  Ni322  1  0.87665017  0.33333333  0.06277503  1.0
  Ni  Ni323  1  0.87665017  0.66666667  0.06277503  1.0
  Ni  Ni324  1  0.16666667  0.16666667  0.10389164  1.0
  Ni  Ni325  1  0.16666667  0.50000000  0.10389164  1.0
  Ni  Ni326  1  0.16666667  0.83333333  0.10389164  1.0
  Ni  Ni327  1  0.50000000  0.16666667  0.10389164  1.0
  Ni  Ni328  1  0.50000000  0.50000000  0.10389164  1.0
  Ni  Ni329  1  0.50000000  0.83333333  0.10389164  1.0
  Ni  Ni330  1  0.83333333  0.16666667  0.10389164  1.0
  Ni  Ni331  1  0.83333333  0.50000000  0.10389164  1.0
  Ni  Ni332  1  0.83333333  0.83333333  0.10389164  1.0
  Ni  Ni333  1  0.00000000  0.16666667  0.04833608  1.0
  Ni  Ni334  1  0.00000000  0.50000000  0.04833608  1.0
  Ni  Ni335  1  0.00000000  0.83333333  0.04833608  1.0
  Ni  Ni336  1  0.33333333  0.16666667  0.04833608  1.0
  Ni  Ni337  1  0.33333333  0.50000000  0.04833608  1.0
  Ni  Ni338  1  0.33333333  0.83333333  0.04833608  1.0
  Ni  Ni339  1  0.66666667  0.16666667  0.04833608  1.0
  Ni  Ni340  1  0.66666667  0.50000000  0.04833608  1.0
  Ni  Ni341  1  0.66666667  0.83333333  0.04833608  1.0
  Ni  Ni342  1  0.16666667  0.00000000  0.10389164  1.0
  Ni  Ni343  1  0.16666667  0.33333333  0.10389164  1.0
  Ni  Ni344  1  0.16666667  0.66666667  0.10389164  1.0
  Ni  Ni345  1  0.50000000  0.00000000  0.10389164  1.0
  Ni  Ni346  1  0.50000000  0.33333333  0.10389164  1.0
  Ni  Ni347  1  0.50000000  0.66666667  0.10389164  1.0
  Ni  Ni348  1  0.83333333  0.00000000  0.10389164  1.0
  Ni  Ni349  1  0.83333333  0.33333333  0.10389164  1.0
  Ni  Ni350  1  0.83333333  0.66666667  0.10389164  1.0
  Ni  Ni351  1  0.00000000  0.00000000  0.04833608  1.0
  Ni  Ni352  1  0.00000000  0.33333333  0.04833608  1.0
  Ni  Ni353  1  0.00000000  0.66666667  0.04833608  1.0
  Ni  Ni354  1  0.33333333  0.00000000  0.04833608  1.0
  Ni  Ni355  1  0.33333333  0.33333333  0.04833608  1.0
  Ni  Ni356  1  0.33333333  0.66666667  0.04833608  1.0
  Ni  Ni357  1  0.66666667  0.00000000  0.04833608  1.0
  Ni  Ni358  1  0.66666667  0.33333333  0.04833608  1.0
  Ni  Ni359  1  0.66666667  0.66666667  0.04833608  1.0
  Ni  Ni360  1  0.08333333  0.00000000  0.07611386  1.0
  Ni  Ni361  1  0.08333333  0.33333333  0.07611386  1.0
  Ni  Ni362  1  0.08333333  0.66666667  0.07611386  1.0
  Ni  Ni363  1  0.41666667  0.00000000  0.07611386  1.0
  Ni  Ni364  1  0.41666667  0.33333333  0.07611386  1.0
  Ni  Ni365  1  0.41666667  0.66666667  0.07611386  1.0
  Ni  Ni366  1  0.75000000  0.00000000  0.07611386  1.0
  Ni  Ni367  1  0.75000000  0.33333333  0.07611386  1.0
  Ni  Ni368  1  0.75000000  0.66666667  0.07611386  1.0
  Ni  Ni369  1  0.25000000  0.00000000  0.02055831  1.0
  Ni  Ni370  1  0.25000000  0.33333333  0.02055831  1.0
  Ni  Ni371  1  0.25000000  0.66666667  0.02055831  1.0
  Ni  Ni372  1  0.58333333  0.00000000  0.02055831  1.0
  Ni  Ni373  1  0.58333333  0.33333333  0.02055831  1.0
  Ni  Ni374  1  0.58333333  0.66666667  0.02055831  1.0
  Ni  Ni375  1  0.91666667  0.00000000  0.02055831  1.0
  Ni  Ni376  1  0.91666667  0.33333333  0.02055831  1.0
  Ni  Ni377  1  0.91666667  0.66666667  0.02055831  1.0
  Ni  Ni378  1  0.12334983  0.00000000  0.03389714  1.0
  Ni  Ni379  1  0.12334983  0.33333333  0.03389714  1.0
  Ni  Ni380  1  0.12334983  0.66666667  0.03389714  1.0
  Ni  Ni381  1  0.45668317  0.00000000  0.03389714  1.0
  Ni  Ni382  1  0.45668317  0.33333333  0.03389714  1.0
  Ni  Ni383  1  0.45668317  0.66666667  0.03389714  1.0
  Ni  Ni384  1  0.79001650  0.00000000  0.03389714  1.0
  Ni  Ni385  1  0.79001650  0.33333333  0.03389714  1.0
  Ni  Ni386  1  0.79001650  0.66666667  0.03389714  1.0
  Ni  Ni387  1  0.29001650  0.00000000  0.08945269  1.0
  Ni  Ni388  1  0.29001650  0.33333333  0.08945269  1.0
  Ni  Ni389  1  0.29001650  0.66666667  0.08945269  1.0
  Ni  Ni390  1  0.62334983  0.00000000  0.08945269  1.0
  Ni  Ni391  1  0.62334983  0.33333333  0.08945269  1.0
  Ni  Ni392  1  0.62334983  0.66666667  0.08945269  1.0
  Ni  Ni393  1  0.95668317  0.00000000  0.08945269  1.0
  Ni  Ni394  1  0.95668317  0.33333333  0.08945269  1.0
  Ni  Ni395  1  0.95668317  0.66666667  0.08945269  1.0
  Ga  Ga396  1  0.02857283  0.23034900  0.15639903  1.0
  Ga  Ga397  1  0.02857283  0.56368233  0.15639903  1.0
  Ga  Ga398  1  0.02857283  0.89701567  0.15639903  1.0
  Ga  Ga399  1  0.36190617  0.23034900  0.15639903  1.0
  Ga  Ga400  1  0.36190617  0.56368233  0.15639903  1.0
  Ga  Ga401  1  0.36190617  0.89701567  0.15639903  1.0
  Ga  Ga402  1  0.69523950  0.23034900  0.15639903  1.0
  Ga  Ga403  1  0.69523950  0.56368233  0.15639903  1.0
  Ga  Ga404  1  0.69523950  0.89701567  0.15639903  1.0
  Ga  Ga405  1  0.19523950  0.23034900  0.21195458  1.0
  Ga  Ga406  1  0.19523950  0.56368233  0.21195458  1.0
  Ga  Ga407  1  0.19523950  0.89701567  0.21195458  1.0
  Ga  Ga408  1  0.52857283  0.23034900  0.21195458  1.0
  Ga  Ga409  1  0.52857283  0.56368233  0.21195458  1.0
  Ga  Ga410  1  0.52857283  0.89701567  0.21195458  1.0
  Ga  Ga411  1  0.86190617  0.23034900  0.21195458  1.0
  Ga  Ga412  1  0.86190617  0.56368233  0.21195458  1.0
  Ga  Ga413  1  0.86190617  0.89701567  0.21195458  1.0
  Ga  Ga414  1  0.04155533  0.10298433  0.18587142  1.0
  Ga  Ga415  1  0.04155533  0.43631767  0.18587142  1.0
  Ga  Ga416  1  0.04155533  0.76965100  0.18587142  1.0
  Ga  Ga417  1  0.37488867  0.10298433  0.18587142  1.0
  Ga  Ga418  1  0.37488867  0.43631767  0.18587142  1.0
  Ga  Ga419  1  0.37488867  0.76965100  0.18587142  1.0
  Ga  Ga420  1  0.70822200  0.10298433  0.18587142  1.0
  Ga  Ga421  1  0.70822200  0.43631767  0.18587142  1.0
  Ga  Ga422  1  0.70822200  0.76965100  0.18587142  1.0
  Ga  Ga423  1  0.20822200  0.10298433  0.13031586  1.0
  Ga  Ga424  1  0.20822200  0.43631767  0.13031586  1.0
  Ga  Ga425  1  0.20822200  0.76965100  0.13031586  1.0
  Ga  Ga426  1  0.54155533  0.10298433  0.13031586  1.0
  Ga  Ga427  1  0.54155533  0.43631767  0.13031586  1.0
  Ga  Ga428  1  0.54155533  0.76965100  0.13031586  1.0
  Ga  Ga429  1  0.87488867  0.10298433  0.13031586  1.0
  Ga  Ga430  1  0.87488867  0.43631767  0.13031586  1.0
  Ga  Ga431  1  0.87488867  0.76965100  0.13031586  1.0
  Ga  Ga432  1  0.13809383  0.10298433  0.21805092  1.0
  Ga  Ga433  1  0.13809383  0.43631767  0.21805092  1.0
  Ga  Ga434  1  0.13809383  0.76965100  0.21805092  1.0
  Ga  Ga435  1  0.47142717  0.10298433  0.21805092  1.0
  Ga  Ga436  1  0.47142717  0.43631767  0.21805092  1.0
  Ga  Ga437  1  0.47142717  0.76965100  0.21805092  1.0
  Ga  Ga438  1  0.80476050  0.10298433  0.21805092  1.0
  Ga  Ga439  1  0.80476050  0.43631767  0.21805092  1.0
  Ga  Ga440  1  0.80476050  0.76965100  0.21805092  1.0
  Ga  Ga441  1  0.30476050  0.10298433  0.16249536  1.0
  Ga  Ga442  1  0.30476050  0.43631767  0.16249536  1.0
  Ga  Ga443  1  0.30476050  0.76965100  0.16249536  1.0
  Ga  Ga444  1  0.63809383  0.10298433  0.16249536  1.0
  Ga  Ga445  1  0.63809383  0.43631767  0.16249536  1.0
  Ga  Ga446  1  0.63809383  0.76965100  0.16249536  1.0
  Ga  Ga447  1  0.97142717  0.10298433  0.16249536  1.0
  Ga  Ga448  1  0.97142717  0.43631767  0.16249536  1.0
  Ga  Ga449  1  0.97142717  0.76965100  0.16249536  1.0
  Ga  Ga450  1  0.12511133  0.23034900  0.18857853  1.0
  Ga  Ga451  1  0.12511133  0.56368233  0.18857853  1.0
  Ga  Ga452  1  0.12511133  0.89701567  0.18857853  1.0
  Ga  Ga453  1  0.45844467  0.23034900  0.18857853  1.0
  Ga  Ga454  1  0.45844467  0.56368233  0.18857853  1.0
  Ga  Ga455  1  0.45844467  0.89701567  0.18857853  1.0
  Ga  Ga456  1  0.79177800  0.23034900  0.18857853  1.0
  Ga  Ga457  1  0.79177800  0.56368233  0.18857853  1.0
  Ga  Ga458  1  0.79177800  0.89701567  0.18857853  1.0
  Ga  Ga459  1  0.29177800  0.23034900  0.13302297  1.0
  Ga  Ga460  1  0.29177800  0.56368233  0.13302297  1.0
  Ga  Ga461  1  0.29177800  0.89701567  0.13302297  1.0
  Ga  Ga462  1  0.62511133  0.23034900  0.13302297  1.0
  Ga  Ga463  1  0.62511133  0.56368233  0.13302297  1.0
  Ga  Ga464  1  0.62511133  0.89701567  0.13302297  1.0
  Ga  Ga465  1  0.95844467  0.23034900  0.13302297  1.0
  Ga  Ga466  1  0.95844467  0.56368233  0.13302297  1.0
  Ga  Ga467  1  0.95844467  0.89701567  0.13302297  1.0
  Ga  Ga468  1  0.13826200  0.29574700  0.20038064  1.0
  Ga  Ga469  1  0.13826200  0.62908033  0.20038064  1.0
  Ga  Ga470  1  0.13826200  0.96241367  0.20038064  1.0
  Ga  Ga471  1  0.47159533  0.29574700  0.20038064  1.0
  Ga  Ga472  1  0.47159533  0.62908033  0.20038064  1.0
  Ga  Ga473  1  0.47159533  0.96241367  0.20038064  1.0
  Ga  Ga474  1  0.80492867  0.29574700  0.20038064  1.0
  Ga  Ga475  1  0.80492867  0.62908033  0.20038064  1.0
  Ga  Ga476  1  0.80492867  0.96241367  0.20038064  1.0
  Ga  Ga477  1  0.30492867  0.29574700  0.14482508  1.0
  Ga  Ga478  1  0.30492867  0.62908033  0.14482508  1.0
  Ga  Ga479  1  0.30492867  0.96241367  0.14482508  1.0
  Ga  Ga480  1  0.63826200  0.29574700  0.14482508  1.0
  Ga  Ga481  1  0.63826200  0.62908033  0.14482508  1.0
  Ga  Ga482  1  0.63826200  0.96241367  0.14482508  1.0
  Ga  Ga483  1  0.97159533  0.29574700  0.14482508  1.0
  Ga  Ga484  1  0.97159533  0.62908033  0.14482508  1.0
  Ga  Ga485  1  0.97159533  0.96241367  0.14482508  1.0
  Ga  Ga486  1  0.02840467  0.03758633  0.17406931  1.0
  Ga  Ga487  1  0.02840467  0.37091967  0.17406931  1.0
  Ga  Ga488  1  0.02840467  0.70425300  0.17406931  1.0
  Ga  Ga489  1  0.36173800  0.03758633  0.17406931  1.0
  Ga  Ga490  1  0.36173800  0.37091967  0.17406931  1.0
  Ga  Ga491  1  0.36173800  0.70425300  0.17406931  1.0
  Ga  Ga492  1  0.69507133  0.03758633  0.17406931  1.0
  Ga  Ga493  1  0.69507133  0.37091967  0.17406931  1.0
  Ga  Ga494  1  0.69507133  0.70425300  0.17406931  1.0
  Ga  Ga495  1  0.19507133  0.03758633  0.11851375  1.0
  Ga  Ga496  1  0.19507133  0.37091967  0.11851375  1.0
  Ga  Ga497  1  0.19507133  0.70425300  0.11851375  1.0
  Ga  Ga498  1  0.52840467  0.03758633  0.11851375  1.0
  Ga  Ga499  1  0.52840467  0.37091967  0.11851375  1.0
  Ga  Ga500  1  0.52840467  0.70425300  0.11851375  1.0
  Ga  Ga501  1  0.86173800  0.03758633  0.11851375  1.0
  Ga  Ga502  1  0.86173800  0.37091967  0.11851375  1.0
  Ga  Ga503  1  0.86173800  0.70425300  0.11851375  1.0
  Ga  Ga504  1  0.04865250  0.27755300  0.18494369  1.0
  Ga  Ga505  1  0.04865250  0.61088633  0.18494369  1.0
  Ga  Ga506  1  0.04865250  0.94421967  0.18494369  1.0
  Ga  Ga507  1  0.38198583  0.27755300  0.18494369  1.0
  Ga  Ga508  1  0.38198583  0.61088633  0.18494369  1.0
  Ga  Ga509  1  0.38198583  0.94421967  0.18494369  1.0
  Ga  Ga510  1  0.71531917  0.27755300  0.18494369  1.0
  Ga  Ga511  1  0.71531917  0.61088633  0.18494369  1.0
  Ga  Ga512  1  0.71531917  0.94421967  0.18494369  1.0
  Ga  Ga513  1  0.21531917  0.27755300  0.12938814  1.0
  Ga  Ga514  1  0.21531917  0.61088633  0.12938814  1.0
  Ga  Ga515  1  0.21531917  0.94421967  0.12938814  1.0
  Ga  Ga516  1  0.54865250  0.27755300  0.12938814  1.0
  Ga  Ga517  1  0.54865250  0.61088633  0.12938814  1.0
  Ga  Ga518  1  0.54865250  0.94421967  0.12938814  1.0
  Ga  Ga519  1  0.88198583  0.27755300  0.12938814  1.0
  Ga  Ga520  1  0.88198583  0.61088633  0.12938814  1.0
  Ga  Ga521  1  0.88198583  0.94421967  0.12938814  1.0
  Ga  Ga522  1  0.11801417  0.05578033  0.18950625  1.0
  Ga  Ga523  1  0.11801417  0.38911367  0.18950625  1.0
  Ga  Ga524  1  0.11801417  0.72244700  0.18950625  1.0
  Ga  Ga525  1  0.45134750  0.05578033  0.18950625  1.0
  Ga  Ga526  1  0.45134750  0.38911367  0.18950625  1.0
  Ga  Ga527  1  0.45134750  0.72244700  0.18950625  1.0
  Ga  Ga528  1  0.78468083  0.05578033  0.18950625  1.0
  Ga  Ga529  1  0.78468083  0.38911367  0.18950625  1.0
  Ga  Ga530  1  0.78468083  0.72244700  0.18950625  1.0
  Ga  Ga531  1  0.28468083  0.05578033  0.13395069  1.0
  Ga  Ga532  1  0.28468083  0.38911367  0.13395069  1.0
  Ga  Ga533  1  0.28468083  0.72244700  0.13395069  1.0
  Ga  Ga534  1  0.61801417  0.05578033  0.13395069  1.0
  Ga  Ga535  1  0.61801417  0.38911367  0.13395069  1.0
  Ga  Ga536  1  0.61801417  0.72244700  0.13395069  1.0
  Ga  Ga537  1  0.95134750  0.05578033  0.13395069  1.0
  Ga  Ga538  1  0.95134750  0.38911367  0.13395069  1.0
  Ga  Ga539  1  0.95134750  0.72244700  0.13395069  1.0
  Ga  Ga540  1  0.08333333  0.16666667  0.18722497  1.0
  Ga  Ga541  1  0.08333333  0.50000000  0.18722497  1.0
  Ga  Ga542  1  0.08333333  0.83333333  0.18722497  1.0
  Ga  Ga543  1  0.41666667  0.16666667  0.18722497  1.0
  Ga  Ga544  1  0.41666667  0.50000000  0.18722497  1.0
  Ga  Ga545  1  0.41666667  0.83333333  0.18722497  1.0
  Ga  Ga546  1  0.75000000  0.16666667  0.18722497  1.0
  Ga  Ga547  1  0.75000000  0.50000000  0.18722497  1.0
  Ga  Ga548  1  0.75000000  0.83333333  0.18722497  1.0
  Ga  Ga549  1  0.25000000  0.16666667  0.13166942  1.0
  Ga  Ga550  1  0.25000000  0.50000000  0.13166942  1.0
  Ga  Ga551  1  0.25000000  0.83333333  0.13166942  1.0
  Ga  Ga552  1  0.58333333  0.16666667  0.13166942  1.0
  Ga  Ga553  1  0.58333333  0.50000000  0.13166942  1.0
  Ga  Ga554  1  0.58333333  0.83333333  0.13166942  1.0
  Ga  Ga555  1  0.91666667  0.16666667  0.13166942  1.0
  Ga  Ga556  1  0.91666667  0.50000000  0.13166942  1.0
  Ga  Ga557  1  0.91666667  0.83333333  0.13166942  1.0
  Ni  Ni558  1  0.01086167  0.11302700  0.11345553  1.0
  Ni  Ni559  1  0.01086167  0.44636033  0.11345553  1.0
  Ni  Ni560  1  0.01086167  0.77969367  0.11345553  1.0
  Ni  Ni561  1  0.34419500  0.11302700  0.11345553  1.0
  Ni  Ni562  1  0.34419500  0.44636033  0.11345553  1.0
  Ni  Ni563  1  0.34419500  0.77969367  0.11345553  1.0
  Ni  Ni564  1  0.67752833  0.11302700  0.11345553  1.0
  Ni  Ni565  1  0.67752833  0.44636033  0.11345553  1.0
  Ni  Ni566  1  0.67752833  0.77969367  0.11345553  1.0
  Ni  Ni567  1  0.17752833  0.11302700  0.16901108  1.0
  Ni  Ni568  1  0.17752833  0.44636033  0.16901108  1.0
  Ni  Ni569  1  0.17752833  0.77969367  0.16901108  1.0
  Ni  Ni570  1  0.51086167  0.11302700  0.16901108  1.0
  Ni  Ni571  1  0.51086167  0.44636033  0.16901108  1.0
  Ni  Ni572  1  0.51086167  0.77969367  0.16901108  1.0
  Ni  Ni573  1  0.84419500  0.11302700  0.16901108  1.0
  Ni  Ni574  1  0.84419500  0.44636033  0.16901108  1.0
  Ni  Ni575  1  0.84419500  0.77969367  0.16901108  1.0
  Ni  Ni576  1  0.07629017  0.22030633  0.12337836  1.0
  Ni  Ni577  1  0.07629017  0.55363967  0.12337836  1.0
  Ni  Ni578  1  0.07629017  0.88697300  0.12337836  1.0
  Ni  Ni579  1  0.40962350  0.22030633  0.12337836  1.0
  Ni  Ni580  1  0.40962350  0.55363967  0.12337836  1.0
  Ni  Ni581  1  0.40962350  0.88697300  0.12337836  1.0
  Ni  Ni582  1  0.74295683  0.22030633  0.12337836  1.0
  Ni  Ni583  1  0.74295683  0.55363967  0.12337836  1.0
  Ni  Ni584  1  0.74295683  0.88697300  0.12337836  1.0
  Ni  Ni585  1  0.24295683  0.22030633  0.17893392  1.0
  Ni  Ni586  1  0.24295683  0.55363967  0.17893392  1.0
  Ni  Ni587  1  0.24295683  0.88697300  0.17893392  1.0
  Ni  Ni588  1  0.57629017  0.22030633  0.17893392  1.0
  Ni  Ni589  1  0.57629017  0.55363967  0.17893392  1.0
  Ni  Ni590  1  0.57629017  0.88697300  0.17893392  1.0
  Ni  Ni591  1  0.90962350  0.22030633  0.17893392  1.0
  Ni  Ni592  1  0.90962350  0.55363967  0.17893392  1.0
  Ni  Ni593  1  0.90962350  0.88697300  0.17893392  1.0
  Ni  Ni594  1  0.15580500  0.22030633  0.14988331  1.0
  Ni  Ni595  1  0.15580500  0.55363967  0.14988331  1.0
  Ni  Ni596  1  0.15580500  0.88697300  0.14988331  1.0
  Ni  Ni597  1  0.48913833  0.22030633  0.14988331  1.0
  Ni  Ni598  1  0.48913833  0.55363967  0.14988331  1.0
  Ni  Ni599  1  0.48913833  0.88697300  0.14988331  1.0
  Ni  Ni600  1  0.82247167  0.22030633  0.14988331  1.0
  Ni  Ni601  1  0.82247167  0.55363967  0.14988331  1.0
  Ni  Ni602  1  0.82247167  0.88697300  0.14988331  1.0
  Ni  Ni603  1  0.32247167  0.22030633  0.20543886  1.0
  Ni  Ni604  1  0.32247167  0.55363967  0.20543886  1.0
  Ni  Ni605  1  0.32247167  0.88697300  0.20543886  1.0
  Ni  Ni606  1  0.65580500  0.22030633  0.20543886  1.0
  Ni  Ni607  1  0.65580500  0.55363967  0.20543886  1.0
  Ni  Ni608  1  0.65580500  0.88697300  0.20543886  1.0
  Ni  Ni609  1  0.98913833  0.22030633  0.20543886  1.0
  Ni  Ni610  1  0.98913833  0.55363967  0.20543886  1.0
  Ni  Ni611  1  0.98913833  0.88697300  0.20543886  1.0
  Ni  Ni612  1  0.09037650  0.11302700  0.13996047  1.0
  Ni  Ni613  1  0.09037650  0.44636033  0.13996047  1.0
  Ni  Ni614  1  0.09037650  0.77969367  0.13996047  1.0
  Ni  Ni615  1  0.42370983  0.11302700  0.13996047  1.0
  Ni  Ni616  1  0.42370983  0.44636033  0.13996047  1.0
  Ni  Ni617  1  0.42370983  0.77969367  0.13996047  1.0
  Ni  Ni618  1  0.75704317  0.11302700  0.13996047  1.0
  Ni  Ni619  1  0.75704317  0.44636033  0.13996047  1.0
  Ni  Ni620  1  0.75704317  0.77969367  0.13996047  1.0
  Ni  Ni621  1  0.25704317  0.11302700  0.19551603  1.0
  Ni  Ni622  1  0.25704317  0.44636033  0.19551603  1.0
  Ni  Ni623  1  0.25704317  0.77969367  0.19551603  1.0
  Ni  Ni624  1  0.59037650  0.11302700  0.19551603  1.0
  Ni  Ni625  1  0.59037650  0.44636033  0.19551603  1.0
  Ni  Ni626  1  0.59037650  0.77969367  0.19551603  1.0
  Ni  Ni627  1  0.92370983  0.11302700  0.19551603  1.0
  Ni  Ni628  1  0.92370983  0.44636033  0.19551603  1.0
  Ni  Ni629  1  0.92370983  0.77969367  0.19551603  1.0
  Ni  Ni630  1  0.09181167  0.27374867  0.14305264  1.0
  Ni  Ni631  1  0.09181167  0.60708200  0.14305264  1.0
  Ni  Ni632  1  0.09181167  0.94041533  0.14305264  1.0
  Ni  Ni633  1  0.42514500  0.27374867  0.14305264  1.0
  Ni  Ni634  1  0.42514500  0.60708200  0.14305264  1.0
  Ni  Ni635  1  0.42514500  0.94041533  0.14305264  1.0
  Ni  Ni636  1  0.75847833  0.27374867  0.14305264  1.0
  Ni  Ni637  1  0.75847833  0.60708200  0.14305264  1.0
  Ni  Ni638  1  0.75847833  0.94041533  0.14305264  1.0
  Ni  Ni639  1  0.25847833  0.27374867  0.19860819  1.0
  Ni  Ni640  1  0.25847833  0.60708200  0.19860819  1.0
  Ni  Ni641  1  0.25847833  0.94041533  0.19860819  1.0
  Ni  Ni642  1  0.59181167  0.27374867  0.19860819  1.0
  Ni  Ni643  1  0.59181167  0.60708200  0.19860819  1.0
  Ni  Ni644  1  0.59181167  0.94041533  0.19860819  1.0
  Ni  Ni645  1  0.92514500  0.27374867  0.19860819  1.0
  Ni  Ni646  1  0.92514500  0.60708200  0.19860819  1.0
  Ni  Ni647  1  0.92514500  0.94041533  0.19860819  1.0
  Ni  Ni648  1  0.07485500  0.05958467  0.12028619  1.0
  Ni  Ni649  1  0.07485500  0.39291800  0.12028619  1.0
  Ni  Ni650  1  0.07485500  0.72625133  0.12028619  1.0
  Ni  Ni651  1  0.40818833  0.05958467  0.12028619  1.0
  Ni  Ni652  1  0.40818833  0.39291800  0.12028619  1.0
  Ni  Ni653  1  0.40818833  0.72625133  0.12028619  1.0
  Ni  Ni654  1  0.74152167  0.05958467  0.12028619  1.0
  Ni  Ni655  1  0.74152167  0.39291800  0.12028619  1.0
  Ni  Ni656  1  0.74152167  0.72625133  0.12028619  1.0
  Ni  Ni657  1  0.24152167  0.05958467  0.17584175  1.0
  Ni  Ni658  1  0.24152167  0.39291800  0.17584175  1.0
  Ni  Ni659  1  0.24152167  0.72625133  0.17584175  1.0
  Ni  Ni660  1  0.57485500  0.05958467  0.17584175  1.0
  Ni  Ni661  1  0.57485500  0.39291800  0.17584175  1.0
  Ni  Ni662  1  0.57485500  0.72625133  0.17584175  1.0
  Ni  Ni663  1  0.90818833  0.05958467  0.17584175  1.0
  Ni  Ni664  1  0.90818833  0.39291800  0.17584175  1.0
  Ni  Ni665  1  0.90818833  0.72625133  0.17584175  1.0
  Ni  Ni666  1  0.12363300  0.16254500  0.14829919  1.0
  Ni  Ni667  1  0.12363300  0.49587833  0.14829919  1.0
  Ni  Ni668  1  0.12363300  0.82921167  0.14829919  1.0
  Ni  Ni669  1  0.45696633  0.16254500  0.14829919  1.0
  Ni  Ni670  1  0.45696633  0.49587833  0.14829919  1.0
  Ni  Ni671  1  0.45696633  0.82921167  0.14829919  1.0
  Ni  Ni672  1  0.79029967  0.16254500  0.14829919  1.0
  Ni  Ni673  1  0.79029967  0.49587833  0.14829919  1.0
  Ni  Ni674  1  0.79029967  0.82921167  0.14829919  1.0
  Ni  Ni675  1  0.29029967  0.16254500  0.20385475  1.0
  Ni  Ni676  1  0.29029967  0.49587833  0.20385475  1.0
  Ni  Ni677  1  0.29029967  0.82921167  0.20385475  1.0
  Ni  Ni678  1  0.62363300  0.16254500  0.20385475  1.0
  Ni  Ni679  1  0.62363300  0.49587833  0.20385475  1.0
  Ni  Ni680  1  0.62363300  0.82921167  0.20385475  1.0
  Ni  Ni681  1  0.95696633  0.16254500  0.20385475  1.0
  Ni  Ni682  1  0.95696633  0.49587833  0.20385475  1.0
  Ni  Ni683  1  0.95696633  0.82921167  0.20385475  1.0
  Ni  Ni684  1  0.04303367  0.17078833  0.11503964  1.0
  Ni  Ni685  1  0.04303367  0.50412167  0.11503964  1.0
  Ni  Ni686  1  0.04303367  0.83745500  0.11503964  1.0
  Ni  Ni687  1  0.37636700  0.17078833  0.11503964  1.0
  Ni  Ni688  1  0.37636700  0.50412167  0.11503964  1.0
  Ni  Ni689  1  0.37636700  0.83745500  0.11503964  1.0
  Ni  Ni690  1  0.70970033  0.17078833  0.11503964  1.0
  Ni  Ni691  1  0.70970033  0.50412167  0.11503964  1.0
  Ni  Ni692  1  0.70970033  0.83745500  0.11503964  1.0
  Ni  Ni693  1  0.20970033  0.17078833  0.17059519  1.0
  Ni  Ni694  1  0.20970033  0.50412167  0.17059519  1.0
  Ni  Ni695  1  0.20970033  0.83745500  0.17059519  1.0
  Ni  Ni696  1  0.54303367  0.17078833  0.17059519  1.0
  Ni  Ni697  1  0.54303367  0.50412167  0.17059519  1.0
  Ni  Ni698  1  0.54303367  0.83745500  0.17059519  1.0
  Ni  Ni699  1  0.87636700  0.17078833  0.17059519  1.0
  Ni  Ni700  1  0.87636700  0.50412167  0.17059519  1.0
  Ni  Ni701  1  0.87636700  0.83745500  0.17059519  1.0
  Ni  Ni702  1  0.04331683  0.00000000  0.11833058  1.0
  Ni  Ni703  1  0.04331683  0.33333333  0.11833058  1.0
  Ni  Ni704  1  0.04331683  0.66666667  0.11833058  1.0
  Ni  Ni705  1  0.37665017  0.00000000  0.11833058  1.0
  Ni  Ni706  1  0.37665017  0.33333333  0.11833058  1.0
  Ni  Ni707  1  0.37665017  0.66666667  0.11833058  1.0
  Ni  Ni708  1  0.70998350  0.00000000  0.11833058  1.0
  Ni  Ni709  1  0.70998350  0.33333333  0.11833058  1.0
  Ni  Ni710  1  0.70998350  0.66666667  0.11833058  1.0
  Ni  Ni711  1  0.20998350  0.00000000  0.17388614  1.0
  Ni  Ni712  1  0.20998350  0.33333333  0.17388614  1.0
  Ni  Ni713  1  0.20998350  0.66666667  0.17388614  1.0
  Ni  Ni714  1  0.54331683  0.00000000  0.17388614  1.0
  Ni  Ni715  1  0.54331683  0.33333333  0.17388614  1.0
  Ni  Ni716  1  0.54331683  0.66666667  0.17388614  1.0
  Ni  Ni717  1  0.87665017  0.00000000  0.17388614  1.0
  Ni  Ni718  1  0.87665017  0.33333333  0.17388614  1.0
  Ni  Ni719  1  0.87665017  0.66666667  0.17388614  1.0
  Ni  Ni720  1  0.16666667  0.16666667  0.21500275  1.0
  Ni  Ni721  1  0.16666667  0.50000000  0.21500275  1.0
  Ni  Ni722  1  0.16666667  0.83333333  0.21500275  1.0
  Ni  Ni723  1  0.50000000  0.16666667  0.21500275  1.0
  Ni  Ni724  1  0.50000000  0.50000000  0.21500275  1.0
  Ni  Ni725  1  0.50000000  0.83333333  0.21500275  1.0
  Ni  Ni726  1  0.83333333  0.16666667  0.21500275  1.0
  Ni  Ni727  1  0.83333333  0.50000000  0.21500275  1.0
  Ni  Ni728  1  0.83333333  0.83333333  0.21500275  1.0
  Ni  Ni729  1  0.00000000  0.16666667  0.15944719  1.0
  Ni  Ni730  1  0.00000000  0.50000000  0.15944719  1.0
  Ni  Ni731  1  0.00000000  0.83333333  0.15944719  1.0
  Ni  Ni732  1  0.33333333  0.16666667  0.15944719  1.0
  Ni  Ni733  1  0.33333333  0.50000000  0.15944719  1.0
  Ni  Ni734  1  0.33333333  0.83333333  0.15944719  1.0
  Ni  Ni735  1  0.66666667  0.16666667  0.15944719  1.0
  Ni  Ni736  1  0.66666667  0.50000000  0.15944719  1.0
  Ni  Ni737  1  0.66666667  0.83333333  0.15944719  1.0
  Ni  Ni738  1  0.16666667  0.00000000  0.21500275  1.0
  Ni  Ni739  1  0.16666667  0.33333333  0.21500275  1.0
  Ni  Ni740  1  0.16666667  0.66666667  0.21500275  1.0
  Ni  Ni741  1  0.50000000  0.00000000  0.21500275  1.0
  Ni  Ni742  1  0.50000000  0.33333333  0.21500275  1.0
  Ni  Ni743  1  0.50000000  0.66666667  0.21500275  1.0
  Ni  Ni744  1  0.83333333  0.00000000  0.21500275  1.0
  Ni  Ni745  1  0.83333333  0.33333333  0.21500275  1.0
  Ni  Ni746  1  0.83333333  0.66666667  0.21500275  1.0
  Ni  Ni747  1  0.00000000  0.00000000  0.15944719  1.0
  Ni  Ni748  1  0.00000000  0.33333333  0.15944719  1.0
  Ni  Ni749  1  0.00000000  0.66666667  0.15944719  1.0
  Ni  Ni750  1  0.33333333  0.00000000  0.15944719  1.0
  Ni  Ni751  1  0.33333333  0.33333333  0.15944719  1.0
  Ni  Ni752  1  0.33333333  0.66666667  0.15944719  1.0
  Ni  Ni753  1  0.66666667  0.00000000  0.15944719  1.0
  Ni  Ni754  1  0.66666667  0.33333333  0.15944719  1.0
  Ni  Ni755  1  0.66666667  0.66666667  0.15944719  1.0
  Ni  Ni756  1  0.08333333  0.00000000  0.18722497  1.0
  Ni  Ni757  1  0.08333333  0.33333333  0.18722497  1.0
  Ni  Ni758  1  0.08333333  0.66666667  0.18722497  1.0
  Ni  Ni759  1  0.41666667  0.00000000  0.18722497  1.0
  Ni  Ni760  1  0.41666667  0.33333333  0.18722497  1.0
  Ni  Ni761  1  0.41666667  0.66666667  0.18722497  1.0
  Ni  Ni762  1  0.75000000  0.00000000  0.18722497  1.0
  Ni  Ni763  1  0.75000000  0.33333333  0.18722497  1.0
  Ni  Ni764  1  0.75000000  0.66666667  0.18722497  1.0
  Ni  Ni765  1  0.25000000  0.00000000  0.13166942  1.0
  Ni  Ni766  1  0.25000000  0.33333333  0.13166942  1.0
  Ni  Ni767  1  0.25000000  0.66666667  0.13166942  1.0
  Ni  Ni768  1  0.58333333  0.00000000  0.13166942  1.0
  Ni  Ni769  1  0.58333333  0.33333333  0.13166942  1.0
  Ni  Ni770  1  0.58333333  0.66666667  0.13166942  1.0
  Ni  Ni771  1  0.91666667  0.00000000  0.13166942  1.0
  Ni  Ni772  1  0.91666667  0.33333333  0.13166942  1.0
  Ni  Ni773  1  0.91666667  0.66666667  0.13166942  1.0
  Ni  Ni774  1  0.12334983  0.00000000  0.14500825  1.0
  Ni  Ni775  1  0.12334983  0.33333333  0.14500825  1.0
  Ni  Ni776  1  0.12334983  0.66666667  0.14500825  1.0
  Ni  Ni777  1  0.45668317  0.00000000  0.14500825  1.0
  Ni  Ni778  1  0.45668317  0.33333333  0.14500825  1.0
  Ni  Ni779  1  0.45668317  0.66666667  0.14500825  1.0
  Ni  Ni780  1  0.79001650  0.00000000  0.14500825  1.0
  Ni  Ni781  1  0.79001650  0.33333333  0.14500825  1.0
  Ni  Ni782  1  0.79001650  0.66666667  0.14500825  1.0
  Ni  Ni783  1  0.29001650  0.00000000  0.20056381  1.0
  Ni  Ni784  1  0.29001650  0.33333333  0.20056381  1.0
  Ni  Ni785  1  0.29001650  0.66666667  0.20056381  1.0
  Ni  Ni786  1  0.62334983  0.00000000  0.20056381  1.0
  Ni  Ni787  1  0.62334983  0.33333333  0.20056381  1.0
  Ni  Ni788  1  0.62334983  0.66666667  0.20056381  1.0
  Ni  Ni789  1  0.95668317  0.00000000  0.20056381  1.0
  Ni  Ni790  1  0.95668317  0.33333333  0.20056381  1.0
  Ni  Ni791  1  0.95668317  0.66666667  0.20056381  1.0
  Ga  Ga792  1  0.02857283  0.23034900  0.26751014  1.0
  Ga  Ga793  1  0.02857283  0.56368233  0.26751014  1.0
  Ga  Ga794  1  0.02857283  0.89701567  0.26751014  1.0
  Ga  Ga795  1  0.36190617  0.23034900  0.26751014  1.0
  Ga  Ga796  1  0.36190617  0.56368233  0.26751014  1.0
  Ga  Ga797  1  0.36190617  0.89701567  0.26751014  1.0
  Ga  Ga798  1  0.69523950  0.23034900  0.26751014  1.0
  Ga  Ga799  1  0.69523950  0.56368233  0.26751014  1.0
  Ga  Ga800  1  0.69523950  0.89701567  0.26751014  1.0
  Ga  Ga801  1  0.19523950  0.23034900  0.32306569  1.0
  Ga  Ga802  1  0.19523950  0.56368233  0.32306569  1.0
  Ga  Ga803  1  0.19523950  0.89701567  0.32306569  1.0
  Ga  Ga804  1  0.52857283  0.23034900  0.32306569  1.0
  Ga  Ga805  1  0.52857283  0.56368233  0.32306569  1.0
  Ga  Ga806  1  0.52857283  0.89701567  0.32306569  1.0
  Ga  Ga807  1  0.86190617  0.23034900  0.32306569  1.0
  Ga  Ga808  1  0.86190617  0.56368233  0.32306569  1.0
  Ga  Ga809  1  0.86190617  0.89701567  0.32306569  1.0
  Ga  Ga810  1  0.04155533  0.10298433  0.29698253  1.0
  Ga  Ga811  1  0.04155533  0.43631767  0.29698253  1.0
  Ga  Ga812  1  0.04155533  0.76965100  0.29698253  1.0
  Ga  Ga813  1  0.37488867  0.10298433  0.29698253  1.0
  Ga  Ga814  1  0.37488867  0.43631767  0.29698253  1.0
  Ga  Ga815  1  0.37488867  0.76965100  0.29698253  1.0
  Ga  Ga816  1  0.70822200  0.10298433  0.29698253  1.0
  Ga  Ga817  1  0.70822200  0.43631767  0.29698253  1.0
  Ga  Ga818  1  0.70822200  0.76965100  0.29698253  1.0
  Ga  Ga819  1  0.20822200  0.10298433  0.24142697  1.0
  Ga  Ga820  1  0.20822200  0.43631767  0.24142697  1.0
  Ga  Ga821  1  0.20822200  0.76965100  0.24142697  1.0
  Ga  Ga822  1  0.54155533  0.10298433  0.24142697  1.0
  Ga  Ga823  1  0.54155533  0.43631767  0.24142697  1.0
  Ga  Ga824  1  0.54155533  0.76965100  0.24142697  1.0
  Ga  Ga825  1  0.87488867  0.10298433  0.24142697  1.0
  Ga  Ga826  1  0.87488867  0.43631767  0.24142697  1.0
  Ga  Ga827  1  0.87488867  0.76965100  0.24142697  1.0
  Ga  Ga828  1  0.13809383  0.10298433  0.32916203  1.0
  Ga  Ga829  1  0.13809383  0.43631767  0.32916203  1.0
  Ga  Ga830  1  0.13809383  0.76965100  0.32916203  1.0
  Ga  Ga831  1  0.47142717  0.10298433  0.32916203  1.0
  Ga  Ga832  1  0.47142717  0.43631767  0.32916203  1.0
  Ga  Ga833  1  0.47142717  0.76965100  0.32916203  1.0
  Ga  Ga834  1  0.80476050  0.10298433  0.32916203  1.0
  Ga  Ga835  1  0.80476050  0.43631767  0.32916203  1.0
  Ga  Ga836  1  0.80476050  0.76965100  0.32916203  1.0
  Ga  Ga837  1  0.30476050  0.10298433  0.27360647  1.0
  Ga  Ga838  1  0.30476050  0.43631767  0.27360647  1.0
  Ga  Ga839  1  0.30476050  0.76965100  0.27360647  1.0
  Ga  Ga840  1  0.63809383  0.10298433  0.27360647  1.0
  Ga  Ga841  1  0.63809383  0.43631767  0.27360647  1.0
  Ga  Ga842  1  0.63809383  0.76965100  0.27360647  1.0
  Ga  Ga843  1  0.97142717  0.10298433  0.27360647  1.0
  Ga  Ga844  1  0.97142717  0.43631767  0.27360647  1.0
  Ga  Ga845  1  0.97142717  0.76965100  0.27360647  1.0
  Ga  Ga846  1  0.12511133  0.23034900  0.29968964  1.0
  Ga  Ga847  1  0.12511133  0.56368233  0.29968964  1.0
  Ga  Ga848  1  0.12511133  0.89701567  0.29968964  1.0
  Ga  Ga849  1  0.45844467  0.23034900  0.29968964  1.0
  Ga  Ga850  1  0.45844467  0.56368233  0.29968964  1.0
  Ga  Ga851  1  0.45844467  0.89701567  0.29968964  1.0
  Ga  Ga852  1  0.79177800  0.23034900  0.29968964  1.0
  Ga  Ga853  1  0.79177800  0.56368233  0.29968964  1.0
  Ga  Ga854  1  0.79177800  0.89701567  0.29968964  1.0
  Ga  Ga855  1  0.29177800  0.23034900  0.24413408  1.0
  Ga  Ga856  1  0.29177800  0.56368233  0.24413408  1.0
  Ga  Ga857  1  0.29177800  0.89701567  0.24413408  1.0
  Ga  Ga858  1  0.62511133  0.23034900  0.24413408  1.0
  Ga  Ga859  1  0.62511133  0.56368233  0.24413408  1.0
  Ga  Ga860  1  0.62511133  0.89701567  0.24413408  1.0
  Ga  Ga861  1  0.95844467  0.23034900  0.24413408  1.0
  Ga  Ga862  1  0.95844467  0.56368233  0.24413408  1.0
  Ga  Ga863  1  0.95844467  0.89701567  0.24413408  1.0
  Ga  Ga864  1  0.13826200  0.29574700  0.31149175  1.0
  Ga  Ga865  1  0.13826200  0.62908033  0.31149175  1.0
  Ga  Ga866  1  0.13826200  0.96241367  0.31149175  1.0
  Ga  Ga867  1  0.47159533  0.29574700  0.31149175  1.0
  Ga  Ga868  1  0.47159533  0.62908033  0.31149175  1.0
  Ga  Ga869  1  0.47159533  0.96241367  0.31149175  1.0
  Ga  Ga870  1  0.80492867  0.29574700  0.31149175  1.0
  Ga  Ga871  1  0.80492867  0.62908033  0.31149175  1.0
  Ga  Ga872  1  0.80492867  0.96241367  0.31149175  1.0
  Ga  Ga873  1  0.30492867  0.29574700  0.25593619  1.0
  Ga  Ga874  1  0.30492867  0.62908033  0.25593619  1.0
  Ga  Ga875  1  0.30492867  0.96241367  0.25593619  1.0
  Ga  Ga876  1  0.63826200  0.29574700  0.25593619  1.0
  Ga  Ga877  1  0.63826200  0.62908033  0.25593619  1.0
  Ga  Ga878  1  0.63826200  0.96241367  0.25593619  1.0
  Ga  Ga879  1  0.97159533  0.29574700  0.25593619  1.0
  Ga  Ga880  1  0.97159533  0.62908033  0.25593619  1.0
  Ga  Ga881  1  0.97159533  0.96241367  0.25593619  1.0
  Ga  Ga882  1  0.02840467  0.03758633  0.28518042  1.0
  Ga  Ga883  1  0.02840467  0.37091967  0.28518042  1.0
  Ga  Ga884  1  0.02840467  0.70425300  0.28518042  1.0
  Ga  Ga885  1  0.36173800  0.03758633  0.28518042  1.0
  Ga  Ga886  1  0.36173800  0.37091967  0.28518042  1.0
  Ga  Ga887  1  0.36173800  0.70425300  0.28518042  1.0
  Ga  Ga888  1  0.69507133  0.03758633  0.28518042  1.0
  Ga  Ga889  1  0.69507133  0.37091967  0.28518042  1.0
  Ga  Ga890  1  0.69507133  0.70425300  0.28518042  1.0
  Ga  Ga891  1  0.19507133  0.03758633  0.22962486  1.0
  Ga  Ga892  1  0.19507133  0.37091967  0.22962486  1.0
  Ga  Ga893  1  0.19507133  0.70425300  0.22962486  1.0
  Ga  Ga894  1  0.52840467  0.03758633  0.22962486  1.0
  Ga  Ga895  1  0.52840467  0.37091967  0.22962486  1.0
  Ga  Ga896  1  0.52840467  0.70425300  0.22962486  1.0
  Ga  Ga897  1  0.86173800  0.03758633  0.22962486  1.0
  Ga  Ga898  1  0.86173800  0.37091967  0.22962486  1.0
  Ga  Ga899  1  0.86173800  0.70425300  0.22962486  1.0
  Ga  Ga900  1  0.04865250  0.27755300  0.29605481  1.0
  Ga  Ga901  1  0.04865250  0.61088633  0.29605481  1.0
  Ga  Ga902  1  0.04865250  0.94421967  0.29605481  1.0
  Ga  Ga903  1  0.38198583  0.27755300  0.29605481  1.0
  Ga  Ga904  1  0.38198583  0.61088633  0.29605481  1.0
  Ga  Ga905  1  0.38198583  0.94421967  0.29605481  1.0
  Ga  Ga906  1  0.71531917  0.27755300  0.29605481  1.0
  Ga  Ga907  1  0.71531917  0.61088633  0.29605481  1.0
  Ga  Ga908  1  0.71531917  0.94421967  0.29605481  1.0
  Ga  Ga909  1  0.21531917  0.27755300  0.24049925  1.0
  Ga  Ga910  1  0.21531917  0.61088633  0.24049925  1.0
  Ga  Ga911  1  0.21531917  0.94421967  0.24049925  1.0
  Ga  Ga912  1  0.54865250  0.27755300  0.24049925  1.0
  Ga  Ga913  1  0.54865250  0.61088633  0.24049925  1.0
  Ga  Ga914  1  0.54865250  0.94421967  0.24049925  1.0
  Ga  Ga915  1  0.88198583  0.27755300  0.24049925  1.0
  Ga  Ga916  1  0.88198583  0.61088633  0.24049925  1.0
  Ga  Ga917  1  0.88198583  0.94421967  0.24049925  1.0
  Ga  Ga918  1  0.11801417  0.05578033  0.30061736  1.0
  Ga  Ga919  1  0.11801417  0.38911367  0.30061736  1.0
  Ga  Ga920  1  0.11801417  0.72244700  0.30061736  1.0
  Ga  Ga921  1  0.45134750  0.05578033  0.30061736  1.0
  Ga  Ga922  1  0.45134750  0.38911367  0.30061736  1.0
  Ga  Ga923  1  0.45134750  0.72244700  0.30061736  1.0
  Ga  Ga924  1  0.78468083  0.05578033  0.30061736  1.0
  Ga  Ga925  1  0.78468083  0.38911367  0.30061736  1.0
  Ga  Ga926  1  0.78468083  0.72244700  0.30061736  1.0
  Ga  Ga927  1  0.28468083  0.05578033  0.24506181  1.0
  Ga  Ga928  1  0.28468083  0.38911367  0.24506181  1.0
  Ga  Ga929  1  0.28468083  0.72244700  0.24506181  1.0
  Ga  Ga930  1  0.61801417  0.05578033  0.24506181  1.0
  Ga  Ga931  1  0.61801417  0.38911367  0.24506181  1.0
  Ga  Ga932  1  0.61801417  0.72244700  0.24506181  1.0
  Ga  Ga933  1  0.95134750  0.05578033  0.24506181  1.0
  Ga  Ga934  1  0.95134750  0.38911367  0.24506181  1.0
  Ga  Ga935  1  0.95134750  0.72244700  0.24506181  1.0
  Ga  Ga936  1  0.08333333  0.16666667  0.29833608  1.0
  Ga  Ga937  1  0.08333333  0.50000000  0.29833608  1.0
  Ga  Ga938  1  0.08333333  0.83333333  0.29833608  1.0
  Ga  Ga939  1  0.41666667  0.16666667  0.29833608  1.0
  Ga  Ga940  1  0.41666667  0.50000000  0.29833608  1.0
  Ga  Ga941  1  0.41666667  0.83333333  0.29833608  1.0
  Ga  Ga942  1  0.75000000  0.16666667  0.29833608  1.0
  Ga  Ga943  1  0.75000000  0.50000000  0.29833608  1.0
  Ga  Ga944  1  0.75000000  0.83333333  0.29833608  1.0
  Ga  Ga945  1  0.25000000  0.16666667  0.24278053  1.0
  Ga  Ga946  1  0.25000000  0.50000000  0.24278053  1.0
  Ga  Ga947  1  0.25000000  0.83333333  0.24278053  1.0
  Ga  Ga948  1  0.58333333  0.16666667  0.24278053  1.0
  Ga  Ga949  1  0.58333333  0.50000000  0.24278053  1.0
  Ga  Ga950  1  0.58333333  0.83333333  0.24278053  1.0
  Ga  Ga951  1  0.91666667  0.16666667  0.24278053  1.0
  Ga  Ga952  1  0.91666667  0.50000000  0.24278053  1.0
  Ga  Ga953  1  0.91666667  0.83333333  0.24278053  1.0
  Ni  Ni954  1  0.01086167  0.11302700  0.22456664  1.0
  Ni  Ni955  1  0.01086167  0.44636033  0.22456664  1.0
  Ni  Ni956  1  0.01086167  0.77969367  0.22456664  1.0
  Ni  Ni957  1  0.34419500  0.11302700  0.22456664  1.0
  Ni  Ni958  1  0.34419500  0.44636033  0.22456664  1.0
  Ni  Ni959  1  0.34419500  0.77969367  0.22456664  1.0
  Ni  Ni960  1  0.67752833  0.11302700  0.22456664  1.0
  Ni  Ni961  1  0.67752833  0.44636033  0.22456664  1.0
  Ni  Ni962  1  0.67752833  0.77969367  0.22456664  1.0
  Ni  Ni963  1  0.17752833  0.11302700  0.28012219  1.0
  Ni  Ni964  1  0.17752833  0.44636033  0.28012219  1.0
  Ni  Ni965  1  0.17752833  0.77969367  0.28012219  1.0
  Ni  Ni966  1  0.51086167  0.11302700  0.28012219  1.0
  Ni  Ni967  1  0.51086167  0.44636033  0.28012219  1.0
  Ni  Ni968  1  0.51086167  0.77969367  0.28012219  1.0
  Ni  Ni969  1  0.84419500  0.11302700  0.28012219  1.0
  Ni  Ni970  1  0.84419500  0.44636033  0.28012219  1.0
  Ni  Ni971  1  0.84419500  0.77969367  0.28012219  1.0
  Ni  Ni972  1  0.07629017  0.22030633  0.23448947  1.0
  Ni  Ni973  1  0.07629017  0.55363967  0.23448947  1.0
  Ni  Ni974  1  0.07629017  0.88697300  0.23448947  1.0
  Ni  Ni975  1  0.40962350  0.22030633  0.23448947  1.0
  Ni  Ni976  1  0.40962350  0.55363967  0.23448947  1.0
  Ni  Ni977  1  0.40962350  0.88697300  0.23448947  1.0
  Ni  Ni978  1  0.74295683  0.22030633  0.23448947  1.0
  Ni  Ni979  1  0.74295683  0.55363967  0.23448947  1.0
  Ni  Ni980  1  0.74295683  0.88697300  0.23448947  1.0
  Ni  Ni981  1  0.24295683  0.22030633  0.29004503  1.0
  Ni  Ni982  1  0.24295683  0.55363967  0.29004503  1.0
  Ni  Ni983  1  0.24295683  0.88697300  0.29004503  1.0
  Ni  Ni984  1  0.57629017  0.22030633  0.29004503  1.0
  Ni  Ni985  1  0.57629017  0.55363967  0.29004503  1.0
  Ni  Ni986  1  0.57629017  0.88697300  0.29004503  1.0
  Ni  Ni987  1  0.90962350  0.22030633  0.29004503  1.0
  Ni  Ni988  1  0.90962350  0.55363967  0.29004503  1.0
  Ni  Ni989  1  0.90962350  0.88697300  0.29004503  1.0
  Ni  Ni990  1  0.15580500  0.22030633  0.26099442  1.0
  Ni  Ni991  1  0.15580500  0.55363967  0.26099442  1.0
  Ni  Ni992  1  0.15580500  0.88697300  0.26099442  1.0
  Ni  Ni993  1  0.48913833  0.22030633  0.26099442  1.0
  Ni  Ni994  1  0.48913833  0.55363967  0.26099442  1.0
  Ni  Ni995  1  0.48913833  0.88697300  0.26099442  1.0
  Ni  Ni996  1  0.82247167  0.22030633  0.26099442  1.0
  Ni  Ni997  1  0.82247167  0.55363967  0.26099442  1.0
  Ni  Ni998  1  0.82247167  0.88697300  0.26099442  1.0
  Ni  Ni999  1  0.32247167  0.22030633  0.31654997  1.0
  Ni  Ni1000  1  0.32247167  0.55363967  0.31654997  1.0
  Ni  Ni1001  1  0.32247167  0.88697300  0.31654997  1.0
  Ni  Ni1002  1  0.65580500  0.22030633  0.31654997  1.0
  Ni  Ni1003  1  0.65580500  0.55363967  0.31654997  1.0
  Ni  Ni1004  1  0.65580500  0.88697300  0.31654997  1.0
  Ni  Ni1005  1  0.98913833  0.22030633  0.31654997  1.0
  Ni  Ni1006  1  0.98913833  0.55363967  0.31654997  1.0
  Ni  Ni1007  1  0.98913833  0.88697300  0.31654997  1.0
  Ni  Ni1008  1  0.09037650  0.11302700  0.25107158  1.0
  Ni  Ni1009  1  0.09037650  0.44636033  0.25107158  1.0
  Ni  Ni1010  1  0.09037650  0.77969367  0.25107158  1.0
  Ni  Ni1011  1  0.42370983  0.11302700  0.25107158  1.0
  Ni  Ni1012  1  0.42370983  0.44636033  0.25107158  1.0
  Ni  Ni1013  1  0.42370983  0.77969367  0.25107158  1.0
  Ni  Ni1014  1  0.75704317  0.11302700  0.25107158  1.0
  Ni  Ni1015  1  0.75704317  0.44636033  0.25107158  1.0
  Ni  Ni1016  1  0.75704317  0.77969367  0.25107158  1.0
  Ni  Ni1017  1  0.25704317  0.11302700  0.30662714  1.0
  Ni  Ni1018  1  0.25704317  0.44636033  0.30662714  1.0
  Ni  Ni1019  1  0.25704317  0.77969367  0.30662714  1.0
  Ni  Ni1020  1  0.59037650  0.11302700  0.30662714  1.0
  Ni  Ni1021  1  0.59037650  0.44636033  0.30662714  1.0
  Ni  Ni1022  1  0.59037650  0.77969367  0.30662714  1.0
  Ni  Ni1023  1  0.92370983  0.11302700  0.30662714  1.0
  Ni  Ni1024  1  0.92370983  0.44636033  0.30662714  1.0
  Ni  Ni1025  1  0.92370983  0.77969367  0.30662714  1.0
  Ni  Ni1026  1  0.09181167  0.27374867  0.25416375  1.0
  Ni  Ni1027  1  0.09181167  0.60708200  0.25416375  1.0
  Ni  Ni1028  1  0.09181167  0.94041533  0.25416375  1.0
  Ni  Ni1029  1  0.42514500  0.27374867  0.25416375  1.0
  Ni  Ni1030  1  0.42514500  0.60708200  0.25416375  1.0
  Ni  Ni1031  1  0.42514500  0.94041533  0.25416375  1.0
  Ni  Ni1032  1  0.75847833  0.27374867  0.25416375  1.0
  Ni  Ni1033  1  0.75847833  0.60708200  0.25416375  1.0
  Ni  Ni1034  1  0.75847833  0.94041533  0.25416375  1.0
  Ni  Ni1035  1  0.25847833  0.27374867  0.30971931  1.0
  Ni  Ni1036  1  0.25847833  0.60708200  0.30971931  1.0
  Ni  Ni1037  1  0.25847833  0.94041533  0.30971931  1.0
  Ni  Ni1038  1  0.59181167  0.27374867  0.30971931  1.0
  Ni  Ni1039  1  0.59181167  0.60708200  0.30971931  1.0
  Ni  Ni1040  1  0.59181167  0.94041533  0.30971931  1.0
  Ni  Ni1041  1  0.92514500  0.27374867  0.30971931  1.0
  Ni  Ni1042  1  0.92514500  0.60708200  0.30971931  1.0
  Ni  Ni1043  1  0.92514500  0.94041533  0.30971931  1.0
  Ni  Ni1044  1  0.07485500  0.05958467  0.23139731  1.0
  Ni  Ni1045  1  0.07485500  0.39291800  0.23139731  1.0
  Ni  Ni1046  1  0.07485500  0.72625133  0.23139731  1.0
  Ni  Ni1047  1  0.40818833  0.05958467  0.23139731  1.0
  Ni  Ni1048  1  0.40818833  0.39291800  0.23139731  1.0
  Ni  Ni1049  1  0.40818833  0.72625133  0.23139731  1.0
  Ni  Ni1050  1  0.74152167  0.05958467  0.23139731  1.0
  Ni  Ni1051  1  0.74152167  0.39291800  0.23139731  1.0
  Ni  Ni1052  1  0.74152167  0.72625133  0.23139731  1.0
  Ni  Ni1053  1  0.24152167  0.05958467  0.28695286  1.0
  Ni  Ni1054  1  0.24152167  0.39291800  0.28695286  1.0
  Ni  Ni1055  1  0.24152167  0.72625133  0.28695286  1.0
  Ni  Ni1056  1  0.57485500  0.05958467  0.28695286  1.0
  Ni  Ni1057  1  0.57485500  0.39291800  0.28695286  1.0
  Ni  Ni1058  1  0.57485500  0.72625133  0.28695286  1.0
  Ni  Ni1059  1  0.90818833  0.05958467  0.28695286  1.0
  Ni  Ni1060  1  0.90818833  0.39291800  0.28695286  1.0
  Ni  Ni1061  1  0.90818833  0.72625133  0.28695286  1.0
  Ni  Ni1062  1  0.12363300  0.16254500  0.25941031  1.0
  Ni  Ni1063  1  0.12363300  0.49587833  0.25941031  1.0
  Ni  Ni1064  1  0.12363300  0.82921167  0.25941031  1.0
  Ni  Ni1065  1  0.45696633  0.16254500  0.25941031  1.0
  Ni  Ni1066  1  0.45696633  0.49587833  0.25941031  1.0
  Ni  Ni1067  1  0.45696633  0.82921167  0.25941031  1.0
  Ni  Ni1068  1  0.79029967  0.16254500  0.25941031  1.0
  Ni  Ni1069  1  0.79029967  0.49587833  0.25941031  1.0
  Ni  Ni1070  1  0.79029967  0.82921167  0.25941031  1.0
  Ni  Ni1071  1  0.29029967  0.16254500  0.31496586  1.0
  Ni  Ni1072  1  0.29029967  0.49587833  0.31496586  1.0
  Ni  Ni1073  1  0.29029967  0.82921167  0.31496586  1.0
  Ni  Ni1074  1  0.62363300  0.16254500  0.31496586  1.0
  Ni  Ni1075  1  0.62363300  0.49587833  0.31496586  1.0
  Ni  Ni1076  1  0.62363300  0.82921167  0.31496586  1.0
  Ni  Ni1077  1  0.95696633  0.16254500  0.31496586  1.0
  Ni  Ni1078  1  0.95696633  0.49587833  0.31496586  1.0
  Ni  Ni1079  1  0.95696633  0.82921167  0.31496586  1.0
  Ni  Ni1080  1  0.04303367  0.17078833  0.22615075  1.0
  Ni  Ni1081  1  0.04303367  0.50412167  0.22615075  1.0
  Ni  Ni1082  1  0.04303367  0.83745500  0.22615075  1.0
  Ni  Ni1083  1  0.37636700  0.17078833  0.22615075  1.0
  Ni  Ni1084  1  0.37636700  0.50412167  0.22615075  1.0
  Ni  Ni1085  1  0.37636700  0.83745500  0.22615075  1.0
  Ni  Ni1086  1  0.70970033  0.17078833  0.22615075  1.0
  Ni  Ni1087  1  0.70970033  0.50412167  0.22615075  1.0
  Ni  Ni1088  1  0.70970033  0.83745500  0.22615075  1.0
  Ni  Ni1089  1  0.20970033  0.17078833  0.28170631  1.0
  Ni  Ni1090  1  0.20970033  0.50412167  0.28170631  1.0
  Ni  Ni1091  1  0.20970033  0.83745500  0.28170631  1.0
  Ni  Ni1092  1  0.54303367  0.17078833  0.28170631  1.0
  Ni  Ni1093  1  0.54303367  0.50412167  0.28170631  1.0
  Ni  Ni1094  1  0.54303367  0.83745500  0.28170631  1.0
  Ni  Ni1095  1  0.87636700  0.17078833  0.28170631  1.0
  Ni  Ni1096  1  0.87636700  0.50412167  0.28170631  1.0
  Ni  Ni1097  1  0.87636700  0.83745500  0.28170631  1.0
  Ni  Ni1098  1  0.04331683  0.00000000  0.22944169  1.0
  Ni  Ni1099  1  0.04331683  0.33333333  0.22944169  1.0
  Ni  Ni1100  1  0.04331683  0.66666667  0.22944169  1.0
  Ni  Ni1101  1  0.37665017  0.00000000  0.22944169  1.0
  Ni  Ni1102  1  0.37665017  0.33333333  0.22944169  1.0
  Ni  Ni1103  1  0.37665017  0.66666667  0.22944169  1.0
  Ni  Ni1104  1  0.70998350  0.00000000  0.22944169  1.0
  Ni  Ni1105  1  0.70998350  0.33333333  0.22944169  1.0
  Ni  Ni1106  1  0.70998350  0.66666667  0.22944169  1.0
  Ni  Ni1107  1  0.20998350  0.00000000  0.28499725  1.0
  Ni  Ni1108  1  0.20998350  0.33333333  0.28499725  1.0
  Ni  Ni1109  1  0.20998350  0.66666667  0.28499725  1.0
  Ni  Ni1110  1  0.54331683  0.00000000  0.28499725  1.0
  Ni  Ni1111  1  0.54331683  0.33333333  0.28499725  1.0
  Ni  Ni1112  1  0.54331683  0.66666667  0.28499725  1.0
  Ni  Ni1113  1  0.87665017  0.00000000  0.28499725  1.0
  Ni  Ni1114  1  0.87665017  0.33333333  0.28499725  1.0
  Ni  Ni1115  1  0.87665017  0.66666667  0.28499725  1.0
  Ni  Ni1116  1  0.16666667  0.16666667  0.32611386  1.0
  Ni  Ni1117  1  0.16666667  0.50000000  0.32611386  1.0
  Ni  Ni1118  1  0.16666667  0.83333333  0.32611386  1.0
  Ni  Ni1119  1  0.50000000  0.16666667  0.32611386  1.0
  Ni  Ni1120  1  0.50000000  0.50000000  0.32611386  1.0
  Ni  Ni1121  1  0.50000000  0.83333333  0.32611386  1.0
  Ni  Ni1122  1  0.83333333  0.16666667  0.32611386  1.0
  Ni  Ni1123  1  0.83333333  0.50000000  0.32611386  1.0
  Ni  Ni1124  1  0.83333333  0.83333333  0.32611386  1.0
  Ni  Ni1125  1  0.00000000  0.16666667  0.27055831  1.0
  Ni  Ni1126  1  0.00000000  0.50000000  0.27055831  1.0
  Ni  Ni1127  1  0.00000000  0.83333333  0.27055831  1.0
  Ni  Ni1128  1  0.33333333  0.16666667  0.27055831  1.0
  Ni  Ni1129  1  0.33333333  0.50000000  0.27055831  1.0
  Ni  Ni1130  1  0.33333333  0.83333333  0.27055831  1.0
  Ni  Ni1131  1  0.66666667  0.16666667  0.27055831  1.0
  Ni  Ni1132  1  0.66666667  0.50000000  0.27055831  1.0
  Ni  Ni1133  1  0.66666667  0.83333333  0.27055831  1.0
  Ni  Ni1134  1  0.16666667  0.00000000  0.32611386  1.0
  Ni  Ni1135  1  0.16666667  0.33333333  0.32611386  1.0
  Ni  Ni1136  1  0.16666667  0.66666667  0.32611386  1.0
  Ni  Ni1137  1  0.50000000  0.00000000  0.32611386  1.0
  Ni  Ni1138  1  0.50000000  0.33333333  0.32611386  1.0
  Ni  Ni1139  1  0.50000000  0.66666667  0.32611386  1.0
  Ni  Ni1140  1  0.83333333  0.00000000  0.32611386  1.0
  Ni  Ni1141  1  0.83333333  0.33333333  0.32611386  1.0
  Ni  Ni1142  1  0.83333333  0.66666667  0.32611386  1.0
  Ni  Ni1143  1  0.00000000  0.00000000  0.27055831  1.0
  Ni  Ni1144  1  0.00000000  0.33333333  0.27055831  1.0
  Ni  Ni1145  1  0.00000000  0.66666667  0.27055831  1.0
  Ni  Ni1146  1  0.33333333  0.00000000  0.27055831  1.0
  Ni  Ni1147  1  0.33333333  0.33333333  0.27055831  1.0
  Ni  Ni1148  1  0.33333333  0.66666667  0.27055831  1.0
  Ni  Ni1149  1  0.66666667  0.00000000  0.27055831  1.0
  Ni  Ni1150  1  0.66666667  0.33333333  0.27055831  1.0
  Ni  Ni1151  1  0.66666667  0.66666667  0.27055831  1.0
  Ni  Ni1152  1  0.08333333  0.00000000  0.29833608  1.0
  Ni  Ni1153  1  0.08333333  0.33333333  0.29833608  1.0
  Ni  Ni1154  1  0.08333333  0.66666667  0.29833608  1.0
  Ni  Ni1155  1  0.41666667  0.00000000  0.29833608  1.0
  Ni  Ni1156  1  0.41666667  0.33333333  0.29833608  1.0
  Ni  Ni1157  1  0.41666667  0.66666667  0.29833608  1.0
  Ni  Ni1158  1  0.75000000  0.00000000  0.29833608  1.0
  Ni  Ni1159  1  0.75000000  0.33333333  0.29833608  1.0
  Ni  Ni1160  1  0.75000000  0.66666667  0.29833608  1.0
  Ni  Ni1161  1  0.25000000  0.00000000  0.24278053  1.0
  Ni  Ni1162  1  0.25000000  0.33333333  0.24278053  1.0
  Ni  Ni1163  1  0.25000000  0.66666667  0.24278053  1.0
  Ni  Ni1164  1  0.58333333  0.00000000  0.24278053  1.0
  Ni  Ni1165  1  0.58333333  0.33333333  0.24278053  1.0
  Ni  Ni1166  1  0.58333333  0.66666667  0.24278053  1.0
  Ni  Ni1167  1  0.91666667  0.00000000  0.24278053  1.0
  Ni  Ni1168  1  0.91666667  0.33333333  0.24278053  1.0
  Ni  Ni1169  1  0.91666667  0.66666667  0.24278053  1.0
  Ni  Ni1170  1  0.12334983  0.00000000  0.25611936  1.0
  Ni  Ni1171  1  0.12334983  0.33333333  0.25611936  1.0
  Ni  Ni1172  1  0.12334983  0.66666667  0.25611936  1.0
  Ni  Ni1173  1  0.45668317  0.00000000  0.25611936  1.0
  Ni  Ni1174  1  0.45668317  0.33333333  0.25611936  1.0
  Ni  Ni1175  1  0.45668317  0.66666667  0.25611936  1.0
  Ni  Ni1176  1  0.79001650  0.00000000  0.25611936  1.0
  Ni  Ni1177  1  0.79001650  0.33333333  0.25611936  1.0
  Ni  Ni1178  1  0.79001650  0.66666667  0.25611936  1.0
  Ni  Ni1179  1  0.29001650  0.00000000  0.31167492  1.0
  Ni  Ni1180  1  0.29001650  0.33333333  0.31167492  1.0
  Ni  Ni1181  1  0.29001650  0.66666667  0.31167492  1.0
  Ni  Ni1182  1  0.62334983  0.00000000  0.31167492  1.0
  Ni  Ni1183  1  0.62334983  0.33333333  0.31167492  1.0
  Ni  Ni1184  1  0.62334983  0.66666667  0.31167492  1.0
  Ni  Ni1185  1  0.95668317  0.00000000  0.31167492  1.0
  Ni  Ni1186  1  0.95668317  0.33333333  0.31167492  1.0
  Ni  Ni1187  1  0.95668317  0.66666667  0.31167492  1.0
  Ga  Ga1188  1  0.02857283  0.23034900  0.37862125  1.0
  Ga  Ga1189  1  0.02857283  0.56368233  0.37862125  1.0
  Ga  Ga1190  1  0.02857283  0.89701567  0.37862125  1.0
  Ga  Ga1191  1  0.36190617  0.23034900  0.37862125  1.0
  Ga  Ga1192  1  0.36190617  0.56368233  0.37862125  1.0
  Ga  Ga1193  1  0.36190617  0.89701567  0.37862125  1.0
  Ga  Ga1194  1  0.69523950  0.23034900  0.37862125  1.0
  Ga  Ga1195  1  0.69523950  0.56368233  0.37862125  1.0
  Ga  Ga1196  1  0.69523950  0.89701567  0.37862125  1.0
  Ga  Ga1197  1  0.19523950  0.23034900  0.43417681  1.0
  Ga  Ga1198  1  0.19523950  0.56368233  0.43417681  1.0
  Ga  Ga1199  1  0.19523950  0.89701567  0.43417681  1.0
  Ga  Ga1200  1  0.52857283  0.23034900  0.43417681  1.0
  Ga  Ga1201  1  0.52857283  0.56368233  0.43417681  1.0
  Ga  Ga1202  1  0.52857283  0.89701567  0.43417681  1.0
  Ga  Ga1203  1  0.86190617  0.23034900  0.43417681  1.0
  Ga  Ga1204  1  0.86190617  0.56368233  0.43417681  1.0
  Ga  Ga1205  1  0.86190617  0.89701567  0.43417681  1.0
  Ga  Ga1206  1  0.04155533  0.10298433  0.40809364  1.0
  Ga  Ga1207  1  0.04155533  0.43631767  0.40809364  1.0
  Ga  Ga1208  1  0.04155533  0.76965100  0.40809364  1.0
  Ga  Ga1209  1  0.37488867  0.10298433  0.40809364  1.0
  Ga  Ga1210  1  0.37488867  0.43631767  0.40809364  1.0
  Ga  Ga1211  1  0.37488867  0.76965100  0.40809364  1.0
  Ga  Ga1212  1  0.70822200  0.10298433  0.40809364  1.0
  Ga  Ga1213  1  0.70822200  0.43631767  0.40809364  1.0
  Ga  Ga1214  1  0.70822200  0.76965100  0.40809364  1.0
  Ga  Ga1215  1  0.20822200  0.10298433  0.35253808  1.0
  Ga  Ga1216  1  0.20822200  0.43631767  0.35253808  1.0
  Ga  Ga1217  1  0.20822200  0.76965100  0.35253808  1.0
  Ga  Ga1218  1  0.54155533  0.10298433  0.35253808  1.0
  Ga  Ga1219  1  0.54155533  0.43631767  0.35253808  1.0
  Ga  Ga1220  1  0.54155533  0.76965100  0.35253808  1.0
  Ga  Ga1221  1  0.87488867  0.10298433  0.35253808  1.0
  Ga  Ga1222  1  0.87488867  0.43631767  0.35253808  1.0
  Ga  Ga1223  1  0.87488867  0.76965100  0.35253808  1.0
  Ga  Ga1224  1  0.13809383  0.10298433  0.44027314  1.0
  Ga  Ga1225  1  0.13809383  0.43631767  0.44027314  1.0
  Ga  Ga1226  1  0.13809383  0.76965100  0.44027314  1.0
  Ga  Ga1227  1  0.47142717  0.10298433  0.44027314  1.0
  Ga  Ga1228  1  0.47142717  0.43631767  0.44027314  1.0
  Ga  Ga1229  1  0.47142717  0.76965100  0.44027314  1.0
  Ga  Ga1230  1  0.80476050  0.10298433  0.44027314  1.0
  Ga  Ga1231  1  0.80476050  0.43631767  0.44027314  1.0
  Ga  Ga1232  1  0.80476050  0.76965100  0.44027314  1.0
  Ga  Ga1233  1  0.30476050  0.10298433  0.38471758  1.0
  Ga  Ga1234  1  0.30476050  0.43631767  0.38471758  1.0
  Ga  Ga1235  1  0.30476050  0.76965100  0.38471758  1.0
  Ga  Ga1236  1  0.63809383  0.10298433  0.38471758  1.0
  Ga  Ga1237  1  0.63809383  0.43631767  0.38471758  1.0
  Ga  Ga1238  1  0.63809383  0.76965100  0.38471758  1.0
  Ga  Ga1239  1  0.97142717  0.10298433  0.38471758  1.0
  Ga  Ga1240  1  0.97142717  0.43631767  0.38471758  1.0
  Ga  Ga1241  1  0.97142717  0.76965100  0.38471758  1.0
  Ga  Ga1242  1  0.12511133  0.23034900  0.41080075  1.0
  Ga  Ga1243  1  0.12511133  0.56368233  0.41080075  1.0
  Ga  Ga1244  1  0.12511133  0.89701567  0.41080075  1.0
  Ga  Ga1245  1  0.45844467  0.23034900  0.41080075  1.0
  Ga  Ga1246  1  0.45844467  0.56368233  0.41080075  1.0
  Ga  Ga1247  1  0.45844467  0.89701567  0.41080075  1.0
  Ga  Ga1248  1  0.79177800  0.23034900  0.41080075  1.0
  Ga  Ga1249  1  0.79177800  0.56368233  0.41080075  1.0
  Ga  Ga1250  1  0.79177800  0.89701567  0.41080075  1.0
  Ga  Ga1251  1  0.29177800  0.23034900  0.35524519  1.0
  Ga  Ga1252  1  0.29177800  0.56368233  0.35524519  1.0
  Ga  Ga1253  1  0.29177800  0.89701567  0.35524519  1.0
  Ga  Ga1254  1  0.62511133  0.23034900  0.35524519  1.0
  Ga  Ga1255  1  0.62511133  0.56368233  0.35524519  1.0
  Ga  Ga1256  1  0.62511133  0.89701567  0.35524519  1.0
  Ga  Ga1257  1  0.95844467  0.23034900  0.35524519  1.0
  Ga  Ga1258  1  0.95844467  0.56368233  0.35524519  1.0
  Ga  Ga1259  1  0.95844467  0.89701567  0.35524519  1.0
  Ga  Ga1260  1  0.13826200  0.29574700  0.42260286  1.0
  Ga  Ga1261  1  0.13826200  0.62908033  0.42260286  1.0
  Ga  Ga1262  1  0.13826200  0.96241367  0.42260286  1.0
  Ga  Ga1263  1  0.47159533  0.29574700  0.42260286  1.0
  Ga  Ga1264  1  0.47159533  0.62908033  0.42260286  1.0
  Ga  Ga1265  1  0.47159533  0.96241367  0.42260286  1.0
  Ga  Ga1266  1  0.80492867  0.29574700  0.42260286  1.0
  Ga  Ga1267  1  0.80492867  0.62908033  0.42260286  1.0
  Ga  Ga1268  1  0.80492867  0.96241367  0.42260286  1.0
  Ga  Ga1269  1  0.30492867  0.29574700  0.36704731  1.0
  Ga  Ga1270  1  0.30492867  0.62908033  0.36704731  1.0
  Ga  Ga1271  1  0.30492867  0.96241367  0.36704731  1.0
  Ga  Ga1272  1  0.63826200  0.29574700  0.36704731  1.0
  Ga  Ga1273  1  0.63826200  0.62908033  0.36704731  1.0
  Ga  Ga1274  1  0.63826200  0.96241367  0.36704731  1.0
  Ga  Ga1275  1  0.97159533  0.29574700  0.36704731  1.0
  Ga  Ga1276  1  0.97159533  0.62908033  0.36704731  1.0
  Ga  Ga1277  1  0.97159533  0.96241367  0.36704731  1.0
  Ga  Ga1278  1  0.02840467  0.03758633  0.39629153  1.0
  Ga  Ga1279  1  0.02840467  0.37091967  0.39629153  1.0
  Ga  Ga1280  1  0.02840467  0.70425300  0.39629153  1.0
  Ga  Ga1281  1  0.36173800  0.03758633  0.39629153  1.0
  Ga  Ga1282  1  0.36173800  0.37091967  0.39629153  1.0
  Ga  Ga1283  1  0.36173800  0.70425300  0.39629153  1.0
  Ga  Ga1284  1  0.69507133  0.03758633  0.39629153  1.0
  Ga  Ga1285  1  0.69507133  0.37091967  0.39629153  1.0
  Ga  Ga1286  1  0.69507133  0.70425300  0.39629153  1.0
  Ga  Ga1287  1  0.19507133  0.03758633  0.34073597  1.0
  Ga  Ga1288  1  0.19507133  0.37091967  0.34073597  1.0
  Ga  Ga1289  1  0.19507133  0.70425300  0.34073597  1.0
  Ga  Ga1290  1  0.52840467  0.03758633  0.34073597  1.0
  Ga  Ga1291  1  0.52840467  0.37091967  0.34073597  1.0
  Ga  Ga1292  1  0.52840467  0.70425300  0.34073597  1.0
  Ga  Ga1293  1  0.86173800  0.03758633  0.34073597  1.0
  Ga  Ga1294  1  0.86173800  0.37091967  0.34073597  1.0
  Ga  Ga1295  1  0.86173800  0.70425300  0.34073597  1.0
  Ga  Ga1296  1  0.04865250  0.27755300  0.40716592  1.0
  Ga  Ga1297  1  0.04865250  0.61088633  0.40716592  1.0
  Ga  Ga1298  1  0.04865250  0.94421967  0.40716592  1.0
  Ga  Ga1299  1  0.38198583  0.27755300  0.40716592  1.0
  Ga  Ga1300  1  0.38198583  0.61088633  0.40716592  1.0
  Ga  Ga1301  1  0.38198583  0.94421967  0.40716592  1.0
  Ga  Ga1302  1  0.71531917  0.27755300  0.40716592  1.0
  Ga  Ga1303  1  0.71531917  0.61088633  0.40716592  1.0
  Ga  Ga1304  1  0.71531917  0.94421967  0.40716592  1.0
  Ga  Ga1305  1  0.21531917  0.27755300  0.35161036  1.0
  Ga  Ga1306  1  0.21531917  0.61088633  0.35161036  1.0
  Ga  Ga1307  1  0.21531917  0.94421967  0.35161036  1.0
  Ga  Ga1308  1  0.54865250  0.27755300  0.35161036  1.0
  Ga  Ga1309  1  0.54865250  0.61088633  0.35161036  1.0
  Ga  Ga1310  1  0.54865250  0.94421967  0.35161036  1.0
  Ga  Ga1311  1  0.88198583  0.27755300  0.35161036  1.0
  Ga  Ga1312  1  0.88198583  0.61088633  0.35161036  1.0
  Ga  Ga1313  1  0.88198583  0.94421967  0.35161036  1.0
  Ga  Ga1314  1  0.11801417  0.05578033  0.41172847  1.0
  Ga  Ga1315  1  0.11801417  0.38911367  0.41172847  1.0
  Ga  Ga1316  1  0.11801417  0.72244700  0.41172847  1.0
  Ga  Ga1317  1  0.45134750  0.05578033  0.41172847  1.0
  Ga  Ga1318  1  0.45134750  0.38911367  0.41172847  1.0
  Ga  Ga1319  1  0.45134750  0.72244700  0.41172847  1.0
  Ga  Ga1320  1  0.78468083  0.05578033  0.41172847  1.0
  Ga  Ga1321  1  0.78468083  0.38911367  0.41172847  1.0
  Ga  Ga1322  1  0.78468083  0.72244700  0.41172847  1.0
  Ga  Ga1323  1  0.28468083  0.05578033  0.35617292  1.0
  Ga  Ga1324  1  0.28468083  0.38911367  0.35617292  1.0
  Ga  Ga1325  1  0.28468083  0.72244700  0.35617292  1.0
  Ga  Ga1326  1  0.61801417  0.05578033  0.35617292  1.0
  Ga  Ga1327  1  0.61801417  0.38911367  0.35617292  1.0
  Ga  Ga1328  1  0.61801417  0.72244700  0.35617292  1.0
  Ga  Ga1329  1  0.95134750  0.05578033  0.35617292  1.0
  Ga  Ga1330  1  0.95134750  0.38911367  0.35617292  1.0
  Ga  Ga1331  1  0.95134750  0.72244700  0.35617292  1.0
  Ga  Ga1332  1  0.08333333  0.16666667  0.40944719  1.0
  Ga  Ga1333  1  0.08333333  0.50000000  0.40944719  1.0
  Ga  Ga1334  1  0.08333333  0.83333333  0.40944719  1.0
  Ga  Ga1335  1  0.41666667  0.16666667  0.40944719  1.0
  Ga  Ga1336  1  0.41666667  0.50000000  0.40944719  1.0
  Ga  Ga1337  1  0.41666667  0.83333333  0.40944719  1.0
  Ga  Ga1338  1  0.75000000  0.16666667  0.40944719  1.0
  Ga  Ga1339  1  0.75000000  0.50000000  0.40944719  1.0
  Ga  Ga1340  1  0.75000000  0.83333333  0.40944719  1.0
  Ga  Ga1341  1  0.25000000  0.16666667  0.35389164  1.0
  Ga  Ga1342  1  0.25000000  0.50000000  0.35389164  1.0
  Ga  Ga1343  1  0.25000000  0.83333333  0.35389164  1.0
  Ga  Ga1344  1  0.58333333  0.16666667  0.35389164  1.0
  Ga  Ga1345  1  0.58333333  0.50000000  0.35389164  1.0
  Ga  Ga1346  1  0.58333333  0.83333333  0.35389164  1.0
  Ga  Ga1347  1  0.91666667  0.16666667  0.35389164  1.0
  Ga  Ga1348  1  0.91666667  0.50000000  0.35389164  1.0
  Ga  Ga1349  1  0.91666667  0.83333333  0.35389164  1.0
  Ni  Ni1350  1  0.01086167  0.11302700  0.33567775  1.0
  Ni  Ni1351  1  0.01086167  0.44636033  0.33567775  1.0
  Ni  Ni1352  1  0.01086167  0.77969367  0.33567775  1.0
  Ni  Ni1353  1  0.34419500  0.11302700  0.33567775  1.0
  Ni  Ni1354  1  0.34419500  0.44636033  0.33567775  1.0
  Ni  Ni1355  1  0.34419500  0.77969367  0.33567775  1.0
  Ni  Ni1356  1  0.67752833  0.11302700  0.33567775  1.0
  Ni  Ni1357  1  0.67752833  0.44636033  0.33567775  1.0
  Ni  Ni1358  1  0.67752833  0.77969367  0.33567775  1.0
  Ni  Ni1359  1  0.17752833  0.11302700  0.39123331  1.0
  Ni  Ni1360  1  0.17752833  0.44636033  0.39123331  1.0
  Ni  Ni1361  1  0.17752833  0.77969367  0.39123331  1.0
  Ni  Ni1362  1  0.51086167  0.11302700  0.39123331  1.0
  Ni  Ni1363  1  0.51086167  0.44636033  0.39123331  1.0
  Ni  Ni1364  1  0.51086167  0.77969367  0.39123331  1.0
  Ni  Ni1365  1  0.84419500  0.11302700  0.39123331  1.0
  Ni  Ni1366  1  0.84419500  0.44636033  0.39123331  1.0
  Ni  Ni1367  1  0.84419500  0.77969367  0.39123331  1.0
  Ni  Ni1368  1  0.07629017  0.22030633  0.34560058  1.0
  Ni  Ni1369  1  0.07629017  0.55363967  0.34560058  1.0
  Ni  Ni1370  1  0.07629017  0.88697300  0.34560058  1.0
  Ni  Ni1371  1  0.40962350  0.22030633  0.34560058  1.0
  Ni  Ni1372  1  0.40962350  0.55363967  0.34560058  1.0
  Ni  Ni1373  1  0.40962350  0.88697300  0.34560058  1.0
  Ni  Ni1374  1  0.74295683  0.22030633  0.34560058  1.0
  Ni  Ni1375  1  0.74295683  0.55363967  0.34560058  1.0
  Ni  Ni1376  1  0.74295683  0.88697300  0.34560058  1.0
  Ni  Ni1377  1  0.24295683  0.22030633  0.40115614  1.0
  Ni  Ni1378  1  0.24295683  0.55363967  0.40115614  1.0
  Ni  Ni1379  1  0.24295683  0.88697300  0.40115614  1.0
  Ni  Ni1380  1  0.57629017  0.22030633  0.40115614  1.0
  Ni  Ni1381  1  0.57629017  0.55363967  0.40115614  1.0
  Ni  Ni1382  1  0.57629017  0.88697300  0.40115614  1.0
  Ni  Ni1383  1  0.90962350  0.22030633  0.40115614  1.0
  Ni  Ni1384  1  0.90962350  0.55363967  0.40115614  1.0
  Ni  Ni1385  1  0.90962350  0.88697300  0.40115614  1.0
  Ni  Ni1386  1  0.15580500  0.22030633  0.37210553  1.0
  Ni  Ni1387  1  0.15580500  0.55363967  0.37210553  1.0
  Ni  Ni1388  1  0.15580500  0.88697300  0.37210553  1.0
  Ni  Ni1389  1  0.48913833  0.22030633  0.37210553  1.0
  Ni  Ni1390  1  0.48913833  0.55363967  0.37210553  1.0
  Ni  Ni1391  1  0.48913833  0.88697300  0.37210553  1.0
  Ni  Ni1392  1  0.82247167  0.22030633  0.37210553  1.0
  Ni  Ni1393  1  0.82247167  0.55363967  0.37210553  1.0
  Ni  Ni1394  1  0.82247167  0.88697300  0.37210553  1.0
  Ni  Ni1395  1  0.32247167  0.22030633  0.42766108  1.0
  Ni  Ni1396  1  0.32247167  0.55363967  0.42766108  1.0
  Ni  Ni1397  1  0.32247167  0.88697300  0.42766108  1.0
  Ni  Ni1398  1  0.65580500  0.22030633  0.42766108  1.0
  Ni  Ni1399  1  0.65580500  0.55363967  0.42766108  1.0
  Ni  Ni1400  1  0.65580500  0.88697300  0.42766108  1.0
  Ni  Ni1401  1  0.98913833  0.22030633  0.42766108  1.0
  Ni  Ni1402  1  0.98913833  0.55363967  0.42766108  1.0
  Ni  Ni1403  1  0.98913833  0.88697300  0.42766108  1.0
  Ni  Ni1404  1  0.09037650  0.11302700  0.36218269  1.0
  Ni  Ni1405  1  0.09037650  0.44636033  0.36218269  1.0
  Ni  Ni1406  1  0.09037650  0.77969367  0.36218269  1.0
  Ni  Ni1407  1  0.42370983  0.11302700  0.36218269  1.0
  Ni  Ni1408  1  0.42370983  0.44636033  0.36218269  1.0
  Ni  Ni1409  1  0.42370983  0.77969367  0.36218269  1.0
  Ni  Ni1410  1  0.75704317  0.11302700  0.36218269  1.0
  Ni  Ni1411  1  0.75704317  0.44636033  0.36218269  1.0
  Ni  Ni1412  1  0.75704317  0.77969367  0.36218269  1.0
  Ni  Ni1413  1  0.25704317  0.11302700  0.41773825  1.0
  Ni  Ni1414  1  0.25704317  0.44636033  0.41773825  1.0
  Ni  Ni1415  1  0.25704317  0.77969367  0.41773825  1.0
  Ni  Ni1416  1  0.59037650  0.11302700  0.41773825  1.0
  Ni  Ni1417  1  0.59037650  0.44636033  0.41773825  1.0
  Ni  Ni1418  1  0.59037650  0.77969367  0.41773825  1.0
  Ni  Ni1419  1  0.92370983  0.11302700  0.41773825  1.0
  Ni  Ni1420  1  0.92370983  0.44636033  0.41773825  1.0
  Ni  Ni1421  1  0.92370983  0.77969367  0.41773825  1.0
  Ni  Ni1422  1  0.09181167  0.27374867  0.36527486  1.0
  Ni  Ni1423  1  0.09181167  0.60708200  0.36527486  1.0
  Ni  Ni1424  1  0.09181167  0.94041533  0.36527486  1.0
  Ni  Ni1425  1  0.42514500  0.27374867  0.36527486  1.0
  Ni  Ni1426  1  0.42514500  0.60708200  0.36527486  1.0
  Ni  Ni1427  1  0.42514500  0.94041533  0.36527486  1.0
  Ni  Ni1428  1  0.75847833  0.27374867  0.36527486  1.0
  Ni  Ni1429  1  0.75847833  0.60708200  0.36527486  1.0
  Ni  Ni1430  1  0.75847833  0.94041533  0.36527486  1.0
  Ni  Ni1431  1  0.25847833  0.27374867  0.42083042  1.0
  Ni  Ni1432  1  0.25847833  0.60708200  0.42083042  1.0
  Ni  Ni1433  1  0.25847833  0.94041533  0.42083042  1.0
  Ni  Ni1434  1  0.59181167  0.27374867  0.42083042  1.0
  Ni  Ni1435  1  0.59181167  0.60708200  0.42083042  1.0
  Ni  Ni1436  1  0.59181167  0.94041533  0.42083042  1.0
  Ni  Ni1437  1  0.92514500  0.27374867  0.42083042  1.0
  Ni  Ni1438  1  0.92514500  0.60708200  0.42083042  1.0
  Ni  Ni1439  1  0.92514500  0.94041533  0.42083042  1.0
  Ni  Ni1440  1  0.07485500  0.05958467  0.34250842  1.0
  Ni  Ni1441  1  0.07485500  0.39291800  0.34250842  1.0
  Ni  Ni1442  1  0.07485500  0.72625133  0.34250842  1.0
  Ni  Ni1443  1  0.40818833  0.05958467  0.34250842  1.0
  Ni  Ni1444  1  0.40818833  0.39291800  0.34250842  1.0
  Ni  Ni1445  1  0.40818833  0.72625133  0.34250842  1.0
  Ni  Ni1446  1  0.74152167  0.05958467  0.34250842  1.0
  Ni  Ni1447  1  0.74152167  0.39291800  0.34250842  1.0
  Ni  Ni1448  1  0.74152167  0.72625133  0.34250842  1.0
  Ni  Ni1449  1  0.24152167  0.05958467  0.39806397  1.0
  Ni  Ni1450  1  0.24152167  0.39291800  0.39806397  1.0
  Ni  Ni1451  1  0.24152167  0.72625133  0.39806397  1.0
  Ni  Ni1452  1  0.57485500  0.05958467  0.39806397  1.0
  Ni  Ni1453  1  0.57485500  0.39291800  0.39806397  1.0
  Ni  Ni1454  1  0.57485500  0.72625133  0.39806397  1.0
  Ni  Ni1455  1  0.90818833  0.05958467  0.39806397  1.0
  Ni  Ni1456  1  0.90818833  0.39291800  0.39806397  1.0
  Ni  Ni1457  1  0.90818833  0.72625133  0.39806397  1.0
  Ni  Ni1458  1  0.12363300  0.16254500  0.37052142  1.0
  Ni  Ni1459  1  0.12363300  0.49587833  0.37052142  1.0
  Ni  Ni1460  1  0.12363300  0.82921167  0.37052142  1.0
  Ni  Ni1461  1  0.45696633  0.16254500  0.37052142  1.0
  Ni  Ni1462  1  0.45696633  0.49587833  0.37052142  1.0
  Ni  Ni1463  1  0.45696633  0.82921167  0.37052142  1.0
  Ni  Ni1464  1  0.79029967  0.16254500  0.37052142  1.0
  Ni  Ni1465  1  0.79029967  0.49587833  0.37052142  1.0
  Ni  Ni1466  1  0.79029967  0.82921167  0.37052142  1.0
  Ni  Ni1467  1  0.29029967  0.16254500  0.42607697  1.0
  Ni  Ni1468  1  0.29029967  0.49587833  0.42607697  1.0
  Ni  Ni1469  1  0.29029967  0.82921167  0.42607697  1.0
  Ni  Ni1470  1  0.62363300  0.16254500  0.42607697  1.0
  Ni  Ni1471  1  0.62363300  0.49587833  0.42607697  1.0
  Ni  Ni1472  1  0.62363300  0.82921167  0.42607697  1.0
  Ni  Ni1473  1  0.95696633  0.16254500  0.42607697  1.0
  Ni  Ni1474  1  0.95696633  0.49587833  0.42607697  1.0
  Ni  Ni1475  1  0.95696633  0.82921167  0.42607697  1.0
  Ni  Ni1476  1  0.04303367  0.17078833  0.33726186  1.0
  Ni  Ni1477  1  0.04303367  0.50412167  0.33726186  1.0
  Ni  Ni1478  1  0.04303367  0.83745500  0.33726186  1.0
  Ni  Ni1479  1  0.37636700  0.17078833  0.33726186  1.0
  Ni  Ni1480  1  0.37636700  0.50412167  0.33726186  1.0
  Ni  Ni1481  1  0.37636700  0.83745500  0.33726186  1.0
  Ni  Ni1482  1  0.70970033  0.17078833  0.33726186  1.0
  Ni  Ni1483  1  0.70970033  0.50412167  0.33726186  1.0
  Ni  Ni1484  1  0.70970033  0.83745500  0.33726186  1.0
  Ni  Ni1485  1  0.20970033  0.17078833  0.39281742  1.0
  Ni  Ni1486  1  0.20970033  0.50412167  0.39281742  1.0
  Ni  Ni1487  1  0.20970033  0.83745500  0.39281742  1.0
  Ni  Ni1488  1  0.54303367  0.17078833  0.39281742  1.0
  Ni  Ni1489  1  0.54303367  0.50412167  0.39281742  1.0
  Ni  Ni1490  1  0.54303367  0.83745500  0.39281742  1.0
  Ni  Ni1491  1  0.87636700  0.17078833  0.39281742  1.0
  Ni  Ni1492  1  0.87636700  0.50412167  0.39281742  1.0
  Ni  Ni1493  1  0.87636700  0.83745500  0.39281742  1.0
  Ni  Ni1494  1  0.04331683  0.00000000  0.34055281  1.0
  Ni  Ni1495  1  0.04331683  0.33333333  0.34055281  1.0
  Ni  Ni1496  1  0.04331683  0.66666667  0.34055281  1.0
  Ni  Ni1497  1  0.37665017  0.00000000  0.34055281  1.0
  Ni  Ni1498  1  0.37665017  0.33333333  0.34055281  1.0
  Ni  Ni1499  1  0.37665017  0.66666667  0.34055281  1.0
  Ni  Ni1500  1  0.70998350  0.00000000  0.34055281  1.0
  Ni  Ni1501  1  0.70998350  0.33333333  0.34055281  1.0
  Ni  Ni1502  1  0.70998350  0.66666667  0.34055281  1.0
  Ni  Ni1503  1  0.20998350  0.00000000  0.39610836  1.0
  Ni  Ni1504  1  0.20998350  0.33333333  0.39610836  1.0
  Ni  Ni1505  1  0.20998350  0.66666667  0.39610836  1.0
  Ni  Ni1506  1  0.54331683  0.00000000  0.39610836  1.0
  Ni  Ni1507  1  0.54331683  0.33333333  0.39610836  1.0
  Ni  Ni1508  1  0.54331683  0.66666667  0.39610836  1.0
  Ni  Ni1509  1  0.87665017  0.00000000  0.39610836  1.0
  Ni  Ni1510  1  0.87665017  0.33333333  0.39610836  1.0
  Ni  Ni1511  1  0.87665017  0.66666667  0.39610836  1.0
  Ni  Ni1512  1  0.16666667  0.16666667  0.43722497  1.0
  Ni  Ni1513  1  0.16666667  0.50000000  0.43722497  1.0
  Ni  Ni1514  1  0.16666667  0.83333333  0.43722497  1.0
  Ni  Ni1515  1  0.50000000  0.16666667  0.43722497  1.0
  Ni  Ni1516  1  0.50000000  0.50000000  0.43722497  1.0
  Ni  Ni1517  1  0.50000000  0.83333333  0.43722497  1.0
  Ni  Ni1518  1  0.83333333  0.16666667  0.43722497  1.0
  Ni  Ni1519  1  0.83333333  0.50000000  0.43722497  1.0
  Ni  Ni1520  1  0.83333333  0.83333333  0.43722497  1.0
  Ni  Ni1521  1  0.00000000  0.16666667  0.38166942  1.0
  Ni  Ni1522  1  0.00000000  0.50000000  0.38166942  1.0
  Ni  Ni1523  1  0.00000000  0.83333333  0.38166942  1.0
  Ni  Ni1524  1  0.33333333  0.16666667  0.38166942  1.0
  Ni  Ni1525  1  0.33333333  0.50000000  0.38166942  1.0
  Ni  Ni1526  1  0.33333333  0.83333333  0.38166942  1.0
  Ni  Ni1527  1  0.66666667  0.16666667  0.38166942  1.0
  Ni  Ni1528  1  0.66666667  0.50000000  0.38166942  1.0
  Ni  Ni1529  1  0.66666667  0.83333333  0.38166942  1.0
  Ni  Ni1530  1  0.16666667  0.00000000  0.43722497  1.0
  Ni  Ni1531  1  0.16666667  0.33333333  0.43722497  1.0
  Ni  Ni1532  1  0.16666667  0.66666667  0.43722497  1.0
  Ni  Ni1533  1  0.50000000  0.00000000  0.43722497  1.0
  Ni  Ni1534  1  0.50000000  0.33333333  0.43722497  1.0
  Ni  Ni1535  1  0.50000000  0.66666667  0.43722497  1.0
  Ni  Ni1536  1  0.83333333  0.00000000  0.43722497  1.0
  Ni  Ni1537  1  0.83333333  0.33333333  0.43722497  1.0
  Ni  Ni1538  1  0.83333333  0.66666667  0.43722497  1.0
  Ni  Ni1539  1  0.00000000  0.00000000  0.38166942  1.0
  Ni  Ni1540  1  0.00000000  0.33333333  0.38166942  1.0
  Ni  Ni1541  1  0.00000000  0.66666667  0.38166942  1.0
  Ni  Ni1542  1  0.33333333  0.00000000  0.38166942  1.0
  Ni  Ni1543  1  0.33333333  0.33333333  0.38166942  1.0
  Ni  Ni1544  1  0.33333333  0.66666667  0.38166942  1.0
  Ni  Ni1545  1  0.66666667  0.00000000  0.38166942  1.0
  Ni  Ni1546  1  0.66666667  0.33333333  0.38166942  1.0
  Ni  Ni1547  1  0.66666667  0.66666667  0.38166942  1.0
  Ni  Ni1548  1  0.08333333  0.00000000  0.40944719  1.0
  Ni  Ni1549  1  0.08333333  0.33333333  0.40944719  1.0
  Ni  Ni1550  1  0.08333333  0.66666667  0.40944719  1.0
  Ni  Ni1551  1  0.41666667  0.00000000  0.40944719  1.0
  Ni  Ni1552  1  0.41666667  0.33333333  0.40944719  1.0
  Ni  Ni1553  1  0.41666667  0.66666667  0.40944719  1.0
  Ni  Ni1554  1  0.75000000  0.00000000  0.40944719  1.0
  Ni  Ni1555  1  0.75000000  0.33333333  0.40944719  1.0
  Ni  Ni1556  1  0.75000000  0.66666667  0.40944719  1.0
  Ni  Ni1557  1  0.25000000  0.00000000  0.35389164  1.0
  Ni  Ni1558  1  0.25000000  0.33333333  0.35389164  1.0
  Ni  Ni1559  1  0.25000000  0.66666667  0.35389164  1.0
  Ni  Ni1560  1  0.58333333  0.00000000  0.35389164  1.0
  Ni  Ni1561  1  0.58333333  0.33333333  0.35389164  1.0
  Ni  Ni1562  1  0.58333333  0.66666667  0.35389164  1.0
  Ni  Ni1563  1  0.91666667  0.00000000  0.35389164  1.0
  Ni  Ni1564  1  0.91666667  0.33333333  0.35389164  1.0
  Ni  Ni1565  1  0.91666667  0.66666667  0.35389164  1.0
  Ni  Ni1566  1  0.12334983  0.00000000  0.36723047  1.0
  Ni  Ni1567  1  0.12334983  0.33333333  0.36723047  1.0
  Ni  Ni1568  1  0.12334983  0.66666667  0.36723047  1.0
  Ni  Ni1569  1  0.45668317  0.00000000  0.36723047  1.0
  Ni  Ni1570  1  0.45668317  0.33333333  0.36723047  1.0
  Ni  Ni1571  1  0.45668317  0.66666667  0.36723047  1.0
  Ni  Ni1572  1  0.79001650  0.00000000  0.36723047  1.0
  Ni  Ni1573  1  0.79001650  0.33333333  0.36723047  1.0
  Ni  Ni1574  1  0.79001650  0.66666667  0.36723047  1.0
  Ni  Ni1575  1  0.29001650  0.00000000  0.42278603  1.0
  Ni  Ni1576  1  0.29001650  0.33333333  0.42278603  1.0
  Ni  Ni1577  1  0.29001650  0.66666667  0.42278603  1.0
  Ni  Ni1578  1  0.62334983  0.00000000  0.42278603  1.0
  Ni  Ni1579  1  0.62334983  0.33333333  0.42278603  1.0
  Ni  Ni1580  1  0.62334983  0.66666667  0.42278603  1.0
  Ni  Ni1581  1  0.95668317  0.00000000  0.42278603  1.0
  Ni  Ni1582  1  0.95668317  0.33333333  0.42278603  1.0
  Ni  Ni1583  1  0.95668317  0.66666667  0.42278603  1.0
