# generated using pymatgen
data_Ga9Ni13
_symmetry_space_group_name_H-M   'P 1'
_cell_length_a   23.70672600
_cell_length_b   38.12226974
_cell_length_c   63.53736120
_cell_angle_alpha   36.38921312
_cell_angle_beta   51.54806455
_cell_angle_gamma   71.88470550
_symmetry_Int_Tables_number   1
_chemical_formula_structural   Ga9Ni13
_chemical_formula_sum   'Ga324 Ni468'
_cell_volume   24354.30653680
_cell_formula_units_Z   36
loop_
 _symmetry_equiv_pos_site_id
 _symmetry_equiv_pos_as_xyz
  1  'x, y, z'
loop_
 _atom_site_type_symbol
 _atom_site_label
 _atom_site_symmetry_multiplicity
 _atom_site_fract_x
 _atom_site_fract_y
 _atom_site_fract_z
 _atom_site_occupancy
  Ga  Ga0  1  0.05714567  0.23034900  0.01786035  1.0
  Ga  Ga1  1  0.05714567  0.56368233  0.01786035  1.0
  Ga  Ga2  1  0.05714567  0.89701567  0.01786035  1.0
  Ga  Ga3  1  0.39047900  0.23034900  0.01786035  1.0
  Ga  Ga4  1  0.39047900  0.56368233  0.01786035  1.0
  Ga  Ga5  1  0.39047900  0.89701567  0.01786035  1.0
  Ga  Ga6  1  0.72381233  0.23034900  0.01786035  1.0
  Ga  Ga7  1  0.72381233  0.56368233  0.01786035  1.0
  Ga  Ga8  1  0.72381233  0.89701567  0.01786035  1.0
  Ga  Ga9  1  0.08311067  0.10298433  0.04049075  1.0
  Ga  Ga10  1  0.08311067  0.43631767  0.04049075  1.0
  Ga  Ga11  1  0.08311067  0.76965100  0.04049075  1.0
  Ga  Ga12  1  0.41644400  0.10298433  0.04049075  1.0
  Ga  Ga13  1  0.41644400  0.43631767  0.04049075  1.0
  Ga  Ga14  1  0.41644400  0.76965100  0.04049075  1.0
  Ga  Ga15  1  0.74977733  0.10298433  0.04049075  1.0
  Ga  Ga16  1  0.74977733  0.43631767  0.04049075  1.0
  Ga  Ga17  1  0.74977733  0.76965100  0.04049075  1.0
  Ga  Ga18  1  0.27618767  0.10298433  0.04049075  1.0
  Ga  Ga19  1  0.27618767  0.43631767  0.04049075  1.0
  Ga  Ga20  1  0.27618767  0.76965100  0.04049075  1.0
  Ga  Ga21  1  0.60952100  0.10298433  0.04049075  1.0
  Ga  Ga22  1  0.60952100  0.43631767  0.04049075  1.0
  Ga  Ga23  1  0.60952100  0.76965100  0.04049075  1.0
  Ga  Ga24  1  0.94285433  0.10298433  0.04049075  1.0
  Ga  Ga25  1  0.94285433  0.43631767  0.04049075  1.0
  Ga  Ga26  1  0.94285433  0.76965100  0.04049075  1.0
  Ga  Ga27  1  0.25022267  0.23034900  0.01786035  1.0
  Ga  Ga28  1  0.25022267  0.56368233  0.01786035  1.0
  Ga  Ga29  1  0.25022267  0.89701567  0.01786035  1.0
  Ga  Ga30  1  0.58355600  0.23034900  0.01786035  1.0
  Ga  Ga31  1  0.58355600  0.56368233  0.01786035  1.0
  Ga  Ga32  1  0.58355600  0.89701567  0.01786035  1.0
  Ga  Ga33  1  0.91688933  0.23034900  0.01786035  1.0
  Ga  Ga34  1  0.91688933  0.56368233  0.01786035  1.0
  Ga  Ga35  1  0.91688933  0.89701567  0.01786035  1.0
  Ga  Ga36  1  0.27652400  0.29574700  0.02453705  1.0
  Ga  Ga37  1  0.27652400  0.62908033  0.02453705  1.0
  Ga  Ga38  1  0.27652400  0.96241367  0.02453705  1.0
  Ga  Ga39  1  0.60985733  0.29574700  0.02453705  1.0
  Ga  Ga40  1  0.60985733  0.62908033  0.02453705  1.0
  Ga  Ga41  1  0.60985733  0.96241367  0.02453705  1.0
  Ga  Ga42  1  0.94319067  0.29574700  0.02453705  1.0
  Ga  Ga43  1  0.94319067  0.62908033  0.02453705  1.0
  Ga  Ga44  1  0.94319067  0.96241367  0.02453705  1.0
  Ga  Ga45  1  0.05680933  0.03758633  0.03381405  1.0
  Ga  Ga46  1  0.05680933  0.37091967  0.03381405  1.0
  Ga  Ga47  1  0.05680933  0.70425300  0.03381405  1.0
  Ga  Ga48  1  0.39014267  0.03758633  0.03381405  1.0
  Ga  Ga49  1  0.39014267  0.37091967  0.03381405  1.0
  Ga  Ga50  1  0.39014267  0.70425300  0.03381405  1.0
  Ga  Ga51  1  0.72347600  0.03758633  0.03381405  1.0
  Ga  Ga52  1  0.72347600  0.37091967  0.03381405  1.0
  Ga  Ga53  1  0.72347600  0.70425300  0.03381405  1.0
  Ga  Ga54  1  0.09730500  0.27755300  0.03752665  1.0
  Ga  Ga55  1  0.09730500  0.61088633  0.03752665  1.0
  Ga  Ga56  1  0.09730500  0.94421967  0.03752665  1.0
  Ga  Ga57  1  0.43063833  0.27755300  0.03752665  1.0
  Ga  Ga58  1  0.43063833  0.61088633  0.03752665  1.0
  Ga  Ga59  1  0.43063833  0.94421967  0.03752665  1.0
  Ga  Ga60  1  0.76397167  0.27755300  0.03752665  1.0
  Ga  Ga61  1  0.76397167  0.61088633  0.03752665  1.0
  Ga  Ga62  1  0.76397167  0.94421967  0.03752665  1.0
  Ga  Ga63  1  0.23602833  0.05578033  0.02082445  1.0
  Ga  Ga64  1  0.23602833  0.38911367  0.02082445  1.0
  Ga  Ga65  1  0.23602833  0.72244700  0.02082445  1.0
  Ga  Ga66  1  0.56936167  0.05578033  0.02082445  1.0
  Ga  Ga67  1  0.56936167  0.38911367  0.02082445  1.0
  Ga  Ga68  1  0.56936167  0.72244700  0.02082445  1.0
  Ga  Ga69  1  0.90269500  0.05578033  0.02082445  1.0
  Ga  Ga70  1  0.90269500  0.38911367  0.02082445  1.0
  Ga  Ga71  1  0.90269500  0.72244700  0.02082445  1.0
  Ga  Ga72  1  0.16666667  0.16666667  0.02917555  1.0
  Ga  Ga73  1  0.16666667  0.50000000  0.02917555  1.0
  Ga  Ga74  1  0.16666667  0.83333333  0.02917555  1.0
  Ga  Ga75  1  0.50000000  0.16666667  0.02917555  1.0
  Ga  Ga76  1  0.50000000  0.50000000  0.02917555  1.0
  Ga  Ga77  1  0.50000000  0.83333333  0.02917555  1.0
  Ga  Ga78  1  0.83333333  0.16666667  0.02917555  1.0
  Ga  Ga79  1  0.83333333  0.50000000  0.02917555  1.0
  Ga  Ga80  1  0.83333333  0.83333333  0.02917555  1.0
  Ni  Ni81  1  0.02172333  0.11302700  0.08452455  1.0
  Ni  Ni82  1  0.02172333  0.44636033  0.08452455  1.0
  Ni  Ni83  1  0.02172333  0.77969367  0.08452455  1.0
  Ni  Ni84  1  0.35505667  0.11302700  0.08452455  1.0
  Ni  Ni85  1  0.35505667  0.44636033  0.08452455  1.0
  Ni  Ni86  1  0.35505667  0.77969367  0.08452455  1.0
  Ni  Ni87  1  0.68839000  0.11302700  0.08452455  1.0
  Ni  Ni88  1  0.68839000  0.44636033  0.08452455  1.0
  Ni  Ni89  1  0.68839000  0.77969367  0.08452455  1.0
  Ni  Ni90  1  0.15258033  0.22030633  0.07382655  1.0
  Ni  Ni91  1  0.15258033  0.55363967  0.07382655  1.0
  Ni  Ni92  1  0.15258033  0.88697300  0.07382655  1.0
  Ni  Ni93  1  0.48591367  0.22030633  0.07382655  1.0
  Ni  Ni94  1  0.48591367  0.55363967  0.07382655  1.0
  Ni  Ni95  1  0.48591367  0.88697300  0.07382655  1.0
  Ni  Ni96  1  0.81924700  0.22030633  0.07382655  1.0
  Ni  Ni97  1  0.81924700  0.55363967  0.07382655  1.0
  Ni  Ni98  1  0.81924700  0.88697300  0.07382655  1.0
  Ni  Ni99  1  0.31161000  0.22030633  0.07382655  1.0
  Ni  Ni100  1  0.31161000  0.55363967  0.07382655  1.0
  Ni  Ni101  1  0.31161000  0.88697300  0.07382655  1.0
  Ni  Ni102  1  0.64494333  0.22030633  0.07382655  1.0
  Ni  Ni103  1  0.64494333  0.55363967  0.07382655  1.0
  Ni  Ni104  1  0.64494333  0.88697300  0.07382655  1.0
  Ni  Ni105  1  0.97827667  0.22030633  0.07382655  1.0
  Ni  Ni106  1  0.97827667  0.55363967  0.07382655  1.0
  Ni  Ni107  1  0.97827667  0.88697300  0.07382655  1.0
  Ni  Ni108  1  0.18075300  0.11302700  0.08452455  1.0
  Ni  Ni109  1  0.18075300  0.44636033  0.08452455  1.0
  Ni  Ni110  1  0.18075300  0.77969367  0.08452455  1.0
  Ni  Ni111  1  0.51408633  0.11302700  0.08452455  1.0
  Ni  Ni112  1  0.51408633  0.44636033  0.08452455  1.0
  Ni  Ni113  1  0.51408633  0.77969367  0.08452455  1.0
  Ni  Ni114  1  0.84741967  0.11302700  0.08452455  1.0
  Ni  Ni115  1  0.84741967  0.44636033  0.08452455  1.0
  Ni  Ni116  1  0.84741967  0.77969367  0.08452455  1.0
  Ni  Ni117  1  0.18362333  0.27374867  0.08687695  1.0
  Ni  Ni118  1  0.18362333  0.60708200  0.08687695  1.0
  Ni  Ni119  1  0.18362333  0.94041533  0.08687695  1.0
  Ni  Ni120  1  0.51695667  0.27374867  0.08687695  1.0
  Ni  Ni121  1  0.51695667  0.60708200  0.08687695  1.0
  Ni  Ni122  1  0.51695667  0.94041533  0.08687695  1.0
  Ni  Ni123  1  0.85029000  0.27374867  0.08687695  1.0
  Ni  Ni124  1  0.85029000  0.60708200  0.08687695  1.0
  Ni  Ni125  1  0.85029000  0.94041533  0.08687695  1.0
  Ni  Ni126  1  0.14971000  0.05958467  0.07147415  1.0
  Ni  Ni127  1  0.14971000  0.39291800  0.07147415  1.0
  Ni  Ni128  1  0.14971000  0.72625133  0.07147415  1.0
  Ni  Ni129  1  0.48304333  0.05958467  0.07147415  1.0
  Ni  Ni130  1  0.48304333  0.39291800  0.07147415  1.0
  Ni  Ni131  1  0.48304333  0.72625133  0.07147415  1.0
  Ni  Ni132  1  0.81637667  0.05958467  0.07147415  1.0
  Ni  Ni133  1  0.81637667  0.39291800  0.07147415  1.0
  Ni  Ni134  1  0.81637667  0.72625133  0.07147415  1.0
  Ni  Ni135  1  0.24726600  0.16254500  0.08205245  1.0
  Ni  Ni136  1  0.24726600  0.49587833  0.08205245  1.0
  Ni  Ni137  1  0.24726600  0.82921167  0.08205245  1.0
  Ni  Ni138  1  0.58059933  0.16254500  0.08205245  1.0
  Ni  Ni139  1  0.58059933  0.49587833  0.08205245  1.0
  Ni  Ni140  1  0.58059933  0.82921167  0.08205245  1.0
  Ni  Ni141  1  0.91393267  0.16254500  0.08205245  1.0
  Ni  Ni142  1  0.91393267  0.49587833  0.08205245  1.0
  Ni  Ni143  1  0.91393267  0.82921167  0.08205245  1.0
  Ni  Ni144  1  0.08606733  0.17078833  0.07629865  1.0
  Ni  Ni145  1  0.08606733  0.50412167  0.07629865  1.0
  Ni  Ni146  1  0.08606733  0.83745500  0.07629865  1.0
  Ni  Ni147  1  0.41940067  0.17078833  0.07629865  1.0
  Ni  Ni148  1  0.41940067  0.50412167  0.07629865  1.0
  Ni  Ni149  1  0.41940067  0.83745500  0.07629865  1.0
  Ni  Ni150  1  0.75273400  0.17078833  0.07629865  1.0
  Ni  Ni151  1  0.75273400  0.50412167  0.07629865  1.0
  Ni  Ni152  1  0.75273400  0.83745500  0.07629865  1.0
  Ni  Ni153  1  0.08663367  0.33333333  0.07917555  1.0
  Ni  Ni154  1  0.08663367  0.66666667  0.07917555  1.0
  Ni  Ni155  1  0.08663367  0.00000000  0.07917555  1.0
  Ni  Ni156  1  0.41996700  0.33333333  0.07917555  1.0
  Ni  Ni157  1  0.41996700  0.66666667  0.07917555  1.0
  Ni  Ni158  1  0.41996700  0.00000000  0.07917555  1.0
  Ni  Ni159  1  0.75330033  0.33333333  0.07917555  1.0
  Ni  Ni160  1  0.75330033  0.66666667  0.07917555  1.0
  Ni  Ni161  1  0.75330033  0.00000000  0.07917555  1.0
  Ni  Ni162  1  0.00000000  0.16666667  0.02917555  1.0
  Ni  Ni163  1  0.00000000  0.50000000  0.02917555  1.0
  Ni  Ni164  1  0.00000000  0.83333333  0.02917555  1.0
  Ni  Ni165  1  0.33333333  0.16666667  0.02917555  1.0
  Ni  Ni166  1  0.33333333  0.50000000  0.02917555  1.0
  Ni  Ni167  1  0.33333333  0.83333333  0.02917555  1.0
  Ni  Ni168  1  0.66666667  0.16666667  0.02917555  1.0
  Ni  Ni169  1  0.66666667  0.50000000  0.02917555  1.0
  Ni  Ni170  1  0.66666667  0.83333333  0.02917555  1.0
  Ni  Ni171  1  0.00000000  0.00000000  0.02917555  1.0
  Ni  Ni172  1  0.00000000  0.33333333  0.02917555  1.0
  Ni  Ni173  1  0.00000000  0.66666667  0.02917555  1.0
  Ni  Ni174  1  0.33333333  0.00000000  0.02917555  1.0
  Ni  Ni175  1  0.33333333  0.33333333  0.02917555  1.0
  Ni  Ni176  1  0.33333333  0.66666667  0.02917555  1.0
  Ni  Ni177  1  0.66666667  0.00000000  0.02917555  1.0
  Ni  Ni178  1  0.66666667  0.33333333  0.02917555  1.0
  Ni  Ni179  1  0.66666667  0.66666667  0.02917555  1.0
  Ni  Ni180  1  0.16666667  0.33333333  0.02917555  1.0
  Ni  Ni181  1  0.16666667  0.66666667  0.02917555  1.0
  Ni  Ni182  1  0.16666667  0.00000000  0.02917555  1.0
  Ni  Ni183  1  0.50000000  0.33333333  0.02917555  1.0
  Ni  Ni184  1  0.50000000  0.66666667  0.02917555  1.0
  Ni  Ni185  1  0.50000000  0.00000000  0.02917555  1.0
  Ni  Ni186  1  0.83333333  0.33333333  0.02917555  1.0
  Ni  Ni187  1  0.83333333  0.66666667  0.02917555  1.0
  Ni  Ni188  1  0.83333333  0.00000000  0.02917555  1.0
  Ni  Ni189  1  0.24669967  0.00000000  0.07917555  1.0
  Ni  Ni190  1  0.24669967  0.33333333  0.07917555  1.0
  Ni  Ni191  1  0.24669967  0.66666667  0.07917555  1.0
  Ni  Ni192  1  0.58003300  0.00000000  0.07917555  1.0
  Ni  Ni193  1  0.58003300  0.33333333  0.07917555  1.0
  Ni  Ni194  1  0.58003300  0.66666667  0.07917555  1.0
  Ni  Ni195  1  0.91336633  0.00000000  0.07917555  1.0
  Ni  Ni196  1  0.91336633  0.33333333  0.07917555  1.0
  Ni  Ni197  1  0.91336633  0.66666667  0.07917555  1.0
  Ga  Ga198  1  0.05714567  0.23034900  0.11786035  1.0
  Ga  Ga199  1  0.05714567  0.56368233  0.11786035  1.0
  Ga  Ga200  1  0.05714567  0.89701567  0.11786035  1.0
  Ga  Ga201  1  0.39047900  0.23034900  0.11786035  1.0
  Ga  Ga202  1  0.39047900  0.56368233  0.11786035  1.0
  Ga  Ga203  1  0.39047900  0.89701567  0.11786035  1.0
  Ga  Ga204  1  0.72381233  0.23034900  0.11786035  1.0
  Ga  Ga205  1  0.72381233  0.56368233  0.11786035  1.0
  Ga  Ga206  1  0.72381233  0.89701567  0.11786035  1.0
  Ga  Ga207  1  0.08311067  0.10298433  0.14049075  1.0
  Ga  Ga208  1  0.08311067  0.43631767  0.14049075  1.0
  Ga  Ga209  1  0.08311067  0.76965100  0.14049075  1.0
  Ga  Ga210  1  0.41644400  0.10298433  0.14049075  1.0
  Ga  Ga211  1  0.41644400  0.43631767  0.14049075  1.0
  Ga  Ga212  1  0.41644400  0.76965100  0.14049075  1.0
  Ga  Ga213  1  0.74977733  0.10298433  0.14049075  1.0
  Ga  Ga214  1  0.74977733  0.43631767  0.14049075  1.0
  Ga  Ga215  1  0.74977733  0.76965100  0.14049075  1.0
  Ga  Ga216  1  0.27618767  0.10298433  0.14049075  1.0
  Ga  Ga217  1  0.27618767  0.43631767  0.14049075  1.0
  Ga  Ga218  1  0.27618767  0.76965100  0.14049075  1.0
  Ga  Ga219  1  0.60952100  0.10298433  0.14049075  1.0
  Ga  Ga220  1  0.60952100  0.43631767  0.14049075  1.0
  Ga  Ga221  1  0.60952100  0.76965100  0.14049075  1.0
  Ga  Ga222  1  0.94285433  0.10298433  0.14049075  1.0
  Ga  Ga223  1  0.94285433  0.43631767  0.14049075  1.0
  Ga  Ga224  1  0.94285433  0.76965100  0.14049075  1.0
  Ga  Ga225  1  0.25022267  0.23034900  0.11786035  1.0
  Ga  Ga226  1  0.25022267  0.56368233  0.11786035  1.0
  Ga  Ga227  1  0.25022267  0.89701567  0.11786035  1.0
  Ga  Ga228  1  0.58355600  0.23034900  0.11786035  1.0
  Ga  Ga229  1  0.58355600  0.56368233  0.11786035  1.0
  Ga  Ga230  1  0.58355600  0.89701567  0.11786035  1.0
  Ga  Ga231  1  0.91688933  0.23034900  0.11786035  1.0
  Ga  Ga232  1  0.91688933  0.56368233  0.11786035  1.0
  Ga  Ga233  1  0.91688933  0.89701567  0.11786035  1.0
  Ga  Ga234  1  0.27652400  0.29574700  0.12453705  1.0
  Ga  Ga235  1  0.27652400  0.62908033  0.12453705  1.0
  Ga  Ga236  1  0.27652400  0.96241367  0.12453705  1.0
  Ga  Ga237  1  0.60985733  0.29574700  0.12453705  1.0
  Ga  Ga238  1  0.60985733  0.62908033  0.12453705  1.0
  Ga  Ga239  1  0.60985733  0.96241367  0.12453705  1.0
  Ga  Ga240  1  0.94319067  0.29574700  0.12453705  1.0
  Ga  Ga241  1  0.94319067  0.62908033  0.12453705  1.0
  Ga  Ga242  1  0.94319067  0.96241367  0.12453705  1.0
  Ga  Ga243  1  0.05680933  0.03758633  0.13381405  1.0
  Ga  Ga244  1  0.05680933  0.37091967  0.13381405  1.0
  Ga  Ga245  1  0.05680933  0.70425300  0.13381405  1.0
  Ga  Ga246  1  0.39014267  0.03758633  0.13381405  1.0
  Ga  Ga247  1  0.39014267  0.37091967  0.13381405  1.0
  Ga  Ga248  1  0.39014267  0.70425300  0.13381405  1.0
  Ga  Ga249  1  0.72347600  0.03758633  0.13381405  1.0
  Ga  Ga250  1  0.72347600  0.37091967  0.13381405  1.0
  Ga  Ga251  1  0.72347600  0.70425300  0.13381405  1.0
  Ga  Ga252  1  0.09730500  0.27755300  0.13752665  1.0
  Ga  Ga253  1  0.09730500  0.61088633  0.13752665  1.0
  Ga  Ga254  1  0.09730500  0.94421967  0.13752665  1.0
  Ga  Ga255  1  0.43063833  0.27755300  0.13752665  1.0
  Ga  Ga256  1  0.43063833  0.61088633  0.13752665  1.0
  Ga  Ga257  1  0.43063833  0.94421967  0.13752665  1.0
  Ga  Ga258  1  0.76397167  0.27755300  0.13752665  1.0
  Ga  Ga259  1  0.76397167  0.61088633  0.13752665  1.0
  Ga  Ga260  1  0.76397167  0.94421967  0.13752665  1.0
  Ga  Ga261  1  0.23602833  0.05578033  0.12082445  1.0
  Ga  Ga262  1  0.23602833  0.38911367  0.12082445  1.0
  Ga  Ga263  1  0.23602833  0.72244700  0.12082445  1.0
  Ga  Ga264  1  0.56936167  0.05578033  0.12082445  1.0
  Ga  Ga265  1  0.56936167  0.38911367  0.12082445  1.0
  Ga  Ga266  1  0.56936167  0.72244700  0.12082445  1.0
  Ga  Ga267  1  0.90269500  0.05578033  0.12082445  1.0
  Ga  Ga268  1  0.90269500  0.38911367  0.12082445  1.0
  Ga  Ga269  1  0.90269500  0.72244700  0.12082445  1.0
  Ga  Ga270  1  0.16666667  0.16666667  0.12917555  1.0
  Ga  Ga271  1  0.16666667  0.50000000  0.12917555  1.0
  Ga  Ga272  1  0.16666667  0.83333333  0.12917555  1.0
  Ga  Ga273  1  0.50000000  0.16666667  0.12917555  1.0
  Ga  Ga274  1  0.50000000  0.50000000  0.12917555  1.0
  Ga  Ga275  1  0.50000000  0.83333333  0.12917555  1.0
  Ga  Ga276  1  0.83333333  0.16666667  0.12917555  1.0
  Ga  Ga277  1  0.83333333  0.50000000  0.12917555  1.0
  Ga  Ga278  1  0.83333333  0.83333333  0.12917555  1.0
  Ni  Ni279  1  0.02172333  0.11302700  0.18452455  1.0
  Ni  Ni280  1  0.02172333  0.44636033  0.18452455  1.0
  Ni  Ni281  1  0.02172333  0.77969367  0.18452455  1.0
  Ni  Ni282  1  0.35505667  0.11302700  0.18452455  1.0
  Ni  Ni283  1  0.35505667  0.44636033  0.18452455  1.0
  Ni  Ni284  1  0.35505667  0.77969367  0.18452455  1.0
  Ni  Ni285  1  0.68839000  0.11302700  0.18452455  1.0
  Ni  Ni286  1  0.68839000  0.44636033  0.18452455  1.0
  Ni  Ni287  1  0.68839000  0.77969367  0.18452455  1.0
  Ni  Ni288  1  0.15258033  0.22030633  0.17382655  1.0
  Ni  Ni289  1  0.15258033  0.55363967  0.17382655  1.0
  Ni  Ni290  1  0.15258033  0.88697300  0.17382655  1.0
  Ni  Ni291  1  0.48591367  0.22030633  0.17382655  1.0
  Ni  Ni292  1  0.48591367  0.55363967  0.17382655  1.0
  Ni  Ni293  1  0.48591367  0.88697300  0.17382655  1.0
  Ni  Ni294  1  0.81924700  0.22030633  0.17382655  1.0
  Ni  Ni295  1  0.81924700  0.55363967  0.17382655  1.0
  Ni  Ni296  1  0.81924700  0.88697300  0.17382655  1.0
  Ni  Ni297  1  0.31161000  0.22030633  0.17382655  1.0
  Ni  Ni298  1  0.31161000  0.55363967  0.17382655  1.0
  Ni  Ni299  1  0.31161000  0.88697300  0.17382655  1.0
  Ni  Ni300  1  0.64494333  0.22030633  0.17382655  1.0
  Ni  Ni301  1  0.64494333  0.55363967  0.17382655  1.0
  Ni  Ni302  1  0.64494333  0.88697300  0.17382655  1.0
  Ni  Ni303  1  0.97827667  0.22030633  0.17382655  1.0
  Ni  Ni304  1  0.97827667  0.55363967  0.17382655  1.0
  Ni  Ni305  1  0.97827667  0.88697300  0.17382655  1.0
  Ni  Ni306  1  0.18075300  0.11302700  0.18452455  1.0
  Ni  Ni307  1  0.18075300  0.44636033  0.18452455  1.0
  Ni  Ni308  1  0.18075300  0.77969367  0.18452455  1.0
  Ni  Ni309  1  0.51408633  0.11302700  0.18452455  1.0
  Ni  Ni310  1  0.51408633  0.44636033  0.18452455  1.0
  Ni  Ni311  1  0.51408633  0.77969367  0.18452455  1.0
  Ni  Ni312  1  0.84741967  0.11302700  0.18452455  1.0
  Ni  Ni313  1  0.84741967  0.44636033  0.18452455  1.0
  Ni  Ni314  1  0.84741967  0.77969367  0.18452455  1.0
  Ni  Ni315  1  0.18362333  0.27374867  0.18687695  1.0
  Ni  Ni316  1  0.18362333  0.60708200  0.18687695  1.0
  Ni  Ni317  1  0.18362333  0.94041533  0.18687695  1.0
  Ni  Ni318  1  0.51695667  0.27374867  0.18687695  1.0
  Ni  Ni319  1  0.51695667  0.60708200  0.18687695  1.0
  Ni  Ni320  1  0.51695667  0.94041533  0.18687695  1.0
  Ni  Ni321  1  0.85029000  0.27374867  0.18687695  1.0
  Ni  Ni322  1  0.85029000  0.60708200  0.18687695  1.0
  Ni  Ni323  1  0.85029000  0.94041533  0.18687695  1.0
  Ni  Ni324  1  0.14971000  0.05958467  0.17147415  1.0
  Ni  Ni325  1  0.14971000  0.39291800  0.17147415  1.0
  Ni  Ni326  1  0.14971000  0.72625133  0.17147415  1.0
  Ni  Ni327  1  0.48304333  0.05958467  0.17147415  1.0
  Ni  Ni328  1  0.48304333  0.39291800  0.17147415  1.0
  Ni  Ni329  1  0.48304333  0.72625133  0.17147415  1.0
  Ni  Ni330  1  0.81637667  0.05958467  0.17147415  1.0
  Ni  Ni331  1  0.81637667  0.39291800  0.17147415  1.0
  Ni  Ni332  1  0.81637667  0.72625133  0.17147415  1.0
  Ni  Ni333  1  0.24726600  0.16254500  0.18205245  1.0
  Ni  Ni334  1  0.24726600  0.49587833  0.18205245  1.0
  Ni  Ni335  1  0.24726600  0.82921167  0.18205245  1.0
  Ni  Ni336  1  0.58059933  0.16254500  0.18205245  1.0
  Ni  Ni337  1  0.58059933  0.49587833  0.18205245  1.0
  Ni  Ni338  1  0.58059933  0.82921167  0.18205245  1.0
  Ni  Ni339  1  0.91393267  0.16254500  0.18205245  1.0
  Ni  Ni340  1  0.91393267  0.49587833  0.18205245  1.0
  Ni  Ni341  1  0.91393267  0.82921167  0.18205245  1.0
  Ni  Ni342  1  0.08606733  0.17078833  0.17629865  1.0
  Ni  Ni343  1  0.08606733  0.50412167  0.17629865  1.0
  Ni  Ni344  1  0.08606733  0.83745500  0.17629865  1.0
  Ni  Ni345  1  0.41940067  0.17078833  0.17629865  1.0
  Ni  Ni346  1  0.41940067  0.50412167  0.17629865  1.0
  Ni  Ni347  1  0.41940067  0.83745500  0.17629865  1.0
  Ni  Ni348  1  0.75273400  0.17078833  0.17629865  1.0
  Ni  Ni349  1  0.75273400  0.50412167  0.17629865  1.0
  Ni  Ni350  1  0.75273400  0.83745500  0.17629865  1.0
  Ni  Ni351  1  0.08663367  0.33333333  0.17917555  1.0
  Ni  Ni352  1  0.08663367  0.66666667  0.17917555  1.0
  Ni  Ni353  1  0.08663367  0.00000000  0.17917555  1.0
  Ni  Ni354  1  0.41996700  0.33333333  0.17917555  1.0
  Ni  Ni355  1  0.41996700  0.66666667  0.17917555  1.0
  Ni  Ni356  1  0.41996700  0.00000000  0.17917555  1.0
  Ni  Ni357  1  0.75330033  0.33333333  0.17917555  1.0
  Ni  Ni358  1  0.75330033  0.66666667  0.17917555  1.0
  Ni  Ni359  1  0.75330033  0.00000000  0.17917555  1.0
  Ni  Ni360  1  0.00000000  0.16666667  0.12917555  1.0
  Ni  Ni361  1  0.00000000  0.50000000  0.12917555  1.0
  Ni  Ni362  1  0.00000000  0.83333333  0.12917555  1.0
  Ni  Ni363  1  0.33333333  0.16666667  0.12917555  1.0
  Ni  Ni364  1  0.33333333  0.50000000  0.12917555  1.0
  Ni  Ni365  1  0.33333333  0.83333333  0.12917555  1.0
  Ni  Ni366  1  0.66666667  0.16666667  0.12917555  1.0
  Ni  Ni367  1  0.66666667  0.50000000  0.12917555  1.0
  Ni  Ni368  1  0.66666667  0.83333333  0.12917555  1.0
  Ni  Ni369  1  0.00000000  0.00000000  0.12917555  1.0
  Ni  Ni370  1  0.00000000  0.33333333  0.12917555  1.0
  Ni  Ni371  1  0.00000000  0.66666667  0.12917555  1.0
  Ni  Ni372  1  0.33333333  0.00000000  0.12917555  1.0
  Ni  Ni373  1  0.33333333  0.33333333  0.12917555  1.0
  Ni  Ni374  1  0.33333333  0.66666667  0.12917555  1.0
  Ni  Ni375  1  0.66666667  0.00000000  0.12917555  1.0
  Ni  Ni376  1  0.66666667  0.33333333  0.12917555  1.0
  Ni  Ni377  1  0.66666667  0.66666667  0.12917555  1.0
  Ni  Ni378  1  0.16666667  0.33333333  0.12917555  1.0
  Ni  Ni379  1  0.16666667  0.66666667  0.12917555  1.0
  Ni  Ni380  1  0.16666667  0.00000000  0.12917555  1.0
  Ni  Ni381  1  0.50000000  0.33333333  0.12917555  1.0
  Ni  Ni382  1  0.50000000  0.66666667  0.12917555  1.0
  Ni  Ni383  1  0.50000000  0.00000000  0.12917555  1.0
  Ni  Ni384  1  0.83333333  0.33333333  0.12917555  1.0
  Ni  Ni385  1  0.83333333  0.66666667  0.12917555  1.0
  Ni  Ni386  1  0.83333333  0.00000000  0.12917555  1.0
  Ni  Ni387  1  0.24669967  0.00000000  0.17917555  1.0
  Ni  Ni388  1  0.24669967  0.33333333  0.17917555  1.0
  Ni  Ni389  1  0.24669967  0.66666667  0.17917555  1.0
  Ni  Ni390  1  0.58003300  0.00000000  0.17917555  1.0
  Ni  Ni391  1  0.58003300  0.33333333  0.17917555  1.0
  Ni  Ni392  1  0.58003300  0.66666667  0.17917555  1.0
  Ni  Ni393  1  0.91336633  0.00000000  0.17917555  1.0
  Ni  Ni394  1  0.91336633  0.33333333  0.17917555  1.0
  Ni  Ni395  1  0.91336633  0.66666667  0.17917555  1.0
  Ga  Ga396  1  0.05714567  0.23034900  0.21786035  1.0
  Ga  Ga397  1  0.05714567  0.56368233  0.21786035  1.0
  Ga  Ga398  1  0.05714567  0.89701567  0.21786035  1.0
  Ga  Ga399  1  0.39047900  0.23034900  0.21786035  1.0
  Ga  Ga400  1  0.39047900  0.56368233  0.21786035  1.0
  Ga  Ga401  1  0.39047900  0.89701567  0.21786035  1.0
  Ga  Ga402  1  0.72381233  0.23034900  0.21786035  1.0
  Ga  Ga403  1  0.72381233  0.56368233  0.21786035  1.0
  Ga  Ga404  1  0.72381233  0.89701567  0.21786035  1.0
  Ga  Ga405  1  0.08311067  0.10298433  0.24049075  1.0
  Ga  Ga406  1  0.08311067  0.43631767  0.24049075  1.0
  Ga  Ga407  1  0.08311067  0.76965100  0.24049075  1.0
  Ga  Ga408  1  0.41644400  0.10298433  0.24049075  1.0
  Ga  Ga409  1  0.41644400  0.43631767  0.24049075  1.0
  Ga  Ga410  1  0.41644400  0.76965100  0.24049075  1.0
  Ga  Ga411  1  0.74977733  0.10298433  0.24049075  1.0
  Ga  Ga412  1  0.74977733  0.43631767  0.24049075  1.0
  Ga  Ga413  1  0.74977733  0.76965100  0.24049075  1.0
  Ga  Ga414  1  0.27618767  0.10298433  0.24049075  1.0
  Ga  Ga415  1  0.27618767  0.43631767  0.24049075  1.0
  Ga  Ga416  1  0.27618767  0.76965100  0.24049075  1.0
  Ga  Ga417  1  0.60952100  0.10298433  0.24049075  1.0
  Ga  Ga418  1  0.60952100  0.43631767  0.24049075  1.0
  Ga  Ga419  1  0.60952100  0.76965100  0.24049075  1.0
  Ga  Ga420  1  0.94285433  0.10298433  0.24049075  1.0
  Ga  Ga421  1  0.94285433  0.43631767  0.24049075  1.0
  Ga  Ga422  1  0.94285433  0.76965100  0.24049075  1.0
  Ga  Ga423  1  0.25022267  0.23034900  0.21786035  1.0
  Ga  Ga424  1  0.25022267  0.56368233  0.21786035  1.0
  Ga  Ga425  1  0.25022267  0.89701567  0.21786035  1.0
  Ga  Ga426  1  0.58355600  0.23034900  0.21786035  1.0
  Ga  Ga427  1  0.58355600  0.56368233  0.21786035  1.0
  Ga  Ga428  1  0.58355600  0.89701567  0.21786035  1.0
  Ga  Ga429  1  0.91688933  0.23034900  0.21786035  1.0
  Ga  Ga430  1  0.91688933  0.56368233  0.21786035  1.0
  Ga  Ga431  1  0.91688933  0.89701567  0.21786035  1.0
  Ga  Ga432  1  0.27652400  0.29574700  0.22453705  1.0
  Ga  Ga433  1  0.27652400  0.62908033  0.22453705  1.0
  Ga  Ga434  1  0.27652400  0.96241367  0.22453705  1.0
  Ga  Ga435  1  0.60985733  0.29574700  0.22453705  1.0
  Ga  Ga436  1  0.60985733  0.62908033  0.22453705  1.0
  Ga  Ga437  1  0.60985733  0.96241367  0.22453705  1.0
  Ga  Ga438  1  0.94319067  0.29574700  0.22453705  1.0
  Ga  Ga439  1  0.94319067  0.62908033  0.22453705  1.0
  Ga  Ga440  1  0.94319067  0.96241367  0.22453705  1.0
  Ga  Ga441  1  0.05680933  0.03758633  0.23381405  1.0
  Ga  Ga442  1  0.05680933  0.37091967  0.23381405  1.0
  Ga  Ga443  1  0.05680933  0.70425300  0.23381405  1.0
  Ga  Ga444  1  0.39014267  0.03758633  0.23381405  1.0
  Ga  Ga445  1  0.39014267  0.37091967  0.23381405  1.0
  Ga  Ga446  1  0.39014267  0.70425300  0.23381405  1.0
  Ga  Ga447  1  0.72347600  0.03758633  0.23381405  1.0
  Ga  Ga448  1  0.72347600  0.37091967  0.23381405  1.0
  Ga  Ga449  1  0.72347600  0.70425300  0.23381405  1.0
  Ga  Ga450  1  0.09730500  0.27755300  0.23752665  1.0
  Ga  Ga451  1  0.09730500  0.61088633  0.23752665  1.0
  Ga  Ga452  1  0.09730500  0.94421967  0.23752665  1.0
  Ga  Ga453  1  0.43063833  0.27755300  0.23752665  1.0
  Ga  Ga454  1  0.43063833  0.61088633  0.23752665  1.0
  Ga  Ga455  1  0.43063833  0.94421967  0.23752665  1.0
  Ga  Ga456  1  0.76397167  0.27755300  0.23752665  1.0
  Ga  Ga457  1  0.76397167  0.61088633  0.23752665  1.0
  Ga  Ga458  1  0.76397167  0.94421967  0.23752665  1.0
  Ga  Ga459  1  0.23602833  0.05578033  0.22082445  1.0
  Ga  Ga460  1  0.23602833  0.38911367  0.22082445  1.0
  Ga  Ga461  1  0.23602833  0.72244700  0.22082445  1.0
  Ga  Ga462  1  0.56936167  0.05578033  0.22082445  1.0
  Ga  Ga463  1  0.56936167  0.38911367  0.22082445  1.0
  Ga  Ga464  1  0.56936167  0.72244700  0.22082445  1.0
  Ga  Ga465  1  0.90269500  0.05578033  0.22082445  1.0
  Ga  Ga466  1  0.90269500  0.38911367  0.22082445  1.0
  Ga  Ga467  1  0.90269500  0.72244700  0.22082445  1.0
  Ga  Ga468  1  0.16666667  0.16666667  0.22917555  1.0
  Ga  Ga469  1  0.16666667  0.50000000  0.22917555  1.0
  Ga  Ga470  1  0.16666667  0.83333333  0.22917555  1.0
  Ga  Ga471  1  0.50000000  0.16666667  0.22917555  1.0
  Ga  Ga472  1  0.50000000  0.50000000  0.22917555  1.0
  Ga  Ga473  1  0.50000000  0.83333333  0.22917555  1.0
  Ga  Ga474  1  0.83333333  0.16666667  0.22917555  1.0
  Ga  Ga475  1  0.83333333  0.50000000  0.22917555  1.0
  Ga  Ga476  1  0.83333333  0.83333333  0.22917555  1.0
  Ni  Ni477  1  0.02172333  0.11302700  0.28452455  1.0
  Ni  Ni478  1  0.02172333  0.44636033  0.28452455  1.0
  Ni  Ni479  1  0.02172333  0.77969367  0.28452455  1.0
  Ni  Ni480  1  0.35505667  0.11302700  0.28452455  1.0
  Ni  Ni481  1  0.35505667  0.44636033  0.28452455  1.0
  Ni  Ni482  1  0.35505667  0.77969367  0.28452455  1.0
  Ni  Ni483  1  0.68839000  0.11302700  0.28452455  1.0
  Ni  Ni484  1  0.68839000  0.44636033  0.28452455  1.0
  Ni  Ni485  1  0.68839000  0.77969367  0.28452455  1.0
  Ni  Ni486  1  0.15258033  0.22030633  0.27382655  1.0
  Ni  Ni487  1  0.15258033  0.55363967  0.27382655  1.0
  Ni  Ni488  1  0.15258033  0.88697300  0.27382655  1.0
  Ni  Ni489  1  0.48591367  0.22030633  0.27382655  1.0
  Ni  Ni490  1  0.48591367  0.55363967  0.27382655  1.0
  Ni  Ni491  1  0.48591367  0.88697300  0.27382655  1.0
  Ni  Ni492  1  0.81924700  0.22030633  0.27382655  1.0
  Ni  Ni493  1  0.81924700  0.55363967  0.27382655  1.0
  Ni  Ni494  1  0.81924700  0.88697300  0.27382655  1.0
  Ni  Ni495  1  0.31161000  0.22030633  0.27382655  1.0
  Ni  Ni496  1  0.31161000  0.55363967  0.27382655  1.0
  Ni  Ni497  1  0.31161000  0.88697300  0.27382655  1.0
  Ni  Ni498  1  0.64494333  0.22030633  0.27382655  1.0
  Ni  Ni499  1  0.64494333  0.55363967  0.27382655  1.0
  Ni  Ni500  1  0.64494333  0.88697300  0.27382655  1.0
  Ni  Ni501  1  0.97827667  0.22030633  0.27382655  1.0
  Ni  Ni502  1  0.97827667  0.55363967  0.27382655  1.0
  Ni  Ni503  1  0.97827667  0.88697300  0.27382655  1.0
  Ni  Ni504  1  0.18075300  0.11302700  0.28452455  1.0
  Ni  Ni505  1  0.18075300  0.44636033  0.28452455  1.0
  Ni  Ni506  1  0.18075300  0.77969367  0.28452455  1.0
  Ni  Ni507  1  0.51408633  0.11302700  0.28452455  1.0
  Ni  Ni508  1  0.51408633  0.44636033  0.28452455  1.0
  Ni  Ni509  1  0.51408633  0.77969367  0.28452455  1.0
  Ni  Ni510  1  0.84741967  0.11302700  0.28452455  1.0
  Ni  Ni511  1  0.84741967  0.44636033  0.28452455  1.0
  Ni  Ni512  1  0.84741967  0.77969367  0.28452455  1.0
  Ni  Ni513  1  0.18362333  0.27374867  0.28687695  1.0
  Ni  Ni514  1  0.18362333  0.60708200  0.28687695  1.0
  Ni  Ni515  1  0.18362333  0.94041533  0.28687695  1.0
  Ni  Ni516  1  0.51695667  0.27374867  0.28687695  1.0
  Ni  Ni517  1  0.51695667  0.60708200  0.28687695  1.0
  Ni  Ni518  1  0.51695667  0.94041533  0.28687695  1.0
  Ni  Ni519  1  0.85029000  0.27374867  0.28687695  1.0
  Ni  Ni520  1  0.85029000  0.60708200  0.28687695  1.0
  Ni  Ni521  1  0.85029000  0.94041533  0.28687695  1.0
  Ni  Ni522  1  0.14971000  0.05958467  0.27147415  1.0
  Ni  Ni523  1  0.14971000  0.39291800  0.27147415  1.0
  Ni  Ni524  1  0.14971000  0.72625133  0.27147415  1.0
  Ni  Ni525  1  0.48304333  0.05958467  0.27147415  1.0
  Ni  Ni526  1  0.48304333  0.39291800  0.27147415  1.0
  Ni  Ni527  1  0.48304333  0.72625133  0.27147415  1.0
  Ni  Ni528  1  0.81637667  0.05958467  0.27147415  1.0
  Ni  Ni529  1  0.81637667  0.39291800  0.27147415  1.0
  Ni  Ni530  1  0.81637667  0.72625133  0.27147415  1.0
  Ni  Ni531  1  0.24726600  0.16254500  0.28205245  1.0
  Ni  Ni532  1  0.24726600  0.49587833  0.28205245  1.0
  Ni  Ni533  1  0.24726600  0.82921167  0.28205245  1.0
  Ni  Ni534  1  0.58059933  0.16254500  0.28205245  1.0
  Ni  Ni535  1  0.58059933  0.49587833  0.28205245  1.0
  Ni  Ni536  1  0.58059933  0.82921167  0.28205245  1.0
  Ni  Ni537  1  0.91393267  0.16254500  0.28205245  1.0
  Ni  Ni538  1  0.91393267  0.49587833  0.28205245  1.0
  Ni  Ni539  1  0.91393267  0.82921167  0.28205245  1.0
  Ni  Ni540  1  0.08606733  0.17078833  0.27629865  1.0
  Ni  Ni541  1  0.08606733  0.50412167  0.27629865  1.0
  Ni  Ni542  1  0.08606733  0.83745500  0.27629865  1.0
  Ni  Ni543  1  0.41940067  0.17078833  0.27629865  1.0
  Ni  Ni544  1  0.41940067  0.50412167  0.27629865  1.0
  Ni  Ni545  1  0.41940067  0.83745500  0.27629865  1.0
  Ni  Ni546  1  0.75273400  0.17078833  0.27629865  1.0
  Ni  Ni547  1  0.75273400  0.50412167  0.27629865  1.0
  Ni  Ni548  1  0.75273400  0.83745500  0.27629865  1.0
  Ni  Ni549  1  0.08663367  0.33333333  0.27917555  1.0
  Ni  Ni550  1  0.08663367  0.66666667  0.27917555  1.0
  Ni  Ni551  1  0.08663367  0.00000000  0.27917555  1.0
  Ni  Ni552  1  0.41996700  0.33333333  0.27917555  1.0
  Ni  Ni553  1  0.41996700  0.66666667  0.27917555  1.0
  Ni  Ni554  1  0.41996700  0.00000000  0.27917555  1.0
  Ni  Ni555  1  0.75330033  0.33333333  0.27917555  1.0
  Ni  Ni556  1  0.75330033  0.66666667  0.27917555  1.0
  Ni  Ni557  1  0.75330033  0.00000000  0.27917555  1.0
  Ni  Ni558  1  0.00000000  0.16666667  0.22917555  1.0
  Ni  Ni559  1  0.00000000  0.50000000  0.22917555  1.0
  Ni  Ni560  1  0.00000000  0.83333333  0.22917555  1.0
  Ni  Ni561  1  0.33333333  0.16666667  0.22917555  1.0
  Ni  Ni562  1  0.33333333  0.50000000  0.22917555  1.0
  Ni  Ni563  1  0.33333333  0.83333333  0.22917555  1.0
  Ni  Ni564  1  0.66666667  0.16666667  0.22917555  1.0
  Ni  Ni565  1  0.66666667  0.50000000  0.22917555  1.0
  Ni  Ni566  1  0.66666667  0.83333333  0.22917555  1.0
  Ni  Ni567  1  0.00000000  0.00000000  0.22917555  1.0
  Ni  Ni568  1  0.00000000  0.33333333  0.22917555  1.0
  Ni  Ni569  1  0.00000000  0.66666667  0.22917555  1.0
  Ni  Ni570  1  0.33333333  0.00000000  0.22917555  1.0
  Ni  Ni571  1  0.33333333  0.33333333  0.22917555  1.0
  Ni  Ni572  1  0.33333333  0.66666667  0.22917555  1.0
  Ni  Ni573  1  0.66666667  0.00000000  0.22917555  1.0
  Ni  Ni574  1  0.66666667  0.33333333  0.22917555  1.0
  Ni  Ni575  1  0.66666667  0.66666667  0.22917555  1.0
  Ni  Ni576  1  0.16666667  0.33333333  0.22917555  1.0
  Ni  Ni577  1  0.16666667  0.66666667  0.22917555  1.0
  Ni  Ni578  1  0.16666667  0.00000000  0.22917555  1.0
  Ni  Ni579  1  0.50000000  0.33333333  0.22917555  1.0
  Ni  Ni580  1  0.50000000  0.66666667  0.22917555  1.0
  Ni  Ni581  1  0.50000000  0.00000000  0.22917555  1.0
  Ni  Ni582  1  0.83333333  0.33333333  0.22917555  1.0
  Ni  Ni583  1  0.83333333  0.66666667  0.22917555  1.0
  Ni  Ni584  1  0.83333333  0.00000000  0.22917555  1.0
  Ni  Ni585  1  0.24669967  0.00000000  0.27917555  1.0
  Ni  Ni586  1  0.24669967  0.33333333  0.27917555  1.0
  Ni  Ni587  1  0.24669967  0.66666667  0.27917555  1.0
  Ni  Ni588  1  0.58003300  0.00000000  0.27917555  1.0
  Ni  Ni589  1  0.58003300  0.33333333  0.27917555  1.0
  Ni  Ni590  1  0.58003300  0.66666667  0.27917555  1.0
  Ni  Ni591  1  0.91336633  0.00000000  0.27917555  1.0
  Ni  Ni592  1  0.91336633  0.33333333  0.27917555  1.0
  Ni  Ni593  1  0.91336633  0.66666667  0.27917555  1.0
  Ga  Ga594  1  0.05714567  0.23034900  0.31786035  1.0
  Ga  Ga595  1  0.05714567  0.56368233  0.31786035  1.0
  Ga  Ga596  1  0.05714567  0.89701567  0.31786035  1.0
  Ga  Ga597  1  0.39047900  0.23034900  0.31786035  1.0
  Ga  Ga598  1  0.39047900  0.56368233  0.31786035  1.0
  Ga  Ga599  1  0.39047900  0.89701567  0.31786035  1.0
  Ga  Ga600  1  0.72381233  0.23034900  0.31786035  1.0
  Ga  Ga601  1  0.72381233  0.56368233  0.31786035  1.0
  Ga  Ga602  1  0.72381233  0.89701567  0.31786035  1.0
  Ga  Ga603  1  0.08311067  0.10298433  0.34049075  1.0
  Ga  Ga604  1  0.08311067  0.43631767  0.34049075  1.0
  Ga  Ga605  1  0.08311067  0.76965100  0.34049075  1.0
  Ga  Ga606  1  0.41644400  0.10298433  0.34049075  1.0
  Ga  Ga607  1  0.41644400  0.43631767  0.34049075  1.0
  Ga  Ga608  1  0.41644400  0.76965100  0.34049075  1.0
  Ga  Ga609  1  0.74977733  0.10298433  0.34049075  1.0
  Ga  Ga610  1  0.74977733  0.43631767  0.34049075  1.0
  Ga  Ga611  1  0.74977733  0.76965100  0.34049075  1.0
  Ga  Ga612  1  0.27618767  0.10298433  0.34049075  1.0
  Ga  Ga613  1  0.27618767  0.43631767  0.34049075  1.0
  Ga  Ga614  1  0.27618767  0.76965100  0.34049075  1.0
  Ga  Ga615  1  0.60952100  0.10298433  0.34049075  1.0
  Ga  Ga616  1  0.60952100  0.43631767  0.34049075  1.0
  Ga  Ga617  1  0.60952100  0.76965100  0.34049075  1.0
  Ga  Ga618  1  0.94285433  0.10298433  0.34049075  1.0
  Ga  Ga619  1  0.94285433  0.43631767  0.34049075  1.0
  Ga  Ga620  1  0.94285433  0.76965100  0.34049075  1.0
  Ga  Ga621  1  0.25022267  0.23034900  0.31786035  1.0
  Ga  Ga622  1  0.25022267  0.56368233  0.31786035  1.0
  Ga  Ga623  1  0.25022267  0.89701567  0.31786035  1.0
  Ga  Ga624  1  0.58355600  0.23034900  0.31786035  1.0
  Ga  Ga625  1  0.58355600  0.56368233  0.31786035  1.0
  Ga  Ga626  1  0.58355600  0.89701567  0.31786035  1.0
  Ga  Ga627  1  0.91688933  0.23034900  0.31786035  1.0
  Ga  Ga628  1  0.91688933  0.56368233  0.31786035  1.0
  Ga  Ga629  1  0.91688933  0.89701567  0.31786035  1.0
  Ga  Ga630  1  0.27652400  0.29574700  0.32453705  1.0
  Ga  Ga631  1  0.27652400  0.62908033  0.32453705  1.0
  Ga  Ga632  1  0.27652400  0.96241367  0.32453705  1.0
  Ga  Ga633  1  0.60985733  0.29574700  0.32453705  1.0
  Ga  Ga634  1  0.60985733  0.62908033  0.32453705  1.0
  Ga  Ga635  1  0.60985733  0.96241367  0.32453705  1.0
  Ga  Ga636  1  0.94319067  0.29574700  0.32453705  1.0
  Ga  Ga637  1  0.94319067  0.62908033  0.32453705  1.0
  Ga  Ga638  1  0.94319067  0.96241367  0.32453705  1.0
  Ga  Ga639  1  0.05680933  0.03758633  0.33381405  1.0
  Ga  Ga640  1  0.05680933  0.37091967  0.33381405  1.0
  Ga  Ga641  1  0.05680933  0.70425300  0.33381405  1.0
  Ga  Ga642  1  0.39014267  0.03758633  0.33381405  1.0
  Ga  Ga643  1  0.39014267  0.37091967  0.33381405  1.0
  Ga  Ga644  1  0.39014267  0.70425300  0.33381405  1.0
  Ga  Ga645  1  0.72347600  0.03758633  0.33381405  1.0
  Ga  Ga646  1  0.72347600  0.37091967  0.33381405  1.0
  Ga  Ga647  1  0.72347600  0.70425300  0.33381405  1.0
  Ga  Ga648  1  0.09730500  0.27755300  0.33752665  1.0
  Ga  Ga649  1  0.09730500  0.61088633  0.33752665  1.0
  Ga  Ga650  1  0.09730500  0.94421967  0.33752665  1.0
  Ga  Ga651  1  0.43063833  0.27755300  0.33752665  1.0
  Ga  Ga652  1  0.43063833  0.61088633  0.33752665  1.0
  Ga  Ga653  1  0.43063833  0.94421967  0.33752665  1.0
  Ga  Ga654  1  0.76397167  0.27755300  0.33752665  1.0
  Ga  Ga655  1  0.76397167  0.61088633  0.33752665  1.0
  Ga  Ga656  1  0.76397167  0.94421967  0.33752665  1.0
  Ga  Ga657  1  0.23602833  0.05578033  0.32082445  1.0
  Ga  Ga658  1  0.23602833  0.38911367  0.32082445  1.0
  Ga  Ga659  1  0.23602833  0.72244700  0.32082445  1.0
  Ga  Ga660  1  0.56936167  0.05578033  0.32082445  1.0
  Ga  Ga661  1  0.56936167  0.38911367  0.32082445  1.0
  Ga  Ga662  1  0.56936167  0.72244700  0.32082445  1.0
  Ga  Ga663  1  0.90269500  0.05578033  0.32082445  1.0
  Ga  Ga664  1  0.90269500  0.38911367  0.32082445  1.0
  Ga  Ga665  1  0.90269500  0.72244700  0.32082445  1.0
  Ga  Ga666  1  0.16666667  0.16666667  0.32917555  1.0
  Ga  Ga667  1  0.16666667  0.50000000  0.32917555  1.0
  Ga  Ga668  1  0.16666667  0.83333333  0.32917555  1.0
  Ga  Ga669  1  0.50000000  0.16666667  0.32917555  1.0
  Ga  Ga670  1  0.50000000  0.50000000  0.32917555  1.0
  Ga  Ga671  1  0.50000000  0.83333333  0.32917555  1.0
  Ga  Ga672  1  0.83333333  0.16666667  0.32917555  1.0
  Ga  Ga673  1  0.83333333  0.50000000  0.32917555  1.0
  Ga  Ga674  1  0.83333333  0.83333333  0.32917555  1.0
  Ni  Ni675  1  0.02172333  0.11302700  0.38452455  1.0
  Ni  Ni676  1  0.02172333  0.44636033  0.38452455  1.0
  Ni  Ni677  1  0.02172333  0.77969367  0.38452455  1.0
  Ni  Ni678  1  0.35505667  0.11302700  0.38452455  1.0
  Ni  Ni679  1  0.35505667  0.44636033  0.38452455  1.0
  Ni  Ni680  1  0.35505667  0.77969367  0.38452455  1.0
  Ni  Ni681  1  0.68839000  0.11302700  0.38452455  1.0
  Ni  Ni682  1  0.68839000  0.44636033  0.38452455  1.0
  Ni  Ni683  1  0.68839000  0.77969367  0.38452455  1.0
  Ni  Ni684  1  0.15258033  0.22030633  0.37382655  1.0
  Ni  Ni685  1  0.15258033  0.55363967  0.37382655  1.0
  Ni  Ni686  1  0.15258033  0.88697300  0.37382655  1.0
  Ni  Ni687  1  0.48591367  0.22030633  0.37382655  1.0
  Ni  Ni688  1  0.48591367  0.55363967  0.37382655  1.0
  Ni  Ni689  1  0.48591367  0.88697300  0.37382655  1.0
  Ni  Ni690  1  0.81924700  0.22030633  0.37382655  1.0
  Ni  Ni691  1  0.81924700  0.55363967  0.37382655  1.0
  Ni  Ni692  1  0.81924700  0.88697300  0.37382655  1.0
  Ni  Ni693  1  0.31161000  0.22030633  0.37382655  1.0
  Ni  Ni694  1  0.31161000  0.55363967  0.37382655  1.0
  Ni  Ni695  1  0.31161000  0.88697300  0.37382655  1.0
  Ni  Ni696  1  0.64494333  0.22030633  0.37382655  1.0
  Ni  Ni697  1  0.64494333  0.55363967  0.37382655  1.0
  Ni  Ni698  1  0.64494333  0.88697300  0.37382655  1.0
  Ni  Ni699  1  0.97827667  0.22030633  0.37382655  1.0
  Ni  Ni700  1  0.97827667  0.55363967  0.37382655  1.0
  Ni  Ni701  1  0.97827667  0.88697300  0.37382655  1.0
  Ni  Ni702  1  0.18075300  0.11302700  0.38452455  1.0
  Ni  Ni703  1  0.18075300  0.44636033  0.38452455  1.0
  Ni  Ni704  1  0.18075300  0.77969367  0.38452455  1.0
  Ni  Ni705  1  0.51408633  0.11302700  0.38452455  1.0
  Ni  Ni706  1  0.51408633  0.44636033  0.38452455  1.0
  Ni  Ni707  1  0.51408633  0.77969367  0.38452455  1.0
  Ni  Ni708  1  0.84741967  0.11302700  0.38452455  1.0
  Ni  Ni709  1  0.84741967  0.44636033  0.38452455  1.0
  Ni  Ni710  1  0.84741967  0.77969367  0.38452455  1.0
  Ni  Ni711  1  0.18362333  0.27374867  0.38687695  1.0
  Ni  Ni712  1  0.18362333  0.60708200  0.38687695  1.0
  Ni  Ni713  1  0.18362333  0.94041533  0.38687695  1.0
  Ni  Ni714  1  0.51695667  0.27374867  0.38687695  1.0
  Ni  Ni715  1  0.51695667  0.60708200  0.38687695  1.0
  Ni  Ni716  1  0.51695667  0.94041533  0.38687695  1.0
  Ni  Ni717  1  0.85029000  0.27374867  0.38687695  1.0
  Ni  Ni718  1  0.85029000  0.60708200  0.38687695  1.0
  Ni  Ni719  1  0.85029000  0.94041533  0.38687695  1.0
  Ni  Ni720  1  0.14971000  0.05958467  0.37147415  1.0
  Ni  Ni721  1  0.14971000  0.39291800  0.37147415  1.0
  Ni  Ni722  1  0.14971000  0.72625133  0.37147415  1.0
  Ni  Ni723  1  0.48304333  0.05958467  0.37147415  1.0
  Ni  Ni724  1  0.48304333  0.39291800  0.37147415  1.0
  Ni  Ni725  1  0.48304333  0.72625133  0.37147415  1.0
  Ni  Ni726  1  0.81637667  0.05958467  0.37147415  1.0
  Ni  Ni727  1  0.81637667  0.39291800  0.37147415  1.0
  Ni  Ni728  1  0.81637667  0.72625133  0.37147415  1.0
  Ni  Ni729  1  0.24726600  0.16254500  0.38205245  1.0
  Ni  Ni730  1  0.24726600  0.49587833  0.38205245  1.0
  Ni  Ni731  1  0.24726600  0.82921167  0.38205245  1.0
  Ni  Ni732  1  0.58059933  0.16254500  0.38205245  1.0
  Ni  Ni733  1  0.58059933  0.49587833  0.38205245  1.0
  Ni  Ni734  1  0.58059933  0.82921167  0.38205245  1.0
  Ni  Ni735  1  0.91393267  0.16254500  0.38205245  1.0
  Ni  Ni736  1  0.91393267  0.49587833  0.38205245  1.0
  Ni  Ni737  1  0.91393267  0.82921167  0.38205245  1.0
  Ni  Ni738  1  0.08606733  0.17078833  0.37629865  1.0
  Ni  Ni739  1  0.08606733  0.50412167  0.37629865  1.0
  Ni  Ni740  1  0.08606733  0.83745500  0.37629865  1.0
  Ni  Ni741  1  0.41940067  0.17078833  0.37629865  1.0
  Ni  Ni742  1  0.41940067  0.50412167  0.37629865  1.0
  Ni  Ni743  1  0.41940067  0.83745500  0.37629865  1.0
  Ni  Ni744  1  0.75273400  0.17078833  0.37629865  1.0
  Ni  Ni745  1  0.75273400  0.50412167  0.37629865  1.0
  Ni  Ni746  1  0.75273400  0.83745500  0.37629865  1.0
  Ni  Ni747  1  0.08663367  0.33333333  0.37917555  1.0
  Ni  Ni748  1  0.08663367  0.66666667  0.37917555  1.0
  Ni  Ni749  1  0.08663367  0.00000000  0.37917555  1.0
  Ni  Ni750  1  0.41996700  0.33333333  0.37917555  1.0
  Ni  Ni751  1  0.41996700  0.66666667  0.37917555  1.0
  Ni  Ni752  1  0.41996700  0.00000000  0.37917555  1.0
  Ni  Ni753  1  0.75330033  0.33333333  0.37917555  1.0
  Ni  Ni754  1  0.75330033  0.66666667  0.37917555  1.0
  Ni  Ni755  1  0.75330033  0.00000000  0.37917555  1.0
  Ni  Ni756  1  0.00000000  0.16666667  0.32917555  1.0
  Ni  Ni757  1  0.00000000  0.50000000  0.32917555  1.0
  Ni  Ni758  1  0.00000000  0.83333333  0.32917555  1.0
  Ni  Ni759  1  0.33333333  0.16666667  0.32917555  1.0
  Ni  Ni760  1  0.33333333  0.50000000  0.32917555  1.0
  Ni  Ni761  1  0.33333333  0.83333333  0.32917555  1.0
  Ni  Ni762  1  0.66666667  0.16666667  0.32917555  1.0
  Ni  Ni763  1  0.66666667  0.50000000  0.32917555  1.0
  Ni  Ni764  1  0.66666667  0.83333333  0.32917555  1.0
  Ni  Ni765  1  0.00000000  0.00000000  0.32917555  1.0
  Ni  Ni766  1  0.00000000  0.33333333  0.32917555  1.0
  Ni  Ni767  1  0.00000000  0.66666667  0.32917555  1.0
  Ni  Ni768  1  0.33333333  0.00000000  0.32917555  1.0
  Ni  Ni769  1  0.33333333  0.33333333  0.32917555  1.0
  Ni  Ni770  1  0.33333333  0.66666667  0.32917555  1.0
  Ni  Ni771  1  0.66666667  0.00000000  0.32917555  1.0
  Ni  Ni772  1  0.66666667  0.33333333  0.32917555  1.0
  Ni  Ni773  1  0.66666667  0.66666667  0.32917555  1.0
  Ni  Ni774  1  0.16666667  0.33333333  0.32917555  1.0
  Ni  Ni775  1  0.16666667  0.66666667  0.32917555  1.0
  Ni  Ni776  1  0.16666667  0.00000000  0.32917555  1.0
  Ni  Ni777  1  0.50000000  0.33333333  0.32917555  1.0
  Ni  Ni778  1  0.50000000  0.66666667  0.32917555  1.0
  Ni  Ni779  1  0.50000000  0.00000000  0.32917555  1.0
  Ni  Ni780  1  0.83333333  0.33333333  0.32917555  1.0
  Ni  Ni781  1  0.83333333  0.66666667  0.32917555  1.0
  Ni  Ni782  1  0.83333333  0.00000000  0.32917555  1.0
  Ni  Ni783  1  0.24669967  0.00000000  0.37917555  1.0
  Ni  Ni784  1  0.24669967  0.33333333  0.37917555  1.0
  Ni  Ni785  1  0.24669967  0.66666667  0.37917555  1.0
  Ni  Ni786  1  0.58003300  0.00000000  0.37917555  1.0
  Ni  Ni787  1  0.58003300  0.33333333  0.37917555  1.0
  Ni  Ni788  1  0.58003300  0.66666667  0.37917555  1.0
  Ni  Ni789  1  0.91336633  0.00000000  0.37917555  1.0
  Ni  Ni790  1  0.91336633  0.33333333  0.37917555  1.0
  Ni  Ni791  1  0.91336633  0.66666667  0.37917555  1.0
