# generated using pymatgen
data_Ga9Ni13
_symmetry_space_group_name_H-M   'P 1'
_cell_length_a   25.43053494
_cell_length_b   46.32439166
_cell_length_c   31.76868060
_cell_angle_alpha   126.72248554
_cell_angle_beta   117.20806536
_cell_angle_gamma   55.63908022
_symmetry_Int_Tables_number   1
_chemical_formula_structural   Ga9Ni13
_chemical_formula_sum   'Ga324 Ni468'
_cell_volume   24354.30653680
_cell_formula_units_Z   36
loop_
 _symmetry_equiv_pos_site_id
 _symmetry_equiv_pos_as_xyz
  1  'x, y, z'
loop_
 _atom_site_type_symbol
 _atom_site_label
 _atom_site_symmetry_multiplicity
 _atom_site_fract_x
 _atom_site_fract_y
 _atom_site_fract_z
 _atom_site_occupancy
  Ga  Ga0  1  0.10298433  0.02857283  0.05848870  1.0
  Ga  Ga1  1  0.10298433  0.36190617  0.05848870  1.0
  Ga  Ga2  1  0.10298433  0.69523950  0.05848870  1.0
  Ga  Ga3  1  0.43631767  0.02857283  0.05848870  1.0
  Ga  Ga4  1  0.43631767  0.36190617  0.05848870  1.0
  Ga  Ga5  1  0.43631767  0.69523950  0.05848870  1.0
  Ga  Ga6  1  0.76965100  0.02857283  0.05848870  1.0
  Ga  Ga7  1  0.76965100  0.36190617  0.05848870  1.0
  Ga  Ga8  1  0.76965100  0.69523950  0.05848870  1.0
  Ga  Ga9  1  0.10298433  0.19523950  0.15848870  1.0
  Ga  Ga10  1  0.10298433  0.52857283  0.15848870  1.0
  Ga  Ga11  1  0.10298433  0.86190617  0.15848870  1.0
  Ga  Ga12  1  0.43631767  0.19523950  0.15848870  1.0
  Ga  Ga13  1  0.43631767  0.52857283  0.15848870  1.0
  Ga  Ga14  1  0.43631767  0.86190617  0.15848870  1.0
  Ga  Ga15  1  0.76965100  0.19523950  0.15848870  1.0
  Ga  Ga16  1  0.76965100  0.52857283  0.15848870  1.0
  Ga  Ga17  1  0.76965100  0.86190617  0.15848870  1.0
  Ga  Ga18  1  0.23034900  0.04155533  0.05069920  1.0
  Ga  Ga19  1  0.23034900  0.37488867  0.05069920  1.0
  Ga  Ga20  1  0.23034900  0.70822200  0.05069920  1.0
  Ga  Ga21  1  0.56368233  0.04155533  0.05069920  1.0
  Ga  Ga22  1  0.56368233  0.37488867  0.05069920  1.0
  Ga  Ga23  1  0.56368233  0.70822200  0.05069920  1.0
  Ga  Ga24  1  0.89701567  0.04155533  0.05069920  1.0
  Ga  Ga25  1  0.89701567  0.37488867  0.05069920  1.0
  Ga  Ga26  1  0.89701567  0.70822200  0.05069920  1.0
  Ga  Ga27  1  0.23034900  0.20822200  0.15069920  1.0
  Ga  Ga28  1  0.23034900  0.54155533  0.15069920  1.0
  Ga  Ga29  1  0.23034900  0.87488867  0.15069920  1.0
  Ga  Ga30  1  0.56368233  0.20822200  0.15069920  1.0
  Ga  Ga31  1  0.56368233  0.54155533  0.15069920  1.0
  Ga  Ga32  1  0.56368233  0.87488867  0.15069920  1.0
  Ga  Ga33  1  0.89701567  0.20822200  0.15069920  1.0
  Ga  Ga34  1  0.89701567  0.54155533  0.15069920  1.0
  Ga  Ga35  1  0.89701567  0.87488867  0.15069920  1.0
  Ga  Ga36  1  0.23034900  0.13809383  0.02446850  1.0
  Ga  Ga37  1  0.23034900  0.47142717  0.02446850  1.0
  Ga  Ga38  1  0.23034900  0.80476050  0.02446850  1.0
  Ga  Ga39  1  0.56368233  0.13809383  0.02446850  1.0
  Ga  Ga40  1  0.56368233  0.47142717  0.02446850  1.0
  Ga  Ga41  1  0.56368233  0.80476050  0.02446850  1.0
  Ga  Ga42  1  0.89701567  0.13809383  0.02446850  1.0
  Ga  Ga43  1  0.89701567  0.47142717  0.02446850  1.0
  Ga  Ga44  1  0.89701567  0.80476050  0.02446850  1.0
  Ga  Ga45  1  0.23034900  0.30476050  0.12446850  1.0
  Ga  Ga46  1  0.23034900  0.63809383  0.12446850  1.0
  Ga  Ga47  1  0.23034900  0.97142717  0.12446850  1.0
  Ga  Ga48  1  0.56368233  0.30476050  0.12446850  1.0
  Ga  Ga49  1  0.56368233  0.63809383  0.12446850  1.0
  Ga  Ga50  1  0.56368233  0.97142717  0.12446850  1.0
  Ga  Ga51  1  0.89701567  0.30476050  0.12446850  1.0
  Ga  Ga52  1  0.89701567  0.63809383  0.12446850  1.0
  Ga  Ga53  1  0.89701567  0.97142717  0.12446850  1.0
  Ga  Ga54  1  0.10298433  0.12511133  0.03225800  1.0
  Ga  Ga55  1  0.10298433  0.45844467  0.03225800  1.0
  Ga  Ga56  1  0.10298433  0.79177800  0.03225800  1.0
  Ga  Ga57  1  0.43631767  0.12511133  0.03225800  1.0
  Ga  Ga58  1  0.43631767  0.45844467  0.03225800  1.0
  Ga  Ga59  1  0.43631767  0.79177800  0.03225800  1.0
  Ga  Ga60  1  0.76965100  0.12511133  0.03225800  1.0
  Ga  Ga61  1  0.76965100  0.45844467  0.03225800  1.0
  Ga  Ga62  1  0.76965100  0.79177800  0.03225800  1.0
  Ga  Ga63  1  0.10298433  0.29177800  0.13225800  1.0
  Ga  Ga64  1  0.10298433  0.62511133  0.13225800  1.0
  Ga  Ga65  1  0.10298433  0.95844467  0.13225800  1.0
  Ga  Ga66  1  0.43631767  0.29177800  0.13225800  1.0
  Ga  Ga67  1  0.43631767  0.62511133  0.13225800  1.0
  Ga  Ga68  1  0.43631767  0.95844467  0.13225800  1.0
  Ga  Ga69  1  0.76965100  0.29177800  0.13225800  1.0
  Ga  Ga70  1  0.76965100  0.62511133  0.13225800  1.0
  Ga  Ga71  1  0.76965100  0.95844467  0.13225800  1.0
  Ga  Ga72  1  0.03758633  0.13826200  0.10852140  1.0
  Ga  Ga73  1  0.03758633  0.47159533  0.10852140  1.0
  Ga  Ga74  1  0.03758633  0.80492867  0.10852140  1.0
  Ga  Ga75  1  0.37091967  0.13826200  0.10852140  1.0
  Ga  Ga76  1  0.37091967  0.47159533  0.10852140  1.0
  Ga  Ga77  1  0.37091967  0.80492867  0.10852140  1.0
  Ga  Ga78  1  0.70425300  0.13826200  0.10852140  1.0
  Ga  Ga79  1  0.70425300  0.47159533  0.10852140  1.0
  Ga  Ga80  1  0.70425300  0.80492867  0.10852140  1.0
  Ga  Ga81  1  0.03758633  0.30492867  0.00852140  1.0
  Ga  Ga82  1  0.03758633  0.63826200  0.00852140  1.0
  Ga  Ga83  1  0.03758633  0.97159533  0.00852140  1.0
  Ga  Ga84  1  0.37091967  0.30492867  0.00852140  1.0
  Ga  Ga85  1  0.37091967  0.63826200  0.00852140  1.0
  Ga  Ga86  1  0.37091967  0.97159533  0.00852140  1.0
  Ga  Ga87  1  0.70425300  0.30492867  0.00852140  1.0
  Ga  Ga88  1  0.70425300  0.63826200  0.00852140  1.0
  Ga  Ga89  1  0.70425300  0.97159533  0.00852140  1.0
  Ga  Ga90  1  0.29574700  0.02840467  0.17443580  1.0
  Ga  Ga91  1  0.29574700  0.36173800  0.17443580  1.0
  Ga  Ga92  1  0.29574700  0.69507133  0.17443580  1.0
  Ga  Ga93  1  0.62908033  0.02840467  0.17443580  1.0
  Ga  Ga94  1  0.62908033  0.36173800  0.17443580  1.0
  Ga  Ga95  1  0.62908033  0.69507133  0.17443580  1.0
  Ga  Ga96  1  0.96241367  0.02840467  0.17443580  1.0
  Ga  Ga97  1  0.96241367  0.36173800  0.17443580  1.0
  Ga  Ga98  1  0.96241367  0.69507133  0.17443580  1.0
  Ga  Ga99  1  0.29574700  0.19507133  0.07443580  1.0
  Ga  Ga100  1  0.29574700  0.52840467  0.07443580  1.0
  Ga  Ga101  1  0.29574700  0.86173800  0.07443580  1.0
  Ga  Ga102  1  0.62908033  0.19507133  0.07443580  1.0
  Ga  Ga103  1  0.62908033  0.52840467  0.07443580  1.0
  Ga  Ga104  1  0.62908033  0.86173800  0.07443580  1.0
  Ga  Ga105  1  0.96241367  0.19507133  0.07443580  1.0
  Ga  Ga106  1  0.96241367  0.52840467  0.07443580  1.0
  Ga  Ga107  1  0.96241367  0.86173800  0.07443580  1.0
  Ga  Ga108  1  0.05578033  0.04865250  0.16228710  1.0
  Ga  Ga109  1  0.05578033  0.38198583  0.16228710  1.0
  Ga  Ga110  1  0.05578033  0.71531917  0.16228710  1.0
  Ga  Ga111  1  0.38911367  0.04865250  0.16228710  1.0
  Ga  Ga112  1  0.38911367  0.38198583  0.16228710  1.0
  Ga  Ga113  1  0.38911367  0.71531917  0.16228710  1.0
  Ga  Ga114  1  0.72244700  0.04865250  0.16228710  1.0
  Ga  Ga115  1  0.72244700  0.38198583  0.16228710  1.0
  Ga  Ga116  1  0.72244700  0.71531917  0.16228710  1.0
  Ga  Ga117  1  0.05578033  0.21531917  0.06228710  1.0
  Ga  Ga118  1  0.05578033  0.54865250  0.06228710  1.0
  Ga  Ga119  1  0.05578033  0.88198583  0.06228710  1.0
  Ga  Ga120  1  0.38911367  0.21531917  0.06228710  1.0
  Ga  Ga121  1  0.38911367  0.54865250  0.06228710  1.0
  Ga  Ga122  1  0.38911367  0.88198583  0.06228710  1.0
  Ga  Ga123  1  0.72244700  0.21531917  0.06228710  1.0
  Ga  Ga124  1  0.72244700  0.54865250  0.06228710  1.0
  Ga  Ga125  1  0.72244700  0.88198583  0.06228710  1.0
  Ga  Ga126  1  0.27755300  0.11801417  0.12067010  1.0
  Ga  Ga127  1  0.27755300  0.45134750  0.12067010  1.0
  Ga  Ga128  1  0.27755300  0.78468083  0.12067010  1.0
  Ga  Ga129  1  0.61088633  0.11801417  0.12067010  1.0
  Ga  Ga130  1  0.61088633  0.45134750  0.12067010  1.0
  Ga  Ga131  1  0.61088633  0.78468083  0.12067010  1.0
  Ga  Ga132  1  0.94421967  0.11801417  0.12067010  1.0
  Ga  Ga133  1  0.94421967  0.45134750  0.12067010  1.0
  Ga  Ga134  1  0.94421967  0.78468083  0.12067010  1.0
  Ga  Ga135  1  0.27755300  0.28468083  0.02067010  1.0
  Ga  Ga136  1  0.27755300  0.61801417  0.02067010  1.0
  Ga  Ga137  1  0.27755300  0.95134750  0.02067010  1.0
  Ga  Ga138  1  0.61088633  0.28468083  0.02067010  1.0
  Ga  Ga139  1  0.61088633  0.61801417  0.02067010  1.0
  Ga  Ga140  1  0.61088633  0.95134750  0.02067010  1.0
  Ga  Ga141  1  0.94421967  0.28468083  0.02067010  1.0
  Ga  Ga142  1  0.94421967  0.61801417  0.02067010  1.0
  Ga  Ga143  1  0.94421967  0.95134750  0.02067010  1.0
  Ga  Ga144  1  0.16666667  0.08333333  0.14147860  1.0
  Ga  Ga145  1  0.16666667  0.41666667  0.14147860  1.0
  Ga  Ga146  1  0.16666667  0.75000000  0.14147860  1.0
  Ga  Ga147  1  0.50000000  0.08333333  0.14147860  1.0
  Ga  Ga148  1  0.50000000  0.41666667  0.14147860  1.0
  Ga  Ga149  1  0.50000000  0.75000000  0.14147860  1.0
  Ga  Ga150  1  0.83333333  0.08333333  0.14147860  1.0
  Ga  Ga151  1  0.83333333  0.41666667  0.14147860  1.0
  Ga  Ga152  1  0.83333333  0.75000000  0.14147860  1.0
  Ga  Ga153  1  0.16666667  0.25000000  0.04147860  1.0
  Ga  Ga154  1  0.16666667  0.58333333  0.04147860  1.0
  Ga  Ga155  1  0.16666667  0.91666667  0.04147860  1.0
  Ga  Ga156  1  0.50000000  0.25000000  0.04147860  1.0
  Ga  Ga157  1  0.50000000  0.58333333  0.04147860  1.0
  Ga  Ga158  1  0.50000000  0.91666667  0.04147860  1.0
  Ga  Ga159  1  0.83333333  0.25000000  0.04147860  1.0
  Ga  Ga160  1  0.83333333  0.58333333  0.04147860  1.0
  Ga  Ga161  1  0.83333333  0.91666667  0.04147860  1.0
  Ni  Ni162  1  0.22030633  0.01086167  0.08954380  1.0
  Ni  Ni163  1  0.22030633  0.34419500  0.08954380  1.0
  Ni  Ni164  1  0.22030633  0.67752833  0.08954380  1.0
  Ni  Ni165  1  0.55363967  0.01086167  0.08954380  1.0
  Ni  Ni166  1  0.55363967  0.34419500  0.08954380  1.0
  Ni  Ni167  1  0.55363967  0.67752833  0.08954380  1.0
  Ni  Ni168  1  0.88697300  0.01086167  0.08954380  1.0
  Ni  Ni169  1  0.88697300  0.34419500  0.08954380  1.0
  Ni  Ni170  1  0.88697300  0.67752833  0.08954380  1.0
  Ni  Ni171  1  0.22030633  0.17752833  0.18954380  1.0
  Ni  Ni172  1  0.22030633  0.51086167  0.18954380  1.0
  Ni  Ni173  1  0.22030633  0.84419500  0.18954380  1.0
  Ni  Ni174  1  0.55363967  0.17752833  0.18954380  1.0
  Ni  Ni175  1  0.55363967  0.51086167  0.18954380  1.0
  Ni  Ni176  1  0.55363967  0.84419500  0.18954380  1.0
  Ni  Ni177  1  0.88697300  0.17752833  0.18954380  1.0
  Ni  Ni178  1  0.88697300  0.51086167  0.18954380  1.0
  Ni  Ni179  1  0.88697300  0.84419500  0.18954380  1.0
  Ni  Ni180  1  0.11302700  0.07629017  0.05028670  1.0
  Ni  Ni181  1  0.11302700  0.40962350  0.05028670  1.0
  Ni  Ni182  1  0.11302700  0.74295683  0.05028670  1.0
  Ni  Ni183  1  0.44636033  0.07629017  0.05028670  1.0
  Ni  Ni184  1  0.44636033  0.40962350  0.05028670  1.0
  Ni  Ni185  1  0.44636033  0.74295683  0.05028670  1.0
  Ni  Ni186  1  0.77969367  0.07629017  0.05028670  1.0
  Ni  Ni187  1  0.77969367  0.40962350  0.05028670  1.0
  Ni  Ni188  1  0.77969367  0.74295683  0.05028670  1.0
  Ni  Ni189  1  0.11302700  0.24295683  0.15028670  1.0
  Ni  Ni190  1  0.11302700  0.57629017  0.15028670  1.0
  Ni  Ni191  1  0.11302700  0.90962350  0.15028670  1.0
  Ni  Ni192  1  0.44636033  0.24295683  0.15028670  1.0
  Ni  Ni193  1  0.44636033  0.57629017  0.15028670  1.0
  Ni  Ni194  1  0.44636033  0.90962350  0.15028670  1.0
  Ni  Ni195  1  0.77969367  0.24295683  0.15028670  1.0
  Ni  Ni196  1  0.77969367  0.57629017  0.15028670  1.0
  Ni  Ni197  1  0.77969367  0.90962350  0.15028670  1.0
  Ni  Ni198  1  0.11302700  0.15580500  0.19341340  1.0
  Ni  Ni199  1  0.11302700  0.48913833  0.19341340  1.0
  Ni  Ni200  1  0.11302700  0.82247167  0.19341340  1.0
  Ni  Ni201  1  0.44636033  0.15580500  0.19341340  1.0
  Ni  Ni202  1  0.44636033  0.48913833  0.19341340  1.0
  Ni  Ni203  1  0.44636033  0.82247167  0.19341340  1.0
  Ni  Ni204  1  0.77969367  0.15580500  0.19341340  1.0
  Ni  Ni205  1  0.77969367  0.48913833  0.19341340  1.0
  Ni  Ni206  1  0.77969367  0.82247167  0.19341340  1.0
  Ni  Ni207  1  0.11302700  0.32247167  0.09341340  1.0
  Ni  Ni208  1  0.11302700  0.65580500  0.09341340  1.0
  Ni  Ni209  1  0.11302700  0.98913833  0.09341340  1.0
  Ni  Ni210  1  0.44636033  0.32247167  0.09341340  1.0
  Ni  Ni211  1  0.44636033  0.65580500  0.09341340  1.0
  Ni  Ni212  1  0.44636033  0.98913833  0.09341340  1.0
  Ni  Ni213  1  0.77969367  0.32247167  0.09341340  1.0
  Ni  Ni214  1  0.77969367  0.65580500  0.09341340  1.0
  Ni  Ni215  1  0.77969367  0.98913833  0.09341340  1.0
  Ni  Ni216  1  0.22030633  0.09037650  0.03267050  1.0
  Ni  Ni217  1  0.22030633  0.42370983  0.03267050  1.0
  Ni  Ni218  1  0.22030633  0.75704317  0.03267050  1.0
  Ni  Ni219  1  0.55363967  0.09037650  0.03267050  1.0
  Ni  Ni220  1  0.55363967  0.42370983  0.03267050  1.0
  Ni  Ni221  1  0.55363967  0.75704317  0.03267050  1.0
  Ni  Ni222  1  0.88697300  0.09037650  0.03267050  1.0
  Ni  Ni223  1  0.88697300  0.42370983  0.03267050  1.0
  Ni  Ni224  1  0.88697300  0.75704317  0.03267050  1.0
  Ni  Ni225  1  0.22030633  0.25704317  0.13267050  1.0
  Ni  Ni226  1  0.22030633  0.59037650  0.13267050  1.0
  Ni  Ni227  1  0.22030633  0.92370983  0.13267050  1.0
  Ni  Ni228  1  0.55363967  0.25704317  0.13267050  1.0
  Ni  Ni229  1  0.55363967  0.59037650  0.13267050  1.0
  Ni  Ni230  1  0.55363967  0.92370983  0.13267050  1.0
  Ni  Ni231  1  0.88697300  0.25704317  0.13267050  1.0
  Ni  Ni232  1  0.88697300  0.59037650  0.13267050  1.0
  Ni  Ni233  1  0.88697300  0.92370983  0.13267050  1.0
  Ni  Ni234  1  0.05958467  0.09181167  0.13639160  1.0
  Ni  Ni235  1  0.05958467  0.42514500  0.13639160  1.0
  Ni  Ni236  1  0.05958467  0.75847833  0.13639160  1.0
  Ni  Ni237  1  0.39291800  0.09181167  0.13639160  1.0
  Ni  Ni238  1  0.39291800  0.42514500  0.13639160  1.0
  Ni  Ni239  1  0.39291800  0.75847833  0.13639160  1.0
  Ni  Ni240  1  0.72625133  0.09181167  0.13639160  1.0
  Ni  Ni241  1  0.72625133  0.42514500  0.13639160  1.0
  Ni  Ni242  1  0.72625133  0.75847833  0.13639160  1.0
  Ni  Ni243  1  0.05958467  0.25847833  0.03639160  1.0
  Ni  Ni244  1  0.05958467  0.59181167  0.03639160  1.0
  Ni  Ni245  1  0.05958467  0.92514500  0.03639160  1.0
  Ni  Ni246  1  0.39291800  0.25847833  0.03639160  1.0
  Ni  Ni247  1  0.39291800  0.59181167  0.03639160  1.0
  Ni  Ni248  1  0.39291800  0.92514500  0.03639160  1.0
  Ni  Ni249  1  0.72625133  0.25847833  0.03639160  1.0
  Ni  Ni250  1  0.72625133  0.59181167  0.03639160  1.0
  Ni  Ni251  1  0.72625133  0.92514500  0.03639160  1.0
  Ni  Ni252  1  0.27374867  0.07485500  0.14656560  1.0
  Ni  Ni253  1  0.27374867  0.40818833  0.14656560  1.0
  Ni  Ni254  1  0.27374867  0.74152167  0.14656560  1.0
  Ni  Ni255  1  0.60708200  0.07485500  0.14656560  1.0
  Ni  Ni256  1  0.60708200  0.40818833  0.14656560  1.0
  Ni  Ni257  1  0.60708200  0.74152167  0.14656560  1.0
  Ni  Ni258  1  0.94041533  0.07485500  0.14656560  1.0
  Ni  Ni259  1  0.94041533  0.40818833  0.14656560  1.0
  Ni  Ni260  1  0.94041533  0.74152167  0.14656560  1.0
  Ni  Ni261  1  0.27374867  0.24152167  0.04656560  1.0
  Ni  Ni262  1  0.27374867  0.57485500  0.04656560  1.0
  Ni  Ni263  1  0.27374867  0.90818833  0.04656560  1.0
  Ni  Ni264  1  0.60708200  0.24152167  0.04656560  1.0
  Ni  Ni265  1  0.60708200  0.57485500  0.04656560  1.0
  Ni  Ni266  1  0.60708200  0.90818833  0.04656560  1.0
  Ni  Ni267  1  0.94041533  0.24152167  0.04656560  1.0
  Ni  Ni268  1  0.94041533  0.57485500  0.04656560  1.0
  Ni  Ni269  1  0.94041533  0.90818833  0.04656560  1.0
  Ni  Ni270  1  0.17078833  0.12363300  0.11729880  1.0
  Ni  Ni271  1  0.17078833  0.45696633  0.11729880  1.0
  Ni  Ni272  1  0.17078833  0.79029967  0.11729880  1.0
  Ni  Ni273  1  0.50412167  0.12363300  0.11729880  1.0
  Ni  Ni274  1  0.50412167  0.45696633  0.11729880  1.0
  Ni  Ni275  1  0.50412167  0.79029967  0.11729880  1.0
  Ni  Ni276  1  0.83745500  0.12363300  0.11729880  1.0
  Ni  Ni277  1  0.83745500  0.45696633  0.11729880  1.0
  Ni  Ni278  1  0.83745500  0.79029967  0.11729880  1.0
  Ni  Ni279  1  0.17078833  0.29029967  0.01729880  1.0
  Ni  Ni280  1  0.17078833  0.62363300  0.01729880  1.0
  Ni  Ni281  1  0.17078833  0.95696633  0.01729880  1.0
  Ni  Ni282  1  0.50412167  0.29029967  0.01729880  1.0
  Ni  Ni283  1  0.50412167  0.62363300  0.01729880  1.0
  Ni  Ni284  1  0.50412167  0.95696633  0.01729880  1.0
  Ni  Ni285  1  0.83745500  0.29029967  0.01729880  1.0
  Ni  Ni286  1  0.83745500  0.62363300  0.01729880  1.0
  Ni  Ni287  1  0.83745500  0.95696633  0.01729880  1.0
  Ni  Ni288  1  0.16254500  0.04303367  0.16565840  1.0
  Ni  Ni289  1  0.16254500  0.37636700  0.16565840  1.0
  Ni  Ni290  1  0.16254500  0.70970033  0.16565840  1.0
  Ni  Ni291  1  0.49587833  0.04303367  0.16565840  1.0
  Ni  Ni292  1  0.49587833  0.37636700  0.16565840  1.0
  Ni  Ni293  1  0.49587833  0.70970033  0.16565840  1.0
  Ni  Ni294  1  0.82921167  0.04303367  0.16565840  1.0
  Ni  Ni295  1  0.82921167  0.37636700  0.16565840  1.0
  Ni  Ni296  1  0.82921167  0.70970033  0.16565840  1.0
  Ni  Ni297  1  0.16254500  0.20970033  0.06565840  1.0
  Ni  Ni298  1  0.16254500  0.54303367  0.06565840  1.0
  Ni  Ni299  1  0.16254500  0.87636700  0.06565840  1.0
  Ni  Ni300  1  0.49587833  0.20970033  0.06565840  1.0
  Ni  Ni301  1  0.49587833  0.54303367  0.06565840  1.0
  Ni  Ni302  1  0.49587833  0.87636700  0.06565840  1.0
  Ni  Ni303  1  0.82921167  0.20970033  0.06565840  1.0
  Ni  Ni304  1  0.82921167  0.54303367  0.06565840  1.0
  Ni  Ni305  1  0.82921167  0.87636700  0.06565840  1.0
  Ni  Ni306  1  0.00000000  0.04331683  0.06944890  1.0
  Ni  Ni307  1  0.00000000  0.37665017  0.06944890  1.0
  Ni  Ni308  1  0.00000000  0.70998350  0.06944890  1.0
  Ni  Ni309  1  0.33333333  0.04331683  0.06944890  1.0
  Ni  Ni310  1  0.33333333  0.37665017  0.06944890  1.0
  Ni  Ni311  1  0.33333333  0.70998350  0.06944890  1.0
  Ni  Ni312  1  0.66666667  0.04331683  0.06944890  1.0
  Ni  Ni313  1  0.66666667  0.37665017  0.06944890  1.0
  Ni  Ni314  1  0.66666667  0.70998350  0.06944890  1.0
  Ni  Ni315  1  0.00000000  0.20998350  0.16944890  1.0
  Ni  Ni316  1  0.00000000  0.54331683  0.16944890  1.0
  Ni  Ni317  1  1.00000000  0.87665017  0.16944890  1.0
  Ni  Ni318  1  0.33333333  0.20998350  0.16944890  1.0
  Ni  Ni319  1  0.33333333  0.54331683  0.16944890  1.0
  Ni  Ni320  1  0.33333333  0.87665017  0.16944890  1.0
  Ni  Ni321  1  0.66666667  0.20998350  0.16944890  1.0
  Ni  Ni322  1  0.66666667  0.54331683  0.16944890  1.0
  Ni  Ni323  1  0.66666667  0.87665017  0.16944890  1.0
  Ni  Ni324  1  0.16666667  0.16666667  0.09147860  1.0
  Ni  Ni325  1  0.16666667  0.50000000  0.09147860  1.0
  Ni  Ni326  1  0.16666667  0.83333333  0.09147860  1.0
  Ni  Ni327  1  0.50000000  0.16666667  0.09147860  1.0
  Ni  Ni328  1  0.50000000  0.50000000  0.09147860  1.0
  Ni  Ni329  1  0.50000000  0.83333333  0.09147860  1.0
  Ni  Ni330  1  0.83333333  0.16666667  0.09147860  1.0
  Ni  Ni331  1  0.83333333  0.50000000  0.09147860  1.0
  Ni  Ni332  1  0.83333333  0.83333333  0.09147860  1.0
  Ni  Ni333  1  0.16666667  0.00000000  0.19147860  1.0
  Ni  Ni334  1  0.16666667  0.33333333  0.19147860  1.0
  Ni  Ni335  1  0.16666667  0.66666667  0.19147860  1.0
  Ni  Ni336  1  0.50000000  0.00000000  0.19147860  1.0
  Ni  Ni337  1  0.50000000  0.33333333  0.19147860  1.0
  Ni  Ni338  1  0.50000000  0.66666667  0.19147860  1.0
  Ni  Ni339  1  0.83333333  0.00000000  0.19147860  1.0
  Ni  Ni340  1  0.83333333  0.33333333  0.19147860  1.0
  Ni  Ni341  1  0.83333333  0.66666667  0.19147860  1.0
  Ni  Ni342  1  0.00000000  0.16666667  0.19147860  1.0
  Ni  Ni343  1  0.00000000  0.50000000  0.19147860  1.0
  Ni  Ni344  1  1.00000000  0.83333333  0.19147860  1.0
  Ni  Ni345  1  0.33333333  0.16666667  0.19147860  1.0
  Ni  Ni346  1  0.33333333  0.50000000  0.19147860  1.0
  Ni  Ni347  1  0.33333333  0.83333333  0.19147860  1.0
  Ni  Ni348  1  0.66666667  0.16666667  0.19147860  1.0
  Ni  Ni349  1  0.66666667  0.50000000  0.19147860  1.0
  Ni  Ni350  1  0.66666667  0.83333333  0.19147860  1.0
  Ni  Ni351  1  0.00000000  0.00000000  0.09147860  1.0
  Ni  Ni352  1  0.00000000  0.33333333  0.09147860  1.0
  Ni  Ni353  1  0.00000000  0.66666667  0.09147860  1.0
  Ni  Ni354  1  0.33333333  0.00000000  0.09147860  1.0
  Ni  Ni355  1  0.33333333  0.33333333  0.09147860  1.0
  Ni  Ni356  1  0.33333333  0.66666667  0.09147860  1.0
  Ni  Ni357  1  0.66666667  0.00000000  0.09147860  1.0
  Ni  Ni358  1  0.66666667  0.33333333  0.09147860  1.0
  Ni  Ni359  1  0.66666667  0.66666667  0.09147860  1.0
  Ni  Ni360  1  0.00000000  0.08333333  0.04147860  1.0
  Ni  Ni361  1  0.00000000  0.41666667  0.04147860  1.0
  Ni  Ni362  1  1.00000000  0.75000000  0.04147860  1.0
  Ni  Ni363  1  0.33333333  0.08333333  0.04147860  1.0
  Ni  Ni364  1  0.33333333  0.41666667  0.04147860  1.0
  Ni  Ni365  1  0.33333333  0.75000000  0.04147860  1.0
  Ni  Ni366  1  0.66666667  0.08333333  0.04147860  1.0
  Ni  Ni367  1  0.66666667  0.41666667  0.04147860  1.0
  Ni  Ni368  1  0.66666667  0.75000000  0.04147860  1.0
  Ni  Ni369  1  0.00000000  0.25000000  0.14147860  1.0
  Ni  Ni370  1  1.00000000  0.58333333  0.14147860  1.0
  Ni  Ni371  1  0.00000000  0.91666667  0.14147860  1.0
  Ni  Ni372  1  0.33333333  0.25000000  0.14147860  1.0
  Ni  Ni373  1  0.33333333  0.58333333  0.14147860  1.0
  Ni  Ni374  1  0.33333333  0.91666667  0.14147860  1.0
  Ni  Ni375  1  0.66666667  0.25000000  0.14147860  1.0
  Ni  Ni376  1  0.66666667  0.58333333  0.14147860  1.0
  Ni  Ni377  1  0.66666667  0.91666667  0.14147860  1.0
  Ni  Ni378  1  0.00000000  0.12334983  0.01350830  1.0
  Ni  Ni379  1  0.00000000  0.45668317  0.01350830  1.0
  Ni  Ni380  1  0.00000000  0.79001650  0.01350830  1.0
  Ni  Ni381  1  0.33333333  0.12334983  0.01350830  1.0
  Ni  Ni382  1  0.33333333  0.45668317  0.01350830  1.0
  Ni  Ni383  1  0.33333333  0.79001650  0.01350830  1.0
  Ni  Ni384  1  0.66666667  0.12334983  0.01350830  1.0
  Ni  Ni385  1  0.66666667  0.45668317  0.01350830  1.0
  Ni  Ni386  1  0.66666667  0.79001650  0.01350830  1.0
  Ni  Ni387  1  0.00000000  0.29001650  0.11350830  1.0
  Ni  Ni388  1  0.00000000  0.62334983  0.11350830  1.0
  Ni  Ni389  1  0.00000000  0.95668317  0.11350830  1.0
  Ni  Ni390  1  0.33333333  0.29001650  0.11350830  1.0
  Ni  Ni391  1  0.33333333  0.62334983  0.11350830  1.0
  Ni  Ni392  1  0.33333333  0.95668317  0.11350830  1.0
  Ni  Ni393  1  0.66666667  0.29001650  0.11350830  1.0
  Ni  Ni394  1  0.66666667  0.62334983  0.11350830  1.0
  Ni  Ni395  1  0.66666667  0.95668317  0.11350830  1.0
  Ga  Ga396  1  0.10298433  0.02857283  0.25848870  1.0
  Ga  Ga397  1  0.10298433  0.36190617  0.25848870  1.0
  Ga  Ga398  1  0.10298433  0.69523950  0.25848870  1.0
  Ga  Ga399  1  0.43631767  0.02857283  0.25848870  1.0
  Ga  Ga400  1  0.43631767  0.36190617  0.25848870  1.0
  Ga  Ga401  1  0.43631767  0.69523950  0.25848870  1.0
  Ga  Ga402  1  0.76965100  0.02857283  0.25848870  1.0
  Ga  Ga403  1  0.76965100  0.36190617  0.25848870  1.0
  Ga  Ga404  1  0.76965100  0.69523950  0.25848870  1.0
  Ga  Ga405  1  0.10298433  0.19523950  0.35848870  1.0
  Ga  Ga406  1  0.10298433  0.52857283  0.35848870  1.0
  Ga  Ga407  1  0.10298433  0.86190617  0.35848870  1.0
  Ga  Ga408  1  0.43631767  0.19523950  0.35848870  1.0
  Ga  Ga409  1  0.43631767  0.52857283  0.35848870  1.0
  Ga  Ga410  1  0.43631767  0.86190617  0.35848870  1.0
  Ga  Ga411  1  0.76965100  0.19523950  0.35848870  1.0
  Ga  Ga412  1  0.76965100  0.52857283  0.35848870  1.0
  Ga  Ga413  1  0.76965100  0.86190617  0.35848870  1.0
  Ga  Ga414  1  0.23034900  0.04155533  0.25069920  1.0
  Ga  Ga415  1  0.23034900  0.37488867  0.25069920  1.0
  Ga  Ga416  1  0.23034900  0.70822200  0.25069920  1.0
  Ga  Ga417  1  0.56368233  0.04155533  0.25069920  1.0
  Ga  Ga418  1  0.56368233  0.37488867  0.25069920  1.0
  Ga  Ga419  1  0.56368233  0.70822200  0.25069920  1.0
  Ga  Ga420  1  0.89701567  0.04155533  0.25069920  1.0
  Ga  Ga421  1  0.89701567  0.37488867  0.25069920  1.0
  Ga  Ga422  1  0.89701567  0.70822200  0.25069920  1.0
  Ga  Ga423  1  0.23034900  0.20822200  0.35069920  1.0
  Ga  Ga424  1  0.23034900  0.54155533  0.35069920  1.0
  Ga  Ga425  1  0.23034900  0.87488867  0.35069920  1.0
  Ga  Ga426  1  0.56368233  0.20822200  0.35069920  1.0
  Ga  Ga427  1  0.56368233  0.54155533  0.35069920  1.0
  Ga  Ga428  1  0.56368233  0.87488867  0.35069920  1.0
  Ga  Ga429  1  0.89701567  0.20822200  0.35069920  1.0
  Ga  Ga430  1  0.89701567  0.54155533  0.35069920  1.0
  Ga  Ga431  1  0.89701567  0.87488867  0.35069920  1.0
  Ga  Ga432  1  0.23034900  0.13809383  0.22446850  1.0
  Ga  Ga433  1  0.23034900  0.47142717  0.22446850  1.0
  Ga  Ga434  1  0.23034900  0.80476050  0.22446850  1.0
  Ga  Ga435  1  0.56368233  0.13809383  0.22446850  1.0
  Ga  Ga436  1  0.56368233  0.47142717  0.22446850  1.0
  Ga  Ga437  1  0.56368233  0.80476050  0.22446850  1.0
  Ga  Ga438  1  0.89701567  0.13809383  0.22446850  1.0
  Ga  Ga439  1  0.89701567  0.47142717  0.22446850  1.0
  Ga  Ga440  1  0.89701567  0.80476050  0.22446850  1.0
  Ga  Ga441  1  0.23034900  0.30476050  0.32446850  1.0
  Ga  Ga442  1  0.23034900  0.63809383  0.32446850  1.0
  Ga  Ga443  1  0.23034900  0.97142717  0.32446850  1.0
  Ga  Ga444  1  0.56368233  0.30476050  0.32446850  1.0
  Ga  Ga445  1  0.56368233  0.63809383  0.32446850  1.0
  Ga  Ga446  1  0.56368233  0.97142717  0.32446850  1.0
  Ga  Ga447  1  0.89701567  0.30476050  0.32446850  1.0
  Ga  Ga448  1  0.89701567  0.63809383  0.32446850  1.0
  Ga  Ga449  1  0.89701567  0.97142717  0.32446850  1.0
  Ga  Ga450  1  0.10298433  0.12511133  0.23225800  1.0
  Ga  Ga451  1  0.10298433  0.45844467  0.23225800  1.0
  Ga  Ga452  1  0.10298433  0.79177800  0.23225800  1.0
  Ga  Ga453  1  0.43631767  0.12511133  0.23225800  1.0
  Ga  Ga454  1  0.43631767  0.45844467  0.23225800  1.0
  Ga  Ga455  1  0.43631767  0.79177800  0.23225800  1.0
  Ga  Ga456  1  0.76965100  0.12511133  0.23225800  1.0
  Ga  Ga457  1  0.76965100  0.45844467  0.23225800  1.0
  Ga  Ga458  1  0.76965100  0.79177800  0.23225800  1.0
  Ga  Ga459  1  0.10298433  0.29177800  0.33225800  1.0
  Ga  Ga460  1  0.10298433  0.62511133  0.33225800  1.0
  Ga  Ga461  1  0.10298433  0.95844467  0.33225800  1.0
  Ga  Ga462  1  0.43631767  0.29177800  0.33225800  1.0
  Ga  Ga463  1  0.43631767  0.62511133  0.33225800  1.0
  Ga  Ga464  1  0.43631767  0.95844467  0.33225800  1.0
  Ga  Ga465  1  0.76965100  0.29177800  0.33225800  1.0
  Ga  Ga466  1  0.76965100  0.62511133  0.33225800  1.0
  Ga  Ga467  1  0.76965100  0.95844467  0.33225800  1.0
  Ga  Ga468  1  0.03758633  0.13826200  0.30852140  1.0
  Ga  Ga469  1  0.03758633  0.47159533  0.30852140  1.0
  Ga  Ga470  1  0.03758633  0.80492867  0.30852140  1.0
  Ga  Ga471  1  0.37091967  0.13826200  0.30852140  1.0
  Ga  Ga472  1  0.37091967  0.47159533  0.30852140  1.0
  Ga  Ga473  1  0.37091967  0.80492867  0.30852140  1.0
  Ga  Ga474  1  0.70425300  0.13826200  0.30852140  1.0
  Ga  Ga475  1  0.70425300  0.47159533  0.30852140  1.0
  Ga  Ga476  1  0.70425300  0.80492867  0.30852140  1.0
  Ga  Ga477  1  0.03758633  0.30492867  0.20852140  1.0
  Ga  Ga478  1  0.03758633  0.63826200  0.20852140  1.0
  Ga  Ga479  1  0.03758633  0.97159533  0.20852140  1.0
  Ga  Ga480  1  0.37091967  0.30492867  0.20852140  1.0
  Ga  Ga481  1  0.37091967  0.63826200  0.20852140  1.0
  Ga  Ga482  1  0.37091967  0.97159533  0.20852140  1.0
  Ga  Ga483  1  0.70425300  0.30492867  0.20852140  1.0
  Ga  Ga484  1  0.70425300  0.63826200  0.20852140  1.0
  Ga  Ga485  1  0.70425300  0.97159533  0.20852140  1.0
  Ga  Ga486  1  0.29574700  0.02840467  0.37443580  1.0
  Ga  Ga487  1  0.29574700  0.36173800  0.37443580  1.0
  Ga  Ga488  1  0.29574700  0.69507133  0.37443580  1.0
  Ga  Ga489  1  0.62908033  0.02840467  0.37443580  1.0
  Ga  Ga490  1  0.62908033  0.36173800  0.37443580  1.0
  Ga  Ga491  1  0.62908033  0.69507133  0.37443580  1.0
  Ga  Ga492  1  0.96241367  0.02840467  0.37443580  1.0
  Ga  Ga493  1  0.96241367  0.36173800  0.37443580  1.0
  Ga  Ga494  1  0.96241367  0.69507133  0.37443580  1.0
  Ga  Ga495  1  0.29574700  0.19507133  0.27443580  1.0
  Ga  Ga496  1  0.29574700  0.52840467  0.27443580  1.0
  Ga  Ga497  1  0.29574700  0.86173800  0.27443580  1.0
  Ga  Ga498  1  0.62908033  0.19507133  0.27443580  1.0
  Ga  Ga499  1  0.62908033  0.52840467  0.27443580  1.0
  Ga  Ga500  1  0.62908033  0.86173800  0.27443580  1.0
  Ga  Ga501  1  0.96241367  0.19507133  0.27443580  1.0
  Ga  Ga502  1  0.96241367  0.52840467  0.27443580  1.0
  Ga  Ga503  1  0.96241367  0.86173800  0.27443580  1.0
  Ga  Ga504  1  0.05578033  0.04865250  0.36228710  1.0
  Ga  Ga505  1  0.05578033  0.38198583  0.36228710  1.0
  Ga  Ga506  1  0.05578033  0.71531917  0.36228710  1.0
  Ga  Ga507  1  0.38911367  0.04865250  0.36228710  1.0
  Ga  Ga508  1  0.38911367  0.38198583  0.36228710  1.0
  Ga  Ga509  1  0.38911367  0.71531917  0.36228710  1.0
  Ga  Ga510  1  0.72244700  0.04865250  0.36228710  1.0
  Ga  Ga511  1  0.72244700  0.38198583  0.36228710  1.0
  Ga  Ga512  1  0.72244700  0.71531917  0.36228710  1.0
  Ga  Ga513  1  0.05578033  0.21531917  0.26228710  1.0
  Ga  Ga514  1  0.05578033  0.54865250  0.26228710  1.0
  Ga  Ga515  1  0.05578033  0.88198583  0.26228710  1.0
  Ga  Ga516  1  0.38911367  0.21531917  0.26228710  1.0
  Ga  Ga517  1  0.38911367  0.54865250  0.26228710  1.0
  Ga  Ga518  1  0.38911367  0.88198583  0.26228710  1.0
  Ga  Ga519  1  0.72244700  0.21531917  0.26228710  1.0
  Ga  Ga520  1  0.72244700  0.54865250  0.26228710  1.0
  Ga  Ga521  1  0.72244700  0.88198583  0.26228710  1.0
  Ga  Ga522  1  0.27755300  0.11801417  0.32067010  1.0
  Ga  Ga523  1  0.27755300  0.45134750  0.32067010  1.0
  Ga  Ga524  1  0.27755300  0.78468083  0.32067010  1.0
  Ga  Ga525  1  0.61088633  0.11801417  0.32067010  1.0
  Ga  Ga526  1  0.61088633  0.45134750  0.32067010  1.0
  Ga  Ga527  1  0.61088633  0.78468083  0.32067010  1.0
  Ga  Ga528  1  0.94421967  0.11801417  0.32067010  1.0
  Ga  Ga529  1  0.94421967  0.45134750  0.32067010  1.0
  Ga  Ga530  1  0.94421967  0.78468083  0.32067010  1.0
  Ga  Ga531  1  0.27755300  0.28468083  0.22067010  1.0
  Ga  Ga532  1  0.27755300  0.61801417  0.22067010  1.0
  Ga  Ga533  1  0.27755300  0.95134750  0.22067010  1.0
  Ga  Ga534  1  0.61088633  0.28468083  0.22067010  1.0
  Ga  Ga535  1  0.61088633  0.61801417  0.22067010  1.0
  Ga  Ga536  1  0.61088633  0.95134750  0.22067010  1.0
  Ga  Ga537  1  0.94421967  0.28468083  0.22067010  1.0
  Ga  Ga538  1  0.94421967  0.61801417  0.22067010  1.0
  Ga  Ga539  1  0.94421967  0.95134750  0.22067010  1.0
  Ga  Ga540  1  0.16666667  0.08333333  0.34147860  1.0
  Ga  Ga541  1  0.16666667  0.41666667  0.34147860  1.0
  Ga  Ga542  1  0.16666667  0.75000000  0.34147860  1.0
  Ga  Ga543  1  0.50000000  0.08333333  0.34147860  1.0
  Ga  Ga544  1  0.50000000  0.41666667  0.34147860  1.0
  Ga  Ga545  1  0.50000000  0.75000000  0.34147860  1.0
  Ga  Ga546  1  0.83333333  0.08333333  0.34147860  1.0
  Ga  Ga547  1  0.83333333  0.41666667  0.34147860  1.0
  Ga  Ga548  1  0.83333333  0.75000000  0.34147860  1.0
  Ga  Ga549  1  0.16666667  0.25000000  0.24147860  1.0
  Ga  Ga550  1  0.16666667  0.58333333  0.24147860  1.0
  Ga  Ga551  1  0.16666667  0.91666667  0.24147860  1.0
  Ga  Ga552  1  0.50000000  0.25000000  0.24147860  1.0
  Ga  Ga553  1  0.50000000  0.58333333  0.24147860  1.0
  Ga  Ga554  1  0.50000000  0.91666667  0.24147860  1.0
  Ga  Ga555  1  0.83333333  0.25000000  0.24147860  1.0
  Ga  Ga556  1  0.83333333  0.58333333  0.24147860  1.0
  Ga  Ga557  1  0.83333333  0.91666667  0.24147860  1.0
  Ni  Ni558  1  0.22030633  0.01086167  0.28954380  1.0
  Ni  Ni559  1  0.22030633  0.34419500  0.28954380  1.0
  Ni  Ni560  1  0.22030633  0.67752833  0.28954380  1.0
  Ni  Ni561  1  0.55363967  0.01086167  0.28954380  1.0
  Ni  Ni562  1  0.55363967  0.34419500  0.28954380  1.0
  Ni  Ni563  1  0.55363967  0.67752833  0.28954380  1.0
  Ni  Ni564  1  0.88697300  0.01086167  0.28954380  1.0
  Ni  Ni565  1  0.88697300  0.34419500  0.28954380  1.0
  Ni  Ni566  1  0.88697300  0.67752833  0.28954380  1.0
  Ni  Ni567  1  0.22030633  0.17752833  0.38954380  1.0
  Ni  Ni568  1  0.22030633  0.51086167  0.38954380  1.0
  Ni  Ni569  1  0.22030633  0.84419500  0.38954380  1.0
  Ni  Ni570  1  0.55363967  0.17752833  0.38954380  1.0
  Ni  Ni571  1  0.55363967  0.51086167  0.38954380  1.0
  Ni  Ni572  1  0.55363967  0.84419500  0.38954380  1.0
  Ni  Ni573  1  0.88697300  0.17752833  0.38954380  1.0
  Ni  Ni574  1  0.88697300  0.51086167  0.38954380  1.0
  Ni  Ni575  1  0.88697300  0.84419500  0.38954380  1.0
  Ni  Ni576  1  0.11302700  0.07629017  0.25028670  1.0
  Ni  Ni577  1  0.11302700  0.40962350  0.25028670  1.0
  Ni  Ni578  1  0.11302700  0.74295683  0.25028670  1.0
  Ni  Ni579  1  0.44636033  0.07629017  0.25028670  1.0
  Ni  Ni580  1  0.44636033  0.40962350  0.25028670  1.0
  Ni  Ni581  1  0.44636033  0.74295683  0.25028670  1.0
  Ni  Ni582  1  0.77969367  0.07629017  0.25028670  1.0
  Ni  Ni583  1  0.77969367  0.40962350  0.25028670  1.0
  Ni  Ni584  1  0.77969367  0.74295683  0.25028670  1.0
  Ni  Ni585  1  0.11302700  0.24295683  0.35028670  1.0
  Ni  Ni586  1  0.11302700  0.57629017  0.35028670  1.0
  Ni  Ni587  1  0.11302700  0.90962350  0.35028670  1.0
  Ni  Ni588  1  0.44636033  0.24295683  0.35028670  1.0
  Ni  Ni589  1  0.44636033  0.57629017  0.35028670  1.0
  Ni  Ni590  1  0.44636033  0.90962350  0.35028670  1.0
  Ni  Ni591  1  0.77969367  0.24295683  0.35028670  1.0
  Ni  Ni592  1  0.77969367  0.57629017  0.35028670  1.0
  Ni  Ni593  1  0.77969367  0.90962350  0.35028670  1.0
  Ni  Ni594  1  0.11302700  0.15580500  0.39341340  1.0
  Ni  Ni595  1  0.11302700  0.48913833  0.39341340  1.0
  Ni  Ni596  1  0.11302700  0.82247167  0.39341340  1.0
  Ni  Ni597  1  0.44636033  0.15580500  0.39341340  1.0
  Ni  Ni598  1  0.44636033  0.48913833  0.39341340  1.0
  Ni  Ni599  1  0.44636033  0.82247167  0.39341340  1.0
  Ni  Ni600  1  0.77969367  0.15580500  0.39341340  1.0
  Ni  Ni601  1  0.77969367  0.48913833  0.39341340  1.0
  Ni  Ni602  1  0.77969367  0.82247167  0.39341340  1.0
  Ni  Ni603  1  0.11302700  0.32247167  0.29341340  1.0
  Ni  Ni604  1  0.11302700  0.65580500  0.29341340  1.0
  Ni  Ni605  1  0.11302700  0.98913833  0.29341340  1.0
  Ni  Ni606  1  0.44636033  0.32247167  0.29341340  1.0
  Ni  Ni607  1  0.44636033  0.65580500  0.29341340  1.0
  Ni  Ni608  1  0.44636033  0.98913833  0.29341340  1.0
  Ni  Ni609  1  0.77969367  0.32247167  0.29341340  1.0
  Ni  Ni610  1  0.77969367  0.65580500  0.29341340  1.0
  Ni  Ni611  1  0.77969367  0.98913833  0.29341340  1.0
  Ni  Ni612  1  0.22030633  0.09037650  0.23267050  1.0
  Ni  Ni613  1  0.22030633  0.42370983  0.23267050  1.0
  Ni  Ni614  1  0.22030633  0.75704317  0.23267050  1.0
  Ni  Ni615  1  0.55363967  0.09037650  0.23267050  1.0
  Ni  Ni616  1  0.55363967  0.42370983  0.23267050  1.0
  Ni  Ni617  1  0.55363967  0.75704317  0.23267050  1.0
  Ni  Ni618  1  0.88697300  0.09037650  0.23267050  1.0
  Ni  Ni619  1  0.88697300  0.42370983  0.23267050  1.0
  Ni  Ni620  1  0.88697300  0.75704317  0.23267050  1.0
  Ni  Ni621  1  0.22030633  0.25704317  0.33267050  1.0
  Ni  Ni622  1  0.22030633  0.59037650  0.33267050  1.0
  Ni  Ni623  1  0.22030633  0.92370983  0.33267050  1.0
  Ni  Ni624  1  0.55363967  0.25704317  0.33267050  1.0
  Ni  Ni625  1  0.55363967  0.59037650  0.33267050  1.0
  Ni  Ni626  1  0.55363967  0.92370983  0.33267050  1.0
  Ni  Ni627  1  0.88697300  0.25704317  0.33267050  1.0
  Ni  Ni628  1  0.88697300  0.59037650  0.33267050  1.0
  Ni  Ni629  1  0.88697300  0.92370983  0.33267050  1.0
  Ni  Ni630  1  0.05958467  0.09181167  0.33639160  1.0
  Ni  Ni631  1  0.05958467  0.42514500  0.33639160  1.0
  Ni  Ni632  1  0.05958467  0.75847833  0.33639160  1.0
  Ni  Ni633  1  0.39291800  0.09181167  0.33639160  1.0
  Ni  Ni634  1  0.39291800  0.42514500  0.33639160  1.0
  Ni  Ni635  1  0.39291800  0.75847833  0.33639160  1.0
  Ni  Ni636  1  0.72625133  0.09181167  0.33639160  1.0
  Ni  Ni637  1  0.72625133  0.42514500  0.33639160  1.0
  Ni  Ni638  1  0.72625133  0.75847833  0.33639160  1.0
  Ni  Ni639  1  0.05958467  0.25847833  0.23639160  1.0
  Ni  Ni640  1  0.05958467  0.59181167  0.23639160  1.0
  Ni  Ni641  1  0.05958467  0.92514500  0.23639160  1.0
  Ni  Ni642  1  0.39291800  0.25847833  0.23639160  1.0
  Ni  Ni643  1  0.39291800  0.59181167  0.23639160  1.0
  Ni  Ni644  1  0.39291800  0.92514500  0.23639160  1.0
  Ni  Ni645  1  0.72625133  0.25847833  0.23639160  1.0
  Ni  Ni646  1  0.72625133  0.59181167  0.23639160  1.0
  Ni  Ni647  1  0.72625133  0.92514500  0.23639160  1.0
  Ni  Ni648  1  0.27374867  0.07485500  0.34656560  1.0
  Ni  Ni649  1  0.27374867  0.40818833  0.34656560  1.0
  Ni  Ni650  1  0.27374867  0.74152167  0.34656560  1.0
  Ni  Ni651  1  0.60708200  0.07485500  0.34656560  1.0
  Ni  Ni652  1  0.60708200  0.40818833  0.34656560  1.0
  Ni  Ni653  1  0.60708200  0.74152167  0.34656560  1.0
  Ni  Ni654  1  0.94041533  0.07485500  0.34656560  1.0
  Ni  Ni655  1  0.94041533  0.40818833  0.34656560  1.0
  Ni  Ni656  1  0.94041533  0.74152167  0.34656560  1.0
  Ni  Ni657  1  0.27374867  0.24152167  0.24656560  1.0
  Ni  Ni658  1  0.27374867  0.57485500  0.24656560  1.0
  Ni  Ni659  1  0.27374867  0.90818833  0.24656560  1.0
  Ni  Ni660  1  0.60708200  0.24152167  0.24656560  1.0
  Ni  Ni661  1  0.60708200  0.57485500  0.24656560  1.0
  Ni  Ni662  1  0.60708200  0.90818833  0.24656560  1.0
  Ni  Ni663  1  0.94041533  0.24152167  0.24656560  1.0
  Ni  Ni664  1  0.94041533  0.57485500  0.24656560  1.0
  Ni  Ni665  1  0.94041533  0.90818833  0.24656560  1.0
  Ni  Ni666  1  0.17078833  0.12363300  0.31729880  1.0
  Ni  Ni667  1  0.17078833  0.45696633  0.31729880  1.0
  Ni  Ni668  1  0.17078833  0.79029967  0.31729880  1.0
  Ni  Ni669  1  0.50412167  0.12363300  0.31729880  1.0
  Ni  Ni670  1  0.50412167  0.45696633  0.31729880  1.0
  Ni  Ni671  1  0.50412167  0.79029967  0.31729880  1.0
  Ni  Ni672  1  0.83745500  0.12363300  0.31729880  1.0
  Ni  Ni673  1  0.83745500  0.45696633  0.31729880  1.0
  Ni  Ni674  1  0.83745500  0.79029967  0.31729880  1.0
  Ni  Ni675  1  0.17078833  0.29029967  0.21729880  1.0
  Ni  Ni676  1  0.17078833  0.62363300  0.21729880  1.0
  Ni  Ni677  1  0.17078833  0.95696633  0.21729880  1.0
  Ni  Ni678  1  0.50412167  0.29029967  0.21729880  1.0
  Ni  Ni679  1  0.50412167  0.62363300  0.21729880  1.0
  Ni  Ni680  1  0.50412167  0.95696633  0.21729880  1.0
  Ni  Ni681  1  0.83745500  0.29029967  0.21729880  1.0
  Ni  Ni682  1  0.83745500  0.62363300  0.21729880  1.0
  Ni  Ni683  1  0.83745500  0.95696633  0.21729880  1.0
  Ni  Ni684  1  0.16254500  0.04303367  0.36565840  1.0
  Ni  Ni685  1  0.16254500  0.37636700  0.36565840  1.0
  Ni  Ni686  1  0.16254500  0.70970033  0.36565840  1.0
  Ni  Ni687  1  0.49587833  0.04303367  0.36565840  1.0
  Ni  Ni688  1  0.49587833  0.37636700  0.36565840  1.0
  Ni  Ni689  1  0.49587833  0.70970033  0.36565840  1.0
  Ni  Ni690  1  0.82921167  0.04303367  0.36565840  1.0
  Ni  Ni691  1  0.82921167  0.37636700  0.36565840  1.0
  Ni  Ni692  1  0.82921167  0.70970033  0.36565840  1.0
  Ni  Ni693  1  0.16254500  0.20970033  0.26565840  1.0
  Ni  Ni694  1  0.16254500  0.54303367  0.26565840  1.0
  Ni  Ni695  1  0.16254500  0.87636700  0.26565840  1.0
  Ni  Ni696  1  0.49587833  0.20970033  0.26565840  1.0
  Ni  Ni697  1  0.49587833  0.54303367  0.26565840  1.0
  Ni  Ni698  1  0.49587833  0.87636700  0.26565840  1.0
  Ni  Ni699  1  0.82921167  0.20970033  0.26565840  1.0
  Ni  Ni700  1  0.82921167  0.54303367  0.26565840  1.0
  Ni  Ni701  1  0.82921167  0.87636700  0.26565840  1.0
  Ni  Ni702  1  0.00000000  0.04331683  0.26944890  1.0
  Ni  Ni703  1  0.00000000  0.37665017  0.26944890  1.0
  Ni  Ni704  1  0.00000000  0.70998350  0.26944890  1.0
  Ni  Ni705  1  0.33333333  0.04331683  0.26944890  1.0
  Ni  Ni706  1  0.33333333  0.37665017  0.26944890  1.0
  Ni  Ni707  1  0.33333333  0.70998350  0.26944890  1.0
  Ni  Ni708  1  0.66666667  0.04331683  0.26944890  1.0
  Ni  Ni709  1  0.66666667  0.37665017  0.26944890  1.0
  Ni  Ni710  1  0.66666667  0.70998350  0.26944890  1.0
  Ni  Ni711  1  0.00000000  0.20998350  0.36944890  1.0
  Ni  Ni712  1  0.00000000  0.54331683  0.36944890  1.0
  Ni  Ni713  1  1.00000000  0.87665017  0.36944890  1.0
  Ni  Ni714  1  0.33333333  0.20998350  0.36944890  1.0
  Ni  Ni715  1  0.33333333  0.54331683  0.36944890  1.0
  Ni  Ni716  1  0.33333333  0.87665017  0.36944890  1.0
  Ni  Ni717  1  0.66666667  0.20998350  0.36944890  1.0
  Ni  Ni718  1  0.66666667  0.54331683  0.36944890  1.0
  Ni  Ni719  1  0.66666667  0.87665017  0.36944890  1.0
  Ni  Ni720  1  0.16666667  0.16666667  0.29147860  1.0
  Ni  Ni721  1  0.16666667  0.50000000  0.29147860  1.0
  Ni  Ni722  1  0.16666667  0.83333333  0.29147860  1.0
  Ni  Ni723  1  0.50000000  0.16666667  0.29147860  1.0
  Ni  Ni724  1  0.50000000  0.50000000  0.29147860  1.0
  Ni  Ni725  1  0.50000000  0.83333333  0.29147860  1.0
  Ni  Ni726  1  0.83333333  0.16666667  0.29147860  1.0
  Ni  Ni727  1  0.83333333  0.50000000  0.29147860  1.0
  Ni  Ni728  1  0.83333333  0.83333333  0.29147860  1.0
  Ni  Ni729  1  0.16666667  0.00000000  0.39147860  1.0
  Ni  Ni730  1  0.16666667  0.33333333  0.39147860  1.0
  Ni  Ni731  1  0.16666667  0.66666667  0.39147860  1.0
  Ni  Ni732  1  0.50000000  0.00000000  0.39147860  1.0
  Ni  Ni733  1  0.50000000  0.33333333  0.39147860  1.0
  Ni  Ni734  1  0.50000000  0.66666667  0.39147860  1.0
  Ni  Ni735  1  0.83333333  0.00000000  0.39147860  1.0
  Ni  Ni736  1  0.83333333  0.33333333  0.39147860  1.0
  Ni  Ni737  1  0.83333333  0.66666667  0.39147860  1.0
  Ni  Ni738  1  0.00000000  0.16666667  0.39147860  1.0
  Ni  Ni739  1  0.00000000  0.50000000  0.39147860  1.0
  Ni  Ni740  1  1.00000000  0.83333333  0.39147860  1.0
  Ni  Ni741  1  0.33333333  0.16666667  0.39147860  1.0
  Ni  Ni742  1  0.33333333  0.50000000  0.39147860  1.0
  Ni  Ni743  1  0.33333333  0.83333333  0.39147860  1.0
  Ni  Ni744  1  0.66666667  0.16666667  0.39147860  1.0
  Ni  Ni745  1  0.66666667  0.50000000  0.39147860  1.0
  Ni  Ni746  1  0.66666667  0.83333333  0.39147860  1.0
  Ni  Ni747  1  0.00000000  0.00000000  0.29147860  1.0
  Ni  Ni748  1  0.00000000  0.33333333  0.29147860  1.0
  Ni  Ni749  1  0.00000000  0.66666667  0.29147860  1.0
  Ni  Ni750  1  0.33333333  0.00000000  0.29147860  1.0
  Ni  Ni751  1  0.33333333  0.33333333  0.29147860  1.0
  Ni  Ni752  1  0.33333333  0.66666667  0.29147860  1.0
  Ni  Ni753  1  0.66666667  0.00000000  0.29147860  1.0
  Ni  Ni754  1  0.66666667  0.33333333  0.29147860  1.0
  Ni  Ni755  1  0.66666667  0.66666667  0.29147860  1.0
  Ni  Ni756  1  0.00000000  0.08333333  0.24147860  1.0
  Ni  Ni757  1  0.00000000  0.41666667  0.24147860  1.0
  Ni  Ni758  1  1.00000000  0.75000000  0.24147860  1.0
  Ni  Ni759  1  0.33333333  0.08333333  0.24147860  1.0
  Ni  Ni760  1  0.33333333  0.41666667  0.24147860  1.0
  Ni  Ni761  1  0.33333333  0.75000000  0.24147860  1.0
  Ni  Ni762  1  0.66666667  0.08333333  0.24147860  1.0
  Ni  Ni763  1  0.66666667  0.41666667  0.24147860  1.0
  Ni  Ni764  1  0.66666667  0.75000000  0.24147860  1.0
  Ni  Ni765  1  0.00000000  0.25000000  0.34147860  1.0
  Ni  Ni766  1  1.00000000  0.58333333  0.34147860  1.0
  Ni  Ni767  1  0.00000000  0.91666667  0.34147860  1.0
  Ni  Ni768  1  0.33333333  0.25000000  0.34147860  1.0
  Ni  Ni769  1  0.33333333  0.58333333  0.34147860  1.0
  Ni  Ni770  1  0.33333333  0.91666667  0.34147860  1.0
  Ni  Ni771  1  0.66666667  0.25000000  0.34147860  1.0
  Ni  Ni772  1  0.66666667  0.58333333  0.34147860  1.0
  Ni  Ni773  1  0.66666667  0.91666667  0.34147860  1.0
  Ni  Ni774  1  0.00000000  0.12334983  0.21350830  1.0
  Ni  Ni775  1  0.00000000  0.45668317  0.21350830  1.0
  Ni  Ni776  1  0.00000000  0.79001650  0.21350830  1.0
  Ni  Ni777  1  0.33333333  0.12334983  0.21350830  1.0
  Ni  Ni778  1  0.33333333  0.45668317  0.21350830  1.0
  Ni  Ni779  1  0.33333333  0.79001650  0.21350830  1.0
  Ni  Ni780  1  0.66666667  0.12334983  0.21350830  1.0
  Ni  Ni781  1  0.66666667  0.45668317  0.21350830  1.0
  Ni  Ni782  1  0.66666667  0.79001650  0.21350830  1.0
  Ni  Ni783  1  0.00000000  0.29001650  0.31350830  1.0
  Ni  Ni784  1  0.00000000  0.62334983  0.31350830  1.0
  Ni  Ni785  1  0.00000000  0.95668317  0.31350830  1.0
  Ni  Ni786  1  0.33333333  0.29001650  0.31350830  1.0
  Ni  Ni787  1  0.33333333  0.62334983  0.31350830  1.0
  Ni  Ni788  1  0.33333333  0.95668317  0.31350830  1.0
  Ni  Ni789  1  0.66666667  0.29001650  0.31350830  1.0
  Ni  Ni790  1  0.66666667  0.62334983  0.31350830  1.0
  Ni  Ni791  1  0.66666667  0.95668317  0.31350830  1.0
