# generated using pymatgen
data_Ga9Ni13
_symmetry_space_group_name_H-M   'P 1'
_cell_length_a   23.80705972
_cell_length_b   46.32439166
_cell_length_c   31.30017733
_cell_angle_alpha   85.94146676
_cell_angle_beta   86.67204201
_cell_angle_gamma   82.49289684
_symmetry_Int_Tables_number   1
_chemical_formula_structural   Ga9Ni13
_chemical_formula_sum   'Ga486 Ni702'
_cell_volume   34096.02915152
_cell_formula_units_Z   54
loop_
 _symmetry_equiv_pos_site_id
 _symmetry_equiv_pos_as_xyz
  1  'x, y, z'
loop_
 _atom_site_type_symbol
 _atom_site_label
 _atom_site_symmetry_multiplicity
 _atom_site_fract_x
 _atom_site_fract_y
 _atom_site_fract_z
 _atom_site_occupancy
  Ga  Ga0  1  0.14986657  0.20638610  0.07032336  1.0
  Ga  Ga1  1  0.14986657  0.53971943  0.07032336  1.0
  Ga  Ga2  1  0.14986657  0.87305276  0.07032336  1.0
  Ga  Ga3  1  0.48319990  0.20638610  0.07032336  1.0
  Ga  Ga4  1  0.48319990  0.53971943  0.07032336  1.0
  Ga  Ga5  1  0.48319990  0.87305276  0.07032336  1.0
  Ga  Ga6  1  0.81653324  0.20638610  0.07032336  1.0
  Ga  Ga7  1  0.81653324  0.53971943  0.07032336  1.0
  Ga  Ga8  1  0.81653324  0.87305276  0.07032336  1.0
  Ga  Ga9  1  0.19748562  0.32543371  0.14175193  1.0
  Ga  Ga10  1  0.19748562  0.65876705  0.14175193  1.0
  Ga  Ga11  1  0.19748562  0.99210038  0.14175193  1.0
  Ga  Ga12  1  0.53081895  0.32543371  0.14175193  1.0
  Ga  Ga13  1  0.53081895  0.65876705  0.14175193  1.0
  Ga  Ga14  1  0.53081895  0.99210038  0.14175193  1.0
  Ga  Ga15  1  0.86415229  0.32543371  0.14175193  1.0
  Ga  Ga16  1  0.86415229  0.65876705  0.14175193  1.0
  Ga  Ga17  1  0.86415229  0.99210038  0.14175193  1.0
  Ga  Ga18  1  0.26274557  0.14420693  0.04859486  1.0
  Ga  Ga19  1  0.26274557  0.47754026  0.04859486  1.0
  Ga  Ga20  1  0.26274557  0.81087360  0.04859486  1.0
  Ga  Ga21  1  0.59607890  0.14420693  0.04859486  1.0
  Ga  Ga22  1  0.59607890  0.47754026  0.04859486  1.0
  Ga  Ga23  1  0.59607890  0.81087360  0.04859486  1.0
  Ga  Ga24  1  0.92941224  0.14420693  0.04859486  1.0
  Ga  Ga25  1  0.92941224  0.47754026  0.04859486  1.0
  Ga  Ga26  1  0.92941224  0.81087360  0.04859486  1.0
  Ga  Ga27  1  0.31036462  0.26325455  0.12002343  1.0
  Ga  Ga28  1  0.31036462  0.59658788  0.12002343  1.0
  Ga  Ga29  1  0.31036462  0.92992121  0.12002343  1.0
  Ga  Ga30  1  0.64369795  0.26325455  0.12002343  1.0
  Ga  Ga31  1  0.64369795  0.59658788  0.12002343  1.0
  Ga  Ga32  1  0.64369795  0.92992121  0.12002343  1.0
  Ga  Ga33  1  0.97703129  0.26325455  0.12002343  1.0
  Ga  Ga34  1  0.97703129  0.59658788  0.12002343  1.0
  Ga  Ga35  1  0.97703129  0.92992121  0.12002343  1.0
  Ga  Ga36  1  0.27523638  0.03517762  0.06733107  1.0
  Ga  Ga37  1  0.27523638  0.36851095  0.06733107  1.0
  Ga  Ga38  1  0.27523638  0.70184429  0.06733107  1.0
  Ga  Ga39  1  0.60856971  0.03517762  0.06733107  1.0
  Ga  Ga40  1  0.60856971  0.36851095  0.06733107  1.0
  Ga  Ga41  1  0.60856971  0.70184429  0.06733107  1.0
  Ga  Ga42  1  0.94190305  0.03517762  0.06733107  1.0
  Ga  Ga43  1  0.94190305  0.36851095  0.06733107  1.0
  Ga  Ga44  1  0.94190305  0.70184429  0.06733107  1.0
  Ga  Ga45  1  0.32285543  0.15422524  0.13875964  1.0
  Ga  Ga46  1  0.32285543  0.48755857  0.13875964  1.0
  Ga  Ga47  1  0.32285543  0.82089190  0.13875964  1.0
  Ga  Ga48  1  0.65618876  0.15422524  0.13875964  1.0
  Ga  Ga49  1  0.65618876  0.48755857  0.13875964  1.0
  Ga  Ga50  1  0.65618876  0.82089190  0.13875964  1.0
  Ga  Ga51  1  0.98952210  0.15422524  0.13875964  1.0
  Ga  Ga52  1  0.98952210  0.48755857  0.13875964  1.0
  Ga  Ga53  1  0.98952210  0.82089190  0.13875964  1.0
  Ga  Ga54  1  0.16235738  0.09735679  0.08905957  1.0
  Ga  Ga55  1  0.16235738  0.43069012  0.08905957  1.0
  Ga  Ga56  1  0.16235738  0.76402345  0.08905957  1.0
  Ga  Ga57  1  0.49569071  0.09735679  0.08905957  1.0
  Ga  Ga58  1  0.49569071  0.43069012  0.08905957  1.0
  Ga  Ga59  1  0.49569071  0.76402345  0.08905957  1.0
  Ga  Ga60  1  0.82902405  0.09735679  0.08905957  1.0
  Ga  Ga61  1  0.82902405  0.43069012  0.08905957  1.0
  Ga  Ga62  1  0.82902405  0.76402345  0.08905957  1.0
  Ga  Ga63  1  0.11473833  0.31164250  0.01763100  1.0
  Ga  Ga64  1  0.11473833  0.64497583  0.01763100  1.0
  Ga  Ga65  1  0.11473833  0.97830917  0.01763100  1.0
  Ga  Ga66  1  0.44807167  0.31164250  0.01763100  1.0
  Ga  Ga67  1  0.44807167  0.64497583  0.01763100  1.0
  Ga  Ga68  1  0.44807167  0.97830917  0.01763100  1.0
  Ga  Ga69  1  0.78140500  0.31164250  0.01763100  1.0
  Ga  Ga70  1  0.78140500  0.64497583  0.01763100  1.0
  Ga  Ga71  1  0.78140500  0.97830917  0.01763100  1.0
  Ga  Ga72  1  0.06998605  0.14387845  0.04859957  1.0
  Ga  Ga73  1  0.06998605  0.47721179  0.04859957  1.0
  Ga  Ga74  1  0.06998605  0.81054512  0.04859957  1.0
  Ga  Ga75  1  0.40331938  0.14387845  0.04859957  1.0
  Ga  Ga76  1  0.40331938  0.47721179  0.04859957  1.0
  Ga  Ga77  1  0.40331938  0.81054512  0.04859957  1.0
  Ga  Ga78  1  0.73665271  0.14387845  0.04859957  1.0
  Ga  Ga79  1  0.73665271  0.47721179  0.04859957  1.0
  Ga  Ga80  1  0.73665271  0.81054512  0.04859957  1.0
  Ga  Ga81  1  0.11760510  0.26292607  0.12002814  1.0
  Ga  Ga82  1  0.11760510  0.59625940  0.12002814  1.0
  Ga  Ga83  1  0.11760510  0.92959274  0.12002814  1.0
  Ga  Ga84  1  0.45093843  0.26292607  0.12002814  1.0
  Ga  Ga85  1  0.45093843  0.59625940  0.12002814  1.0
  Ga  Ga86  1  0.45093843  0.92959274  0.12002814  1.0
  Ga  Ga87  1  0.78427176  0.26292607  0.12002814  1.0
  Ga  Ga88  1  0.78427176  0.59625940  0.12002814  1.0
  Ga  Ga89  1  0.78427176  0.92959274  0.12002814  1.0
  Ga  Ga90  1  0.02178357  0.09768526  0.08905486  1.0
  Ga  Ga91  1  0.02178357  0.43101860  0.08905486  1.0
  Ga  Ga92  1  0.02178357  0.76435193  0.08905486  1.0
  Ga  Ga93  1  0.35511690  0.09768526  0.08905486  1.0
  Ga  Ga94  1  0.35511690  0.43101860  0.08905486  1.0
  Ga  Ga95  1  0.35511690  0.76435193  0.08905486  1.0
  Ga  Ga96  1  0.68845024  0.09768526  0.08905486  1.0
  Ga  Ga97  1  0.68845024  0.43101860  0.08905486  1.0
  Ga  Ga98  1  0.68845024  0.76435193  0.08905486  1.0
  Ga  Ga99  1  0.30749786  0.31197098  0.01762629  1.0
  Ga  Ga100  1  0.30749786  0.64530431  0.01762629  1.0
  Ga  Ga101  1  0.30749786  0.97863764  0.01762629  1.0
  Ga  Ga102  1  0.64083119  0.31197098  0.01762629  1.0
  Ga  Ga103  1  0.64083119  0.64530431  0.01762629  1.0
  Ga  Ga104  1  0.64083119  0.97863764  0.01762629  1.0
  Ga  Ga105  1  0.97416452  0.31197098  0.01762629  1.0
  Ga  Ga106  1  0.97416452  0.64530431  0.01762629  1.0
  Ga  Ga107  1  0.97416452  0.97863764  0.01762629  1.0
  Ga  Ga108  1  0.05997819  0.25259281  0.00629679  1.0
  Ga  Ga109  1  0.05997819  0.58592614  0.00629679  1.0
  Ga  Ga110  1  0.05997819  0.91925948  0.00629679  1.0
  Ga  Ga111  1  0.39331152  0.25259281  0.00629679  1.0
  Ga  Ga112  1  0.39331152  0.58592614  0.00629679  1.0
  Ga  Ga113  1  0.39331152  0.91925948  0.00629679  1.0
  Ga  Ga114  1  0.72664486  0.25259281  0.00629679  1.0
  Ga  Ga115  1  0.72664486  0.58592614  0.00629679  1.0
  Ga  Ga116  1  0.72664486  0.91925948  0.00629679  1.0
  Ga  Ga117  1  0.10759724  0.03830710  0.07772536  1.0
  Ga  Ga118  1  0.10759724  0.37164043  0.07772536  1.0
  Ga  Ga119  1  0.10759724  0.70497376  0.07772536  1.0
  Ga  Ga120  1  0.44093057  0.03830710  0.07772536  1.0
  Ga  Ga121  1  0.44093057  0.37164043  0.07772536  1.0
  Ga  Ga122  1  0.44093057  0.70497376  0.07772536  1.0
  Ga  Ga123  1  0.77426390  0.03830710  0.07772536  1.0
  Ga  Ga124  1  0.77426390  0.37164043  0.07772536  1.0
  Ga  Ga125  1  0.77426390  0.70497376  0.07772536  1.0
  Ga  Ga126  1  0.03179143  0.32230424  0.13135764  1.0
  Ga  Ga127  1  0.03179143  0.65563757  0.13135764  1.0
  Ga  Ga128  1  0.03179143  0.98897090  0.13135764  1.0
  Ga  Ga129  1  0.36512476  0.32230424  0.13135764  1.0
  Ga  Ga130  1  0.36512476  0.65563757  0.13135764  1.0
  Ga  Ga131  1  0.36512476  0.98897090  0.13135764  1.0
  Ga  Ga132  1  0.69845810  0.32230424  0.13135764  1.0
  Ga  Ga133  1  0.69845810  0.65563757  0.13135764  1.0
  Ga  Ga134  1  0.69845810  0.98897090  0.13135764  1.0
  Ga  Ga135  1  0.31750571  0.20325662  0.05992907  1.0
  Ga  Ga136  1  0.31750571  0.53658995  0.05992907  1.0
  Ga  Ga137  1  0.31750571  0.86992329  0.05992907  1.0
  Ga  Ga138  1  0.65083905  0.20325662  0.05992907  1.0
  Ga  Ga139  1  0.65083905  0.53658995  0.05992907  1.0
  Ga  Ga140  1  0.65083905  0.86992329  0.05992907  1.0
  Ga  Ga141  1  0.98417238  0.20325662  0.05992907  1.0
  Ga  Ga142  1  0.98417238  0.53658995  0.05992907  1.0
  Ga  Ga143  1  0.98417238  0.86992329  0.05992907  1.0
  Ga  Ga144  1  0.26017052  0.07316281  0.14025579  1.0
  Ga  Ga145  1  0.26017052  0.40649614  0.14025579  1.0
  Ga  Ga146  1  0.26017052  0.73982948  0.14025579  1.0
  Ga  Ga147  1  0.59350386  0.07316281  0.14025579  1.0
  Ga  Ga148  1  0.59350386  0.40649614  0.14025579  1.0
  Ga  Ga149  1  0.59350386  0.73982948  0.14025579  1.0
  Ga  Ga150  1  0.92683719  0.07316281  0.14025579  1.0
  Ga  Ga151  1  0.92683719  0.40649614  0.14025579  1.0
  Ga  Ga152  1  0.92683719  0.73982948  0.14025579  1.0
  Ga  Ga153  1  0.21255148  0.28744852  0.06882721  1.0
  Ga  Ga154  1  0.21255148  0.62078186  0.06882721  1.0
  Ga  Ga155  1  0.21255148  0.95411519  0.06882721  1.0
  Ga  Ga156  1  0.54588481  0.28744852  0.06882721  1.0
  Ga  Ga157  1  0.54588481  0.62078186  0.06882721  1.0
  Ga  Ga158  1  0.54588481  0.95411519  0.06882721  1.0
  Ga  Ga159  1  0.87921814  0.28744852  0.06882721  1.0
  Ga  Ga160  1  0.87921814  0.62078186  0.06882721  1.0
  Ga  Ga161  1  0.87921814  0.95411519  0.06882721  1.0
  Ga  Ga162  1  0.24510467  0.11114800  0.21318050  1.0
  Ga  Ga163  1  0.24510467  0.44448133  0.21318050  1.0
  Ga  Ga164  1  0.24510467  0.77781467  0.21318050  1.0
  Ga  Ga165  1  0.57843800  0.11114800  0.21318050  1.0
  Ga  Ga166  1  0.57843800  0.44448133  0.21318050  1.0
  Ga  Ga167  1  0.57843800  0.77781467  0.21318050  1.0
  Ga  Ga168  1  0.91177133  0.11114800  0.21318050  1.0
  Ga  Ga169  1  0.91177133  0.44448133  0.21318050  1.0
  Ga  Ga170  1  0.91177133  0.77781467  0.21318050  1.0
  Ga  Ga171  1  0.29272371  0.23019562  0.28460907  1.0
  Ga  Ga172  1  0.29272371  0.56352895  0.28460907  1.0
  Ga  Ga173  1  0.29272371  0.89686229  0.28460907  1.0
  Ga  Ga174  1  0.62605705  0.23019562  0.28460907  1.0
  Ga  Ga175  1  0.62605705  0.56352895  0.28460907  1.0
  Ga  Ga176  1  0.62605705  0.89686229  0.28460907  1.0
  Ga  Ga177  1  0.95939038  0.23019562  0.28460907  1.0
  Ga  Ga178  1  0.95939038  0.56352895  0.28460907  1.0
  Ga  Ga179  1  0.95939038  0.89686229  0.28460907  1.0
  Ga  Ga180  1  0.02465033  0.04896883  0.19145200  1.0
  Ga  Ga181  1  0.02465033  0.38230217  0.19145200  1.0
  Ga  Ga182  1  0.02465033  0.71563550  0.19145200  1.0
  Ga  Ga183  1  0.35798367  0.04896883  0.19145200  1.0
  Ga  Ga184  1  0.35798367  0.38230217  0.19145200  1.0
  Ga  Ga185  1  0.35798367  0.71563550  0.19145200  1.0
  Ga  Ga186  1  0.69131700  0.04896883  0.19145200  1.0
  Ga  Ga187  1  0.69131700  0.38230217  0.19145200  1.0
  Ga  Ga188  1  0.69131700  0.71563550  0.19145200  1.0
  Ga  Ga189  1  0.07226938  0.16801645  0.26288057  1.0
  Ga  Ga190  1  0.07226938  0.50134979  0.26288057  1.0
  Ga  Ga191  1  0.07226938  0.83468312  0.26288057  1.0
  Ga  Ga192  1  0.40560271  0.16801645  0.26288057  1.0
  Ga  Ga193  1  0.40560271  0.50134979  0.26288057  1.0
  Ga  Ga194  1  0.40560271  0.83468312  0.26288057  1.0
  Ga  Ga195  1  0.73893605  0.16801645  0.26288057  1.0
  Ga  Ga196  1  0.73893605  0.50134979  0.26288057  1.0
  Ga  Ga197  1  0.73893605  0.83468312  0.26288057  1.0
  Ga  Ga198  1  0.03714114  0.27327286  0.21018821  1.0
  Ga  Ga199  1  0.03714114  0.60660619  0.21018821  1.0
  Ga  Ga200  1  0.03714114  0.93993952  0.21018821  1.0
  Ga  Ga201  1  0.37047448  0.27327286  0.21018821  1.0
  Ga  Ga202  1  0.37047448  0.60660619  0.21018821  1.0
  Ga  Ga203  1  0.37047448  0.93993952  0.21018821  1.0
  Ga  Ga204  1  0.70380781  0.27327286  0.21018821  1.0
  Ga  Ga205  1  0.70380781  0.60660619  0.21018821  1.0
  Ga  Ga206  1  0.70380781  0.93993952  0.21018821  1.0
  Ga  Ga207  1  0.08476019  0.05898714  0.28161679  1.0
  Ga  Ga208  1  0.08476019  0.39232048  0.28161679  1.0
  Ga  Ga209  1  0.08476019  0.72565381  0.28161679  1.0
  Ga  Ga210  1  0.41809352  0.05898714  0.28161679  1.0
  Ga  Ga211  1  0.41809352  0.39232048  0.28161679  1.0
  Ga  Ga212  1  0.41809352  0.72565381  0.28161679  1.0
  Ga  Ga213  1  0.75142686  0.05898714  0.28161679  1.0
  Ga  Ga214  1  0.75142686  0.39232048  0.28161679  1.0
  Ga  Ga215  1  0.75142686  0.72565381  0.28161679  1.0
  Ga  Ga216  1  0.25759548  0.00211869  0.23191671  1.0
  Ga  Ga217  1  0.25759548  0.33545202  0.23191671  1.0
  Ga  Ga218  1  0.25759548  0.66878536  0.23191671  1.0
  Ga  Ga219  1  0.59092881  0.00211869  0.23191671  1.0
  Ga  Ga220  1  0.59092881  0.33545202  0.23191671  1.0
  Ga  Ga221  1  0.59092881  0.66878536  0.23191671  1.0
  Ga  Ga222  1  0.92426214  0.00211869  0.23191671  1.0
  Ga  Ga223  1  0.92426214  0.33545202  0.23191671  1.0
  Ga  Ga224  1  0.92426214  0.66878536  0.23191671  1.0
  Ga  Ga225  1  0.20997643  0.21640440  0.16048814  1.0
  Ga  Ga226  1  0.20997643  0.54973774  0.16048814  1.0
  Ga  Ga227  1  0.20997643  0.88307107  0.16048814  1.0
  Ga  Ga228  1  0.54330976  0.21640440  0.16048814  1.0
  Ga  Ga229  1  0.54330976  0.54973774  0.16048814  1.0
  Ga  Ga230  1  0.54330976  0.88307107  0.16048814  1.0
  Ga  Ga231  1  0.87664310  0.21640440  0.16048814  1.0
  Ga  Ga232  1  0.87664310  0.54973774  0.16048814  1.0
  Ga  Ga233  1  0.87664310  0.88307107  0.16048814  1.0
  Ga  Ga234  1  0.16522414  0.04864036  0.19145671  1.0
  Ga  Ga235  1  0.16522414  0.38197369  0.19145671  1.0
  Ga  Ga236  1  0.16522414  0.71530702  0.19145671  1.0
  Ga  Ga237  1  0.49855748  0.04864036  0.19145671  1.0
  Ga  Ga238  1  0.49855748  0.38197369  0.19145671  1.0
  Ga  Ga239  1  0.49855748  0.71530702  0.19145671  1.0
  Ga  Ga240  1  0.83189081  0.04864036  0.19145671  1.0
  Ga  Ga241  1  0.83189081  0.38197369  0.19145671  1.0
  Ga  Ga242  1  0.83189081  0.71530702  0.19145671  1.0
  Ga  Ga243  1  0.21284319  0.16768798  0.26288529  1.0
  Ga  Ga244  1  0.21284319  0.50102131  0.26288529  1.0
  Ga  Ga245  1  0.21284319  0.83435464  0.26288529  1.0
  Ga  Ga246  1  0.54617652  0.16768798  0.26288529  1.0
  Ga  Ga247  1  0.54617652  0.50102131  0.26288529  1.0
  Ga  Ga248  1  0.54617652  0.83435464  0.26288529  1.0
  Ga  Ga249  1  0.87950986  0.16768798  0.26288529  1.0
  Ga  Ga250  1  0.87950986  0.50102131  0.26288529  1.0
  Ga  Ga251  1  0.87950986  0.83435464  0.26288529  1.0
  Ga  Ga252  1  0.11702167  0.00244717  0.23191200  1.0
  Ga  Ga253  1  0.11702167  0.33578050  0.23191200  1.0
  Ga  Ga254  1  0.11702167  0.66911383  0.23191200  1.0
  Ga  Ga255  1  0.45035500  0.00244717  0.23191200  1.0
  Ga  Ga256  1  0.45035500  0.33578050  0.23191200  1.0
  Ga  Ga257  1  0.45035500  0.66911383  0.23191200  1.0
  Ga  Ga258  1  0.78368833  0.00244717  0.23191200  1.0
  Ga  Ga259  1  0.78368833  0.33578050  0.23191200  1.0
  Ga  Ga260  1  0.78368833  0.66911383  0.23191200  1.0
  Ga  Ga261  1  0.06940262  0.21673288  0.16048343  1.0
  Ga  Ga262  1  0.06940262  0.55006621  0.16048343  1.0
  Ga  Ga263  1  0.06940262  0.88339955  0.16048343  1.0
  Ga  Ga264  1  0.40273595  0.21673288  0.16048343  1.0
  Ga  Ga265  1  0.40273595  0.55006621  0.16048343  1.0
  Ga  Ga266  1  0.40273595  0.88339955  0.16048343  1.0
  Ga  Ga267  1  0.73606929  0.21673288  0.16048343  1.0
  Ga  Ga268  1  0.73606929  0.55006621  0.16048343  1.0
  Ga  Ga269  1  0.73606929  0.88339955  0.16048343  1.0
  Ga  Ga270  1  0.15521629  0.15735471  0.14915393  1.0
  Ga  Ga271  1  0.15521629  0.49068805  0.14915393  1.0
  Ga  Ga272  1  0.15521629  0.82402138  0.14915393  1.0
  Ga  Ga273  1  0.48854962  0.15735471  0.14915393  1.0
  Ga  Ga274  1  0.48854962  0.49068805  0.14915393  1.0
  Ga  Ga275  1  0.48854962  0.82402138  0.14915393  1.0
  Ga  Ga276  1  0.82188295  0.15735471  0.14915393  1.0
  Ga  Ga277  1  0.82188295  0.49068805  0.14915393  1.0
  Ga  Ga278  1  0.82188295  0.82402138  0.14915393  1.0
  Ga  Ga279  1  0.20283533  0.27640233  0.22058250  1.0
  Ga  Ga280  1  0.20283533  0.60973567  0.22058250  1.0
  Ga  Ga281  1  0.20283533  0.94306900  0.22058250  1.0
  Ga  Ga282  1  0.53616867  0.27640233  0.22058250  1.0
  Ga  Ga283  1  0.53616867  0.60973567  0.22058250  1.0
  Ga  Ga284  1  0.53616867  0.94306900  0.22058250  1.0
  Ga  Ga285  1  0.86950200  0.27640233  0.22058250  1.0
  Ga  Ga286  1  0.86950200  0.60973567  0.22058250  1.0
  Ga  Ga287  1  0.86950200  0.94306900  0.22058250  1.0
  Ga  Ga288  1  0.12702952  0.22706614  0.27421479  1.0
  Ga  Ga289  1  0.12702952  0.56039948  0.27421479  1.0
  Ga  Ga290  1  0.12702952  0.89373281  0.27421479  1.0
  Ga  Ga291  1  0.46036286  0.22706614  0.27421479  1.0
  Ga  Ga292  1  0.46036286  0.56039948  0.27421479  1.0
  Ga  Ga293  1  0.46036286  0.89373281  0.27421479  1.0
  Ga  Ga294  1  0.79369619  0.22706614  0.27421479  1.0
  Ga  Ga295  1  0.79369619  0.56039948  0.27421479  1.0
  Ga  Ga296  1  0.79369619  0.89373281  0.27421479  1.0
  Ga  Ga297  1  0.07941048  0.10801852  0.20278621  1.0
  Ga  Ga298  1  0.07941048  0.44135186  0.20278621  1.0
  Ga  Ga299  1  0.07941048  0.77468519  0.20278621  1.0
  Ga  Ga300  1  0.41274381  0.10801852  0.20278621  1.0
  Ga  Ga301  1  0.41274381  0.44135186  0.20278621  1.0
  Ga  Ga302  1  0.41274381  0.77468519  0.20278621  1.0
  Ga  Ga303  1  0.74607714  0.10801852  0.20278621  1.0
  Ga  Ga304  1  0.74607714  0.44135186  0.20278621  1.0
  Ga  Ga305  1  0.74607714  0.77468519  0.20278621  1.0
  Ga  Ga306  1  0.02207529  0.31125805  0.28311293  1.0
  Ga  Ga307  1  0.02207529  0.64459138  0.28311293  1.0
  Ga  Ga308  1  0.02207529  0.97792471  0.28311293  1.0
  Ga  Ga309  1  0.35540862  0.31125805  0.28311293  1.0
  Ga  Ga310  1  0.35540862  0.64459138  0.28311293  1.0
  Ga  Ga311  1  0.35540862  0.97792471  0.28311293  1.0
  Ga  Ga312  1  0.68874195  0.31125805  0.28311293  1.0
  Ga  Ga313  1  0.68874195  0.64459138  0.28311293  1.0
  Ga  Ga314  1  0.68874195  0.97792471  0.28311293  1.0
  Ga  Ga315  1  0.30778957  0.19221043  0.21168436  1.0
  Ga  Ga316  1  0.30778957  0.52554376  0.21168436  1.0
  Ga  Ga317  1  0.30778957  0.85887710  0.21168436  1.0
  Ga  Ga318  1  0.64112290  0.19221043  0.21168436  1.0
  Ga  Ga319  1  0.64112290  0.52554376  0.21168436  1.0
  Ga  Ga320  1  0.64112290  0.85887710  0.21168436  1.0
  Ga  Ga321  1  0.97445624  0.19221043  0.21168436  1.0
  Ga  Ga322  1  0.97445624  0.52554376  0.21168436  1.0
  Ga  Ga323  1  0.97445624  0.85887710  0.21168436  1.0
  Ga  Ga324  1  0.00700943  0.01590990  0.35603764  1.0
  Ga  Ga325  1  0.00700943  0.34924324  0.35603764  1.0
  Ga  Ga326  1  0.00700943  0.68257657  0.35603764  1.0
  Ga  Ga327  1  0.34034276  0.01590990  0.35603764  1.0
  Ga  Ga328  1  0.34034276  0.34924324  0.35603764  1.0
  Ga  Ga329  1  0.34034276  0.68257657  0.35603764  1.0
  Ga  Ga330  1  0.67367610  0.01590990  0.35603764  1.0
  Ga  Ga331  1  0.67367610  0.34924324  0.35603764  1.0
  Ga  Ga332  1  0.67367610  0.68257657  0.35603764  1.0
  Ga  Ga333  1  0.05462848  0.13495752  0.42746621  1.0
  Ga  Ga334  1  0.05462848  0.46829086  0.42746621  1.0
  Ga  Ga335  1  0.05462848  0.80162419  0.42746621  1.0
  Ga  Ga336  1  0.38796181  0.13495752  0.42746621  1.0
  Ga  Ga337  1  0.38796181  0.46829086  0.42746621  1.0
  Ga  Ga338  1  0.38796181  0.80162419  0.42746621  1.0
  Ga  Ga339  1  0.72129514  0.13495752  0.42746621  1.0
  Ga  Ga340  1  0.72129514  0.46829086  0.42746621  1.0
  Ga  Ga341  1  0.72129514  0.80162419  0.42746621  1.0
  Ga  Ga342  1  0.11988843  0.28706407  0.33430914  1.0
  Ga  Ga343  1  0.11988843  0.62039740  0.33430914  1.0
  Ga  Ga344  1  0.11988843  0.95373074  0.33430914  1.0
  Ga  Ga345  1  0.45322176  0.28706407  0.33430914  1.0
  Ga  Ga346  1  0.45322176  0.62039740  0.33430914  1.0
  Ga  Ga347  1  0.45322176  0.95373074  0.33430914  1.0
  Ga  Ga348  1  0.78655510  0.28706407  0.33430914  1.0
  Ga  Ga349  1  0.78655510  0.62039740  0.33430914  1.0
  Ga  Ga350  1  0.78655510  0.95373074  0.33430914  1.0
  Ga  Ga351  1  0.16750748  0.07277836  0.40573771  1.0
  Ga  Ga352  1  0.16750748  0.40611169  0.40573771  1.0
  Ga  Ga353  1  0.16750748  0.73944502  0.40573771  1.0
  Ga  Ga354  1  0.50084081  0.07277836  0.40573771  1.0
  Ga  Ga355  1  0.50084081  0.40611169  0.40573771  1.0
  Ga  Ga356  1  0.50084081  0.73944502  0.40573771  1.0
  Ga  Ga357  1  0.83417414  0.07277836  0.40573771  1.0
  Ga  Ga358  1  0.83417414  0.40611169  0.40573771  1.0
  Ga  Ga359  1  0.83417414  0.73944502  0.40573771  1.0
  Ga  Ga360  1  0.13237924  0.17803476  0.35304536  1.0
  Ga  Ga361  1  0.13237924  0.51136810  0.35304536  1.0
  Ga  Ga362  1  0.13237924  0.84470143  0.35304536  1.0
  Ga  Ga363  1  0.46571257  0.17803476  0.35304536  1.0
  Ga  Ga364  1  0.46571257  0.51136810  0.35304536  1.0
  Ga  Ga365  1  0.46571257  0.84470143  0.35304536  1.0
  Ga  Ga366  1  0.79904590  0.17803476  0.35304536  1.0
  Ga  Ga367  1  0.79904590  0.51136810  0.35304536  1.0
  Ga  Ga368  1  0.79904590  0.84470143  0.35304536  1.0
  Ga  Ga369  1  0.17999829  0.29708238  0.42447393  1.0
  Ga  Ga370  1  0.17999829  0.63041571  0.42447393  1.0
  Ga  Ga371  1  0.17999829  0.96374905  0.42447393  1.0
  Ga  Ga372  1  0.51333162  0.29708238  0.42447393  1.0
  Ga  Ga373  1  0.51333162  0.63041571  0.42447393  1.0
  Ga  Ga374  1  0.51333162  0.96374905  0.42447393  1.0
  Ga  Ga375  1  0.84666495  0.29708238  0.42447393  1.0
  Ga  Ga376  1  0.84666495  0.63041571  0.42447393  1.0
  Ga  Ga377  1  0.84666495  0.96374905  0.42447393  1.0
  Ga  Ga378  1  0.01950024  0.24021393  0.37477386  1.0
  Ga  Ga379  1  0.01950024  0.57354726  0.37477386  1.0
  Ga  Ga380  1  0.01950024  0.90688060  0.37477386  1.0
  Ga  Ga381  1  0.35283357  0.24021393  0.37477386  1.0
  Ga  Ga382  1  0.35283357  0.57354726  0.37477386  1.0
  Ga  Ga383  1  0.35283357  0.90688060  0.37477386  1.0
  Ga  Ga384  1  0.68616690  0.24021393  0.37477386  1.0
  Ga  Ga385  1  0.68616690  0.57354726  0.37477386  1.0
  Ga  Ga386  1  0.68616690  0.90688060  0.37477386  1.0
  Ga  Ga387  1  0.30521452  0.12116631  0.30334529  1.0
  Ga  Ga388  1  0.30521452  0.45449964  0.30334529  1.0
  Ga  Ga389  1  0.30521452  0.78783298  0.30334529  1.0
  Ga  Ga390  1  0.63854786  0.12116631  0.30334529  1.0
  Ga  Ga391  1  0.63854786  0.45449964  0.30334529  1.0
  Ga  Ga392  1  0.63854786  0.78783298  0.30334529  1.0
  Ga  Ga393  1  0.97188119  0.12116631  0.30334529  1.0
  Ga  Ga394  1  0.97188119  0.45449964  0.30334529  1.0
  Ga  Ga395  1  0.97188119  0.78783298  0.30334529  1.0
  Ga  Ga396  1  0.26046224  0.28673560  0.33431386  1.0
  Ga  Ga397  1  0.26046224  0.62006893  0.33431386  1.0
  Ga  Ga398  1  0.26046224  0.95340226  0.33431386  1.0
  Ga  Ga399  1  0.59379557  0.28673560  0.33431386  1.0
  Ga  Ga400  1  0.59379557  0.62006893  0.33431386  1.0
  Ga  Ga401  1  0.59379557  0.95340226  0.33431386  1.0
  Ga  Ga402  1  0.92712890  0.28673560  0.33431386  1.0
  Ga  Ga403  1  0.92712890  0.62006893  0.33431386  1.0
  Ga  Ga404  1  0.92712890  0.95340226  0.33431386  1.0
  Ga  Ga405  1  0.30808129  0.07244988  0.40574243  1.0
  Ga  Ga406  1  0.30808129  0.40578321  0.40574243  1.0
  Ga  Ga407  1  0.30808129  0.73911655  0.40574243  1.0
  Ga  Ga408  1  0.64141462  0.07244988  0.40574243  1.0
  Ga  Ga409  1  0.64141462  0.40578321  0.40574243  1.0
  Ga  Ga410  1  0.64141462  0.73911655  0.40574243  1.0
  Ga  Ga411  1  0.97474795  0.07244988  0.40574243  1.0
  Ga  Ga412  1  0.97474795  0.40578321  0.40574243  1.0
  Ga  Ga413  1  0.97474795  0.73911655  0.40574243  1.0
  Ga  Ga414  1  0.21225976  0.24054240  0.37476914  1.0
  Ga  Ga415  1  0.21225976  0.57387574  0.37476914  1.0
  Ga  Ga416  1  0.21225976  0.90720907  0.37476914  1.0
  Ga  Ga417  1  0.54559310  0.24054240  0.37476914  1.0
  Ga  Ga418  1  0.54559310  0.57387574  0.37476914  1.0
  Ga  Ga419  1  0.54559310  0.90720907  0.37476914  1.0
  Ga  Ga420  1  0.87892643  0.24054240  0.37476914  1.0
  Ga  Ga421  1  0.87892643  0.57387574  0.37476914  1.0
  Ga  Ga422  1  0.87892643  0.90720907  0.37476914  1.0
  Ga  Ga423  1  0.16464071  0.12149479  0.30334057  1.0
  Ga  Ga424  1  0.16464071  0.45482812  0.30334057  1.0
  Ga  Ga425  1  0.16464071  0.78816145  0.30334057  1.0
  Ga  Ga426  1  0.49797405  0.12149479  0.30334057  1.0
  Ga  Ga427  1  0.49797405  0.45482812  0.30334057  1.0
  Ga  Ga428  1  0.49797405  0.78816145  0.30334057  1.0
  Ga  Ga429  1  0.83130738  0.12149479  0.30334057  1.0
  Ga  Ga430  1  0.83130738  0.45482812  0.30334057  1.0
  Ga  Ga431  1  0.83130738  0.78816145  0.30334057  1.0
  Ga  Ga432  1  0.25045438  0.06211662  0.29201107  1.0
  Ga  Ga433  1  0.25045438  0.39544995  0.29201107  1.0
  Ga  Ga434  1  0.25045438  0.72878329  0.29201107  1.0
  Ga  Ga435  1  0.58378771  0.06211662  0.29201107  1.0
  Ga  Ga436  1  0.58378771  0.39544995  0.29201107  1.0
  Ga  Ga437  1  0.58378771  0.72878329  0.29201107  1.0
  Ga  Ga438  1  0.91712105  0.06211662  0.29201107  1.0
  Ga  Ga439  1  0.91712105  0.39544995  0.29201107  1.0
  Ga  Ga440  1  0.91712105  0.72878329  0.29201107  1.0
  Ga  Ga441  1  0.29807343  0.18116424  0.36343964  1.0
  Ga  Ga442  1  0.29807343  0.51449757  0.36343964  1.0
  Ga  Ga443  1  0.29807343  0.84783090  0.36343964  1.0
  Ga  Ga444  1  0.63140676  0.18116424  0.36343964  1.0
  Ga  Ga445  1  0.63140676  0.51449757  0.36343964  1.0
  Ga  Ga446  1  0.63140676  0.84783090  0.36343964  1.0
  Ga  Ga447  1  0.96474010  0.18116424  0.36343964  1.0
  Ga  Ga448  1  0.96474010  0.51449757  0.36343964  1.0
  Ga  Ga449  1  0.96474010  0.84783090  0.36343964  1.0
  Ga  Ga450  1  0.22226762  0.13182805  0.41707193  1.0
  Ga  Ga451  1  0.22226762  0.46516138  0.41707193  1.0
  Ga  Ga452  1  0.22226762  0.79849471  0.41707193  1.0
  Ga  Ga453  1  0.55560095  0.13182805  0.41707193  1.0
  Ga  Ga454  1  0.55560095  0.46516138  0.41707193  1.0
  Ga  Ga455  1  0.55560095  0.79849471  0.41707193  1.0
  Ga  Ga456  1  0.88893429  0.13182805  0.41707193  1.0
  Ga  Ga457  1  0.88893429  0.46516138  0.41707193  1.0
  Ga  Ga458  1  0.88893429  0.79849471  0.41707193  1.0
  Ga  Ga459  1  0.17464857  0.01278043  0.34564336  1.0
  Ga  Ga460  1  0.17464857  0.34611376  0.34564336  1.0
  Ga  Ga461  1  0.17464857  0.67944710  0.34564336  1.0
  Ga  Ga462  1  0.50798190  0.01278043  0.34564336  1.0
  Ga  Ga463  1  0.50798190  0.34611376  0.34564336  1.0
  Ga  Ga464  1  0.50798190  0.67944710  0.34564336  1.0
  Ga  Ga465  1  0.84131524  0.01278043  0.34564336  1.0
  Ga  Ga466  1  0.84131524  0.34611376  0.34564336  1.0
  Ga  Ga467  1  0.84131524  0.67944710  0.34564336  1.0
  Ga  Ga468  1  0.11731338  0.21601995  0.42597007  1.0
  Ga  Ga469  1  0.11731338  0.54935329  0.42597007  1.0
  Ga  Ga470  1  0.11731338  0.88268662  0.42597007  1.0
  Ga  Ga471  1  0.45064671  0.21601995  0.42597007  1.0
  Ga  Ga472  1  0.45064671  0.54935329  0.42597007  1.0
  Ga  Ga473  1  0.45064671  0.88268662  0.42597007  1.0
  Ga  Ga474  1  0.78398005  0.21601995  0.42597007  1.0
  Ga  Ga475  1  0.78398005  0.54935329  0.42597007  1.0
  Ga  Ga476  1  0.78398005  0.88268662  0.42597007  1.0
  Ga  Ga477  1  0.06969433  0.09697233  0.35454150  1.0
  Ga  Ga478  1  0.06969433  0.43030567  0.35454150  1.0
  Ga  Ga479  1  0.06969433  0.76363900  0.35454150  1.0
  Ga  Ga480  1  0.40302767  0.09697233  0.35454150  1.0
  Ga  Ga481  1  0.40302767  0.43030567  0.35454150  1.0
  Ga  Ga482  1  0.40302767  0.76363900  0.35454150  1.0
  Ga  Ga483  1  0.73636100  0.09697233  0.35454150  1.0
  Ga  Ga484  1  0.73636100  0.43030567  0.35454150  1.0
  Ga  Ga485  1  0.73636100  0.76363900  0.35454150  1.0
  Ni  Ni486  1  0.23564014  0.19698469  0.02300071  1.0
  Ni  Ni487  1  0.23564014  0.53031802  0.02300071  1.0
  Ni  Ni488  1  0.23564014  0.86365136  0.02300071  1.0
  Ni  Ni489  1  0.56897348  0.19698469  0.02300071  1.0
  Ni  Ni490  1  0.56897348  0.53031802  0.02300071  1.0
  Ni  Ni491  1  0.56897348  0.86365136  0.02300071  1.0
  Ni  Ni492  1  0.90230681  0.19698469  0.02300071  1.0
  Ni  Ni493  1  0.90230681  0.53031802  0.02300071  1.0
  Ni  Ni494  1  0.90230681  0.86365136  0.02300071  1.0
  Ni  Ni495  1  0.28325919  0.31603231  0.09442929  1.0
  Ni  Ni496  1  0.28325919  0.64936564  0.09442929  1.0
  Ni  Ni497  1  0.28325919  0.98269898  0.09442929  1.0
  Ni  Ni498  1  0.61659252  0.31603231  0.09442929  1.0
  Ni  Ni499  1  0.61659252  0.64936564  0.09442929  1.0
  Ni  Ni500  1  0.61659252  0.98269898  0.09442929  1.0
  Ni  Ni501  1  0.94992586  0.31603231  0.09442929  1.0
  Ni  Ni502  1  0.94992586  0.64936564  0.09442929  1.0
  Ni  Ni503  1  0.94992586  0.98269898  0.09442929  1.0
  Ni  Ni504  1  0.16238029  0.15117638  0.07402993  1.0
  Ni  Ni505  1  0.16238029  0.48450971  0.07402993  1.0
  Ni  Ni506  1  0.16238029  0.81784305  0.07402993  1.0
  Ni  Ni507  1  0.49571362  0.15117638  0.07402993  1.0
  Ni  Ni508  1  0.49571362  0.48450971  0.07402993  1.0
  Ni  Ni509  1  0.49571362  0.81784305  0.07402993  1.0
  Ni  Ni510  1  0.82904695  0.15117638  0.07402993  1.0
  Ni  Ni511  1  0.82904695  0.48450971  0.07402993  1.0
  Ni  Ni512  1  0.82904695  0.81784305  0.07402993  1.0
  Ni  Ni513  1  0.11476124  0.03212876  0.00260136  1.0
  Ni  Ni514  1  0.11476124  0.36546210  0.00260136  1.0
  Ni  Ni515  1  0.11476124  0.69879543  0.00260136  1.0
  Ni  Ni516  1  0.44809457  0.03212876  0.00260136  1.0
  Ni  Ni517  1  0.44809457  0.36546210  0.00260136  1.0
  Ni  Ni518  1  0.44809457  0.69879543  0.00260136  1.0
  Ni  Ni519  1  0.78142790  0.03212876  0.00260136  1.0
  Ni  Ni520  1  0.78142790  0.36546210  0.00260136  1.0
  Ni  Ni521  1  0.78142790  0.69879543  0.00260136  1.0
  Ni  Ni522  1  0.18946281  0.04457902  0.11465371  1.0
  Ni  Ni523  1  0.18946281  0.37791236  0.11465371  1.0
  Ni  Ni524  1  0.18946281  0.71124569  0.11465371  1.0
  Ni  Ni525  1  0.52279614  0.04457902  0.11465371  1.0
  Ni  Ni526  1  0.52279614  0.37791236  0.11465371  1.0
  Ni  Ni527  1  0.52279614  0.71124569  0.11465371  1.0
  Ni  Ni528  1  0.85612948  0.04457902  0.11465371  1.0
  Ni  Ni529  1  0.85612948  0.37791236  0.11465371  1.0
  Ni  Ni530  1  0.85612948  0.71124569  0.11465371  1.0
  Ni  Ni531  1  0.14184376  0.25886474  0.04322514  1.0
  Ni  Ni532  1  0.14184376  0.59219807  0.04322514  1.0
  Ni  Ni533  1  0.14184376  0.92553140  0.04322514  1.0
  Ni  Ni534  1  0.47517710  0.25886474  0.04322514  1.0
  Ni  Ni535  1  0.47517710  0.59219807  0.04322514  1.0
  Ni  Ni536  1  0.47517710  0.92553140  0.04322514  1.0
  Ni  Ni537  1  0.80851043  0.25886474  0.04322514  1.0
  Ni  Ni538  1  0.80851043  0.59219807  0.04322514  1.0
  Ni  Ni539  1  0.80851043  0.92553140  0.04322514  1.0
  Ni  Ni540  1  0.26272267  0.09038733  0.06362450  1.0
  Ni  Ni541  1  0.26272267  0.42372067  0.06362450  1.0
  Ni  Ni542  1  0.26272267  0.75705400  0.06362450  1.0
  Ni  Ni543  1  0.59605600  0.09038733  0.06362450  1.0
  Ni  Ni544  1  0.59605600  0.42372067  0.06362450  1.0
  Ni  Ni545  1  0.59605600  0.75705400  0.06362450  1.0
  Ni  Ni546  1  0.92938933  0.09038733  0.06362450  1.0
  Ni  Ni547  1  0.92938933  0.42372067  0.06362450  1.0
  Ni  Ni548  1  0.92938933  0.75705400  0.06362450  1.0
  Ni  Ni549  1  0.31034171  0.20943495  0.13505307  1.0
  Ni  Ni550  1  0.31034171  0.54276829  0.13505307  1.0
  Ni  Ni551  1  0.31034171  0.87610162  0.13505307  1.0
  Ni  Ni552  1  0.64367505  0.20943495  0.13505307  1.0
  Ni  Ni553  1  0.64367505  0.54276829  0.13505307  1.0
  Ni  Ni554  1  0.64367505  0.87610162  0.13505307  1.0
  Ni  Ni555  1  0.97700838  0.20943495  0.13505307  1.0
  Ni  Ni556  1  0.97700838  0.54276829  0.13505307  1.0
  Ni  Ni557  1  0.97700838  0.87610162  0.13505307  1.0
  Ni  Ni558  1  0.07557024  0.19574376  0.02397836  1.0
  Ni  Ni559  1  0.07557024  0.52907710  0.02397836  1.0
  Ni  Ni560  1  0.07557024  0.86241043  0.02397836  1.0
  Ni  Ni561  1  0.40890357  0.19574376  0.02397836  1.0
  Ni  Ni562  1  0.40890357  0.52907710  0.02397836  1.0
  Ni  Ni563  1  0.40890357  0.86241043  0.02397836  1.0
  Ni  Ni564  1  0.74223690  0.19574376  0.02397836  1.0
  Ni  Ni565  1  0.74223690  0.52907710  0.02397836  1.0
  Ni  Ni566  1  0.74223690  0.86241043  0.02397836  1.0
  Ni  Ni567  1  0.12318929  0.31479138  0.09540693  1.0
  Ni  Ni568  1  0.12318929  0.64812471  0.09540693  1.0
  Ni  Ni569  1  0.12318929  0.98145805  0.09540693  1.0
  Ni  Ni570  1  0.45652262  0.31479138  0.09540693  1.0
  Ni  Ni571  1  0.45652262  0.64812471  0.09540693  1.0
  Ni  Ni572  1  0.45652262  0.98145805  0.09540693  1.0
  Ni  Ni573  1  0.78985595  0.31479138  0.09540693  1.0
  Ni  Ni574  1  0.78985595  0.64812471  0.09540693  1.0
  Ni  Ni575  1  0.78985595  0.98145805  0.09540693  1.0
  Ni  Ni576  1  0.01619938  0.04581995  0.11367607  1.0
  Ni  Ni577  1  0.01619938  0.37915329  0.11367607  1.0
  Ni  Ni578  1  0.01619938  0.71248662  0.11367607  1.0
  Ni  Ni579  1  0.34953271  0.04581995  0.11367607  1.0
  Ni  Ni580  1  0.34953271  0.37915329  0.11367607  1.0
  Ni  Ni581  1  0.34953271  0.71248662  0.11367607  1.0
  Ni  Ni582  1  0.68286605  0.04581995  0.11367607  1.0
  Ni  Ni583  1  0.68286605  0.37915329  0.11367607  1.0
  Ni  Ni584  1  0.68286605  0.71248662  0.11367607  1.0
  Ni  Ni585  1  0.30191367  0.26010567  0.04224750  1.0
  Ni  Ni586  1  0.30191367  0.59343900  0.04224750  1.0
  Ni  Ni587  1  0.30191367  0.92677233  0.04224750  1.0
  Ni  Ni588  1  0.63524700  0.26010567  0.04224750  1.0
  Ni  Ni589  1  0.63524700  0.59343900  0.04224750  1.0
  Ni  Ni590  1  0.63524700  0.92677233  0.04224750  1.0
  Ni  Ni591  1  0.96858033  0.26010567  0.04224750  1.0
  Ni  Ni592  1  0.96858033  0.59343900  0.04224750  1.0
  Ni  Ni593  1  0.96858033  0.92677233  0.04224750  1.0
  Ni  Ni594  1  0.17997948  0.11511502  0.01378671  1.0
  Ni  Ni595  1  0.17997948  0.44844836  0.01378671  1.0
  Ni  Ni596  1  0.17997948  0.78178169  0.01378671  1.0
  Ni  Ni597  1  0.51331281  0.11511502  0.01378671  1.0
  Ni  Ni598  1  0.51331281  0.44844836  0.01378671  1.0
  Ni  Ni599  1  0.51331281  0.78178169  0.01378671  1.0
  Ni  Ni600  1  0.84664614  0.11511502  0.01378671  1.0
  Ni  Ni601  1  0.84664614  0.44844836  0.01378671  1.0
  Ni  Ni602  1  0.84664614  0.78178169  0.01378671  1.0
  Ni  Ni603  1  0.22759852  0.23416264  0.08521529  1.0
  Ni  Ni604  1  0.22759852  0.56749598  0.08521529  1.0
  Ni  Ni605  1  0.22759852  0.90082931  0.08521529  1.0
  Ni  Ni606  1  0.56093186  0.23416264  0.08521529  1.0
  Ni  Ni607  1  0.56093186  0.56749598  0.08521529  1.0
  Ni  Ni608  1  0.56093186  0.90082931  0.08521529  1.0
  Ni  Ni609  1  0.89426519  0.23416264  0.08521529  1.0
  Ni  Ni610  1  0.89426519  0.56749598  0.08521529  1.0
  Ni  Ni611  1  0.89426519  0.90082931  0.08521529  1.0
  Ni  Ni612  1  0.24512348  0.12644869  0.12386771  1.0
  Ni  Ni613  1  0.24512348  0.45978202  0.12386771  1.0
  Ni  Ni614  1  0.24512348  0.79311536  0.12386771  1.0
  Ni  Ni615  1  0.57845681  0.12644869  0.12386771  1.0
  Ni  Ni616  1  0.57845681  0.45978202  0.12386771  1.0
  Ni  Ni617  1  0.57845681  0.79311536  0.12386771  1.0
  Ni  Ni618  1  0.91179014  0.12644869  0.12386771  1.0
  Ni  Ni619  1  0.91179014  0.45978202  0.12386771  1.0
  Ni  Ni620  1  0.91179014  0.79311536  0.12386771  1.0
  Ni  Ni621  1  0.19750443  0.00740107  0.05243914  1.0
  Ni  Ni622  1  0.19750443  0.34073440  0.05243914  1.0
  Ni  Ni623  1  0.19750443  0.67406774  0.05243914  1.0
  Ni  Ni624  1  0.53083776  0.00740107  0.05243914  1.0
  Ni  Ni625  1  0.53083776  0.34073440  0.05243914  1.0
  Ni  Ni626  1  0.53083776  0.67406774  0.05243914  1.0
  Ni  Ni627  1  0.86417110  0.00740107  0.05243914  1.0
  Ni  Ni628  1  0.86417110  0.34073440  0.05243914  1.0
  Ni  Ni629  1  0.86417110  0.67406774  0.05243914  1.0
  Ni  Ni630  1  0.00875610  0.11459374  0.01313414  1.0
  Ni  Ni631  1  0.00875610  0.44792707  0.01313414  1.0
  Ni  Ni632  1  0.00875610  0.78126040  0.01313414  1.0
  Ni  Ni633  1  0.34208943  0.11459374  0.01313414  1.0
  Ni  Ni634  1  0.34208943  0.44792707  0.01313414  1.0
  Ni  Ni635  1  0.34208943  0.78126040  0.01313414  1.0
  Ni  Ni636  1  0.67542276  0.11459374  0.01313414  1.0
  Ni  Ni637  1  0.67542276  0.44792707  0.01313414  1.0
  Ni  Ni638  1  0.67542276  0.78126040  0.01313414  1.0
  Ni  Ni639  1  0.05637514  0.23364136  0.08456271  1.0
  Ni  Ni640  1  0.05637514  0.56697469  0.08456271  1.0
  Ni  Ni641  1  0.05637514  0.90030802  0.08456271  1.0
  Ni  Ni642  1  0.38970848  0.23364136  0.08456271  1.0
  Ni  Ni643  1  0.38970848  0.56697469  0.08456271  1.0
  Ni  Ni644  1  0.38970848  0.90030802  0.08456271  1.0
  Ni  Ni645  1  0.72304181  0.23364136  0.08456271  1.0
  Ni  Ni646  1  0.72304181  0.56697469  0.08456271  1.0
  Ni  Ni647  1  0.72304181  0.90030802  0.08456271  1.0
  Ni  Ni648  1  0.18874195  0.06125805  0.03311293  1.0
  Ni  Ni649  1  0.18874195  0.39459138  0.03311293  1.0
  Ni  Ni650  1  0.18874195  0.72792471  0.03311293  1.0
  Ni  Ni651  1  0.52207529  0.06125805  0.03311293  1.0
  Ni  Ni652  1  0.52207529  0.39459138  0.03311293  1.0
  Ni  Ni653  1  0.52207529  0.72792471  0.03311293  1.0
  Ni  Ni654  1  0.85540862  0.06125805  0.03311293  1.0
  Ni  Ni655  1  0.85540862  0.39459138  0.03311293  1.0
  Ni  Ni656  1  0.85540862  0.72792471  0.03311293  1.0
  Ni  Ni657  1  0.23636100  0.18030567  0.10454150  1.0
  Ni  Ni658  1  0.23636100  0.51363900  0.10454150  1.0
  Ni  Ni659  1  0.23636100  0.84697233  0.10454150  1.0
  Ni  Ni660  1  0.56969433  0.18030567  0.10454150  1.0
  Ni  Ni661  1  0.56969433  0.51363900  0.10454150  1.0
  Ni  Ni662  1  0.56969433  0.84697233  0.10454150  1.0
  Ni  Ni663  1  0.90302767  0.18030567  0.10454150  1.0
  Ni  Ni664  1  0.90302767  0.51363900  0.10454150  1.0
  Ni  Ni665  1  0.90302767  0.84697233  0.10454150  1.0
  Ni  Ni666  1  0.04588481  0.28744852  0.06882721  1.0
  Ni  Ni667  1  0.04588481  0.62078186  0.06882721  1.0
  Ni  Ni668  1  0.04588481  0.95411519  0.06882721  1.0
  Ni  Ni669  1  0.37921814  0.28744852  0.06882721  1.0
  Ni  Ni670  1  0.37921814  0.62078186  0.06882721  1.0
  Ni  Ni671  1  0.37921814  0.95411519  0.06882721  1.0
  Ni  Ni672  1  0.71255148  0.28744852  0.06882721  1.0
  Ni  Ni673  1  0.71255148  0.62078186  0.06882721  1.0
  Ni  Ni674  1  0.71255148  0.95411519  0.06882721  1.0
  Ni  Ni675  1  0.09350386  0.07316281  0.14025579  1.0
  Ni  Ni676  1  0.09350386  0.40649614  0.14025579  1.0
  Ni  Ni677  1  0.09350386  0.73982948  0.14025579  1.0
  Ni  Ni678  1  0.42683719  0.07316281  0.14025579  1.0
  Ni  Ni679  1  0.42683719  0.40649614  0.14025579  1.0
  Ni  Ni680  1  0.42683719  0.73982948  0.14025579  1.0
  Ni  Ni681  1  0.76017052  0.07316281  0.14025579  1.0
  Ni  Ni682  1  0.76017052  0.40649614  0.14025579  1.0
  Ni  Ni683  1  0.76017052  0.73982948  0.14025579  1.0
  Ni  Ni684  1  0.02207529  0.06125805  0.03311293  1.0
  Ni  Ni685  1  0.02207529  0.39459138  0.03311293  1.0
  Ni  Ni686  1  0.02207529  0.72792471  0.03311293  1.0
  Ni  Ni687  1  0.35540862  0.06125805  0.03311293  1.0
  Ni  Ni688  1  0.35540862  0.39459138  0.03311293  1.0
  Ni  Ni689  1  0.35540862  0.72792471  0.03311293  1.0
  Ni  Ni690  1  0.68874195  0.06125805  0.03311293  1.0
  Ni  Ni691  1  0.68874195  0.39459138  0.03311293  1.0
  Ni  Ni692  1  0.68874195  0.72792471  0.03311293  1.0
  Ni  Ni693  1  0.06969433  0.18030567  0.10454150  1.0
  Ni  Ni694  1  0.06969433  0.51363900  0.10454150  1.0
  Ni  Ni695  1  0.06969433  0.84697233  0.10454150  1.0
  Ni  Ni696  1  0.40302767  0.18030567  0.10454150  1.0
  Ni  Ni697  1  0.40302767  0.51363900  0.10454150  1.0
  Ni  Ni698  1  0.40302767  0.84697233  0.10454150  1.0
  Ni  Ni699  1  0.73636100  0.18030567  0.10454150  1.0
  Ni  Ni700  1  0.73636100  0.51363900  0.10454150  1.0
  Ni  Ni701  1  0.73636100  0.84697233  0.10454150  1.0
  Ni  Ni702  1  0.03539448  0.00792236  0.05309171  1.0
  Ni  Ni703  1  0.03539448  0.34125569  0.05309171  1.0
  Ni  Ni704  1  0.03539448  0.67458902  0.05309171  1.0
  Ni  Ni705  1  0.36872781  0.00792236  0.05309171  1.0
  Ni  Ni706  1  0.36872781  0.34125569  0.05309171  1.0
  Ni  Ni707  1  0.36872781  0.67458902  0.05309171  1.0
  Ni  Ni708  1  0.70206114  0.00792236  0.05309171  1.0
  Ni  Ni709  1  0.70206114  0.34125569  0.05309171  1.0
  Ni  Ni710  1  0.70206114  0.67458902  0.05309171  1.0
  Ni  Ni711  1  0.08301352  0.12696998  0.12452029  1.0
  Ni  Ni712  1  0.08301352  0.46030331  0.12452029  1.0
  Ni  Ni713  1  0.08301352  0.79363664  0.12452029  1.0
  Ni  Ni714  1  0.41634686  0.12696998  0.12452029  1.0
  Ni  Ni715  1  0.41634686  0.46030331  0.12452029  1.0
  Ni  Ni716  1  0.41634686  0.79363664  0.12452029  1.0
  Ni  Ni717  1  0.74968019  0.12696998  0.12452029  1.0
  Ni  Ni718  1  0.74968019  0.46030331  0.12452029  1.0
  Ni  Ni719  1  0.74968019  0.79363664  0.12452029  1.0
  Ni  Ni720  1  0.33087824  0.10174660  0.16585786  1.0
  Ni  Ni721  1  0.33087824  0.43507993  0.16585786  1.0
  Ni  Ni722  1  0.33087824  0.76841326  0.16585786  1.0
  Ni  Ni723  1  0.66421157  0.10174660  0.16585786  1.0
  Ni  Ni724  1  0.66421157  0.43507993  0.16585786  1.0
  Ni  Ni725  1  0.66421157  0.76841326  0.16585786  1.0
  Ni  Ni726  1  0.99754490  0.10174660  0.16585786  1.0
  Ni  Ni727  1  0.99754490  0.43507993  0.16585786  1.0
  Ni  Ni728  1  0.99754490  0.76841326  0.16585786  1.0
  Ni  Ni729  1  0.04516395  0.22079421  0.23728643  1.0
  Ni  Ni730  1  0.04516395  0.55412755  0.23728643  1.0
  Ni  Ni731  1  0.04516395  0.88746088  0.23728643  1.0
  Ni  Ni732  1  0.37849729  0.22079421  0.23728643  1.0
  Ni  Ni733  1  0.37849729  0.55412755  0.23728643  1.0
  Ni  Ni734  1  0.37849729  0.88746088  0.23728643  1.0
  Ni  Ni735  1  0.71183062  0.22079421  0.23728643  1.0
  Ni  Ni736  1  0.71183062  0.55412755  0.23728643  1.0
  Ni  Ni737  1  0.71183062  0.88746088  0.23728643  1.0
  Ni  Ni738  1  0.25761838  0.05593829  0.21688707  1.0
  Ni  Ni739  1  0.25761838  0.38927162  0.21688707  1.0
  Ni  Ni740  1  0.25761838  0.72260495  0.21688707  1.0
  Ni  Ni741  1  0.59095171  0.05593829  0.21688707  1.0
  Ni  Ni742  1  0.59095171  0.38927162  0.21688707  1.0
  Ni  Ni743  1  0.59095171  0.72260495  0.21688707  1.0
  Ni  Ni744  1  0.92428505  0.05593829  0.21688707  1.0
  Ni  Ni745  1  0.92428505  0.38927162  0.21688707  1.0
  Ni  Ni746  1  0.92428505  0.72260495  0.21688707  1.0
  Ni  Ni747  1  0.20999933  0.27022400  0.14545850  1.0
  Ni  Ni748  1  0.20999933  0.60355733  0.14545850  1.0
  Ni  Ni749  1  0.20999933  0.93689067  0.14545850  1.0
  Ni  Ni750  1  0.54333267  0.27022400  0.14545850  1.0
  Ni  Ni751  1  0.54333267  0.60355733  0.14545850  1.0
  Ni  Ni752  1  0.54333267  0.93689067  0.14545850  1.0
  Ni  Ni753  1  0.87666600  0.27022400  0.14545850  1.0
  Ni  Ni754  1  0.87666600  0.60355733  0.14545850  1.0
  Ni  Ni755  1  0.87666600  0.93689067  0.14545850  1.0
  Ni  Ni756  1  0.28470090  0.28267426  0.25751086  1.0
  Ni  Ni757  1  0.28470090  0.61600760  0.25751086  1.0
  Ni  Ni758  1  0.28470090  0.94934093  0.25751086  1.0
  Ni  Ni759  1  0.61803424  0.28267426  0.25751086  1.0
  Ni  Ni760  1  0.61803424  0.61600760  0.25751086  1.0
  Ni  Ni761  1  0.61803424  0.94934093  0.25751086  1.0
  Ni  Ni762  1  0.95136757  0.28267426  0.25751086  1.0
  Ni  Ni763  1  0.95136757  0.61600760  0.25751086  1.0
  Ni  Ni764  1  0.95136757  0.94934093  0.25751086  1.0
  Ni  Ni765  1  0.23708186  0.16362664  0.18608229  1.0
  Ni  Ni766  1  0.23708186  0.49695998  0.18608229  1.0
  Ni  Ni767  1  0.23708186  0.83029331  0.18608229  1.0
  Ni  Ni768  1  0.57041519  0.16362664  0.18608229  1.0
  Ni  Ni769  1  0.57041519  0.49695998  0.18608229  1.0
  Ni  Ni770  1  0.57041519  0.83029331  0.18608229  1.0
  Ni  Ni771  1  0.90374852  0.16362664  0.18608229  1.0
  Ni  Ni772  1  0.90374852  0.49695998  0.18608229  1.0
  Ni  Ni773  1  0.90374852  0.83029331  0.18608229  1.0
  Ni  Ni774  1  0.02462743  0.32848257  0.20648164  1.0
  Ni  Ni775  1  0.02462743  0.66181590  0.20648164  1.0
  Ni  Ni776  1  0.02462743  0.99514924  0.20648164  1.0
  Ni  Ni777  1  0.35796076  0.32848257  0.20648164  1.0
  Ni  Ni778  1  0.35796076  0.66181590  0.20648164  1.0
  Ni  Ni779  1  0.35796076  0.99514924  0.20648164  1.0
  Ni  Ni780  1  0.69129410  0.32848257  0.20648164  1.0
  Ni  Ni781  1  0.69129410  0.66181590  0.20648164  1.0
  Ni  Ni782  1  0.69129410  0.99514924  0.20648164  1.0
  Ni  Ni783  1  0.07224648  0.11419686  0.27791021  1.0
  Ni  Ni784  1  0.07224648  0.44753019  0.27791021  1.0
  Ni  Ni785  1  0.07224648  0.78086352  0.27791021  1.0
  Ni  Ni786  1  0.40557981  0.11419686  0.27791021  1.0
  Ni  Ni787  1  0.40557981  0.44753019  0.27791021  1.0
  Ni  Ni788  1  0.40557981  0.78086352  0.27791021  1.0
  Ni  Ni789  1  0.73891314  0.11419686  0.27791021  1.0
  Ni  Ni790  1  0.73891314  0.44753019  0.27791021  1.0
  Ni  Ni791  1  0.73891314  0.78086352  0.27791021  1.0
  Ni  Ni792  1  0.17080833  0.10050567  0.16683550  1.0
  Ni  Ni793  1  0.17080833  0.43383900  0.16683550  1.0
  Ni  Ni794  1  0.17080833  0.76717233  0.16683550  1.0
  Ni  Ni795  1  0.50414167  0.10050567  0.16683550  1.0
  Ni  Ni796  1  0.50414167  0.43383900  0.16683550  1.0
  Ni  Ni797  1  0.50414167  0.76717233  0.16683550  1.0
  Ni  Ni798  1  0.83747500  0.10050567  0.16683550  1.0
  Ni  Ni799  1  0.83747500  0.43383900  0.16683550  1.0
  Ni  Ni800  1  0.83747500  0.76717233  0.16683550  1.0
  Ni  Ni801  1  0.21842738  0.21955329  0.23826407  1.0
  Ni  Ni802  1  0.21842738  0.55288662  0.23826407  1.0
  Ni  Ni803  1  0.21842738  0.88621995  0.23826407  1.0
  Ni  Ni804  1  0.55176071  0.21955329  0.23826407  1.0
  Ni  Ni805  1  0.55176071  0.55288662  0.23826407  1.0
  Ni  Ni806  1  0.55176071  0.88621995  0.23826407  1.0
  Ni  Ni807  1  0.88509405  0.21955329  0.23826407  1.0
  Ni  Ni808  1  0.88509405  0.55288662  0.23826407  1.0
  Ni  Ni809  1  0.88509405  0.88621995  0.23826407  1.0
  Ni  Ni810  1  0.11143748  0.28391519  0.25653321  1.0
  Ni  Ni811  1  0.11143748  0.61724852  0.25653321  1.0
  Ni  Ni812  1  0.11143748  0.95058186  0.25653321  1.0
  Ni  Ni813  1  0.44477081  0.28391519  0.25653321  1.0
  Ni  Ni814  1  0.44477081  0.61724852  0.25653321  1.0
  Ni  Ni815  1  0.44477081  0.95058186  0.25653321  1.0
  Ni  Ni816  1  0.77810414  0.28391519  0.25653321  1.0
  Ni  Ni817  1  0.77810414  0.61724852  0.25653321  1.0
  Ni  Ni818  1  0.77810414  0.95058186  0.25653321  1.0
  Ni  Ni819  1  0.06381843  0.16486757  0.18510464  1.0
  Ni  Ni820  1  0.06381843  0.49820090  0.18510464  1.0
  Ni  Ni821  1  0.06381843  0.83153424  0.18510464  1.0
  Ni  Ni822  1  0.39715176  0.16486757  0.18510464  1.0
  Ni  Ni823  1  0.39715176  0.49820090  0.18510464  1.0
  Ni  Ni824  1  0.39715176  0.83153424  0.18510464  1.0
  Ni  Ni825  1  0.73048510  0.16486757  0.18510464  1.0
  Ni  Ni826  1  0.73048510  0.49820090  0.18510464  1.0
  Ni  Ni827  1  0.73048510  0.83153424  0.18510464  1.0
  Ni  Ni828  1  0.27521757  0.01987693  0.15664386  1.0
  Ni  Ni829  1  0.27521757  0.35321026  0.15664386  1.0
  Ni  Ni830  1  0.27521757  0.68654360  0.15664386  1.0
  Ni  Ni831  1  0.60855090  0.01987693  0.15664386  1.0
  Ni  Ni832  1  0.60855090  0.35321026  0.15664386  1.0
  Ni  Ni833  1  0.60855090  0.68654360  0.15664386  1.0
  Ni  Ni834  1  0.94188424  0.01987693  0.15664386  1.0
  Ni  Ni835  1  0.94188424  0.35321026  0.15664386  1.0
  Ni  Ni836  1  0.94188424  0.68654360  0.15664386  1.0
  Ni  Ni837  1  0.32283662  0.13892455  0.22807243  1.0
  Ni  Ni838  1  0.32283662  0.47225788  0.22807243  1.0
  Ni  Ni839  1  0.32283662  0.80559121  0.22807243  1.0
  Ni  Ni840  1  0.65616995  0.13892455  0.22807243  1.0
  Ni  Ni841  1  0.65616995  0.47225788  0.22807243  1.0
  Ni  Ni842  1  0.65616995  0.80559121  0.22807243  1.0
  Ni  Ni843  1  0.98950329  0.13892455  0.22807243  1.0
  Ni  Ni844  1  0.98950329  0.47225788  0.22807243  1.0
  Ni  Ni845  1  0.98950329  0.80559121  0.22807243  1.0
  Ni  Ni846  1  0.00702824  0.03121060  0.26672486  1.0
  Ni  Ni847  1  0.00702824  0.36454393  0.26672486  1.0
  Ni  Ni848  1  0.00702824  0.69787726  0.26672486  1.0
  Ni  Ni849  1  0.34036157  0.03121060  0.26672486  1.0
  Ni  Ni850  1  0.34036157  0.36454393  0.26672486  1.0
  Ni  Ni851  1  0.34036157  0.69787726  0.26672486  1.0
  Ni  Ni852  1  0.67369490  0.03121060  0.26672486  1.0
  Ni  Ni853  1  0.67369490  0.36454393  0.26672486  1.0
  Ni  Ni854  1  0.67369490  0.69787726  0.26672486  1.0
  Ni  Ni855  1  0.29274252  0.24549631  0.19529629  1.0
  Ni  Ni856  1  0.29274252  0.57882964  0.19529629  1.0
  Ni  Ni857  1  0.29274252  0.91216298  0.19529629  1.0
  Ni  Ni858  1  0.62607586  0.24549631  0.19529629  1.0
  Ni  Ni859  1  0.62607586  0.57882964  0.19529629  1.0
  Ni  Ni860  1  0.62607586  0.91216298  0.19529629  1.0
  Ni  Ni861  1  0.95940919  0.24549631  0.19529629  1.0
  Ni  Ni862  1  0.95940919  0.57882964  0.19529629  1.0
  Ni  Ni863  1  0.95940919  0.91216298  0.19529629  1.0
  Ni  Ni864  1  0.10399419  0.01935564  0.15599129  1.0
  Ni  Ni865  1  0.10399419  0.35268898  0.15599129  1.0
  Ni  Ni866  1  0.10399419  0.68602231  0.15599129  1.0
  Ni  Ni867  1  0.43732752  0.01935564  0.15599129  1.0
  Ni  Ni868  1  0.43732752  0.35268898  0.15599129  1.0
  Ni  Ni869  1  0.43732752  0.68602231  0.15599129  1.0
  Ni  Ni870  1  0.77066086  0.01935564  0.15599129  1.0
  Ni  Ni871  1  0.77066086  0.35268898  0.15599129  1.0
  Ni  Ni872  1  0.77066086  0.68602231  0.15599129  1.0
  Ni  Ni873  1  0.15161324  0.13840326  0.22741986  1.0
  Ni  Ni874  1  0.15161324  0.47173660  0.22741986  1.0
  Ni  Ni875  1  0.15161324  0.80506993  0.22741986  1.0
  Ni  Ni876  1  0.48494657  0.13840326  0.22741986  1.0
  Ni  Ni877  1  0.48494657  0.47173660  0.22741986  1.0
  Ni  Ni878  1  0.48494657  0.80506993  0.22741986  1.0
  Ni  Ni879  1  0.81827990  0.13840326  0.22741986  1.0
  Ni  Ni880  1  0.81827990  0.47173660  0.22741986  1.0
  Ni  Ni881  1  0.81827990  0.80506993  0.22741986  1.0
  Ni  Ni882  1  0.28398005  0.29935329  0.17597007  1.0
  Ni  Ni883  1  0.28398005  0.63268662  0.17597007  1.0
  Ni  Ni884  1  0.28398005  0.96601995  0.17597007  1.0
  Ni  Ni885  1  0.61731338  0.29935329  0.17597007  1.0
  Ni  Ni886  1  0.61731338  0.63268662  0.17597007  1.0
  Ni  Ni887  1  0.61731338  0.96601995  0.17597007  1.0
  Ni  Ni888  1  0.95064671  0.29935329  0.17597007  1.0
  Ni  Ni889  1  0.95064671  0.63268662  0.17597007  1.0
  Ni  Ni890  1  0.95064671  0.96601995  0.17597007  1.0
  Ni  Ni891  1  0.33159910  0.08506757  0.24739864  1.0
  Ni  Ni892  1  0.33159910  0.41840090  0.24739864  1.0
  Ni  Ni893  1  0.33159910  0.75173424  0.24739864  1.0
  Ni  Ni894  1  0.66493243  0.08506757  0.24739864  1.0
  Ni  Ni895  1  0.66493243  0.41840090  0.24739864  1.0
  Ni  Ni896  1  0.66493243  0.75173424  0.24739864  1.0
  Ni  Ni897  1  0.99826576  0.08506757  0.24739864  1.0
  Ni  Ni898  1  0.99826576  0.41840090  0.24739864  1.0
  Ni  Ni899  1  0.99826576  0.75173424  0.24739864  1.0
  Ni  Ni900  1  0.14112290  0.19221043  0.21168436  1.0
  Ni  Ni901  1  0.14112290  0.52554376  0.21168436  1.0
  Ni  Ni902  1  0.14112290  0.85887710  0.21168436  1.0
  Ni  Ni903  1  0.47445624  0.19221043  0.21168436  1.0
  Ni  Ni904  1  0.47445624  0.52554376  0.21168436  1.0
  Ni  Ni905  1  0.47445624  0.85887710  0.21168436  1.0
  Ni  Ni906  1  0.80778957  0.19221043  0.21168436  1.0
  Ni  Ni907  1  0.80778957  0.52554376  0.21168436  1.0
  Ni  Ni908  1  0.80778957  0.85887710  0.21168436  1.0
  Ni  Ni909  1  0.18874195  0.31125805  0.28311293  1.0
  Ni  Ni910  1  0.18874195  0.64459138  0.28311293  1.0
  Ni  Ni911  1  0.18874195  0.97792471  0.28311293  1.0
  Ni  Ni912  1  0.52207529  0.31125805  0.28311293  1.0
  Ni  Ni913  1  0.52207529  0.64459138  0.28311293  1.0
  Ni  Ni914  1  0.52207529  0.97792471  0.28311293  1.0
  Ni  Ni915  1  0.85540862  0.31125805  0.28311293  1.0
  Ni  Ni916  1  0.85540862  0.64459138  0.28311293  1.0
  Ni  Ni917  1  0.85540862  0.97792471  0.28311293  1.0
  Ni  Ni918  1  0.11731338  0.29935329  0.17597007  1.0
  Ni  Ni919  1  0.11731338  0.63268662  0.17597007  1.0
  Ni  Ni920  1  0.11731338  0.96601995  0.17597007  1.0
  Ni  Ni921  1  0.45064671  0.29935329  0.17597007  1.0
  Ni  Ni922  1  0.45064671  0.63268662  0.17597007  1.0
  Ni  Ni923  1  0.45064671  0.96601995  0.17597007  1.0
  Ni  Ni924  1  0.78398005  0.29935329  0.17597007  1.0
  Ni  Ni925  1  0.78398005  0.63268662  0.17597007  1.0
  Ni  Ni926  1  0.78398005  0.96601995  0.17597007  1.0
  Ni  Ni927  1  0.16493243  0.08506757  0.24739864  1.0
  Ni  Ni928  1  0.16493243  0.41840090  0.24739864  1.0
  Ni  Ni929  1  0.16493243  0.75173424  0.24739864  1.0
  Ni  Ni930  1  0.49826576  0.08506757  0.24739864  1.0
  Ni  Ni931  1  0.49826576  0.41840090  0.24739864  1.0
  Ni  Ni932  1  0.49826576  0.75173424  0.24739864  1.0
  Ni  Ni933  1  0.83159910  0.08506757  0.24739864  1.0
  Ni  Ni934  1  0.83159910  0.41840090  0.24739864  1.0
  Ni  Ni935  1  0.83159910  0.75173424  0.24739864  1.0
  Ni  Ni936  1  0.13063257  0.24601760  0.19594886  1.0
  Ni  Ni937  1  0.13063257  0.57935093  0.19594886  1.0
  Ni  Ni938  1  0.13063257  0.91268426  0.19594886  1.0
  Ni  Ni939  1  0.46396590  0.24601760  0.19594886  1.0
  Ni  Ni940  1  0.46396590  0.57935093  0.19594886  1.0
  Ni  Ni941  1  0.46396590  0.91268426  0.19594886  1.0
  Ni  Ni942  1  0.79729924  0.24601760  0.19594886  1.0
  Ni  Ni943  1  0.79729924  0.57935093  0.19594886  1.0
  Ni  Ni944  1  0.79729924  0.91268426  0.19594886  1.0
  Ni  Ni945  1  0.17825162  0.03173188  0.26737743  1.0
  Ni  Ni946  1  0.17825162  0.36506521  0.26737743  1.0
  Ni  Ni947  1  0.17825162  0.69839855  0.26737743  1.0
  Ni  Ni948  1  0.51158495  0.03173188  0.26737743  1.0
  Ni  Ni949  1  0.51158495  0.36506521  0.26737743  1.0
  Ni  Ni950  1  0.51158495  0.69839855  0.26737743  1.0
  Ni  Ni951  1  0.84491829  0.03173188  0.26737743  1.0
  Ni  Ni952  1  0.84491829  0.36506521  0.26737743  1.0
  Ni  Ni953  1  0.84491829  0.69839855  0.26737743  1.0
  Ni  Ni954  1  0.09278300  0.00650850  0.30871500  1.0
  Ni  Ni955  1  0.09278300  0.33984183  0.30871500  1.0
  Ni  Ni956  1  0.09278300  0.67317517  0.30871500  1.0
  Ni  Ni957  1  0.42611633  0.00650850  0.30871500  1.0
  Ni  Ni958  1  0.42611633  0.33984183  0.30871500  1.0
  Ni  Ni959  1  0.42611633  0.67317517  0.30871500  1.0
  Ni  Ni960  1  0.75944967  0.00650850  0.30871500  1.0
  Ni  Ni961  1  0.75944967  0.33984183  0.30871500  1.0
  Ni  Ni962  1  0.75944967  0.67317517  0.30871500  1.0
  Ni  Ni963  1  0.14040205  0.12555612  0.38014357  1.0
  Ni  Ni964  1  0.14040205  0.45888945  0.38014357  1.0
  Ni  Ni965  1  0.14040205  0.79222279  0.38014357  1.0
  Ni  Ni966  1  0.47373538  0.12555612  0.38014357  1.0
  Ni  Ni967  1  0.47373538  0.45888945  0.38014357  1.0
  Ni  Ni968  1  0.47373538  0.79222279  0.38014357  1.0
  Ni  Ni969  1  0.80706871  0.12555612  0.38014357  1.0
  Ni  Ni970  1  0.80706871  0.45888945  0.38014357  1.0
  Ni  Ni971  1  0.80706871  0.79222279  0.38014357  1.0
  Ni  Ni972  1  0.01952314  0.29403352  0.35974421  1.0
  Ni  Ni973  1  0.01952314  0.62736686  0.35974421  1.0
  Ni  Ni974  1  0.01952314  0.96070019  0.35974421  1.0
  Ni  Ni975  1  0.35285648  0.29403352  0.35974421  1.0
  Ni  Ni976  1  0.35285648  0.62736686  0.35974421  1.0
  Ni  Ni977  1  0.35285648  0.96070019  0.35974421  1.0
  Ni  Ni978  1  0.68618981  0.29403352  0.35974421  1.0
  Ni  Ni979  1  0.68618981  0.62736686  0.35974421  1.0
  Ni  Ni980  1  0.68618981  0.96070019  0.35974421  1.0
  Ni  Ni981  1  0.30523743  0.17498590  0.28831564  1.0
  Ni  Ni982  1  0.30523743  0.50831924  0.28831564  1.0
  Ni  Ni983  1  0.30523743  0.84165257  0.28831564  1.0
  Ni  Ni984  1  0.63857076  0.17498590  0.28831564  1.0
  Ni  Ni985  1  0.63857076  0.50831924  0.28831564  1.0
  Ni  Ni986  1  0.63857076  0.84165257  0.28831564  1.0
  Ni  Ni987  1  0.97190410  0.17498590  0.28831564  1.0
  Ni  Ni988  1  0.97190410  0.50831924  0.28831564  1.0
  Ni  Ni989  1  0.97190410  0.84165257  0.28831564  1.0
  Ni  Ni990  1  0.04660567  0.18743617  0.40036800  1.0
  Ni  Ni991  1  0.04660567  0.52076950  0.40036800  1.0
  Ni  Ni992  1  0.04660567  0.85410283  0.40036800  1.0
  Ni  Ni993  1  0.37993900  0.18743617  0.40036800  1.0
  Ni  Ni994  1  0.37993900  0.52076950  0.40036800  1.0
  Ni  Ni995  1  0.37993900  0.85410283  0.40036800  1.0
  Ni  Ni996  1  0.71327233  0.18743617  0.40036800  1.0
  Ni  Ni997  1  0.71327233  0.52076950  0.40036800  1.0
  Ni  Ni998  1  0.71327233  0.85410283  0.40036800  1.0
  Ni  Ni999  1  0.33231995  0.06838855  0.32893943  1.0
  Ni  Ni1000  1  0.33231995  0.40172188  0.32893943  1.0
  Ni  Ni1001  1  0.33231995  0.73505521  0.32893943  1.0
  Ni  Ni1002  1  0.66565329  0.06838855  0.32893943  1.0
  Ni  Ni1003  1  0.66565329  0.40172188  0.32893943  1.0
  Ni  Ni1004  1  0.66565329  0.73505521  0.32893943  1.0
  Ni  Ni1005  1  0.99898662  0.06838855  0.32893943  1.0
  Ni  Ni1006  1  0.99898662  0.40172188  0.32893943  1.0
  Ni  Ni1007  1  0.99898662  0.73505521  0.32893943  1.0
  Ni  Ni1008  1  0.11986552  0.23324448  0.34933879  1.0
  Ni  Ni1009  1  0.11986552  0.56657781  0.34933879  1.0
  Ni  Ni1010  1  0.11986552  0.89991114  0.34933879  1.0
  Ni  Ni1011  1  0.45319886  0.23324448  0.34933879  1.0
  Ni  Ni1012  1  0.45319886  0.56657781  0.34933879  1.0
  Ni  Ni1013  1  0.45319886  0.89991114  0.34933879  1.0
  Ni  Ni1014  1  0.78653219  0.23324448  0.34933879  1.0
  Ni  Ni1015  1  0.78653219  0.56657781  0.34933879  1.0
  Ni  Ni1016  1  0.78653219  0.89991114  0.34933879  1.0
  Ni  Ni1017  1  0.16748457  0.01895876  0.42076736  1.0
  Ni  Ni1018  1  0.16748457  0.35229210  0.42076736  1.0
  Ni  Ni1019  1  0.16748457  0.68562543  0.42076736  1.0
  Ni  Ni1020  1  0.50081790  0.01895876  0.42076736  1.0
  Ni  Ni1021  1  0.50081790  0.35229210  0.42076736  1.0
  Ni  Ni1022  1  0.50081790  0.68562543  0.42076736  1.0
  Ni  Ni1023  1  0.83415124  0.01895876  0.42076736  1.0
  Ni  Ni1024  1  0.83415124  0.35229210  0.42076736  1.0
  Ni  Ni1025  1  0.83415124  0.68562543  0.42076736  1.0
  Ni  Ni1026  1  0.26604643  0.00526757  0.30969264  1.0
  Ni  Ni1027  1  0.26604643  0.33860090  0.30969264  1.0
  Ni  Ni1028  1  0.26604643  0.67193424  0.30969264  1.0
  Ni  Ni1029  1  0.59937976  0.00526757  0.30969264  1.0
  Ni  Ni1030  1  0.59937976  0.33860090  0.30969264  1.0
  Ni  Ni1031  1  0.59937976  0.67193424  0.30969264  1.0
  Ni  Ni1032  1  0.93271310  0.00526757  0.30969264  1.0
  Ni  Ni1033  1  0.93271310  0.33860090  0.30969264  1.0
  Ni  Ni1034  1  0.93271310  0.67193424  0.30969264  1.0
  Ni  Ni1035  1  0.31366548  0.12431519  0.38112121  1.0
  Ni  Ni1036  1  0.31366548  0.45764852  0.38112121  1.0
  Ni  Ni1037  1  0.31366548  0.79098186  0.38112121  1.0
  Ni  Ni1038  1  0.64699881  0.12431519  0.38112121  1.0
  Ni  Ni1039  1  0.64699881  0.45764852  0.38112121  1.0
  Ni  Ni1040  1  0.64699881  0.79098186  0.38112121  1.0
  Ni  Ni1041  1  0.98033214  0.12431519  0.38112121  1.0
  Ni  Ni1042  1  0.98033214  0.45764852  0.38112121  1.0
  Ni  Ni1043  1  0.98033214  0.79098186  0.38112121  1.0
  Ni  Ni1044  1  0.20667557  0.18867710  0.39939036  1.0
  Ni  Ni1045  1  0.20667557  0.52201043  0.39939036  1.0
  Ni  Ni1046  1  0.20667557  0.85534376  0.39939036  1.0
  Ni  Ni1047  1  0.54000890  0.18867710  0.39939036  1.0
  Ni  Ni1048  1  0.54000890  0.52201043  0.39939036  1.0
  Ni  Ni1049  1  0.54000890  0.85534376  0.39939036  1.0
  Ni  Ni1050  1  0.87334224  0.18867710  0.39939036  1.0
  Ni  Ni1051  1  0.87334224  0.52201043  0.39939036  1.0
  Ni  Ni1052  1  0.87334224  0.85534376  0.39939036  1.0
  Ni  Ni1053  1  0.15905652  0.06962948  0.32796179  1.0
  Ni  Ni1054  1  0.15905652  0.40296281  0.32796179  1.0
  Ni  Ni1055  1  0.15905652  0.73629614  0.32796179  1.0
  Ni  Ni1056  1  0.49238986  0.06962948  0.32796179  1.0
  Ni  Ni1057  1  0.49238986  0.40296281  0.32796179  1.0
  Ni  Ni1058  1  0.49238986  0.73629614  0.32796179  1.0
  Ni  Ni1059  1  0.82572319  0.06962948  0.32796179  1.0
  Ni  Ni1060  1  0.82572319  0.40296281  0.32796179  1.0
  Ni  Ni1061  1  0.82572319  0.73629614  0.32796179  1.0
  Ni  Ni1062  1  0.03712233  0.25797217  0.29950100  1.0
  Ni  Ni1063  1  0.03712233  0.59130550  0.29950100  1.0
  Ni  Ni1064  1  0.03712233  0.92463883  0.29950100  1.0
  Ni  Ni1065  1  0.37045567  0.25797217  0.29950100  1.0
  Ni  Ni1066  1  0.37045567  0.59130550  0.29950100  1.0
  Ni  Ni1067  1  0.37045567  0.92463883  0.29950100  1.0
  Ni  Ni1068  1  0.70378900  0.25797217  0.29950100  1.0
  Ni  Ni1069  1  0.70378900  0.59130550  0.29950100  1.0
  Ni  Ni1070  1  0.70378900  0.92463883  0.29950100  1.0
  Ni  Ni1071  1  0.08474138  0.04368645  0.37092957  1.0
  Ni  Ni1072  1  0.08474138  0.37701979  0.37092957  1.0
  Ni  Ni1073  1  0.08474138  0.71035312  0.37092957  1.0
  Ni  Ni1074  1  0.41807471  0.04368645  0.37092957  1.0
  Ni  Ni1075  1  0.41807471  0.37701979  0.37092957  1.0
  Ni  Ni1076  1  0.41807471  0.71035312  0.37092957  1.0
  Ni  Ni1077  1  0.75140805  0.04368645  0.37092957  1.0
  Ni  Ni1078  1  0.75140805  0.37701979  0.37092957  1.0
  Ni  Ni1079  1  0.75140805  0.71035312  0.37092957  1.0
  Ni  Ni1080  1  0.10226633  0.26930583  0.40958200  1.0
  Ni  Ni1081  1  0.10226633  0.60263917  0.40958200  1.0
  Ni  Ni1082  1  0.10226633  0.93597250  0.40958200  1.0
  Ni  Ni1083  1  0.43559967  0.26930583  0.40958200  1.0
  Ni  Ni1084  1  0.43559967  0.60263917  0.40958200  1.0
  Ni  Ni1085  1  0.43559967  0.93597250  0.40958200  1.0
  Ni  Ni1086  1  0.76893300  0.26930583  0.40958200  1.0
  Ni  Ni1087  1  0.76893300  0.60263917  0.40958200  1.0
  Ni  Ni1088  1  0.76893300  0.93597250  0.40958200  1.0
  Ni  Ni1089  1  0.05464729  0.15025821  0.33815343  1.0
  Ni  Ni1090  1  0.05464729  0.48359155  0.33815343  1.0
  Ni  Ni1091  1  0.05464729  0.81692488  0.33815343  1.0
  Ni  Ni1092  1  0.38798062  0.15025821  0.33815343  1.0
  Ni  Ni1093  1  0.38798062  0.48359155  0.33815343  1.0
  Ni  Ni1094  1  0.38798062  0.81692488  0.33815343  1.0
  Ni  Ni1095  1  0.72131395  0.15025821  0.33815343  1.0
  Ni  Ni1096  1  0.72131395  0.48359155  0.33815343  1.0
  Ni  Ni1097  1  0.72131395  0.81692488  0.33815343  1.0
  Ni  Ni1098  1  0.19923229  0.25745088  0.29884843  1.0
  Ni  Ni1099  1  0.19923229  0.59078421  0.29884843  1.0
  Ni  Ni1100  1  0.19923229  0.92411755  0.29884843  1.0
  Ni  Ni1101  1  0.53256562  0.25745088  0.29884843  1.0
  Ni  Ni1102  1  0.53256562  0.59078421  0.29884843  1.0
  Ni  Ni1103  1  0.53256562  0.92411755  0.29884843  1.0
  Ni  Ni1104  1  0.86589895  0.25745088  0.29884843  1.0
  Ni  Ni1105  1  0.86589895  0.59078421  0.29884843  1.0
  Ni  Ni1106  1  0.86589895  0.92411755  0.29884843  1.0
  Ni  Ni1107  1  0.24685133  0.04316517  0.37027700  1.0
  Ni  Ni1108  1  0.24685133  0.37649850  0.37027700  1.0
  Ni  Ni1109  1  0.24685133  0.70983183  0.37027700  1.0
  Ni  Ni1110  1  0.58018467  0.04316517  0.37027700  1.0
  Ni  Ni1111  1  0.58018467  0.37649850  0.37027700  1.0
  Ni  Ni1112  1  0.58018467  0.70983183  0.37027700  1.0
  Ni  Ni1113  1  0.91351800  0.04316517  0.37027700  1.0
  Ni  Ni1114  1  0.91351800  0.37649850  0.37027700  1.0
  Ni  Ni1115  1  0.91351800  0.70983183  0.37027700  1.0
  Ni  Ni1116  1  0.04588481  0.20411519  0.31882721  1.0
  Ni  Ni1117  1  0.04588481  0.53744852  0.31882721  1.0
  Ni  Ni1118  1  0.04588481  0.87078186  0.31882721  1.0
  Ni  Ni1119  1  0.37921814  0.20411519  0.31882721  1.0
  Ni  Ni1120  1  0.37921814  0.53744852  0.31882721  1.0
  Ni  Ni1121  1  0.37921814  0.87078186  0.31882721  1.0
  Ni  Ni1122  1  0.71255148  0.20411519  0.31882721  1.0
  Ni  Ni1123  1  0.71255148  0.53744852  0.31882721  1.0
  Ni  Ni1124  1  0.71255148  0.87078186  0.31882721  1.0
  Ni  Ni1125  1  0.09350386  0.32316281  0.39025579  1.0
  Ni  Ni1126  1  0.09350386  0.65649614  0.39025579  1.0
  Ni  Ni1127  1  0.09350386  0.98982948  0.39025579  1.0
  Ni  Ni1128  1  0.42683719  0.32316281  0.39025579  1.0
  Ni  Ni1129  1  0.42683719  0.65649614  0.39025579  1.0
  Ni  Ni1130  1  0.42683719  0.98982948  0.39025579  1.0
  Ni  Ni1131  1  0.76017052  0.32316281  0.39025579  1.0
  Ni  Ni1132  1  0.76017052  0.65649614  0.39025579  1.0
  Ni  Ni1133  1  0.76017052  0.98982948  0.39025579  1.0
  Ni  Ni1134  1  0.23636100  0.09697233  0.35454150  1.0
  Ni  Ni1135  1  0.23636100  0.43030567  0.35454150  1.0
  Ni  Ni1136  1  0.23636100  0.76363900  0.35454150  1.0
  Ni  Ni1137  1  0.56969433  0.09697233  0.35454150  1.0
  Ni  Ni1138  1  0.56969433  0.43030567  0.35454150  1.0
  Ni  Ni1139  1  0.56969433  0.76363900  0.35454150  1.0
  Ni  Ni1140  1  0.90302767  0.09697233  0.35454150  1.0
  Ni  Ni1141  1  0.90302767  0.43030567  0.35454150  1.0
  Ni  Ni1142  1  0.90302767  0.76363900  0.35454150  1.0
  Ni  Ni1143  1  0.28398005  0.21601995  0.42597007  1.0
  Ni  Ni1144  1  0.28398005  0.54935329  0.42597007  1.0
  Ni  Ni1145  1  0.28398005  0.88268662  0.42597007  1.0
  Ni  Ni1146  1  0.61731338  0.21601995  0.42597007  1.0
  Ni  Ni1147  1  0.61731338  0.54935329  0.42597007  1.0
  Ni  Ni1148  1  0.61731338  0.88268662  0.42597007  1.0
  Ni  Ni1149  1  0.95064671  0.21601995  0.42597007  1.0
  Ni  Ni1150  1  0.95064671  0.54935329  0.42597007  1.0
  Ni  Ni1151  1  0.95064671  0.88268662  0.42597007  1.0
  Ni  Ni1152  1  0.21255148  0.20411519  0.31882721  1.0
  Ni  Ni1153  1  0.21255148  0.53744852  0.31882721  1.0
  Ni  Ni1154  1  0.21255148  0.87078186  0.31882721  1.0
  Ni  Ni1155  1  0.54588481  0.20411519  0.31882721  1.0
  Ni  Ni1156  1  0.54588481  0.53744852  0.31882721  1.0
  Ni  Ni1157  1  0.54588481  0.87078186  0.31882721  1.0
  Ni  Ni1158  1  0.87921814  0.20411519  0.31882721  1.0
  Ni  Ni1159  1  0.87921814  0.53744852  0.31882721  1.0
  Ni  Ni1160  1  0.87921814  0.87078186  0.31882721  1.0
  Ni  Ni1161  1  0.26017052  0.32316281  0.39025579  1.0
  Ni  Ni1162  1  0.26017052  0.65649614  0.39025579  1.0
  Ni  Ni1163  1  0.26017052  0.98982948  0.39025579  1.0
  Ni  Ni1164  1  0.59350386  0.32316281  0.39025579  1.0
  Ni  Ni1165  1  0.59350386  0.65649614  0.39025579  1.0
  Ni  Ni1166  1  0.59350386  0.98982948  0.39025579  1.0
  Ni  Ni1167  1  0.92683719  0.32316281  0.39025579  1.0
  Ni  Ni1168  1  0.92683719  0.65649614  0.39025579  1.0
  Ni  Ni1169  1  0.92683719  0.98982948  0.39025579  1.0
  Ni  Ni1170  1  0.22587067  0.15077950  0.33880600  1.0
  Ni  Ni1171  1  0.22587067  0.48411283  0.33880600  1.0
  Ni  Ni1172  1  0.22587067  0.81744617  0.33880600  1.0
  Ni  Ni1173  1  0.55920400  0.15077950  0.33880600  1.0
  Ni  Ni1174  1  0.55920400  0.48411283  0.33880600  1.0
  Ni  Ni1175  1  0.55920400  0.81744617  0.33880600  1.0
  Ni  Ni1176  1  0.89253733  0.15077950  0.33880600  1.0
  Ni  Ni1177  1  0.89253733  0.48411283  0.33880600  1.0
  Ni  Ni1178  1  0.89253733  0.81744617  0.33880600  1.0
  Ni  Ni1179  1  0.27348971  0.26982712  0.41023457  1.0
  Ni  Ni1180  1  0.27348971  0.60316045  0.41023457  1.0
  Ni  Ni1181  1  0.27348971  0.93649379  0.41023457  1.0
  Ni  Ni1182  1  0.60682305  0.26982712  0.41023457  1.0
  Ni  Ni1183  1  0.60682305  0.60316045  0.41023457  1.0
  Ni  Ni1184  1  0.60682305  0.93649379  0.41023457  1.0
  Ni  Ni1185  1  0.94015638  0.26982712  0.41023457  1.0
  Ni  Ni1186  1  0.94015638  0.60316045  0.41023457  1.0
  Ni  Ni1187  1  0.94015638  0.93649379  0.41023457  1.0
