# generated using pymatgen
data_Ga9Ni13
_symmetry_space_group_name_H-M   'P 1'
_cell_length_a   23.70672600
_cell_length_b   61.94117735
_cell_length_c   50.82988896
_cell_angle_alpha   116.43369604
_cell_angle_beta   51.54806455
_cell_angle_gamma   78.96755505
_symmetry_Int_Tables_number   1
_chemical_formula_structural   Ga9Ni13
_chemical_formula_sum   'Ga486 Ni702'
_cell_volume   38966.89045889
_cell_formula_units_Z   54
loop_
 _symmetry_equiv_pos_site_id
 _symmetry_equiv_pos_as_xyz
  1  'x, y, z'
loop_
 _atom_site_type_symbol
 _atom_site_label
 _atom_site_symmetry_multiplicity
 _atom_site_fract_x
 _atom_site_fract_y
 _atom_site_fract_z
 _atom_site_occupancy
  Ga  Ga0  1  0.03206383  0.21815883  0.08512366  1.0
  Ga  Ga1  1  0.03206383  0.55149217  0.08512366  1.0
  Ga  Ga2  1  0.03206383  0.88482550  0.08512366  1.0
  Ga  Ga3  1  0.36539717  0.21815883  0.08512366  1.0
  Ga  Ga4  1  0.36539717  0.55149217  0.08512366  1.0
  Ga  Ga5  1  0.36539717  0.88482550  0.08512366  1.0
  Ga  Ga6  1  0.69873050  0.21815883  0.08512366  1.0
  Ga  Ga7  1  0.69873050  0.55149217  0.08512366  1.0
  Ga  Ga8  1  0.69873050  0.88482550  0.08512366  1.0
  Ga  Ga9  1  0.19873050  0.05149217  0.02262366  1.0
  Ga  Ga10  1  0.19873050  0.38482550  0.02262366  1.0
  Ga  Ga11  1  0.19873050  0.71815883  0.02262366  1.0
  Ga  Ga12  1  0.53206383  0.05149217  0.02262366  1.0
  Ga  Ga13  1  0.53206383  0.38482550  0.02262366  1.0
  Ga  Ga14  1  0.53206383  0.71815883  0.02262366  1.0
  Ga  Ga15  1  0.86539717  0.05149217  0.02262366  1.0
  Ga  Ga16  1  0.86539717  0.38482550  0.02262366  1.0
  Ga  Ga17  1  0.86539717  0.71815883  0.02262366  1.0
  Ga  Ga18  1  0.32767983  0.28184117  0.08953078  1.0
  Ga  Ga19  1  0.32767983  0.61517450  0.08953078  1.0
  Ga  Ga20  1  0.32767983  0.94850783  0.08953078  1.0
  Ga  Ga21  1  0.66101317  0.28184117  0.08953078  1.0
  Ga  Ga22  1  0.66101317  0.61517450  0.08953078  1.0
  Ga  Ga23  1  0.66101317  0.94850783  0.08953078  1.0
  Ga  Ga24  1  0.99434650  0.28184117  0.08953078  1.0
  Ga  Ga25  1  0.99434650  0.61517450  0.08953078  1.0
  Ga  Ga26  1  0.99434650  0.94850783  0.08953078  1.0
  Ga  Ga27  1  0.16101317  0.11517450  0.02703078  1.0
  Ga  Ga28  1  0.16101317  0.44850783  0.02703078  1.0
  Ga  Ga29  1  0.16101317  0.78184117  0.02703078  1.0
  Ga  Ga30  1  0.49434650  0.11517450  0.02703078  1.0
  Ga  Ga31  1  0.49434650  0.44850783  0.02703078  1.0
  Ga  Ga32  1  0.49434650  0.78184117  0.02703078  1.0
  Ga  Ga33  1  0.82767983  0.11517450  0.02703078  1.0
  Ga  Ga34  1  0.82767983  0.44850783  0.02703078  1.0
  Ga  Ga35  1  0.82767983  0.78184117  0.02703078  1.0
  Ga  Ga36  1  0.13460283  0.28184117  0.08953078  1.0
  Ga  Ga37  1  0.13460283  0.61517450  0.08953078  1.0
  Ga  Ga38  1  0.13460283  0.94850783  0.08953078  1.0
  Ga  Ga39  1  0.46793617  0.28184117  0.08953078  1.0
  Ga  Ga40  1  0.46793617  0.61517450  0.08953078  1.0
  Ga  Ga41  1  0.46793617  0.94850783  0.08953078  1.0
  Ga  Ga42  1  0.80126950  0.28184117  0.08953078  1.0
  Ga  Ga43  1  0.80126950  0.61517450  0.08953078  1.0
  Ga  Ga44  1  0.80126950  0.94850783  0.08953078  1.0
  Ga  Ga45  1  0.30126950  0.11517450  0.02703078  1.0
  Ga  Ga46  1  0.30126950  0.44850783  0.02703078  1.0
  Ga  Ga47  1  0.30126950  0.78184117  0.02703078  1.0
  Ga  Ga48  1  0.63460283  0.11517450  0.02703078  1.0
  Ga  Ga49  1  0.63460283  0.44850783  0.02703078  1.0
  Ga  Ga50  1  0.63460283  0.78184117  0.02703078  1.0
  Ga  Ga51  1  0.96793617  0.11517450  0.02703078  1.0
  Ga  Ga52  1  0.96793617  0.44850783  0.02703078  1.0
  Ga  Ga53  1  0.96793617  0.78184117  0.02703078  1.0
  Ga  Ga54  1  0.17232017  0.21815883  0.08512366  1.0
  Ga  Ga55  1  0.17232017  0.55149217  0.08512366  1.0
  Ga  Ga56  1  0.17232017  0.88482550  0.08512366  1.0
  Ga  Ga57  1  0.50565350  0.21815883  0.08512366  1.0
  Ga  Ga58  1  0.50565350  0.55149217  0.08512366  1.0
  Ga  Ga59  1  0.50565350  0.88482550  0.08512366  1.0
  Ga  Ga60  1  0.83898683  0.21815883  0.08512366  1.0
  Ga  Ga61  1  0.83898683  0.55149217  0.08512366  1.0
  Ga  Ga62  1  0.83898683  0.88482550  0.08512366  1.0
  Ga  Ga63  1  0.00565350  0.05149217  0.02262366  1.0
  Ga  Ga64  1  0.00565350  0.38482550  0.02262366  1.0
  Ga  Ga65  1  0.00565350  0.71815883  0.02262366  1.0
  Ga  Ga66  1  0.33898683  0.05149217  0.02262366  1.0
  Ga  Ga67  1  0.33898683  0.38482550  0.02262366  1.0
  Ga  Ga68  1  0.33898683  0.71815883  0.02262366  1.0
  Ga  Ga69  1  0.67232017  0.05149217  0.02262366  1.0
  Ga  Ga70  1  0.67232017  0.38482550  0.02262366  1.0
  Ga  Ga71  1  0.67232017  0.71815883  0.02262366  1.0
  Ga  Ga72  1  0.09106417  0.18545983  0.10573166  1.0
  Ga  Ga73  1  0.09106417  0.51879317  0.10573166  1.0
  Ga  Ga74  1  0.09106417  0.85212650  0.10573166  1.0
  Ga  Ga75  1  0.42439750  0.18545983  0.10573166  1.0
  Ga  Ga76  1  0.42439750  0.51879317  0.10573166  1.0
  Ga  Ga77  1  0.42439750  0.85212650  0.10573166  1.0
  Ga  Ga78  1  0.75773083  0.18545983  0.10573166  1.0
  Ga  Ga79  1  0.75773083  0.51879317  0.10573166  1.0
  Ga  Ga80  1  0.75773083  0.85212650  0.10573166  1.0
  Ga  Ga81  1  0.25773083  0.01879317  0.04323166  1.0
  Ga  Ga82  1  0.25773083  0.35212650  0.04323166  1.0
  Ga  Ga83  1  0.25773083  0.68545983  0.04323166  1.0
  Ga  Ga84  1  0.59106417  0.01879317  0.04323166  1.0
  Ga  Ga85  1  0.59106417  0.35212650  0.04323166  1.0
  Ga  Ga86  1  0.59106417  0.68545983  0.04323166  1.0
  Ga  Ga87  1  0.92439750  0.01879317  0.04323166  1.0
  Ga  Ga88  1  0.92439750  0.35212650  0.04323166  1.0
  Ga  Ga89  1  0.92439750  0.68545983  0.04323166  1.0
  Ga  Ga90  1  0.07560250  0.31454017  0.06892278  1.0
  Ga  Ga91  1  0.07560250  0.64787350  0.06892278  1.0
  Ga  Ga92  1  0.07560250  0.98120683  0.06892278  1.0
  Ga  Ga93  1  0.40893583  0.31454017  0.06892278  1.0
  Ga  Ga94  1  0.40893583  0.64787350  0.06892278  1.0
  Ga  Ga95  1  0.40893583  0.98120683  0.06892278  1.0
  Ga  Ga96  1  0.74226917  0.31454017  0.06892278  1.0
  Ga  Ga97  1  0.74226917  0.64787350  0.06892278  1.0
  Ga  Ga98  1  0.74226917  0.98120683  0.06892278  1.0
  Ga  Ga99  1  0.24226917  0.14787350  0.00642278  1.0
  Ga  Ga100  1  0.24226917  0.48120683  0.00642278  1.0
  Ga  Ga101  1  0.24226917  0.81454017  0.00642278  1.0
  Ga  Ga102  1  0.57560250  0.14787350  0.00642278  1.0
  Ga  Ga103  1  0.57560250  0.48120683  0.00642278  1.0
  Ga  Ga104  1  0.57560250  0.81454017  0.00642278  1.0
  Ga  Ga105  1  0.90893583  0.14787350  0.00642278  1.0
  Ga  Ga106  1  0.90893583  0.48120683  0.00642278  1.0
  Ga  Ga107  1  0.90893583  0.81454017  0.00642278  1.0
  Ga  Ga108  1  0.23608150  0.19455683  0.11855728  1.0
  Ga  Ga109  1  0.23608150  0.52789017  0.11855728  1.0
  Ga  Ga110  1  0.23608150  0.86122350  0.11855728  1.0
  Ga  Ga111  1  0.56941483  0.19455683  0.11855728  1.0
  Ga  Ga112  1  0.56941483  0.52789017  0.11855728  1.0
  Ga  Ga113  1  0.56941483  0.86122350  0.11855728  1.0
  Ga  Ga114  1  0.90274817  0.19455683  0.11855728  1.0
  Ga  Ga115  1  0.90274817  0.52789017  0.11855728  1.0
  Ga  Ga116  1  0.90274817  0.86122350  0.11855728  1.0
  Ga  Ga117  1  0.06941483  0.02789017  0.05605728  1.0
  Ga  Ga118  1  0.06941483  0.36122350  0.05605728  1.0
  Ga  Ga119  1  0.06941483  0.69455683  0.05605728  1.0
  Ga  Ga120  1  0.40274817  0.02789017  0.05605728  1.0
  Ga  Ga121  1  0.40274817  0.36122350  0.05605728  1.0
  Ga  Ga122  1  0.40274817  0.69455683  0.05605728  1.0
  Ga  Ga123  1  0.73608150  0.02789017  0.05605728  1.0
  Ga  Ga124  1  0.73608150  0.36122350  0.05605728  1.0
  Ga  Ga125  1  0.73608150  0.69455683  0.05605728  1.0
  Ga  Ga126  1  0.26391850  0.30544317  0.05609716  1.0
  Ga  Ga127  1  0.26391850  0.63877650  0.05609716  1.0
  Ga  Ga128  1  0.26391850  0.97210983  0.05609716  1.0
  Ga  Ga129  1  0.59725183  0.30544317  0.05609716  1.0
  Ga  Ga130  1  0.59725183  0.63877650  0.05609716  1.0
  Ga  Ga131  1  0.59725183  0.97210983  0.05609716  1.0
  Ga  Ga132  1  0.93058517  0.30544317  0.05609716  1.0
  Ga  Ga133  1  0.93058517  0.63877650  0.05609716  1.0
  Ga  Ga134  1  0.93058517  0.97210983  0.05609716  1.0
  Ga  Ga135  1  0.09725183  0.13877650  0.11859716  1.0
  Ga  Ga136  1  0.09725183  0.47210983  0.11859716  1.0
  Ga  Ga137  1  0.09725183  0.80544317  0.11859716  1.0
  Ga  Ga138  1  0.43058517  0.13877650  0.11859716  1.0
  Ga  Ga139  1  0.43058517  0.47210983  0.11859716  1.0
  Ga  Ga140  1  0.43058517  0.80544317  0.11859716  1.0
  Ga  Ga141  1  0.76391850  0.13877650  0.11859716  1.0
  Ga  Ga142  1  0.76391850  0.47210983  0.11859716  1.0
  Ga  Ga143  1  0.76391850  0.80544317  0.11859716  1.0
  Ga  Ga144  1  0.25000000  0.25000000  0.08732722  1.0
  Ga  Ga145  1  0.25000000  0.58333333  0.08732722  1.0
  Ga  Ga146  1  0.25000000  0.91666667  0.08732722  1.0
  Ga  Ga147  1  0.58333333  0.25000000  0.08732722  1.0
  Ga  Ga148  1  0.58333333  0.58333333  0.08732722  1.0
  Ga  Ga149  1  0.58333333  0.91666667  0.08732722  1.0
  Ga  Ga150  1  0.91666667  0.25000000  0.08732722  1.0
  Ga  Ga151  1  0.91666667  0.58333333  0.08732722  1.0
  Ga  Ga152  1  0.91666667  0.91666667  0.08732722  1.0
  Ga  Ga153  1  0.08333333  0.08333333  0.02482722  1.0
  Ga  Ga154  1  0.08333333  0.41666667  0.02482722  1.0
  Ga  Ga155  1  0.08333333  0.75000000  0.02482722  1.0
  Ga  Ga156  1  0.41666667  0.08333333  0.02482722  1.0
  Ga  Ga157  1  0.41666667  0.41666667  0.02482722  1.0
  Ga  Ga158  1  0.41666667  0.75000000  0.02482722  1.0
  Ga  Ga159  1  0.75000000  0.08333333  0.02482722  1.0
  Ga  Ga160  1  0.75000000  0.41666667  0.02482722  1.0
  Ga  Ga161  1  0.75000000  0.75000000  0.02482722  1.0
  Ni  Ni162  1  0.23726650  0.27681983  0.02145603  1.0
  Ni  Ni163  1  0.23726650  0.61015317  0.02145603  1.0
  Ni  Ni164  1  0.23726650  0.94348650  0.02145603  1.0
  Ni  Ni165  1  0.57059983  0.27681983  0.02145603  1.0
  Ni  Ni166  1  0.57059983  0.61015317  0.02145603  1.0
  Ni  Ni167  1  0.57059983  0.94348650  0.02145603  1.0
  Ni  Ni168  1  0.90393317  0.27681983  0.02145603  1.0
  Ni  Ni169  1  0.90393317  0.61015317  0.02145603  1.0
  Ni  Ni170  1  0.90393317  0.94348650  0.02145603  1.0
  Ni  Ni171  1  0.07059983  0.11015317  0.08395603  1.0
  Ni  Ni172  1  0.07059983  0.44348650  0.08395603  1.0
  Ni  Ni173  1  0.07059983  0.77681983  0.08395603  1.0
  Ni  Ni174  1  0.40393317  0.11015317  0.08395603  1.0
  Ni  Ni175  1  0.40393317  0.44348650  0.08395603  1.0
  Ni  Ni176  1  0.40393317  0.77681983  0.08395603  1.0
  Ni  Ni177  1  0.73726650  0.11015317  0.08395603  1.0
  Ni  Ni178  1  0.73726650  0.44348650  0.08395603  1.0
  Ni  Ni179  1  0.73726650  0.77681983  0.08395603  1.0
  Ni  Ni180  1  0.08842983  0.22318017  0.02819841  1.0
  Ni  Ni181  1  0.08842983  0.55651350  0.02819841  1.0
  Ni  Ni182  1  0.08842983  0.88984683  0.02819841  1.0
  Ni  Ni183  1  0.42176317  0.22318017  0.02819841  1.0
  Ni  Ni184  1  0.42176317  0.55651350  0.02819841  1.0
  Ni  Ni185  1  0.42176317  0.88984683  0.02819841  1.0
  Ni  Ni186  1  0.75509650  0.22318017  0.02819841  1.0
  Ni  Ni187  1  0.75509650  0.55651350  0.02819841  1.0
  Ni  Ni188  1  0.75509650  0.88984683  0.02819841  1.0
  Ni  Ni189  1  0.25509650  0.05651350  0.09069841  1.0
  Ni  Ni190  1  0.25509650  0.38984683  0.09069841  1.0
  Ni  Ni191  1  0.25509650  0.72318017  0.09069841  1.0
  Ni  Ni192  1  0.58842983  0.05651350  0.09069841  1.0
  Ni  Ni193  1  0.58842983  0.38984683  0.09069841  1.0
  Ni  Ni194  1  0.58842983  0.72318017  0.09069841  1.0
  Ni  Ni195  1  0.92176317  0.05651350  0.09069841  1.0
  Ni  Ni196  1  0.92176317  0.38984683  0.09069841  1.0
  Ni  Ni197  1  0.92176317  0.72318017  0.09069841  1.0
  Ni  Ni198  1  0.26273350  0.22318017  0.02819841  1.0
  Ni  Ni199  1  0.26273350  0.55651350  0.02819841  1.0
  Ni  Ni200  1  0.26273350  0.88984683  0.02819841  1.0
  Ni  Ni201  1  0.59606683  0.22318017  0.02819841  1.0
  Ni  Ni202  1  0.59606683  0.55651350  0.02819841  1.0
  Ni  Ni203  1  0.59606683  0.88984683  0.02819841  1.0
  Ni  Ni204  1  0.92940017  0.22318017  0.02819841  1.0
  Ni  Ni205  1  0.92940017  0.55651350  0.02819841  1.0
  Ni  Ni206  1  0.92940017  0.88984683  0.02819841  1.0
  Ni  Ni207  1  0.09606683  0.05651350  0.09069841  1.0
  Ni  Ni208  1  0.09606683  0.38984683  0.09069841  1.0
  Ni  Ni209  1  0.09606683  0.72318017  0.09069841  1.0
  Ni  Ni210  1  0.42940017  0.05651350  0.09069841  1.0
  Ni  Ni211  1  0.42940017  0.38984683  0.09069841  1.0
  Ni  Ni212  1  0.42940017  0.72318017  0.09069841  1.0
  Ni  Ni213  1  0.76273350  0.05651350  0.09069841  1.0
  Ni  Ni214  1  0.76273350  0.38984683  0.09069841  1.0
  Ni  Ni215  1  0.76273350  0.72318017  0.09069841  1.0
  Ni  Ni216  1  0.07823683  0.27681983  0.02145603  1.0
  Ni  Ni217  1  0.07823683  0.61015317  0.02145603  1.0
  Ni  Ni218  1  0.07823683  0.94348650  0.02145603  1.0
  Ni  Ni219  1  0.41157017  0.27681983  0.02145603  1.0
  Ni  Ni220  1  0.41157017  0.61015317  0.02145603  1.0
  Ni  Ni221  1  0.41157017  0.94348650  0.02145603  1.0
  Ni  Ni222  1  0.74490350  0.27681983  0.02145603  1.0
  Ni  Ni223  1  0.74490350  0.61015317  0.02145603  1.0
  Ni  Ni224  1  0.74490350  0.94348650  0.02145603  1.0
  Ni  Ni225  1  0.24490350  0.11015317  0.08395603  1.0
  Ni  Ni226  1  0.24490350  0.44348650  0.08395603  1.0
  Ni  Ni227  1  0.24490350  0.77681983  0.08395603  1.0
  Ni  Ni228  1  0.57823683  0.11015317  0.08395603  1.0
  Ni  Ni229  1  0.57823683  0.44348650  0.08395603  1.0
  Ni  Ni230  1  0.57823683  0.77681983  0.08395603  1.0
  Ni  Ni231  1  0.91157017  0.11015317  0.08395603  1.0
  Ni  Ni232  1  0.91157017  0.44348650  0.08395603  1.0
  Ni  Ni233  1  0.91157017  0.77681983  0.08395603  1.0
  Ni  Ni234  1  0.32049767  0.19645900  0.05453184  1.0
  Ni  Ni235  1  0.32049767  0.52979233  0.05453184  1.0
  Ni  Ni236  1  0.32049767  0.86312567  0.05453184  1.0
  Ni  Ni237  1  0.65383100  0.19645900  0.05453184  1.0
  Ni  Ni238  1  0.65383100  0.52979233  0.05453184  1.0
  Ni  Ni239  1  0.65383100  0.86312567  0.05453184  1.0
  Ni  Ni240  1  0.98716433  0.19645900  0.05453184  1.0
  Ni  Ni241  1  0.98716433  0.52979233  0.05453184  1.0
  Ni  Ni242  1  0.98716433  0.86312567  0.05453184  1.0
  Ni  Ni243  1  0.15383100  0.02979233  0.11703184  1.0
  Ni  Ni244  1  0.15383100  0.36312567  0.11703184  1.0
  Ni  Ni245  1  0.15383100  0.69645900  0.11703184  1.0
  Ni  Ni246  1  0.48716433  0.02979233  0.11703184  1.0
  Ni  Ni247  1  0.48716433  0.36312567  0.11703184  1.0
  Ni  Ni248  1  0.48716433  0.69645900  0.11703184  1.0
  Ni  Ni249  1  0.82049767  0.02979233  0.11703184  1.0
  Ni  Ni250  1  0.82049767  0.36312567  0.11703184  1.0
  Ni  Ni251  1  0.82049767  0.69645900  0.11703184  1.0
  Ni  Ni252  1  0.17950233  0.30354100  0.12012259  1.0
  Ni  Ni253  1  0.17950233  0.63687433  0.12012259  1.0
  Ni  Ni254  1  0.17950233  0.97020767  0.12012259  1.0
  Ni  Ni255  1  0.51283567  0.30354100  0.12012259  1.0
  Ni  Ni256  1  0.51283567  0.63687433  0.12012259  1.0
  Ni  Ni257  1  0.51283567  0.97020767  0.12012259  1.0
  Ni  Ni258  1  0.84616900  0.30354100  0.12012259  1.0
  Ni  Ni259  1  0.84616900  0.63687433  0.12012259  1.0
  Ni  Ni260  1  0.84616900  0.97020767  0.12012259  1.0
  Ni  Ni261  1  0.01283567  0.13687433  0.05762259  1.0
  Ni  Ni262  1  0.01283567  0.47020767  0.05762259  1.0
  Ni  Ni263  1  0.01283567  0.80354100  0.05762259  1.0
  Ni  Ni264  1  0.34616900  0.13687433  0.05762259  1.0
  Ni  Ni265  1  0.34616900  0.47020767  0.05762259  1.0
  Ni  Ni266  1  0.34616900  0.80354100  0.05762259  1.0
  Ni  Ni267  1  0.67950233  0.13687433  0.05762259  1.0
  Ni  Ni268  1  0.67950233  0.47020767  0.05762259  1.0
  Ni  Ni269  1  0.67950233  0.80354100  0.05762259  1.0
  Ni  Ni270  1  0.32853850  0.25206083  0.02765053  1.0
  Ni  Ni271  1  0.32853850  0.58539417  0.02765053  1.0
  Ni  Ni272  1  0.32853850  0.91872750  0.02765053  1.0
  Ni  Ni273  1  0.66187183  0.25206083  0.02765053  1.0
  Ni  Ni274  1  0.66187183  0.58539417  0.02765053  1.0
  Ni  Ni275  1  0.66187183  0.91872750  0.02765053  1.0
  Ni  Ni276  1  0.99520517  0.25206083  0.02765053  1.0
  Ni  Ni277  1  0.99520517  0.58539417  0.02765053  1.0
  Ni  Ni278  1  0.99520517  0.91872750  0.02765053  1.0
  Ni  Ni279  1  0.16187183  0.08539417  0.09015053  1.0
  Ni  Ni280  1  0.16187183  0.41872750  0.09015053  1.0
  Ni  Ni281  1  0.16187183  0.75206083  0.09015053  1.0
  Ni  Ni282  1  0.49520517  0.08539417  0.09015053  1.0
  Ni  Ni283  1  0.49520517  0.41872750  0.09015053  1.0
  Ni  Ni284  1  0.49520517  0.75206083  0.09015053  1.0
  Ni  Ni285  1  0.82853850  0.08539417  0.09015053  1.0
  Ni  Ni286  1  0.82853850  0.41872750  0.09015053  1.0
  Ni  Ni287  1  0.82853850  0.75206083  0.09015053  1.0
  Ni  Ni288  1  0.17146150  0.24793917  0.02200391  1.0
  Ni  Ni289  1  0.17146150  0.58127250  0.02200391  1.0
  Ni  Ni290  1  0.17146150  0.91460583  0.02200391  1.0
  Ni  Ni291  1  0.50479483  0.24793917  0.02200391  1.0
  Ni  Ni292  1  0.50479483  0.58127250  0.02200391  1.0
  Ni  Ni293  1  0.50479483  0.91460583  0.02200391  1.0
  Ni  Ni294  1  0.83812817  0.24793917  0.02200391  1.0
  Ni  Ni295  1  0.83812817  0.58127250  0.02200391  1.0
  Ni  Ni296  1  0.83812817  0.91460583  0.02200391  1.0
  Ni  Ni297  1  0.00479483  0.08127250  0.08450391  1.0
  Ni  Ni298  1  0.00479483  0.41460583  0.08450391  1.0
  Ni  Ni299  1  0.00479483  0.74793917  0.08450391  1.0
  Ni  Ni300  1  0.33812817  0.08127250  0.08450391  1.0
  Ni  Ni301  1  0.33812817  0.41460583  0.08450391  1.0
  Ni  Ni302  1  0.33812817  0.74793917  0.08450391  1.0
  Ni  Ni303  1  0.67146150  0.08127250  0.08450391  1.0
  Ni  Ni304  1  0.67146150  0.41460583  0.08450391  1.0
  Ni  Ni305  1  0.67146150  0.74793917  0.08450391  1.0
  Ni  Ni306  1  0.24669967  0.00000000  0.11857722  1.0
  Ni  Ni307  1  0.24669967  0.33333333  0.11857722  1.0
  Ni  Ni308  1  0.24669967  0.66666667  0.11857722  1.0
  Ni  Ni309  1  0.58003300  0.00000000  0.11857722  1.0
  Ni  Ni310  1  0.58003300  0.33333333  0.11857722  1.0
  Ni  Ni311  1  0.58003300  0.66666667  0.11857722  1.0
  Ni  Ni312  1  0.91336633  0.00000000  0.11857722  1.0
  Ni  Ni313  1  0.91336633  0.33333333  0.11857722  1.0
  Ni  Ni314  1  0.91336633  0.66666667  0.11857722  1.0
  Ni  Ni315  1  0.08003300  0.16666667  0.05607722  1.0
  Ni  Ni316  1  0.08003300  0.50000000  0.05607722  1.0
  Ni  Ni317  1  0.08003300  0.83333333  0.05607722  1.0
  Ni  Ni318  1  0.41336633  0.16666667  0.05607722  1.0
  Ni  Ni319  1  0.41336633  0.50000000  0.05607722  1.0
  Ni  Ni320  1  0.41336633  0.83333333  0.05607722  1.0
  Ni  Ni321  1  0.74669967  0.16666667  0.05607722  1.0
  Ni  Ni322  1  0.74669967  0.50000000  0.05607722  1.0
  Ni  Ni323  1  0.74669967  0.83333333  0.05607722  1.0
  Ni  Ni324  1  0.08333333  0.25000000  0.08732722  1.0
  Ni  Ni325  1  0.08333333  0.58333333  0.08732722  1.0
  Ni  Ni326  1  0.08333333  0.91666667  0.08732722  1.0
  Ni  Ni327  1  0.41666667  0.25000000  0.08732722  1.0
  Ni  Ni328  1  0.41666667  0.58333333  0.08732722  1.0
  Ni  Ni329  1  0.41666667  0.91666667  0.08732722  1.0
  Ni  Ni330  1  0.75000000  0.25000000  0.08732722  1.0
  Ni  Ni331  1  0.75000000  0.58333333  0.08732722  1.0
  Ni  Ni332  1  0.75000000  0.91666667  0.08732722  1.0
  Ni  Ni333  1  0.25000000  0.08333333  0.02482722  1.0
  Ni  Ni334  1  0.25000000  0.41666667  0.02482722  1.0
  Ni  Ni335  1  0.25000000  0.75000000  0.02482722  1.0
  Ni  Ni336  1  0.58333333  0.08333333  0.02482722  1.0
  Ni  Ni337  1  0.58333333  0.41666667  0.02482722  1.0
  Ni  Ni338  1  0.58333333  0.75000000  0.02482722  1.0
  Ni  Ni339  1  0.91666667  0.08333333  0.02482722  1.0
  Ni  Ni340  1  0.91666667  0.41666667  0.02482722  1.0
  Ni  Ni341  1  0.91666667  0.75000000  0.02482722  1.0
  Ni  Ni342  1  0.16666667  0.00000000  0.05607722  1.0
  Ni  Ni343  1  0.16666667  0.33333333  0.05607722  1.0
  Ni  Ni344  1  0.16666667  0.66666667  0.05607722  1.0
  Ni  Ni345  1  0.50000000  0.00000000  0.05607722  1.0
  Ni  Ni346  1  0.50000000  0.33333333  0.05607722  1.0
  Ni  Ni347  1  0.50000000  0.66666667  0.05607722  1.0
  Ni  Ni348  1  0.83333333  0.00000000  0.05607722  1.0
  Ni  Ni349  1  0.83333333  0.33333333  0.05607722  1.0
  Ni  Ni350  1  0.83333333  0.66666667  0.05607722  1.0
  Ni  Ni351  1  0.33333333  0.16666667  0.11857722  1.0
  Ni  Ni352  1  0.33333333  0.50000000  0.11857722  1.0
  Ni  Ni353  1  0.33333333  0.83333333  0.11857722  1.0
  Ni  Ni354  1  0.66666667  0.16666667  0.11857722  1.0
  Ni  Ni355  1  0.66666667  0.50000000  0.11857722  1.0
  Ni  Ni356  1  0.66666667  0.83333333  0.11857722  1.0
  Ni  Ni357  1  1.00000000  0.16666667  0.11857722  1.0
  Ni  Ni358  1  1.00000000  0.50000000  0.11857722  1.0
  Ni  Ni359  1  0.00000000  0.83333333  0.11857722  1.0
  Ni  Ni360  1  0.00000000  0.00000000  0.05607722  1.0
  Ni  Ni361  1  0.00000000  0.33333333  0.05607722  1.0
  Ni  Ni362  1  0.00000000  0.66666667  0.05607722  1.0
  Ni  Ni363  1  0.33333333  0.00000000  0.05607722  1.0
  Ni  Ni364  1  0.33333333  0.33333333  0.05607722  1.0
  Ni  Ni365  1  0.33333333  0.66666667  0.05607722  1.0
  Ni  Ni366  1  0.66666667  0.00000000  0.05607722  1.0
  Ni  Ni367  1  0.66666667  0.33333333  0.05607722  1.0
  Ni  Ni368  1  0.66666667  0.66666667  0.05607722  1.0
  Ni  Ni369  1  0.16666667  0.16666667  0.11857722  1.0
  Ni  Ni370  1  0.16666667  0.50000000  0.11857722  1.0
  Ni  Ni371  1  0.16666667  0.83333333  0.11857722  1.0
  Ni  Ni372  1  0.50000000  0.16666667  0.11857722  1.0
  Ni  Ni373  1  0.50000000  0.50000000  0.11857722  1.0
  Ni  Ni374  1  0.50000000  0.83333333  0.11857722  1.0
  Ni  Ni375  1  0.83333333  0.16666667  0.11857722  1.0
  Ni  Ni376  1  0.83333333  0.50000000  0.11857722  1.0
  Ni  Ni377  1  0.83333333  0.83333333  0.11857722  1.0
  Ni  Ni378  1  0.08663367  0.00000000  0.11857722  1.0
  Ni  Ni379  1  0.08663367  0.33333333  0.11857722  1.0
  Ni  Ni380  1  0.08663367  0.66666667  0.11857722  1.0
  Ni  Ni381  1  0.41996700  0.00000000  0.11857722  1.0
  Ni  Ni382  1  0.41996700  0.33333333  0.11857722  1.0
  Ni  Ni383  1  0.41996700  0.66666667  0.11857722  1.0
  Ni  Ni384  1  0.75330033  0.00000000  0.11857722  1.0
  Ni  Ni385  1  0.75330033  0.33333333  0.11857722  1.0
  Ni  Ni386  1  0.75330033  0.66666667  0.11857722  1.0
  Ni  Ni387  1  0.25330033  0.16666667  0.05607722  1.0
  Ni  Ni388  1  0.25330033  0.50000000  0.05607722  1.0
  Ni  Ni389  1  0.25330033  0.83333333  0.05607722  1.0
  Ni  Ni390  1  0.58663367  0.16666667  0.05607722  1.0
  Ni  Ni391  1  0.58663367  0.50000000  0.05607722  1.0
  Ni  Ni392  1  0.58663367  0.83333333  0.05607722  1.0
  Ni  Ni393  1  0.91996700  0.16666667  0.05607722  1.0
  Ni  Ni394  1  0.91996700  0.50000000  0.05607722  1.0
  Ni  Ni395  1  0.91996700  0.83333333  0.05607722  1.0
  Ga  Ga396  1  0.03206383  0.21815883  0.21012366  1.0
  Ga  Ga397  1  0.03206383  0.55149217  0.21012366  1.0
  Ga  Ga398  1  0.03206383  0.88482550  0.21012366  1.0
  Ga  Ga399  1  0.36539717  0.21815883  0.21012366  1.0
  Ga  Ga400  1  0.36539717  0.55149217  0.21012366  1.0
  Ga  Ga401  1  0.36539717  0.88482550  0.21012366  1.0
  Ga  Ga402  1  0.69873050  0.21815883  0.21012366  1.0
  Ga  Ga403  1  0.69873050  0.55149217  0.21012366  1.0
  Ga  Ga404  1  0.69873050  0.88482550  0.21012366  1.0
  Ga  Ga405  1  0.19873050  0.05149217  0.14762366  1.0
  Ga  Ga406  1  0.19873050  0.38482550  0.14762366  1.0
  Ga  Ga407  1  0.19873050  0.71815883  0.14762366  1.0
  Ga  Ga408  1  0.53206383  0.05149217  0.14762366  1.0
  Ga  Ga409  1  0.53206383  0.38482550  0.14762366  1.0
  Ga  Ga410  1  0.53206383  0.71815883  0.14762366  1.0
  Ga  Ga411  1  0.86539717  0.05149217  0.14762366  1.0
  Ga  Ga412  1  0.86539717  0.38482550  0.14762366  1.0
  Ga  Ga413  1  0.86539717  0.71815883  0.14762366  1.0
  Ga  Ga414  1  0.32767983  0.28184117  0.21453078  1.0
  Ga  Ga415  1  0.32767983  0.61517450  0.21453078  1.0
  Ga  Ga416  1  0.32767983  0.94850783  0.21453078  1.0
  Ga  Ga417  1  0.66101317  0.28184117  0.21453078  1.0
  Ga  Ga418  1  0.66101317  0.61517450  0.21453078  1.0
  Ga  Ga419  1  0.66101317  0.94850783  0.21453078  1.0
  Ga  Ga420  1  0.99434650  0.28184117  0.21453078  1.0
  Ga  Ga421  1  0.99434650  0.61517450  0.21453078  1.0
  Ga  Ga422  1  0.99434650  0.94850783  0.21453078  1.0
  Ga  Ga423  1  0.16101317  0.11517450  0.15203078  1.0
  Ga  Ga424  1  0.16101317  0.44850783  0.15203078  1.0
  Ga  Ga425  1  0.16101317  0.78184117  0.15203078  1.0
  Ga  Ga426  1  0.49434650  0.11517450  0.15203078  1.0
  Ga  Ga427  1  0.49434650  0.44850783  0.15203078  1.0
  Ga  Ga428  1  0.49434650  0.78184117  0.15203078  1.0
  Ga  Ga429  1  0.82767983  0.11517450  0.15203078  1.0
  Ga  Ga430  1  0.82767983  0.44850783  0.15203078  1.0
  Ga  Ga431  1  0.82767983  0.78184117  0.15203078  1.0
  Ga  Ga432  1  0.13460283  0.28184117  0.21453078  1.0
  Ga  Ga433  1  0.13460283  0.61517450  0.21453078  1.0
  Ga  Ga434  1  0.13460283  0.94850783  0.21453078  1.0
  Ga  Ga435  1  0.46793617  0.28184117  0.21453078  1.0
  Ga  Ga436  1  0.46793617  0.61517450  0.21453078  1.0
  Ga  Ga437  1  0.46793617  0.94850783  0.21453078  1.0
  Ga  Ga438  1  0.80126950  0.28184117  0.21453078  1.0
  Ga  Ga439  1  0.80126950  0.61517450  0.21453078  1.0
  Ga  Ga440  1  0.80126950  0.94850783  0.21453078  1.0
  Ga  Ga441  1  0.30126950  0.11517450  0.15203078  1.0
  Ga  Ga442  1  0.30126950  0.44850783  0.15203078  1.0
  Ga  Ga443  1  0.30126950  0.78184117  0.15203078  1.0
  Ga  Ga444  1  0.63460283  0.11517450  0.15203078  1.0
  Ga  Ga445  1  0.63460283  0.44850783  0.15203078  1.0
  Ga  Ga446  1  0.63460283  0.78184117  0.15203078  1.0
  Ga  Ga447  1  0.96793617  0.11517450  0.15203078  1.0
  Ga  Ga448  1  0.96793617  0.44850783  0.15203078  1.0
  Ga  Ga449  1  0.96793617  0.78184117  0.15203078  1.0
  Ga  Ga450  1  0.17232017  0.21815883  0.21012366  1.0
  Ga  Ga451  1  0.17232017  0.55149217  0.21012366  1.0
  Ga  Ga452  1  0.17232017  0.88482550  0.21012366  1.0
  Ga  Ga453  1  0.50565350  0.21815883  0.21012366  1.0
  Ga  Ga454  1  0.50565350  0.55149217  0.21012366  1.0
  Ga  Ga455  1  0.50565350  0.88482550  0.21012366  1.0
  Ga  Ga456  1  0.83898683  0.21815883  0.21012366  1.0
  Ga  Ga457  1  0.83898683  0.55149217  0.21012366  1.0
  Ga  Ga458  1  0.83898683  0.88482550  0.21012366  1.0
  Ga  Ga459  1  0.00565350  0.05149217  0.14762366  1.0
  Ga  Ga460  1  0.00565350  0.38482550  0.14762366  1.0
  Ga  Ga461  1  0.00565350  0.71815883  0.14762366  1.0
  Ga  Ga462  1  0.33898683  0.05149217  0.14762366  1.0
  Ga  Ga463  1  0.33898683  0.38482550  0.14762366  1.0
  Ga  Ga464  1  0.33898683  0.71815883  0.14762366  1.0
  Ga  Ga465  1  0.67232017  0.05149217  0.14762366  1.0
  Ga  Ga466  1  0.67232017  0.38482550  0.14762366  1.0
  Ga  Ga467  1  0.67232017  0.71815883  0.14762366  1.0
  Ga  Ga468  1  0.09106417  0.18545983  0.23073166  1.0
  Ga  Ga469  1  0.09106417  0.51879317  0.23073166  1.0
  Ga  Ga470  1  0.09106417  0.85212650  0.23073166  1.0
  Ga  Ga471  1  0.42439750  0.18545983  0.23073166  1.0
  Ga  Ga472  1  0.42439750  0.51879317  0.23073166  1.0
  Ga  Ga473  1  0.42439750  0.85212650  0.23073166  1.0
  Ga  Ga474  1  0.75773083  0.18545983  0.23073166  1.0
  Ga  Ga475  1  0.75773083  0.51879317  0.23073166  1.0
  Ga  Ga476  1  0.75773083  0.85212650  0.23073166  1.0
  Ga  Ga477  1  0.25773083  0.01879317  0.16823166  1.0
  Ga  Ga478  1  0.25773083  0.35212650  0.16823166  1.0
  Ga  Ga479  1  0.25773083  0.68545983  0.16823166  1.0
  Ga  Ga480  1  0.59106417  0.01879317  0.16823166  1.0
  Ga  Ga481  1  0.59106417  0.35212650  0.16823166  1.0
  Ga  Ga482  1  0.59106417  0.68545983  0.16823166  1.0
  Ga  Ga483  1  0.92439750  0.01879317  0.16823166  1.0
  Ga  Ga484  1  0.92439750  0.35212650  0.16823166  1.0
  Ga  Ga485  1  0.92439750  0.68545983  0.16823166  1.0
  Ga  Ga486  1  0.07560250  0.31454017  0.19392278  1.0
  Ga  Ga487  1  0.07560250  0.64787350  0.19392278  1.0
  Ga  Ga488  1  0.07560250  0.98120683  0.19392278  1.0
  Ga  Ga489  1  0.40893583  0.31454017  0.19392278  1.0
  Ga  Ga490  1  0.40893583  0.64787350  0.19392278  1.0
  Ga  Ga491  1  0.40893583  0.98120683  0.19392278  1.0
  Ga  Ga492  1  0.74226917  0.31454017  0.19392278  1.0
  Ga  Ga493  1  0.74226917  0.64787350  0.19392278  1.0
  Ga  Ga494  1  0.74226917  0.98120683  0.19392278  1.0
  Ga  Ga495  1  0.24226917  0.14787350  0.13142278  1.0
  Ga  Ga496  1  0.24226917  0.48120683  0.13142278  1.0
  Ga  Ga497  1  0.24226917  0.81454017  0.13142278  1.0
  Ga  Ga498  1  0.57560250  0.14787350  0.13142278  1.0
  Ga  Ga499  1  0.57560250  0.48120683  0.13142278  1.0
  Ga  Ga500  1  0.57560250  0.81454017  0.13142278  1.0
  Ga  Ga501  1  0.90893583  0.14787350  0.13142278  1.0
  Ga  Ga502  1  0.90893583  0.48120683  0.13142278  1.0
  Ga  Ga503  1  0.90893583  0.81454017  0.13142278  1.0
  Ga  Ga504  1  0.23608150  0.19455683  0.24355728  1.0
  Ga  Ga505  1  0.23608150  0.52789017  0.24355728  1.0
  Ga  Ga506  1  0.23608150  0.86122350  0.24355728  1.0
  Ga  Ga507  1  0.56941483  0.19455683  0.24355728  1.0
  Ga  Ga508  1  0.56941483  0.52789017  0.24355728  1.0
  Ga  Ga509  1  0.56941483  0.86122350  0.24355728  1.0
  Ga  Ga510  1  0.90274817  0.19455683  0.24355728  1.0
  Ga  Ga511  1  0.90274817  0.52789017  0.24355728  1.0
  Ga  Ga512  1  0.90274817  0.86122350  0.24355728  1.0
  Ga  Ga513  1  0.06941483  0.02789017  0.18105728  1.0
  Ga  Ga514  1  0.06941483  0.36122350  0.18105728  1.0
  Ga  Ga515  1  0.06941483  0.69455683  0.18105728  1.0
  Ga  Ga516  1  0.40274817  0.02789017  0.18105728  1.0
  Ga  Ga517  1  0.40274817  0.36122350  0.18105728  1.0
  Ga  Ga518  1  0.40274817  0.69455683  0.18105728  1.0
  Ga  Ga519  1  0.73608150  0.02789017  0.18105728  1.0
  Ga  Ga520  1  0.73608150  0.36122350  0.18105728  1.0
  Ga  Ga521  1  0.73608150  0.69455683  0.18105728  1.0
  Ga  Ga522  1  0.26391850  0.30544317  0.18109716  1.0
  Ga  Ga523  1  0.26391850  0.63877650  0.18109716  1.0
  Ga  Ga524  1  0.26391850  0.97210983  0.18109716  1.0
  Ga  Ga525  1  0.59725183  0.30544317  0.18109716  1.0
  Ga  Ga526  1  0.59725183  0.63877650  0.18109716  1.0
  Ga  Ga527  1  0.59725183  0.97210983  0.18109716  1.0
  Ga  Ga528  1  0.93058517  0.30544317  0.18109716  1.0
  Ga  Ga529  1  0.93058517  0.63877650  0.18109716  1.0
  Ga  Ga530  1  0.93058517  0.97210983  0.18109716  1.0
  Ga  Ga531  1  0.09725183  0.13877650  0.24359716  1.0
  Ga  Ga532  1  0.09725183  0.47210983  0.24359716  1.0
  Ga  Ga533  1  0.09725183  0.80544317  0.24359716  1.0
  Ga  Ga534  1  0.43058517  0.13877650  0.24359716  1.0
  Ga  Ga535  1  0.43058517  0.47210983  0.24359716  1.0
  Ga  Ga536  1  0.43058517  0.80544317  0.24359716  1.0
  Ga  Ga537  1  0.76391850  0.13877650  0.24359716  1.0
  Ga  Ga538  1  0.76391850  0.47210983  0.24359716  1.0
  Ga  Ga539  1  0.76391850  0.80544317  0.24359716  1.0
  Ga  Ga540  1  0.25000000  0.25000000  0.21232722  1.0
  Ga  Ga541  1  0.25000000  0.58333333  0.21232722  1.0
  Ga  Ga542  1  0.25000000  0.91666667  0.21232722  1.0
  Ga  Ga543  1  0.58333333  0.25000000  0.21232722  1.0
  Ga  Ga544  1  0.58333333  0.58333333  0.21232722  1.0
  Ga  Ga545  1  0.58333333  0.91666667  0.21232722  1.0
  Ga  Ga546  1  0.91666667  0.25000000  0.21232722  1.0
  Ga  Ga547  1  0.91666667  0.58333333  0.21232722  1.0
  Ga  Ga548  1  0.91666667  0.91666667  0.21232722  1.0
  Ga  Ga549  1  0.08333333  0.08333333  0.14982722  1.0
  Ga  Ga550  1  0.08333333  0.41666667  0.14982722  1.0
  Ga  Ga551  1  0.08333333  0.75000000  0.14982722  1.0
  Ga  Ga552  1  0.41666667  0.08333333  0.14982722  1.0
  Ga  Ga553  1  0.41666667  0.41666667  0.14982722  1.0
  Ga  Ga554  1  0.41666667  0.75000000  0.14982722  1.0
  Ga  Ga555  1  0.75000000  0.08333333  0.14982722  1.0
  Ga  Ga556  1  0.75000000  0.41666667  0.14982722  1.0
  Ga  Ga557  1  0.75000000  0.75000000  0.14982722  1.0
  Ni  Ni558  1  0.23726650  0.27681983  0.14645603  1.0
  Ni  Ni559  1  0.23726650  0.61015317  0.14645603  1.0
  Ni  Ni560  1  0.23726650  0.94348650  0.14645603  1.0
  Ni  Ni561  1  0.57059983  0.27681983  0.14645603  1.0
  Ni  Ni562  1  0.57059983  0.61015317  0.14645603  1.0
  Ni  Ni563  1  0.57059983  0.94348650  0.14645603  1.0
  Ni  Ni564  1  0.90393317  0.27681983  0.14645603  1.0
  Ni  Ni565  1  0.90393317  0.61015317  0.14645603  1.0
  Ni  Ni566  1  0.90393317  0.94348650  0.14645603  1.0
  Ni  Ni567  1  0.07059983  0.11015317  0.20895603  1.0
  Ni  Ni568  1  0.07059983  0.44348650  0.20895603  1.0
  Ni  Ni569  1  0.07059983  0.77681983  0.20895603  1.0
  Ni  Ni570  1  0.40393317  0.11015317  0.20895603  1.0
  Ni  Ni571  1  0.40393317  0.44348650  0.20895603  1.0
  Ni  Ni572  1  0.40393317  0.77681983  0.20895603  1.0
  Ni  Ni573  1  0.73726650  0.11015317  0.20895603  1.0
  Ni  Ni574  1  0.73726650  0.44348650  0.20895603  1.0
  Ni  Ni575  1  0.73726650  0.77681983  0.20895603  1.0
  Ni  Ni576  1  0.08842983  0.22318017  0.15319841  1.0
  Ni  Ni577  1  0.08842983  0.55651350  0.15319841  1.0
  Ni  Ni578  1  0.08842983  0.88984683  0.15319841  1.0
  Ni  Ni579  1  0.42176317  0.22318017  0.15319841  1.0
  Ni  Ni580  1  0.42176317  0.55651350  0.15319841  1.0
  Ni  Ni581  1  0.42176317  0.88984683  0.15319841  1.0
  Ni  Ni582  1  0.75509650  0.22318017  0.15319841  1.0
  Ni  Ni583  1  0.75509650  0.55651350  0.15319841  1.0
  Ni  Ni584  1  0.75509650  0.88984683  0.15319841  1.0
  Ni  Ni585  1  0.25509650  0.05651350  0.21569841  1.0
  Ni  Ni586  1  0.25509650  0.38984683  0.21569841  1.0
  Ni  Ni587  1  0.25509650  0.72318017  0.21569841  1.0
  Ni  Ni588  1  0.58842983  0.05651350  0.21569841  1.0
  Ni  Ni589  1  0.58842983  0.38984683  0.21569841  1.0
  Ni  Ni590  1  0.58842983  0.72318017  0.21569841  1.0
  Ni  Ni591  1  0.92176317  0.05651350  0.21569841  1.0
  Ni  Ni592  1  0.92176317  0.38984683  0.21569841  1.0
  Ni  Ni593  1  0.92176317  0.72318017  0.21569841  1.0
  Ni  Ni594  1  0.26273350  0.22318017  0.15319841  1.0
  Ni  Ni595  1  0.26273350  0.55651350  0.15319841  1.0
  Ni  Ni596  1  0.26273350  0.88984683  0.15319841  1.0
  Ni  Ni597  1  0.59606683  0.22318017  0.15319841  1.0
  Ni  Ni598  1  0.59606683  0.55651350  0.15319841  1.0
  Ni  Ni599  1  0.59606683  0.88984683  0.15319841  1.0
  Ni  Ni600  1  0.92940017  0.22318017  0.15319841  1.0
  Ni  Ni601  1  0.92940017  0.55651350  0.15319841  1.0
  Ni  Ni602  1  0.92940017  0.88984683  0.15319841  1.0
  Ni  Ni603  1  0.09606683  0.05651350  0.21569841  1.0
  Ni  Ni604  1  0.09606683  0.38984683  0.21569841  1.0
  Ni  Ni605  1  0.09606683  0.72318017  0.21569841  1.0
  Ni  Ni606  1  0.42940017  0.05651350  0.21569841  1.0
  Ni  Ni607  1  0.42940017  0.38984683  0.21569841  1.0
  Ni  Ni608  1  0.42940017  0.72318017  0.21569841  1.0
  Ni  Ni609  1  0.76273350  0.05651350  0.21569841  1.0
  Ni  Ni610  1  0.76273350  0.38984683  0.21569841  1.0
  Ni  Ni611  1  0.76273350  0.72318017  0.21569841  1.0
  Ni  Ni612  1  0.07823683  0.27681983  0.14645603  1.0
  Ni  Ni613  1  0.07823683  0.61015317  0.14645603  1.0
  Ni  Ni614  1  0.07823683  0.94348650  0.14645603  1.0
  Ni  Ni615  1  0.41157017  0.27681983  0.14645603  1.0
  Ni  Ni616  1  0.41157017  0.61015317  0.14645603  1.0
  Ni  Ni617  1  0.41157017  0.94348650  0.14645603  1.0
  Ni  Ni618  1  0.74490350  0.27681983  0.14645603  1.0
  Ni  Ni619  1  0.74490350  0.61015317  0.14645603  1.0
  Ni  Ni620  1  0.74490350  0.94348650  0.14645603  1.0
  Ni  Ni621  1  0.24490350  0.11015317  0.20895603  1.0
  Ni  Ni622  1  0.24490350  0.44348650  0.20895603  1.0
  Ni  Ni623  1  0.24490350  0.77681983  0.20895603  1.0
  Ni  Ni624  1  0.57823683  0.11015317  0.20895603  1.0
  Ni  Ni625  1  0.57823683  0.44348650  0.20895603  1.0
  Ni  Ni626  1  0.57823683  0.77681983  0.20895603  1.0
  Ni  Ni627  1  0.91157017  0.11015317  0.20895603  1.0
  Ni  Ni628  1  0.91157017  0.44348650  0.20895603  1.0
  Ni  Ni629  1  0.91157017  0.77681983  0.20895603  1.0
  Ni  Ni630  1  0.32049767  0.19645900  0.17953184  1.0
  Ni  Ni631  1  0.32049767  0.52979233  0.17953184  1.0
  Ni  Ni632  1  0.32049767  0.86312567  0.17953184  1.0
  Ni  Ni633  1  0.65383100  0.19645900  0.17953184  1.0
  Ni  Ni634  1  0.65383100  0.52979233  0.17953184  1.0
  Ni  Ni635  1  0.65383100  0.86312567  0.17953184  1.0
  Ni  Ni636  1  0.98716433  0.19645900  0.17953184  1.0
  Ni  Ni637  1  0.98716433  0.52979233  0.17953184  1.0
  Ni  Ni638  1  0.98716433  0.86312567  0.17953184  1.0
  Ni  Ni639  1  0.15383100  0.02979233  0.24203184  1.0
  Ni  Ni640  1  0.15383100  0.36312567  0.24203184  1.0
  Ni  Ni641  1  0.15383100  0.69645900  0.24203184  1.0
  Ni  Ni642  1  0.48716433  0.02979233  0.24203184  1.0
  Ni  Ni643  1  0.48716433  0.36312567  0.24203184  1.0
  Ni  Ni644  1  0.48716433  0.69645900  0.24203184  1.0
  Ni  Ni645  1  0.82049767  0.02979233  0.24203184  1.0
  Ni  Ni646  1  0.82049767  0.36312567  0.24203184  1.0
  Ni  Ni647  1  0.82049767  0.69645900  0.24203184  1.0
  Ni  Ni648  1  0.17950233  0.30354100  0.24512259  1.0
  Ni  Ni649  1  0.17950233  0.63687433  0.24512259  1.0
  Ni  Ni650  1  0.17950233  0.97020767  0.24512259  1.0
  Ni  Ni651  1  0.51283567  0.30354100  0.24512259  1.0
  Ni  Ni652  1  0.51283567  0.63687433  0.24512259  1.0
  Ni  Ni653  1  0.51283567  0.97020767  0.24512259  1.0
  Ni  Ni654  1  0.84616900  0.30354100  0.24512259  1.0
  Ni  Ni655  1  0.84616900  0.63687433  0.24512259  1.0
  Ni  Ni656  1  0.84616900  0.97020767  0.24512259  1.0
  Ni  Ni657  1  0.01283567  0.13687433  0.18262259  1.0
  Ni  Ni658  1  0.01283567  0.47020767  0.18262259  1.0
  Ni  Ni659  1  0.01283567  0.80354100  0.18262259  1.0
  Ni  Ni660  1  0.34616900  0.13687433  0.18262259  1.0
  Ni  Ni661  1  0.34616900  0.47020767  0.18262259  1.0
  Ni  Ni662  1  0.34616900  0.80354100  0.18262259  1.0
  Ni  Ni663  1  0.67950233  0.13687433  0.18262259  1.0
  Ni  Ni664  1  0.67950233  0.47020767  0.18262259  1.0
  Ni  Ni665  1  0.67950233  0.80354100  0.18262259  1.0
  Ni  Ni666  1  0.32853850  0.25206083  0.15265053  1.0
  Ni  Ni667  1  0.32853850  0.58539417  0.15265053  1.0
  Ni  Ni668  1  0.32853850  0.91872750  0.15265053  1.0
  Ni  Ni669  1  0.66187183  0.25206083  0.15265053  1.0
  Ni  Ni670  1  0.66187183  0.58539417  0.15265053  1.0
  Ni  Ni671  1  0.66187183  0.91872750  0.15265053  1.0
  Ni  Ni672  1  0.99520517  0.25206083  0.15265053  1.0
  Ni  Ni673  1  0.99520517  0.58539417  0.15265053  1.0
  Ni  Ni674  1  0.99520517  0.91872750  0.15265053  1.0
  Ni  Ni675  1  0.16187183  0.08539417  0.21515053  1.0
  Ni  Ni676  1  0.16187183  0.41872750  0.21515053  1.0
  Ni  Ni677  1  0.16187183  0.75206083  0.21515053  1.0
  Ni  Ni678  1  0.49520517  0.08539417  0.21515053  1.0
  Ni  Ni679  1  0.49520517  0.41872750  0.21515053  1.0
  Ni  Ni680  1  0.49520517  0.75206083  0.21515053  1.0
  Ni  Ni681  1  0.82853850  0.08539417  0.21515053  1.0
  Ni  Ni682  1  0.82853850  0.41872750  0.21515053  1.0
  Ni  Ni683  1  0.82853850  0.75206083  0.21515053  1.0
  Ni  Ni684  1  0.17146150  0.24793917  0.14700391  1.0
  Ni  Ni685  1  0.17146150  0.58127250  0.14700391  1.0
  Ni  Ni686  1  0.17146150  0.91460583  0.14700391  1.0
  Ni  Ni687  1  0.50479483  0.24793917  0.14700391  1.0
  Ni  Ni688  1  0.50479483  0.58127250  0.14700391  1.0
  Ni  Ni689  1  0.50479483  0.91460583  0.14700391  1.0
  Ni  Ni690  1  0.83812817  0.24793917  0.14700391  1.0
  Ni  Ni691  1  0.83812817  0.58127250  0.14700391  1.0
  Ni  Ni692  1  0.83812817  0.91460583  0.14700391  1.0
  Ni  Ni693  1  0.00479483  0.08127250  0.20950391  1.0
  Ni  Ni694  1  0.00479483  0.41460583  0.20950391  1.0
  Ni  Ni695  1  0.00479483  0.74793917  0.20950391  1.0
  Ni  Ni696  1  0.33812817  0.08127250  0.20950391  1.0
  Ni  Ni697  1  0.33812817  0.41460583  0.20950391  1.0
  Ni  Ni698  1  0.33812817  0.74793917  0.20950391  1.0
  Ni  Ni699  1  0.67146150  0.08127250  0.20950391  1.0
  Ni  Ni700  1  0.67146150  0.41460583  0.20950391  1.0
  Ni  Ni701  1  0.67146150  0.74793917  0.20950391  1.0
  Ni  Ni702  1  0.24669967  0.00000000  0.24357722  1.0
  Ni  Ni703  1  0.24669967  0.33333333  0.24357722  1.0
  Ni  Ni704  1  0.24669967  0.66666667  0.24357722  1.0
  Ni  Ni705  1  0.58003300  0.00000000  0.24357722  1.0
  Ni  Ni706  1  0.58003300  0.33333333  0.24357722  1.0
  Ni  Ni707  1  0.58003300  0.66666667  0.24357722  1.0
  Ni  Ni708  1  0.91336633  0.00000000  0.24357722  1.0
  Ni  Ni709  1  0.91336633  0.33333333  0.24357722  1.0
  Ni  Ni710  1  0.91336633  0.66666667  0.24357722  1.0
  Ni  Ni711  1  0.08003300  0.16666667  0.18107722  1.0
  Ni  Ni712  1  0.08003300  0.50000000  0.18107722  1.0
  Ni  Ni713  1  0.08003300  0.83333333  0.18107722  1.0
  Ni  Ni714  1  0.41336633  0.16666667  0.18107722  1.0
  Ni  Ni715  1  0.41336633  0.50000000  0.18107722  1.0
  Ni  Ni716  1  0.41336633  0.83333333  0.18107722  1.0
  Ni  Ni717  1  0.74669967  0.16666667  0.18107722  1.0
  Ni  Ni718  1  0.74669967  0.50000000  0.18107722  1.0
  Ni  Ni719  1  0.74669967  0.83333333  0.18107722  1.0
  Ni  Ni720  1  0.08333333  0.25000000  0.21232722  1.0
  Ni  Ni721  1  0.08333333  0.58333333  0.21232722  1.0
  Ni  Ni722  1  0.08333333  0.91666667  0.21232722  1.0
  Ni  Ni723  1  0.41666667  0.25000000  0.21232722  1.0
  Ni  Ni724  1  0.41666667  0.58333333  0.21232722  1.0
  Ni  Ni725  1  0.41666667  0.91666667  0.21232722  1.0
  Ni  Ni726  1  0.75000000  0.25000000  0.21232722  1.0
  Ni  Ni727  1  0.75000000  0.58333333  0.21232722  1.0
  Ni  Ni728  1  0.75000000  0.91666667  0.21232722  1.0
  Ni  Ni729  1  0.25000000  0.08333333  0.14982722  1.0
  Ni  Ni730  1  0.25000000  0.41666667  0.14982722  1.0
  Ni  Ni731  1  0.25000000  0.75000000  0.14982722  1.0
  Ni  Ni732  1  0.58333333  0.08333333  0.14982722  1.0
  Ni  Ni733  1  0.58333333  0.41666667  0.14982722  1.0
  Ni  Ni734  1  0.58333333  0.75000000  0.14982722  1.0
  Ni  Ni735  1  0.91666667  0.08333333  0.14982722  1.0
  Ni  Ni736  1  0.91666667  0.41666667  0.14982722  1.0
  Ni  Ni737  1  0.91666667  0.75000000  0.14982722  1.0
  Ni  Ni738  1  0.16666667  0.00000000  0.18107722  1.0
  Ni  Ni739  1  0.16666667  0.33333333  0.18107722  1.0
  Ni  Ni740  1  0.16666667  0.66666667  0.18107722  1.0
  Ni  Ni741  1  0.50000000  0.00000000  0.18107722  1.0
  Ni  Ni742  1  0.50000000  0.33333333  0.18107722  1.0
  Ni  Ni743  1  0.50000000  0.66666667  0.18107722  1.0
  Ni  Ni744  1  0.83333333  0.00000000  0.18107722  1.0
  Ni  Ni745  1  0.83333333  0.33333333  0.18107722  1.0
  Ni  Ni746  1  0.83333333  0.66666667  0.18107722  1.0
  Ni  Ni747  1  0.33333333  0.16666667  0.24357722  1.0
  Ni  Ni748  1  0.33333333  0.50000000  0.24357722  1.0
  Ni  Ni749  1  0.33333333  0.83333333  0.24357722  1.0
  Ni  Ni750  1  0.66666667  0.16666667  0.24357722  1.0
  Ni  Ni751  1  0.66666667  0.50000000  0.24357722  1.0
  Ni  Ni752  1  0.66666667  0.83333333  0.24357722  1.0
  Ni  Ni753  1  1.00000000  0.16666667  0.24357722  1.0
  Ni  Ni754  1  1.00000000  0.50000000  0.24357722  1.0
  Ni  Ni755  1  0.00000000  0.83333333  0.24357722  1.0
  Ni  Ni756  1  0.00000000  0.00000000  0.18107722  1.0
  Ni  Ni757  1  0.00000000  0.33333333  0.18107722  1.0
  Ni  Ni758  1  0.00000000  0.66666667  0.18107722  1.0
  Ni  Ni759  1  0.33333333  0.00000000  0.18107722  1.0
  Ni  Ni760  1  0.33333333  0.33333333  0.18107722  1.0
  Ni  Ni761  1  0.33333333  0.66666667  0.18107722  1.0
  Ni  Ni762  1  0.66666667  0.00000000  0.18107722  1.0
  Ni  Ni763  1  0.66666667  0.33333333  0.18107722  1.0
  Ni  Ni764  1  0.66666667  0.66666667  0.18107722  1.0
  Ni  Ni765  1  0.16666667  0.16666667  0.24357722  1.0
  Ni  Ni766  1  0.16666667  0.50000000  0.24357722  1.0
  Ni  Ni767  1  0.16666667  0.83333333  0.24357722  1.0
  Ni  Ni768  1  0.50000000  0.16666667  0.24357722  1.0
  Ni  Ni769  1  0.50000000  0.50000000  0.24357722  1.0
  Ni  Ni770  1  0.50000000  0.83333333  0.24357722  1.0
  Ni  Ni771  1  0.83333333  0.16666667  0.24357722  1.0
  Ni  Ni772  1  0.83333333  0.50000000  0.24357722  1.0
  Ni  Ni773  1  0.83333333  0.83333333  0.24357722  1.0
  Ni  Ni774  1  0.08663367  0.00000000  0.24357722  1.0
  Ni  Ni775  1  0.08663367  0.33333333  0.24357722  1.0
  Ni  Ni776  1  0.08663367  0.66666667  0.24357722  1.0
  Ni  Ni777  1  0.41996700  0.00000000  0.24357722  1.0
  Ni  Ni778  1  0.41996700  0.33333333  0.24357722  1.0
  Ni  Ni779  1  0.41996700  0.66666667  0.24357722  1.0
  Ni  Ni780  1  0.75330033  0.00000000  0.24357722  1.0
  Ni  Ni781  1  0.75330033  0.33333333  0.24357722  1.0
  Ni  Ni782  1  0.75330033  0.66666667  0.24357722  1.0
  Ni  Ni783  1  0.25330033  0.16666667  0.18107722  1.0
  Ni  Ni784  1  0.25330033  0.50000000  0.18107722  1.0
  Ni  Ni785  1  0.25330033  0.83333333  0.18107722  1.0
  Ni  Ni786  1  0.58663367  0.16666667  0.18107722  1.0
  Ni  Ni787  1  0.58663367  0.50000000  0.18107722  1.0
  Ni  Ni788  1  0.58663367  0.83333333  0.18107722  1.0
  Ni  Ni789  1  0.91996700  0.16666667  0.18107722  1.0
  Ni  Ni790  1  0.91996700  0.50000000  0.18107722  1.0
  Ni  Ni791  1  0.91996700  0.83333333  0.18107722  1.0
  Ga  Ga792  1  0.03206383  0.21815883  0.33512366  1.0
  Ga  Ga793  1  0.03206383  0.55149217  0.33512366  1.0
  Ga  Ga794  1  0.03206383  0.88482550  0.33512366  1.0
  Ga  Ga795  1  0.36539717  0.21815883  0.33512366  1.0
  Ga  Ga796  1  0.36539717  0.55149217  0.33512366  1.0
  Ga  Ga797  1  0.36539717  0.88482550  0.33512366  1.0
  Ga  Ga798  1  0.69873050  0.21815883  0.33512366  1.0
  Ga  Ga799  1  0.69873050  0.55149217  0.33512366  1.0
  Ga  Ga800  1  0.69873050  0.88482550  0.33512366  1.0
  Ga  Ga801  1  0.19873050  0.05149217  0.27262366  1.0
  Ga  Ga802  1  0.19873050  0.38482550  0.27262366  1.0
  Ga  Ga803  1  0.19873050  0.71815883  0.27262366  1.0
  Ga  Ga804  1  0.53206383  0.05149217  0.27262366  1.0
  Ga  Ga805  1  0.53206383  0.38482550  0.27262366  1.0
  Ga  Ga806  1  0.53206383  0.71815883  0.27262366  1.0
  Ga  Ga807  1  0.86539717  0.05149217  0.27262366  1.0
  Ga  Ga808  1  0.86539717  0.38482550  0.27262366  1.0
  Ga  Ga809  1  0.86539717  0.71815883  0.27262366  1.0
  Ga  Ga810  1  0.32767983  0.28184117  0.33953078  1.0
  Ga  Ga811  1  0.32767983  0.61517450  0.33953078  1.0
  Ga  Ga812  1  0.32767983  0.94850783  0.33953078  1.0
  Ga  Ga813  1  0.66101317  0.28184117  0.33953078  1.0
  Ga  Ga814  1  0.66101317  0.61517450  0.33953078  1.0
  Ga  Ga815  1  0.66101317  0.94850783  0.33953078  1.0
  Ga  Ga816  1  0.99434650  0.28184117  0.33953078  1.0
  Ga  Ga817  1  0.99434650  0.61517450  0.33953078  1.0
  Ga  Ga818  1  0.99434650  0.94850783  0.33953078  1.0
  Ga  Ga819  1  0.16101317  0.11517450  0.27703078  1.0
  Ga  Ga820  1  0.16101317  0.44850783  0.27703078  1.0
  Ga  Ga821  1  0.16101317  0.78184117  0.27703078  1.0
  Ga  Ga822  1  0.49434650  0.11517450  0.27703078  1.0
  Ga  Ga823  1  0.49434650  0.44850783  0.27703078  1.0
  Ga  Ga824  1  0.49434650  0.78184117  0.27703078  1.0
  Ga  Ga825  1  0.82767983  0.11517450  0.27703078  1.0
  Ga  Ga826  1  0.82767983  0.44850783  0.27703078  1.0
  Ga  Ga827  1  0.82767983  0.78184117  0.27703078  1.0
  Ga  Ga828  1  0.13460283  0.28184117  0.33953078  1.0
  Ga  Ga829  1  0.13460283  0.61517450  0.33953078  1.0
  Ga  Ga830  1  0.13460283  0.94850783  0.33953078  1.0
  Ga  Ga831  1  0.46793617  0.28184117  0.33953078  1.0
  Ga  Ga832  1  0.46793617  0.61517450  0.33953078  1.0
  Ga  Ga833  1  0.46793617  0.94850783  0.33953078  1.0
  Ga  Ga834  1  0.80126950  0.28184117  0.33953078  1.0
  Ga  Ga835  1  0.80126950  0.61517450  0.33953078  1.0
  Ga  Ga836  1  0.80126950  0.94850783  0.33953078  1.0
  Ga  Ga837  1  0.30126950  0.11517450  0.27703078  1.0
  Ga  Ga838  1  0.30126950  0.44850783  0.27703078  1.0
  Ga  Ga839  1  0.30126950  0.78184117  0.27703078  1.0
  Ga  Ga840  1  0.63460283  0.11517450  0.27703078  1.0
  Ga  Ga841  1  0.63460283  0.44850783  0.27703078  1.0
  Ga  Ga842  1  0.63460283  0.78184117  0.27703078  1.0
  Ga  Ga843  1  0.96793617  0.11517450  0.27703078  1.0
  Ga  Ga844  1  0.96793617  0.44850783  0.27703078  1.0
  Ga  Ga845  1  0.96793617  0.78184117  0.27703078  1.0
  Ga  Ga846  1  0.17232017  0.21815883  0.33512366  1.0
  Ga  Ga847  1  0.17232017  0.55149217  0.33512366  1.0
  Ga  Ga848  1  0.17232017  0.88482550  0.33512366  1.0
  Ga  Ga849  1  0.50565350  0.21815883  0.33512366  1.0
  Ga  Ga850  1  0.50565350  0.55149217  0.33512366  1.0
  Ga  Ga851  1  0.50565350  0.88482550  0.33512366  1.0
  Ga  Ga852  1  0.83898683  0.21815883  0.33512366  1.0
  Ga  Ga853  1  0.83898683  0.55149217  0.33512366  1.0
  Ga  Ga854  1  0.83898683  0.88482550  0.33512366  1.0
  Ga  Ga855  1  0.00565350  0.05149217  0.27262366  1.0
  Ga  Ga856  1  0.00565350  0.38482550  0.27262366  1.0
  Ga  Ga857  1  0.00565350  0.71815883  0.27262366  1.0
  Ga  Ga858  1  0.33898683  0.05149217  0.27262366  1.0
  Ga  Ga859  1  0.33898683  0.38482550  0.27262366  1.0
  Ga  Ga860  1  0.33898683  0.71815883  0.27262366  1.0
  Ga  Ga861  1  0.67232017  0.05149217  0.27262366  1.0
  Ga  Ga862  1  0.67232017  0.38482550  0.27262366  1.0
  Ga  Ga863  1  0.67232017  0.71815883  0.27262366  1.0
  Ga  Ga864  1  0.09106417  0.18545983  0.35573166  1.0
  Ga  Ga865  1  0.09106417  0.51879317  0.35573166  1.0
  Ga  Ga866  1  0.09106417  0.85212650  0.35573166  1.0
  Ga  Ga867  1  0.42439750  0.18545983  0.35573166  1.0
  Ga  Ga868  1  0.42439750  0.51879317  0.35573166  1.0
  Ga  Ga869  1  0.42439750  0.85212650  0.35573166  1.0
  Ga  Ga870  1  0.75773083  0.18545983  0.35573166  1.0
  Ga  Ga871  1  0.75773083  0.51879317  0.35573166  1.0
  Ga  Ga872  1  0.75773083  0.85212650  0.35573166  1.0
  Ga  Ga873  1  0.25773083  0.01879317  0.29323166  1.0
  Ga  Ga874  1  0.25773083  0.35212650  0.29323166  1.0
  Ga  Ga875  1  0.25773083  0.68545983  0.29323166  1.0
  Ga  Ga876  1  0.59106417  0.01879317  0.29323166  1.0
  Ga  Ga877  1  0.59106417  0.35212650  0.29323166  1.0
  Ga  Ga878  1  0.59106417  0.68545983  0.29323166  1.0
  Ga  Ga879  1  0.92439750  0.01879317  0.29323166  1.0
  Ga  Ga880  1  0.92439750  0.35212650  0.29323166  1.0
  Ga  Ga881  1  0.92439750  0.68545983  0.29323166  1.0
  Ga  Ga882  1  0.07560250  0.31454017  0.31892278  1.0
  Ga  Ga883  1  0.07560250  0.64787350  0.31892278  1.0
  Ga  Ga884  1  0.07560250  0.98120683  0.31892278  1.0
  Ga  Ga885  1  0.40893583  0.31454017  0.31892278  1.0
  Ga  Ga886  1  0.40893583  0.64787350  0.31892278  1.0
  Ga  Ga887  1  0.40893583  0.98120683  0.31892278  1.0
  Ga  Ga888  1  0.74226917  0.31454017  0.31892278  1.0
  Ga  Ga889  1  0.74226917  0.64787350  0.31892278  1.0
  Ga  Ga890  1  0.74226917  0.98120683  0.31892278  1.0
  Ga  Ga891  1  0.24226917  0.14787350  0.25642278  1.0
  Ga  Ga892  1  0.24226917  0.48120683  0.25642278  1.0
  Ga  Ga893  1  0.24226917  0.81454017  0.25642278  1.0
  Ga  Ga894  1  0.57560250  0.14787350  0.25642278  1.0
  Ga  Ga895  1  0.57560250  0.48120683  0.25642278  1.0
  Ga  Ga896  1  0.57560250  0.81454017  0.25642278  1.0
  Ga  Ga897  1  0.90893583  0.14787350  0.25642278  1.0
  Ga  Ga898  1  0.90893583  0.48120683  0.25642278  1.0
  Ga  Ga899  1  0.90893583  0.81454017  0.25642278  1.0
  Ga  Ga900  1  0.23608150  0.19455683  0.36855728  1.0
  Ga  Ga901  1  0.23608150  0.52789017  0.36855728  1.0
  Ga  Ga902  1  0.23608150  0.86122350  0.36855728  1.0
  Ga  Ga903  1  0.56941483  0.19455683  0.36855728  1.0
  Ga  Ga904  1  0.56941483  0.52789017  0.36855728  1.0
  Ga  Ga905  1  0.56941483  0.86122350  0.36855728  1.0
  Ga  Ga906  1  0.90274817  0.19455683  0.36855728  1.0
  Ga  Ga907  1  0.90274817  0.52789017  0.36855728  1.0
  Ga  Ga908  1  0.90274817  0.86122350  0.36855728  1.0
  Ga  Ga909  1  0.06941483  0.02789017  0.30605728  1.0
  Ga  Ga910  1  0.06941483  0.36122350  0.30605728  1.0
  Ga  Ga911  1  0.06941483  0.69455683  0.30605728  1.0
  Ga  Ga912  1  0.40274817  0.02789017  0.30605728  1.0
  Ga  Ga913  1  0.40274817  0.36122350  0.30605728  1.0
  Ga  Ga914  1  0.40274817  0.69455683  0.30605728  1.0
  Ga  Ga915  1  0.73608150  0.02789017  0.30605728  1.0
  Ga  Ga916  1  0.73608150  0.36122350  0.30605728  1.0
  Ga  Ga917  1  0.73608150  0.69455683  0.30605728  1.0
  Ga  Ga918  1  0.26391850  0.30544317  0.30609716  1.0
  Ga  Ga919  1  0.26391850  0.63877650  0.30609716  1.0
  Ga  Ga920  1  0.26391850  0.97210983  0.30609716  1.0
  Ga  Ga921  1  0.59725183  0.30544317  0.30609716  1.0
  Ga  Ga922  1  0.59725183  0.63877650  0.30609716  1.0
  Ga  Ga923  1  0.59725183  0.97210983  0.30609716  1.0
  Ga  Ga924  1  0.93058517  0.30544317  0.30609716  1.0
  Ga  Ga925  1  0.93058517  0.63877650  0.30609716  1.0
  Ga  Ga926  1  0.93058517  0.97210983  0.30609716  1.0
  Ga  Ga927  1  0.09725183  0.13877650  0.36859716  1.0
  Ga  Ga928  1  0.09725183  0.47210983  0.36859716  1.0
  Ga  Ga929  1  0.09725183  0.80544317  0.36859716  1.0
  Ga  Ga930  1  0.43058517  0.13877650  0.36859716  1.0
  Ga  Ga931  1  0.43058517  0.47210983  0.36859716  1.0
  Ga  Ga932  1  0.43058517  0.80544317  0.36859716  1.0
  Ga  Ga933  1  0.76391850  0.13877650  0.36859716  1.0
  Ga  Ga934  1  0.76391850  0.47210983  0.36859716  1.0
  Ga  Ga935  1  0.76391850  0.80544317  0.36859716  1.0
  Ga  Ga936  1  0.25000000  0.25000000  0.33732722  1.0
  Ga  Ga937  1  0.25000000  0.58333333  0.33732722  1.0
  Ga  Ga938  1  0.25000000  0.91666667  0.33732722  1.0
  Ga  Ga939  1  0.58333333  0.25000000  0.33732722  1.0
  Ga  Ga940  1  0.58333333  0.58333333  0.33732722  1.0
  Ga  Ga941  1  0.58333333  0.91666667  0.33732722  1.0
  Ga  Ga942  1  0.91666667  0.25000000  0.33732722  1.0
  Ga  Ga943  1  0.91666667  0.58333333  0.33732722  1.0
  Ga  Ga944  1  0.91666667  0.91666667  0.33732722  1.0
  Ga  Ga945  1  0.08333333  0.08333333  0.27482722  1.0
  Ga  Ga946  1  0.08333333  0.41666667  0.27482722  1.0
  Ga  Ga947  1  0.08333333  0.75000000  0.27482722  1.0
  Ga  Ga948  1  0.41666667  0.08333333  0.27482722  1.0
  Ga  Ga949  1  0.41666667  0.41666667  0.27482722  1.0
  Ga  Ga950  1  0.41666667  0.75000000  0.27482722  1.0
  Ga  Ga951  1  0.75000000  0.08333333  0.27482722  1.0
  Ga  Ga952  1  0.75000000  0.41666667  0.27482722  1.0
  Ga  Ga953  1  0.75000000  0.75000000  0.27482722  1.0
  Ni  Ni954  1  0.23726650  0.27681983  0.27145603  1.0
  Ni  Ni955  1  0.23726650  0.61015317  0.27145603  1.0
  Ni  Ni956  1  0.23726650  0.94348650  0.27145603  1.0
  Ni  Ni957  1  0.57059983  0.27681983  0.27145603  1.0
  Ni  Ni958  1  0.57059983  0.61015317  0.27145603  1.0
  Ni  Ni959  1  0.57059983  0.94348650  0.27145603  1.0
  Ni  Ni960  1  0.90393317  0.27681983  0.27145603  1.0
  Ni  Ni961  1  0.90393317  0.61015317  0.27145603  1.0
  Ni  Ni962  1  0.90393317  0.94348650  0.27145603  1.0
  Ni  Ni963  1  0.07059983  0.11015317  0.33395603  1.0
  Ni  Ni964  1  0.07059983  0.44348650  0.33395603  1.0
  Ni  Ni965  1  0.07059983  0.77681983  0.33395603  1.0
  Ni  Ni966  1  0.40393317  0.11015317  0.33395603  1.0
  Ni  Ni967  1  0.40393317  0.44348650  0.33395603  1.0
  Ni  Ni968  1  0.40393317  0.77681983  0.33395603  1.0
  Ni  Ni969  1  0.73726650  0.11015317  0.33395603  1.0
  Ni  Ni970  1  0.73726650  0.44348650  0.33395603  1.0
  Ni  Ni971  1  0.73726650  0.77681983  0.33395603  1.0
  Ni  Ni972  1  0.08842983  0.22318017  0.27819841  1.0
  Ni  Ni973  1  0.08842983  0.55651350  0.27819841  1.0
  Ni  Ni974  1  0.08842983  0.88984683  0.27819841  1.0
  Ni  Ni975  1  0.42176317  0.22318017  0.27819841  1.0
  Ni  Ni976  1  0.42176317  0.55651350  0.27819841  1.0
  Ni  Ni977  1  0.42176317  0.88984683  0.27819841  1.0
  Ni  Ni978  1  0.75509650  0.22318017  0.27819841  1.0
  Ni  Ni979  1  0.75509650  0.55651350  0.27819841  1.0
  Ni  Ni980  1  0.75509650  0.88984683  0.27819841  1.0
  Ni  Ni981  1  0.25509650  0.05651350  0.34069841  1.0
  Ni  Ni982  1  0.25509650  0.38984683  0.34069841  1.0
  Ni  Ni983  1  0.25509650  0.72318017  0.34069841  1.0
  Ni  Ni984  1  0.58842983  0.05651350  0.34069841  1.0
  Ni  Ni985  1  0.58842983  0.38984683  0.34069841  1.0
  Ni  Ni986  1  0.58842983  0.72318017  0.34069841  1.0
  Ni  Ni987  1  0.92176317  0.05651350  0.34069841  1.0
  Ni  Ni988  1  0.92176317  0.38984683  0.34069841  1.0
  Ni  Ni989  1  0.92176317  0.72318017  0.34069841  1.0
  Ni  Ni990  1  0.26273350  0.22318017  0.27819841  1.0
  Ni  Ni991  1  0.26273350  0.55651350  0.27819841  1.0
  Ni  Ni992  1  0.26273350  0.88984683  0.27819841  1.0
  Ni  Ni993  1  0.59606683  0.22318017  0.27819841  1.0
  Ni  Ni994  1  0.59606683  0.55651350  0.27819841  1.0
  Ni  Ni995  1  0.59606683  0.88984683  0.27819841  1.0
  Ni  Ni996  1  0.92940017  0.22318017  0.27819841  1.0
  Ni  Ni997  1  0.92940017  0.55651350  0.27819841  1.0
  Ni  Ni998  1  0.92940017  0.88984683  0.27819841  1.0
  Ni  Ni999  1  0.09606683  0.05651350  0.34069841  1.0
  Ni  Ni1000  1  0.09606683  0.38984683  0.34069841  1.0
  Ni  Ni1001  1  0.09606683  0.72318017  0.34069841  1.0
  Ni  Ni1002  1  0.42940017  0.05651350  0.34069841  1.0
  Ni  Ni1003  1  0.42940017  0.38984683  0.34069841  1.0
  Ni  Ni1004  1  0.42940017  0.72318017  0.34069841  1.0
  Ni  Ni1005  1  0.76273350  0.05651350  0.34069841  1.0
  Ni  Ni1006  1  0.76273350  0.38984683  0.34069841  1.0
  Ni  Ni1007  1  0.76273350  0.72318017  0.34069841  1.0
  Ni  Ni1008  1  0.07823683  0.27681983  0.27145603  1.0
  Ni  Ni1009  1  0.07823683  0.61015317  0.27145603  1.0
  Ni  Ni1010  1  0.07823683  0.94348650  0.27145603  1.0
  Ni  Ni1011  1  0.41157017  0.27681983  0.27145603  1.0
  Ni  Ni1012  1  0.41157017  0.61015317  0.27145603  1.0
  Ni  Ni1013  1  0.41157017  0.94348650  0.27145603  1.0
  Ni  Ni1014  1  0.74490350  0.27681983  0.27145603  1.0
  Ni  Ni1015  1  0.74490350  0.61015317  0.27145603  1.0
  Ni  Ni1016  1  0.74490350  0.94348650  0.27145603  1.0
  Ni  Ni1017  1  0.24490350  0.11015317  0.33395603  1.0
  Ni  Ni1018  1  0.24490350  0.44348650  0.33395603  1.0
  Ni  Ni1019  1  0.24490350  0.77681983  0.33395603  1.0
  Ni  Ni1020  1  0.57823683  0.11015317  0.33395603  1.0
  Ni  Ni1021  1  0.57823683  0.44348650  0.33395603  1.0
  Ni  Ni1022  1  0.57823683  0.77681983  0.33395603  1.0
  Ni  Ni1023  1  0.91157017  0.11015317  0.33395603  1.0
  Ni  Ni1024  1  0.91157017  0.44348650  0.33395603  1.0
  Ni  Ni1025  1  0.91157017  0.77681983  0.33395603  1.0
  Ni  Ni1026  1  0.32049767  0.19645900  0.30453184  1.0
  Ni  Ni1027  1  0.32049767  0.52979233  0.30453184  1.0
  Ni  Ni1028  1  0.32049767  0.86312567  0.30453184  1.0
  Ni  Ni1029  1  0.65383100  0.19645900  0.30453184  1.0
  Ni  Ni1030  1  0.65383100  0.52979233  0.30453184  1.0
  Ni  Ni1031  1  0.65383100  0.86312567  0.30453184  1.0
  Ni  Ni1032  1  0.98716433  0.19645900  0.30453184  1.0
  Ni  Ni1033  1  0.98716433  0.52979233  0.30453184  1.0
  Ni  Ni1034  1  0.98716433  0.86312567  0.30453184  1.0
  Ni  Ni1035  1  0.15383100  0.02979233  0.36703184  1.0
  Ni  Ni1036  1  0.15383100  0.36312567  0.36703184  1.0
  Ni  Ni1037  1  0.15383100  0.69645900  0.36703184  1.0
  Ni  Ni1038  1  0.48716433  0.02979233  0.36703184  1.0
  Ni  Ni1039  1  0.48716433  0.36312567  0.36703184  1.0
  Ni  Ni1040  1  0.48716433  0.69645900  0.36703184  1.0
  Ni  Ni1041  1  0.82049767  0.02979233  0.36703184  1.0
  Ni  Ni1042  1  0.82049767  0.36312567  0.36703184  1.0
  Ni  Ni1043  1  0.82049767  0.69645900  0.36703184  1.0
  Ni  Ni1044  1  0.17950233  0.30354100  0.37012259  1.0
  Ni  Ni1045  1  0.17950233  0.63687433  0.37012259  1.0
  Ni  Ni1046  1  0.17950233  0.97020767  0.37012259  1.0
  Ni  Ni1047  1  0.51283567  0.30354100  0.37012259  1.0
  Ni  Ni1048  1  0.51283567  0.63687433  0.37012259  1.0
  Ni  Ni1049  1  0.51283567  0.97020767  0.37012259  1.0
  Ni  Ni1050  1  0.84616900  0.30354100  0.37012259  1.0
  Ni  Ni1051  1  0.84616900  0.63687433  0.37012259  1.0
  Ni  Ni1052  1  0.84616900  0.97020767  0.37012259  1.0
  Ni  Ni1053  1  0.01283567  0.13687433  0.30762259  1.0
  Ni  Ni1054  1  0.01283567  0.47020767  0.30762259  1.0
  Ni  Ni1055  1  0.01283567  0.80354100  0.30762259  1.0
  Ni  Ni1056  1  0.34616900  0.13687433  0.30762259  1.0
  Ni  Ni1057  1  0.34616900  0.47020767  0.30762259  1.0
  Ni  Ni1058  1  0.34616900  0.80354100  0.30762259  1.0
  Ni  Ni1059  1  0.67950233  0.13687433  0.30762259  1.0
  Ni  Ni1060  1  0.67950233  0.47020767  0.30762259  1.0
  Ni  Ni1061  1  0.67950233  0.80354100  0.30762259  1.0
  Ni  Ni1062  1  0.32853850  0.25206083  0.27765053  1.0
  Ni  Ni1063  1  0.32853850  0.58539417  0.27765053  1.0
  Ni  Ni1064  1  0.32853850  0.91872750  0.27765053  1.0
  Ni  Ni1065  1  0.66187183  0.25206083  0.27765053  1.0
  Ni  Ni1066  1  0.66187183  0.58539417  0.27765053  1.0
  Ni  Ni1067  1  0.66187183  0.91872750  0.27765053  1.0
  Ni  Ni1068  1  0.99520517  0.25206083  0.27765053  1.0
  Ni  Ni1069  1  0.99520517  0.58539417  0.27765053  1.0
  Ni  Ni1070  1  0.99520517  0.91872750  0.27765053  1.0
  Ni  Ni1071  1  0.16187183  0.08539417  0.34015053  1.0
  Ni  Ni1072  1  0.16187183  0.41872750  0.34015053  1.0
  Ni  Ni1073  1  0.16187183  0.75206083  0.34015053  1.0
  Ni  Ni1074  1  0.49520517  0.08539417  0.34015053  1.0
  Ni  Ni1075  1  0.49520517  0.41872750  0.34015053  1.0
  Ni  Ni1076  1  0.49520517  0.75206083  0.34015053  1.0
  Ni  Ni1077  1  0.82853850  0.08539417  0.34015053  1.0
  Ni  Ni1078  1  0.82853850  0.41872750  0.34015053  1.0
  Ni  Ni1079  1  0.82853850  0.75206083  0.34015053  1.0
  Ni  Ni1080  1  0.17146150  0.24793917  0.27200391  1.0
  Ni  Ni1081  1  0.17146150  0.58127250  0.27200391  1.0
  Ni  Ni1082  1  0.17146150  0.91460583  0.27200391  1.0
  Ni  Ni1083  1  0.50479483  0.24793917  0.27200391  1.0
  Ni  Ni1084  1  0.50479483  0.58127250  0.27200391  1.0
  Ni  Ni1085  1  0.50479483  0.91460583  0.27200391  1.0
  Ni  Ni1086  1  0.83812817  0.24793917  0.27200391  1.0
  Ni  Ni1087  1  0.83812817  0.58127250  0.27200391  1.0
  Ni  Ni1088  1  0.83812817  0.91460583  0.27200391  1.0
  Ni  Ni1089  1  0.00479483  0.08127250  0.33450391  1.0
  Ni  Ni1090  1  0.00479483  0.41460583  0.33450391  1.0
  Ni  Ni1091  1  0.00479483  0.74793917  0.33450391  1.0
  Ni  Ni1092  1  0.33812817  0.08127250  0.33450391  1.0
  Ni  Ni1093  1  0.33812817  0.41460583  0.33450391  1.0
  Ni  Ni1094  1  0.33812817  0.74793917  0.33450391  1.0
  Ni  Ni1095  1  0.67146150  0.08127250  0.33450391  1.0
  Ni  Ni1096  1  0.67146150  0.41460583  0.33450391  1.0
  Ni  Ni1097  1  0.67146150  0.74793917  0.33450391  1.0
  Ni  Ni1098  1  0.24669967  0.00000000  0.36857722  1.0
  Ni  Ni1099  1  0.24669967  0.33333333  0.36857722  1.0
  Ni  Ni1100  1  0.24669967  0.66666667  0.36857722  1.0
  Ni  Ni1101  1  0.58003300  0.00000000  0.36857722  1.0
  Ni  Ni1102  1  0.58003300  0.33333333  0.36857722  1.0
  Ni  Ni1103  1  0.58003300  0.66666667  0.36857722  1.0
  Ni  Ni1104  1  0.91336633  0.00000000  0.36857722  1.0
  Ni  Ni1105  1  0.91336633  0.33333333  0.36857722  1.0
  Ni  Ni1106  1  0.91336633  0.66666667  0.36857722  1.0
  Ni  Ni1107  1  0.08003300  0.16666667  0.30607722  1.0
  Ni  Ni1108  1  0.08003300  0.50000000  0.30607722  1.0
  Ni  Ni1109  1  0.08003300  0.83333333  0.30607722  1.0
  Ni  Ni1110  1  0.41336633  0.16666667  0.30607722  1.0
  Ni  Ni1111  1  0.41336633  0.50000000  0.30607722  1.0
  Ni  Ni1112  1  0.41336633  0.83333333  0.30607722  1.0
  Ni  Ni1113  1  0.74669967  0.16666667  0.30607722  1.0
  Ni  Ni1114  1  0.74669967  0.50000000  0.30607722  1.0
  Ni  Ni1115  1  0.74669967  0.83333333  0.30607722  1.0
  Ni  Ni1116  1  0.08333333  0.25000000  0.33732722  1.0
  Ni  Ni1117  1  0.08333333  0.58333333  0.33732722  1.0
  Ni  Ni1118  1  0.08333333  0.91666667  0.33732722  1.0
  Ni  Ni1119  1  0.41666667  0.25000000  0.33732722  1.0
  Ni  Ni1120  1  0.41666667  0.58333333  0.33732722  1.0
  Ni  Ni1121  1  0.41666667  0.91666667  0.33732722  1.0
  Ni  Ni1122  1  0.75000000  0.25000000  0.33732722  1.0
  Ni  Ni1123  1  0.75000000  0.58333333  0.33732722  1.0
  Ni  Ni1124  1  0.75000000  0.91666667  0.33732722  1.0
  Ni  Ni1125  1  0.25000000  0.08333333  0.27482722  1.0
  Ni  Ni1126  1  0.25000000  0.41666667  0.27482722  1.0
  Ni  Ni1127  1  0.25000000  0.75000000  0.27482722  1.0
  Ni  Ni1128  1  0.58333333  0.08333333  0.27482722  1.0
  Ni  Ni1129  1  0.58333333  0.41666667  0.27482722  1.0
  Ni  Ni1130  1  0.58333333  0.75000000  0.27482722  1.0
  Ni  Ni1131  1  0.91666667  0.08333333  0.27482722  1.0
  Ni  Ni1132  1  0.91666667  0.41666667  0.27482722  1.0
  Ni  Ni1133  1  0.91666667  0.75000000  0.27482722  1.0
  Ni  Ni1134  1  0.16666667  0.00000000  0.30607722  1.0
  Ni  Ni1135  1  0.16666667  0.33333333  0.30607722  1.0
  Ni  Ni1136  1  0.16666667  0.66666667  0.30607722  1.0
  Ni  Ni1137  1  0.50000000  0.00000000  0.30607722  1.0
  Ni  Ni1138  1  0.50000000  0.33333333  0.30607722  1.0
  Ni  Ni1139  1  0.50000000  0.66666667  0.30607722  1.0
  Ni  Ni1140  1  0.83333333  0.00000000  0.30607722  1.0
  Ni  Ni1141  1  0.83333333  0.33333333  0.30607722  1.0
  Ni  Ni1142  1  0.83333333  0.66666667  0.30607722  1.0
  Ni  Ni1143  1  0.33333333  0.16666667  0.36857722  1.0
  Ni  Ni1144  1  0.33333333  0.50000000  0.36857722  1.0
  Ni  Ni1145  1  0.33333333  0.83333333  0.36857722  1.0
  Ni  Ni1146  1  0.66666667  0.16666667  0.36857722  1.0
  Ni  Ni1147  1  0.66666667  0.50000000  0.36857722  1.0
  Ni  Ni1148  1  0.66666667  0.83333333  0.36857722  1.0
  Ni  Ni1149  1  1.00000000  0.16666667  0.36857722  1.0
  Ni  Ni1150  1  1.00000000  0.50000000  0.36857722  1.0
  Ni  Ni1151  1  0.00000000  0.83333333  0.36857722  1.0
  Ni  Ni1152  1  0.00000000  0.00000000  0.30607722  1.0
  Ni  Ni1153  1  0.00000000  0.33333333  0.30607722  1.0
  Ni  Ni1154  1  0.00000000  0.66666667  0.30607722  1.0
  Ni  Ni1155  1  0.33333333  0.00000000  0.30607722  1.0
  Ni  Ni1156  1  0.33333333  0.33333333  0.30607722  1.0
  Ni  Ni1157  1  0.33333333  0.66666667  0.30607722  1.0
  Ni  Ni1158  1  0.66666667  0.00000000  0.30607722  1.0
  Ni  Ni1159  1  0.66666667  0.33333333  0.30607722  1.0
  Ni  Ni1160  1  0.66666667  0.66666667  0.30607722  1.0
  Ni  Ni1161  1  0.16666667  0.16666667  0.36857722  1.0
  Ni  Ni1162  1  0.16666667  0.50000000  0.36857722  1.0
  Ni  Ni1163  1  0.16666667  0.83333333  0.36857722  1.0
  Ni  Ni1164  1  0.50000000  0.16666667  0.36857722  1.0
  Ni  Ni1165  1  0.50000000  0.50000000  0.36857722  1.0
  Ni  Ni1166  1  0.50000000  0.83333333  0.36857722  1.0
  Ni  Ni1167  1  0.83333333  0.16666667  0.36857722  1.0
  Ni  Ni1168  1  0.83333333  0.50000000  0.36857722  1.0
  Ni  Ni1169  1  0.83333333  0.83333333  0.36857722  1.0
  Ni  Ni1170  1  0.08663367  0.00000000  0.36857722  1.0
  Ni  Ni1171  1  0.08663367  0.33333333  0.36857722  1.0
  Ni  Ni1172  1  0.08663367  0.66666667  0.36857722  1.0
  Ni  Ni1173  1  0.41996700  0.00000000  0.36857722  1.0
  Ni  Ni1174  1  0.41996700  0.33333333  0.36857722  1.0
  Ni  Ni1175  1  0.41996700  0.66666667  0.36857722  1.0
  Ni  Ni1176  1  0.75330033  0.00000000  0.36857722  1.0
  Ni  Ni1177  1  0.75330033  0.33333333  0.36857722  1.0
  Ni  Ni1178  1  0.75330033  0.66666667  0.36857722  1.0
  Ni  Ni1179  1  0.25330033  0.16666667  0.30607722  1.0
  Ni  Ni1180  1  0.25330033  0.50000000  0.30607722  1.0
  Ni  Ni1181  1  0.25330033  0.83333333  0.30607722  1.0
  Ni  Ni1182  1  0.58663367  0.16666667  0.30607722  1.0
  Ni  Ni1183  1  0.58663367  0.50000000  0.30607722  1.0
  Ni  Ni1184  1  0.58663367  0.83333333  0.30607722  1.0
  Ni  Ni1185  1  0.91996700  0.16666667  0.30607722  1.0
  Ni  Ni1186  1  0.91996700  0.50000000  0.30607722  1.0
  Ni  Ni1187  1  0.91996700  0.83333333  0.30607722  1.0
