# generated using pymatgen
data_Hf3Ni7
_symmetry_space_group_name_H-M   'P 1'
_cell_length_a   33.31498253
_cell_length_b   40.15397893
_cell_length_c   29.94136285
_cell_angle_alpha   83.83836792
_cell_angle_beta   79.76183165
_cell_angle_gamma   85.83153907
_symmetry_Int_Tables_number   1
_chemical_formula_structural   Hf3Ni7
_chemical_formula_sum   'Hf324 Ni756'
_cell_volume   39129.10024975
_cell_formula_units_Z   108
loop_
 _symmetry_equiv_pos_site_id
 _symmetry_equiv_pos_as_xyz
  1  'x, y, z'
loop_
 _atom_site_type_symbol
 _atom_site_label
 _atom_site_symmetry_multiplicity
 _atom_site_fract_x
 _atom_site_fract_y
 _atom_site_fract_z
 _atom_site_occupancy
  Hf  Hf0  1  0.03439007  0.23358611  0.96756278  1.0
  Hf  Hf1  1  0.03439007  0.56691945  0.96756278  1.0
  Hf  Hf2  1  0.03439007  0.90025278  0.96756278  1.0
  Hf  Hf3  1  0.36772341  0.23358611  0.96756278  1.0
  Hf  Hf4  1  0.36772341  0.56691945  0.96756278  1.0
  Hf  Hf5  1  0.36772341  0.90025278  0.96756278  1.0
  Hf  Hf6  1  0.70105674  0.23358611  0.96756278  1.0
  Hf  Hf7  1  0.70105674  0.56691945  0.96756278  1.0
  Hf  Hf8  1  0.70105674  0.90025278  0.96756278  1.0
  Hf  Hf9  1  0.22189007  0.00441945  0.90506278  1.0
  Hf  Hf10  1  0.22189007  0.33775278  0.90506278  1.0
  Hf  Hf11  1  0.22189007  0.67108611  0.90506278  1.0
  Hf  Hf12  1  0.55522341  0.00441945  0.90506278  1.0
  Hf  Hf13  1  0.55522341  0.33775278  0.90506278  1.0
  Hf  Hf14  1  0.55522341  0.67108611  0.90506278  1.0
  Hf  Hf15  1  0.88855674  0.00441945  0.90506278  1.0
  Hf  Hf16  1  0.88855674  0.33775278  0.90506278  1.0
  Hf  Hf17  1  0.88855674  0.67108611  0.90506278  1.0
  Hf  Hf18  1  0.00403032  0.31781936  0.91717603  1.0
  Hf  Hf19  1  0.00403032  0.65115270  0.91717603  1.0
  Hf  Hf20  1  0.00403032  0.98448603  0.91717603  1.0
  Hf  Hf21  1  0.33736366  0.31781936  0.91717603  1.0
  Hf  Hf22  1  0.33736366  0.65115270  0.91717603  1.0
  Hf  Hf23  1  0.33736366  0.98448603  0.91717603  1.0
  Hf  Hf24  1  0.67069699  0.31781936  0.91717603  1.0
  Hf  Hf25  1  0.67069699  0.65115270  0.91717603  1.0
  Hf  Hf26  1  0.67069699  0.98448603  0.91717603  1.0
  Hf  Hf27  1  0.14986366  0.21365270  0.97967603  1.0
  Hf  Hf28  1  0.14986366  0.54698603  0.97967603  1.0
  Hf  Hf29  1  0.14986366  0.88031936  0.97967603  1.0
  Hf  Hf30  1  0.48319699  0.21365270  0.97967603  1.0
  Hf  Hf31  1  0.48319699  0.54698603  0.97967603  1.0
  Hf  Hf32  1  0.48319699  0.88031936  0.97967603  1.0
  Hf  Hf33  1  0.81653032  0.21365270  0.97967603  1.0
  Hf  Hf34  1  0.81653032  0.54698603  0.97967603  1.0
  Hf  Hf35  1  0.81653032  0.88031936  0.97967603  1.0
  Hf  Hf36  1  0.06069849  0.15504553  0.93458653  1.0
  Hf  Hf37  1  0.06069849  0.48837886  0.93458653  1.0
  Hf  Hf38  1  0.06069849  0.82171220  0.93458653  1.0
  Hf  Hf39  1  0.39403182  0.15504553  0.93458653  1.0
  Hf  Hf40  1  0.39403182  0.48837886  0.93458653  1.0
  Hf  Hf41  1  0.39403182  0.82171220  0.93458653  1.0
  Hf  Hf42  1  0.72736516  0.15504553  0.93458653  1.0
  Hf  Hf43  1  0.72736516  0.48837886  0.93458653  1.0
  Hf  Hf44  1  0.72736516  0.82171220  0.93458653  1.0
  Hf  Hf45  1  0.20653182  0.05087886  0.99708653  1.0
  Hf  Hf46  1  0.20653182  0.38421220  0.99708653  1.0
  Hf  Hf47  1  0.20653182  0.71754553  0.99708653  1.0
  Hf  Hf48  1  0.53986516  0.05087886  0.99708653  1.0
  Hf  Hf49  1  0.53986516  0.38421220  0.99708653  1.0
  Hf  Hf50  1  0.53986516  0.71754553  0.99708653  1.0
  Hf  Hf51  1  0.87319849  0.05087886  0.99708653  1.0
  Hf  Hf52  1  0.87319849  0.38421220  0.99708653  1.0
  Hf  Hf53  1  0.87319849  0.71754553  0.99708653  1.0
  Hf  Hf54  1  0.31105524  0.06302661  0.95015228  1.0
  Hf  Hf55  1  0.31105524  0.39635995  0.95015228  1.0
  Hf  Hf56  1  0.31105524  0.72969328  0.95015228  1.0
  Hf  Hf57  1  0.64438857  0.06302661  0.95015228  1.0
  Hf  Hf58  1  0.64438857  0.39635995  0.95015228  1.0
  Hf  Hf59  1  0.64438857  0.72969328  0.95015228  1.0
  Hf  Hf60  1  0.97772191  0.06302661  0.95015228  1.0
  Hf  Hf61  1  0.97772191  0.39635995  0.95015228  1.0
  Hf  Hf62  1  0.97772191  0.72969328  0.95015228  1.0
  Hf  Hf63  1  0.16522191  0.16719328  0.88765228  1.0
  Hf  Hf64  1  0.16522191  0.50052661  0.88765228  1.0
  Hf  Hf65  1  0.16522191  0.83385995  0.88765228  1.0
  Hf  Hf66  1  0.49855524  0.16719328  0.88765228  1.0
  Hf  Hf67  1  0.49855524  0.50052661  0.88765228  1.0
  Hf  Hf68  1  0.49855524  0.83385995  0.88765228  1.0
  Hf  Hf69  1  0.83188857  0.16719328  0.88765228  1.0
  Hf  Hf70  1  0.83188857  0.50052661  0.88765228  1.0
  Hf  Hf71  1  0.83188857  0.83385995  0.88765228  1.0
  Hf  Hf72  1  0.30017984  0.19115314  0.92464797  1.0
  Hf  Hf73  1  0.30017984  0.52448647  0.92464797  1.0
  Hf  Hf74  1  0.30017984  0.85781980  0.92464797  1.0
  Hf  Hf75  1  0.63351318  0.19115314  0.92464797  1.0
  Hf  Hf76  1  0.63351318  0.52448647  0.92464797  1.0
  Hf  Hf77  1  0.63351318  0.85781980  0.92464797  1.0
  Hf  Hf78  1  0.96684651  0.19115314  0.92464797  1.0
  Hf  Hf79  1  0.96684651  0.52448647  0.92464797  1.0
  Hf  Hf80  1  0.96684651  0.85781980  0.92464797  1.0
  Hf  Hf81  1  0.11267984  0.08698647  0.98714797  1.0
  Hf  Hf82  1  0.11267984  0.42031980  0.98714797  1.0
  Hf  Hf83  1  0.11267984  0.75365314  0.98714797  1.0
  Hf  Hf84  1  0.44601318  0.08698647  0.98714797  1.0
  Hf  Hf85  1  0.44601318  0.42031980  0.98714797  1.0
  Hf  Hf86  1  0.44601318  0.75365314  0.98714797  1.0
  Hf  Hf87  1  0.77934651  0.08698647  0.98714797  1.0
  Hf  Hf88  1  0.77934651  0.42031980  0.98714797  1.0
  Hf  Hf89  1  0.77934651  0.75365314  0.98714797  1.0
  Hf  Hf90  1  0.07157389  0.02691901  0.96009084  1.0
  Hf  Hf91  1  0.07157389  0.36025234  0.96009084  1.0
  Hf  Hf92  1  0.07157389  0.69358568  0.96009084  1.0
  Hf  Hf93  1  0.40490722  0.02691901  0.96009084  1.0
  Hf  Hf94  1  0.40490722  0.36025234  0.96009084  1.0
  Hf  Hf95  1  0.40490722  0.69358568  0.96009084  1.0
  Hf  Hf96  1  0.73824055  0.02691901  0.96009084  1.0
  Hf  Hf97  1  0.73824055  0.36025234  0.96009084  1.0
  Hf  Hf98  1  0.73824055  0.69358568  0.96009084  1.0
  Hf  Hf99  1  0.25907389  0.13108568  0.89759084  1.0
  Hf  Hf100  1  0.25907389  0.46441901  0.89759084  1.0
  Hf  Hf101  1  0.25907389  0.79775234  0.89759084  1.0
  Hf  Hf102  1  0.59240722  0.13108568  0.89759084  1.0
  Hf  Hf103  1  0.59240722  0.46441901  0.89759084  1.0
  Hf  Hf104  1  0.59240722  0.79775234  0.89759084  1.0
  Hf  Hf105  1  0.92574055  0.13108568  0.89759084  1.0
  Hf  Hf106  1  0.92574055  0.46441901  0.89759084  1.0
  Hf  Hf107  1  0.92574055  0.79775234  0.89759084  1.0
  Hf  Hf108  1  0.07605674  0.10858611  0.84256278  1.0
  Hf  Hf109  1  0.07605674  0.44191945  0.84256278  1.0
  Hf  Hf110  1  0.07605674  0.77525278  0.84256278  1.0
  Hf  Hf111  1  0.40939007  0.10858611  0.84256278  1.0
  Hf  Hf112  1  0.40939007  0.44191945  0.84256278  1.0
  Hf  Hf113  1  0.40939007  0.77525278  0.84256278  1.0
  Hf  Hf114  1  0.74272341  0.10858611  0.84256278  1.0
  Hf  Hf115  1  0.74272341  0.44191945  0.84256278  1.0
  Hf  Hf116  1  0.74272341  0.77525278  0.84256278  1.0
  Hf  Hf117  1  0.26355674  0.21275278  0.78006278  1.0
  Hf  Hf118  1  0.26355674  0.54608611  0.78006278  1.0
  Hf  Hf119  1  0.26355674  0.87941945  0.78006278  1.0
  Hf  Hf120  1  0.59689007  0.21275278  0.78006278  1.0
  Hf  Hf121  1  0.59689007  0.54608611  0.78006278  1.0
  Hf  Hf122  1  0.59689007  0.87941945  0.78006278  1.0
  Hf  Hf123  1  0.93022341  0.21275278  0.78006278  1.0
  Hf  Hf124  1  0.93022341  0.54608611  0.78006278  1.0
  Hf  Hf125  1  0.93022341  0.87941945  0.78006278  1.0
  Hf  Hf126  1  0.04569699  0.19281936  0.79217603  1.0
  Hf  Hf127  1  0.04569699  0.52615270  0.79217603  1.0
  Hf  Hf128  1  0.04569699  0.85948603  0.79217603  1.0
  Hf  Hf129  1  0.37903032  0.19281936  0.79217603  1.0
  Hf  Hf130  1  0.37903032  0.52615270  0.79217603  1.0
  Hf  Hf131  1  0.37903032  0.85948603  0.79217603  1.0
  Hf  Hf132  1  0.71236366  0.19281936  0.79217603  1.0
  Hf  Hf133  1  0.71236366  0.52615270  0.79217603  1.0
  Hf  Hf134  1  0.71236366  0.85948603  0.79217603  1.0
  Hf  Hf135  1  0.19153032  0.08865270  0.85467603  1.0
  Hf  Hf136  1  0.19153032  0.42198603  0.85467603  1.0
  Hf  Hf137  1  0.19153032  0.75531936  0.85467603  1.0
  Hf  Hf138  1  0.52486366  0.08865270  0.85467603  1.0
  Hf  Hf139  1  0.52486366  0.42198603  0.85467603  1.0
  Hf  Hf140  1  0.52486366  0.75531936  0.85467603  1.0
  Hf  Hf141  1  0.85819699  0.08865270  0.85467603  1.0
  Hf  Hf142  1  0.85819699  0.42198603  0.85467603  1.0
  Hf  Hf143  1  0.85819699  0.75531936  0.85467603  1.0
  Hf  Hf144  1  0.10236516  0.03004553  0.80958653  1.0
  Hf  Hf145  1  0.10236516  0.36337886  0.80958653  1.0
  Hf  Hf146  1  0.10236516  0.69671220  0.80958653  1.0
  Hf  Hf147  1  0.43569849  0.03004553  0.80958653  1.0
  Hf  Hf148  1  0.43569849  0.36337886  0.80958653  1.0
  Hf  Hf149  1  0.43569849  0.69671220  0.80958653  1.0
  Hf  Hf150  1  0.76903182  0.03004553  0.80958653  1.0
  Hf  Hf151  1  0.76903182  0.36337886  0.80958653  1.0
  Hf  Hf152  1  0.76903182  0.69671220  0.80958653  1.0
  Hf  Hf153  1  0.24819849  0.25921220  0.87208653  1.0
  Hf  Hf154  1  0.24819849  0.59254553  0.87208653  1.0
  Hf  Hf155  1  0.24819849  0.92587886  0.87208653  1.0
  Hf  Hf156  1  0.58153182  0.25921220  0.87208653  1.0
  Hf  Hf157  1  0.58153182  0.59254553  0.87208653  1.0
  Hf  Hf158  1  0.58153182  0.92587886  0.87208653  1.0
  Hf  Hf159  1  0.91486516  0.25921220  0.87208653  1.0
  Hf  Hf160  1  0.91486516  0.59254553  0.87208653  1.0
  Hf  Hf161  1  0.91486516  0.92587886  0.87208653  1.0
  Hf  Hf162  1  0.01938857  0.27135995  0.82515228  1.0
  Hf  Hf163  1  0.01938857  0.60469328  0.82515228  1.0
  Hf  Hf164  1  0.01938857  0.93802661  0.82515228  1.0
  Hf  Hf165  1  0.35272191  0.27135995  0.82515228  1.0
  Hf  Hf166  1  0.35272191  0.60469328  0.82515228  1.0
  Hf  Hf167  1  0.35272191  0.93802661  0.82515228  1.0
  Hf  Hf168  1  0.68605524  0.27135995  0.82515228  1.0
  Hf  Hf169  1  0.68605524  0.60469328  0.82515228  1.0
  Hf  Hf170  1  0.68605524  0.93802661  0.82515228  1.0
  Hf  Hf171  1  0.20688857  0.04219328  0.76265228  1.0
  Hf  Hf172  1  0.20688857  0.37552661  0.76265228  1.0
  Hf  Hf173  1  0.20688857  0.70885995  0.76265228  1.0
  Hf  Hf174  1  0.54022191  0.04219328  0.76265228  1.0
  Hf  Hf175  1  0.54022191  0.37552661  0.76265228  1.0
  Hf  Hf176  1  0.54022191  0.70885995  0.76265228  1.0
  Hf  Hf177  1  0.87355524  0.04219328  0.76265228  1.0
  Hf  Hf178  1  0.87355524  0.37552661  0.76265228  1.0
  Hf  Hf179  1  0.87355524  0.70885995  0.76265228  1.0
  Hf  Hf180  1  0.00851318  0.06615314  0.79964797  1.0
  Hf  Hf181  1  0.00851318  0.39948647  0.79964797  1.0
  Hf  Hf182  1  0.00851318  0.73281980  0.79964797  1.0
  Hf  Hf183  1  0.34184651  0.06615314  0.79964797  1.0
  Hf  Hf184  1  0.34184651  0.39948647  0.79964797  1.0
  Hf  Hf185  1  0.34184651  0.73281980  0.79964797  1.0
  Hf  Hf186  1  0.67517984  0.06615314  0.79964797  1.0
  Hf  Hf187  1  0.67517984  0.39948647  0.79964797  1.0
  Hf  Hf188  1  0.67517984  0.73281980  0.79964797  1.0
  Hf  Hf189  1  0.15434651  0.29531980  0.86214797  1.0
  Hf  Hf190  1  0.15434651  0.62865314  0.86214797  1.0
  Hf  Hf191  1  0.15434651  0.96198647  0.86214797  1.0
  Hf  Hf192  1  0.48767984  0.29531980  0.86214797  1.0
  Hf  Hf193  1  0.48767984  0.62865314  0.86214797  1.0
  Hf  Hf194  1  0.48767984  0.96198647  0.86214797  1.0
  Hf  Hf195  1  0.82101318  0.29531980  0.86214797  1.0
  Hf  Hf196  1  0.82101318  0.62865314  0.86214797  1.0
  Hf  Hf197  1  0.82101318  0.96198647  0.86214797  1.0
  Hf  Hf198  1  0.11324055  0.23525234  0.83509084  1.0
  Hf  Hf199  1  0.11324055  0.56858568  0.83509084  1.0
  Hf  Hf200  1  0.11324055  0.90191901  0.83509084  1.0
  Hf  Hf201  1  0.44657389  0.23525234  0.83509084  1.0
  Hf  Hf202  1  0.44657389  0.56858568  0.83509084  1.0
  Hf  Hf203  1  0.44657389  0.90191901  0.83509084  1.0
  Hf  Hf204  1  0.77990722  0.23525234  0.83509084  1.0
  Hf  Hf205  1  0.77990722  0.56858568  0.83509084  1.0
  Hf  Hf206  1  0.77990722  0.90191901  0.83509084  1.0
  Hf  Hf207  1  0.30074055  0.00608568  0.77259084  1.0
  Hf  Hf208  1  0.30074055  0.33941901  0.77259084  1.0
  Hf  Hf209  1  0.30074055  0.67275234  0.77259084  1.0
  Hf  Hf210  1  0.63407389  0.00608568  0.77259084  1.0
  Hf  Hf211  1  0.63407389  0.33941901  0.77259084  1.0
  Hf  Hf212  1  0.63407389  0.67275234  0.77259084  1.0
  Hf  Hf213  1  0.96740722  0.00608568  0.77259084  1.0
  Hf  Hf214  1  0.96740722  0.33941901  0.77259084  1.0
  Hf  Hf215  1  0.96740722  0.67275234  0.77259084  1.0
  Hf  Hf216  1  0.11772341  0.31691945  0.71756278  1.0
  Hf  Hf217  1  0.11772341  0.65025278  0.71756278  1.0
  Hf  Hf218  1  0.11772341  0.98358611  0.71756278  1.0
  Hf  Hf219  1  0.45105674  0.31691945  0.71756278  1.0
  Hf  Hf220  1  0.45105674  0.65025278  0.71756278  1.0
  Hf  Hf221  1  0.45105674  0.98358611  0.71756278  1.0
  Hf  Hf222  1  0.78439007  0.31691945  0.71756278  1.0
  Hf  Hf223  1  0.78439007  0.65025278  0.71756278  1.0
  Hf  Hf224  1  0.78439007  0.98358611  0.71756278  1.0
  Hf  Hf225  1  0.30522341  0.08775278  0.65506278  1.0
  Hf  Hf226  1  0.30522341  0.42108611  0.65506278  1.0
  Hf  Hf227  1  0.30522341  0.75441945  0.65506278  1.0
  Hf  Hf228  1  0.63855674  0.08775278  0.65506278  1.0
  Hf  Hf229  1  0.63855674  0.42108611  0.65506278  1.0
  Hf  Hf230  1  0.63855674  0.75441945  0.65506278  1.0
  Hf  Hf231  1  0.97189007  0.08775278  0.65506278  1.0
  Hf  Hf232  1  0.97189007  0.42108611  0.65506278  1.0
  Hf  Hf233  1  0.97189007  0.75441945  0.65506278  1.0
  Hf  Hf234  1  0.08736366  0.06781936  0.66717603  1.0
  Hf  Hf235  1  0.08736366  0.40115270  0.66717603  1.0
  Hf  Hf236  1  0.08736366  0.73448603  0.66717603  1.0
  Hf  Hf237  1  0.42069699  0.06781936  0.66717603  1.0
  Hf  Hf238  1  0.42069699  0.40115270  0.66717603  1.0
  Hf  Hf239  1  0.42069699  0.73448603  0.66717603  1.0
  Hf  Hf240  1  0.75403032  0.06781936  0.66717603  1.0
  Hf  Hf241  1  0.75403032  0.40115270  0.66717603  1.0
  Hf  Hf242  1  0.75403032  0.73448603  0.66717603  1.0
  Hf  Hf243  1  0.23319699  0.29698603  0.72967603  1.0
  Hf  Hf244  1  0.23319699  0.63031936  0.72967603  1.0
  Hf  Hf245  1  0.23319699  0.96365270  0.72967603  1.0
  Hf  Hf246  1  0.56653032  0.29698603  0.72967603  1.0
  Hf  Hf247  1  0.56653032  0.63031936  0.72967603  1.0
  Hf  Hf248  1  0.56653032  0.96365270  0.72967603  1.0
  Hf  Hf249  1  0.89986366  0.29698603  0.72967603  1.0
  Hf  Hf250  1  0.89986366  0.63031936  0.72967603  1.0
  Hf  Hf251  1  0.89986366  0.96365270  0.72967603  1.0
  Hf  Hf252  1  0.14403182  0.23837886  0.68458653  1.0
  Hf  Hf253  1  0.14403182  0.57171220  0.68458653  1.0
  Hf  Hf254  1  0.14403182  0.90504553  0.68458653  1.0
  Hf  Hf255  1  0.47736516  0.23837886  0.68458653  1.0
  Hf  Hf256  1  0.47736516  0.57171220  0.68458653  1.0
  Hf  Hf257  1  0.47736516  0.90504553  0.68458653  1.0
  Hf  Hf258  1  0.81069849  0.23837886  0.68458653  1.0
  Hf  Hf259  1  0.81069849  0.57171220  0.68458653  1.0
  Hf  Hf260  1  0.81069849  0.90504553  0.68458653  1.0
  Hf  Hf261  1  0.28986516  0.13421220  0.74708653  1.0
  Hf  Hf262  1  0.28986516  0.46754553  0.74708653  1.0
  Hf  Hf263  1  0.28986516  0.80087886  0.74708653  1.0
  Hf  Hf264  1  0.62319849  0.13421220  0.74708653  1.0
  Hf  Hf265  1  0.62319849  0.46754553  0.74708653  1.0
  Hf  Hf266  1  0.62319849  0.80087886  0.74708653  1.0
  Hf  Hf267  1  0.95653182  0.13421220  0.74708653  1.0
  Hf  Hf268  1  0.95653182  0.46754553  0.74708653  1.0
  Hf  Hf269  1  0.95653182  0.80087886  0.74708653  1.0
  Hf  Hf270  1  0.06105524  0.14635995  0.70015228  1.0
  Hf  Hf271  1  0.06105524  0.47969328  0.70015228  1.0
  Hf  Hf272  1  0.06105524  0.81302661  0.70015228  1.0
  Hf  Hf273  1  0.39438857  0.14635995  0.70015228  1.0
  Hf  Hf274  1  0.39438857  0.47969328  0.70015228  1.0
  Hf  Hf275  1  0.39438857  0.81302661  0.70015228  1.0
  Hf  Hf276  1  0.72772191  0.14635995  0.70015228  1.0
  Hf  Hf277  1  0.72772191  0.47969328  0.70015228  1.0
  Hf  Hf278  1  0.72772191  0.81302661  0.70015228  1.0
  Hf  Hf279  1  0.24855524  0.25052661  0.63765228  1.0
  Hf  Hf280  1  0.24855524  0.58385995  0.63765228  1.0
  Hf  Hf281  1  0.24855524  0.91719328  0.63765228  1.0
  Hf  Hf282  1  0.58188857  0.25052661  0.63765228  1.0
  Hf  Hf283  1  0.58188857  0.58385995  0.63765228  1.0
  Hf  Hf284  1  0.58188857  0.91719328  0.63765228  1.0
  Hf  Hf285  1  0.91522191  0.25052661  0.63765228  1.0
  Hf  Hf286  1  0.91522191  0.58385995  0.63765228  1.0
  Hf  Hf287  1  0.91522191  0.91719328  0.63765228  1.0
  Hf  Hf288  1  0.05017984  0.27448647  0.67464797  1.0
  Hf  Hf289  1  0.05017984  0.60781980  0.67464797  1.0
  Hf  Hf290  1  0.05017984  0.94115314  0.67464797  1.0
  Hf  Hf291  1  0.38351318  0.27448647  0.67464797  1.0
  Hf  Hf292  1  0.38351318  0.60781980  0.67464797  1.0
  Hf  Hf293  1  0.38351318  0.94115314  0.67464797  1.0
  Hf  Hf294  1  0.71684651  0.27448647  0.67464797  1.0
  Hf  Hf295  1  0.71684651  0.60781980  0.67464797  1.0
  Hf  Hf296  1  0.71684651  0.94115314  0.67464797  1.0
  Hf  Hf297  1  0.19601318  0.17031980  0.73714797  1.0
  Hf  Hf298  1  0.19601318  0.50365314  0.73714797  1.0
  Hf  Hf299  1  0.19601318  0.83698647  0.73714797  1.0
  Hf  Hf300  1  0.52934651  0.17031980  0.73714797  1.0
  Hf  Hf301  1  0.52934651  0.50365314  0.73714797  1.0
  Hf  Hf302  1  0.52934651  0.83698647  0.73714797  1.0
  Hf  Hf303  1  0.86267984  0.17031980  0.73714797  1.0
  Hf  Hf304  1  0.86267984  0.50365314  0.73714797  1.0
  Hf  Hf305  1  0.86267984  0.83698647  0.73714797  1.0
  Hf  Hf306  1  0.15490722  0.11025234  0.71009084  1.0
  Hf  Hf307  1  0.15490722  0.44358568  0.71009084  1.0
  Hf  Hf308  1  0.15490722  0.77691901  0.71009084  1.0
  Hf  Hf309  1  0.48824055  0.11025234  0.71009084  1.0
  Hf  Hf310  1  0.48824055  0.44358568  0.71009084  1.0
  Hf  Hf311  1  0.48824055  0.77691901  0.71009084  1.0
  Hf  Hf312  1  0.82157389  0.11025234  0.71009084  1.0
  Hf  Hf313  1  0.82157389  0.44358568  0.71009084  1.0
  Hf  Hf314  1  0.82157389  0.77691901  0.71009084  1.0
  Hf  Hf315  1  0.00907389  0.21441901  0.64759084  1.0
  Hf  Hf316  1  0.00907389  0.54775234  0.64759084  1.0
  Hf  Hf317  1  0.00907389  0.88108568  0.64759084  1.0
  Hf  Hf318  1  0.34240722  0.21441901  0.64759084  1.0
  Hf  Hf319  1  0.34240722  0.54775234  0.64759084  1.0
  Hf  Hf320  1  0.34240722  0.88108568  0.64759084  1.0
  Hf  Hf321  1  0.67574055  0.21441901  0.64759084  1.0
  Hf  Hf322  1  0.67574055  0.54775234  0.64759084  1.0
  Hf  Hf323  1  0.67574055  0.88108568  0.64759084  1.0
  Ni  Ni324  1  0.04004353  0.04653607  0.87986941  1.0
  Ni  Ni325  1  0.04004353  0.37986941  0.87986941  1.0
  Ni  Ni326  1  0.04004353  0.71320274  0.87986941  1.0
  Ni  Ni327  1  0.37337686  0.04653607  0.87986941  1.0
  Ni  Ni328  1  0.37337686  0.37986941  0.87986941  1.0
  Ni  Ni329  1  0.37337686  0.71320274  0.87986941  1.0
  Ni  Ni330  1  0.70671020  0.04653607  0.87986941  1.0
  Ni  Ni331  1  0.70671020  0.37986941  0.87986941  1.0
  Ni  Ni332  1  0.70671020  0.71320274  0.87986941  1.0
  Ni  Ni333  1  0.18587686  0.27570274  0.94236941  1.0
  Ni  Ni334  1  0.18587686  0.60903607  0.94236941  1.0
  Ni  Ni335  1  0.18587686  0.94236941  0.94236941  1.0
  Ni  Ni336  1  0.51921020  0.27570274  0.94236941  1.0
  Ni  Ni337  1  0.51921020  0.60903607  0.94236941  1.0
  Ni  Ni338  1  0.51921020  0.94236941  0.94236941  1.0
  Ni  Ni339  1  0.85254353  0.27570274  0.94236941  1.0
  Ni  Ni340  1  0.85254353  0.60903607  0.94236941  1.0
  Ni  Ni341  1  0.85254353  0.94236941  0.94236941  1.0
  Ni  Ni342  1  0.04004353  0.21320274  0.87986941  1.0
  Ni  Ni343  1  0.04004353  0.54653607  0.87986941  1.0
  Ni  Ni344  1  0.04004353  0.87986941  0.87986941  1.0
  Ni  Ni345  1  0.37337686  0.21320274  0.87986941  1.0
  Ni  Ni346  1  0.37337686  0.54653607  0.87986941  1.0
  Ni  Ni347  1  0.37337686  0.87986941  0.87986941  1.0
  Ni  Ni348  1  0.70671020  0.21320274  0.87986941  1.0
  Ni  Ni349  1  0.70671020  0.54653607  0.87986941  1.0
  Ni  Ni350  1  0.70671020  0.87986941  0.87986941  1.0
  Ni  Ni351  1  0.18587686  0.10903607  0.94236941  1.0
  Ni  Ni352  1  0.18587686  0.44236941  0.94236941  1.0
  Ni  Ni353  1  0.18587686  0.77570274  0.94236941  1.0
  Ni  Ni354  1  0.51921020  0.10903607  0.94236941  1.0
  Ni  Ni355  1  0.51921020  0.44236941  0.94236941  1.0
  Ni  Ni356  1  0.51921020  0.77570274  0.94236941  1.0
  Ni  Ni357  1  0.85254353  0.10903607  0.94236941  1.0
  Ni  Ni358  1  0.85254353  0.44236941  0.94236941  1.0
  Ni  Ni359  1  0.85254353  0.77570274  0.94236941  1.0
  Ni  Ni360  1  0.06160026  0.27079655  0.89106772  1.0
  Ni  Ni361  1  0.06160026  0.60412989  0.89106772  1.0
  Ni  Ni362  1  0.06160026  0.93746322  0.89106772  1.0
  Ni  Ni363  1  0.39493359  0.27079655  0.89106772  1.0
  Ni  Ni364  1  0.39493359  0.60412989  0.89106772  1.0
  Ni  Ni365  1  0.39493359  0.93746322  0.89106772  1.0
  Ni  Ni366  1  0.72826693  0.27079655  0.89106772  1.0
  Ni  Ni367  1  0.72826693  0.60412989  0.89106772  1.0
  Ni  Ni368  1  0.72826693  0.93746322  0.89106772  1.0
  Ni  Ni369  1  0.20743359  0.16662989  0.95356772  1.0
  Ni  Ni370  1  0.20743359  0.49996322  0.95356772  1.0
  Ni  Ni371  1  0.20743359  0.83329655  0.95356772  1.0
  Ni  Ni372  1  0.54076693  0.16662989  0.95356772  1.0
  Ni  Ni373  1  0.54076693  0.49996322  0.95356772  1.0
  Ni  Ni374  1  0.54076693  0.83329655  0.95356772  1.0
  Ni  Ni375  1  0.87410026  0.16662989  0.95356772  1.0
  Ni  Ni376  1  0.87410026  0.49996322  0.95356772  1.0
  Ni  Ni377  1  0.87410026  0.83329655  0.95356772  1.0
  Ni  Ni378  1  0.31015347  0.28060893  0.99367109  1.0
  Ni  Ni379  1  0.31015347  0.61394226  0.99367109  1.0
  Ni  Ni380  1  0.31015347  0.94727559  0.99367109  1.0
  Ni  Ni381  1  0.64348680  0.28060893  0.99367109  1.0
  Ni  Ni382  1  0.64348680  0.61394226  0.99367109  1.0
  Ni  Ni383  1  0.64348680  0.94727559  0.99367109  1.0
  Ni  Ni384  1  0.97682014  0.28060893  0.99367109  1.0
  Ni  Ni385  1  0.97682014  0.61394226  0.99367109  1.0
  Ni  Ni386  1  0.97682014  0.94727559  0.99367109  1.0
  Ni  Ni387  1  0.16432014  0.05144226  0.93117109  1.0
  Ni  Ni388  1  0.16432014  0.38477559  0.93117109  1.0
  Ni  Ni389  1  0.16432014  0.71810893  0.93117109  1.0
  Ni  Ni390  1  0.49765347  0.05144226  0.93117109  1.0
  Ni  Ni391  1  0.49765347  0.38477559  0.93117109  1.0
  Ni  Ni392  1  0.49765347  0.71810893  0.93117109  1.0
  Ni  Ni393  1  0.83098680  0.05144226  0.93117109  1.0
  Ni  Ni394  1  0.83098680  0.38477559  0.93117109  1.0
  Ni  Ni395  1  0.83098680  0.71810893  0.93117109  1.0
  Ni  Ni396  1  0.08407580  0.32692993  0.88813809  1.0
  Ni  Ni397  1  0.08407580  0.66026326  0.88813809  1.0
  Ni  Ni398  1  0.08407580  0.99359659  0.88813809  1.0
  Ni  Ni399  1  0.41740914  0.32692993  0.88813809  1.0
  Ni  Ni400  1  0.41740914  0.66026326  0.88813809  1.0
  Ni  Ni401  1  0.41740914  0.99359659  0.88813809  1.0
  Ni  Ni402  1  0.75074247  0.32692993  0.88813809  1.0
  Ni  Ni403  1  0.75074247  0.66026326  0.88813809  1.0
  Ni  Ni404  1  0.75074247  0.99359659  0.88813809  1.0
  Ni  Ni405  1  0.22990914  0.22276326  0.95063809  1.0
  Ni  Ni406  1  0.22990914  0.55609659  0.95063809  1.0
  Ni  Ni407  1  0.22990914  0.88942993  0.95063809  1.0
  Ni  Ni408  1  0.56324247  0.22276326  0.95063809  1.0
  Ni  Ni409  1  0.56324247  0.55609659  0.95063809  1.0
  Ni  Ni410  1  0.56324247  0.88942993  0.95063809  1.0
  Ni  Ni411  1  0.89657580  0.22276326  0.95063809  1.0
  Ni  Ni412  1  0.89657580  0.55609659  0.95063809  1.0
  Ni  Ni413  1  0.89657580  0.88942993  0.95063809  1.0
  Ni  Ni414  1  0.28767793  0.22447555  0.99660072  1.0
  Ni  Ni415  1  0.28767793  0.55780889  0.99660072  1.0
  Ni  Ni416  1  0.28767793  0.89114222  0.99660072  1.0
  Ni  Ni417  1  0.62101126  0.22447555  0.99660072  1.0
  Ni  Ni418  1  0.62101126  0.55780889  0.99660072  1.0
  Ni  Ni419  1  0.62101126  0.89114222  0.99660072  1.0
  Ni  Ni420  1  0.95434459  0.22447555  0.99660072  1.0
  Ni  Ni421  1  0.95434459  0.55780889  0.99660072  1.0
  Ni  Ni422  1  0.95434459  0.89114222  0.99660072  1.0
  Ni  Ni423  1  0.14184459  0.32864222  0.93410072  1.0
  Ni  Ni424  1  0.14184459  0.66197555  0.93410072  1.0
  Ni  Ni425  1  0.14184459  0.99530889  0.93410072  1.0
  Ni  Ni426  1  0.47517793  0.32864222  0.93410072  1.0
  Ni  Ni427  1  0.47517793  0.66197555  0.93410072  1.0
  Ni  Ni428  1  0.47517793  0.99530889  0.93410072  1.0
  Ni  Ni429  1  0.80851126  0.32864222  0.93410072  1.0
  Ni  Ni430  1  0.80851126  0.66197555  0.93410072  1.0
  Ni  Ni431  1  0.80851126  0.99530889  0.93410072  1.0
  Ni  Ni432  1  0.11094836  0.05700357  0.88452391  1.0
  Ni  Ni433  1  0.11094836  0.39033691  0.88452391  1.0
  Ni  Ni434  1  0.11094836  0.72367024  0.88452391  1.0
  Ni  Ni435  1  0.44428170  0.05700357  0.88452391  1.0
  Ni  Ni436  1  0.44428170  0.39033691  0.88452391  1.0
  Ni  Ni437  1  0.44428170  0.72367024  0.88452391  1.0
  Ni  Ni438  1  0.77761503  0.05700357  0.88452391  1.0
  Ni  Ni439  1  0.77761503  0.39033691  0.88452391  1.0
  Ni  Ni440  1  0.77761503  0.72367024  0.88452391  1.0
  Ni  Ni441  1  0.25678170  0.28617024  0.94702391  1.0
  Ni  Ni442  1  0.25678170  0.61950357  0.94702391  1.0
  Ni  Ni443  1  0.25678170  0.95283691  0.94702391  1.0
  Ni  Ni444  1  0.59011503  0.28617024  0.94702391  1.0
  Ni  Ni445  1  0.59011503  0.61950357  0.94702391  1.0
  Ni  Ni446  1  0.59011503  0.95283691  0.94702391  1.0
  Ni  Ni447  1  0.92344836  0.28617024  0.94702391  1.0
  Ni  Ni448  1  0.92344836  0.61950357  0.94702391  1.0
  Ni  Ni449  1  0.92344836  0.95283691  0.94702391  1.0
  Ni  Ni450  1  0.30247203  0.03606857  0.87521491  1.0
  Ni  Ni451  1  0.30247203  0.36940191  0.87521491  1.0
  Ni  Ni452  1  0.30247203  0.70273524  0.87521491  1.0
  Ni  Ni453  1  0.63580536  0.03606857  0.87521491  1.0
  Ni  Ni454  1  0.63580536  0.36940191  0.87521491  1.0
  Ni  Ni455  1  0.63580536  0.70273524  0.87521491  1.0
  Ni  Ni456  1  0.96913870  0.03606857  0.87521491  1.0
  Ni  Ni457  1  0.96913870  0.36940191  0.87521491  1.0
  Ni  Ni458  1  0.96913870  0.70273524  0.87521491  1.0
  Ni  Ni459  1  0.11497203  0.26523524  0.93771491  1.0
  Ni  Ni460  1  0.11497203  0.59856857  0.93771491  1.0
  Ni  Ni461  1  0.11497203  0.93190191  0.93771491  1.0
  Ni  Ni462  1  0.44830536  0.26523524  0.93771491  1.0
  Ni  Ni463  1  0.44830536  0.59856857  0.93771491  1.0
  Ni  Ni464  1  0.44830536  0.93190191  0.93771491  1.0
  Ni  Ni465  1  0.78163870  0.26523524  0.93771491  1.0
  Ni  Ni466  1  0.78163870  0.59856857  0.93771491  1.0
  Ni  Ni467  1  0.78163870  0.93190191  0.93771491  1.0
  Ni  Ni468  1  0.12338299  0.11408770  0.90318703  1.0
  Ni  Ni469  1  0.12338299  0.44742103  0.90318703  1.0
  Ni  Ni470  1  0.12338299  0.78075436  0.90318703  1.0
  Ni  Ni471  1  0.45671632  0.11408770  0.90318703  1.0
  Ni  Ni472  1  0.45671632  0.44742103  0.90318703  1.0
  Ni  Ni473  1  0.45671632  0.78075436  0.90318703  1.0
  Ni  Ni474  1  0.79004966  0.11408770  0.90318703  1.0
  Ni  Ni475  1  0.79004966  0.44742103  0.90318703  1.0
  Ni  Ni476  1  0.79004966  0.78075436  0.90318703  1.0
  Ni  Ni477  1  0.26921632  0.00992103  0.96568703  1.0
  Ni  Ni478  1  0.26921632  0.34325436  0.96568703  1.0
  Ni  Ni479  1  0.26921632  0.67658770  0.96568703  1.0
  Ni  Ni480  1  0.60254966  0.00992103  0.96568703  1.0
  Ni  Ni481  1  0.60254966  0.34325436  0.96568703  1.0
  Ni  Ni482  1  0.60254966  0.67658770  0.96568703  1.0
  Ni  Ni483  1  0.93588299  0.00992103  0.96568703  1.0
  Ni  Ni484  1  0.93588299  0.34325436  0.96568703  1.0
  Ni  Ni485  1  0.93588299  0.67658770  0.96568703  1.0
  Ni  Ni486  1  0.24837074  0.10398445  0.98155178  1.0
  Ni  Ni487  1  0.24837074  0.43731778  0.98155178  1.0
  Ni  Ni488  1  0.24837074  0.77065111  0.98155178  1.0
  Ni  Ni489  1  0.58170407  0.10398445  0.98155178  1.0
  Ni  Ni490  1  0.58170407  0.43731778  0.98155178  1.0
  Ni  Ni491  1  0.58170407  0.77065111  0.98155178  1.0
  Ni  Ni492  1  0.91503741  0.10398445  0.98155178  1.0
  Ni  Ni493  1  0.91503741  0.43731778  0.98155178  1.0
  Ni  Ni494  1  0.91503741  0.77065111  0.98155178  1.0
  Ni  Ni495  1  0.10253741  0.20815111  0.91905178  1.0
  Ni  Ni496  1  0.10253741  0.54148445  0.91905178  1.0
  Ni  Ni497  1  0.10253741  0.87481778  0.91905178  1.0
  Ni  Ni498  1  0.43587074  0.20815111  0.91905178  1.0
  Ni  Ni499  1  0.43587074  0.54148445  0.91905178  1.0
  Ni  Ni500  1  0.43587074  0.87481778  0.91905178  1.0
  Ni  Ni501  1  0.76920407  0.20815111  0.91905178  1.0
  Ni  Ni502  1  0.76920407  0.54148445  0.91905178  1.0
  Ni  Ni503  1  0.76920407  0.87481778  0.91905178  1.0
  Ni  Ni504  1  0.05176864  0.08980009  0.93263059  1.0
  Ni  Ni505  1  0.05176864  0.42313343  0.93263059  1.0
  Ni  Ni506  1  0.05176864  0.75646676  0.93263059  1.0
  Ni  Ni507  1  0.38510197  0.08980009  0.93263059  1.0
  Ni  Ni508  1  0.38510197  0.42313343  0.93263059  1.0
  Ni  Ni509  1  0.38510197  0.75646676  0.93263059  1.0
  Ni  Ni510  1  0.71843530  0.08980009  0.93263059  1.0
  Ni  Ni511  1  0.71843530  0.42313343  0.93263059  1.0
  Ni  Ni512  1  0.71843530  0.75646676  0.93263059  1.0
  Ni  Ni513  1  0.19760197  0.31896676  0.99513059  1.0
  Ni  Ni514  1  0.19760197  0.65230009  0.99513059  1.0
  Ni  Ni515  1  0.19760197  0.98563343  0.99513059  1.0
  Ni  Ni516  1  0.53093530  0.31896676  0.99513059  1.0
  Ni  Ni517  1  0.53093530  0.65230009  0.99513059  1.0
  Ni  Ni518  1  0.53093530  0.98563343  0.99513059  1.0
  Ni  Ni519  1  0.86426864  0.31896676  0.99513059  1.0
  Ni  Ni520  1  0.86426864  0.65230009  0.99513059  1.0
  Ni  Ni521  1  0.86426864  0.98563343  0.99513059  1.0
  Ni  Ni522  1  0.31998509  0.12827205  0.95210822  1.0
  Ni  Ni523  1  0.31998509  0.46160539  0.95210822  1.0
  Ni  Ni524  1  0.31998509  0.79493872  0.95210822  1.0
  Ni  Ni525  1  0.65331843  0.12827205  0.95210822  1.0
  Ni  Ni526  1  0.65331843  0.46160539  0.95210822  1.0
  Ni  Ni527  1  0.65331843  0.79493872  0.95210822  1.0
  Ni  Ni528  1  0.98665176  0.12827205  0.95210822  1.0
  Ni  Ni529  1  0.98665176  0.46160539  0.95210822  1.0
  Ni  Ni530  1  0.98665176  0.79493872  0.95210822  1.0
  Ni  Ni531  1  0.17415176  0.23243872  0.88960822  1.0
  Ni  Ni532  1  0.17415176  0.56577205  0.88960822  1.0
  Ni  Ni533  1  0.17415176  0.89910539  0.88960822  1.0
  Ni  Ni534  1  0.50748509  0.23243872  0.88960822  1.0
  Ni  Ni535  1  0.50748509  0.56577205  0.88960822  1.0
  Ni  Ni536  1  0.50748509  0.89910539  0.88960822  1.0
  Ni  Ni537  1  0.84081843  0.23243872  0.88960822  1.0
  Ni  Ni538  1  0.84081843  0.56577205  0.88960822  1.0
  Ni  Ni539  1  0.84081843  0.89910539  0.88960822  1.0
  Ni  Ni540  1  0.24283645  0.06742966  0.91167066  1.0
  Ni  Ni541  1  0.24283645  0.40076299  0.91167066  1.0
  Ni  Ni542  1  0.24283645  0.73409632  0.91167066  1.0
  Ni  Ni543  1  0.57616978  0.06742966  0.91167066  1.0
  Ni  Ni544  1  0.57616978  0.40076299  0.91167066  1.0
  Ni  Ni545  1  0.57616978  0.73409632  0.91167066  1.0
  Ni  Ni546  1  0.90950311  0.06742966  0.91167066  1.0
  Ni  Ni547  1  0.90950311  0.40076299  0.91167066  1.0
  Ni  Ni548  1  0.90950311  0.73409632  0.91167066  1.0
  Ni  Ni549  1  0.05533645  0.29659632  0.97417066  1.0
  Ni  Ni550  1  0.05533645  0.62992966  0.97417066  1.0
  Ni  Ni551  1  0.05533645  0.96326299  0.97417066  1.0
  Ni  Ni552  1  0.38866978  0.29659632  0.97417066  1.0
  Ni  Ni553  1  0.38866978  0.62992966  0.97417066  1.0
  Ni  Ni554  1  0.38866978  0.96326299  0.97417066  1.0
  Ni  Ni555  1  0.72200311  0.29659632  0.97417066  1.0
  Ni  Ni556  1  0.72200311  0.62992966  0.97417066  1.0
  Ni  Ni557  1  0.72200311  0.96326299  0.97417066  1.0
  Ni  Ni558  1  0.12891728  0.15064249  0.97306816  1.0
  Ni  Ni559  1  0.12891728  0.48397582  0.97306816  1.0
  Ni  Ni560  1  0.12891728  0.81730916  0.97306816  1.0
  Ni  Ni561  1  0.46225061  0.15064249  0.97306816  1.0
  Ni  Ni562  1  0.46225061  0.48397582  0.97306816  1.0
  Ni  Ni563  1  0.46225061  0.81730916  0.97306816  1.0
  Ni  Ni564  1  0.79558395  0.15064249  0.97306816  1.0
  Ni  Ni565  1  0.79558395  0.48397582  0.97306816  1.0
  Ni  Ni566  1  0.79558395  0.81730916  0.97306816  1.0
  Ni  Ni567  1  0.31641728  0.25480916  0.91056816  1.0
  Ni  Ni568  1  0.31641728  0.58814249  0.91056816  1.0
  Ni  Ni569  1  0.31641728  0.92147582  0.91056816  1.0
  Ni  Ni570  1  0.64975061  0.25480916  0.91056816  1.0
  Ni  Ni571  1  0.64975061  0.58814249  0.91056816  1.0
  Ni  Ni572  1  0.64975061  0.92147582  0.91056816  1.0
  Ni  Ni573  1  0.98308395  0.25480916  0.91056816  1.0
  Ni  Ni574  1  0.98308395  0.58814249  0.91056816  1.0
  Ni  Ni575  1  0.98308395  0.92147582  0.91056816  1.0
  Ni  Ni576  1  0.08171020  0.25486941  0.75486941  1.0
  Ni  Ni577  1  0.08171020  0.58820274  0.75486941  1.0
  Ni  Ni578  1  0.08171020  0.92153607  0.75486941  1.0
  Ni  Ni579  1  0.41504353  0.25486941  0.75486941  1.0
  Ni  Ni580  1  0.41504353  0.58820274  0.75486941  1.0
  Ni  Ni581  1  0.41504353  0.92153607  0.75486941  1.0
  Ni  Ni582  1  0.74837686  0.25486941  0.75486941  1.0
  Ni  Ni583  1  0.74837686  0.58820274  0.75486941  1.0
  Ni  Ni584  1  0.74837686  0.92153607  0.75486941  1.0
  Ni  Ni585  1  0.22754353  0.15070274  0.81736941  1.0
  Ni  Ni586  1  0.22754353  0.48403607  0.81736941  1.0
  Ni  Ni587  1  0.22754353  0.81736941  0.81736941  1.0
  Ni  Ni588  1  0.56087686  0.15070274  0.81736941  1.0
  Ni  Ni589  1  0.56087686  0.48403607  0.81736941  1.0
  Ni  Ni590  1  0.56087686  0.81736941  0.81736941  1.0
  Ni  Ni591  1  0.89421020  0.15070274  0.81736941  1.0
  Ni  Ni592  1  0.89421020  0.48403607  0.81736941  1.0
  Ni  Ni593  1  0.89421020  0.81736941  0.81736941  1.0
  Ni  Ni594  1  0.08171020  0.08820274  0.75486941  1.0
  Ni  Ni595  1  0.08171020  0.42153607  0.75486941  1.0
  Ni  Ni596  1  0.08171020  0.75486941  0.75486941  1.0
  Ni  Ni597  1  0.41504353  0.08820274  0.75486941  1.0
  Ni  Ni598  1  0.41504353  0.42153607  0.75486941  1.0
  Ni  Ni599  1  0.41504353  0.75486941  0.75486941  1.0
  Ni  Ni600  1  0.74837686  0.08820274  0.75486941  1.0
  Ni  Ni601  1  0.74837686  0.42153607  0.75486941  1.0
  Ni  Ni602  1  0.74837686  0.75486941  0.75486941  1.0
  Ni  Ni603  1  0.22754353  0.31736941  0.81736941  1.0
  Ni  Ni604  1  0.22754353  0.65070274  0.81736941  1.0
  Ni  Ni605  1  0.22754353  0.98403607  0.81736941  1.0
  Ni  Ni606  1  0.56087686  0.31736941  0.81736941  1.0
  Ni  Ni607  1  0.56087686  0.65070274  0.81736941  1.0
  Ni  Ni608  1  0.56087686  0.98403607  0.81736941  1.0
  Ni  Ni609  1  0.89421020  0.31736941  0.81736941  1.0
  Ni  Ni610  1  0.89421020  0.65070274  0.81736941  1.0
  Ni  Ni611  1  0.89421020  0.98403607  0.81736941  1.0
  Ni  Ni612  1  0.10326693  0.14579655  0.76606772  1.0
  Ni  Ni613  1  0.10326693  0.47912989  0.76606772  1.0
  Ni  Ni614  1  0.10326693  0.81246322  0.76606772  1.0
  Ni  Ni615  1  0.43660026  0.14579655  0.76606772  1.0
  Ni  Ni616  1  0.43660026  0.47912989  0.76606772  1.0
  Ni  Ni617  1  0.43660026  0.81246322  0.76606772  1.0
  Ni  Ni618  1  0.76993359  0.14579655  0.76606772  1.0
  Ni  Ni619  1  0.76993359  0.47912989  0.76606772  1.0
  Ni  Ni620  1  0.76993359  0.81246322  0.76606772  1.0
  Ni  Ni621  1  0.24910026  0.04162989  0.82856772  1.0
  Ni  Ni622  1  0.24910026  0.37496322  0.82856772  1.0
  Ni  Ni623  1  0.24910026  0.70829655  0.82856772  1.0
  Ni  Ni624  1  0.58243359  0.04162989  0.82856772  1.0
  Ni  Ni625  1  0.58243359  0.37496322  0.82856772  1.0
  Ni  Ni626  1  0.58243359  0.70829655  0.82856772  1.0
  Ni  Ni627  1  0.91576693  0.04162989  0.82856772  1.0
  Ni  Ni628  1  0.91576693  0.37496322  0.82856772  1.0
  Ni  Ni629  1  0.91576693  0.70829655  0.82856772  1.0
  Ni  Ni630  1  0.01848680  0.15560893  0.86867109  1.0
  Ni  Ni631  1  0.01848680  0.48894226  0.86867109  1.0
  Ni  Ni632  1  0.01848680  0.82227559  0.86867109  1.0
  Ni  Ni633  1  0.35182014  0.15560893  0.86867109  1.0
  Ni  Ni634  1  0.35182014  0.48894226  0.86867109  1.0
  Ni  Ni635  1  0.35182014  0.82227559  0.86867109  1.0
  Ni  Ni636  1  0.68515347  0.15560893  0.86867109  1.0
  Ni  Ni637  1  0.68515347  0.48894226  0.86867109  1.0
  Ni  Ni638  1  0.68515347  0.82227559  0.86867109  1.0
  Ni  Ni639  1  0.20598680  0.25977559  0.80617109  1.0
  Ni  Ni640  1  0.20598680  0.59310893  0.80617109  1.0
  Ni  Ni641  1  0.20598680  0.92644226  0.80617109  1.0
  Ni  Ni642  1  0.53932014  0.25977559  0.80617109  1.0
  Ni  Ni643  1  0.53932014  0.59310893  0.80617109  1.0
  Ni  Ni644  1  0.53932014  0.92644226  0.80617109  1.0
  Ni  Ni645  1  0.87265347  0.25977559  0.80617109  1.0
  Ni  Ni646  1  0.87265347  0.59310893  0.80617109  1.0
  Ni  Ni647  1  0.87265347  0.92644226  0.80617109  1.0
  Ni  Ni648  1  0.12574247  0.20192993  0.76313809  1.0
  Ni  Ni649  1  0.12574247  0.53526326  0.76313809  1.0
  Ni  Ni650  1  0.12574247  0.86859659  0.76313809  1.0
  Ni  Ni651  1  0.45907580  0.20192993  0.76313809  1.0
  Ni  Ni652  1  0.45907580  0.53526326  0.76313809  1.0
  Ni  Ni653  1  0.45907580  0.86859659  0.76313809  1.0
  Ni  Ni654  1  0.79240914  0.20192993  0.76313809  1.0
  Ni  Ni655  1  0.79240914  0.53526326  0.76313809  1.0
  Ni  Ni656  1  0.79240914  0.86859659  0.76313809  1.0
  Ni  Ni657  1  0.27157580  0.09776326  0.82563809  1.0
  Ni  Ni658  1  0.27157580  0.43109659  0.82563809  1.0
  Ni  Ni659  1  0.27157580  0.76442993  0.82563809  1.0
  Ni  Ni660  1  0.60490914  0.09776326  0.82563809  1.0
  Ni  Ni661  1  0.60490914  0.43109659  0.82563809  1.0
  Ni  Ni662  1  0.60490914  0.76442993  0.82563809  1.0
  Ni  Ni663  1  0.93824247  0.09776326  0.82563809  1.0
  Ni  Ni664  1  0.93824247  0.43109659  0.82563809  1.0
  Ni  Ni665  1  0.93824247  0.76442993  0.82563809  1.0
  Ni  Ni666  1  0.32934459  0.09947555  0.87160072  1.0
  Ni  Ni667  1  0.32934459  0.43280889  0.87160072  1.0
  Ni  Ni668  1  0.32934459  0.76614222  0.87160072  1.0
  Ni  Ni669  1  0.66267793  0.09947555  0.87160072  1.0
  Ni  Ni670  1  0.66267793  0.43280889  0.87160072  1.0
  Ni  Ni671  1  0.66267793  0.76614222  0.87160072  1.0
  Ni  Ni672  1  0.99601126  0.09947555  0.87160072  1.0
  Ni  Ni673  1  0.99601126  0.43280889  0.87160072  1.0
  Ni  Ni674  1  0.99601126  0.76614222  0.87160072  1.0
  Ni  Ni675  1  0.18351126  0.20364222  0.80910072  1.0
  Ni  Ni676  1  0.18351126  0.53697555  0.80910072  1.0
  Ni  Ni677  1  0.18351126  0.87030889  0.80910072  1.0
  Ni  Ni678  1  0.51684459  0.20364222  0.80910072  1.0
  Ni  Ni679  1  0.51684459  0.53697555  0.80910072  1.0
  Ni  Ni680  1  0.51684459  0.87030889  0.80910072  1.0
  Ni  Ni681  1  0.85017793  0.20364222  0.80910072  1.0
  Ni  Ni682  1  0.85017793  0.53697555  0.80910072  1.0
  Ni  Ni683  1  0.85017793  0.87030889  0.80910072  1.0
  Ni  Ni684  1  0.15261503  0.26533691  0.75952391  1.0
  Ni  Ni685  1  0.15261503  0.59867024  0.75952391  1.0
  Ni  Ni686  1  0.15261503  0.93200357  0.75952391  1.0
  Ni  Ni687  1  0.48594836  0.26533691  0.75952391  1.0
  Ni  Ni688  1  0.48594836  0.59867024  0.75952391  1.0
  Ni  Ni689  1  0.48594836  0.93200357  0.75952391  1.0
  Ni  Ni690  1  0.81928170  0.26533691  0.75952391  1.0
  Ni  Ni691  1  0.81928170  0.59867024  0.75952391  1.0
  Ni  Ni692  1  0.81928170  0.93200357  0.75952391  1.0
  Ni  Ni693  1  0.29844836  0.16117024  0.82202391  1.0
  Ni  Ni694  1  0.29844836  0.49450357  0.82202391  1.0
  Ni  Ni695  1  0.29844836  0.82783691  0.82202391  1.0
  Ni  Ni696  1  0.63178170  0.16117024  0.82202391  1.0
  Ni  Ni697  1  0.63178170  0.49450357  0.82202391  1.0
  Ni  Ni698  1  0.63178170  0.82783691  0.82202391  1.0
  Ni  Ni699  1  0.96511503  0.16117024  0.82202391  1.0
  Ni  Ni700  1  0.96511503  0.49450357  0.82202391  1.0
  Ni  Ni701  1  0.96511503  0.82783691  0.82202391  1.0
  Ni  Ni702  1  0.01080536  0.24440191  0.75021491  1.0
  Ni  Ni703  1  0.01080536  0.57773524  0.75021491  1.0
  Ni  Ni704  1  0.01080536  0.91106857  0.75021491  1.0
  Ni  Ni705  1  0.34413870  0.24440191  0.75021491  1.0
  Ni  Ni706  1  0.34413870  0.57773524  0.75021491  1.0
  Ni  Ni707  1  0.34413870  0.91106857  0.75021491  1.0
  Ni  Ni708  1  0.67747203  0.24440191  0.75021491  1.0
  Ni  Ni709  1  0.67747203  0.57773524  0.75021491  1.0
  Ni  Ni710  1  0.67747203  0.91106857  0.75021491  1.0
  Ni  Ni711  1  0.15663870  0.14023524  0.81271491  1.0
  Ni  Ni712  1  0.15663870  0.47356857  0.81271491  1.0
  Ni  Ni713  1  0.15663870  0.80690191  0.81271491  1.0
  Ni  Ni714  1  0.48997203  0.14023524  0.81271491  1.0
  Ni  Ni715  1  0.48997203  0.47356857  0.81271491  1.0
  Ni  Ni716  1  0.48997203  0.80690191  0.81271491  1.0
  Ni  Ni717  1  0.82330536  0.14023524  0.81271491  1.0
  Ni  Ni718  1  0.82330536  0.47356857  0.81271491  1.0
  Ni  Ni719  1  0.82330536  0.80690191  0.81271491  1.0
  Ni  Ni720  1  0.16504966  0.32242103  0.77818703  1.0
  Ni  Ni721  1  0.16504966  0.65575436  0.77818703  1.0
  Ni  Ni722  1  0.16504966  0.98908770  0.77818703  1.0
  Ni  Ni723  1  0.49838299  0.32242103  0.77818703  1.0
  Ni  Ni724  1  0.49838299  0.65575436  0.77818703  1.0
  Ni  Ni725  1  0.49838299  0.98908770  0.77818703  1.0
  Ni  Ni726  1  0.83171632  0.32242103  0.77818703  1.0
  Ni  Ni727  1  0.83171632  0.65575436  0.77818703  1.0
  Ni  Ni728  1  0.83171632  0.98908770  0.77818703  1.0
  Ni  Ni729  1  0.31088299  0.21825436  0.84068703  1.0
  Ni  Ni730  1  0.31088299  0.55158770  0.84068703  1.0
  Ni  Ni731  1  0.31088299  0.88492103  0.84068703  1.0
  Ni  Ni732  1  0.64421632  0.21825436  0.84068703  1.0
  Ni  Ni733  1  0.64421632  0.55158770  0.84068703  1.0
  Ni  Ni734  1  0.64421632  0.88492103  0.84068703  1.0
  Ni  Ni735  1  0.97754966  0.21825436  0.84068703  1.0
  Ni  Ni736  1  0.97754966  0.55158770  0.84068703  1.0
  Ni  Ni737  1  0.97754966  0.88492103  0.84068703  1.0
  Ni  Ni738  1  0.29003741  0.31231778  0.85655178  1.0
  Ni  Ni739  1  0.29003741  0.64565111  0.85655178  1.0
  Ni  Ni740  1  0.29003741  0.97898445  0.85655178  1.0
  Ni  Ni741  1  0.62337074  0.31231778  0.85655178  1.0
  Ni  Ni742  1  0.62337074  0.64565111  0.85655178  1.0
  Ni  Ni743  1  0.62337074  0.97898445  0.85655178  1.0
  Ni  Ni744  1  0.95670407  0.31231778  0.85655178  1.0
  Ni  Ni745  1  0.95670407  0.64565111  0.85655178  1.0
  Ni  Ni746  1  0.95670407  0.97898445  0.85655178  1.0
  Ni  Ni747  1  0.14420407  0.08315111  0.79405178  1.0
  Ni  Ni748  1  0.14420407  0.41648445  0.79405178  1.0
  Ni  Ni749  1  0.14420407  0.74981778  0.79405178  1.0
  Ni  Ni750  1  0.47753741  0.08315111  0.79405178  1.0
  Ni  Ni751  1  0.47753741  0.41648445  0.79405178  1.0
  Ni  Ni752  1  0.47753741  0.74981778  0.79405178  1.0
  Ni  Ni753  1  0.81087074  0.08315111  0.79405178  1.0
  Ni  Ni754  1  0.81087074  0.41648445  0.79405178  1.0
  Ni  Ni755  1  0.81087074  0.74981778  0.79405178  1.0
  Ni  Ni756  1  0.09343530  0.29813343  0.80763059  1.0
  Ni  Ni757  1  0.09343530  0.63146676  0.80763059  1.0
  Ni  Ni758  1  0.09343530  0.96480009  0.80763059  1.0
  Ni  Ni759  1  0.42676864  0.29813343  0.80763059  1.0
  Ni  Ni760  1  0.42676864  0.63146676  0.80763059  1.0
  Ni  Ni761  1  0.42676864  0.96480009  0.80763059  1.0
  Ni  Ni762  1  0.76010197  0.29813343  0.80763059  1.0
  Ni  Ni763  1  0.76010197  0.63146676  0.80763059  1.0
  Ni  Ni764  1  0.76010197  0.96480009  0.80763059  1.0
  Ni  Ni765  1  0.23926864  0.19396676  0.87013059  1.0
  Ni  Ni766  1  0.23926864  0.52730009  0.87013059  1.0
  Ni  Ni767  1  0.23926864  0.86063343  0.87013059  1.0
  Ni  Ni768  1  0.57260197  0.19396676  0.87013059  1.0
  Ni  Ni769  1  0.57260197  0.52730009  0.87013059  1.0
  Ni  Ni770  1  0.57260197  0.86063343  0.87013059  1.0
  Ni  Ni771  1  0.90593530  0.19396676  0.87013059  1.0
  Ni  Ni772  1  0.90593530  0.52730009  0.87013059  1.0
  Ni  Ni773  1  0.90593530  0.86063343  0.87013059  1.0
  Ni  Ni774  1  0.02831843  0.00327205  0.82710822  1.0
  Ni  Ni775  1  0.02831843  0.33660539  0.82710822  1.0
  Ni  Ni776  1  0.02831843  0.66993872  0.82710822  1.0
  Ni  Ni777  1  0.36165176  0.00327205  0.82710822  1.0
  Ni  Ni778  1  0.36165176  0.33660539  0.82710822  1.0
  Ni  Ni779  1  0.36165176  0.66993872  0.82710822  1.0
  Ni  Ni780  1  0.69498509  0.00327205  0.82710822  1.0
  Ni  Ni781  1  0.69498509  0.33660539  0.82710822  1.0
  Ni  Ni782  1  0.69498509  0.66993872  0.82710822  1.0
  Ni  Ni783  1  0.21581843  0.10743872  0.76460822  1.0
  Ni  Ni784  1  0.21581843  0.44077205  0.76460822  1.0
  Ni  Ni785  1  0.21581843  0.77410539  0.76460822  1.0
  Ni  Ni786  1  0.54915176  0.10743872  0.76460822  1.0
  Ni  Ni787  1  0.54915176  0.44077205  0.76460822  1.0
  Ni  Ni788  1  0.54915176  0.77410539  0.76460822  1.0
  Ni  Ni789  1  0.88248509  0.10743872  0.76460822  1.0
  Ni  Ni790  1  0.88248509  0.44077205  0.76460822  1.0
  Ni  Ni791  1  0.88248509  0.77410539  0.76460822  1.0
  Ni  Ni792  1  0.28450311  0.27576299  0.78667066  1.0
  Ni  Ni793  1  0.28450311  0.60909632  0.78667066  1.0
  Ni  Ni794  1  0.28450311  0.94242966  0.78667066  1.0
  Ni  Ni795  1  0.61783645  0.27576299  0.78667066  1.0
  Ni  Ni796  1  0.61783645  0.60909632  0.78667066  1.0
  Ni  Ni797  1  0.61783645  0.94242966  0.78667066  1.0
  Ni  Ni798  1  0.95116978  0.27576299  0.78667066  1.0
  Ni  Ni799  1  0.95116978  0.60909632  0.78667066  1.0
  Ni  Ni800  1  0.95116978  0.94242966  0.78667066  1.0
  Ni  Ni801  1  0.09700311  0.17159632  0.84917066  1.0
  Ni  Ni802  1  0.09700311  0.50492966  0.84917066  1.0
  Ni  Ni803  1  0.09700311  0.83826299  0.84917066  1.0
  Ni  Ni804  1  0.43033645  0.17159632  0.84917066  1.0
  Ni  Ni805  1  0.43033645  0.50492966  0.84917066  1.0
  Ni  Ni806  1  0.43033645  0.83826299  0.84917066  1.0
  Ni  Ni807  1  0.76366978  0.17159632  0.84917066  1.0
  Ni  Ni808  1  0.76366978  0.50492966  0.84917066  1.0
  Ni  Ni809  1  0.76366978  0.83826299  0.84917066  1.0
  Ni  Ni810  1  0.17058395  0.02564249  0.84806816  1.0
  Ni  Ni811  1  0.17058395  0.35897582  0.84806816  1.0
  Ni  Ni812  1  0.17058395  0.69230916  0.84806816  1.0
  Ni  Ni813  1  0.50391728  0.02564249  0.84806816  1.0
  Ni  Ni814  1  0.50391728  0.35897582  0.84806816  1.0
  Ni  Ni815  1  0.50391728  0.69230916  0.84806816  1.0
  Ni  Ni816  1  0.83725061  0.02564249  0.84806816  1.0
  Ni  Ni817  1  0.83725061  0.35897582  0.84806816  1.0
  Ni  Ni818  1  0.83725061  0.69230916  0.84806816  1.0
  Ni  Ni819  1  0.02475061  0.12980916  0.78556816  1.0
  Ni  Ni820  1  0.02475061  0.46314249  0.78556816  1.0
  Ni  Ni821  1  0.02475061  0.79647582  0.78556816  1.0
  Ni  Ni822  1  0.35808395  0.12980916  0.78556816  1.0
  Ni  Ni823  1  0.35808395  0.46314249  0.78556816  1.0
  Ni  Ni824  1  0.35808395  0.79647582  0.78556816  1.0
  Ni  Ni825  1  0.69141728  0.12980916  0.78556816  1.0
  Ni  Ni826  1  0.69141728  0.46314249  0.78556816  1.0
  Ni  Ni827  1  0.69141728  0.79647582  0.78556816  1.0
  Ni  Ni828  1  0.12337686  0.12986941  0.62986941  1.0
  Ni  Ni829  1  0.12337686  0.46320274  0.62986941  1.0
  Ni  Ni830  1  0.12337686  0.79653607  0.62986941  1.0
  Ni  Ni831  1  0.45671020  0.12986941  0.62986941  1.0
  Ni  Ni832  1  0.45671020  0.46320274  0.62986941  1.0
  Ni  Ni833  1  0.45671020  0.79653607  0.62986941  1.0
  Ni  Ni834  1  0.79004353  0.12986941  0.62986941  1.0
  Ni  Ni835  1  0.79004353  0.46320274  0.62986941  1.0
  Ni  Ni836  1  0.79004353  0.79653607  0.62986941  1.0
  Ni  Ni837  1  0.26921020  0.02570274  0.69236941  1.0
  Ni  Ni838  1  0.26921020  0.35903607  0.69236941  1.0
  Ni  Ni839  1  0.26921020  0.69236941  0.69236941  1.0
  Ni  Ni840  1  0.60254353  0.02570274  0.69236941  1.0
  Ni  Ni841  1  0.60254353  0.35903607  0.69236941  1.0
  Ni  Ni842  1  0.60254353  0.69236941  0.69236941  1.0
  Ni  Ni843  1  0.93587686  0.02570274  0.69236941  1.0
  Ni  Ni844  1  0.93587686  0.35903607  0.69236941  1.0
  Ni  Ni845  1  0.93587686  0.69236941  0.69236941  1.0
  Ni  Ni846  1  0.12337686  0.29653607  0.62986941  1.0
  Ni  Ni847  1  0.12337686  0.62986941  0.62986941  1.0
  Ni  Ni848  1  0.12337686  0.96320274  0.62986941  1.0
  Ni  Ni849  1  0.45671020  0.29653607  0.62986941  1.0
  Ni  Ni850  1  0.45671020  0.62986941  0.62986941  1.0
  Ni  Ni851  1  0.45671020  0.96320274  0.62986941  1.0
  Ni  Ni852  1  0.79004353  0.29653607  0.62986941  1.0
  Ni  Ni853  1  0.79004353  0.62986941  0.62986941  1.0
  Ni  Ni854  1  0.79004353  0.96320274  0.62986941  1.0
  Ni  Ni855  1  0.26921020  0.19236941  0.69236941  1.0
  Ni  Ni856  1  0.26921020  0.52570274  0.69236941  1.0
  Ni  Ni857  1  0.26921020  0.85903607  0.69236941  1.0
  Ni  Ni858  1  0.60254353  0.19236941  0.69236941  1.0
  Ni  Ni859  1  0.60254353  0.52570274  0.69236941  1.0
  Ni  Ni860  1  0.60254353  0.85903607  0.69236941  1.0
  Ni  Ni861  1  0.93587686  0.19236941  0.69236941  1.0
  Ni  Ni862  1  0.93587686  0.52570274  0.69236941  1.0
  Ni  Ni863  1  0.93587686  0.85903607  0.69236941  1.0
  Ni  Ni864  1  0.14493359  0.02079655  0.64106772  1.0
  Ni  Ni865  1  0.14493359  0.35412989  0.64106772  1.0
  Ni  Ni866  1  0.14493359  0.68746322  0.64106772  1.0
  Ni  Ni867  1  0.47826693  0.02079655  0.64106772  1.0
  Ni  Ni868  1  0.47826693  0.35412989  0.64106772  1.0
  Ni  Ni869  1  0.47826693  0.68746322  0.64106772  1.0
  Ni  Ni870  1  0.81160026  0.02079655  0.64106772  1.0
  Ni  Ni871  1  0.81160026  0.35412989  0.64106772  1.0
  Ni  Ni872  1  0.81160026  0.68746322  0.64106772  1.0
  Ni  Ni873  1  0.29076693  0.24996322  0.70356772  1.0
  Ni  Ni874  1  0.29076693  0.58329655  0.70356772  1.0
  Ni  Ni875  1  0.29076693  0.91662989  0.70356772  1.0
  Ni  Ni876  1  0.62410026  0.24996322  0.70356772  1.0
  Ni  Ni877  1  0.62410026  0.58329655  0.70356772  1.0
  Ni  Ni878  1  0.62410026  0.91662989  0.70356772  1.0
  Ni  Ni879  1  0.95743359  0.24996322  0.70356772  1.0
  Ni  Ni880  1  0.95743359  0.58329655  0.70356772  1.0
  Ni  Ni881  1  0.95743359  0.91662989  0.70356772  1.0
  Ni  Ni882  1  0.06015347  0.03060893  0.74367109  1.0
  Ni  Ni883  1  0.06015347  0.36394226  0.74367109  1.0
  Ni  Ni884  1  0.06015347  0.69727559  0.74367109  1.0
  Ni  Ni885  1  0.39348680  0.03060893  0.74367109  1.0
  Ni  Ni886  1  0.39348680  0.36394226  0.74367109  1.0
  Ni  Ni887  1  0.39348680  0.69727559  0.74367109  1.0
  Ni  Ni888  1  0.72682014  0.03060893  0.74367109  1.0
  Ni  Ni889  1  0.72682014  0.36394226  0.74367109  1.0
  Ni  Ni890  1  0.72682014  0.69727559  0.74367109  1.0
  Ni  Ni891  1  0.24765347  0.13477559  0.68117109  1.0
  Ni  Ni892  1  0.24765347  0.46810893  0.68117109  1.0
  Ni  Ni893  1  0.24765347  0.80144226  0.68117109  1.0
  Ni  Ni894  1  0.58098680  0.13477559  0.68117109  1.0
  Ni  Ni895  1  0.58098680  0.46810893  0.68117109  1.0
  Ni  Ni896  1  0.58098680  0.80144226  0.68117109  1.0
  Ni  Ni897  1  0.91432014  0.13477559  0.68117109  1.0
  Ni  Ni898  1  0.91432014  0.46810893  0.68117109  1.0
  Ni  Ni899  1  0.91432014  0.80144226  0.68117109  1.0
  Ni  Ni900  1  0.16740914  0.07692993  0.63813809  1.0
  Ni  Ni901  1  0.16740914  0.41026326  0.63813809  1.0
  Ni  Ni902  1  0.16740914  0.74359659  0.63813809  1.0
  Ni  Ni903  1  0.50074247  0.07692993  0.63813809  1.0
  Ni  Ni904  1  0.50074247  0.41026326  0.63813809  1.0
  Ni  Ni905  1  0.50074247  0.74359659  0.63813809  1.0
  Ni  Ni906  1  0.83407580  0.07692993  0.63813809  1.0
  Ni  Ni907  1  0.83407580  0.41026326  0.63813809  1.0
  Ni  Ni908  1  0.83407580  0.74359659  0.63813809  1.0
  Ni  Ni909  1  0.31324247  0.30609659  0.70063809  1.0
  Ni  Ni910  1  0.31324247  0.63942993  0.70063809  1.0
  Ni  Ni911  1  0.31324247  0.97276326  0.70063809  1.0
  Ni  Ni912  1  0.64657580  0.30609659  0.70063809  1.0
  Ni  Ni913  1  0.64657580  0.63942993  0.70063809  1.0
  Ni  Ni914  1  0.64657580  0.97276326  0.70063809  1.0
  Ni  Ni915  1  0.97990914  0.30609659  0.70063809  1.0
  Ni  Ni916  1  0.97990914  0.63942993  0.70063809  1.0
  Ni  Ni917  1  0.97990914  0.97276326  0.70063809  1.0
  Ni  Ni918  1  0.03767793  0.30780889  0.74660072  1.0
  Ni  Ni919  1  0.03767793  0.64114222  0.74660072  1.0
  Ni  Ni920  1  0.03767793  0.97447555  0.74660072  1.0
  Ni  Ni921  1  0.37101126  0.30780889  0.74660072  1.0
  Ni  Ni922  1  0.37101126  0.64114222  0.74660072  1.0
  Ni  Ni923  1  0.37101126  0.97447555  0.74660072  1.0
  Ni  Ni924  1  0.70434459  0.30780889  0.74660072  1.0
  Ni  Ni925  1  0.70434459  0.64114222  0.74660072  1.0
  Ni  Ni926  1  0.70434459  0.97447555  0.74660072  1.0
  Ni  Ni927  1  0.22517793  0.07864222  0.68410072  1.0
  Ni  Ni928  1  0.22517793  0.41197555  0.68410072  1.0
  Ni  Ni929  1  0.22517793  0.74530889  0.68410072  1.0
  Ni  Ni930  1  0.55851126  0.07864222  0.68410072  1.0
  Ni  Ni931  1  0.55851126  0.41197555  0.68410072  1.0
  Ni  Ni932  1  0.55851126  0.74530889  0.68410072  1.0
  Ni  Ni933  1  0.89184459  0.07864222  0.68410072  1.0
  Ni  Ni934  1  0.89184459  0.41197555  0.68410072  1.0
  Ni  Ni935  1  0.89184459  0.74530889  0.68410072  1.0
  Ni  Ni936  1  0.19428170  0.14033691  0.63452391  1.0
  Ni  Ni937  1  0.19428170  0.47367024  0.63452391  1.0
  Ni  Ni938  1  0.19428170  0.80700357  0.63452391  1.0
  Ni  Ni939  1  0.52761503  0.14033691  0.63452391  1.0
  Ni  Ni940  1  0.52761503  0.47367024  0.63452391  1.0
  Ni  Ni941  1  0.52761503  0.80700357  0.63452391  1.0
  Ni  Ni942  1  0.86094836  0.14033691  0.63452391  1.0
  Ni  Ni943  1  0.86094836  0.47367024  0.63452391  1.0
  Ni  Ni944  1  0.86094836  0.80700357  0.63452391  1.0
  Ni  Ni945  1  0.00678170  0.03617024  0.69702391  1.0
  Ni  Ni946  1  0.00678170  0.36950357  0.69702391  1.0
  Ni  Ni947  1  0.00678170  0.70283691  0.69702391  1.0
  Ni  Ni948  1  0.34011503  0.03617024  0.69702391  1.0
  Ni  Ni949  1  0.34011503  0.36950357  0.69702391  1.0
  Ni  Ni950  1  0.34011503  0.70283691  0.69702391  1.0
  Ni  Ni951  1  0.67344836  0.03617024  0.69702391  1.0
  Ni  Ni952  1  0.67344836  0.36950357  0.69702391  1.0
  Ni  Ni953  1  0.67344836  0.70283691  0.69702391  1.0
  Ni  Ni954  1  0.05247203  0.11940191  0.62521491  1.0
  Ni  Ni955  1  0.05247203  0.45273524  0.62521491  1.0
  Ni  Ni956  1  0.05247203  0.78606857  0.62521491  1.0
  Ni  Ni957  1  0.38580536  0.11940191  0.62521491  1.0
  Ni  Ni958  1  0.38580536  0.45273524  0.62521491  1.0
  Ni  Ni959  1  0.38580536  0.78606857  0.62521491  1.0
  Ni  Ni960  1  0.71913870  0.11940191  0.62521491  1.0
  Ni  Ni961  1  0.71913870  0.45273524  0.62521491  1.0
  Ni  Ni962  1  0.71913870  0.78606857  0.62521491  1.0
  Ni  Ni963  1  0.19830536  0.01523524  0.68771491  1.0
  Ni  Ni964  1  0.19830536  0.34856857  0.68771491  1.0
  Ni  Ni965  1  0.19830536  0.68190191  0.68771491  1.0
  Ni  Ni966  1  0.53163870  0.01523524  0.68771491  1.0
  Ni  Ni967  1  0.53163870  0.34856857  0.68771491  1.0
  Ni  Ni968  1  0.53163870  0.68190191  0.68771491  1.0
  Ni  Ni969  1  0.86497203  0.01523524  0.68771491  1.0
  Ni  Ni970  1  0.86497203  0.34856857  0.68771491  1.0
  Ni  Ni971  1  0.86497203  0.68190191  0.68771491  1.0
  Ni  Ni972  1  0.20671632  0.19742103  0.65318703  1.0
  Ni  Ni973  1  0.20671632  0.53075436  0.65318703  1.0
  Ni  Ni974  1  0.20671632  0.86408770  0.65318703  1.0
  Ni  Ni975  1  0.54004966  0.19742103  0.65318703  1.0
  Ni  Ni976  1  0.54004966  0.53075436  0.65318703  1.0
  Ni  Ni977  1  0.54004966  0.86408770  0.65318703  1.0
  Ni  Ni978  1  0.87338299  0.19742103  0.65318703  1.0
  Ni  Ni979  1  0.87338299  0.53075436  0.65318703  1.0
  Ni  Ni980  1  0.87338299  0.86408770  0.65318703  1.0
  Ni  Ni981  1  0.01921632  0.09325436  0.71568703  1.0
  Ni  Ni982  1  0.01921632  0.42658770  0.71568703  1.0
  Ni  Ni983  1  0.01921632  0.75992103  0.71568703  1.0
  Ni  Ni984  1  0.35254966  0.09325436  0.71568703  1.0
  Ni  Ni985  1  0.35254966  0.42658770  0.71568703  1.0
  Ni  Ni986  1  0.35254966  0.75992103  0.71568703  1.0
  Ni  Ni987  1  0.68588299  0.09325436  0.71568703  1.0
  Ni  Ni988  1  0.68588299  0.42658770  0.71568703  1.0
  Ni  Ni989  1  0.68588299  0.75992103  0.71568703  1.0
  Ni  Ni990  1  0.33170407  0.18731778  0.73155178  1.0
  Ni  Ni991  1  0.33170407  0.52065111  0.73155178  1.0
  Ni  Ni992  1  0.33170407  0.85398445  0.73155178  1.0
  Ni  Ni993  1  0.66503741  0.18731778  0.73155178  1.0
  Ni  Ni994  1  0.66503741  0.52065111  0.73155178  1.0
  Ni  Ni995  1  0.66503741  0.85398445  0.73155178  1.0
  Ni  Ni996  1  0.99837074  0.18731778  0.73155178  1.0
  Ni  Ni997  1  0.99837074  0.52065111  0.73155178  1.0
  Ni  Ni998  1  0.99837074  0.85398445  0.73155178  1.0
  Ni  Ni999  1  0.18587074  0.29148445  0.66905178  1.0
  Ni  Ni1000  1  0.18587074  0.62481778  0.66905178  1.0
  Ni  Ni1001  1  0.18587074  0.95815111  0.66905178  1.0
  Ni  Ni1002  1  0.51920407  0.29148445  0.66905178  1.0
  Ni  Ni1003  1  0.51920407  0.62481778  0.66905178  1.0
  Ni  Ni1004  1  0.51920407  0.95815111  0.66905178  1.0
  Ni  Ni1005  1  0.85253741  0.29148445  0.66905178  1.0
  Ni  Ni1006  1  0.85253741  0.62481778  0.66905178  1.0
  Ni  Ni1007  1  0.85253741  0.95815111  0.66905178  1.0
  Ni  Ni1008  1  0.13510197  0.17313343  0.68263059  1.0
  Ni  Ni1009  1  0.13510197  0.50646676  0.68263059  1.0
  Ni  Ni1010  1  0.13510197  0.83980009  0.68263059  1.0
  Ni  Ni1011  1  0.46843530  0.17313343  0.68263059  1.0
  Ni  Ni1012  1  0.46843530  0.50646676  0.68263059  1.0
  Ni  Ni1013  1  0.46843530  0.83980009  0.68263059  1.0
  Ni  Ni1014  1  0.80176864  0.17313343  0.68263059  1.0
  Ni  Ni1015  1  0.80176864  0.50646676  0.68263059  1.0
  Ni  Ni1016  1  0.80176864  0.83980009  0.68263059  1.0
  Ni  Ni1017  1  0.28093530  0.06896676  0.74513059  1.0
  Ni  Ni1018  1  0.28093530  0.40230009  0.74513059  1.0
  Ni  Ni1019  1  0.28093530  0.73563343  0.74513059  1.0
  Ni  Ni1020  1  0.61426864  0.06896676  0.74513059  1.0
  Ni  Ni1021  1  0.61426864  0.40230009  0.74513059  1.0
  Ni  Ni1022  1  0.61426864  0.73563343  0.74513059  1.0
  Ni  Ni1023  1  0.94760197  0.06896676  0.74513059  1.0
  Ni  Ni1024  1  0.94760197  0.40230009  0.74513059  1.0
  Ni  Ni1025  1  0.94760197  0.73563343  0.74513059  1.0
  Ni  Ni1026  1  0.06998509  0.21160539  0.70210822  1.0
  Ni  Ni1027  1  0.06998509  0.54493872  0.70210822  1.0
  Ni  Ni1028  1  0.06998509  0.87827205  0.70210822  1.0
  Ni  Ni1029  1  0.40331843  0.21160539  0.70210822  1.0
  Ni  Ni1030  1  0.40331843  0.54493872  0.70210822  1.0
  Ni  Ni1031  1  0.40331843  0.87827205  0.70210822  1.0
  Ni  Ni1032  1  0.73665176  0.21160539  0.70210822  1.0
  Ni  Ni1033  1  0.73665176  0.54493872  0.70210822  1.0
  Ni  Ni1034  1  0.73665176  0.87827205  0.70210822  1.0
  Ni  Ni1035  1  0.25748509  0.31577205  0.63960822  1.0
  Ni  Ni1036  1  0.25748509  0.64910539  0.63960822  1.0
  Ni  Ni1037  1  0.25748509  0.98243872  0.63960822  1.0
  Ni  Ni1038  1  0.59081843  0.31577205  0.63960822  1.0
  Ni  Ni1039  1  0.59081843  0.64910539  0.63960822  1.0
  Ni  Ni1040  1  0.59081843  0.98243872  0.63960822  1.0
  Ni  Ni1041  1  0.92415176  0.31577205  0.63960822  1.0
  Ni  Ni1042  1  0.92415176  0.64910539  0.63960822  1.0
  Ni  Ni1043  1  0.92415176  0.98243872  0.63960822  1.0
  Ni  Ni1044  1  0.32616978  0.15076299  0.66167066  1.0
  Ni  Ni1045  1  0.32616978  0.48409632  0.66167066  1.0
  Ni  Ni1046  1  0.32616978  0.81742966  0.66167066  1.0
  Ni  Ni1047  1  0.65950311  0.15076299  0.66167066  1.0
  Ni  Ni1048  1  0.65950311  0.48409632  0.66167066  1.0
  Ni  Ni1049  1  0.65950311  0.81742966  0.66167066  1.0
  Ni  Ni1050  1  0.99283645  0.15076299  0.66167066  1.0
  Ni  Ni1051  1  0.99283645  0.48409632  0.66167066  1.0
  Ni  Ni1052  1  0.99283645  0.81742966  0.66167066  1.0
  Ni  Ni1053  1  0.13866978  0.04659632  0.72417066  1.0
  Ni  Ni1054  1  0.13866978  0.37992966  0.72417066  1.0
  Ni  Ni1055  1  0.13866978  0.71326299  0.72417066  1.0
  Ni  Ni1056  1  0.47200311  0.04659632  0.72417066  1.0
  Ni  Ni1057  1  0.47200311  0.37992966  0.72417066  1.0
  Ni  Ni1058  1  0.47200311  0.71326299  0.72417066  1.0
  Ni  Ni1059  1  0.80533645  0.04659632  0.72417066  1.0
  Ni  Ni1060  1  0.80533645  0.37992966  0.72417066  1.0
  Ni  Ni1061  1  0.80533645  0.71326299  0.72417066  1.0
  Ni  Ni1062  1  0.21225061  0.23397582  0.72306816  1.0
  Ni  Ni1063  1  0.21225061  0.56730916  0.72306816  1.0
  Ni  Ni1064  1  0.21225061  0.90064249  0.72306816  1.0
  Ni  Ni1065  1  0.54558395  0.23397582  0.72306816  1.0
  Ni  Ni1066  1  0.54558395  0.56730916  0.72306816  1.0
  Ni  Ni1067  1  0.54558395  0.90064249  0.72306816  1.0
  Ni  Ni1068  1  0.87891728  0.23397582  0.72306816  1.0
  Ni  Ni1069  1  0.87891728  0.56730916  0.72306816  1.0
  Ni  Ni1070  1  0.87891728  0.90064249  0.72306816  1.0
  Ni  Ni1071  1  0.06641728  0.00480916  0.66056816  1.0
  Ni  Ni1072  1  0.06641728  0.33814249  0.66056816  1.0
  Ni  Ni1073  1  0.06641728  0.67147582  0.66056816  1.0
  Ni  Ni1074  1  0.39975061  0.00480916  0.66056816  1.0
  Ni  Ni1075  1  0.39975061  0.33814249  0.66056816  1.0
  Ni  Ni1076  1  0.39975061  0.67147582  0.66056816  1.0
  Ni  Ni1077  1  0.73308395  0.00480916  0.66056816  1.0
  Ni  Ni1078  1  0.73308395  0.33814249  0.66056816  1.0
  Ni  Ni1079  1  0.73308395  0.67147582  0.66056816  1.0
