# generated using pymatgen
data_Hf3Ni7
_symmetry_space_group_name_H-M   'P 1'
_cell_length_a   23.91004204
_cell_length_b   33.31498253
_cell_length_c   31.41805250
_cell_angle_alpha   89.81536012
_cell_angle_beta   89.21173916
_cell_angle_gamma   77.76491389
_symmetry_Int_Tables_number   1
_chemical_formula_structural   Hf3Ni7
_chemical_formula_sum   'Hf216 Ni504'
_cell_volume   24455.68765610
_cell_formula_units_Z   72
loop_
 _symmetry_equiv_pos_site_id
 _symmetry_equiv_pos_as_xyz
  1  'x, y, z'
loop_
 _atom_site_type_symbol
 _atom_site_label
 _atom_site_symmetry_multiplicity
 _atom_site_fract_x
 _atom_site_fract_y
 _atom_site_fract_z
 _atom_site_occupancy
  Hf  Hf0  1  0.31124237  0.02357767  0.13565710  1.0
  Hf  Hf1  1  0.31124237  0.35691100  0.13565710  1.0
  Hf  Hf2  1  0.31124237  0.69024433  0.13565710  1.0
  Hf  Hf3  1  0.64457570  0.02357767  0.13565710  1.0
  Hf  Hf4  1  0.64457570  0.35691100  0.13565710  1.0
  Hf  Hf5  1  0.64457570  0.69024433  0.13565710  1.0
  Hf  Hf6  1  0.97790903  0.02357767  0.13565710  1.0
  Hf  Hf7  1  0.97790903  0.35691100  0.13565710  1.0
  Hf  Hf8  1  0.97790903  0.69024433  0.13565710  1.0
  Hf  Hf9  1  0.11124237  0.19024433  0.03565710  1.0
  Hf  Hf10  1  0.11124237  0.52357767  0.03565710  1.0
  Hf  Hf11  1  0.11124237  0.85691100  0.03565710  1.0
  Hf  Hf12  1  0.44457570  0.19024433  0.03565710  1.0
  Hf  Hf13  1  0.44457570  0.52357767  0.03565710  1.0
  Hf  Hf14  1  0.44457570  0.85691100  0.03565710  1.0
  Hf  Hf15  1  0.77790903  0.19024433  0.03565710  1.0
  Hf  Hf16  1  0.77790903  0.52357767  0.03565710  1.0
  Hf  Hf17  1  0.77790903  0.85691100  0.03565710  1.0
  Hf  Hf18  1  0.08555397  0.30975567  0.05473190  1.0
  Hf  Hf19  1  0.08555397  0.64308900  0.05473190  1.0
  Hf  Hf20  1  0.08555397  0.97642233  0.05473190  1.0
  Hf  Hf21  1  0.41888730  0.30975567  0.05473190  1.0
  Hf  Hf22  1  0.41888730  0.64308900  0.05473190  1.0
  Hf  Hf23  1  0.41888730  0.97642233  0.05473190  1.0
  Hf  Hf24  1  0.75222063  0.30975567  0.05473190  1.0
  Hf  Hf25  1  0.75222063  0.64308900  0.05473190  1.0
  Hf  Hf26  1  0.75222063  0.97642233  0.05473190  1.0
  Hf  Hf27  1  0.28555397  0.14308900  0.15473190  1.0
  Hf  Hf28  1  0.28555397  0.47642233  0.15473190  1.0
  Hf  Hf29  1  0.28555397  0.80975567  0.15473190  1.0
  Hf  Hf30  1  0.61888730  0.14308900  0.15473190  1.0
  Hf  Hf31  1  0.61888730  0.47642233  0.15473190  1.0
  Hf  Hf32  1  0.61888730  0.80975567  0.15473190  1.0
  Hf  Hf33  1  0.95222063  0.14308900  0.15473190  1.0
  Hf  Hf34  1  0.95222063  0.47642233  0.15473190  1.0
  Hf  Hf35  1  0.95222063  0.80975567  0.15473190  1.0
  Hf  Hf36  1  0.23482443  0.03889400  0.04309630  1.0
  Hf  Hf37  1  0.23482443  0.37222733  0.04309630  1.0
  Hf  Hf38  1  0.23482443  0.70556067  0.04309630  1.0
  Hf  Hf39  1  0.56815777  0.03889400  0.04309630  1.0
  Hf  Hf40  1  0.56815777  0.37222733  0.04309630  1.0
  Hf  Hf41  1  0.56815777  0.70556067  0.04309630  1.0
  Hf  Hf42  1  0.90149110  0.03889400  0.04309630  1.0
  Hf  Hf43  1  0.90149110  0.37222733  0.04309630  1.0
  Hf  Hf44  1  0.90149110  0.70556067  0.04309630  1.0
  Hf  Hf45  1  0.10149110  0.20556067  0.14309630  1.0
  Hf  Hf46  1  0.10149110  0.53889400  0.14309630  1.0
  Hf  Hf47  1  0.10149110  0.87222733  0.14309630  1.0
  Hf  Hf48  1  0.43482443  0.20556067  0.14309630  1.0
  Hf  Hf49  1  0.43482443  0.53889400  0.14309630  1.0
  Hf  Hf50  1  0.43482443  0.87222733  0.14309630  1.0
  Hf  Hf51  1  0.76815777  0.20556067  0.14309630  1.0
  Hf  Hf52  1  0.76815777  0.53889400  0.14309630  1.0
  Hf  Hf53  1  0.76815777  0.87222733  0.14309630  1.0
  Hf  Hf54  1  0.16197190  0.29443933  0.14729270  1.0
  Hf  Hf55  1  0.16197190  0.62777267  0.14729270  1.0
  Hf  Hf56  1  0.16197190  0.96110600  0.14729270  1.0
  Hf  Hf57  1  0.49530523  0.29443933  0.14729270  1.0
  Hf  Hf58  1  0.49530523  0.62777267  0.14729270  1.0
  Hf  Hf59  1  0.49530523  0.96110600  0.14729270  1.0
  Hf  Hf60  1  0.82863857  0.29443933  0.14729270  1.0
  Hf  Hf61  1  0.82863857  0.62777267  0.14729270  1.0
  Hf  Hf62  1  0.82863857  0.96110600  0.14729270  1.0
  Hf  Hf63  1  0.29530523  0.12777267  0.04729270  1.0
  Hf  Hf64  1  0.29530523  0.46110600  0.04729270  1.0
  Hf  Hf65  1  0.29530523  0.79443933  0.04729270  1.0
  Hf  Hf66  1  0.62863857  0.12777267  0.04729270  1.0
  Hf  Hf67  1  0.62863857  0.46110600  0.04729270  1.0
  Hf  Hf68  1  0.62863857  0.79443933  0.04729270  1.0
  Hf  Hf69  1  0.96197190  0.12777267  0.04729270  1.0
  Hf  Hf70  1  0.96197190  0.46110600  0.04729270  1.0
  Hf  Hf71  1  0.96197190  0.79443933  0.04729270  1.0
  Hf  Hf72  1  0.26775270  0.27506250  0.00374260  1.0
  Hf  Hf73  1  0.26775270  0.60839583  0.00374260  1.0
  Hf  Hf74  1  0.26775270  0.94172917  0.00374260  1.0
  Hf  Hf75  1  0.60108603  0.27506250  0.00374260  1.0
  Hf  Hf76  1  0.60108603  0.60839583  0.00374260  1.0
  Hf  Hf77  1  0.60108603  0.94172917  0.00374260  1.0
  Hf  Hf78  1  0.93441937  0.27506250  0.00374260  1.0
  Hf  Hf79  1  0.93441937  0.60839583  0.00374260  1.0
  Hf  Hf80  1  0.93441937  0.94172917  0.00374260  1.0
  Hf  Hf81  1  0.13441937  0.10839583  0.10374260  1.0
  Hf  Hf82  1  0.13441937  0.44172917  0.10374260  1.0
  Hf  Hf83  1  0.13441937  0.77506250  0.10374260  1.0
  Hf  Hf84  1  0.46775270  0.10839583  0.10374260  1.0
  Hf  Hf85  1  0.46775270  0.44172917  0.10374260  1.0
  Hf  Hf86  1  0.46775270  0.77506250  0.10374260  1.0
  Hf  Hf87  1  0.80108603  0.10839583  0.10374260  1.0
  Hf  Hf88  1  0.80108603  0.44172917  0.10374260  1.0
  Hf  Hf89  1  0.80108603  0.77506250  0.10374260  1.0
  Hf  Hf90  1  0.12904363  0.05827083  0.18664640  1.0
  Hf  Hf91  1  0.12904363  0.39160417  0.18664640  1.0
  Hf  Hf92  1  0.12904363  0.72493750  0.18664640  1.0
  Hf  Hf93  1  0.46237697  0.05827083  0.18664640  1.0
  Hf  Hf94  1  0.46237697  0.39160417  0.18664640  1.0
  Hf  Hf95  1  0.46237697  0.72493750  0.18664640  1.0
  Hf  Hf96  1  0.79571030  0.05827083  0.18664640  1.0
  Hf  Hf97  1  0.79571030  0.39160417  0.18664640  1.0
  Hf  Hf98  1  0.79571030  0.72493750  0.18664640  1.0
  Hf  Hf99  1  0.26237697  0.22493750  0.08664640  1.0
  Hf  Hf100  1  0.26237697  0.55827083  0.08664640  1.0
  Hf  Hf101  1  0.26237697  0.89160417  0.08664640  1.0
  Hf  Hf102  1  0.59571030  0.22493750  0.08664640  1.0
  Hf  Hf103  1  0.59571030  0.55827083  0.08664640  1.0
  Hf  Hf104  1  0.59571030  0.89160417  0.08664640  1.0
  Hf  Hf105  1  0.92904363  0.22493750  0.08664640  1.0
  Hf  Hf106  1  0.92904363  0.55827083  0.08664640  1.0
  Hf  Hf107  1  0.92904363  0.89160417  0.08664640  1.0
  Hf  Hf108  1  0.04457570  0.02357767  0.33565710  1.0
  Hf  Hf109  1  0.04457570  0.35691100  0.33565710  1.0
  Hf  Hf110  1  0.04457570  0.69024433  0.33565710  1.0
  Hf  Hf111  1  0.37790903  0.02357767  0.33565710  1.0
  Hf  Hf112  1  0.37790903  0.35691100  0.33565710  1.0
  Hf  Hf113  1  0.37790903  0.69024433  0.33565710  1.0
  Hf  Hf114  1  0.71124237  0.02357767  0.33565710  1.0
  Hf  Hf115  1  0.71124237  0.35691100  0.33565710  1.0
  Hf  Hf116  1  0.71124237  0.69024433  0.33565710  1.0
  Hf  Hf117  1  0.17790903  0.19024433  0.23565710  1.0
  Hf  Hf118  1  0.17790903  0.52357767  0.23565710  1.0
  Hf  Hf119  1  0.17790903  0.85691100  0.23565710  1.0
  Hf  Hf120  1  0.51124237  0.19024433  0.23565710  1.0
  Hf  Hf121  1  0.51124237  0.52357767  0.23565710  1.0
  Hf  Hf122  1  0.51124237  0.85691100  0.23565710  1.0
  Hf  Hf123  1  0.84457570  0.19024433  0.23565710  1.0
  Hf  Hf124  1  0.84457570  0.52357767  0.23565710  1.0
  Hf  Hf125  1  0.84457570  0.85691100  0.23565710  1.0
  Hf  Hf126  1  0.15222063  0.30975567  0.25473190  1.0
  Hf  Hf127  1  0.15222063  0.64308900  0.25473190  1.0
  Hf  Hf128  1  0.15222063  0.97642233  0.25473190  1.0
  Hf  Hf129  1  0.48555397  0.30975567  0.25473190  1.0
  Hf  Hf130  1  0.48555397  0.64308900  0.25473190  1.0
  Hf  Hf131  1  0.48555397  0.97642233  0.25473190  1.0
  Hf  Hf132  1  0.81888730  0.30975567  0.25473190  1.0
  Hf  Hf133  1  0.81888730  0.64308900  0.25473190  1.0
  Hf  Hf134  1  0.81888730  0.97642233  0.25473190  1.0
  Hf  Hf135  1  0.01888730  0.14308900  0.35473190  1.0
  Hf  Hf136  1  0.01888730  0.47642233  0.35473190  1.0
  Hf  Hf137  1  0.01888730  0.80975567  0.35473190  1.0
  Hf  Hf138  1  0.35222063  0.14308900  0.35473190  1.0
  Hf  Hf139  1  0.35222063  0.47642233  0.35473190  1.0
  Hf  Hf140  1  0.35222063  0.80975567  0.35473190  1.0
  Hf  Hf141  1  0.68555397  0.14308900  0.35473190  1.0
  Hf  Hf142  1  0.68555397  0.47642233  0.35473190  1.0
  Hf  Hf143  1  0.68555397  0.80975567  0.35473190  1.0
  Hf  Hf144  1  0.30149110  0.03889400  0.24309630  1.0
  Hf  Hf145  1  0.30149110  0.37222733  0.24309630  1.0
  Hf  Hf146  1  0.30149110  0.70556067  0.24309630  1.0
  Hf  Hf147  1  0.63482443  0.03889400  0.24309630  1.0
  Hf  Hf148  1  0.63482443  0.37222733  0.24309630  1.0
  Hf  Hf149  1  0.63482443  0.70556067  0.24309630  1.0
  Hf  Hf150  1  0.96815777  0.03889400  0.24309630  1.0
  Hf  Hf151  1  0.96815777  0.37222733  0.24309630  1.0
  Hf  Hf152  1  0.96815777  0.70556067  0.24309630  1.0
  Hf  Hf153  1  0.16815777  0.20556067  0.34309630  1.0
  Hf  Hf154  1  0.16815777  0.53889400  0.34309630  1.0
  Hf  Hf155  1  0.16815777  0.87222733  0.34309630  1.0
  Hf  Hf156  1  0.50149110  0.20556067  0.34309630  1.0
  Hf  Hf157  1  0.50149110  0.53889400  0.34309630  1.0
  Hf  Hf158  1  0.50149110  0.87222733  0.34309630  1.0
  Hf  Hf159  1  0.83482443  0.20556067  0.34309630  1.0
  Hf  Hf160  1  0.83482443  0.53889400  0.34309630  1.0
  Hf  Hf161  1  0.83482443  0.87222733  0.34309630  1.0
  Hf  Hf162  1  0.22863857  0.29443933  0.34729270  1.0
  Hf  Hf163  1  0.22863857  0.62777267  0.34729270  1.0
  Hf  Hf164  1  0.22863857  0.96110600  0.34729270  1.0
  Hf  Hf165  1  0.56197190  0.29443933  0.34729270  1.0
  Hf  Hf166  1  0.56197190  0.62777267  0.34729270  1.0
  Hf  Hf167  1  0.56197190  0.96110600  0.34729270  1.0
  Hf  Hf168  1  0.89530523  0.29443933  0.34729270  1.0
  Hf  Hf169  1  0.89530523  0.62777267  0.34729270  1.0
  Hf  Hf170  1  0.89530523  0.96110600  0.34729270  1.0
  Hf  Hf171  1  0.02863857  0.12777267  0.24729270  1.0
  Hf  Hf172  1  0.02863857  0.46110600  0.24729270  1.0
  Hf  Hf173  1  0.02863857  0.79443933  0.24729270  1.0
  Hf  Hf174  1  0.36197190  0.12777267  0.24729270  1.0
  Hf  Hf175  1  0.36197190  0.46110600  0.24729270  1.0
  Hf  Hf176  1  0.36197190  0.79443933  0.24729270  1.0
  Hf  Hf177  1  0.69530523  0.12777267  0.24729270  1.0
  Hf  Hf178  1  0.69530523  0.46110600  0.24729270  1.0
  Hf  Hf179  1  0.69530523  0.79443933  0.24729270  1.0
  Hf  Hf180  1  0.00108603  0.27506250  0.20374260  1.0
  Hf  Hf181  1  0.00108603  0.60839583  0.20374260  1.0
  Hf  Hf182  1  0.00108603  0.94172917  0.20374260  1.0
  Hf  Hf183  1  0.33441937  0.27506250  0.20374260  1.0
  Hf  Hf184  1  0.33441937  0.60839583  0.20374260  1.0
  Hf  Hf185  1  0.33441937  0.94172917  0.20374260  1.0
  Hf  Hf186  1  0.66775270  0.27506250  0.20374260  1.0
  Hf  Hf187  1  0.66775270  0.60839583  0.20374260  1.0
  Hf  Hf188  1  0.66775270  0.94172917  0.20374260  1.0
  Hf  Hf189  1  0.20108603  0.10839583  0.30374260  1.0
  Hf  Hf190  1  0.20108603  0.44172917  0.30374260  1.0
  Hf  Hf191  1  0.20108603  0.77506250  0.30374260  1.0
  Hf  Hf192  1  0.53441937  0.10839583  0.30374260  1.0
  Hf  Hf193  1  0.53441937  0.44172917  0.30374260  1.0
  Hf  Hf194  1  0.53441937  0.77506250  0.30374260  1.0
  Hf  Hf195  1  0.86775270  0.10839583  0.30374260  1.0
  Hf  Hf196  1  0.86775270  0.44172917  0.30374260  1.0
  Hf  Hf197  1  0.86775270  0.77506250  0.30374260  1.0
  Hf  Hf198  1  0.19571030  0.05827083  0.38664640  1.0
  Hf  Hf199  1  0.19571030  0.39160417  0.38664640  1.0
  Hf  Hf200  1  0.19571030  0.72493750  0.38664640  1.0
  Hf  Hf201  1  0.52904363  0.05827083  0.38664640  1.0
  Hf  Hf202  1  0.52904363  0.39160417  0.38664640  1.0
  Hf  Hf203  1  0.52904363  0.72493750  0.38664640  1.0
  Hf  Hf204  1  0.86237697  0.05827083  0.38664640  1.0
  Hf  Hf205  1  0.86237697  0.39160417  0.38664640  1.0
  Hf  Hf206  1  0.86237697  0.72493750  0.38664640  1.0
  Hf  Hf207  1  0.32904363  0.22493750  0.28664640  1.0
  Hf  Hf208  1  0.32904363  0.55827083  0.28664640  1.0
  Hf  Hf209  1  0.32904363  0.89160417  0.28664640  1.0
  Hf  Hf210  1  0.66237697  0.22493750  0.28664640  1.0
  Hf  Hf211  1  0.66237697  0.55827083  0.28664640  1.0
  Hf  Hf212  1  0.66237697  0.89160417  0.28664640  1.0
  Hf  Hf213  1  0.99571030  0.22493750  0.28664640  1.0
  Hf  Hf214  1  0.99571030  0.55827083  0.28664640  1.0
  Hf  Hf215  1  0.99571030  0.89160417  0.28664640  1.0
  Ni  Ni216  1  0.23173150  0.00000000  0.19519450  1.0
  Ni  Ni217  1  0.23173150  0.33333333  0.19519450  1.0
  Ni  Ni218  1  0.23173150  0.66666667  0.19519450  1.0
  Ni  Ni219  1  0.56506483  0.00000000  0.19519450  1.0
  Ni  Ni220  1  0.56506483  0.33333333  0.19519450  1.0
  Ni  Ni221  1  0.56506483  0.66666667  0.19519450  1.0
  Ni  Ni222  1  0.89839817  0.00000000  0.19519450  1.0
  Ni  Ni223  1  0.89839817  0.33333333  0.19519450  1.0
  Ni  Ni224  1  0.89839817  0.66666667  0.19519450  1.0
  Ni  Ni225  1  0.03173150  0.16666667  0.09519450  1.0
  Ni  Ni226  1  0.03173150  0.50000000  0.09519450  1.0
  Ni  Ni227  1  0.03173150  0.83333333  0.09519450  1.0
  Ni  Ni228  1  0.36506483  0.16666667  0.09519450  1.0
  Ni  Ni229  1  0.36506483  0.50000000  0.09519450  1.0
  Ni  Ni230  1  0.36506483  0.83333333  0.09519450  1.0
  Ni  Ni231  1  0.69839817  0.16666667  0.09519450  1.0
  Ni  Ni232  1  0.69839817  0.50000000  0.09519450  1.0
  Ni  Ni233  1  0.69839817  0.83333333  0.09519450  1.0
  Ni  Ni234  1  0.06506483  0.33333333  0.19519450  1.0
  Ni  Ni235  1  0.06506483  0.66666667  0.19519450  1.0
  Ni  Ni236  1  0.06506483  0.00000000  0.19519450  1.0
  Ni  Ni237  1  0.39839817  0.33333333  0.19519450  1.0
  Ni  Ni238  1  0.39839817  0.66666667  0.19519450  1.0
  Ni  Ni239  1  0.39839817  0.00000000  0.19519450  1.0
  Ni  Ni240  1  0.73173150  0.33333333  0.19519450  1.0
  Ni  Ni241  1  0.73173150  0.66666667  0.19519450  1.0
  Ni  Ni242  1  0.73173150  0.00000000  0.19519450  1.0
  Ni  Ni243  1  0.19839817  0.16666667  0.09519450  1.0
  Ni  Ni244  1  0.19839817  0.50000000  0.09519450  1.0
  Ni  Ni245  1  0.19839817  0.83333333  0.09519450  1.0
  Ni  Ni246  1  0.53173150  0.16666667  0.09519450  1.0
  Ni  Ni247  1  0.53173150  0.50000000  0.09519450  1.0
  Ni  Ni248  1  0.53173150  0.83333333  0.09519450  1.0
  Ni  Ni249  1  0.86506483  0.16666667  0.09519450  1.0
  Ni  Ni250  1  0.86506483  0.50000000  0.09519450  1.0
  Ni  Ni251  1  0.86506483  0.83333333  0.09519450  1.0
  Ni  Ni252  1  0.08692970  0.02528950  0.12160260  1.0
  Ni  Ni253  1  0.08692970  0.35862283  0.12160260  1.0
  Ni  Ni254  1  0.08692970  0.69195617  0.12160260  1.0
  Ni  Ni255  1  0.42026303  0.02528950  0.12160260  1.0
  Ni  Ni256  1  0.42026303  0.35862283  0.12160260  1.0
  Ni  Ni257  1  0.42026303  0.69195617  0.12160260  1.0
  Ni  Ni258  1  0.75359637  0.02528950  0.12160260  1.0
  Ni  Ni259  1  0.75359637  0.35862283  0.12160260  1.0
  Ni  Ni260  1  0.75359637  0.69195617  0.12160260  1.0
  Ni  Ni261  1  0.22026303  0.19195617  0.02160260  1.0
  Ni  Ni262  1  0.22026303  0.52528950  0.02160260  1.0
  Ni  Ni263  1  0.22026303  0.85862283  0.02160260  1.0
  Ni  Ni264  1  0.55359637  0.19195617  0.02160260  1.0
  Ni  Ni265  1  0.55359637  0.52528950  0.02160260  1.0
  Ni  Ni266  1  0.55359637  0.85862283  0.02160260  1.0
  Ni  Ni267  1  0.88692970  0.19195617  0.02160260  1.0
  Ni  Ni268  1  0.88692970  0.52528950  0.02160260  1.0
  Ni  Ni269  1  0.88692970  0.85862283  0.02160260  1.0
  Ni  Ni270  1  0.30986663  0.30804383  0.06878640  1.0
  Ni  Ni271  1  0.30986663  0.64137717  0.06878640  1.0
  Ni  Ni272  1  0.30986663  0.97471050  0.06878640  1.0
  Ni  Ni273  1  0.64319997  0.30804383  0.06878640  1.0
  Ni  Ni274  1  0.64319997  0.64137717  0.06878640  1.0
  Ni  Ni275  1  0.64319997  0.97471050  0.06878640  1.0
  Ni  Ni276  1  0.97653330  0.30804383  0.06878640  1.0
  Ni  Ni277  1  0.97653330  0.64137717  0.06878640  1.0
  Ni  Ni278  1  0.97653330  0.97471050  0.06878640  1.0
  Ni  Ni279  1  0.17653330  0.14137717  0.16878640  1.0
  Ni  Ni280  1  0.17653330  0.47471050  0.16878640  1.0
  Ni  Ni281  1  0.17653330  0.80804383  0.16878640  1.0
  Ni  Ni282  1  0.50986663  0.14137717  0.16878640  1.0
  Ni  Ni283  1  0.50986663  0.47471050  0.16878640  1.0
  Ni  Ni284  1  0.50986663  0.80804383  0.16878640  1.0
  Ni  Ni285  1  0.84319997  0.14137717  0.16878640  1.0
  Ni  Ni286  1  0.84319997  0.47471050  0.16878640  1.0
  Ni  Ni287  1  0.84319997  0.80804383  0.16878640  1.0
  Ni  Ni288  1  0.12392997  0.04678850  0.05541440  1.0
  Ni  Ni289  1  0.12392997  0.38012183  0.05541440  1.0
  Ni  Ni290  1  0.12392997  0.71345517  0.05541440  1.0
  Ni  Ni291  1  0.45726330  0.04678850  0.05541440  1.0
  Ni  Ni292  1  0.45726330  0.38012183  0.05541440  1.0
  Ni  Ni293  1  0.45726330  0.71345517  0.05541440  1.0
  Ni  Ni294  1  0.79059663  0.04678850  0.05541440  1.0
  Ni  Ni295  1  0.79059663  0.38012183  0.05541440  1.0
  Ni  Ni296  1  0.79059663  0.71345517  0.05541440  1.0
  Ni  Ni297  1  0.32392997  0.21345517  0.15541440  1.0
  Ni  Ni298  1  0.32392997  0.54678850  0.15541440  1.0
  Ni  Ni299  1  0.32392997  0.88012183  0.15541440  1.0
  Ni  Ni300  1  0.65726330  0.21345517  0.15541440  1.0
  Ni  Ni301  1  0.65726330  0.54678850  0.15541440  1.0
  Ni  Ni302  1  0.65726330  0.88012183  0.15541440  1.0
  Ni  Ni303  1  0.99059663  0.21345517  0.15541440  1.0
  Ni  Ni304  1  0.99059663  0.54678850  0.15541440  1.0
  Ni  Ni305  1  0.99059663  0.88012183  0.15541440  1.0
  Ni  Ni306  1  0.27286637  0.28654483  0.13497460  1.0
  Ni  Ni307  1  0.27286637  0.61987817  0.13497460  1.0
  Ni  Ni308  1  0.27286637  0.95321150  0.13497460  1.0
  Ni  Ni309  1  0.60619970  0.28654483  0.13497460  1.0
  Ni  Ni310  1  0.60619970  0.61987817  0.13497460  1.0
  Ni  Ni311  1  0.60619970  0.95321150  0.13497460  1.0
  Ni  Ni312  1  0.93953303  0.28654483  0.13497460  1.0
  Ni  Ni313  1  0.93953303  0.61987817  0.13497460  1.0
  Ni  Ni314  1  0.93953303  0.95321150  0.13497460  1.0
  Ni  Ni315  1  0.07286637  0.11987817  0.03497460  1.0
  Ni  Ni316  1  0.07286637  0.45321150  0.03497460  1.0
  Ni  Ni317  1  0.07286637  0.78654483  0.03497460  1.0
  Ni  Ni318  1  0.40619970  0.11987817  0.03497460  1.0
  Ni  Ni319  1  0.40619970  0.45321150  0.03497460  1.0
  Ni  Ni320  1  0.40619970  0.78654483  0.03497460  1.0
  Ni  Ni321  1  0.73953303  0.11987817  0.03497460  1.0
  Ni  Ni322  1  0.73953303  0.45321150  0.03497460  1.0
  Ni  Ni323  1  0.73953303  0.78654483  0.03497460  1.0
  Ni  Ni324  1  0.23273690  0.07245633  0.18077170  1.0
  Ni  Ni325  1  0.23273690  0.40578967  0.18077170  1.0
  Ni  Ni326  1  0.23273690  0.73912300  0.18077170  1.0
  Ni  Ni327  1  0.56607023  0.07245633  0.18077170  1.0
  Ni  Ni328  1  0.56607023  0.40578967  0.18077170  1.0
  Ni  Ni329  1  0.56607023  0.73912300  0.18077170  1.0
  Ni  Ni330  1  0.89940357  0.07245633  0.18077170  1.0
  Ni  Ni331  1  0.89940357  0.40578967  0.18077170  1.0
  Ni  Ni332  1  0.89940357  0.73912300  0.18077170  1.0
  Ni  Ni333  1  0.03273690  0.23912300  0.08077170  1.0
  Ni  Ni334  1  0.03273690  0.57245633  0.08077170  1.0
  Ni  Ni335  1  0.03273690  0.90578967  0.08077170  1.0
  Ni  Ni336  1  0.36607023  0.23912300  0.08077170  1.0
  Ni  Ni337  1  0.36607023  0.57245633  0.08077170  1.0
  Ni  Ni338  1  0.36607023  0.90578967  0.08077170  1.0
  Ni  Ni339  1  0.69940357  0.23912300  0.08077170  1.0
  Ni  Ni340  1  0.69940357  0.57245633  0.08077170  1.0
  Ni  Ni341  1  0.69940357  0.90578967  0.08077170  1.0
  Ni  Ni342  1  0.16405943  0.26087700  0.00961730  1.0
  Ni  Ni343  1  0.16405943  0.59421033  0.00961730  1.0
  Ni  Ni344  1  0.16405943  0.92754367  0.00961730  1.0
  Ni  Ni345  1  0.49739277  0.26087700  0.00961730  1.0
  Ni  Ni346  1  0.49739277  0.59421033  0.00961730  1.0
  Ni  Ni347  1  0.49739277  0.92754367  0.00961730  1.0
  Ni  Ni348  1  0.83072610  0.26087700  0.00961730  1.0
  Ni  Ni349  1  0.83072610  0.59421033  0.00961730  1.0
  Ni  Ni350  1  0.83072610  0.92754367  0.00961730  1.0
  Ni  Ni351  1  0.03072610  0.09421033  0.10961730  1.0
  Ni  Ni352  1  0.03072610  0.42754367  0.10961730  1.0
  Ni  Ni353  1  0.03072610  0.76087700  0.10961730  1.0
  Ni  Ni354  1  0.36405943  0.09421033  0.10961730  1.0
  Ni  Ni355  1  0.36405943  0.42754367  0.10961730  1.0
  Ni  Ni356  1  0.36405943  0.76087700  0.10961730  1.0
  Ni  Ni357  1  0.69739277  0.09421033  0.10961730  1.0
  Ni  Ni358  1  0.69739277  0.42754367  0.10961730  1.0
  Ni  Ni359  1  0.69739277  0.76087700  0.10961730  1.0
  Ni  Ni360  1  0.24583583  0.09111200  0.10480550  1.0
  Ni  Ni361  1  0.24583583  0.42444533  0.10480550  1.0
  Ni  Ni362  1  0.24583583  0.75777867  0.10480550  1.0
  Ni  Ni363  1  0.57916917  0.09111200  0.10480550  1.0
  Ni  Ni364  1  0.57916917  0.42444533  0.10480550  1.0
  Ni  Ni365  1  0.57916917  0.75777867  0.10480550  1.0
  Ni  Ni366  1  0.91250250  0.09111200  0.10480550  1.0
  Ni  Ni367  1  0.91250250  0.42444533  0.10480550  1.0
  Ni  Ni368  1  0.91250250  0.75777867  0.10480550  1.0
  Ni  Ni369  1  0.04583583  0.25777867  0.00480550  1.0
  Ni  Ni370  1  0.04583583  0.59111200  0.00480550  1.0
  Ni  Ni371  1  0.04583583  0.92444533  0.00480550  1.0
  Ni  Ni372  1  0.37916917  0.25777867  0.00480550  1.0
  Ni  Ni373  1  0.37916917  0.59111200  0.00480550  1.0
  Ni  Ni374  1  0.37916917  0.92444533  0.00480550  1.0
  Ni  Ni375  1  0.71250250  0.25777867  0.00480550  1.0
  Ni  Ni376  1  0.71250250  0.59111200  0.00480550  1.0
  Ni  Ni377  1  0.71250250  0.92444533  0.00480550  1.0
  Ni  Ni378  1  0.15096050  0.24222133  0.08558350  1.0
  Ni  Ni379  1  0.15096050  0.57555467  0.08558350  1.0
  Ni  Ni380  1  0.15096050  0.90888800  0.08558350  1.0
  Ni  Ni381  1  0.48429383  0.24222133  0.08558350  1.0
  Ni  Ni382  1  0.48429383  0.57555467  0.08558350  1.0
  Ni  Ni383  1  0.48429383  0.90888800  0.08558350  1.0
  Ni  Ni384  1  0.81762717  0.24222133  0.08558350  1.0
  Ni  Ni385  1  0.81762717  0.57555467  0.08558350  1.0
  Ni  Ni386  1  0.81762717  0.90888800  0.08558350  1.0
  Ni  Ni387  1  0.01762717  0.07555467  0.18558350  1.0
  Ni  Ni388  1  0.01762717  0.40888800  0.18558350  1.0
  Ni  Ni389  1  0.01762717  0.74222133  0.18558350  1.0
  Ni  Ni390  1  0.35096050  0.07555467  0.18558350  1.0
  Ni  Ni391  1  0.35096050  0.40888800  0.18558350  1.0
  Ni  Ni392  1  0.35096050  0.74222133  0.18558350  1.0
  Ni  Ni393  1  0.68429383  0.07555467  0.18558350  1.0
  Ni  Ni394  1  0.68429383  0.40888800  0.18558350  1.0
  Ni  Ni395  1  0.68429383  0.74222133  0.18558350  1.0
  Ni  Ni396  1  0.19789390  0.02931217  0.12217320  1.0
  Ni  Ni397  1  0.19789390  0.36264550  0.12217320  1.0
  Ni  Ni398  1  0.19789390  0.69597883  0.12217320  1.0
  Ni  Ni399  1  0.53122723  0.02931217  0.12217320  1.0
  Ni  Ni400  1  0.53122723  0.36264550  0.12217320  1.0
  Ni  Ni401  1  0.53122723  0.69597883  0.12217320  1.0
  Ni  Ni402  1  0.86456057  0.02931217  0.12217320  1.0
  Ni  Ni403  1  0.86456057  0.36264550  0.12217320  1.0
  Ni  Ni404  1  0.86456057  0.69597883  0.12217320  1.0
  Ni  Ni405  1  0.33122723  0.19597883  0.02217320  1.0
  Ni  Ni406  1  0.33122723  0.52931217  0.02217320  1.0
  Ni  Ni407  1  0.33122723  0.86264550  0.02217320  1.0
  Ni  Ni408  1  0.66456057  0.19597883  0.02217320  1.0
  Ni  Ni409  1  0.66456057  0.52931217  0.02217320  1.0
  Ni  Ni410  1  0.66456057  0.86264550  0.02217320  1.0
  Ni  Ni411  1  0.99789390  0.19597883  0.02217320  1.0
  Ni  Ni412  1  0.99789390  0.52931217  0.02217320  1.0
  Ni  Ni413  1  0.99789390  0.86264550  0.02217320  1.0
  Ni  Ni414  1  0.19890243  0.30402117  0.06821580  1.0
  Ni  Ni415  1  0.19890243  0.63735450  0.06821580  1.0
  Ni  Ni416  1  0.19890243  0.97068783  0.06821580  1.0
  Ni  Ni417  1  0.53223577  0.30402117  0.06821580  1.0
  Ni  Ni418  1  0.53223577  0.63735450  0.06821580  1.0
  Ni  Ni419  1  0.53223577  0.97068783  0.06821580  1.0
  Ni  Ni420  1  0.86556910  0.30402117  0.06821580  1.0
  Ni  Ni421  1  0.86556910  0.63735450  0.06821580  1.0
  Ni  Ni422  1  0.86556910  0.97068783  0.06821580  1.0
  Ni  Ni423  1  0.06556910  0.13735450  0.16821580  1.0
  Ni  Ni424  1  0.06556910  0.47068783  0.16821580  1.0
  Ni  Ni425  1  0.06556910  0.80402117  0.16821580  1.0
  Ni  Ni426  1  0.39890243  0.13735450  0.16821580  1.0
  Ni  Ni427  1  0.39890243  0.47068783  0.16821580  1.0
  Ni  Ni428  1  0.39890243  0.80402117  0.16821580  1.0
  Ni  Ni429  1  0.73223577  0.13735450  0.16821580  1.0
  Ni  Ni430  1  0.73223577  0.47068783  0.16821580  1.0
  Ni  Ni431  1  0.73223577  0.80402117  0.16821580  1.0
  Ni  Ni432  1  0.20822623  0.21339333  0.15740170  1.0
  Ni  Ni433  1  0.20822623  0.54672667  0.15740170  1.0
  Ni  Ni434  1  0.20822623  0.88006000  0.15740170  1.0
  Ni  Ni435  1  0.54155957  0.21339333  0.15740170  1.0
  Ni  Ni436  1  0.54155957  0.54672667  0.15740170  1.0
  Ni  Ni437  1  0.54155957  0.88006000  0.15740170  1.0
  Ni  Ni438  1  0.87489290  0.21339333  0.15740170  1.0
  Ni  Ni439  1  0.87489290  0.54672667  0.15740170  1.0
  Ni  Ni440  1  0.87489290  0.88006000  0.15740170  1.0
  Ni  Ni441  1  0.00822623  0.04672667  0.05740170  1.0
  Ni  Ni442  1  0.00822623  0.38006000  0.05740170  1.0
  Ni  Ni443  1  0.00822623  0.71339333  0.05740170  1.0
  Ni  Ni444  1  0.34155957  0.04672667  0.05740170  1.0
  Ni  Ni445  1  0.34155957  0.38006000  0.05740170  1.0
  Ni  Ni446  1  0.34155957  0.71339333  0.05740170  1.0
  Ni  Ni447  1  0.67489290  0.04672667  0.05740170  1.0
  Ni  Ni448  1  0.67489290  0.38006000  0.05740170  1.0
  Ni  Ni449  1  0.67489290  0.71339333  0.05740170  1.0
  Ni  Ni450  1  0.18857010  0.11994000  0.03298730  1.0
  Ni  Ni451  1  0.18857010  0.45327333  0.03298730  1.0
  Ni  Ni452  1  0.18857010  0.78660667  0.03298730  1.0
  Ni  Ni453  1  0.52190343  0.11994000  0.03298730  1.0
  Ni  Ni454  1  0.52190343  0.45327333  0.03298730  1.0
  Ni  Ni455  1  0.52190343  0.78660667  0.03298730  1.0
  Ni  Ni456  1  0.85523677  0.11994000  0.03298730  1.0
  Ni  Ni457  1  0.85523677  0.45327333  0.03298730  1.0
  Ni  Ni458  1  0.85523677  0.78660667  0.03298730  1.0
  Ni  Ni459  1  0.05523677  0.28660667  0.13298730  1.0
  Ni  Ni460  1  0.05523677  0.61994000  0.13298730  1.0
  Ni  Ni461  1  0.05523677  0.95327333  0.13298730  1.0
  Ni  Ni462  1  0.38857010  0.28660667  0.13298730  1.0
  Ni  Ni463  1  0.38857010  0.61994000  0.13298730  1.0
  Ni  Ni464  1  0.38857010  0.95327333  0.13298730  1.0
  Ni  Ni465  1  0.72190343  0.28660667  0.13298730  1.0
  Ni  Ni466  1  0.72190343  0.61994000  0.13298730  1.0
  Ni  Ni467  1  0.72190343  0.95327333  0.13298730  1.0
  Ni  Ni468  1  0.29839817  0.33333333  0.39519450  1.0
  Ni  Ni469  1  0.29839817  0.66666667  0.39519450  1.0
  Ni  Ni470  1  0.29839817  0.00000000  0.39519450  1.0
  Ni  Ni471  1  0.63173150  0.33333333  0.39519450  1.0
  Ni  Ni472  1  0.63173150  0.66666667  0.39519450  1.0
  Ni  Ni473  1  0.63173150  0.00000000  0.39519450  1.0
  Ni  Ni474  1  0.96506483  0.33333333  0.39519450  1.0
  Ni  Ni475  1  0.96506483  0.66666667  0.39519450  1.0
  Ni  Ni476  1  0.96506483  0.00000000  0.39519450  1.0
  Ni  Ni477  1  0.09839817  0.16666667  0.29519450  1.0
  Ni  Ni478  1  0.09839817  0.50000000  0.29519450  1.0
  Ni  Ni479  1  0.09839817  0.83333333  0.29519450  1.0
  Ni  Ni480  1  0.43173150  0.16666667  0.29519450  1.0
  Ni  Ni481  1  0.43173150  0.50000000  0.29519450  1.0
  Ni  Ni482  1  0.43173150  0.83333333  0.29519450  1.0
  Ni  Ni483  1  0.76506483  0.16666667  0.29519450  1.0
  Ni  Ni484  1  0.76506483  0.50000000  0.29519450  1.0
  Ni  Ni485  1  0.76506483  0.83333333  0.29519450  1.0
  Ni  Ni486  1  0.13173150  0.33333333  0.39519450  1.0
  Ni  Ni487  1  0.13173150  0.66666667  0.39519450  1.0
  Ni  Ni488  1  0.13173150  1.00000000  0.39519450  1.0
  Ni  Ni489  1  0.46506483  0.33333333  0.39519450  1.0
  Ni  Ni490  1  0.46506483  0.66666667  0.39519450  1.0
  Ni  Ni491  1  0.46506483  1.00000000  0.39519450  1.0
  Ni  Ni492  1  0.79839817  0.33333333  0.39519450  1.0
  Ni  Ni493  1  0.79839817  0.66666667  0.39519450  1.0
  Ni  Ni494  1  0.79839817  1.00000000  0.39519450  1.0
  Ni  Ni495  1  0.26506483  0.16666667  0.29519450  1.0
  Ni  Ni496  1  0.26506483  0.50000000  0.29519450  1.0
  Ni  Ni497  1  0.26506483  0.83333333  0.29519450  1.0
  Ni  Ni498  1  0.59839817  0.16666667  0.29519450  1.0
  Ni  Ni499  1  0.59839817  0.50000000  0.29519450  1.0
  Ni  Ni500  1  0.59839817  0.83333333  0.29519450  1.0
  Ni  Ni501  1  0.93173150  0.16666667  0.29519450  1.0
  Ni  Ni502  1  0.93173150  0.50000000  0.29519450  1.0
  Ni  Ni503  1  0.93173150  0.83333333  0.29519450  1.0
  Ni  Ni504  1  0.15359637  0.02528950  0.32160260  1.0
  Ni  Ni505  1  0.15359637  0.35862283  0.32160260  1.0
  Ni  Ni506  1  0.15359637  0.69195617  0.32160260  1.0
  Ni  Ni507  1  0.48692970  0.02528950  0.32160260  1.0
  Ni  Ni508  1  0.48692970  0.35862283  0.32160260  1.0
  Ni  Ni509  1  0.48692970  0.69195617  0.32160260  1.0
  Ni  Ni510  1  0.82026303  0.02528950  0.32160260  1.0
  Ni  Ni511  1  0.82026303  0.35862283  0.32160260  1.0
  Ni  Ni512  1  0.82026303  0.69195617  0.32160260  1.0
  Ni  Ni513  1  0.28692970  0.19195617  0.22160260  1.0
  Ni  Ni514  1  0.28692970  0.52528950  0.22160260  1.0
  Ni  Ni515  1  0.28692970  0.85862283  0.22160260  1.0
  Ni  Ni516  1  0.62026303  0.19195617  0.22160260  1.0
  Ni  Ni517  1  0.62026303  0.52528950  0.22160260  1.0
  Ni  Ni518  1  0.62026303  0.85862283  0.22160260  1.0
  Ni  Ni519  1  0.95359637  0.19195617  0.22160260  1.0
  Ni  Ni520  1  0.95359637  0.52528950  0.22160260  1.0
  Ni  Ni521  1  0.95359637  0.85862283  0.22160260  1.0
  Ni  Ni522  1  0.04319997  0.30804383  0.26878640  1.0
  Ni  Ni523  1  0.04319997  0.64137717  0.26878640  1.0
  Ni  Ni524  1  0.04319997  0.97471050  0.26878640  1.0
  Ni  Ni525  1  0.37653330  0.30804383  0.26878640  1.0
  Ni  Ni526  1  0.37653330  0.64137717  0.26878640  1.0
  Ni  Ni527  1  0.37653330  0.97471050  0.26878640  1.0
  Ni  Ni528  1  0.70986663  0.30804383  0.26878640  1.0
  Ni  Ni529  1  0.70986663  0.64137717  0.26878640  1.0
  Ni  Ni530  1  0.70986663  0.97471050  0.26878640  1.0
  Ni  Ni531  1  0.24319997  0.14137717  0.36878640  1.0
  Ni  Ni532  1  0.24319997  0.47471050  0.36878640  1.0
  Ni  Ni533  1  0.24319997  0.80804383  0.36878640  1.0
  Ni  Ni534  1  0.57653330  0.14137717  0.36878640  1.0
  Ni  Ni535  1  0.57653330  0.47471050  0.36878640  1.0
  Ni  Ni536  1  0.57653330  0.80804383  0.36878640  1.0
  Ni  Ni537  1  0.90986663  0.14137717  0.36878640  1.0
  Ni  Ni538  1  0.90986663  0.47471050  0.36878640  1.0
  Ni  Ni539  1  0.90986663  0.80804383  0.36878640  1.0
  Ni  Ni540  1  0.19059663  0.04678850  0.25541440  1.0
  Ni  Ni541  1  0.19059663  0.38012183  0.25541440  1.0
  Ni  Ni542  1  0.19059663  0.71345517  0.25541440  1.0
  Ni  Ni543  1  0.52392997  0.04678850  0.25541440  1.0
  Ni  Ni544  1  0.52392997  0.38012183  0.25541440  1.0
  Ni  Ni545  1  0.52392997  0.71345517  0.25541440  1.0
  Ni  Ni546  1  0.85726330  0.04678850  0.25541440  1.0
  Ni  Ni547  1  0.85726330  0.38012183  0.25541440  1.0
  Ni  Ni548  1  0.85726330  0.71345517  0.25541440  1.0
  Ni  Ni549  1  0.05726330  0.21345517  0.35541440  1.0
  Ni  Ni550  1  0.05726330  0.54678850  0.35541440  1.0
  Ni  Ni551  1  0.05726330  0.88012183  0.35541440  1.0
  Ni  Ni552  1  0.39059663  0.21345517  0.35541440  1.0
  Ni  Ni553  1  0.39059663  0.54678850  0.35541440  1.0
  Ni  Ni554  1  0.39059663  0.88012183  0.35541440  1.0
  Ni  Ni555  1  0.72392997  0.21345517  0.35541440  1.0
  Ni  Ni556  1  0.72392997  0.54678850  0.35541440  1.0
  Ni  Ni557  1  0.72392997  0.88012183  0.35541440  1.0
  Ni  Ni558  1  0.00619970  0.28654483  0.33497460  1.0
  Ni  Ni559  1  0.00619970  0.61987817  0.33497460  1.0
  Ni  Ni560  1  0.00619970  0.95321150  0.33497460  1.0
  Ni  Ni561  1  0.33953303  0.28654483  0.33497460  1.0
  Ni  Ni562  1  0.33953303  0.61987817  0.33497460  1.0
  Ni  Ni563  1  0.33953303  0.95321150  0.33497460  1.0
  Ni  Ni564  1  0.67286637  0.28654483  0.33497460  1.0
  Ni  Ni565  1  0.67286637  0.61987817  0.33497460  1.0
  Ni  Ni566  1  0.67286637  0.95321150  0.33497460  1.0
  Ni  Ni567  1  0.13953303  0.11987817  0.23497460  1.0
  Ni  Ni568  1  0.13953303  0.45321150  0.23497460  1.0
  Ni  Ni569  1  0.13953303  0.78654483  0.23497460  1.0
  Ni  Ni570  1  0.47286637  0.11987817  0.23497460  1.0
  Ni  Ni571  1  0.47286637  0.45321150  0.23497460  1.0
  Ni  Ni572  1  0.47286637  0.78654483  0.23497460  1.0
  Ni  Ni573  1  0.80619970  0.11987817  0.23497460  1.0
  Ni  Ni574  1  0.80619970  0.45321150  0.23497460  1.0
  Ni  Ni575  1  0.80619970  0.78654483  0.23497460  1.0
  Ni  Ni576  1  0.29940357  0.07245633  0.38077170  1.0
  Ni  Ni577  1  0.29940357  0.40578967  0.38077170  1.0
  Ni  Ni578  1  0.29940357  0.73912300  0.38077170  1.0
  Ni  Ni579  1  0.63273690  0.07245633  0.38077170  1.0
  Ni  Ni580  1  0.63273690  0.40578967  0.38077170  1.0
  Ni  Ni581  1  0.63273690  0.73912300  0.38077170  1.0
  Ni  Ni582  1  0.96607023  0.07245633  0.38077170  1.0
  Ni  Ni583  1  0.96607023  0.40578967  0.38077170  1.0
  Ni  Ni584  1  0.96607023  0.73912300  0.38077170  1.0
  Ni  Ni585  1  0.09940357  0.23912300  0.28077170  1.0
  Ni  Ni586  1  0.09940357  0.57245633  0.28077170  1.0
  Ni  Ni587  1  0.09940357  0.90578967  0.28077170  1.0
  Ni  Ni588  1  0.43273690  0.23912300  0.28077170  1.0
  Ni  Ni589  1  0.43273690  0.57245633  0.28077170  1.0
  Ni  Ni590  1  0.43273690  0.90578967  0.28077170  1.0
  Ni  Ni591  1  0.76607023  0.23912300  0.28077170  1.0
  Ni  Ni592  1  0.76607023  0.57245633  0.28077170  1.0
  Ni  Ni593  1  0.76607023  0.90578967  0.28077170  1.0
  Ni  Ni594  1  0.23072610  0.26087700  0.20961730  1.0
  Ni  Ni595  1  0.23072610  0.59421033  0.20961730  1.0
  Ni  Ni596  1  0.23072610  0.92754367  0.20961730  1.0
  Ni  Ni597  1  0.56405943  0.26087700  0.20961730  1.0
  Ni  Ni598  1  0.56405943  0.59421033  0.20961730  1.0
  Ni  Ni599  1  0.56405943  0.92754367  0.20961730  1.0
  Ni  Ni600  1  0.89739277  0.26087700  0.20961730  1.0
  Ni  Ni601  1  0.89739277  0.59421033  0.20961730  1.0
  Ni  Ni602  1  0.89739277  0.92754367  0.20961730  1.0
  Ni  Ni603  1  0.09739277  0.09421033  0.30961730  1.0
  Ni  Ni604  1  0.09739277  0.42754367  0.30961730  1.0
  Ni  Ni605  1  0.09739277  0.76087700  0.30961730  1.0
  Ni  Ni606  1  0.43072610  0.09421033  0.30961730  1.0
  Ni  Ni607  1  0.43072610  0.42754367  0.30961730  1.0
  Ni  Ni608  1  0.43072610  0.76087700  0.30961730  1.0
  Ni  Ni609  1  0.76405943  0.09421033  0.30961730  1.0
  Ni  Ni610  1  0.76405943  0.42754367  0.30961730  1.0
  Ni  Ni611  1  0.76405943  0.76087700  0.30961730  1.0
  Ni  Ni612  1  0.31250250  0.09111200  0.30480550  1.0
  Ni  Ni613  1  0.31250250  0.42444533  0.30480550  1.0
  Ni  Ni614  1  0.31250250  0.75777867  0.30480550  1.0
  Ni  Ni615  1  0.64583583  0.09111200  0.30480550  1.0
  Ni  Ni616  1  0.64583583  0.42444533  0.30480550  1.0
  Ni  Ni617  1  0.64583583  0.75777867  0.30480550  1.0
  Ni  Ni618  1  0.97916917  0.09111200  0.30480550  1.0
  Ni  Ni619  1  0.97916917  0.42444533  0.30480550  1.0
  Ni  Ni620  1  0.97916917  0.75777867  0.30480550  1.0
  Ni  Ni621  1  0.11250250  0.25777867  0.20480550  1.0
  Ni  Ni622  1  0.11250250  0.59111200  0.20480550  1.0
  Ni  Ni623  1  0.11250250  0.92444533  0.20480550  1.0
  Ni  Ni624  1  0.44583583  0.25777867  0.20480550  1.0
  Ni  Ni625  1  0.44583583  0.59111200  0.20480550  1.0
  Ni  Ni626  1  0.44583583  0.92444533  0.20480550  1.0
  Ni  Ni627  1  0.77916917  0.25777867  0.20480550  1.0
  Ni  Ni628  1  0.77916917  0.59111200  0.20480550  1.0
  Ni  Ni629  1  0.77916917  0.92444533  0.20480550  1.0
  Ni  Ni630  1  0.21762717  0.24222133  0.28558350  1.0
  Ni  Ni631  1  0.21762717  0.57555467  0.28558350  1.0
  Ni  Ni632  1  0.21762717  0.90888800  0.28558350  1.0
  Ni  Ni633  1  0.55096050  0.24222133  0.28558350  1.0
  Ni  Ni634  1  0.55096050  0.57555467  0.28558350  1.0
  Ni  Ni635  1  0.55096050  0.90888800  0.28558350  1.0
  Ni  Ni636  1  0.88429383  0.24222133  0.28558350  1.0
  Ni  Ni637  1  0.88429383  0.57555467  0.28558350  1.0
  Ni  Ni638  1  0.88429383  0.90888800  0.28558350  1.0
  Ni  Ni639  1  0.08429383  0.07555467  0.38558350  1.0
  Ni  Ni640  1  0.08429383  0.40888800  0.38558350  1.0
  Ni  Ni641  1  0.08429383  0.74222133  0.38558350  1.0
  Ni  Ni642  1  0.41762717  0.07555467  0.38558350  1.0
  Ni  Ni643  1  0.41762717  0.40888800  0.38558350  1.0
  Ni  Ni644  1  0.41762717  0.74222133  0.38558350  1.0
  Ni  Ni645  1  0.75096050  0.07555467  0.38558350  1.0
  Ni  Ni646  1  0.75096050  0.40888800  0.38558350  1.0
  Ni  Ni647  1  0.75096050  0.74222133  0.38558350  1.0
  Ni  Ni648  1  0.26456057  0.02931217  0.32217320  1.0
  Ni  Ni649  1  0.26456057  0.36264550  0.32217320  1.0
  Ni  Ni650  1  0.26456057  0.69597883  0.32217320  1.0
  Ni  Ni651  1  0.59789390  0.02931217  0.32217320  1.0
  Ni  Ni652  1  0.59789390  0.36264550  0.32217320  1.0
  Ni  Ni653  1  0.59789390  0.69597883  0.32217320  1.0
  Ni  Ni654  1  0.93122723  0.02931217  0.32217320  1.0
  Ni  Ni655  1  0.93122723  0.36264550  0.32217320  1.0
  Ni  Ni656  1  0.93122723  0.69597883  0.32217320  1.0
  Ni  Ni657  1  0.06456057  0.19597883  0.22217320  1.0
  Ni  Ni658  1  0.06456057  0.52931217  0.22217320  1.0
  Ni  Ni659  1  0.06456057  0.86264550  0.22217320  1.0
  Ni  Ni660  1  0.39789390  0.19597883  0.22217320  1.0
  Ni  Ni661  1  0.39789390  0.52931217  0.22217320  1.0
  Ni  Ni662  1  0.39789390  0.86264550  0.22217320  1.0
  Ni  Ni663  1  0.73122723  0.19597883  0.22217320  1.0
  Ni  Ni664  1  0.73122723  0.52931217  0.22217320  1.0
  Ni  Ni665  1  0.73122723  0.86264550  0.22217320  1.0
  Ni  Ni666  1  0.26556910  0.30402117  0.26821580  1.0
  Ni  Ni667  1  0.26556910  0.63735450  0.26821580  1.0
  Ni  Ni668  1  0.26556910  0.97068783  0.26821580  1.0
  Ni  Ni669  1  0.59890243  0.30402117  0.26821580  1.0
  Ni  Ni670  1  0.59890243  0.63735450  0.26821580  1.0
  Ni  Ni671  1  0.59890243  0.97068783  0.26821580  1.0
  Ni  Ni672  1  0.93223577  0.30402117  0.26821580  1.0
  Ni  Ni673  1  0.93223577  0.63735450  0.26821580  1.0
  Ni  Ni674  1  0.93223577  0.97068783  0.26821580  1.0
  Ni  Ni675  1  0.13223577  0.13735450  0.36821580  1.0
  Ni  Ni676  1  0.13223577  0.47068783  0.36821580  1.0
  Ni  Ni677  1  0.13223577  0.80402117  0.36821580  1.0
  Ni  Ni678  1  0.46556910  0.13735450  0.36821580  1.0
  Ni  Ni679  1  0.46556910  0.47068783  0.36821580  1.0
  Ni  Ni680  1  0.46556910  0.80402117  0.36821580  1.0
  Ni  Ni681  1  0.79890243  0.13735450  0.36821580  1.0
  Ni  Ni682  1  0.79890243  0.47068783  0.36821580  1.0
  Ni  Ni683  1  0.79890243  0.80402117  0.36821580  1.0
  Ni  Ni684  1  0.27489290  0.21339333  0.35740170  1.0
  Ni  Ni685  1  0.27489290  0.54672667  0.35740170  1.0
  Ni  Ni686  1  0.27489290  0.88006000  0.35740170  1.0
  Ni  Ni687  1  0.60822623  0.21339333  0.35740170  1.0
  Ni  Ni688  1  0.60822623  0.54672667  0.35740170  1.0
  Ni  Ni689  1  0.60822623  0.88006000  0.35740170  1.0
  Ni  Ni690  1  0.94155957  0.21339333  0.35740170  1.0
  Ni  Ni691  1  0.94155957  0.54672667  0.35740170  1.0
  Ni  Ni692  1  0.94155957  0.88006000  0.35740170  1.0
  Ni  Ni693  1  0.07489290  0.04672667  0.25740170  1.0
  Ni  Ni694  1  0.07489290  0.38006000  0.25740170  1.0
  Ni  Ni695  1  0.07489290  0.71339333  0.25740170  1.0
  Ni  Ni696  1  0.40822623  0.04672667  0.25740170  1.0
  Ni  Ni697  1  0.40822623  0.38006000  0.25740170  1.0
  Ni  Ni698  1  0.40822623  0.71339333  0.25740170  1.0
  Ni  Ni699  1  0.74155957  0.04672667  0.25740170  1.0
  Ni  Ni700  1  0.74155957  0.38006000  0.25740170  1.0
  Ni  Ni701  1  0.74155957  0.71339333  0.25740170  1.0
  Ni  Ni702  1  0.25523677  0.11994000  0.23298730  1.0
  Ni  Ni703  1  0.25523677  0.45327333  0.23298730  1.0
  Ni  Ni704  1  0.25523677  0.78660667  0.23298730  1.0
  Ni  Ni705  1  0.58857010  0.11994000  0.23298730  1.0
  Ni  Ni706  1  0.58857010  0.45327333  0.23298730  1.0
  Ni  Ni707  1  0.58857010  0.78660667  0.23298730  1.0
  Ni  Ni708  1  0.92190343  0.11994000  0.23298730  1.0
  Ni  Ni709  1  0.92190343  0.45327333  0.23298730  1.0
  Ni  Ni710  1  0.92190343  0.78660667  0.23298730  1.0
  Ni  Ni711  1  0.12190343  0.28660667  0.33298730  1.0
  Ni  Ni712  1  0.12190343  0.61994000  0.33298730  1.0
  Ni  Ni713  1  0.12190343  0.95327333  0.33298730  1.0
  Ni  Ni714  1  0.45523677  0.28660667  0.33298730  1.0
  Ni  Ni715  1  0.45523677  0.61994000  0.33298730  1.0
  Ni  Ni716  1  0.45523677  0.95327333  0.33298730  1.0
  Ni  Ni717  1  0.78857010  0.28660667  0.33298730  1.0
  Ni  Ni718  1  0.78857010  0.61994000  0.33298730  1.0
  Ni  Ni719  1  0.78857010  0.95327333  0.33298730  1.0
