# generated using pymatgen
data_Hf3Ni7
_symmetry_space_group_name_H-M   'P 1'
_cell_length_a   26.67047644
_cell_length_b   39.52418917
_cell_length_c   33.03059536
_cell_angle_alpha   96.79197490
_cell_angle_beta   93.12853063
_cell_angle_gamma   96.92731771
_symmetry_Int_Tables_number   1
_chemical_formula_structural   Hf3Ni7
_chemical_formula_sum   'Hf324 Ni756'
_cell_volume   34237.96271853
_cell_formula_units_Z   108
loop_
 _symmetry_equiv_pos_site_id
 _symmetry_equiv_pos_as_xyz
  1  'x, y, z'
loop_
 _atom_site_type_symbol
 _atom_site_label
 _atom_site_symmetry_multiplicity
 _atom_site_fract_x
 _atom_site_fract_y
 _atom_site_fract_z
 _atom_site_occupancy
  Hf  Hf0  1  0.10182736  0.18777364  0.99629396  1.0
  Hf  Hf1  1  0.10182736  0.52110698  0.99629396  1.0
  Hf  Hf2  1  0.10182736  0.85444031  0.99629396  1.0
  Hf  Hf3  1  0.43516069  0.18777364  0.99629396  1.0
  Hf  Hf4  1  0.43516069  0.52110698  0.99629396  1.0
  Hf  Hf5  1  0.43516069  0.85444031  0.99629396  1.0
  Hf  Hf6  1  0.76849402  0.18777364  0.99629396  1.0
  Hf  Hf7  1  0.76849402  0.52110698  0.99629396  1.0
  Hf  Hf8  1  0.76849402  0.85444031  0.99629396  1.0
  Hf  Hf9  1  0.31611307  0.30682126  0.92486539  1.0
  Hf  Hf10  1  0.31611307  0.64015460  0.92486539  1.0
  Hf  Hf11  1  0.31611307  0.97348793  0.92486539  1.0
  Hf  Hf12  1  0.64944640  0.30682126  0.92486539  1.0
  Hf  Hf13  1  0.64944640  0.64015460  0.92486539  1.0
  Hf  Hf14  1  0.64944640  0.97348793  0.92486539  1.0
  Hf  Hf15  1  0.98277974  0.30682126  0.92486539  1.0
  Hf  Hf16  1  0.98277974  0.64015460  0.92486539  1.0
  Hf  Hf17  1  0.98277974  0.97348793  0.92486539  1.0
  Hf  Hf18  1  0.31828545  0.05878021  0.87353682  1.0
  Hf  Hf19  1  0.31828545  0.39211355  0.87353682  1.0
  Hf  Hf20  1  0.31828545  0.72544688  0.87353682  1.0
  Hf  Hf21  1  0.65161879  0.05878021  0.87353682  1.0
  Hf  Hf22  1  0.65161879  0.39211355  0.87353682  1.0
  Hf  Hf23  1  0.65161879  0.72544688  0.87353682  1.0
  Hf  Hf24  1  0.98495212  0.05878021  0.87353682  1.0
  Hf  Hf25  1  0.98495212  0.39211355  0.87353682  1.0
  Hf  Hf26  1  0.98495212  0.72544688  0.87353682  1.0
  Hf  Hf27  1  0.10399974  0.27306593  0.94496539  1.0
  Hf  Hf28  1  0.10399974  0.60639926  0.94496539  1.0
  Hf  Hf29  1  0.10399974  0.93973260  0.94496539  1.0
  Hf  Hf30  1  0.43733307  0.27306593  0.94496539  1.0
  Hf  Hf31  1  0.43733307  0.60639926  0.94496539  1.0
  Hf  Hf32  1  0.43733307  0.93973260  0.94496539  1.0
  Hf  Hf33  1  0.77066640  0.27306593  0.94496539  1.0
  Hf  Hf34  1  0.77066640  0.60639926  0.94496539  1.0
  Hf  Hf35  1  0.77066640  0.93973260  0.94496539  1.0
  Hf  Hf36  1  0.11773407  0.14161893  0.90408739  1.0
  Hf  Hf37  1  0.11773407  0.47495226  0.90408739  1.0
  Hf  Hf38  1  0.11773407  0.80828560  0.90408739  1.0
  Hf  Hf39  1  0.45106740  0.14161893  0.90408739  1.0
  Hf  Hf40  1  0.45106740  0.47495226  0.90408739  1.0
  Hf  Hf41  1  0.45106740  0.80828560  0.90408739  1.0
  Hf  Hf42  1  0.78440074  0.14161893  0.90408739  1.0
  Hf  Hf43  1  0.78440074  0.47495226  0.90408739  1.0
  Hf  Hf44  1  0.78440074  0.80828560  0.90408739  1.0
  Hf  Hf45  1  0.23678169  0.02257131  0.97551596  1.0
  Hf  Hf46  1  0.23678169  0.35590464  0.97551596  1.0
  Hf  Hf47  1  0.23678169  0.68923798  0.97551596  1.0
  Hf  Hf48  1  0.57011502  0.02257131  0.97551596  1.0
  Hf  Hf49  1  0.57011502  0.35590464  0.97551596  1.0
  Hf  Hf50  1  0.57011502  0.68923798  0.97551596  1.0
  Hf  Hf51  1  0.90344836  0.02257131  0.97551596  1.0
  Hf  Hf52  1  0.90344836  0.35590464  0.97551596  1.0
  Hf  Hf53  1  0.90344836  0.68923798  0.97551596  1.0
  Hf  Hf54  1  0.30237874  0.10493493  0.96574339  1.0
  Hf  Hf55  1  0.30237874  0.43826826  0.96574339  1.0
  Hf  Hf56  1  0.30237874  0.77160160  0.96574339  1.0
  Hf  Hf57  1  0.63571207  0.10493493  0.96574339  1.0
  Hf  Hf58  1  0.63571207  0.43826826  0.96574339  1.0
  Hf  Hf59  1  0.63571207  0.77160160  0.96574339  1.0
  Hf  Hf60  1  0.96904540  0.10493493  0.96574339  1.0
  Hf  Hf61  1  0.96904540  0.43826826  0.96574339  1.0
  Hf  Hf62  1  0.96904540  0.77160160  0.96574339  1.0
  Hf  Hf63  1  0.18333112  0.22398255  0.89431482  1.0
  Hf  Hf64  1  0.18333112  0.55731588  0.89431482  1.0
  Hf  Hf65  1  0.18333112  0.89064921  0.89431482  1.0
  Hf  Hf66  1  0.51666445  0.22398255  0.89431482  1.0
  Hf  Hf67  1  0.51666445  0.55731588  0.89431482  1.0
  Hf  Hf68  1  0.51666445  0.89064921  0.89431482  1.0
  Hf  Hf69  1  0.84999779  0.22398255  0.89431482  1.0
  Hf  Hf70  1  0.84999779  0.55731588  0.89431482  1.0
  Hf  Hf71  1  0.84999779  0.89064921  0.89431482  1.0
  Hf  Hf72  1  0.14160267  0.06663167  0.93735375  1.0
  Hf  Hf73  1  0.14160267  0.39996500  0.93735375  1.0
  Hf  Hf74  1  0.14160267  0.73329833  0.93735375  1.0
  Hf  Hf75  1  0.47493600  0.06663167  0.93735375  1.0
  Hf  Hf76  1  0.47493600  0.39996500  0.93735375  1.0
  Hf  Hf77  1  0.47493600  0.73329833  0.93735375  1.0
  Hf  Hf78  1  0.80826933  0.06663167  0.93735375  1.0
  Hf  Hf79  1  0.80826933  0.39996500  0.93735375  1.0
  Hf  Hf80  1  0.80826933  0.73329833  0.93735375  1.0
  Hf  Hf81  1  0.02255505  0.18567929  0.86592518  1.0
  Hf  Hf82  1  0.02255505  0.51901262  0.86592518  1.0
  Hf  Hf83  1  0.02255505  0.85234595  0.86592518  1.0
  Hf  Hf84  1  0.35588838  0.18567929  0.86592518  1.0
  Hf  Hf85  1  0.35588838  0.51901262  0.86592518  1.0
  Hf  Hf86  1  0.35588838  0.85234595  0.86592518  1.0
  Hf  Hf87  1  0.68922171  0.18567929  0.86592518  1.0
  Hf  Hf88  1  0.68922171  0.51901262  0.86592518  1.0
  Hf  Hf89  1  0.68922171  0.85234595  0.86592518  1.0
  Hf  Hf90  1  0.27851014  0.17992219  0.93247704  1.0
  Hf  Hf91  1  0.27851014  0.51325552  0.93247704  1.0
  Hf  Hf92  1  0.27851014  0.84658886  0.93247704  1.0
  Hf  Hf93  1  0.61184348  0.17992219  0.93247704  1.0
  Hf  Hf94  1  0.61184348  0.51325552  0.93247704  1.0
  Hf  Hf95  1  0.61184348  0.84658886  0.93247704  1.0
  Hf  Hf96  1  0.94517681  0.17992219  0.93247704  1.0
  Hf  Hf97  1  0.94517681  0.51325552  0.93247704  1.0
  Hf  Hf98  1  0.94517681  0.84658886  0.93247704  1.0
  Hf  Hf99  1  0.15946252  0.29896981  0.86104846  1.0
  Hf  Hf100  1  0.15946252  0.63230314  0.86104846  1.0
  Hf  Hf101  1  0.15946252  0.96563648  0.86104846  1.0
  Hf  Hf102  1  0.49279586  0.29896981  0.86104846  1.0
  Hf  Hf103  1  0.49279586  0.63230314  0.86104846  1.0
  Hf  Hf104  1  0.49279586  0.96563648  0.86104846  1.0
  Hf  Hf105  1  0.82612919  0.29896981  0.86104846  1.0
  Hf  Hf106  1  0.82612919  0.63230314  0.86104846  1.0
  Hf  Hf107  1  0.82612919  0.96563648  0.86104846  1.0
  Hf  Hf108  1  0.19706545  0.09253555  0.85343682  1.0
  Hf  Hf109  1  0.19706545  0.42586888  0.85343682  1.0
  Hf  Hf110  1  0.19706545  0.75920221  0.85343682  1.0
  Hf  Hf111  1  0.53039879  0.09253555  0.85343682  1.0
  Hf  Hf112  1  0.53039879  0.42586888  0.85343682  1.0
  Hf  Hf113  1  0.53039879  0.75920221  0.85343682  1.0
  Hf  Hf114  1  0.86373212  0.09253555  0.85343682  1.0
  Hf  Hf115  1  0.86373212  0.42586888  0.85343682  1.0
  Hf  Hf116  1  0.86373212  0.75920221  0.85343682  1.0
  Hf  Hf117  1  0.07801783  0.21158317  0.78200825  1.0
  Hf  Hf118  1  0.07801783  0.54491650  0.78200825  1.0
  Hf  Hf119  1  0.07801783  0.87824983  0.78200825  1.0
  Hf  Hf120  1  0.41135117  0.21158317  0.78200825  1.0
  Hf  Hf121  1  0.41135117  0.54491650  0.78200825  1.0
  Hf  Hf122  1  0.41135117  0.87824983  0.78200825  1.0
  Hf  Hf123  1  0.74468450  0.21158317  0.78200825  1.0
  Hf  Hf124  1  0.74468450  0.54491650  0.78200825  1.0
  Hf  Hf125  1  0.74468450  0.87824983  0.78200825  1.0
  Hf  Hf126  1  0.08019021  0.29687545  0.73067968  1.0
  Hf  Hf127  1  0.08019021  0.63020879  0.73067968  1.0
  Hf  Hf128  1  0.08019021  0.96354212  0.73067968  1.0
  Hf  Hf129  1  0.41352355  0.29687545  0.73067968  1.0
  Hf  Hf130  1  0.41352355  0.63020879  0.73067968  1.0
  Hf  Hf131  1  0.41352355  0.96354212  0.73067968  1.0
  Hf  Hf132  1  0.74685688  0.29687545  0.73067968  1.0
  Hf  Hf133  1  0.74685688  0.63020879  0.73067968  1.0
  Hf  Hf134  1  0.74685688  0.96354212  0.73067968  1.0
  Hf  Hf135  1  0.19923783  0.17782783  0.80210825  1.0
  Hf  Hf136  1  0.19923783  0.51116117  0.80210825  1.0
  Hf  Hf137  1  0.19923783  0.84449450  0.80210825  1.0
  Hf  Hf138  1  0.53257117  0.17782783  0.80210825  1.0
  Hf  Hf139  1  0.53257117  0.51116117  0.80210825  1.0
  Hf  Hf140  1  0.53257117  0.84449450  0.80210825  1.0
  Hf  Hf141  1  0.86590450  0.17782783  0.80210825  1.0
  Hf  Hf142  1  0.86590450  0.51116117  0.80210825  1.0
  Hf  Hf143  1  0.86590450  0.84449450  0.80210825  1.0
  Hf  Hf144  1  0.21297217  0.04638083  0.76123025  1.0
  Hf  Hf145  1  0.21297217  0.37971417  0.76123025  1.0
  Hf  Hf146  1  0.21297217  0.71304750  0.76123025  1.0
  Hf  Hf147  1  0.54630550  0.04638083  0.76123025  1.0
  Hf  Hf148  1  0.54630550  0.37971417  0.76123025  1.0
  Hf  Hf149  1  0.54630550  0.71304750  0.76123025  1.0
  Hf  Hf150  1  0.87963883  0.04638083  0.76123025  1.0
  Hf  Hf151  1  0.87963883  0.37971417  0.76123025  1.0
  Hf  Hf152  1  0.87963883  0.71304750  0.76123025  1.0
  Hf  Hf153  1  0.33201979  0.26066655  0.83265882  1.0
  Hf  Hf154  1  0.33201979  0.59399988  0.83265882  1.0
  Hf  Hf155  1  0.33201979  0.92733321  0.83265882  1.0
  Hf  Hf156  1  0.66535312  0.26066655  0.83265882  1.0
  Hf  Hf157  1  0.66535312  0.59399988  0.83265882  1.0
  Hf  Hf158  1  0.66535312  0.92733321  0.83265882  1.0
  Hf  Hf159  1  0.99868645  0.26066655  0.83265882  1.0
  Hf  Hf160  1  0.99868645  0.59399988  0.83265882  1.0
  Hf  Hf161  1  0.99868645  0.92733321  0.83265882  1.0
  Hf  Hf162  1  0.06428350  0.00969683  0.82288625  1.0
  Hf  Hf163  1  0.06428350  0.34303017  0.82288625  1.0
  Hf  Hf164  1  0.06428350  0.67636350  0.82288625  1.0
  Hf  Hf165  1  0.39761683  0.00969683  0.82288625  1.0
  Hf  Hf166  1  0.39761683  0.34303017  0.82288625  1.0
  Hf  Hf167  1  0.39761683  0.67636350  0.82288625  1.0
  Hf  Hf168  1  0.73095017  0.00969683  0.82288625  1.0
  Hf  Hf169  1  0.73095017  0.34303017  0.82288625  1.0
  Hf  Hf170  1  0.73095017  0.67636350  0.82288625  1.0
  Hf  Hf171  1  0.27856921  0.12874445  0.75145768  1.0
  Hf  Hf172  1  0.27856921  0.46207779  0.75145768  1.0
  Hf  Hf173  1  0.27856921  0.79541112  0.75145768  1.0
  Hf  Hf174  1  0.61190255  0.12874445  0.75145768  1.0
  Hf  Hf175  1  0.61190255  0.46207779  0.75145768  1.0
  Hf  Hf176  1  0.61190255  0.79541112  0.75145768  1.0
  Hf  Hf177  1  0.94523588  0.12874445  0.75145768  1.0
  Hf  Hf178  1  0.94523588  0.46207779  0.75145768  1.0
  Hf  Hf179  1  0.94523588  0.79541112  0.75145768  1.0
  Hf  Hf180  1  0.23684076  0.30472690  0.79449661  1.0
  Hf  Hf181  1  0.23684076  0.63806024  0.79449661  1.0
  Hf  Hf182  1  0.23684076  0.97139357  0.79449661  1.0
  Hf  Hf183  1  0.57017410  0.30472690  0.79449661  1.0
  Hf  Hf184  1  0.57017410  0.63806024  0.79449661  1.0
  Hf  Hf185  1  0.57017410  0.97139357  0.79449661  1.0
  Hf  Hf186  1  0.90350743  0.30472690  0.79449661  1.0
  Hf  Hf187  1  0.90350743  0.63806024  0.79449661  1.0
  Hf  Hf188  1  0.90350743  0.97139357  0.79449661  1.0
  Hf  Hf189  1  0.11779314  0.09044119  0.72306804  1.0
  Hf  Hf190  1  0.11779314  0.42377452  0.72306804  1.0
  Hf  Hf191  1  0.11779314  0.75710786  0.72306804  1.0
  Hf  Hf192  1  0.45112648  0.09044119  0.72306804  1.0
  Hf  Hf193  1  0.45112648  0.42377452  0.72306804  1.0
  Hf  Hf194  1  0.45112648  0.75710786  0.72306804  1.0
  Hf  Hf195  1  0.78445981  0.09044119  0.72306804  1.0
  Hf  Hf196  1  0.78445981  0.42377452  0.72306804  1.0
  Hf  Hf197  1  0.78445981  0.75710786  0.72306804  1.0
  Hf  Hf198  1  0.04041490  0.08468410  0.78961989  1.0
  Hf  Hf199  1  0.04041490  0.41801743  0.78961989  1.0
  Hf  Hf200  1  0.04041490  0.75135076  0.78961989  1.0
  Hf  Hf201  1  0.37374824  0.08468410  0.78961989  1.0
  Hf  Hf202  1  0.37374824  0.41801743  0.78961989  1.0
  Hf  Hf203  1  0.37374824  0.75135076  0.78961989  1.0
  Hf  Hf204  1  0.70708157  0.08468410  0.78961989  1.0
  Hf  Hf205  1  0.70708157  0.41801743  0.78961989  1.0
  Hf  Hf206  1  0.70708157  0.75135076  0.78961989  1.0
  Hf  Hf207  1  0.25470062  0.20373171  0.71819132  1.0
  Hf  Hf208  1  0.25470062  0.53706505  0.71819132  1.0
  Hf  Hf209  1  0.25470062  0.87039838  0.71819132  1.0
  Hf  Hf210  1  0.58803395  0.20373171  0.71819132  1.0
  Hf  Hf211  1  0.58803395  0.53706505  0.71819132  1.0
  Hf  Hf212  1  0.58803395  0.87039838  0.71819132  1.0
  Hf  Hf213  1  0.92136729  0.20373171  0.71819132  1.0
  Hf  Hf214  1  0.92136729  0.53706505  0.71819132  1.0
  Hf  Hf215  1  0.92136729  0.87039838  0.71819132  1.0
  Hf  Hf216  1  0.29230355  0.33063079  0.71057968  1.0
  Hf  Hf217  1  0.29230355  0.66396412  0.71057968  1.0
  Hf  Hf218  1  0.29230355  0.99729745  0.71057968  1.0
  Hf  Hf219  1  0.62563688  0.33063079  0.71057968  1.0
  Hf  Hf220  1  0.62563688  0.66396412  0.71057968  1.0
  Hf  Hf221  1  0.62563688  0.99729745  0.71057968  1.0
  Hf  Hf222  1  0.95897021  0.33063079  0.71057968  1.0
  Hf  Hf223  1  0.95897021  0.66396412  0.71057968  1.0
  Hf  Hf224  1  0.95897021  0.99729745  0.71057968  1.0
  Hf  Hf225  1  0.17325593  0.11634507  0.63915111  1.0
  Hf  Hf226  1  0.17325593  0.44967840  0.63915111  1.0
  Hf  Hf227  1  0.17325593  0.78301174  0.63915111  1.0
  Hf  Hf228  1  0.50658926  0.11634507  0.63915111  1.0
  Hf  Hf229  1  0.50658926  0.44967840  0.63915111  1.0
  Hf  Hf230  1  0.50658926  0.78301174  0.63915111  1.0
  Hf  Hf231  1  0.83992260  0.11634507  0.63915111  1.0
  Hf  Hf232  1  0.83992260  0.44967840  0.63915111  1.0
  Hf  Hf233  1  0.83992260  0.78301174  0.63915111  1.0
  Hf  Hf234  1  0.17542831  0.20163736  0.58782254  1.0
  Hf  Hf235  1  0.17542831  0.53497069  0.58782254  1.0
  Hf  Hf236  1  0.17542831  0.86830402  0.58782254  1.0
  Hf  Hf237  1  0.50876164  0.20163736  0.58782254  1.0
  Hf  Hf238  1  0.50876164  0.53497069  0.58782254  1.0
  Hf  Hf239  1  0.50876164  0.86830402  0.58782254  1.0
  Hf  Hf240  1  0.84209498  0.20163736  0.58782254  1.0
  Hf  Hf241  1  0.84209498  0.53497069  0.58782254  1.0
  Hf  Hf242  1  0.84209498  0.86830402  0.58782254  1.0
  Hf  Hf243  1  0.29447593  0.08258974  0.65925111  1.0
  Hf  Hf244  1  0.29447593  0.41592307  0.65925111  1.0
  Hf  Hf245  1  0.29447593  0.74925640  0.65925111  1.0
  Hf  Hf246  1  0.62780926  0.08258974  0.65925111  1.0
  Hf  Hf247  1  0.62780926  0.41592307  0.65925111  1.0
  Hf  Hf248  1  0.62780926  0.74925640  0.65925111  1.0
  Hf  Hf249  1  0.96114260  0.08258974  0.65925111  1.0
  Hf  Hf250  1  0.96114260  0.41592307  0.65925111  1.0
  Hf  Hf251  1  0.96114260  0.74925640  0.65925111  1.0
  Hf  Hf252  1  0.30821026  0.28447607  0.61837311  1.0
  Hf  Hf253  1  0.30821026  0.61780940  0.61837311  1.0
  Hf  Hf254  1  0.30821026  0.95114274  0.61837311  1.0
  Hf  Hf255  1  0.64154360  0.28447607  0.61837311  1.0
  Hf  Hf256  1  0.64154360  0.61780940  0.61837311  1.0
  Hf  Hf257  1  0.64154360  0.95114274  0.61837311  1.0
  Hf  Hf258  1  0.97487693  0.28447607  0.61837311  1.0
  Hf  Hf259  1  0.97487693  0.61780940  0.61837311  1.0
  Hf  Hf260  1  0.97487693  0.95114274  0.61837311  1.0
  Hf  Hf261  1  0.09392455  0.16542845  0.68980168  1.0
  Hf  Hf262  1  0.09392455  0.49876179  0.68980168  1.0
  Hf  Hf263  1  0.09392455  0.83209512  0.68980168  1.0
  Hf  Hf264  1  0.42725788  0.16542845  0.68980168  1.0
  Hf  Hf265  1  0.42725788  0.49876179  0.68980168  1.0
  Hf  Hf266  1  0.42725788  0.83209512  0.68980168  1.0
  Hf  Hf267  1  0.76059121  0.16542845  0.68980168  1.0
  Hf  Hf268  1  0.76059121  0.49876179  0.68980168  1.0
  Hf  Hf269  1  0.76059121  0.83209512  0.68980168  1.0
  Hf  Hf270  1  0.15952160  0.24779207  0.68002911  1.0
  Hf  Hf271  1  0.15952160  0.58112540  0.68002911  1.0
  Hf  Hf272  1  0.15952160  0.91445874  0.68002911  1.0
  Hf  Hf273  1  0.49285493  0.24779207  0.68002911  1.0
  Hf  Hf274  1  0.49285493  0.58112540  0.68002911  1.0
  Hf  Hf275  1  0.49285493  0.91445874  0.68002911  1.0
  Hf  Hf276  1  0.82618826  0.24779207  0.68002911  1.0
  Hf  Hf277  1  0.82618826  0.58112540  0.68002911  1.0
  Hf  Hf278  1  0.82618826  0.91445874  0.68002911  1.0
  Hf  Hf279  1  0.04047398  0.03350636  0.60860054  1.0
  Hf  Hf280  1  0.04047398  0.36683969  0.60860054  1.0
  Hf  Hf281  1  0.04047398  0.70017302  0.60860054  1.0
  Hf  Hf282  1  0.37380731  0.03350636  0.60860054  1.0
  Hf  Hf283  1  0.37380731  0.36683969  0.60860054  1.0
  Hf  Hf284  1  0.37380731  0.70017302  0.60860054  1.0
  Hf  Hf285  1  0.70714064  0.03350636  0.60860054  1.0
  Hf  Hf286  1  0.70714064  0.36683969  0.60860054  1.0
  Hf  Hf287  1  0.70714064  0.70017302  0.60860054  1.0
  Hf  Hf288  1  0.33207886  0.20948881  0.65163946  1.0
  Hf  Hf289  1  0.33207886  0.54282214  0.65163946  1.0
  Hf  Hf290  1  0.33207886  0.87615548  0.65163946  1.0
  Hf  Hf291  1  0.66541219  0.20948881  0.65163946  1.0
  Hf  Hf292  1  0.66541219  0.54282214  0.65163946  1.0
  Hf  Hf293  1  0.66541219  0.87615548  0.65163946  1.0
  Hf  Hf294  1  0.99874552  0.20948881  0.65163946  1.0
  Hf  Hf295  1  0.99874552  0.54282214  0.65163946  1.0
  Hf  Hf296  1  0.99874552  0.87615548  0.65163946  1.0
  Hf  Hf297  1  0.21303124  0.32853643  0.58021089  1.0
  Hf  Hf298  1  0.21303124  0.66186976  0.58021089  1.0
  Hf  Hf299  1  0.21303124  0.99520310  0.58021089  1.0
  Hf  Hf300  1  0.54636457  0.32853643  0.58021089  1.0
  Hf  Hf301  1  0.54636457  0.66186976  0.58021089  1.0
  Hf  Hf302  1  0.54636457  0.99520310  0.58021089  1.0
  Hf  Hf303  1  0.87969790  0.32853643  0.58021089  1.0
  Hf  Hf304  1  0.87969790  0.66186976  0.58021089  1.0
  Hf  Hf305  1  0.87969790  0.99520310  0.58021089  1.0
  Hf  Hf306  1  0.13565300  0.32277933  0.64676275  1.0
  Hf  Hf307  1  0.13565300  0.65611267  0.64676275  1.0
  Hf  Hf308  1  0.13565300  0.98944600  0.64676275  1.0
  Hf  Hf309  1  0.46898633  0.32277933  0.64676275  1.0
  Hf  Hf310  1  0.46898633  0.65611267  0.64676275  1.0
  Hf  Hf311  1  0.46898633  0.98944600  0.64676275  1.0
  Hf  Hf312  1  0.80231967  0.32277933  0.64676275  1.0
  Hf  Hf313  1  0.80231967  0.65611267  0.64676275  1.0
  Hf  Hf314  1  0.80231967  0.98944600  0.64676275  1.0
  Hf  Hf315  1  0.01660538  0.10849362  0.57533418  1.0
  Hf  Hf316  1  0.01660538  0.44182695  0.57533418  1.0
  Hf  Hf317  1  0.01660538  0.77516029  0.57533418  1.0
  Hf  Hf318  1  0.34993871  0.10849362  0.57533418  1.0
  Hf  Hf319  1  0.34993871  0.44182695  0.57533418  1.0
  Hf  Hf320  1  0.34993871  0.77516029  0.57533418  1.0
  Hf  Hf321  1  0.68327205  0.10849362  0.57533418  1.0
  Hf  Hf322  1  0.68327205  0.44182695  0.57533418  1.0
  Hf  Hf323  1  0.68327205  0.77516029  0.57533418  1.0
  Ni  Ni324  1  0.09100879  0.07565788  0.86348682  1.0
  Ni  Ni325  1  0.09100879  0.40899121  0.86348682  1.0
  Ni  Ni326  1  0.09100879  0.74232455  0.86348682  1.0
  Ni  Ni327  1  0.42434212  0.07565788  0.86348682  1.0
  Ni  Ni328  1  0.42434212  0.40899121  0.86348682  1.0
  Ni  Ni329  1  0.42434212  0.74232455  0.86348682  1.0
  Ni  Ni330  1  0.75767545  0.07565788  0.86348682  1.0
  Ni  Ni331  1  0.75767545  0.40899121  0.86348682  1.0
  Ni  Ni332  1  0.75767545  0.74232455  0.86348682  1.0
  Ni  Ni333  1  0.21005640  0.28994360  0.93491539  1.0
  Ni  Ni334  1  0.21005640  0.62327693  0.93491539  1.0
  Ni  Ni335  1  0.21005640  0.95661026  0.93491539  1.0
  Ni  Ni336  1  0.54338974  0.28994360  0.93491539  1.0
  Ni  Ni337  1  0.54338974  0.62327693  0.93491539  1.0
  Ni  Ni338  1  0.54338974  0.95661026  0.93491539  1.0
  Ni  Ni339  1  0.87672307  0.28994360  0.93491539  1.0
  Ni  Ni340  1  0.87672307  0.62327693  0.93491539  1.0
  Ni  Ni341  1  0.87672307  0.95661026  0.93491539  1.0
  Ni  Ni342  1  0.21005640  0.12327693  0.93491539  1.0
  Ni  Ni343  1  0.21005640  0.45661026  0.93491539  1.0
  Ni  Ni344  1  0.21005640  0.78994360  0.93491539  1.0
  Ni  Ni345  1  0.54338974  0.12327693  0.93491539  1.0
  Ni  Ni346  1  0.54338974  0.45661026  0.93491539  1.0
  Ni  Ni347  1  0.54338974  0.78994360  0.93491539  1.0
  Ni  Ni348  1  0.87672307  0.12327693  0.93491539  1.0
  Ni  Ni349  1  0.87672307  0.45661026  0.93491539  1.0
  Ni  Ni350  1  0.87672307  0.78994360  0.93491539  1.0
  Ni  Ni351  1  0.09100879  0.24232455  0.86348682  1.0
  Ni  Ni352  1  0.09100879  0.57565788  0.86348682  1.0
  Ni  Ni353  1  0.09100879  0.90899121  0.86348682  1.0
  Ni  Ni354  1  0.42434212  0.24232455  0.86348682  1.0
  Ni  Ni355  1  0.42434212  0.57565788  0.86348682  1.0
  Ni  Ni356  1  0.42434212  0.90899121  0.86348682  1.0
  Ni  Ni357  1  0.75767545  0.24232455  0.86348682  1.0
  Ni  Ni358  1  0.75767545  0.57565788  0.86348682  1.0
  Ni  Ni359  1  0.75767545  0.90899121  0.86348682  1.0
  Ni  Ni360  1  0.28546538  0.11955295  0.89139518  1.0
  Ni  Ni361  1  0.28546538  0.45288629  0.89139518  1.0
  Ni  Ni362  1  0.28546538  0.78621962  0.89139518  1.0
  Ni  Ni363  1  0.61879871  0.11955295  0.89139518  1.0
  Ni  Ni364  1  0.61879871  0.45288629  0.89139518  1.0
  Ni  Ni365  1  0.61879871  0.78621962  0.89139518  1.0
  Ni  Ni366  1  0.95213205  0.11955295  0.89139518  1.0
  Ni  Ni367  1  0.95213205  0.45288629  0.89139518  1.0
  Ni  Ni368  1  0.95213205  0.78621962  0.89139518  1.0
  Ni  Ni369  1  0.07117967  0.00050533  0.96282375  1.0
  Ni  Ni370  1  0.07117967  0.33383867  0.96282375  1.0
  Ni  Ni371  1  0.07117967  0.66717200  0.96282375  1.0
  Ni  Ni372  1  0.40451300  0.00050533  0.96282375  1.0
  Ni  Ni373  1  0.40451300  0.33383867  0.96282375  1.0
  Ni  Ni374  1  0.40451300  0.66717200  0.96282375  1.0
  Ni  Ni375  1  0.73784633  0.00050533  0.96282375  1.0
  Ni  Ni376  1  0.73784633  0.33383867  0.96282375  1.0
  Ni  Ni377  1  0.73784633  0.66717200  0.96282375  1.0
  Ni  Ni378  1  0.13464743  0.12700090  0.97843561  1.0
  Ni  Ni379  1  0.13464743  0.46033424  0.97843561  1.0
  Ni  Ni380  1  0.13464743  0.79366757  0.97843561  1.0
  Ni  Ni381  1  0.46798076  0.12700090  0.97843561  1.0
  Ni  Ni382  1  0.46798076  0.46033424  0.97843561  1.0
  Ni  Ni383  1  0.46798076  0.79366757  0.97843561  1.0
  Ni  Ni384  1  0.80131410  0.12700090  0.97843561  1.0
  Ni  Ni385  1  0.80131410  0.46033424  0.97843561  1.0
  Ni  Ni386  1  0.80131410  0.79366757  0.97843561  1.0
  Ni  Ni387  1  0.01559981  0.24604852  0.90700704  1.0
  Ni  Ni388  1  0.01559981  0.57938186  0.90700704  1.0
  Ni  Ni389  1  0.01559981  0.91271519  0.90700704  1.0
  Ni  Ni390  1  0.34893314  0.24604852  0.90700704  1.0
  Ni  Ni391  1  0.34893314  0.57938186  0.90700704  1.0
  Ni  Ni392  1  0.34893314  0.91271519  0.90700704  1.0
  Ni  Ni393  1  0.68226648  0.24604852  0.90700704  1.0
  Ni  Ni394  1  0.68226648  0.57938186  0.90700704  1.0
  Ni  Ni395  1  0.68226648  0.91271519  0.90700704  1.0
  Ni  Ni396  1  0.03198067  0.12026633  0.86021675  1.0
  Ni  Ni397  1  0.03198067  0.45359967  0.86021675  1.0
  Ni  Ni398  1  0.03198067  0.78693300  0.86021675  1.0
  Ni  Ni399  1  0.36531400  0.12026633  0.86021675  1.0
  Ni  Ni400  1  0.36531400  0.45359967  0.86021675  1.0
  Ni  Ni401  1  0.36531400  0.78693300  0.86021675  1.0
  Ni  Ni402  1  0.69864733  0.12026633  0.86021675  1.0
  Ni  Ni403  1  0.69864733  0.45359967  0.86021675  1.0
  Ni  Ni404  1  0.69864733  0.78693300  0.86021675  1.0
  Ni  Ni405  1  0.15102829  0.00121871  0.93164532  1.0
  Ni  Ni406  1  0.15102829  0.33455205  0.93164532  1.0
  Ni  Ni407  1  0.15102829  0.66788538  0.93164532  1.0
  Ni  Ni408  1  0.48436162  0.00121871  0.93164532  1.0
  Ni  Ni409  1  0.48436162  0.33455205  0.93164532  1.0
  Ni  Ni410  1  0.48436162  0.66788538  0.93164532  1.0
  Ni  Ni411  1  0.81769495  0.00121871  0.93164532  1.0
  Ni  Ni412  1  0.81769495  0.33455205  0.93164532  1.0
  Ni  Ni413  1  0.81769495  0.66788538  0.93164532  1.0
  Ni  Ni414  1  0.15003690  0.03104943  0.86675689  1.0
  Ni  Ni415  1  0.15003690  0.36438276  0.86675689  1.0
  Ni  Ni416  1  0.15003690  0.69771610  0.86675689  1.0
  Ni  Ni417  1  0.48337024  0.03104943  0.86675689  1.0
  Ni  Ni418  1  0.48337024  0.36438276  0.86675689  1.0
  Ni  Ni419  1  0.48337024  0.69771610  0.86675689  1.0
  Ni  Ni420  1  0.81670357  0.03104943  0.86675689  1.0
  Ni  Ni421  1  0.81670357  0.36438276  0.86675689  1.0
  Ni  Ni422  1  0.81670357  0.69771610  0.86675689  1.0
  Ni  Ni423  1  0.26908452  0.24533514  0.93818546  1.0
  Ni  Ni424  1  0.26908452  0.57866848  0.93818546  1.0
  Ni  Ni425  1  0.26908452  0.91200181  0.93818546  1.0
  Ni  Ni426  1  0.60241786  0.24533514  0.93818546  1.0
  Ni  Ni427  1  0.60241786  0.57866848  0.93818546  1.0
  Ni  Ni428  1  0.60241786  0.91200181  0.93818546  1.0
  Ni  Ni429  1  0.93575119  0.24533514  0.93818546  1.0
  Ni  Ni430  1  0.93575119  0.57866848  0.93818546  1.0
  Ni  Ni431  1  0.93575119  0.91200181  0.93818546  1.0
  Ni  Ni432  1  0.02749264  0.21744336  0.96748054  1.0
  Ni  Ni433  1  0.02749264  0.55077669  0.96748054  1.0
  Ni  Ni434  1  0.02749264  0.88411002  0.96748054  1.0
  Ni  Ni435  1  0.36082598  0.21744336  0.96748054  1.0
  Ni  Ni436  1  0.36082598  0.55077669  0.96748054  1.0
  Ni  Ni437  1  0.36082598  0.88411002  0.96748054  1.0
  Ni  Ni438  1  0.69415931  0.21744336  0.96748054  1.0
  Ni  Ni439  1  0.69415931  0.55077669  0.96748054  1.0
  Ni  Ni440  1  0.69415931  0.88411002  0.96748054  1.0
  Ni  Ni441  1  0.24177836  0.00315764  0.89605196  1.0
  Ni  Ni442  1  0.24177836  0.33649098  0.89605196  1.0
  Ni  Ni443  1  0.24177836  0.66982431  0.89605196  1.0
  Ni  Ni444  1  0.57511169  0.00315764  0.89605196  1.0
  Ni  Ni445  1  0.57511169  0.33649098  0.89605196  1.0
  Ni  Ni446  1  0.57511169  0.66982431  0.89605196  1.0
  Ni  Ni447  1  0.90844502  0.00315764  0.89605196  1.0
  Ni  Ni448  1  0.90844502  0.33649098  0.89605196  1.0
  Ni  Ni449  1  0.90844502  0.66982431  0.89605196  1.0
  Ni  Ni450  1  0.05928683  0.02911050  0.90235025  1.0
  Ni  Ni451  1  0.05928683  0.36244383  0.90235025  1.0
  Ni  Ni452  1  0.05928683  0.69577717  0.90235025  1.0
  Ni  Ni453  1  0.39262017  0.02911050  0.90235025  1.0
  Ni  Ni454  1  0.39262017  0.36244383  0.90235025  1.0
  Ni  Ni455  1  0.39262017  0.69577717  0.90235025  1.0
  Ni  Ni456  1  0.72595350  0.02911050  0.90235025  1.0
  Ni  Ni457  1  0.72595350  0.36244383  0.90235025  1.0
  Ni  Ni458  1  0.72595350  0.69577717  0.90235025  1.0
  Ni  Ni459  1  0.17833445  0.24339621  0.97377882  1.0
  Ni  Ni460  1  0.17833445  0.57672955  0.97377882  1.0
  Ni  Ni461  1  0.17833445  0.91006288  0.97377882  1.0
  Ni  Ni462  1  0.51166779  0.24339621  0.97377882  1.0
  Ni  Ni463  1  0.51166779  0.57672955  0.97377882  1.0
  Ni  Ni464  1  0.51166779  0.91006288  0.97377882  1.0
  Ni  Ni465  1  0.84500112  0.24339621  0.97377882  1.0
  Ni  Ni466  1  0.84500112  0.57672955  0.97377882  1.0
  Ni  Ni467  1  0.84500112  0.91006288  0.97377882  1.0
  Ni  Ni468  1  0.09644079  0.20557188  0.92168982  1.0
  Ni  Ni469  1  0.09644079  0.53890521  0.92168982  1.0
  Ni  Ni470  1  0.09644079  0.87223855  0.92168982  1.0
  Ni  Ni471  1  0.42977412  0.20557188  0.92168982  1.0
  Ni  Ni472  1  0.42977412  0.53890521  0.92168982  1.0
  Ni  Ni473  1  0.42977412  0.87223855  0.92168982  1.0
  Ni  Ni474  1  0.76310745  0.20557188  0.92168982  1.0
  Ni  Ni475  1  0.76310745  0.53890521  0.92168982  1.0
  Ni  Ni476  1  0.76310745  0.87223855  0.92168982  1.0
  Ni  Ni477  1  0.21548840  0.08652426  0.99311839  1.0
  Ni  Ni478  1  0.21548840  0.41985760  0.99311839  1.0
  Ni  Ni479  1  0.21548840  0.75319093  0.99311839  1.0
  Ni  Ni480  1  0.54882174  0.08652426  0.99311839  1.0
  Ni  Ni481  1  0.54882174  0.41985760  0.99311839  1.0
  Ni  Ni482  1  0.54882174  0.75319093  0.99311839  1.0
  Ni  Ni483  1  0.88215507  0.08652426  0.99311839  1.0
  Ni  Ni484  1  0.88215507  0.41985760  0.99311839  1.0
  Ni  Ni485  1  0.88215507  0.75319093  0.99311839  1.0
  Ni  Ni486  1  0.32367202  0.04098198  0.94814096  1.0
  Ni  Ni487  1  0.32367202  0.37431531  0.94814096  1.0
  Ni  Ni488  1  0.32367202  0.70764864  0.94814096  1.0
  Ni  Ni489  1  0.65700536  0.04098198  0.94814096  1.0
  Ni  Ni490  1  0.65700536  0.37431531  0.94814096  1.0
  Ni  Ni491  1  0.65700536  0.70764864  0.94814096  1.0
  Ni  Ni492  1  0.99033869  0.04098198  0.94814096  1.0
  Ni  Ni493  1  0.99033869  0.37431531  0.94814096  1.0
  Ni  Ni494  1  0.99033869  0.70764864  0.94814096  1.0
  Ni  Ni495  1  0.20462440  0.16002960  0.87671239  1.0
  Ni  Ni496  1  0.20462440  0.49336293  0.87671239  1.0
  Ni  Ni497  1  0.20462440  0.82669626  0.87671239  1.0
  Ni  Ni498  1  0.53795774  0.16002960  0.87671239  1.0
  Ni  Ni499  1  0.53795774  0.49336293  0.87671239  1.0
  Ni  Ni500  1  0.53795774  0.82669626  0.87671239  1.0
  Ni  Ni501  1  0.87129107  0.16002960  0.87671239  1.0
  Ni  Ni502  1  0.87129107  0.49336293  0.87671239  1.0
  Ni  Ni503  1  0.87129107  0.82669626  0.87671239  1.0
  Ni  Ni504  1  0.03213395  0.15434771  0.93755332  1.0
  Ni  Ni505  1  0.03213395  0.48768105  0.93755332  1.0
  Ni  Ni506  1  0.03213395  0.82101438  0.93755332  1.0
  Ni  Ni507  1  0.36546729  0.15434771  0.93755332  1.0
  Ni  Ni508  1  0.36546729  0.48768105  0.93755332  1.0
  Ni  Ni509  1  0.36546729  0.82101438  0.93755332  1.0
  Ni  Ni510  1  0.69880062  0.15434771  0.93755332  1.0
  Ni  Ni511  1  0.69880062  0.48768105  0.93755332  1.0
  Ni  Ni512  1  0.69880062  0.82101438  0.93755332  1.0
  Ni  Ni513  1  0.24641967  0.27339533  0.86612475  1.0
  Ni  Ni514  1  0.24641967  0.60672867  0.86612475  1.0
  Ni  Ni515  1  0.24641967  0.94006200  0.86612475  1.0
  Ni  Ni516  1  0.57975300  0.27339533  0.86612475  1.0
  Ni  Ni517  1  0.57975300  0.60672867  0.86612475  1.0
  Ni  Ni518  1  0.57975300  0.94006200  0.86612475  1.0
  Ni  Ni519  1  0.91308633  0.27339533  0.86612475  1.0
  Ni  Ni520  1  0.91308633  0.60672867  0.86612475  1.0
  Ni  Ni521  1  0.91308633  0.94006200  0.86612475  1.0
  Ni  Ni522  1  0.05464552  0.09220614  0.93227746  1.0
  Ni  Ni523  1  0.05464552  0.42553948  0.93227746  1.0
  Ni  Ni524  1  0.05464552  0.75887281  0.93227746  1.0
  Ni  Ni525  1  0.38797886  0.09220614  0.93227746  1.0
  Ni  Ni526  1  0.38797886  0.42553948  0.93227746  1.0
  Ni  Ni527  1  0.38797886  0.75887281  0.93227746  1.0
  Ni  Ni528  1  0.72131219  0.09220614  0.93227746  1.0
  Ni  Ni529  1  0.72131219  0.42553948  0.93227746  1.0
  Ni  Ni530  1  0.72131219  0.75887281  0.93227746  1.0
  Ni  Ni531  1  0.26893124  0.21125376  0.86084889  1.0
  Ni  Ni532  1  0.26893124  0.54458710  0.86084889  1.0
  Ni  Ni533  1  0.26893124  0.87792043  0.86084889  1.0
  Ni  Ni534  1  0.60226457  0.21125376  0.86084889  1.0
  Ni  Ni535  1  0.60226457  0.54458710  0.86084889  1.0
  Ni  Ni536  1  0.60226457  0.87792043  0.86084889  1.0
  Ni  Ni537  1  0.93559790  0.21125376  0.86084889  1.0
  Ni  Ni538  1  0.93559790  0.54458710  0.86084889  1.0
  Ni  Ni539  1  0.93559790  0.87792043  0.86084889  1.0
  Ni  Ni540  1  0.06694560  0.30220674  0.88322011  1.0
  Ni  Ni541  1  0.06694560  0.63554007  0.88322011  1.0
  Ni  Ni542  1  0.06694560  0.96887340  0.88322011  1.0
  Ni  Ni543  1  0.40027893  0.30220674  0.88322011  1.0
  Ni  Ni544  1  0.40027893  0.63554007  0.88322011  1.0
  Ni  Ni545  1  0.40027893  0.96887340  0.88322011  1.0
  Ni  Ni546  1  0.73361226  0.30220674  0.88322011  1.0
  Ni  Ni547  1  0.73361226  0.63554007  0.88322011  1.0
  Ni  Ni548  1  0.73361226  0.96887340  0.88322011  1.0
  Ni  Ni549  1  0.18599321  0.18315912  0.95464868  1.0
  Ni  Ni550  1  0.18599321  0.51649245  0.95464868  1.0
  Ni  Ni551  1  0.18599321  0.84982579  0.95464868  1.0
  Ni  Ni552  1  0.51932655  0.18315912  0.95464868  1.0
  Ni  Ni553  1  0.51932655  0.51649245  0.95464868  1.0
  Ni  Ni554  1  0.51932655  0.84982579  0.95464868  1.0
  Ni  Ni555  1  0.85265988  0.18315912  0.95464868  1.0
  Ni  Ni556  1  0.85265988  0.51649245  0.95464868  1.0
  Ni  Ni557  1  0.85265988  0.84982579  0.95464868  1.0
  Ni  Ni558  1  0.01983388  0.27768045  0.98661068  1.0
  Ni  Ni559  1  0.01983388  0.61101379  0.98661068  1.0
  Ni  Ni560  1  0.01983388  0.94434712  0.98661068  1.0
  Ni  Ni561  1  0.35316721  0.27768045  0.98661068  1.0
  Ni  Ni562  1  0.35316721  0.61101379  0.98661068  1.0
  Ni  Ni563  1  0.35316721  0.94434712  0.98661068  1.0
  Ni  Ni564  1  0.68650055  0.27768045  0.98661068  1.0
  Ni  Ni565  1  0.68650055  0.61101379  0.98661068  1.0
  Ni  Ni566  1  0.68650055  0.94434712  0.98661068  1.0
  Ni  Ni567  1  0.23411960  0.06339474  0.91518211  1.0
  Ni  Ni568  1  0.23411960  0.39672807  0.91518211  1.0
  Ni  Ni569  1  0.23411960  0.73006140  0.91518211  1.0
  Ni  Ni570  1  0.56745293  0.06339474  0.91518211  1.0
  Ni  Ni571  1  0.56745293  0.39672807  0.91518211  1.0
  Ni  Ni572  1  0.56745293  0.73006140  0.91518211  1.0
  Ni  Ni573  1  0.90078626  0.06339474  0.91518211  1.0
  Ni  Ni574  1  0.90078626  0.39672807  0.91518211  1.0
  Ni  Ni575  1  0.90078626  0.73006140  0.91518211  1.0
  Ni  Ni576  1  0.18624688  0.31375312  0.72062968  1.0
  Ni  Ni577  1  0.18624688  0.64708645  0.72062968  1.0
  Ni  Ni578  1  0.18624688  0.98041979  0.72062968  1.0
  Ni  Ni579  1  0.51958021  0.31375312  0.72062968  1.0
  Ni  Ni580  1  0.51958021  0.64708645  0.72062968  1.0
  Ni  Ni581  1  0.51958021  0.98041979  0.72062968  1.0
  Ni  Ni582  1  0.85291355  0.31375312  0.72062968  1.0
  Ni  Ni583  1  0.85291355  0.64708645  0.72062968  1.0
  Ni  Ni584  1  0.85291355  0.98041979  0.72062968  1.0
  Ni  Ni585  1  0.30529450  0.19470550  0.79205825  1.0
  Ni  Ni586  1  0.30529450  0.52803883  0.79205825  1.0
  Ni  Ni587  1  0.30529450  0.86137217  0.79205825  1.0
  Ni  Ni588  1  0.63862783  0.19470550  0.79205825  1.0
  Ni  Ni589  1  0.63862783  0.52803883  0.79205825  1.0
  Ni  Ni590  1  0.63862783  0.86137217  0.79205825  1.0
  Ni  Ni591  1  0.97196117  0.19470550  0.79205825  1.0
  Ni  Ni592  1  0.97196117  0.52803883  0.79205825  1.0
  Ni  Ni593  1  0.97196117  0.86137217  0.79205825  1.0
  Ni  Ni594  1  0.30529450  0.02803883  0.79205825  1.0
  Ni  Ni595  1  0.30529450  0.36137217  0.79205825  1.0
  Ni  Ni596  1  0.30529450  0.69470550  0.79205825  1.0
  Ni  Ni597  1  0.63862783  0.02803883  0.79205825  1.0
  Ni  Ni598  1  0.63862783  0.36137217  0.79205825  1.0
  Ni  Ni599  1  0.63862783  0.69470550  0.79205825  1.0
  Ni  Ni600  1  0.97196117  0.02803883  0.79205825  1.0
  Ni  Ni601  1  0.97196117  0.36137217  0.79205825  1.0
  Ni  Ni602  1  0.97196117  0.69470550  0.79205825  1.0
  Ni  Ni603  1  0.18624688  0.14708645  0.72062968  1.0
  Ni  Ni604  1  0.18624688  0.48041979  0.72062968  1.0
  Ni  Ni605  1  0.18624688  0.81375312  0.72062968  1.0
  Ni  Ni606  1  0.51958021  0.14708645  0.72062968  1.0
  Ni  Ni607  1  0.51958021  0.48041979  0.72062968  1.0
  Ni  Ni608  1  0.51958021  0.81375312  0.72062968  1.0
  Ni  Ni609  1  0.85291355  0.14708645  0.72062968  1.0
  Ni  Ni610  1  0.85291355  0.48041979  0.72062968  1.0
  Ni  Ni611  1  0.85291355  0.81375312  0.72062968  1.0
  Ni  Ni612  1  0.04737014  0.02431486  0.74853804  1.0
  Ni  Ni613  1  0.04737014  0.35764819  0.74853804  1.0
  Ni  Ni614  1  0.04737014  0.69098152  0.74853804  1.0
  Ni  Ni615  1  0.38070348  0.02431486  0.74853804  1.0
  Ni  Ni616  1  0.38070348  0.35764819  0.74853804  1.0
  Ni  Ni617  1  0.38070348  0.69098152  0.74853804  1.0
  Ni  Ni618  1  0.71403681  0.02431486  0.74853804  1.0
  Ni  Ni619  1  0.71403681  0.35764819  0.74853804  1.0
  Ni  Ni620  1  0.71403681  0.69098152  0.74853804  1.0
  Ni  Ni621  1  0.16641776  0.23860057  0.81996661  1.0
  Ni  Ni622  1  0.16641776  0.57193390  0.81996661  1.0
  Ni  Ni623  1  0.16641776  0.90526724  0.81996661  1.0
  Ni  Ni624  1  0.49975110  0.23860057  0.81996661  1.0
  Ni  Ni625  1  0.49975110  0.57193390  0.81996661  1.0
  Ni  Ni626  1  0.49975110  0.90526724  0.81996661  1.0
  Ni  Ni627  1  0.83308443  0.23860057  0.81996661  1.0
  Ni  Ni628  1  0.83308443  0.57193390  0.81996661  1.0
  Ni  Ni629  1  0.83308443  0.90526724  0.81996661  1.0
  Ni  Ni630  1  0.22988552  0.03176281  0.83557846  1.0
  Ni  Ni631  1  0.22988552  0.36509614  0.83557846  1.0
  Ni  Ni632  1  0.22988552  0.69842948  0.83557846  1.0
  Ni  Ni633  1  0.56321886  0.03176281  0.83557846  1.0
  Ni  Ni634  1  0.56321886  0.36509614  0.83557846  1.0
  Ni  Ni635  1  0.56321886  0.69842948  0.83557846  1.0
  Ni  Ni636  1  0.89655219  0.03176281  0.83557846  1.0
  Ni  Ni637  1  0.89655219  0.36509614  0.83557846  1.0
  Ni  Ni638  1  0.89655219  0.69842948  0.83557846  1.0
  Ni  Ni639  1  0.11083790  0.15081043  0.76414989  1.0
  Ni  Ni640  1  0.11083790  0.48414376  0.76414989  1.0
  Ni  Ni641  1  0.11083790  0.81747710  0.76414989  1.0
  Ni  Ni642  1  0.44417124  0.15081043  0.76414989  1.0
  Ni  Ni643  1  0.44417124  0.48414376  0.76414989  1.0
  Ni  Ni644  1  0.44417124  0.81747710  0.76414989  1.0
  Ni  Ni645  1  0.77750457  0.15081043  0.76414989  1.0
  Ni  Ni646  1  0.77750457  0.48414376  0.76414989  1.0
  Ni  Ni647  1  0.77750457  0.81747710  0.76414989  1.0
  Ni  Ni648  1  0.12721876  0.02502824  0.71735961  1.0
  Ni  Ni649  1  0.12721876  0.35836157  0.71735961  1.0
  Ni  Ni650  1  0.12721876  0.69169490  0.71735961  1.0
  Ni  Ni651  1  0.46055210  0.02502824  0.71735961  1.0
  Ni  Ni652  1  0.46055210  0.35836157  0.71735961  1.0
  Ni  Ni653  1  0.46055210  0.69169490  0.71735961  1.0
  Ni  Ni654  1  0.79388543  0.02502824  0.71735961  1.0
  Ni  Ni655  1  0.79388543  0.35836157  0.71735961  1.0
  Ni  Ni656  1  0.79388543  0.69169490  0.71735961  1.0
  Ni  Ni657  1  0.24626638  0.23931395  0.78878818  1.0
  Ni  Ni658  1  0.24626638  0.57264729  0.78878818  1.0
  Ni  Ni659  1  0.24626638  0.90598062  0.78878818  1.0
  Ni  Ni660  1  0.57959971  0.23931395  0.78878818  1.0
  Ni  Ni661  1  0.57959971  0.57264729  0.78878818  1.0
  Ni  Ni662  1  0.57959971  0.90598062  0.78878818  1.0
  Ni  Ni663  1  0.91293305  0.23931395  0.78878818  1.0
  Ni  Ni664  1  0.91293305  0.57264729  0.78878818  1.0
  Ni  Ni665  1  0.91293305  0.90598062  0.78878818  1.0
  Ni  Ni666  1  0.24527500  0.26914467  0.72389975  1.0
  Ni  Ni667  1  0.24527500  0.60247800  0.72389975  1.0
  Ni  Ni668  1  0.24527500  0.93581133  0.72389975  1.0
  Ni  Ni669  1  0.57860833  0.26914467  0.72389975  1.0
  Ni  Ni670  1  0.57860833  0.60247800  0.72389975  1.0
  Ni  Ni671  1  0.57860833  0.93581133  0.72389975  1.0
  Ni  Ni672  1  0.91194167  0.26914467  0.72389975  1.0
  Ni  Ni673  1  0.91194167  0.60247800  0.72389975  1.0
  Ni  Ni674  1  0.91194167  0.93581133  0.72389975  1.0
  Ni  Ni675  1  0.03098929  0.15009705  0.79532832  1.0
  Ni  Ni676  1  0.03098929  0.48343038  0.79532832  1.0
  Ni  Ni677  1  0.03098929  0.81676371  0.79532832  1.0
  Ni  Ni678  1  0.36432262  0.15009705  0.79532832  1.0
  Ni  Ni679  1  0.36432262  0.48343038  0.79532832  1.0
  Ni  Ni680  1  0.36432262  0.81676371  0.79532832  1.0
  Ni  Ni681  1  0.69765595  0.15009705  0.79532832  1.0
  Ni  Ni682  1  0.69765595  0.48343038  0.79532832  1.0
  Ni  Ni683  1  0.69765595  0.81676371  0.79532832  1.0
  Ni  Ni684  1  0.12273074  0.12220526  0.82462339  1.0
  Ni  Ni685  1  0.12273074  0.45553860  0.82462339  1.0
  Ni  Ni686  1  0.12273074  0.78887193  0.82462339  1.0
  Ni  Ni687  1  0.45606407  0.12220526  0.82462339  1.0
  Ni  Ni688  1  0.45606407  0.45553860  0.82462339  1.0
  Ni  Ni689  1  0.45606407  0.78887193  0.82462339  1.0
  Ni  Ni690  1  0.78939740  0.12220526  0.82462339  1.0
  Ni  Ni691  1  0.78939740  0.45553860  0.82462339  1.0
  Ni  Ni692  1  0.78939740  0.78887193  0.82462339  1.0
  Ni  Ni693  1  0.00368312  0.24125288  0.75319482  1.0
  Ni  Ni694  1  0.00368312  0.57458621  0.75319482  1.0
  Ni  Ni695  1  0.00368312  0.90791955  0.75319482  1.0
  Ni  Ni696  1  0.33701645  0.24125288  0.75319482  1.0
  Ni  Ni697  1  0.33701645  0.57458621  0.75319482  1.0
  Ni  Ni698  1  0.33701645  0.90791955  0.75319482  1.0
  Ni  Ni699  1  0.67034979  0.24125288  0.75319482  1.0
  Ni  Ni700  1  0.67034979  0.57458621  0.75319482  1.0
  Ni  Ni701  1  0.67034979  0.90791955  0.75319482  1.0
  Ni  Ni702  1  0.15452493  0.26720574  0.75949311  1.0
  Ni  Ni703  1  0.15452493  0.60053907  0.75949311  1.0
  Ni  Ni704  1  0.15452493  0.93387240  0.75949311  1.0
  Ni  Ni705  1  0.48785826  0.26720574  0.75949311  1.0
  Ni  Ni706  1  0.48785826  0.60053907  0.75949311  1.0
  Ni  Ni707  1  0.48785826  0.93387240  0.75949311  1.0
  Ni  Ni708  1  0.82119160  0.26720574  0.75949311  1.0
  Ni  Ni709  1  0.82119160  0.60053907  0.75949311  1.0
  Ni  Ni710  1  0.82119160  0.93387240  0.75949311  1.0
  Ni  Ni711  1  0.27357255  0.14815812  0.83092168  1.0
  Ni  Ni712  1  0.27357255  0.48149145  0.83092168  1.0
  Ni  Ni713  1  0.27357255  0.81482479  0.83092168  1.0
  Ni  Ni714  1  0.60690588  0.14815812  0.83092168  1.0
  Ni  Ni715  1  0.60690588  0.48149145  0.83092168  1.0
  Ni  Ni716  1  0.60690588  0.81482479  0.83092168  1.0
  Ni  Ni717  1  0.94023921  0.14815812  0.83092168  1.0
  Ni  Ni718  1  0.94023921  0.48149145  0.83092168  1.0
  Ni  Ni719  1  0.94023921  0.81482479  0.83092168  1.0
  Ni  Ni720  1  0.19167888  0.11033379  0.77883268  1.0
  Ni  Ni721  1  0.19167888  0.44366712  0.77883268  1.0
  Ni  Ni722  1  0.19167888  0.77700045  0.77883268  1.0
  Ni  Ni723  1  0.52501221  0.11033379  0.77883268  1.0
  Ni  Ni724  1  0.52501221  0.44366712  0.77883268  1.0
  Ni  Ni725  1  0.52501221  0.77700045  0.77883268  1.0
  Ni  Ni726  1  0.85834555  0.11033379  0.77883268  1.0
  Ni  Ni727  1  0.85834555  0.44366712  0.77883268  1.0
  Ni  Ni728  1  0.85834555  0.77700045  0.77883268  1.0
  Ni  Ni729  1  0.31072650  0.32461950  0.85026125  1.0
  Ni  Ni730  1  0.31072650  0.65795283  0.85026125  1.0
  Ni  Ni731  1  0.31072650  0.99128617  0.85026125  1.0
  Ni  Ni732  1  0.64405983  0.32461950  0.85026125  1.0
  Ni  Ni733  1  0.64405983  0.65795283  0.85026125  1.0
  Ni  Ni734  1  0.64405983  0.99128617  0.85026125  1.0
  Ni  Ni735  1  0.97739317  0.32461950  0.85026125  1.0
  Ni  Ni736  1  0.97739317  0.65795283  0.85026125  1.0
  Ni  Ni737  1  0.97739317  0.99128617  0.85026125  1.0
  Ni  Ni738  1  0.08557679  0.27907721  0.80528382  1.0
  Ni  Ni739  1  0.08557679  0.61241055  0.80528382  1.0
  Ni  Ni740  1  0.08557679  0.94574388  0.80528382  1.0
  Ni  Ni741  1  0.41891012  0.27907721  0.80528382  1.0
  Ni  Ni742  1  0.41891012  0.61241055  0.80528382  1.0
  Ni  Ni743  1  0.41891012  0.94574388  0.80528382  1.0
  Ni  Ni744  1  0.75224345  0.27907721  0.80528382  1.0
  Ni  Ni745  1  0.75224345  0.61241055  0.80528382  1.0
  Ni  Ni746  1  0.75224345  0.94574388  0.80528382  1.0
  Ni  Ni747  1  0.29986250  0.06479150  0.73385525  1.0
  Ni  Ni748  1  0.29986250  0.39812483  0.73385525  1.0
  Ni  Ni749  1  0.29986250  0.73145817  0.73385525  1.0
  Ni  Ni750  1  0.63319583  0.06479150  0.73385525  1.0
  Ni  Ni751  1  0.63319583  0.39812483  0.73385525  1.0
  Ni  Ni752  1  0.63319583  0.73145817  0.73385525  1.0
  Ni  Ni753  1  0.96652917  0.06479150  0.73385525  1.0
  Ni  Ni754  1  0.96652917  0.39812483  0.73385525  1.0
  Ni  Ni755  1  0.96652917  0.73145817  0.73385525  1.0
  Ni  Ni756  1  0.12737205  0.05910962  0.79469618  1.0
  Ni  Ni757  1  0.12737205  0.39244295  0.79469618  1.0
  Ni  Ni758  1  0.12737205  0.72577629  0.79469618  1.0
  Ni  Ni759  1  0.46070538  0.05910962  0.79469618  1.0
  Ni  Ni760  1  0.46070538  0.39244295  0.79469618  1.0
  Ni  Ni761  1  0.46070538  0.72577629  0.79469618  1.0
  Ni  Ni762  1  0.79403871  0.05910962  0.79469618  1.0
  Ni  Ni763  1  0.79403871  0.39244295  0.79469618  1.0
  Ni  Ni764  1  0.79403871  0.72577629  0.79469618  1.0
  Ni  Ni765  1  0.00832443  0.17815724  0.72326761  1.0
  Ni  Ni766  1  0.00832443  0.51149057  0.72326761  1.0
  Ni  Ni767  1  0.00832443  0.84482390  0.72326761  1.0
  Ni  Ni768  1  0.34165776  0.17815724  0.72326761  1.0
  Ni  Ni769  1  0.34165776  0.51149057  0.72326761  1.0
  Ni  Ni770  1  0.34165776  0.84482390  0.72326761  1.0
  Ni  Ni771  1  0.67499110  0.17815724  0.72326761  1.0
  Ni  Ni772  1  0.67499110  0.51149057  0.72326761  1.0
  Ni  Ni773  1  0.67499110  0.84482390  0.72326761  1.0
  Ni  Ni774  1  0.14988362  0.33030138  0.78942032  1.0
  Ni  Ni775  1  0.14988362  0.66363471  0.78942032  1.0
  Ni  Ni776  1  0.14988362  0.99696805  0.78942032  1.0
  Ni  Ni777  1  0.48321695  0.33030138  0.78942032  1.0
  Ni  Ni778  1  0.48321695  0.66363471  0.78942032  1.0
  Ni  Ni779  1  0.48321695  0.99696805  0.78942032  1.0
  Ni  Ni780  1  0.81655029  0.33030138  0.78942032  1.0
  Ni  Ni781  1  0.81655029  0.66363471  0.78942032  1.0
  Ni  Ni782  1  0.81655029  0.99696805  0.78942032  1.0
  Ni  Ni783  1  0.03083600  0.11601567  0.71799175  1.0
  Ni  Ni784  1  0.03083600  0.44934900  0.71799175  1.0
  Ni  Ni785  1  0.03083600  0.78268233  0.71799175  1.0
  Ni  Ni786  1  0.36416933  0.11601567  0.71799175  1.0
  Ni  Ni787  1  0.36416933  0.44934900  0.71799175  1.0
  Ni  Ni788  1  0.36416933  0.78268233  0.71799175  1.0
  Ni  Ni789  1  0.69750267  0.11601567  0.71799175  1.0
  Ni  Ni790  1  0.69750267  0.44934900  0.71799175  1.0
  Ni  Ni791  1  0.69750267  0.78268233  0.71799175  1.0
  Ni  Ni792  1  0.16218369  0.20696864  0.74036296  1.0
  Ni  Ni793  1  0.16218369  0.54030198  0.74036296  1.0
  Ni  Ni794  1  0.16218369  0.87363531  0.74036296  1.0
  Ni  Ni795  1  0.49551702  0.20696864  0.74036296  1.0
  Ni  Ni796  1  0.49551702  0.54030198  0.74036296  1.0
  Ni  Ni797  1  0.49551702  0.87363531  0.74036296  1.0
  Ni  Ni798  1  0.82885036  0.20696864  0.74036296  1.0
  Ni  Ni799  1  0.82885036  0.54030198  0.74036296  1.0
  Ni  Ni800  1  0.82885036  0.87363531  0.74036296  1.0
  Ni  Ni801  1  0.28123131  0.08792102  0.81179154  1.0
  Ni  Ni802  1  0.28123131  0.42125436  0.81179154  1.0
  Ni  Ni803  1  0.28123131  0.75458769  0.81179154  1.0
  Ni  Ni804  1  0.61456464  0.08792102  0.81179154  1.0
  Ni  Ni805  1  0.61456464  0.42125436  0.81179154  1.0
  Ni  Ni806  1  0.61456464  0.75458769  0.81179154  1.0
  Ni  Ni807  1  0.94789798  0.08792102  0.81179154  1.0
  Ni  Ni808  1  0.94789798  0.42125436  0.81179154  1.0
  Ni  Ni809  1  0.94789798  0.75458769  0.81179154  1.0
  Ni  Ni810  1  0.11507198  0.18244236  0.84375354  1.0
  Ni  Ni811  1  0.11507198  0.51577569  0.84375354  1.0
  Ni  Ni812  1  0.11507198  0.84910902  0.84375354  1.0
  Ni  Ni813  1  0.44840531  0.18244236  0.84375354  1.0
  Ni  Ni814  1  0.44840531  0.51577569  0.84375354  1.0
  Ni  Ni815  1  0.44840531  0.84910902  0.84375354  1.0
  Ni  Ni816  1  0.78173864  0.18244236  0.84375354  1.0
  Ni  Ni817  1  0.78173864  0.51577569  0.84375354  1.0
  Ni  Ni818  1  0.78173864  0.84910902  0.84375354  1.0
  Ni  Ni819  1  0.32935769  0.30148998  0.77232496  1.0
  Ni  Ni820  1  0.32935769  0.63482331  0.77232496  1.0
  Ni  Ni821  1  0.32935769  0.96815664  0.77232496  1.0
  Ni  Ni822  1  0.66269102  0.30148998  0.77232496  1.0
  Ni  Ni823  1  0.66269102  0.63482331  0.77232496  1.0
  Ni  Ni824  1  0.66269102  0.96815664  0.77232496  1.0
  Ni  Ni825  1  0.99602436  0.30148998  0.77232496  1.0
  Ni  Ni826  1  0.99602436  0.63482331  0.77232496  1.0
  Ni  Ni827  1  0.99602436  0.96815664  0.77232496  1.0
  Ni  Ni828  1  0.28148498  0.21851502  0.57777254  1.0
  Ni  Ni829  1  0.28148498  0.55184836  0.57777254  1.0
  Ni  Ni830  1  0.28148498  0.88518169  0.57777254  1.0
  Ni  Ni831  1  0.61481831  0.21851502  0.57777254  1.0
  Ni  Ni832  1  0.61481831  0.55184836  0.57777254  1.0
  Ni  Ni833  1  0.61481831  0.88518169  0.57777254  1.0
  Ni  Ni834  1  0.94815164  0.21851502  0.57777254  1.0
  Ni  Ni835  1  0.94815164  0.55184836  0.57777254  1.0
  Ni  Ni836  1  0.94815164  0.88518169  0.57777254  1.0
  Ni  Ni837  1  0.06719926  0.09946740  0.64920111  1.0
  Ni  Ni838  1  0.06719926  0.43280074  0.64920111  1.0
  Ni  Ni839  1  0.06719926  0.76613407  0.64920111  1.0
  Ni  Ni840  1  0.40053260  0.09946740  0.64920111  1.0
  Ni  Ni841  1  0.40053260  0.43280074  0.64920111  1.0
  Ni  Ni842  1  0.40053260  0.76613407  0.64920111  1.0
  Ni  Ni843  1  0.73386593  0.09946740  0.64920111  1.0
  Ni  Ni844  1  0.73386593  0.43280074  0.64920111  1.0
  Ni  Ni845  1  0.73386593  0.76613407  0.64920111  1.0
  Ni  Ni846  1  0.06719926  0.26613407  0.64920111  1.0
  Ni  Ni847  1  0.06719926  0.59946740  0.64920111  1.0
  Ni  Ni848  1  0.06719926  0.93280074  0.64920111  1.0
  Ni  Ni849  1  0.40053260  0.26613407  0.64920111  1.0
  Ni  Ni850  1  0.40053260  0.59946740  0.64920111  1.0
  Ni  Ni851  1  0.40053260  0.93280074  0.64920111  1.0
  Ni  Ni852  1  0.73386593  0.26613407  0.64920111  1.0
  Ni  Ni853  1  0.73386593  0.59946740  0.64920111  1.0
  Ni  Ni854  1  0.73386593  0.93280074  0.64920111  1.0
  Ni  Ni855  1  0.28148498  0.05184836  0.57777254  1.0
  Ni  Ni856  1  0.28148498  0.38518169  0.57777254  1.0
  Ni  Ni857  1  0.28148498  0.71851502  0.57777254  1.0
  Ni  Ni858  1  0.61481831  0.05184836  0.57777254  1.0
  Ni  Ni859  1  0.61481831  0.38518169  0.57777254  1.0
  Ni  Ni860  1  0.61481831  0.71851502  0.57777254  1.0
  Ni  Ni861  1  0.94815164  0.05184836  0.57777254  1.0
  Ni  Ni862  1  0.94815164  0.38518169  0.57777254  1.0
  Ni  Ni863  1  0.94815164  0.71851502  0.57777254  1.0
  Ni  Ni864  1  0.14260824  0.26241010  0.60568089  1.0
  Ni  Ni865  1  0.14260824  0.59574343  0.60568089  1.0
  Ni  Ni866  1  0.14260824  0.92907676  0.60568089  1.0
  Ni  Ni867  1  0.47594157  0.26241010  0.60568089  1.0
  Ni  Ni868  1  0.47594157  0.59574343  0.60568089  1.0
  Ni  Ni869  1  0.47594157  0.92907676  0.60568089  1.0
  Ni  Ni870  1  0.80927490  0.26241010  0.60568089  1.0
  Ni  Ni871  1  0.80927490  0.59574343  0.60568089  1.0
  Ni  Ni872  1  0.80927490  0.92907676  0.60568089  1.0
  Ni  Ni873  1  0.26165586  0.14336248  0.67710946  1.0
  Ni  Ni874  1  0.26165586  0.47669581  0.67710946  1.0
  Ni  Ni875  1  0.26165586  0.81002914  0.67710946  1.0
  Ni  Ni876  1  0.59498919  0.14336248  0.67710946  1.0
  Ni  Ni877  1  0.59498919  0.47669581  0.67710946  1.0
  Ni  Ni878  1  0.59498919  0.81002914  0.67710946  1.0
  Ni  Ni879  1  0.92832252  0.14336248  0.67710946  1.0
  Ni  Ni880  1  0.92832252  0.47669581  0.67710946  1.0
  Ni  Ni881  1  0.92832252  0.81002914  0.67710946  1.0
  Ni  Ni882  1  0.32512362  0.26985805  0.69272132  1.0
  Ni  Ni883  1  0.32512362  0.60319138  0.69272132  1.0
  Ni  Ni884  1  0.32512362  0.93652471  0.69272132  1.0
  Ni  Ni885  1  0.65845695  0.26985805  0.69272132  1.0
  Ni  Ni886  1  0.65845695  0.60319138  0.69272132  1.0
  Ni  Ni887  1  0.65845695  0.93652471  0.69272132  1.0
  Ni  Ni888  1  0.99179029  0.26985805  0.69272132  1.0
  Ni  Ni889  1  0.99179029  0.60319138  0.69272132  1.0
  Ni  Ni890  1  0.99179029  0.93652471  0.69272132  1.0
  Ni  Ni891  1  0.20607600  0.05557233  0.62129275  1.0
  Ni  Ni892  1  0.20607600  0.38890567  0.62129275  1.0
  Ni  Ni893  1  0.20607600  0.72223900  0.62129275  1.0
  Ni  Ni894  1  0.53940933  0.05557233  0.62129275  1.0
  Ni  Ni895  1  0.53940933  0.38890567  0.62129275  1.0
  Ni  Ni896  1  0.53940933  0.72223900  0.62129275  1.0
  Ni  Ni897  1  0.87274267  0.05557233  0.62129275  1.0
  Ni  Ni898  1  0.87274267  0.38890567  0.62129275  1.0
  Ni  Ni899  1  0.87274267  0.72223900  0.62129275  1.0
  Ni  Ni900  1  0.22245686  0.26312348  0.57450246  1.0
  Ni  Ni901  1  0.22245686  0.59645681  0.57450246  1.0
  Ni  Ni902  1  0.22245686  0.92979014  0.57450246  1.0
  Ni  Ni903  1  0.55579019  0.26312348  0.57450246  1.0
  Ni  Ni904  1  0.55579019  0.59645681  0.57450246  1.0
  Ni  Ni905  1  0.55579019  0.92979014  0.57450246  1.0
  Ni  Ni906  1  0.88912352  0.26312348  0.57450246  1.0
  Ni  Ni907  1  0.88912352  0.59645681  0.57450246  1.0
  Ni  Ni908  1  0.88912352  0.92979014  0.57450246  1.0
  Ni  Ni909  1  0.00817114  0.14407586  0.64593104  1.0
  Ni  Ni910  1  0.00817114  0.47740919  0.64593104  1.0
  Ni  Ni911  1  0.00817114  0.81074252  0.64593104  1.0
  Ni  Ni912  1  0.34150448  0.14407586  0.64593104  1.0
  Ni  Ni913  1  0.34150448  0.47740919  0.64593104  1.0
  Ni  Ni914  1  0.34150448  0.81074252  0.64593104  1.0
  Ni  Ni915  1  0.67483781  0.14407586  0.64593104  1.0
  Ni  Ni916  1  0.67483781  0.47740919  0.64593104  1.0
  Ni  Ni917  1  0.67483781  0.81074252  0.64593104  1.0
  Ni  Ni918  1  0.00717976  0.17390657  0.58104261  1.0
  Ni  Ni919  1  0.00717976  0.50723990  0.58104261  1.0
  Ni  Ni920  1  0.00717976  0.84057324  0.58104261  1.0
  Ni  Ni921  1  0.34051310  0.17390657  0.58104261  1.0
  Ni  Ni922  1  0.34051310  0.50723990  0.58104261  1.0
  Ni  Ni923  1  0.34051310  0.84057324  0.58104261  1.0
  Ni  Ni924  1  0.67384643  0.17390657  0.58104261  1.0
  Ni  Ni925  1  0.67384643  0.50723990  0.58104261  1.0
  Ni  Ni926  1  0.67384643  0.84057324  0.58104261  1.0
  Ni  Ni927  1  0.12622738  0.05485895  0.65247118  1.0
  Ni  Ni928  1  0.12622738  0.38819229  0.65247118  1.0
  Ni  Ni929  1  0.12622738  0.72152562  0.65247118  1.0
  Ni  Ni930  1  0.45956071  0.05485895  0.65247118  1.0
  Ni  Ni931  1  0.45956071  0.38819229  0.65247118  1.0
  Ni  Ni932  1  0.45956071  0.72152562  0.65247118  1.0
  Ni  Ni933  1  0.79289405  0.05485895  0.65247118  1.0
  Ni  Ni934  1  0.79289405  0.38819229  0.65247118  1.0
  Ni  Ni935  1  0.79289405  0.72152562  0.65247118  1.0
  Ni  Ni936  1  0.21796883  0.02696717  0.68176625  1.0
  Ni  Ni937  1  0.21796883  0.36030050  0.68176625  1.0
  Ni  Ni938  1  0.21796883  0.69363383  0.68176625  1.0
  Ni  Ni939  1  0.55130217  0.02696717  0.68176625  1.0
  Ni  Ni940  1  0.55130217  0.36030050  0.68176625  1.0
  Ni  Ni941  1  0.55130217  0.69363383  0.68176625  1.0
  Ni  Ni942  1  0.88463550  0.02696717  0.68176625  1.0
  Ni  Ni943  1  0.88463550  0.36030050  0.68176625  1.0
  Ni  Ni944  1  0.88463550  0.69363383  0.68176625  1.0
  Ni  Ni945  1  0.09892121  0.14601479  0.61033768  1.0
  Ni  Ni946  1  0.09892121  0.47934812  0.61033768  1.0
  Ni  Ni947  1  0.09892121  0.81268145  0.61033768  1.0
  Ni  Ni948  1  0.43225455  0.14601479  0.61033768  1.0
  Ni  Ni949  1  0.43225455  0.47934812  0.61033768  1.0
  Ni  Ni950  1  0.43225455  0.81268145  0.61033768  1.0
  Ni  Ni951  1  0.76558788  0.14601479  0.61033768  1.0
  Ni  Ni952  1  0.76558788  0.47934812  0.61033768  1.0
  Ni  Ni953  1  0.76558788  0.81268145  0.61033768  1.0
  Ni  Ni954  1  0.24976302  0.17196764  0.61663596  1.0
  Ni  Ni955  1  0.24976302  0.50530098  0.61663596  1.0
  Ni  Ni956  1  0.24976302  0.83863431  0.61663596  1.0
  Ni  Ni957  1  0.58309636  0.17196764  0.61663596  1.0
  Ni  Ni958  1  0.58309636  0.50530098  0.61663596  1.0
  Ni  Ni959  1  0.58309636  0.83863431  0.61663596  1.0
  Ni  Ni960  1  0.91642969  0.17196764  0.61663596  1.0
  Ni  Ni961  1  0.91642969  0.50530098  0.61663596  1.0
  Ni  Ni962  1  0.91642969  0.83863431  0.61663596  1.0
  Ni  Ni963  1  0.03547731  0.05292002  0.68806454  1.0
  Ni  Ni964  1  0.03547731  0.38625336  0.68806454  1.0
  Ni  Ni965  1  0.03547731  0.71958669  0.68806454  1.0
  Ni  Ni966  1  0.36881064  0.05292002  0.68806454  1.0
  Ni  Ni967  1  0.36881064  0.38625336  0.68806454  1.0
  Ni  Ni968  1  0.36881064  0.71958669  0.68806454  1.0
  Ni  Ni969  1  0.70214398  0.05292002  0.68806454  1.0
  Ni  Ni970  1  0.70214398  0.38625336  0.68806454  1.0
  Ni  Ni971  1  0.70214398  0.71958669  0.68806454  1.0
  Ni  Ni972  1  0.28691698  0.01509569  0.63597554  1.0
  Ni  Ni973  1  0.28691698  0.34842902  0.63597554  1.0
  Ni  Ni974  1  0.28691698  0.68176236  0.63597554  1.0
  Ni  Ni975  1  0.62025031  0.01509569  0.63597554  1.0
  Ni  Ni976  1  0.62025031  0.34842902  0.63597554  1.0
  Ni  Ni977  1  0.62025031  0.68176236  0.63597554  1.0
  Ni  Ni978  1  0.95358364  0.01509569  0.63597554  1.0
  Ni  Ni979  1  0.95358364  0.34842902  0.63597554  1.0
  Ni  Ni980  1  0.95358364  0.68176236  0.63597554  1.0
  Ni  Ni981  1  0.07263126  0.22938140  0.70740411  1.0
  Ni  Ni982  1  0.07263126  0.56271474  0.70740411  1.0
  Ni  Ni983  1  0.07263126  0.89604807  0.70740411  1.0
  Ni  Ni984  1  0.40596460  0.22938140  0.70740411  1.0
  Ni  Ni985  1  0.40596460  0.56271474  0.70740411  1.0
  Ni  Ni986  1  0.40596460  0.89604807  0.70740411  1.0
  Ni  Ni987  1  0.73929793  0.22938140  0.70740411  1.0
  Ni  Ni988  1  0.73929793  0.56271474  0.70740411  1.0
  Ni  Ni989  1  0.73929793  0.89604807  0.70740411  1.0
  Ni  Ni990  1  0.18081488  0.18383912  0.66242668  1.0
  Ni  Ni991  1  0.18081488  0.51717245  0.66242668  1.0
  Ni  Ni992  1  0.18081488  0.85050579  0.66242668  1.0
  Ni  Ni993  1  0.51414821  0.18383912  0.66242668  1.0
  Ni  Ni994  1  0.51414821  0.51717245  0.66242668  1.0
  Ni  Ni995  1  0.51414821  0.85050579  0.66242668  1.0
  Ni  Ni996  1  0.84748155  0.18383912  0.66242668  1.0
  Ni  Ni997  1  0.84748155  0.51717245  0.66242668  1.0
  Ni  Ni998  1  0.84748155  0.85050579  0.66242668  1.0
  Ni  Ni999  1  0.06176726  0.30288674  0.59099811  1.0
  Ni  Ni1000  1  0.06176726  0.63622007  0.59099811  1.0
  Ni  Ni1001  1  0.06176726  0.96955340  0.59099811  1.0
  Ni  Ni1002  1  0.39510060  0.30288674  0.59099811  1.0
  Ni  Ni1003  1  0.39510060  0.63622007  0.59099811  1.0
  Ni  Ni1004  1  0.39510060  0.96955340  0.59099811  1.0
  Ni  Ni1005  1  0.72843393  0.30288674  0.59099811  1.0
  Ni  Ni1006  1  0.72843393  0.63622007  0.59099811  1.0
  Ni  Ni1007  1  0.72843393  0.96955340  0.59099811  1.0
  Ni  Ni1008  1  0.22261014  0.29720486  0.65183904  1.0
  Ni  Ni1009  1  0.22261014  0.63053819  0.65183904  1.0
  Ni  Ni1010  1  0.22261014  0.96387152  0.65183904  1.0
  Ni  Ni1011  1  0.55594348  0.29720486  0.65183904  1.0
  Ni  Ni1012  1  0.55594348  0.63053819  0.65183904  1.0
  Ni  Ni1013  1  0.55594348  0.96387152  0.65183904  1.0
  Ni  Ni1014  1  0.88927681  0.29720486  0.65183904  1.0
  Ni  Ni1015  1  0.88927681  0.63053819  0.65183904  1.0
  Ni  Ni1016  1  0.88927681  0.96387152  0.65183904  1.0
  Ni  Ni1017  1  0.10356252  0.08291914  0.58041046  1.0
  Ni  Ni1018  1  0.10356252  0.41625248  0.58041046  1.0
  Ni  Ni1019  1  0.10356252  0.74958581  0.58041046  1.0
  Ni  Ni1020  1  0.43689586  0.08291914  0.58041046  1.0
  Ni  Ni1021  1  0.43689586  0.41625248  0.58041046  1.0
  Ni  Ni1022  1  0.43689586  0.74958581  0.58041046  1.0
  Ni  Ni1023  1  0.77022919  0.08291914  0.58041046  1.0
  Ni  Ni1024  1  0.77022919  0.41625248  0.58041046  1.0
  Ni  Ni1025  1  0.77022919  0.74958581  0.58041046  1.0
  Ni  Ni1026  1  0.24512171  0.23506329  0.64656318  1.0
  Ni  Ni1027  1  0.24512171  0.56839662  0.64656318  1.0
  Ni  Ni1028  1  0.24512171  0.90172995  0.64656318  1.0
  Ni  Ni1029  1  0.57845505  0.23506329  0.64656318  1.0
  Ni  Ni1030  1  0.57845505  0.56839662  0.64656318  1.0
  Ni  Ni1031  1  0.57845505  0.90172995  0.64656318  1.0
  Ni  Ni1032  1  0.91178838  0.23506329  0.64656318  1.0
  Ni  Ni1033  1  0.91178838  0.56839662  0.64656318  1.0
  Ni  Ni1034  1  0.91178838  0.90172995  0.64656318  1.0
  Ni  Ni1035  1  0.12607410  0.02077757  0.57513461  1.0
  Ni  Ni1036  1  0.12607410  0.35411090  0.57513461  1.0
  Ni  Ni1037  1  0.12607410  0.68744424  0.57513461  1.0
  Ni  Ni1038  1  0.45940743  0.02077757  0.57513461  1.0
  Ni  Ni1039  1  0.45940743  0.35411090  0.57513461  1.0
  Ni  Ni1040  1  0.45940743  0.68744424  0.57513461  1.0
  Ni  Ni1041  1  0.79274076  0.02077757  0.57513461  1.0
  Ni  Ni1042  1  0.79274076  0.35411090  0.57513461  1.0
  Ni  Ni1043  1  0.79274076  0.68744424  0.57513461  1.0
  Ni  Ni1044  1  0.25742179  0.11173055  0.59750582  1.0
  Ni  Ni1045  1  0.25742179  0.44506388  0.59750582  1.0
  Ni  Ni1046  1  0.25742179  0.77839721  0.59750582  1.0
  Ni  Ni1047  1  0.59075512  0.11173055  0.59750582  1.0
  Ni  Ni1048  1  0.59075512  0.44506388  0.59750582  1.0
  Ni  Ni1049  1  0.59075512  0.77839721  0.59750582  1.0
  Ni  Ni1050  1  0.92408845  0.11173055  0.59750582  1.0
  Ni  Ni1051  1  0.92408845  0.44506388  0.59750582  1.0
  Ni  Ni1052  1  0.92408845  0.77839721  0.59750582  1.0
  Ni  Ni1053  1  0.04313607  0.32601626  0.66893439  1.0
  Ni  Ni1054  1  0.04313607  0.65934960  0.66893439  1.0
  Ni  Ni1055  1  0.04313607  0.99268293  0.66893439  1.0
  Ni  Ni1056  1  0.37646940  0.32601626  0.66893439  1.0
  Ni  Ni1057  1  0.37646940  0.65934960  0.66893439  1.0
  Ni  Ni1058  1  0.37646940  0.99268293  0.66893439  1.0
  Ni  Ni1059  1  0.70980274  0.32601626  0.66893439  1.0
  Ni  Ni1060  1  0.70980274  0.65934960  0.66893439  1.0
  Ni  Ni1061  1  0.70980274  0.99268293  0.66893439  1.0
  Ni  Ni1062  1  0.21031007  0.08720426  0.70089639  1.0
  Ni  Ni1063  1  0.21031007  0.42053760  0.70089639  1.0
  Ni  Ni1064  1  0.21031007  0.75387093  0.70089639  1.0
  Ni  Ni1065  1  0.54364340  0.08720426  0.70089639  1.0
  Ni  Ni1066  1  0.54364340  0.42053760  0.70089639  1.0
  Ni  Ni1067  1  0.54364340  0.75387093  0.70089639  1.0
  Ni  Ni1068  1  0.87697674  0.08720426  0.70089639  1.0
  Ni  Ni1069  1  0.87697674  0.42053760  0.70089639  1.0
  Ni  Ni1070  1  0.87697674  0.75387093  0.70089639  1.0
  Ni  Ni1071  1  0.09126245  0.20625188  0.62946782  1.0
  Ni  Ni1072  1  0.09126245  0.53958521  0.62946782  1.0
  Ni  Ni1073  1  0.09126245  0.87291855  0.62946782  1.0
  Ni  Ni1074  1  0.42459579  0.20625188  0.62946782  1.0
  Ni  Ni1075  1  0.42459579  0.53958521  0.62946782  1.0
  Ni  Ni1076  1  0.42459579  0.87291855  0.62946782  1.0
  Ni  Ni1077  1  0.75792912  0.20625188  0.62946782  1.0
  Ni  Ni1078  1  0.75792912  0.53958521  0.62946782  1.0
  Ni  Ni1079  1  0.75792912  0.87291855  0.62946782  1.0
