# generated using pymatgen
data_Hf3Ni7
_symmetry_space_group_name_H-M   'P 1'
_cell_length_a   26.67047644
_cell_length_b   36.66003021
_cell_length_c   26.63219044
_cell_angle_alpha   84.43699331
_cell_angle_beta   84.71396951
_cell_angle_gamma   71.01203217
_symmetry_Int_Tables_number   1
_chemical_formula_structural   Hf3Ni7
_chemical_formula_sum   'Hf216 Ni504'
_cell_volume   24455.68765610
_cell_formula_units_Z   72
loop_
 _symmetry_equiv_pos_site_id
 _symmetry_equiv_pos_as_xyz
  1  'x, y, z'
loop_
 _atom_site_type_symbol
 _atom_site_label
 _atom_site_symmetry_multiplicity
 _atom_site_fract_x
 _atom_site_fract_y
 _atom_site_fract_z
 _atom_site_occupancy
  Hf  Hf0  1  0.07705840  0.08269363  0.18118610  1.0
  Hf  Hf1  1  0.07705840  0.41602697  0.18118610  1.0
  Hf  Hf2  1  0.07705840  0.74936030  0.18118610  1.0
  Hf  Hf3  1  0.41039173  0.08269363  0.18118610  1.0
  Hf  Hf4  1  0.41039173  0.41602697  0.18118610  1.0
  Hf  Hf5  1  0.41039173  0.74936030  0.18118610  1.0
  Hf  Hf6  1  0.74372507  0.08269363  0.18118610  1.0
  Hf  Hf7  1  0.74372507  0.41602697  0.18118610  1.0
  Hf  Hf8  1  0.74372507  0.74936030  0.18118610  1.0
  Hf  Hf9  1  0.01039173  0.28269363  0.08118610  1.0
  Hf  Hf10  1  0.01039173  0.61602697  0.08118610  1.0
  Hf  Hf11  1  0.01039173  0.94936030  0.08118610  1.0
  Hf  Hf12  1  0.34372507  0.28269363  0.08118610  1.0
  Hf  Hf13  1  0.34372507  0.61602697  0.08118610  1.0
  Hf  Hf14  1  0.34372507  0.94936030  0.08118610  1.0
  Hf  Hf15  1  0.67705840  0.28269363  0.08118610  1.0
  Hf  Hf16  1  0.67705840  0.61602697  0.08118610  1.0
  Hf  Hf17  1  0.67705840  0.94936030  0.08118610  1.0
  Hf  Hf18  1  0.05015400  0.18703350  0.00963250  1.0
  Hf  Hf19  1  0.05015400  0.52036683  0.00963250  1.0
  Hf  Hf20  1  0.05015400  0.85370017  0.00963250  1.0
  Hf  Hf21  1  0.38348733  0.18703350  0.00963250  1.0
  Hf  Hf22  1  0.38348733  0.52036683  0.00963250  1.0
  Hf  Hf23  1  0.38348733  0.85370017  0.00963250  1.0
  Hf  Hf24  1  0.71682067  0.18703350  0.00963250  1.0
  Hf  Hf25  1  0.71682067  0.52036683  0.00963250  1.0
  Hf  Hf26  1  0.71682067  0.85370017  0.00963250  1.0
  Hf  Hf27  1  0.11682067  0.32036683  0.10963250  1.0
  Hf  Hf28  1  0.11682067  0.65370017  0.10963250  1.0
  Hf  Hf29  1  0.11682067  0.98703350  0.10963250  1.0
  Hf  Hf30  1  0.45015400  0.32036683  0.10963250  1.0
  Hf  Hf31  1  0.45015400  0.65370017  0.10963250  1.0
  Hf  Hf32  1  0.45015400  0.98703350  0.10963250  1.0
  Hf  Hf33  1  0.78348733  0.32036683  0.10963250  1.0
  Hf  Hf34  1  0.78348733  0.65370017  0.10963250  1.0
  Hf  Hf35  1  0.78348733  0.98703350  0.10963250  1.0
  Hf  Hf36  1  0.32061680  0.09714077  0.09189570  1.0
  Hf  Hf37  1  0.32061680  0.43047410  0.09189570  1.0
  Hf  Hf38  1  0.32061680  0.76380743  0.09189570  1.0
  Hf  Hf39  1  0.65395013  0.09714077  0.09189570  1.0
  Hf  Hf40  1  0.65395013  0.43047410  0.09189570  1.0
  Hf  Hf41  1  0.65395013  0.76380743  0.09189570  1.0
  Hf  Hf42  1  0.98728347  0.09714077  0.09189570  1.0
  Hf  Hf43  1  0.98728347  0.43047410  0.09189570  1.0
  Hf  Hf44  1  0.98728347  0.76380743  0.09189570  1.0
  Hf  Hf45  1  0.05395013  0.23047410  0.19189570  1.0
  Hf  Hf46  1  0.05395013  0.56380743  0.19189570  1.0
  Hf  Hf47  1  0.05395013  0.89714077  0.19189570  1.0
  Hf  Hf48  1  0.38728347  0.23047410  0.19189570  1.0
  Hf  Hf49  1  0.38728347  0.56380743  0.19189570  1.0
  Hf  Hf50  1  0.38728347  0.89714077  0.19189570  1.0
  Hf  Hf51  1  0.72061680  0.23047410  0.19189570  1.0
  Hf  Hf52  1  0.72061680  0.56380743  0.19189570  1.0
  Hf  Hf53  1  0.72061680  0.89714077  0.19189570  1.0
  Hf  Hf54  1  0.13992893  0.17258637  0.09892290  1.0
  Hf  Hf55  1  0.13992893  0.50591970  0.09892290  1.0
  Hf  Hf56  1  0.13992893  0.83925303  0.09892290  1.0
  Hf  Hf57  1  0.47326227  0.17258637  0.09892290  1.0
  Hf  Hf58  1  0.47326227  0.50591970  0.09892290  1.0
  Hf  Hf59  1  0.47326227  0.83925303  0.09892290  1.0
  Hf  Hf60  1  0.80659560  0.17258637  0.09892290  1.0
  Hf  Hf61  1  0.80659560  0.50591970  0.09892290  1.0
  Hf  Hf62  1  0.80659560  0.83925303  0.09892290  1.0
  Hf  Hf63  1  0.20659560  0.30591970  0.19892290  1.0
  Hf  Hf64  1  0.20659560  0.63925303  0.19892290  1.0
  Hf  Hf65  1  0.20659560  0.97258637  0.19892290  1.0
  Hf  Hf66  1  0.53992893  0.30591970  0.19892290  1.0
  Hf  Hf67  1  0.53992893  0.63925303  0.19892290  1.0
  Hf  Hf68  1  0.53992893  0.97258637  0.19892290  1.0
  Hf  Hf69  1  0.87326227  0.30591970  0.19892290  1.0
  Hf  Hf70  1  0.87326227  0.63925303  0.19892290  1.0
  Hf  Hf71  1  0.87326227  0.97258637  0.19892290  1.0
  Hf  Hf72  1  0.31618140  0.17096397  0.16192060  1.0
  Hf  Hf73  1  0.31618140  0.50429730  0.16192060  1.0
  Hf  Hf74  1  0.31618140  0.83763063  0.16192060  1.0
  Hf  Hf75  1  0.64951473  0.17096397  0.16192060  1.0
  Hf  Hf76  1  0.64951473  0.50429730  0.16192060  1.0
  Hf  Hf77  1  0.64951473  0.83763063  0.16192060  1.0
  Hf  Hf78  1  0.98284807  0.17096397  0.16192060  1.0
  Hf  Hf79  1  0.98284807  0.50429730  0.16192060  1.0
  Hf  Hf80  1  0.98284807  0.83763063  0.16192060  1.0
  Hf  Hf81  1  0.24951473  0.03763063  0.06192060  1.0
  Hf  Hf82  1  0.24951473  0.37096397  0.06192060  1.0
  Hf  Hf83  1  0.24951473  0.70429730  0.06192060  1.0
  Hf  Hf84  1  0.58284807  0.03763063  0.06192060  1.0
  Hf  Hf85  1  0.58284807  0.37096397  0.06192060  1.0
  Hf  Hf86  1  0.58284807  0.70429730  0.06192060  1.0
  Hf  Hf87  1  0.91618140  0.03763063  0.06192060  1.0
  Hf  Hf88  1  0.91618140  0.37096397  0.06192060  1.0
  Hf  Hf89  1  0.91618140  0.70429730  0.06192060  1.0
  Hf  Hf90  1  0.14436433  0.09876317  0.02889800  1.0
  Hf  Hf91  1  0.14436433  0.43209650  0.02889800  1.0
  Hf  Hf92  1  0.14436433  0.76542983  0.02889800  1.0
  Hf  Hf93  1  0.47769767  0.09876317  0.02889800  1.0
  Hf  Hf94  1  0.47769767  0.43209650  0.02889800  1.0
  Hf  Hf95  1  0.47769767  0.76542983  0.02889800  1.0
  Hf  Hf96  1  0.81103100  0.09876317  0.02889800  1.0
  Hf  Hf97  1  0.81103100  0.43209650  0.02889800  1.0
  Hf  Hf98  1  0.81103100  0.76542983  0.02889800  1.0
  Hf  Hf99  1  0.21103100  0.23209650  0.12889800  1.0
  Hf  Hf100  1  0.21103100  0.56542983  0.12889800  1.0
  Hf  Hf101  1  0.21103100  0.89876317  0.12889800  1.0
  Hf  Hf102  1  0.54436433  0.23209650  0.12889800  1.0
  Hf  Hf103  1  0.54436433  0.56542983  0.12889800  1.0
  Hf  Hf104  1  0.54436433  0.89876317  0.12889800  1.0
  Hf  Hf105  1  0.87769767  0.23209650  0.12889800  1.0
  Hf  Hf106  1  0.87769767  0.56542983  0.12889800  1.0
  Hf  Hf107  1  0.87769767  0.89876317  0.12889800  1.0
  Hf  Hf108  1  0.21039173  0.01602697  0.38118610  1.0
  Hf  Hf109  1  0.21039173  0.34936030  0.38118610  1.0
  Hf  Hf110  1  0.21039173  0.68269363  0.38118610  1.0
  Hf  Hf111  1  0.54372507  0.01602697  0.38118610  1.0
  Hf  Hf112  1  0.54372507  0.34936030  0.38118610  1.0
  Hf  Hf113  1  0.54372507  0.68269363  0.38118610  1.0
  Hf  Hf114  1  0.87705840  0.01602697  0.38118610  1.0
  Hf  Hf115  1  0.87705840  0.34936030  0.38118610  1.0
  Hf  Hf116  1  0.87705840  0.68269363  0.38118610  1.0
  Hf  Hf117  1  0.14372507  0.21602697  0.28118610  1.0
  Hf  Hf118  1  0.14372507  0.54936030  0.28118610  1.0
  Hf  Hf119  1  0.14372507  0.88269363  0.28118610  1.0
  Hf  Hf120  1  0.47705840  0.21602697  0.28118610  1.0
  Hf  Hf121  1  0.47705840  0.54936030  0.28118610  1.0
  Hf  Hf122  1  0.47705840  0.88269363  0.28118610  1.0
  Hf  Hf123  1  0.81039173  0.21602697  0.28118610  1.0
  Hf  Hf124  1  0.81039173  0.54936030  0.28118610  1.0
  Hf  Hf125  1  0.81039173  0.88269363  0.28118610  1.0
  Hf  Hf126  1  0.18348733  0.12036683  0.20963250  1.0
  Hf  Hf127  1  0.18348733  0.45370017  0.20963250  1.0
  Hf  Hf128  1  0.18348733  0.78703350  0.20963250  1.0
  Hf  Hf129  1  0.51682067  0.12036683  0.20963250  1.0
  Hf  Hf130  1  0.51682067  0.45370017  0.20963250  1.0
  Hf  Hf131  1  0.51682067  0.78703350  0.20963250  1.0
  Hf  Hf132  1  0.85015400  0.12036683  0.20963250  1.0
  Hf  Hf133  1  0.85015400  0.45370017  0.20963250  1.0
  Hf  Hf134  1  0.85015400  0.78703350  0.20963250  1.0
  Hf  Hf135  1  0.25015400  0.25370017  0.30963250  1.0
  Hf  Hf136  1  0.25015400  0.58703350  0.30963250  1.0
  Hf  Hf137  1  0.25015400  0.92036683  0.30963250  1.0
  Hf  Hf138  1  0.58348733  0.25370017  0.30963250  1.0
  Hf  Hf139  1  0.58348733  0.58703350  0.30963250  1.0
  Hf  Hf140  1  0.58348733  0.92036683  0.30963250  1.0
  Hf  Hf141  1  0.91682067  0.25370017  0.30963250  1.0
  Hf  Hf142  1  0.91682067  0.58703350  0.30963250  1.0
  Hf  Hf143  1  0.91682067  0.92036683  0.30963250  1.0
  Hf  Hf144  1  0.12061680  0.03047410  0.29189570  1.0
  Hf  Hf145  1  0.12061680  0.36380743  0.29189570  1.0
  Hf  Hf146  1  0.12061680  0.69714077  0.29189570  1.0
  Hf  Hf147  1  0.45395013  0.03047410  0.29189570  1.0
  Hf  Hf148  1  0.45395013  0.36380743  0.29189570  1.0
  Hf  Hf149  1  0.45395013  0.69714077  0.29189570  1.0
  Hf  Hf150  1  0.78728347  0.03047410  0.29189570  1.0
  Hf  Hf151  1  0.78728347  0.36380743  0.29189570  1.0
  Hf  Hf152  1  0.78728347  0.69714077  0.29189570  1.0
  Hf  Hf153  1  0.18728347  0.16380743  0.39189570  1.0
  Hf  Hf154  1  0.18728347  0.49714077  0.39189570  1.0
  Hf  Hf155  1  0.18728347  0.83047410  0.39189570  1.0
  Hf  Hf156  1  0.52061680  0.16380743  0.39189570  1.0
  Hf  Hf157  1  0.52061680  0.49714077  0.39189570  1.0
  Hf  Hf158  1  0.52061680  0.83047410  0.39189570  1.0
  Hf  Hf159  1  0.85395013  0.16380743  0.39189570  1.0
  Hf  Hf160  1  0.85395013  0.49714077  0.39189570  1.0
  Hf  Hf161  1  0.85395013  0.83047410  0.39189570  1.0
  Hf  Hf162  1  0.27326227  0.10591970  0.29892290  1.0
  Hf  Hf163  1  0.27326227  0.43925303  0.29892290  1.0
  Hf  Hf164  1  0.27326227  0.77258637  0.29892290  1.0
  Hf  Hf165  1  0.60659560  0.10591970  0.29892290  1.0
  Hf  Hf166  1  0.60659560  0.43925303  0.29892290  1.0
  Hf  Hf167  1  0.60659560  0.77258637  0.29892290  1.0
  Hf  Hf168  1  0.93992893  0.10591970  0.29892290  1.0
  Hf  Hf169  1  0.93992893  0.43925303  0.29892290  1.0
  Hf  Hf170  1  0.93992893  0.77258637  0.29892290  1.0
  Hf  Hf171  1  0.00659560  0.23925303  0.39892290  1.0
  Hf  Hf172  1  0.00659560  0.57258637  0.39892290  1.0
  Hf  Hf173  1  0.00659560  0.90591970  0.39892290  1.0
  Hf  Hf174  1  0.33992893  0.23925303  0.39892290  1.0
  Hf  Hf175  1  0.33992893  0.57258637  0.39892290  1.0
  Hf  Hf176  1  0.33992893  0.90591970  0.39892290  1.0
  Hf  Hf177  1  0.67326227  0.23925303  0.39892290  1.0
  Hf  Hf178  1  0.67326227  0.57258637  0.39892290  1.0
  Hf  Hf179  1  0.67326227  0.90591970  0.39892290  1.0
  Hf  Hf180  1  0.11618140  0.10429730  0.36192060  1.0
  Hf  Hf181  1  0.11618140  0.43763063  0.36192060  1.0
  Hf  Hf182  1  0.11618140  0.77096397  0.36192060  1.0
  Hf  Hf183  1  0.44951473  0.10429730  0.36192060  1.0
  Hf  Hf184  1  0.44951473  0.43763063  0.36192060  1.0
  Hf  Hf185  1  0.44951473  0.77096397  0.36192060  1.0
  Hf  Hf186  1  0.78284807  0.10429730  0.36192060  1.0
  Hf  Hf187  1  0.78284807  0.43763063  0.36192060  1.0
  Hf  Hf188  1  0.78284807  0.77096397  0.36192060  1.0
  Hf  Hf189  1  0.04951473  0.30429730  0.26192060  1.0
  Hf  Hf190  1  0.04951473  0.63763063  0.26192060  1.0
  Hf  Hf191  1  0.04951473  0.97096397  0.26192060  1.0
  Hf  Hf192  1  0.38284807  0.30429730  0.26192060  1.0
  Hf  Hf193  1  0.38284807  0.63763063  0.26192060  1.0
  Hf  Hf194  1  0.38284807  0.97096397  0.26192060  1.0
  Hf  Hf195  1  0.71618140  0.30429730  0.26192060  1.0
  Hf  Hf196  1  0.71618140  0.63763063  0.26192060  1.0
  Hf  Hf197  1  0.71618140  0.97096397  0.26192060  1.0
  Hf  Hf198  1  0.27769767  0.03209650  0.22889800  1.0
  Hf  Hf199  1  0.27769767  0.36542983  0.22889800  1.0
  Hf  Hf200  1  0.27769767  0.69876317  0.22889800  1.0
  Hf  Hf201  1  0.61103100  0.03209650  0.22889800  1.0
  Hf  Hf202  1  0.61103100  0.36542983  0.22889800  1.0
  Hf  Hf203  1  0.61103100  0.69876317  0.22889800  1.0
  Hf  Hf204  1  0.94436433  0.03209650  0.22889800  1.0
  Hf  Hf205  1  0.94436433  0.36542983  0.22889800  1.0
  Hf  Hf206  1  0.94436433  0.69876317  0.22889800  1.0
  Hf  Hf207  1  0.01103100  0.16542983  0.32889800  1.0
  Hf  Hf208  1  0.01103100  0.49876317  0.32889800  1.0
  Hf  Hf209  1  0.01103100  0.83209650  0.32889800  1.0
  Hf  Hf210  1  0.34436433  0.16542983  0.32889800  1.0
  Hf  Hf211  1  0.34436433  0.49876317  0.32889800  1.0
  Hf  Hf212  1  0.34436433  0.83209650  0.32889800  1.0
  Hf  Hf213  1  0.67769767  0.16542983  0.32889800  1.0
  Hf  Hf214  1  0.67769767  0.49876317  0.32889800  1.0
  Hf  Hf215  1  0.67769767  0.83209650  0.32889800  1.0
  Ni  Ni216  1  0.29693953  0.10153023  0.19540930  1.0
  Ni  Ni217  1  0.29693953  0.43486357  0.19540930  1.0
  Ni  Ni218  1  0.29693953  0.76819690  0.19540930  1.0
  Ni  Ni219  1  0.63027287  0.10153023  0.19540930  1.0
  Ni  Ni220  1  0.63027287  0.43486357  0.19540930  1.0
  Ni  Ni221  1  0.63027287  0.76819690  0.19540930  1.0
  Ni  Ni222  1  0.96360620  0.10153023  0.19540930  1.0
  Ni  Ni223  1  0.96360620  0.43486357  0.19540930  1.0
  Ni  Ni224  1  0.96360620  0.76819690  0.19540930  1.0
  Ni  Ni225  1  0.23027287  0.30153023  0.09540930  1.0
  Ni  Ni226  1  0.23027287  0.63486357  0.09540930  1.0
  Ni  Ni227  1  0.23027287  0.96819690  0.09540930  1.0
  Ni  Ni228  1  0.56360620  0.30153023  0.09540930  1.0
  Ni  Ni229  1  0.56360620  0.63486357  0.09540930  1.0
  Ni  Ni230  1  0.56360620  0.96819690  0.09540930  1.0
  Ni  Ni231  1  0.89693953  0.30153023  0.09540930  1.0
  Ni  Ni232  1  0.89693953  0.63486357  0.09540930  1.0
  Ni  Ni233  1  0.89693953  0.96819690  0.09540930  1.0
  Ni  Ni234  1  0.06360620  0.13486357  0.09540930  1.0
  Ni  Ni235  1  0.06360620  0.46819690  0.09540930  1.0
  Ni  Ni236  1  0.06360620  0.80153023  0.09540930  1.0
  Ni  Ni237  1  0.39693953  0.13486357  0.09540930  1.0
  Ni  Ni238  1  0.39693953  0.46819690  0.09540930  1.0
  Ni  Ni239  1  0.39693953  0.80153023  0.09540930  1.0
  Ni  Ni240  1  0.73027287  0.13486357  0.09540930  1.0
  Ni  Ni241  1  0.73027287  0.46819690  0.09540930  1.0
  Ni  Ni242  1  0.73027287  0.80153023  0.09540930  1.0
  Ni  Ni243  1  0.13027287  0.26819690  0.19540930  1.0
  Ni  Ni244  1  0.13027287  0.60153023  0.19540930  1.0
  Ni  Ni245  1  0.13027287  0.93486357  0.19540930  1.0
  Ni  Ni246  1  0.46360620  0.26819690  0.19540930  1.0
  Ni  Ni247  1  0.46360620  0.60153023  0.19540930  1.0
  Ni  Ni248  1  0.46360620  0.93486357  0.19540930  1.0
  Ni  Ni249  1  0.79693953  0.26819690  0.19540930  1.0
  Ni  Ni250  1  0.79693953  0.60153023  0.19540930  1.0
  Ni  Ni251  1  0.79693953  0.93486357  0.19540930  1.0
  Ni  Ni252  1  0.15567847  0.09938043  0.12599020  1.0
  Ni  Ni253  1  0.15567847  0.43271377  0.12599020  1.0
  Ni  Ni254  1  0.15567847  0.76604710  0.12599020  1.0
  Ni  Ni255  1  0.48901180  0.09938043  0.12599020  1.0
  Ni  Ni256  1  0.48901180  0.43271377  0.12599020  1.0
  Ni  Ni257  1  0.48901180  0.76604710  0.12599020  1.0
  Ni  Ni258  1  0.82234513  0.09938043  0.12599020  1.0
  Ni  Ni259  1  0.82234513  0.43271377  0.12599020  1.0
  Ni  Ni260  1  0.82234513  0.76604710  0.12599020  1.0
  Ni  Ni261  1  0.08901180  0.29938043  0.02599020  1.0
  Ni  Ni262  1  0.08901180  0.63271377  0.02599020  1.0
  Ni  Ni263  1  0.08901180  0.96604710  0.02599020  1.0
  Ni  Ni264  1  0.42234513  0.29938043  0.02599020  1.0
  Ni  Ni265  1  0.42234513  0.63271377  0.02599020  1.0
  Ni  Ni266  1  0.42234513  0.96604710  0.02599020  1.0
  Ni  Ni267  1  0.75567847  0.29938043  0.02599020  1.0
  Ni  Ni268  1  0.75567847  0.63271377  0.02599020  1.0
  Ni  Ni269  1  0.75567847  0.96604710  0.02599020  1.0
  Ni  Ni270  1  0.30486727  0.17034670  0.06482840  1.0
  Ni  Ni271  1  0.30486727  0.50368003  0.06482840  1.0
  Ni  Ni272  1  0.30486727  0.83701337  0.06482840  1.0
  Ni  Ni273  1  0.63820060  0.17034670  0.06482840  1.0
  Ni  Ni274  1  0.63820060  0.50368003  0.06482840  1.0
  Ni  Ni275  1  0.63820060  0.83701337  0.06482840  1.0
  Ni  Ni276  1  0.97153393  0.17034670  0.06482840  1.0
  Ni  Ni277  1  0.97153393  0.50368003  0.06482840  1.0
  Ni  Ni278  1  0.97153393  0.83701337  0.06482840  1.0
  Ni  Ni279  1  0.03820060  0.30368003  0.16482840  1.0
  Ni  Ni280  1  0.03820060  0.63701337  0.16482840  1.0
  Ni  Ni281  1  0.03820060  0.97034670  0.16482840  1.0
  Ni  Ni282  1  0.37153393  0.30368003  0.16482840  1.0
  Ni  Ni283  1  0.37153393  0.63701337  0.16482840  1.0
  Ni  Ni284  1  0.37153393  0.97034670  0.16482840  1.0
  Ni  Ni285  1  0.70486727  0.30368003  0.16482840  1.0
  Ni  Ni286  1  0.70486727  0.63701337  0.16482840  1.0
  Ni  Ni287  1  0.70486727  0.97034670  0.16482840  1.0
  Ni  Ni288  1  0.24814113  0.07193110  0.14384120  1.0
  Ni  Ni289  1  0.24814113  0.40526443  0.14384120  1.0
  Ni  Ni290  1  0.24814113  0.73859777  0.14384120  1.0
  Ni  Ni291  1  0.58147447  0.07193110  0.14384120  1.0
  Ni  Ni292  1  0.58147447  0.40526443  0.14384120  1.0
  Ni  Ni293  1  0.58147447  0.73859777  0.14384120  1.0
  Ni  Ni294  1  0.91480780  0.07193110  0.14384120  1.0
  Ni  Ni295  1  0.91480780  0.40526443  0.14384120  1.0
  Ni  Ni296  1  0.91480780  0.73859777  0.14384120  1.0
  Ni  Ni297  1  0.18147447  0.27193110  0.04384120  1.0
  Ni  Ni298  1  0.18147447  0.60526443  0.04384120  1.0
  Ni  Ni299  1  0.18147447  0.93859777  0.04384120  1.0
  Ni  Ni300  1  0.51480780  0.27193110  0.04384120  1.0
  Ni  Ni301  1  0.51480780  0.60526443  0.04384120  1.0
  Ni  Ni302  1  0.51480780  0.93859777  0.04384120  1.0
  Ni  Ni303  1  0.84814113  0.27193110  0.04384120  1.0
  Ni  Ni304  1  0.84814113  0.60526443  0.04384120  1.0
  Ni  Ni305  1  0.84814113  0.93859777  0.04384120  1.0
  Ni  Ni306  1  0.21240460  0.19779603  0.04697740  1.0
  Ni  Ni307  1  0.21240460  0.53112937  0.04697740  1.0
  Ni  Ni308  1  0.21240460  0.86446270  0.04697740  1.0
  Ni  Ni309  1  0.54573793  0.19779603  0.04697740  1.0
  Ni  Ni310  1  0.54573793  0.53112937  0.04697740  1.0
  Ni  Ni311  1  0.54573793  0.86446270  0.04697740  1.0
  Ni  Ni312  1  0.87907127  0.19779603  0.04697740  1.0
  Ni  Ni313  1  0.87907127  0.53112937  0.04697740  1.0
  Ni  Ni314  1  0.87907127  0.86446270  0.04697740  1.0
  Ni  Ni315  1  0.27907127  0.33112937  0.14697740  1.0
  Ni  Ni316  1  0.27907127  0.66446270  0.14697740  1.0
  Ni  Ni317  1  0.27907127  0.99779603  0.14697740  1.0
  Ni  Ni318  1  0.61240460  0.33112937  0.14697740  1.0
  Ni  Ni319  1  0.61240460  0.66446270  0.14697740  1.0
  Ni  Ni320  1  0.61240460  0.99779603  0.14697740  1.0
  Ni  Ni321  1  0.94573793  0.33112937  0.14697740  1.0
  Ni  Ni322  1  0.94573793  0.66446270  0.14697740  1.0
  Ni  Ni323  1  0.94573793  0.99779603  0.14697740  1.0
  Ni  Ni324  1  0.02018300  0.03992017  0.16287050  1.0
  Ni  Ni325  1  0.02018300  0.37325350  0.16287050  1.0
  Ni  Ni326  1  0.02018300  0.70658683  0.16287050  1.0
  Ni  Ni327  1  0.35351633  0.03992017  0.16287050  1.0
  Ni  Ni328  1  0.35351633  0.37325350  0.16287050  1.0
  Ni  Ni329  1  0.35351633  0.70658683  0.16287050  1.0
  Ni  Ni330  1  0.68684967  0.03992017  0.16287050  1.0
  Ni  Ni331  1  0.68684967  0.37325350  0.16287050  1.0
  Ni  Ni332  1  0.68684967  0.70658683  0.16287050  1.0
  Ni  Ni333  1  0.28684967  0.23992017  0.06287050  1.0
  Ni  Ni334  1  0.28684967  0.57325350  0.06287050  1.0
  Ni  Ni335  1  0.28684967  0.90658683  0.06287050  1.0
  Ni  Ni336  1  0.62018300  0.23992017  0.06287050  1.0
  Ni  Ni337  1  0.62018300  0.57325350  0.06287050  1.0
  Ni  Ni338  1  0.62018300  0.90658683  0.06287050  1.0
  Ni  Ni339  1  0.95351633  0.23992017  0.06287050  1.0
  Ni  Ni340  1  0.95351633  0.57325350  0.06287050  1.0
  Ni  Ni341  1  0.95351633  0.90658683  0.06287050  1.0
  Ni  Ni342  1  0.10702940  0.22980697  0.02794810  1.0
  Ni  Ni343  1  0.10702940  0.56314030  0.02794810  1.0
  Ni  Ni344  1  0.10702940  0.89647363  0.02794810  1.0
  Ni  Ni345  1  0.44036273  0.22980697  0.02794810  1.0
  Ni  Ni346  1  0.44036273  0.56314030  0.02794810  1.0
  Ni  Ni347  1  0.44036273  0.89647363  0.02794810  1.0
  Ni  Ni348  1  0.77369607  0.22980697  0.02794810  1.0
  Ni  Ni349  1  0.77369607  0.56314030  0.02794810  1.0
  Ni  Ni350  1  0.77369607  0.89647363  0.02794810  1.0
  Ni  Ni351  1  0.17369607  0.02980697  0.12794810  1.0
  Ni  Ni352  1  0.17369607  0.36314030  0.12794810  1.0
  Ni  Ni353  1  0.17369607  0.69647363  0.12794810  1.0
  Ni  Ni354  1  0.50702940  0.02980697  0.12794810  1.0
  Ni  Ni355  1  0.50702940  0.36314030  0.12794810  1.0
  Ni  Ni356  1  0.50702940  0.69647363  0.12794810  1.0
  Ni  Ni357  1  0.84036273  0.02980697  0.12794810  1.0
  Ni  Ni358  1  0.84036273  0.36314030  0.12794810  1.0
  Ni  Ni359  1  0.84036273  0.69647363  0.12794810  1.0
  Ni  Ni360  1  0.30507313  0.07402443  0.00459070  1.0
  Ni  Ni361  1  0.30507313  0.40735777  0.00459070  1.0
  Ni  Ni362  1  0.30507313  0.74069110  0.00459070  1.0
  Ni  Ni363  1  0.63840647  0.07402443  0.00459070  1.0
  Ni  Ni364  1  0.63840647  0.40735777  0.00459070  1.0
  Ni  Ni365  1  0.63840647  0.74069110  0.00459070  1.0
  Ni  Ni366  1  0.97173980  0.07402443  0.00459070  1.0
  Ni  Ni367  1  0.97173980  0.40735777  0.00459070  1.0
  Ni  Ni368  1  0.97173980  0.74069110  0.00459070  1.0
  Ni  Ni369  1  0.03840647  0.20735777  0.10459070  1.0
  Ni  Ni370  1  0.03840647  0.54069110  0.10459070  1.0
  Ni  Ni371  1  0.03840647  0.87402443  0.10459070  1.0
  Ni  Ni372  1  0.37173980  0.20735777  0.10459070  1.0
  Ni  Ni373  1  0.37173980  0.54069110  0.10459070  1.0
  Ni  Ni374  1  0.37173980  0.87402443  0.10459070  1.0
  Ni  Ni375  1  0.70507313  0.20735777  0.10459070  1.0
  Ni  Ni376  1  0.70507313  0.54069110  0.10459070  1.0
  Ni  Ni377  1  0.70507313  0.87402443  0.10459070  1.0
  Ni  Ni378  1  0.15547260  0.19570270  0.18622790  1.0
  Ni  Ni379  1  0.15547260  0.52903603  0.18622790  1.0
  Ni  Ni380  1  0.15547260  0.86236937  0.18622790  1.0
  Ni  Ni381  1  0.48880593  0.19570270  0.18622790  1.0
  Ni  Ni382  1  0.48880593  0.52903603  0.18622790  1.0
  Ni  Ni383  1  0.48880593  0.86236937  0.18622790  1.0
  Ni  Ni384  1  0.82213927  0.19570270  0.18622790  1.0
  Ni  Ni385  1  0.82213927  0.52903603  0.18622790  1.0
  Ni  Ni386  1  0.82213927  0.86236937  0.18622790  1.0
  Ni  Ni387  1  0.08880593  0.06236937  0.08622790  1.0
  Ni  Ni388  1  0.08880593  0.39570270  0.08622790  1.0
  Ni  Ni389  1  0.08880593  0.72903603  0.08622790  1.0
  Ni  Ni390  1  0.42213927  0.06236937  0.08622790  1.0
  Ni  Ni391  1  0.42213927  0.39570270  0.08622790  1.0
  Ni  Ni392  1  0.42213927  0.72903603  0.08622790  1.0
  Ni  Ni393  1  0.75547260  0.06236937  0.08622790  1.0
  Ni  Ni394  1  0.75547260  0.39570270  0.08622790  1.0
  Ni  Ni395  1  0.75547260  0.72903603  0.08622790  1.0
  Ni  Ni396  1  0.22417607  0.11850730  0.05654160  1.0
  Ni  Ni397  1  0.22417607  0.45184063  0.05654160  1.0
  Ni  Ni398  1  0.22417607  0.78517397  0.05654160  1.0
  Ni  Ni399  1  0.55750940  0.11850730  0.05654160  1.0
  Ni  Ni400  1  0.55750940  0.45184063  0.05654160  1.0
  Ni  Ni401  1  0.55750940  0.78517397  0.05654160  1.0
  Ni  Ni402  1  0.89084273  0.11850730  0.05654160  1.0
  Ni  Ni403  1  0.89084273  0.45184063  0.05654160  1.0
  Ni  Ni404  1  0.89084273  0.78517397  0.05654160  1.0
  Ni  Ni405  1  0.29084273  0.25184063  0.15654160  1.0
  Ni  Ni406  1  0.29084273  0.58517397  0.15654160  1.0
  Ni  Ni407  1  0.29084273  0.91850730  0.15654160  1.0
  Ni  Ni408  1  0.62417607  0.25184063  0.15654160  1.0
  Ni  Ni409  1  0.62417607  0.58517397  0.15654160  1.0
  Ni  Ni410  1  0.62417607  0.91850730  0.15654160  1.0
  Ni  Ni411  1  0.95750940  0.25184063  0.15654160  1.0
  Ni  Ni412  1  0.95750940  0.58517397  0.15654160  1.0
  Ni  Ni413  1  0.95750940  0.91850730  0.15654160  1.0
  Ni  Ni414  1  0.23636967  0.15121983  0.13427700  1.0
  Ni  Ni415  1  0.23636967  0.48455317  0.13427700  1.0
  Ni  Ni416  1  0.23636967  0.81788650  0.13427700  1.0
  Ni  Ni417  1  0.56970300  0.15121983  0.13427700  1.0
  Ni  Ni418  1  0.56970300  0.48455317  0.13427700  1.0
  Ni  Ni419  1  0.56970300  0.81788650  0.13427700  1.0
  Ni  Ni420  1  0.90303633  0.15121983  0.13427700  1.0
  Ni  Ni421  1  0.90303633  0.48455317  0.13427700  1.0
  Ni  Ni422  1  0.90303633  0.81788650  0.13427700  1.0
  Ni  Ni423  1  0.16970300  0.01788650  0.03427700  1.0
  Ni  Ni424  1  0.16970300  0.35121983  0.03427700  1.0
  Ni  Ni425  1  0.16970300  0.68455317  0.03427700  1.0
  Ni  Ni426  1  0.50303633  0.01788650  0.03427700  1.0
  Ni  Ni427  1  0.50303633  0.35121983  0.03427700  1.0
  Ni  Ni428  1  0.50303633  0.68455317  0.03427700  1.0
  Ni  Ni429  1  0.83636967  0.01788650  0.03427700  1.0
  Ni  Ni430  1  0.83636967  0.35121983  0.03427700  1.0
  Ni  Ni431  1  0.83636967  0.68455317  0.03427700  1.0
  Ni  Ni432  1  0.11029280  0.24936977  0.11171070  1.0
  Ni  Ni433  1  0.11029280  0.58270310  0.11171070  1.0
  Ni  Ni434  1  0.11029280  0.91603643  0.11171070  1.0
  Ni  Ni435  1  0.44362613  0.24936977  0.11171070  1.0
  Ni  Ni436  1  0.44362613  0.58270310  0.11171070  1.0
  Ni  Ni437  1  0.44362613  0.91603643  0.11171070  1.0
  Ni  Ni438  1  0.77695947  0.24936977  0.11171070  1.0
  Ni  Ni439  1  0.77695947  0.58270310  0.11171070  1.0
  Ni  Ni440  1  0.77695947  0.91603643  0.11171070  1.0
  Ni  Ni441  1  0.04362613  0.11603643  0.01171070  1.0
  Ni  Ni442  1  0.04362613  0.44936977  0.01171070  1.0
  Ni  Ni443  1  0.04362613  0.78270310  0.01171070  1.0
  Ni  Ni444  1  0.37695947  0.11603643  0.01171070  1.0
  Ni  Ni445  1  0.37695947  0.44936977  0.01171070  1.0
  Ni  Ni446  1  0.37695947  0.78270310  0.01171070  1.0
  Ni  Ni447  1  0.71029280  0.11603643  0.01171070  1.0
  Ni  Ni448  1  0.71029280  0.44936977  0.01171070  1.0
  Ni  Ni449  1  0.71029280  0.78270310  0.01171070  1.0
  Ni  Ni450  1  0.01691960  0.02035737  0.07910790  1.0
  Ni  Ni451  1  0.01691960  0.35369070  0.07910790  1.0
  Ni  Ni452  1  0.01691960  0.68702403  0.07910790  1.0
  Ni  Ni453  1  0.35025293  0.02035737  0.07910790  1.0
  Ni  Ni454  1  0.35025293  0.35369070  0.07910790  1.0
  Ni  Ni455  1  0.35025293  0.68702403  0.07910790  1.0
  Ni  Ni456  1  0.68358627  0.02035737  0.07910790  1.0
  Ni  Ni457  1  0.68358627  0.35369070  0.07910790  1.0
  Ni  Ni458  1  0.68358627  0.68702403  0.07910790  1.0
  Ni  Ni459  1  0.08358627  0.15369070  0.17910790  1.0
  Ni  Ni460  1  0.08358627  0.48702403  0.17910790  1.0
  Ni  Ni461  1  0.08358627  0.82035737  0.17910790  1.0
  Ni  Ni462  1  0.41691960  0.15369070  0.17910790  1.0
  Ni  Ni463  1  0.41691960  0.48702403  0.17910790  1.0
  Ni  Ni464  1  0.41691960  0.82035737  0.17910790  1.0
  Ni  Ni465  1  0.75025293  0.15369070  0.17910790  1.0
  Ni  Ni466  1  0.75025293  0.48702403  0.17910790  1.0
  Ni  Ni467  1  0.75025293  0.82035737  0.17910790  1.0
  Ni  Ni468  1  0.09693953  0.03486357  0.39540930  1.0
  Ni  Ni469  1  0.09693953  0.36819690  0.39540930  1.0
  Ni  Ni470  1  0.09693953  0.70153023  0.39540930  1.0
  Ni  Ni471  1  0.43027287  0.03486357  0.39540930  1.0
  Ni  Ni472  1  0.43027287  0.36819690  0.39540930  1.0
  Ni  Ni473  1  0.43027287  0.70153023  0.39540930  1.0
  Ni  Ni474  1  0.76360620  0.03486357  0.39540930  1.0
  Ni  Ni475  1  0.76360620  0.36819690  0.39540930  1.0
  Ni  Ni476  1  0.76360620  0.70153023  0.39540930  1.0
  Ni  Ni477  1  0.03027287  0.23486357  0.29540930  1.0
  Ni  Ni478  1  0.03027287  0.56819690  0.29540930  1.0
  Ni  Ni479  1  0.03027287  0.90153023  0.29540930  1.0
  Ni  Ni480  1  0.36360620  0.23486357  0.29540930  1.0
  Ni  Ni481  1  0.36360620  0.56819690  0.29540930  1.0
  Ni  Ni482  1  0.36360620  0.90153023  0.29540930  1.0
  Ni  Ni483  1  0.69693953  0.23486357  0.29540930  1.0
  Ni  Ni484  1  0.69693953  0.56819690  0.29540930  1.0
  Ni  Ni485  1  0.69693953  0.90153023  0.29540930  1.0
  Ni  Ni486  1  0.19693953  0.06819690  0.29540930  1.0
  Ni  Ni487  1  0.19693953  0.40153023  0.29540930  1.0
  Ni  Ni488  1  0.19693953  0.73486357  0.29540930  1.0
  Ni  Ni489  1  0.53027287  0.06819690  0.29540930  1.0
  Ni  Ni490  1  0.53027287  0.40153023  0.29540930  1.0
  Ni  Ni491  1  0.53027287  0.73486357  0.29540930  1.0
  Ni  Ni492  1  0.86360620  0.06819690  0.29540930  1.0
  Ni  Ni493  1  0.86360620  0.40153023  0.29540930  1.0
  Ni  Ni494  1  0.86360620  0.73486357  0.29540930  1.0
  Ni  Ni495  1  0.26360620  0.20153023  0.39540930  1.0
  Ni  Ni496  1  0.26360620  0.53486357  0.39540930  1.0
  Ni  Ni497  1  0.26360620  0.86819690  0.39540930  1.0
  Ni  Ni498  1  0.59693953  0.20153023  0.39540930  1.0
  Ni  Ni499  1  0.59693953  0.53486357  0.39540930  1.0
  Ni  Ni500  1  0.59693953  0.86819690  0.39540930  1.0
  Ni  Ni501  1  0.93027287  0.20153023  0.39540930  1.0
  Ni  Ni502  1  0.93027287  0.53486357  0.39540930  1.0
  Ni  Ni503  1  0.93027287  0.86819690  0.39540930  1.0
  Ni  Ni504  1  0.28901180  0.03271377  0.32599020  1.0
  Ni  Ni505  1  0.28901180  0.36604710  0.32599020  1.0
  Ni  Ni506  1  0.28901180  0.69938043  0.32599020  1.0
  Ni  Ni507  1  0.62234513  0.03271377  0.32599020  1.0
  Ni  Ni508  1  0.62234513  0.36604710  0.32599020  1.0
  Ni  Ni509  1  0.62234513  0.69938043  0.32599020  1.0
  Ni  Ni510  1  0.95567847  0.03271377  0.32599020  1.0
  Ni  Ni511  1  0.95567847  0.36604710  0.32599020  1.0
  Ni  Ni512  1  0.95567847  0.69938043  0.32599020  1.0
  Ni  Ni513  1  0.22234513  0.23271377  0.22599020  1.0
  Ni  Ni514  1  0.22234513  0.56604710  0.22599020  1.0
  Ni  Ni515  1  0.22234513  0.89938043  0.22599020  1.0
  Ni  Ni516  1  0.55567847  0.23271377  0.22599020  1.0
  Ni  Ni517  1  0.55567847  0.56604710  0.22599020  1.0
  Ni  Ni518  1  0.55567847  0.89938043  0.22599020  1.0
  Ni  Ni519  1  0.88901180  0.23271377  0.22599020  1.0
  Ni  Ni520  1  0.88901180  0.56604710  0.22599020  1.0
  Ni  Ni521  1  0.88901180  0.89938043  0.22599020  1.0
  Ni  Ni522  1  0.10486727  0.10368003  0.26482840  1.0
  Ni  Ni523  1  0.10486727  0.43701337  0.26482840  1.0
  Ni  Ni524  1  0.10486727  0.77034670  0.26482840  1.0
  Ni  Ni525  1  0.43820060  0.10368003  0.26482840  1.0
  Ni  Ni526  1  0.43820060  0.43701337  0.26482840  1.0
  Ni  Ni527  1  0.43820060  0.77034670  0.26482840  1.0
  Ni  Ni528  1  0.77153393  0.10368003  0.26482840  1.0
  Ni  Ni529  1  0.77153393  0.43701337  0.26482840  1.0
  Ni  Ni530  1  0.77153393  0.77034670  0.26482840  1.0
  Ni  Ni531  1  0.17153393  0.23701337  0.36482840  1.0
  Ni  Ni532  1  0.17153393  0.57034670  0.36482840  1.0
  Ni  Ni533  1  0.17153393  0.90368003  0.36482840  1.0
  Ni  Ni534  1  0.50486727  0.23701337  0.36482840  1.0
  Ni  Ni535  1  0.50486727  0.57034670  0.36482840  1.0
  Ni  Ni536  1  0.50486727  0.90368003  0.36482840  1.0
  Ni  Ni537  1  0.83820060  0.23701337  0.36482840  1.0
  Ni  Ni538  1  0.83820060  0.57034670  0.36482840  1.0
  Ni  Ni539  1  0.83820060  0.90368003  0.36482840  1.0
  Ni  Ni540  1  0.04814113  0.00526443  0.34384120  1.0
  Ni  Ni541  1  0.04814113  0.33859777  0.34384120  1.0
  Ni  Ni542  1  0.04814113  0.67193110  0.34384120  1.0
  Ni  Ni543  1  0.38147447  0.00526443  0.34384120  1.0
  Ni  Ni544  1  0.38147447  0.33859777  0.34384120  1.0
  Ni  Ni545  1  0.38147447  0.67193110  0.34384120  1.0
  Ni  Ni546  1  0.71480780  0.00526443  0.34384120  1.0
  Ni  Ni547  1  0.71480780  0.33859777  0.34384120  1.0
  Ni  Ni548  1  0.71480780  0.67193110  0.34384120  1.0
  Ni  Ni549  1  0.31480780  0.20526443  0.24384120  1.0
  Ni  Ni550  1  0.31480780  0.53859777  0.24384120  1.0
  Ni  Ni551  1  0.31480780  0.87193110  0.24384120  1.0
  Ni  Ni552  1  0.64814113  0.20526443  0.24384120  1.0
  Ni  Ni553  1  0.64814113  0.53859777  0.24384120  1.0
  Ni  Ni554  1  0.64814113  0.87193110  0.24384120  1.0
  Ni  Ni555  1  0.98147447  0.20526443  0.24384120  1.0
  Ni  Ni556  1  0.98147447  0.53859777  0.24384120  1.0
  Ni  Ni557  1  0.98147447  0.87193110  0.24384120  1.0
  Ni  Ni558  1  0.01240460  0.13112937  0.24697740  1.0
  Ni  Ni559  1  0.01240460  0.46446270  0.24697740  1.0
  Ni  Ni560  1  0.01240460  0.79779603  0.24697740  1.0
  Ni  Ni561  1  0.34573793  0.13112937  0.24697740  1.0
  Ni  Ni562  1  0.34573793  0.46446270  0.24697740  1.0
  Ni  Ni563  1  0.34573793  0.79779603  0.24697740  1.0
  Ni  Ni564  1  0.67907127  0.13112937  0.24697740  1.0
  Ni  Ni565  1  0.67907127  0.46446270  0.24697740  1.0
  Ni  Ni566  1  0.67907127  0.79779603  0.24697740  1.0
  Ni  Ni567  1  0.07907127  0.26446270  0.34697740  1.0
  Ni  Ni568  1  0.07907127  0.59779603  0.34697740  1.0
  Ni  Ni569  1  0.07907127  0.93112937  0.34697740  1.0
  Ni  Ni570  1  0.41240460  0.26446270  0.34697740  1.0
  Ni  Ni571  1  0.41240460  0.59779603  0.34697740  1.0
  Ni  Ni572  1  0.41240460  0.93112937  0.34697740  1.0
  Ni  Ni573  1  0.74573793  0.26446270  0.34697740  1.0
  Ni  Ni574  1  0.74573793  0.59779603  0.34697740  1.0
  Ni  Ni575  1  0.74573793  0.93112937  0.34697740  1.0
  Ni  Ni576  1  0.15351633  0.30658683  0.36287050  1.0
  Ni  Ni577  1  0.15351633  0.63992017  0.36287050  1.0
  Ni  Ni578  1  0.15351633  0.97325350  0.36287050  1.0
  Ni  Ni579  1  0.48684967  0.30658683  0.36287050  1.0
  Ni  Ni580  1  0.48684967  0.63992017  0.36287050  1.0
  Ni  Ni581  1  0.48684967  0.97325350  0.36287050  1.0
  Ni  Ni582  1  0.82018300  0.30658683  0.36287050  1.0
  Ni  Ni583  1  0.82018300  0.63992017  0.36287050  1.0
  Ni  Ni584  1  0.82018300  0.97325350  0.36287050  1.0
  Ni  Ni585  1  0.08684967  0.17325350  0.26287050  1.0
  Ni  Ni586  1  0.08684967  0.50658683  0.26287050  1.0
  Ni  Ni587  1  0.08684967  0.83992017  0.26287050  1.0
  Ni  Ni588  1  0.42018300  0.17325350  0.26287050  1.0
  Ni  Ni589  1  0.42018300  0.50658683  0.26287050  1.0
  Ni  Ni590  1  0.42018300  0.83992017  0.26287050  1.0
  Ni  Ni591  1  0.75351633  0.17325350  0.26287050  1.0
  Ni  Ni592  1  0.75351633  0.50658683  0.26287050  1.0
  Ni  Ni593  1  0.75351633  0.83992017  0.26287050  1.0
  Ni  Ni594  1  0.24036273  0.16314030  0.22794810  1.0
  Ni  Ni595  1  0.24036273  0.49647363  0.22794810  1.0
  Ni  Ni596  1  0.24036273  0.82980697  0.22794810  1.0
  Ni  Ni597  1  0.57369607  0.16314030  0.22794810  1.0
  Ni  Ni598  1  0.57369607  0.49647363  0.22794810  1.0
  Ni  Ni599  1  0.57369607  0.82980697  0.22794810  1.0
  Ni  Ni600  1  0.90702940  0.16314030  0.22794810  1.0
  Ni  Ni601  1  0.90702940  0.49647363  0.22794810  1.0
  Ni  Ni602  1  0.90702940  0.82980697  0.22794810  1.0
  Ni  Ni603  1  0.30702940  0.29647363  0.32794810  1.0
  Ni  Ni604  1  0.30702940  0.62980697  0.32794810  1.0
  Ni  Ni605  1  0.30702940  0.96314030  0.32794810  1.0
  Ni  Ni606  1  0.64036273  0.29647363  0.32794810  1.0
  Ni  Ni607  1  0.64036273  0.62980697  0.32794810  1.0
  Ni  Ni608  1  0.64036273  0.96314030  0.32794810  1.0
  Ni  Ni609  1  0.97369607  0.29647363  0.32794810  1.0
  Ni  Ni610  1  0.97369607  0.62980697  0.32794810  1.0
  Ni  Ni611  1  0.97369607  0.96314030  0.32794810  1.0
  Ni  Ni612  1  0.10507313  0.00735777  0.20459070  1.0
  Ni  Ni613  1  0.10507313  0.34069110  0.20459070  1.0
  Ni  Ni614  1  0.10507313  0.67402443  0.20459070  1.0
  Ni  Ni615  1  0.43840647  0.00735777  0.20459070  1.0
  Ni  Ni616  1  0.43840647  0.34069110  0.20459070  1.0
  Ni  Ni617  1  0.43840647  0.67402443  0.20459070  1.0
  Ni  Ni618  1  0.77173980  0.00735777  0.20459070  1.0
  Ni  Ni619  1  0.77173980  0.34069110  0.20459070  1.0
  Ni  Ni620  1  0.77173980  0.67402443  0.20459070  1.0
  Ni  Ni621  1  0.17173980  0.14069110  0.30459070  1.0
  Ni  Ni622  1  0.17173980  0.47402443  0.30459070  1.0
  Ni  Ni623  1  0.17173980  0.80735777  0.30459070  1.0
  Ni  Ni624  1  0.50507313  0.14069110  0.30459070  1.0
  Ni  Ni625  1  0.50507313  0.47402443  0.30459070  1.0
  Ni  Ni626  1  0.50507313  0.80735777  0.30459070  1.0
  Ni  Ni627  1  0.83840647  0.14069110  0.30459070  1.0
  Ni  Ni628  1  0.83840647  0.47402443  0.30459070  1.0
  Ni  Ni629  1  0.83840647  0.80735777  0.30459070  1.0
  Ni  Ni630  1  0.28880593  0.12903603  0.38622790  1.0
  Ni  Ni631  1  0.28880593  0.46236937  0.38622790  1.0
  Ni  Ni632  1  0.28880593  0.79570270  0.38622790  1.0
  Ni  Ni633  1  0.62213927  0.12903603  0.38622790  1.0
  Ni  Ni634  1  0.62213927  0.46236937  0.38622790  1.0
  Ni  Ni635  1  0.62213927  0.79570270  0.38622790  1.0
  Ni  Ni636  1  0.95547260  0.12903603  0.38622790  1.0
  Ni  Ni637  1  0.95547260  0.46236937  0.38622790  1.0
  Ni  Ni638  1  0.95547260  0.79570270  0.38622790  1.0
  Ni  Ni639  1  0.22213927  0.32903603  0.28622790  1.0
  Ni  Ni640  1  0.22213927  0.66236937  0.28622790  1.0
  Ni  Ni641  1  0.22213927  0.99570270  0.28622790  1.0
  Ni  Ni642  1  0.55547260  0.32903603  0.28622790  1.0
  Ni  Ni643  1  0.55547260  0.66236937  0.28622790  1.0
  Ni  Ni644  1  0.55547260  0.99570270  0.28622790  1.0
  Ni  Ni645  1  0.88880593  0.32903603  0.28622790  1.0
  Ni  Ni646  1  0.88880593  0.66236937  0.28622790  1.0
  Ni  Ni647  1  0.88880593  0.99570270  0.28622790  1.0
  Ni  Ni648  1  0.02417607  0.05184063  0.25654160  1.0
  Ni  Ni649  1  0.02417607  0.38517397  0.25654160  1.0
  Ni  Ni650  1  0.02417607  0.71850730  0.25654160  1.0
  Ni  Ni651  1  0.35750940  0.05184063  0.25654160  1.0
  Ni  Ni652  1  0.35750940  0.38517397  0.25654160  1.0
  Ni  Ni653  1  0.35750940  0.71850730  0.25654160  1.0
  Ni  Ni654  1  0.69084273  0.05184063  0.25654160  1.0
  Ni  Ni655  1  0.69084273  0.38517397  0.25654160  1.0
  Ni  Ni656  1  0.69084273  0.71850730  0.25654160  1.0
  Ni  Ni657  1  0.09084273  0.18517397  0.35654160  1.0
  Ni  Ni658  1  0.09084273  0.51850730  0.35654160  1.0
  Ni  Ni659  1  0.09084273  0.85184063  0.35654160  1.0
  Ni  Ni660  1  0.42417607  0.18517397  0.35654160  1.0
  Ni  Ni661  1  0.42417607  0.51850730  0.35654160  1.0
  Ni  Ni662  1  0.42417607  0.85184063  0.35654160  1.0
  Ni  Ni663  1  0.75750940  0.18517397  0.35654160  1.0
  Ni  Ni664  1  0.75750940  0.51850730  0.35654160  1.0
  Ni  Ni665  1  0.75750940  0.85184063  0.35654160  1.0
  Ni  Ni666  1  0.03636967  0.08455317  0.33427700  1.0
  Ni  Ni667  1  0.03636967  0.41788650  0.33427700  1.0
  Ni  Ni668  1  0.03636967  0.75121983  0.33427700  1.0
  Ni  Ni669  1  0.36970300  0.08455317  0.33427700  1.0
  Ni  Ni670  1  0.36970300  0.41788650  0.33427700  1.0
  Ni  Ni671  1  0.36970300  0.75121983  0.33427700  1.0
  Ni  Ni672  1  0.70303633  0.08455317  0.33427700  1.0
  Ni  Ni673  1  0.70303633  0.41788650  0.33427700  1.0
  Ni  Ni674  1  0.70303633  0.75121983  0.33427700  1.0
  Ni  Ni675  1  0.30303633  0.28455317  0.23427700  1.0
  Ni  Ni676  1  0.30303633  0.61788650  0.23427700  1.0
  Ni  Ni677  1  0.30303633  0.95121983  0.23427700  1.0
  Ni  Ni678  1  0.63636967  0.28455317  0.23427700  1.0
  Ni  Ni679  1  0.63636967  0.61788650  0.23427700  1.0
  Ni  Ni680  1  0.63636967  0.95121983  0.23427700  1.0
  Ni  Ni681  1  0.96970300  0.28455317  0.23427700  1.0
  Ni  Ni682  1  0.96970300  0.61788650  0.23427700  1.0
  Ni  Ni683  1  0.96970300  0.95121983  0.23427700  1.0
  Ni  Ni684  1  0.24362613  0.18270310  0.31171070  1.0
  Ni  Ni685  1  0.24362613  0.51603643  0.31171070  1.0
  Ni  Ni686  1  0.24362613  0.84936977  0.31171070  1.0
  Ni  Ni687  1  0.57695947  0.18270310  0.31171070  1.0
  Ni  Ni688  1  0.57695947  0.51603643  0.31171070  1.0
  Ni  Ni689  1  0.57695947  0.84936977  0.31171070  1.0
  Ni  Ni690  1  0.91029280  0.18270310  0.31171070  1.0
  Ni  Ni691  1  0.91029280  0.51603643  0.31171070  1.0
  Ni  Ni692  1  0.91029280  0.84936977  0.31171070  1.0
  Ni  Ni693  1  0.17695947  0.04936977  0.21171070  1.0
  Ni  Ni694  1  0.17695947  0.38270310  0.21171070  1.0
  Ni  Ni695  1  0.17695947  0.71603643  0.21171070  1.0
  Ni  Ni696  1  0.51029280  0.04936977  0.21171070  1.0
  Ni  Ni697  1  0.51029280  0.38270310  0.21171070  1.0
  Ni  Ni698  1  0.51029280  0.71603643  0.21171070  1.0
  Ni  Ni699  1  0.84362613  0.04936977  0.21171070  1.0
  Ni  Ni700  1  0.84362613  0.38270310  0.21171070  1.0
  Ni  Ni701  1  0.84362613  0.71603643  0.21171070  1.0
  Ni  Ni702  1  0.15025293  0.28702403  0.27910790  1.0
  Ni  Ni703  1  0.15025293  0.62035737  0.27910790  1.0
  Ni  Ni704  1  0.15025293  0.95369070  0.27910790  1.0
  Ni  Ni705  1  0.48358627  0.28702403  0.27910790  1.0
  Ni  Ni706  1  0.48358627  0.62035737  0.27910790  1.0
  Ni  Ni707  1  0.48358627  0.95369070  0.27910790  1.0
  Ni  Ni708  1  0.81691960  0.28702403  0.27910790  1.0
  Ni  Ni709  1  0.81691960  0.62035737  0.27910790  1.0
  Ni  Ni710  1  0.81691960  0.95369070  0.27910790  1.0
  Ni  Ni711  1  0.21691960  0.08702403  0.37910790  1.0
  Ni  Ni712  1  0.21691960  0.42035737  0.37910790  1.0
  Ni  Ni713  1  0.21691960  0.75369070  0.37910790  1.0
  Ni  Ni714  1  0.55025293  0.08702403  0.37910790  1.0
  Ni  Ni715  1  0.55025293  0.42035737  0.37910790  1.0
  Ni  Ni716  1  0.55025293  0.75369070  0.37910790  1.0
  Ni  Ni717  1  0.88358627  0.08702403  0.37910790  1.0
  Ni  Ni718  1  0.88358627  0.42035737  0.37910790  1.0
  Ni  Ni719  1  0.88358627  0.75369070  0.37910790  1.0
