# generated using pymatgen
data_Hf3Ni7
_symmetry_space_group_name_H-M   'P 1'
_cell_length_a   32.64106345
_cell_length_b   54.00654601
_cell_length_c   65.03860000
_cell_angle_alpha   125.04454862
_cell_angle_beta   146.10951934
_cell_angle_gamma   71.69141559
_symmetry_Int_Tables_number   1
_chemical_formula_structural   Hf3Ni7
_chemical_formula_sum   'Hf432 Ni1008'
_cell_volume   48911.37531219
_cell_formula_units_Z   144
loop_
 _symmetry_equiv_pos_site_id
 _symmetry_equiv_pos_as_xyz
  1  'x, y, z'
loop_
 _atom_site_type_symbol
 _atom_site_label
 _atom_site_symmetry_multiplicity
 _atom_site_fract_x
 _atom_site_fract_y
 _atom_site_fract_z
 _atom_site_occupancy
  Hf  Hf0  1  0.24244567  0.14480050  0.06297287  1.0
  Hf  Hf1  1  0.24244567  0.47813383  0.06297287  1.0
  Hf  Hf2  1  0.24244567  0.81146717  0.06297287  1.0
  Hf  Hf3  1  0.57577900  0.14480050  0.06297287  1.0
  Hf  Hf4  1  0.57577900  0.47813383  0.06297287  1.0
  Hf  Hf5  1  0.57577900  0.81146717  0.06297287  1.0
  Hf  Hf6  1  0.90911233  0.14480050  0.06297287  1.0
  Hf  Hf7  1  0.90911233  0.47813383  0.06297288  1.0
  Hf  Hf8  1  0.90911233  0.81146717  0.06297287  1.0
  Hf  Hf9  1  0.24244567  0.31146717  0.01297287  1.0
  Hf  Hf10  1  0.24244567  0.64480050  0.01297287  1.0
  Hf  Hf11  1  0.24244567  0.97813383  0.01297288  1.0
  Hf  Hf12  1  0.57577900  0.31146717  0.01297287  1.0
  Hf  Hf13  1  0.57577900  0.64480050  0.01297287  1.0
  Hf  Hf14  1  0.57577900  0.97813383  0.01297287  1.0
  Hf  Hf15  1  0.90911233  0.31146717  0.01297287  1.0
  Hf  Hf16  1  0.90911233  0.64480050  0.01297287  1.0
  Hf  Hf17  1  0.90911233  0.97813383  0.01297288  1.0
  Hf  Hf18  1  0.09088767  0.02186617  0.08054857  1.0
  Hf  Hf19  1  0.09088767  0.35519950  0.08054858  1.0
  Hf  Hf20  1  0.09088767  0.68853283  0.08054857  1.0
  Hf  Hf21  1  0.42422100  0.02186617  0.08054857  1.0
  Hf  Hf22  1  0.42422100  0.35519950  0.08054858  1.0
  Hf  Hf23  1  0.42422100  0.68853283  0.08054858  1.0
  Hf  Hf24  1  0.75755433  0.02186617  0.08054857  1.0
  Hf  Hf25  1  0.75755433  0.35519950  0.08054858  1.0
  Hf  Hf26  1  0.75755433  0.68853283  0.08054857  1.0
  Hf  Hf27  1  0.09088767  0.18853283  0.03054857  1.0
  Hf  Hf28  1  0.09088767  0.52186617  0.03054857  1.0
  Hf  Hf29  1  0.09088767  0.85519950  0.03054858  1.0
  Hf  Hf30  1  0.42422100  0.18853283  0.03054857  1.0
  Hf  Hf31  1  0.42422100  0.52186617  0.03054857  1.0
  Hf  Hf32  1  0.42422100  0.85519950  0.03054858  1.0
  Hf  Hf33  1  0.75755433  0.18853283  0.03054857  1.0
  Hf  Hf34  1  0.75755433  0.52186617  0.03054857  1.0
  Hf  Hf35  1  0.75755433  0.85519950  0.03054858  1.0
  Hf  Hf36  1  0.18156500  0.12967650  0.08022177  1.0
  Hf  Hf37  1  0.18156500  0.46300983  0.08022178  1.0
  Hf  Hf38  1  0.18156500  0.79634317  0.08022177  1.0
  Hf  Hf39  1  0.51489833  0.12967650  0.08022177  1.0
  Hf  Hf40  1  0.51489833  0.46300983  0.08022177  1.0
  Hf  Hf41  1  0.51489833  0.79634317  0.08022178  1.0
  Hf  Hf42  1  0.84823167  0.12967650  0.08022177  1.0
  Hf  Hf43  1  0.84823167  0.46300983  0.08022177  1.0
  Hf  Hf44  1  0.84823167  0.79634317  0.08022177  1.0
  Hf  Hf45  1  0.18156500  0.29634317  0.03022177  1.0
  Hf  Hf46  1  0.18156500  0.62967650  0.03022177  1.0
  Hf  Hf47  1  0.18156500  0.96300983  0.03022178  1.0
  Hf  Hf48  1  0.51489833  0.29634317  0.03022178  1.0
  Hf  Hf49  1  0.51489833  0.62967650  0.03022177  1.0
  Hf  Hf50  1  0.51489833  0.96300983  0.03022178  1.0
  Hf  Hf51  1  0.84823167  0.29634317  0.03022177  1.0
  Hf  Hf52  1  0.84823167  0.62967650  0.03022178  1.0
  Hf  Hf53  1  0.84823167  0.96300983  0.03022177  1.0
  Hf  Hf54  1  0.15176833  0.03699017  0.06329967  1.0
  Hf  Hf55  1  0.15176833  0.37032350  0.06329967  1.0
  Hf  Hf56  1  0.15176833  0.70365683  0.06329967  1.0
  Hf  Hf57  1  0.48510167  0.03699017  0.06329967  1.0
  Hf  Hf58  1  0.48510167  0.37032350  0.06329967  1.0
  Hf  Hf59  1  0.48510167  0.70365683  0.06329967  1.0
  Hf  Hf60  1  0.81843500  0.03699017  0.06329967  1.0
  Hf  Hf61  1  0.81843500  0.37032350  0.06329967  1.0
  Hf  Hf62  1  0.81843500  0.70365683  0.06329967  1.0
  Hf  Hf63  1  0.15176833  0.20365683  0.01329967  1.0
  Hf  Hf64  1  0.15176833  0.53699017  0.01329968  1.0
  Hf  Hf65  1  0.15176833  0.87032350  0.01329968  1.0
  Hf  Hf66  1  0.48510167  0.20365683  0.01329967  1.0
  Hf  Hf67  1  0.48510167  0.53699017  0.01329968  1.0
  Hf  Hf68  1  0.48510167  0.87032350  0.01329968  1.0
  Hf  Hf69  1  0.81843500  0.20365683  0.01329968  1.0
  Hf  Hf70  1  0.81843500  0.53699017  0.01329968  1.0
  Hf  Hf71  1  0.81843500  0.87032350  0.01329967  1.0
  Hf  Hf72  1  0.32477600  0.10411717  0.00965427  1.0
  Hf  Hf73  1  0.32477600  0.43745050  0.00965427  1.0
  Hf  Hf74  1  0.32477600  0.77078383  0.00965428  1.0
  Hf  Hf75  1  0.65810933  0.10411717  0.00965427  1.0
  Hf  Hf76  1  0.65810933  0.43745050  0.00965427  1.0
  Hf  Hf77  1  0.65810933  0.77078383  0.00965427  1.0
  Hf  Hf78  1  0.99144267  0.10411717  0.00965427  1.0
  Hf  Hf79  1  0.99144267  0.43745050  0.00965427  1.0
  Hf  Hf80  1  0.99144267  0.77078383  0.00965427  1.0
  Hf  Hf81  1  0.32477600  0.27078383  0.05965427  1.0
  Hf  Hf82  1  0.32477600  0.60411717  0.05965427  1.0
  Hf  Hf83  1  0.32477600  0.93745050  0.05965428  1.0
  Hf  Hf84  1  0.65810933  0.27078383  0.05965427  1.0
  Hf  Hf85  1  0.65810933  0.60411717  0.05965428  1.0
  Hf  Hf86  1  0.65810933  0.93745050  0.05965427  1.0
  Hf  Hf87  1  0.99144267  0.27078383  0.05965427  1.0
  Hf  Hf88  1  0.99144267  0.60411717  0.05965427  1.0
  Hf  Hf89  1  0.99144267  0.93745050  0.05965427  1.0
  Hf  Hf90  1  0.00855733  0.06254950  0.03386717  1.0
  Hf  Hf91  1  0.00855733  0.39588283  0.03386718  1.0
  Hf  Hf92  1  0.00855733  0.72921617  0.03386718  1.0
  Hf  Hf93  1  0.34189067  0.06254950  0.03386717  1.0
  Hf  Hf94  1  0.34189067  0.39588283  0.03386717  1.0
  Hf  Hf95  1  0.34189067  0.72921617  0.03386718  1.0
  Hf  Hf96  1  0.67522400  0.06254950  0.03386718  1.0
  Hf  Hf97  1  0.67522400  0.39588283  0.03386718  1.0
  Hf  Hf98  1  0.67522400  0.72921617  0.03386718  1.0
  Hf  Hf99  1  0.00855733  0.22921617  0.08386717  1.0
  Hf  Hf100  1  0.00855733  0.56254950  0.08386717  1.0
  Hf  Hf101  1  0.00855733  0.89588283  0.08386717  1.0
  Hf  Hf102  1  0.34189067  0.22921617  0.08386717  1.0
  Hf  Hf103  1  0.34189067  0.56254950  0.08386718  1.0
  Hf  Hf104  1  0.34189067  0.89588283  0.08386717  1.0
  Hf  Hf105  1  0.67522400  0.22921617  0.08386717  1.0
  Hf  Hf106  1  0.67522400  0.56254950  0.08386718  1.0
  Hf  Hf107  1  0.67522400  0.89588283  0.08386717  1.0
  Ni  Ni108  1  0.16666667  0.08333333  0.02176072  1.0
  Ni  Ni109  1  0.16666667  0.41666667  0.02176073  1.0
  Ni  Ni110  1  0.16666667  0.75000000  0.02176073  1.0
  Ni  Ni111  1  0.50000000  0.08333333  0.02176072  1.0
  Ni  Ni112  1  0.50000000  0.41666667  0.02176072  1.0
  Ni  Ni113  1  0.50000000  0.75000000  0.02176072  1.0
  Ni  Ni114  1  0.83333333  0.08333333  0.02176072  1.0
  Ni  Ni115  1  0.83333333  0.41666667  0.02176072  1.0
  Ni  Ni116  1  0.83333333  0.75000000  0.02176073  1.0
  Ni  Ni117  1  0.16666667  0.25000000  0.07176072  1.0
  Ni  Ni118  1  0.16666667  0.58333333  0.07176072  1.0
  Ni  Ni119  1  0.16666667  0.91666667  0.07176072  1.0
  Ni  Ni120  1  0.50000000  0.25000000  0.07176072  1.0
  Ni  Ni121  1  0.50000000  0.58333333  0.07176072  1.0
  Ni  Ni122  1  0.50000000  0.91666667  0.07176072  1.0
  Ni  Ni123  1  0.83333333  0.25000000  0.07176072  1.0
  Ni  Ni124  1  0.83333333  0.58333333  0.07176072  1.0
  Ni  Ni125  1  0.83333333  0.91666667  0.07176072  1.0
  Ni  Ni126  1  0.00000000  0.00000000  0.09676072  1.0
  Ni  Ni127  1  0.00000000  0.33333333  0.09676072  1.0
  Ni  Ni128  1  1.00000000  0.66666667  0.09676072  1.0
  Ni  Ni129  1  0.33333333  0.00000000  0.09676072  1.0
  Ni  Ni130  1  0.33333333  0.33333333  0.09676072  1.0
  Ni  Ni131  1  0.33333333  0.66666667  0.09676072  1.0
  Ni  Ni132  1  0.66666667  0.00000000  0.09676072  1.0
  Ni  Ni133  1  0.66666667  0.33333333  0.09676072  1.0
  Ni  Ni134  1  0.66666667  0.66666667  0.09676072  1.0
  Ni  Ni135  1  0.00000000  0.16666667  0.04676072  1.0
  Ni  Ni136  1  0.00000000  0.50000000  0.04676073  1.0
  Ni  Ni137  1  1.00000000  0.83333333  0.04676072  1.0
  Ni  Ni138  1  0.33333333  0.16666667  0.04676072  1.0
  Ni  Ni139  1  0.33333333  0.50000000  0.04676073  1.0
  Ni  Ni140  1  0.33333333  0.83333333  0.04676072  1.0
  Ni  Ni141  1  0.66666667  0.16666667  0.04676073  1.0
  Ni  Ni142  1  0.66666667  0.50000000  0.04676073  1.0
  Ni  Ni143  1  0.66666667  0.83333333  0.04676072  1.0
  Ni  Ni144  1  0.02110600  0.03584250  0.09096797  1.0
  Ni  Ni145  1  0.02110600  0.36917583  0.09096797  1.0
  Ni  Ni146  1  0.02110600  0.70250917  0.09096798  1.0
  Ni  Ni147  1  0.35443933  0.03584250  0.09096797  1.0
  Ni  Ni148  1  0.35443933  0.36917583  0.09096797  1.0
  Ni  Ni149  1  0.35443933  0.70250917  0.09096797  1.0
  Ni  Ni150  1  0.68777267  0.03584250  0.09096797  1.0
  Ni  Ni151  1  0.68777267  0.36917583  0.09096798  1.0
  Ni  Ni152  1  0.68777267  0.70250917  0.09096797  1.0
  Ni  Ni153  1  0.02110600  0.20250917  0.04096797  1.0
  Ni  Ni154  1  0.02110600  0.53584250  0.04096797  1.0
  Ni  Ni155  1  0.02110600  0.86917583  0.04096797  1.0
  Ni  Ni156  1  0.35443933  0.20250917  0.04096797  1.0
  Ni  Ni157  1  0.35443933  0.53584250  0.04096798  1.0
  Ni  Ni158  1  0.35443933  0.86917583  0.04096798  1.0
  Ni  Ni159  1  0.68777267  0.20250917  0.04096797  1.0
  Ni  Ni160  1  0.68777267  0.53584250  0.04096798  1.0
  Ni  Ni161  1  0.68777267  0.86917583  0.04096797  1.0
  Ni  Ni162  1  0.31222733  0.13082417  0.05255347  1.0
  Ni  Ni163  1  0.31222733  0.46415750  0.05255347  1.0
  Ni  Ni164  1  0.31222733  0.79749083  0.05255348  1.0
  Ni  Ni165  1  0.64556067  0.13082417  0.05255348  1.0
  Ni  Ni166  1  0.64556067  0.46415750  0.05255347  1.0
  Ni  Ni167  1  0.64556067  0.79749083  0.05255348  1.0
  Ni  Ni168  1  0.97889400  0.13082417  0.05255347  1.0
  Ni  Ni169  1  0.97889400  0.46415750  0.05255348  1.0
  Ni  Ni170  1  0.97889400  0.79749083  0.05255348  1.0
  Ni  Ni171  1  0.31222733  0.29749083  0.00255347  1.0
  Ni  Ni172  1  0.31222733  0.63082417  0.00255347  1.0
  Ni  Ni173  1  0.31222733  0.96415750  0.00255348  1.0
  Ni  Ni174  1  0.64556067  0.29749083  0.00255347  1.0
  Ni  Ni175  1  0.64556067  0.63082417  0.00255347  1.0
  Ni  Ni176  1  0.64556067  0.96415750  0.00255348  1.0
  Ni  Ni177  1  0.97889400  0.29749083  0.00255347  1.0
  Ni  Ni178  1  0.97889400  0.63082417  0.00255347  1.0
  Ni  Ni179  1  0.97889400  0.96415750  0.00255348  1.0
  Ni  Ni180  1  0.05867000  0.07612350  0.09894628  1.0
  Ni  Ni181  1  0.05867000  0.40945683  0.09894628  1.0
  Ni  Ni182  1  0.05867000  0.74279017  0.09894628  1.0
  Ni  Ni183  1  0.39200333  0.07612350  0.09894628  1.0
  Ni  Ni184  1  0.39200333  0.40945683  0.09894627  1.0
  Ni  Ni185  1  0.39200333  0.74279017  0.09894627  1.0
  Ni  Ni186  1  0.72533667  0.07612350  0.09894628  1.0
  Ni  Ni187  1  0.72533667  0.40945683  0.09894628  1.0
  Ni  Ni188  1  0.72533667  0.74279017  0.09894628  1.0
  Ni  Ni189  1  0.05867000  0.24279017  0.04894627  1.0
  Ni  Ni190  1  0.05867000  0.57612350  0.04894627  1.0
  Ni  Ni191  1  0.05867000  0.90945683  0.04894628  1.0
  Ni  Ni192  1  0.39200333  0.24279017  0.04894627  1.0
  Ni  Ni193  1  0.39200333  0.57612350  0.04894627  1.0
  Ni  Ni194  1  0.39200333  0.90945683  0.04894628  1.0
  Ni  Ni195  1  0.72533667  0.24279017  0.04894627  1.0
  Ni  Ni196  1  0.72533667  0.57612350  0.04894628  1.0
  Ni  Ni197  1  0.72533667  0.90945683  0.04894628  1.0
  Ni  Ni198  1  0.27466333  0.09054317  0.04457517  1.0
  Ni  Ni199  1  0.27466333  0.42387650  0.04457518  1.0
  Ni  Ni200  1  0.27466333  0.75720983  0.04457517  1.0
  Ni  Ni201  1  0.60799667  0.09054317  0.04457517  1.0
  Ni  Ni202  1  0.60799667  0.42387650  0.04457517  1.0
  Ni  Ni203  1  0.60799667  0.75720983  0.04457517  1.0
  Ni  Ni204  1  0.94133000  0.09054317  0.04457518  1.0
  Ni  Ni205  1  0.94133000  0.42387650  0.04457518  1.0
  Ni  Ni206  1  0.94133000  0.75720983  0.04457517  1.0
  Ni  Ni207  1  0.27466333  0.25720983  0.09457517  1.0
  Ni  Ni208  1  0.27466333  0.59054317  0.09457517  1.0
  Ni  Ni209  1  0.27466333  0.92387650  0.09457518  1.0
  Ni  Ni210  1  0.60799667  0.25720983  0.09457518  1.0
  Ni  Ni211  1  0.60799667  0.59054317  0.09457517  1.0
  Ni  Ni212  1  0.60799667  0.92387650  0.09457518  1.0
  Ni  Ni213  1  0.94133000  0.25720983  0.09457517  1.0
  Ni  Ni214  1  0.94133000  0.59054317  0.09457518  1.0
  Ni  Ni215  1  0.94133000  0.92387650  0.09457518  1.0
  Ni  Ni216  1  0.10002333  0.12246800  0.00804062  1.0
  Ni  Ni217  1  0.10002333  0.45580133  0.00804063  1.0
  Ni  Ni218  1  0.10002333  0.78913467  0.00804062  1.0
  Ni  Ni219  1  0.43335667  0.12246800  0.00804063  1.0
  Ni  Ni220  1  0.43335667  0.45580133  0.00804062  1.0
  Ni  Ni221  1  0.43335667  0.78913467  0.00804063  1.0
  Ni  Ni222  1  0.76669000  0.12246800  0.00804063  1.0
  Ni  Ni223  1  0.76669000  0.45580133  0.00804063  1.0
  Ni  Ni224  1  0.76669000  0.78913467  0.00804062  1.0
  Ni  Ni225  1  0.10002333  0.28913467  0.05804063  1.0
  Ni  Ni226  1  0.10002333  0.62246800  0.05804063  1.0
  Ni  Ni227  1  0.10002333  0.95580133  0.05804063  1.0
  Ni  Ni228  1  0.43335667  0.28913467  0.05804063  1.0
  Ni  Ni229  1  0.43335667  0.62246800  0.05804063  1.0
  Ni  Ni230  1  0.43335667  0.95580133  0.05804063  1.0
  Ni  Ni231  1  0.76669000  0.28913467  0.05804063  1.0
  Ni  Ni232  1  0.76669000  0.62246800  0.05804063  1.0
  Ni  Ni233  1  0.76669000  0.95580133  0.05804062  1.0
  Ni  Ni234  1  0.23331000  0.04419867  0.03548082  1.0
  Ni  Ni235  1  0.23331000  0.37753200  0.03548082  1.0
  Ni  Ni236  1  0.23331000  0.71086533  0.03548082  1.0
  Ni  Ni237  1  0.56664333  0.04419867  0.03548082  1.0
  Ni  Ni238  1  0.56664333  0.37753200  0.03548082  1.0
  Ni  Ni239  1  0.56664333  0.71086533  0.03548082  1.0
  Ni  Ni240  1  0.89997667  0.04419867  0.03548082  1.0
  Ni  Ni241  1  0.89997667  0.37753200  0.03548082  1.0
  Ni  Ni242  1  0.89997667  0.71086533  0.03548082  1.0
  Ni  Ni243  1  0.23331000  0.21086533  0.08548082  1.0
  Ni  Ni244  1  0.23331000  0.54419867  0.08548082  1.0
  Ni  Ni245  1  0.23331000  0.87753200  0.08548082  1.0
  Ni  Ni246  1  0.56664333  0.21086533  0.08548082  1.0
  Ni  Ni247  1  0.56664333  0.54419867  0.08548082  1.0
  Ni  Ni248  1  0.56664333  0.87753200  0.08548082  1.0
  Ni  Ni249  1  0.89997667  0.21086533  0.08548082  1.0
  Ni  Ni250  1  0.89997667  0.54419867  0.08548082  1.0
  Ni  Ni251  1  0.89997667  0.87753200  0.08548082  1.0
  Ni  Ni252  1  0.11978867  0.15100633  0.09607492  1.0
  Ni  Ni253  1  0.11978867  0.48433967  0.09607492  1.0
  Ni  Ni254  1  0.11978867  0.81767300  0.09607493  1.0
  Ni  Ni255  1  0.45312200  0.15100633  0.09607493  1.0
  Ni  Ni256  1  0.45312200  0.48433967  0.09607492  1.0
  Ni  Ni257  1  0.45312200  0.81767300  0.09607493  1.0
  Ni  Ni258  1  0.78645533  0.15100633  0.09607492  1.0
  Ni  Ni259  1  0.78645533  0.48433967  0.09607493  1.0
  Ni  Ni260  1  0.78645533  0.81767300  0.09607492  1.0
  Ni  Ni261  1  0.11978867  0.31767300  0.04607492  1.0
  Ni  Ni262  1  0.11978867  0.65100633  0.04607492  1.0
  Ni  Ni263  1  0.11978867  0.98433967  0.04607492  1.0
  Ni  Ni264  1  0.45312200  0.31767300  0.04607492  1.0
  Ni  Ni265  1  0.45312200  0.65100633  0.04607493  1.0
  Ni  Ni266  1  0.45312200  0.98433967  0.04607492  1.0
  Ni  Ni267  1  0.78645533  0.31767300  0.04607493  1.0
  Ni  Ni268  1  0.78645533  0.65100633  0.04607492  1.0
  Ni  Ni269  1  0.78645533  0.98433967  0.04607492  1.0
  Ni  Ni270  1  0.21354467  0.01566033  0.04744652  1.0
  Ni  Ni271  1  0.21354467  0.34899367  0.04744652  1.0
  Ni  Ni272  1  0.21354467  0.68232700  0.04744653  1.0
  Ni  Ni273  1  0.54687800  0.01566033  0.04744652  1.0
  Ni  Ni274  1  0.54687800  0.34899367  0.04744652  1.0
  Ni  Ni275  1  0.54687800  0.68232700  0.04744653  1.0
  Ni  Ni276  1  0.88021133  0.01566033  0.04744653  1.0
  Ni  Ni277  1  0.88021133  0.34899367  0.04744653  1.0
  Ni  Ni278  1  0.88021133  0.68232700  0.04744653  1.0
  Ni  Ni279  1  0.21354467  0.18232700  0.09744652  1.0
  Ni  Ni280  1  0.21354467  0.51566033  0.09744652  1.0
  Ni  Ni281  1  0.21354467  0.84899367  0.09744653  1.0
  Ni  Ni282  1  0.54687800  0.18232700  0.09744652  1.0
  Ni  Ni283  1  0.54687800  0.51566033  0.09744652  1.0
  Ni  Ni284  1  0.54687800  0.84899367  0.09744652  1.0
  Ni  Ni285  1  0.88021133  0.18232700  0.09744652  1.0
  Ni  Ni286  1  0.88021133  0.51566033  0.09744653  1.0
  Ni  Ni287  1  0.88021133  0.84899367  0.09744652  1.0
  Ni  Ni288  1  0.12785733  0.09324083  0.07373037  1.0
  Ni  Ni289  1  0.12785733  0.42657417  0.07373037  1.0
  Ni  Ni290  1  0.12785733  0.75990750  0.07373037  1.0
  Ni  Ni291  1  0.46119067  0.09324083  0.07373037  1.0
  Ni  Ni292  1  0.46119067  0.42657417  0.07373037  1.0
  Ni  Ni293  1  0.46119067  0.75990750  0.07373037  1.0
  Ni  Ni294  1  0.79452400  0.09324083  0.07373037  1.0
  Ni  Ni295  1  0.79452400  0.42657417  0.07373037  1.0
  Ni  Ni296  1  0.79452400  0.75990750  0.07373037  1.0
  Ni  Ni297  1  0.12785733  0.25990750  0.02373038  1.0
  Ni  Ni298  1  0.12785733  0.59324083  0.02373037  1.0
  Ni  Ni299  1  0.12785733  0.92657417  0.02373038  1.0
  Ni  Ni300  1  0.46119067  0.25990750  0.02373037  1.0
  Ni  Ni301  1  0.46119067  0.59324083  0.02373037  1.0
  Ni  Ni302  1  0.46119067  0.92657417  0.02373037  1.0
  Ni  Ni303  1  0.79452400  0.25990750  0.02373038  1.0
  Ni  Ni304  1  0.79452400  0.59324083  0.02373037  1.0
  Ni  Ni305  1  0.79452400  0.92657417  0.02373037  1.0
  Ni  Ni306  1  0.20547600  0.07342583  0.06979107  1.0
  Ni  Ni307  1  0.20547600  0.40675917  0.06979108  1.0
  Ni  Ni308  1  0.20547600  0.74009250  0.06979107  1.0
  Ni  Ni309  1  0.53880933  0.07342583  0.06979107  1.0
  Ni  Ni310  1  0.53880933  0.40675917  0.06979107  1.0
  Ni  Ni311  1  0.53880933  0.74009250  0.06979107  1.0
  Ni  Ni312  1  0.87214267  0.07342583  0.06979107  1.0
  Ni  Ni313  1  0.87214267  0.40675917  0.06979107  1.0
  Ni  Ni314  1  0.87214267  0.74009250  0.06979107  1.0
  Ni  Ni315  1  0.20547600  0.24009250  0.01979108  1.0
  Ni  Ni316  1  0.20547600  0.57342583  0.01979108  1.0
  Ni  Ni317  1  0.20547600  0.90675917  0.01979108  1.0
  Ni  Ni318  1  0.53880933  0.24009250  0.01979107  1.0
  Ni  Ni319  1  0.53880933  0.57342583  0.01979108  1.0
  Ni  Ni320  1  0.53880933  0.90675917  0.01979108  1.0
  Ni  Ni321  1  0.87214267  0.24009250  0.01979108  1.0
  Ni  Ni322  1  0.87214267  0.57342583  0.01979108  1.0
  Ni  Ni323  1  0.87214267  0.90675917  0.01979108  1.0
  Ni  Ni324  1  0.27569900  0.01790950  0.01267457  1.0
  Ni  Ni325  1  0.27569900  0.35124283  0.01267457  1.0
  Ni  Ni326  1  0.27569900  0.68457617  0.01267457  1.0
  Ni  Ni327  1  0.60903233  0.01790950  0.01267457  1.0
  Ni  Ni328  1  0.60903233  0.35124283  0.01267457  1.0
  Ni  Ni329  1  0.60903233  0.68457617  0.01267458  1.0
  Ni  Ni330  1  0.94236567  0.01790950  0.01267458  1.0
  Ni  Ni331  1  0.94236567  0.35124283  0.01267458  1.0
  Ni  Ni332  1  0.94236567  0.68457617  0.01267458  1.0
  Ni  Ni333  1  0.27569900  0.18457617  0.06267457  1.0
  Ni  Ni334  1  0.27569900  0.51790950  0.06267458  1.0
  Ni  Ni335  1  0.27569900  0.85124283  0.06267458  1.0
  Ni  Ni336  1  0.60903233  0.18457617  0.06267458  1.0
  Ni  Ni337  1  0.60903233  0.51790950  0.06267457  1.0
  Ni  Ni338  1  0.60903233  0.85124283  0.06267457  1.0
  Ni  Ni339  1  0.94236567  0.18457617  0.06267457  1.0
  Ni  Ni340  1  0.94236567  0.51790950  0.06267457  1.0
  Ni  Ni341  1  0.94236567  0.85124283  0.06267457  1.0
  Ni  Ni342  1  0.05763433  0.14875717  0.03084687  1.0
  Ni  Ni343  1  0.05763433  0.48209050  0.03084687  1.0
  Ni  Ni344  1  0.05763433  0.81542383  0.03084688  1.0
  Ni  Ni345  1  0.39096767  0.14875717  0.03084687  1.0
  Ni  Ni346  1  0.39096767  0.48209050  0.03084687  1.0
  Ni  Ni347  1  0.39096767  0.81542383  0.03084687  1.0
  Ni  Ni348  1  0.72430100  0.14875717  0.03084687  1.0
  Ni  Ni349  1  0.72430100  0.48209050  0.03084687  1.0
  Ni  Ni350  1  0.72430100  0.81542383  0.03084687  1.0
  Ni  Ni351  1  0.05763433  0.31542383  0.08084687  1.0
  Ni  Ni352  1  0.05763433  0.64875717  0.08084687  1.0
  Ni  Ni353  1  0.05763433  0.98209050  0.08084687  1.0
  Ni  Ni354  1  0.39096767  0.31542383  0.08084687  1.0
  Ni  Ni355  1  0.39096767  0.64875717  0.08084688  1.0
  Ni  Ni356  1  0.39096767  0.98209050  0.08084687  1.0
  Ni  Ni357  1  0.72430100  0.31542383  0.08084688  1.0
  Ni  Ni358  1  0.72430100  0.64875717  0.08084687  1.0
  Ni  Ni359  1  0.72430100  0.98209050  0.08084687  1.0
  Hf  Hf360  1  0.24244567  0.14480050  0.16297287  1.0
  Hf  Hf361  1  0.24244567  0.47813383  0.16297287  1.0
  Hf  Hf362  1  0.24244567  0.81146717  0.16297287  1.0
  Hf  Hf363  1  0.57577900  0.14480050  0.16297287  1.0
  Hf  Hf364  1  0.57577900  0.47813383  0.16297287  1.0
  Hf  Hf365  1  0.57577900  0.81146717  0.16297287  1.0
  Hf  Hf366  1  0.90911233  0.14480050  0.16297287  1.0
  Hf  Hf367  1  0.90911233  0.47813383  0.16297288  1.0
  Hf  Hf368  1  0.90911233  0.81146717  0.16297287  1.0
  Hf  Hf369  1  0.24244567  0.31146717  0.11297288  1.0
  Hf  Hf370  1  0.24244567  0.64480050  0.11297288  1.0
  Hf  Hf371  1  0.24244567  0.97813383  0.11297288  1.0
  Hf  Hf372  1  0.57577900  0.31146717  0.11297287  1.0
  Hf  Hf373  1  0.57577900  0.64480050  0.11297287  1.0
  Hf  Hf374  1  0.57577900  0.97813383  0.11297288  1.0
  Hf  Hf375  1  0.90911233  0.31146717  0.11297287  1.0
  Hf  Hf376  1  0.90911233  0.64480050  0.11297287  1.0
  Hf  Hf377  1  0.90911233  0.97813383  0.11297288  1.0
  Hf  Hf378  1  0.09088767  0.02186617  0.18054857  1.0
  Hf  Hf379  1  0.09088767  0.35519950  0.18054858  1.0
  Hf  Hf380  1  0.09088767  0.68853283  0.18054858  1.0
  Hf  Hf381  1  0.42422100  0.02186617  0.18054858  1.0
  Hf  Hf382  1  0.42422100  0.35519950  0.18054858  1.0
  Hf  Hf383  1  0.42422100  0.68853283  0.18054858  1.0
  Hf  Hf384  1  0.75755433  0.02186617  0.18054857  1.0
  Hf  Hf385  1  0.75755433  0.35519950  0.18054858  1.0
  Hf  Hf386  1  0.75755433  0.68853283  0.18054857  1.0
  Hf  Hf387  1  0.09088767  0.18853283  0.13054857  1.0
  Hf  Hf388  1  0.09088767  0.52186617  0.13054857  1.0
  Hf  Hf389  1  0.09088767  0.85519950  0.13054858  1.0
  Hf  Hf390  1  0.42422100  0.18853283  0.13054857  1.0
  Hf  Hf391  1  0.42422100  0.52186617  0.13054857  1.0
  Hf  Hf392  1  0.42422100  0.85519950  0.13054858  1.0
  Hf  Hf393  1  0.75755433  0.18853283  0.13054857  1.0
  Hf  Hf394  1  0.75755433  0.52186617  0.13054857  1.0
  Hf  Hf395  1  0.75755433  0.85519950  0.13054857  1.0
  Hf  Hf396  1  0.18156500  0.12967650  0.18022177  1.0
  Hf  Hf397  1  0.18156500  0.46300983  0.18022178  1.0
  Hf  Hf398  1  0.18156500  0.79634317  0.18022177  1.0
  Hf  Hf399  1  0.51489833  0.12967650  0.18022177  1.0
  Hf  Hf400  1  0.51489833  0.46300983  0.18022177  1.0
  Hf  Hf401  1  0.51489833  0.79634317  0.18022178  1.0
  Hf  Hf402  1  0.84823167  0.12967650  0.18022177  1.0
  Hf  Hf403  1  0.84823167  0.46300983  0.18022178  1.0
  Hf  Hf404  1  0.84823167  0.79634317  0.18022177  1.0
  Hf  Hf405  1  0.18156500  0.29634317  0.13022177  1.0
  Hf  Hf406  1  0.18156500  0.62967650  0.13022177  1.0
  Hf  Hf407  1  0.18156500  0.96300983  0.13022177  1.0
  Hf  Hf408  1  0.51489833  0.29634317  0.13022177  1.0
  Hf  Hf409  1  0.51489833  0.62967650  0.13022177  1.0
  Hf  Hf410  1  0.51489833  0.96300983  0.13022177  1.0
  Hf  Hf411  1  0.84823167  0.29634317  0.13022178  1.0
  Hf  Hf412  1  0.84823167  0.62967650  0.13022178  1.0
  Hf  Hf413  1  0.84823167  0.96300983  0.13022177  1.0
  Hf  Hf414  1  0.15176833  0.03699017  0.16329967  1.0
  Hf  Hf415  1  0.15176833  0.37032350  0.16329967  1.0
  Hf  Hf416  1  0.15176833  0.70365683  0.16329967  1.0
  Hf  Hf417  1  0.48510167  0.03699017  0.16329967  1.0
  Hf  Hf418  1  0.48510167  0.37032350  0.16329967  1.0
  Hf  Hf419  1  0.48510167  0.70365683  0.16329967  1.0
  Hf  Hf420  1  0.81843500  0.03699017  0.16329967  1.0
  Hf  Hf421  1  0.81843500  0.37032350  0.16329968  1.0
  Hf  Hf422  1  0.81843500  0.70365683  0.16329967  1.0
  Hf  Hf423  1  0.15176833  0.20365683  0.11329967  1.0
  Hf  Hf424  1  0.15176833  0.53699017  0.11329968  1.0
  Hf  Hf425  1  0.15176833  0.87032350  0.11329968  1.0
  Hf  Hf426  1  0.48510167  0.20365683  0.11329967  1.0
  Hf  Hf427  1  0.48510167  0.53699017  0.11329968  1.0
  Hf  Hf428  1  0.48510167  0.87032350  0.11329968  1.0
  Hf  Hf429  1  0.81843500  0.20365683  0.11329967  1.0
  Hf  Hf430  1  0.81843500  0.53699017  0.11329968  1.0
  Hf  Hf431  1  0.81843500  0.87032350  0.11329967  1.0
  Hf  Hf432  1  0.32477600  0.10411717  0.10965427  1.0
  Hf  Hf433  1  0.32477600  0.43745050  0.10965428  1.0
  Hf  Hf434  1  0.32477600  0.77078383  0.10965428  1.0
  Hf  Hf435  1  0.65810933  0.10411717  0.10965427  1.0
  Hf  Hf436  1  0.65810933  0.43745050  0.10965427  1.0
  Hf  Hf437  1  0.65810933  0.77078383  0.10965428  1.0
  Hf  Hf438  1  0.99144267  0.10411717  0.10965427  1.0
  Hf  Hf439  1  0.99144267  0.43745050  0.10965428  1.0
  Hf  Hf440  1  0.99144267  0.77078383  0.10965427  1.0
  Hf  Hf441  1  0.32477600  0.27078383  0.15965427  1.0
  Hf  Hf442  1  0.32477600  0.60411717  0.15965428  1.0
  Hf  Hf443  1  0.32477600  0.93745050  0.15965428  1.0
  Hf  Hf444  1  0.65810933  0.27078383  0.15965427  1.0
  Hf  Hf445  1  0.65810933  0.60411717  0.15965428  1.0
  Hf  Hf446  1  0.65810933  0.93745050  0.15965428  1.0
  Hf  Hf447  1  0.99144267  0.27078383  0.15965427  1.0
  Hf  Hf448  1  0.99144267  0.60411717  0.15965428  1.0
  Hf  Hf449  1  0.99144267  0.93745050  0.15965427  1.0
  Hf  Hf450  1  0.00855733  0.06254950  0.13386717  1.0
  Hf  Hf451  1  0.00855733  0.39588283  0.13386718  1.0
  Hf  Hf452  1  0.00855733  0.72921617  0.13386718  1.0
  Hf  Hf453  1  0.34189067  0.06254950  0.13386717  1.0
  Hf  Hf454  1  0.34189067  0.39588283  0.13386717  1.0
  Hf  Hf455  1  0.34189067  0.72921617  0.13386718  1.0
  Hf  Hf456  1  0.67522400  0.06254950  0.13386717  1.0
  Hf  Hf457  1  0.67522400  0.39588283  0.13386718  1.0
  Hf  Hf458  1  0.67522400  0.72921617  0.13386717  1.0
  Hf  Hf459  1  0.00855733  0.22921617  0.18386717  1.0
  Hf  Hf460  1  0.00855733  0.56254950  0.18386717  1.0
  Hf  Hf461  1  0.00855733  0.89588283  0.18386717  1.0
  Hf  Hf462  1  0.34189067  0.22921617  0.18386717  1.0
  Hf  Hf463  1  0.34189067  0.56254950  0.18386718  1.0
  Hf  Hf464  1  0.34189067  0.89588283  0.18386717  1.0
  Hf  Hf465  1  0.67522400  0.22921617  0.18386717  1.0
  Hf  Hf466  1  0.67522400  0.56254950  0.18386717  1.0
  Hf  Hf467  1  0.67522400  0.89588283  0.18386717  1.0
  Ni  Ni468  1  0.16666667  0.08333333  0.12176072  1.0
  Ni  Ni469  1  0.16666667  0.41666667  0.12176073  1.0
  Ni  Ni470  1  0.16666667  0.75000000  0.12176073  1.0
  Ni  Ni471  1  0.50000000  0.08333333  0.12176072  1.0
  Ni  Ni472  1  0.50000000  0.41666667  0.12176072  1.0
  Ni  Ni473  1  0.50000000  0.75000000  0.12176073  1.0
  Ni  Ni474  1  0.83333333  0.08333333  0.12176072  1.0
  Ni  Ni475  1  0.83333333  0.41666667  0.12176073  1.0
  Ni  Ni476  1  0.83333333  0.75000000  0.12176073  1.0
  Ni  Ni477  1  0.16666667  0.25000000  0.17176072  1.0
  Ni  Ni478  1  0.16666667  0.58333333  0.17176072  1.0
  Ni  Ni479  1  0.16666667  0.91666667  0.17176072  1.0
  Ni  Ni480  1  0.50000000  0.25000000  0.17176072  1.0
  Ni  Ni481  1  0.50000000  0.58333333  0.17176072  1.0
  Ni  Ni482  1  0.50000000  0.91666667  0.17176072  1.0
  Ni  Ni483  1  0.83333333  0.25000000  0.17176072  1.0
  Ni  Ni484  1  0.83333333  0.58333333  0.17176072  1.0
  Ni  Ni485  1  0.83333333  0.91666667  0.17176072  1.0
  Ni  Ni486  1  0.00000000  0.00000000  0.19676072  1.0
  Ni  Ni487  1  0.00000000  0.33333333  0.19676072  1.0
  Ni  Ni488  1  1.00000000  0.66666667  0.19676072  1.0
  Ni  Ni489  1  0.33333333  0.00000000  0.19676072  1.0
  Ni  Ni490  1  0.33333333  0.33333333  0.19676072  1.0
  Ni  Ni491  1  0.33333333  0.66666667  0.19676072  1.0
  Ni  Ni492  1  0.66666667  0.00000000  0.19676072  1.0
  Ni  Ni493  1  0.66666667  0.33333333  0.19676072  1.0
  Ni  Ni494  1  0.66666667  0.66666667  0.19676072  1.0
  Ni  Ni495  1  0.00000000  0.16666667  0.14676072  1.0
  Ni  Ni496  1  0.00000000  0.50000000  0.14676073  1.0
  Ni  Ni497  1  1.00000000  0.83333333  0.14676072  1.0
  Ni  Ni498  1  0.33333333  0.16666667  0.14676072  1.0
  Ni  Ni499  1  0.33333333  0.50000000  0.14676072  1.0
  Ni  Ni500  1  0.33333333  0.83333333  0.14676072  1.0
  Ni  Ni501  1  0.66666667  0.16666667  0.14676072  1.0
  Ni  Ni502  1  0.66666667  0.50000000  0.14676072  1.0
  Ni  Ni503  1  0.66666667  0.83333333  0.14676072  1.0
  Ni  Ni504  1  0.02110600  0.03584250  0.19096798  1.0
  Ni  Ni505  1  0.02110600  0.36917583  0.19096798  1.0
  Ni  Ni506  1  0.02110600  0.70250917  0.19096798  1.0
  Ni  Ni507  1  0.35443933  0.03584250  0.19096797  1.0
  Ni  Ni508  1  0.35443933  0.36917583  0.19096797  1.0
  Ni  Ni509  1  0.35443933  0.70250917  0.19096798  1.0
  Ni  Ni510  1  0.68777267  0.03584250  0.19096798  1.0
  Ni  Ni511  1  0.68777267  0.36917583  0.19096798  1.0
  Ni  Ni512  1  0.68777267  0.70250917  0.19096797  1.0
  Ni  Ni513  1  0.02110600  0.20250917  0.14096797  1.0
  Ni  Ni514  1  0.02110600  0.53584250  0.14096797  1.0
  Ni  Ni515  1  0.02110600  0.86917583  0.14096797  1.0
  Ni  Ni516  1  0.35443933  0.20250917  0.14096797  1.0
  Ni  Ni517  1  0.35443933  0.53584250  0.14096798  1.0
  Ni  Ni518  1  0.35443933  0.86917583  0.14096797  1.0
  Ni  Ni519  1  0.68777267  0.20250917  0.14096797  1.0
  Ni  Ni520  1  0.68777267  0.53584250  0.14096797  1.0
  Ni  Ni521  1  0.68777267  0.86917583  0.14096797  1.0
  Ni  Ni522  1  0.31222733  0.13082417  0.15255347  1.0
  Ni  Ni523  1  0.31222733  0.46415750  0.15255347  1.0
  Ni  Ni524  1  0.31222733  0.79749083  0.15255348  1.0
  Ni  Ni525  1  0.64556067  0.13082417  0.15255347  1.0
  Ni  Ni526  1  0.64556067  0.46415750  0.15255347  1.0
  Ni  Ni527  1  0.64556067  0.79749083  0.15255348  1.0
  Ni  Ni528  1  0.97889400  0.13082417  0.15255347  1.0
  Ni  Ni529  1  0.97889400  0.46415750  0.15255347  1.0
  Ni  Ni530  1  0.97889400  0.79749083  0.15255348  1.0
  Ni  Ni531  1  0.31222733  0.29749083  0.10255348  1.0
  Ni  Ni532  1  0.31222733  0.63082417  0.10255347  1.0
  Ni  Ni533  1  0.31222733  0.96415750  0.10255348  1.0
  Ni  Ni534  1  0.64556067  0.29749083  0.10255348  1.0
  Ni  Ni535  1  0.64556067  0.63082417  0.10255347  1.0
  Ni  Ni536  1  0.64556067  0.96415750  0.10255348  1.0
  Ni  Ni537  1  0.97889400  0.29749083  0.10255347  1.0
  Ni  Ni538  1  0.97889400  0.63082417  0.10255348  1.0
  Ni  Ni539  1  0.97889400  0.96415750  0.10255348  1.0
  Ni  Ni540  1  0.05867000  0.07612350  0.19894628  1.0
  Ni  Ni541  1  0.05867000  0.40945683  0.19894628  1.0
  Ni  Ni542  1  0.05867000  0.74279017  0.19894628  1.0
  Ni  Ni543  1  0.39200333  0.07612350  0.19894627  1.0
  Ni  Ni544  1  0.39200333  0.40945683  0.19894627  1.0
  Ni  Ni545  1  0.39200333  0.74279017  0.19894628  1.0
  Ni  Ni546  1  0.72533667  0.07612350  0.19894628  1.0
  Ni  Ni547  1  0.72533667  0.40945683  0.19894628  1.0
  Ni  Ni548  1  0.72533667  0.74279017  0.19894628  1.0
  Ni  Ni549  1  0.05867000  0.24279017  0.14894627  1.0
  Ni  Ni550  1  0.05867000  0.57612350  0.14894627  1.0
  Ni  Ni551  1  0.05867000  0.90945683  0.14894628  1.0
  Ni  Ni552  1  0.39200333  0.24279017  0.14894627  1.0
  Ni  Ni553  1  0.39200333  0.57612350  0.14894627  1.0
  Ni  Ni554  1  0.39200333  0.90945683  0.14894628  1.0
  Ni  Ni555  1  0.72533667  0.24279017  0.14894627  1.0
  Ni  Ni556  1  0.72533667  0.57612350  0.14894628  1.0
  Ni  Ni557  1  0.72533667  0.90945683  0.14894628  1.0
  Ni  Ni558  1  0.27466333  0.09054317  0.14457517  1.0
  Ni  Ni559  1  0.27466333  0.42387650  0.14457518  1.0
  Ni  Ni560  1  0.27466333  0.75720983  0.14457517  1.0
  Ni  Ni561  1  0.60799667  0.09054317  0.14457517  1.0
  Ni  Ni562  1  0.60799667  0.42387650  0.14457518  1.0
  Ni  Ni563  1  0.60799667  0.75720983  0.14457517  1.0
  Ni  Ni564  1  0.94133000  0.09054317  0.14457518  1.0
  Ni  Ni565  1  0.94133000  0.42387650  0.14457518  1.0
  Ni  Ni566  1  0.94133000  0.75720983  0.14457518  1.0
  Ni  Ni567  1  0.27466333  0.25720983  0.19457517  1.0
  Ni  Ni568  1  0.27466333  0.59054317  0.19457517  1.0
  Ni  Ni569  1  0.27466333  0.92387650  0.19457517  1.0
  Ni  Ni570  1  0.60799667  0.25720983  0.19457518  1.0
  Ni  Ni571  1  0.60799667  0.59054317  0.19457517  1.0
  Ni  Ni572  1  0.60799667  0.92387650  0.19457518  1.0
  Ni  Ni573  1  0.94133000  0.25720983  0.19457518  1.0
  Ni  Ni574  1  0.94133000  0.59054317  0.19457518  1.0
  Ni  Ni575  1  0.94133000  0.92387650  0.19457518  1.0
  Ni  Ni576  1  0.10002333  0.12246800  0.10804063  1.0
  Ni  Ni577  1  0.10002333  0.45580133  0.10804063  1.0
  Ni  Ni578  1  0.10002333  0.78913467  0.10804062  1.0
  Ni  Ni579  1  0.43335667  0.12246800  0.10804063  1.0
  Ni  Ni580  1  0.43335667  0.45580133  0.10804062  1.0
  Ni  Ni581  1  0.43335667  0.78913467  0.10804063  1.0
  Ni  Ni582  1  0.76669000  0.12246800  0.10804063  1.0
  Ni  Ni583  1  0.76669000  0.45580133  0.10804063  1.0
  Ni  Ni584  1  0.76669000  0.78913467  0.10804062  1.0
  Ni  Ni585  1  0.10002333  0.28913467  0.15804063  1.0
  Ni  Ni586  1  0.10002333  0.62246800  0.15804063  1.0
  Ni  Ni587  1  0.10002333  0.95580133  0.15804063  1.0
  Ni  Ni588  1  0.43335667  0.28913467  0.15804063  1.0
  Ni  Ni589  1  0.43335667  0.62246800  0.15804063  1.0
  Ni  Ni590  1  0.43335667  0.95580133  0.15804063  1.0
  Ni  Ni591  1  0.76669000  0.28913467  0.15804063  1.0
  Ni  Ni592  1  0.76669000  0.62246800  0.15804063  1.0
  Ni  Ni593  1  0.76669000  0.95580133  0.15804063  1.0
  Ni  Ni594  1  0.23331000  0.04419867  0.13548082  1.0
  Ni  Ni595  1  0.23331000  0.37753200  0.13548082  1.0
  Ni  Ni596  1  0.23331000  0.71086533  0.13548082  1.0
  Ni  Ni597  1  0.56664333  0.04419867  0.13548082  1.0
  Ni  Ni598  1  0.56664333  0.37753200  0.13548082  1.0
  Ni  Ni599  1  0.56664333  0.71086533  0.13548082  1.0
  Ni  Ni600  1  0.89997667  0.04419867  0.13548082  1.0
  Ni  Ni601  1  0.89997667  0.37753200  0.13548082  1.0
  Ni  Ni602  1  0.89997667  0.71086533  0.13548082  1.0
  Ni  Ni603  1  0.23331000  0.21086533  0.18548082  1.0
  Ni  Ni604  1  0.23331000  0.54419867  0.18548083  1.0
  Ni  Ni605  1  0.23331000  0.87753200  0.18548083  1.0
  Ni  Ni606  1  0.56664333  0.21086533  0.18548083  1.0
  Ni  Ni607  1  0.56664333  0.54419867  0.18548082  1.0
  Ni  Ni608  1  0.56664333  0.87753200  0.18548082  1.0
  Ni  Ni609  1  0.89997667  0.21086533  0.18548082  1.0
  Ni  Ni610  1  0.89997667  0.54419867  0.18548083  1.0
  Ni  Ni611  1  0.89997667  0.87753200  0.18548082  1.0
  Ni  Ni612  1  0.11978867  0.15100633  0.19607493  1.0
  Ni  Ni613  1  0.11978867  0.48433967  0.19607492  1.0
  Ni  Ni614  1  0.11978867  0.81767300  0.19607493  1.0
  Ni  Ni615  1  0.45312200  0.15100633  0.19607493  1.0
  Ni  Ni616  1  0.45312200  0.48433967  0.19607492  1.0
  Ni  Ni617  1  0.45312200  0.81767300  0.19607493  1.0
  Ni  Ni618  1  0.78645533  0.15100633  0.19607492  1.0
  Ni  Ni619  1  0.78645533  0.48433967  0.19607493  1.0
  Ni  Ni620  1  0.78645533  0.81767300  0.19607493  1.0
  Ni  Ni621  1  0.11978867  0.31767300  0.14607493  1.0
  Ni  Ni622  1  0.11978867  0.65100633  0.14607493  1.0
  Ni  Ni623  1  0.11978867  0.98433967  0.14607493  1.0
  Ni  Ni624  1  0.45312200  0.31767300  0.14607493  1.0
  Ni  Ni625  1  0.45312200  0.65100633  0.14607493  1.0
  Ni  Ni626  1  0.45312200  0.98433967  0.14607492  1.0
  Ni  Ni627  1  0.78645533  0.31767300  0.14607493  1.0
  Ni  Ni628  1  0.78645533  0.65100633  0.14607493  1.0
  Ni  Ni629  1  0.78645533  0.98433967  0.14607492  1.0
  Ni  Ni630  1  0.21354467  0.01566033  0.14744652  1.0
  Ni  Ni631  1  0.21354467  0.34899367  0.14744652  1.0
  Ni  Ni632  1  0.21354467  0.68232700  0.14744653  1.0
  Ni  Ni633  1  0.54687800  0.01566033  0.14744652  1.0
  Ni  Ni634  1  0.54687800  0.34899367  0.14744652  1.0
  Ni  Ni635  1  0.54687800  0.68232700  0.14744653  1.0
  Ni  Ni636  1  0.88021133  0.01566033  0.14744653  1.0
  Ni  Ni637  1  0.88021133  0.34899367  0.14744653  1.0
  Ni  Ni638  1  0.88021133  0.68232700  0.14744652  1.0
  Ni  Ni639  1  0.21354467  0.18232700  0.19744652  1.0
  Ni  Ni640  1  0.21354467  0.51566033  0.19744652  1.0
  Ni  Ni641  1  0.21354467  0.84899367  0.19744652  1.0
  Ni  Ni642  1  0.54687800  0.18232700  0.19744652  1.0
  Ni  Ni643  1  0.54687800  0.51566033  0.19744652  1.0
  Ni  Ni644  1  0.54687800  0.84899367  0.19744652  1.0
  Ni  Ni645  1  0.88021133  0.18232700  0.19744652  1.0
  Ni  Ni646  1  0.88021133  0.51566033  0.19744653  1.0
  Ni  Ni647  1  0.88021133  0.84899367  0.19744652  1.0
  Ni  Ni648  1  0.12785733  0.09324083  0.17373037  1.0
  Ni  Ni649  1  0.12785733  0.42657417  0.17373037  1.0
  Ni  Ni650  1  0.12785733  0.75990750  0.17373037  1.0
  Ni  Ni651  1  0.46119067  0.09324083  0.17373037  1.0
  Ni  Ni652  1  0.46119067  0.42657417  0.17373037  1.0
  Ni  Ni653  1  0.46119067  0.75990750  0.17373037  1.0
  Ni  Ni654  1  0.79452400  0.09324083  0.17373037  1.0
  Ni  Ni655  1  0.79452400  0.42657417  0.17373037  1.0
  Ni  Ni656  1  0.79452400  0.75990750  0.17373037  1.0
  Ni  Ni657  1  0.12785733  0.25990750  0.12373038  1.0
  Ni  Ni658  1  0.12785733  0.59324083  0.12373038  1.0
  Ni  Ni659  1  0.12785733  0.92657417  0.12373038  1.0
  Ni  Ni660  1  0.46119067  0.25990750  0.12373037  1.0
  Ni  Ni661  1  0.46119067  0.59324083  0.12373037  1.0
  Ni  Ni662  1  0.46119067  0.92657417  0.12373037  1.0
  Ni  Ni663  1  0.79452400  0.25990750  0.12373038  1.0
  Ni  Ni664  1  0.79452400  0.59324083  0.12373038  1.0
  Ni  Ni665  1  0.79452400  0.92657417  0.12373038  1.0
  Ni  Ni666  1  0.20547600  0.07342583  0.16979108  1.0
  Ni  Ni667  1  0.20547600  0.40675917  0.16979108  1.0
  Ni  Ni668  1  0.20547600  0.74009250  0.16979107  1.0
  Ni  Ni669  1  0.53880933  0.07342583  0.16979107  1.0
  Ni  Ni670  1  0.53880933  0.40675917  0.16979107  1.0
  Ni  Ni671  1  0.53880933  0.74009250  0.16979107  1.0
  Ni  Ni672  1  0.87214267  0.07342583  0.16979107  1.0
  Ni  Ni673  1  0.87214267  0.40675917  0.16979107  1.0
  Ni  Ni674  1  0.87214267  0.74009250  0.16979108  1.0
  Ni  Ni675  1  0.20547600  0.24009250  0.11979108  1.0
  Ni  Ni676  1  0.20547600  0.57342583  0.11979108  1.0
  Ni  Ni677  1  0.20547600  0.90675917  0.11979108  1.0
  Ni  Ni678  1  0.53880933  0.24009250  0.11979107  1.0
  Ni  Ni679  1  0.53880933  0.57342583  0.11979108  1.0
  Ni  Ni680  1  0.53880933  0.90675917  0.11979108  1.0
  Ni  Ni681  1  0.87214267  0.24009250  0.11979108  1.0
  Ni  Ni682  1  0.87214267  0.57342583  0.11979108  1.0
  Ni  Ni683  1  0.87214267  0.90675917  0.11979108  1.0
  Ni  Ni684  1  0.27569900  0.01790950  0.11267457  1.0
  Ni  Ni685  1  0.27569900  0.35124283  0.11267457  1.0
  Ni  Ni686  1  0.27569900  0.68457617  0.11267457  1.0
  Ni  Ni687  1  0.60903233  0.01790950  0.11267457  1.0
  Ni  Ni688  1  0.60903233  0.35124283  0.11267457  1.0
  Ni  Ni689  1  0.60903233  0.68457617  0.11267457  1.0
  Ni  Ni690  1  0.94236567  0.01790950  0.11267457  1.0
  Ni  Ni691  1  0.94236567  0.35124283  0.11267457  1.0
  Ni  Ni692  1  0.94236567  0.68457617  0.11267457  1.0
  Ni  Ni693  1  0.27569900  0.18457617  0.16267457  1.0
  Ni  Ni694  1  0.27569900  0.51790950  0.16267457  1.0
  Ni  Ni695  1  0.27569900  0.85124283  0.16267457  1.0
  Ni  Ni696  1  0.60903233  0.18457617  0.16267457  1.0
  Ni  Ni697  1  0.60903233  0.51790950  0.16267457  1.0
  Ni  Ni698  1  0.60903233  0.85124283  0.16267458  1.0
  Ni  Ni699  1  0.94236567  0.18457617  0.16267457  1.0
  Ni  Ni700  1  0.94236567  0.51790950  0.16267457  1.0
  Ni  Ni701  1  0.94236567  0.85124283  0.16267457  1.0
  Ni  Ni702  1  0.05763433  0.14875717  0.13084687  1.0
  Ni  Ni703  1  0.05763433  0.48209050  0.13084687  1.0
  Ni  Ni704  1  0.05763433  0.81542383  0.13084687  1.0
  Ni  Ni705  1  0.39096767  0.14875717  0.13084687  1.0
  Ni  Ni706  1  0.39096767  0.48209050  0.13084687  1.0
  Ni  Ni707  1  0.39096767  0.81542383  0.13084687  1.0
  Ni  Ni708  1  0.72430100  0.14875717  0.13084687  1.0
  Ni  Ni709  1  0.72430100  0.48209050  0.13084688  1.0
  Ni  Ni710  1  0.72430100  0.81542383  0.13084687  1.0
  Ni  Ni711  1  0.05763433  0.31542383  0.18084687  1.0
  Ni  Ni712  1  0.05763433  0.64875717  0.18084687  1.0
  Ni  Ni713  1  0.05763433  0.98209050  0.18084687  1.0
  Ni  Ni714  1  0.39096767  0.31542383  0.18084687  1.0
  Ni  Ni715  1  0.39096767  0.64875717  0.18084688  1.0
  Ni  Ni716  1  0.39096767  0.98209050  0.18084687  1.0
  Ni  Ni717  1  0.72430100  0.31542383  0.18084688  1.0
  Ni  Ni718  1  0.72430100  0.64875717  0.18084688  1.0
  Ni  Ni719  1  0.72430100  0.98209050  0.18084687  1.0
  Hf  Hf720  1  0.24244567  0.14480050  0.26297287  1.0
  Hf  Hf721  1  0.24244567  0.47813383  0.26297287  1.0
  Hf  Hf722  1  0.24244567  0.81146717  0.26297287  1.0
  Hf  Hf723  1  0.57577900  0.14480050  0.26297287  1.0
  Hf  Hf724  1  0.57577900  0.47813383  0.26297287  1.0
  Hf  Hf725  1  0.57577900  0.81146717  0.26297287  1.0
  Hf  Hf726  1  0.90911233  0.14480050  0.26297287  1.0
  Hf  Hf727  1  0.90911233  0.47813383  0.26297287  1.0
  Hf  Hf728  1  0.90911233  0.81146717  0.26297287  1.0
  Hf  Hf729  1  0.24244567  0.31146717  0.21297288  1.0
  Hf  Hf730  1  0.24244567  0.64480050  0.21297288  1.0
  Hf  Hf731  1  0.24244567  0.97813383  0.21297288  1.0
  Hf  Hf732  1  0.57577900  0.31146717  0.21297287  1.0
  Hf  Hf733  1  0.57577900  0.64480050  0.21297288  1.0
  Hf  Hf734  1  0.57577900  0.97813383  0.21297288  1.0
  Hf  Hf735  1  0.90911233  0.31146717  0.21297288  1.0
  Hf  Hf736  1  0.90911233  0.64480050  0.21297288  1.0
  Hf  Hf737  1  0.90911233  0.97813383  0.21297288  1.0
  Hf  Hf738  1  0.09088767  0.02186617  0.28054857  1.0
  Hf  Hf739  1  0.09088767  0.35519950  0.28054857  1.0
  Hf  Hf740  1  0.09088767  0.68853283  0.28054857  1.0
  Hf  Hf741  1  0.42422100  0.02186617  0.28054857  1.0
  Hf  Hf742  1  0.42422100  0.35519950  0.28054857  1.0
  Hf  Hf743  1  0.42422100  0.68853283  0.28054857  1.0
  Hf  Hf744  1  0.75755433  0.02186617  0.28054857  1.0
  Hf  Hf745  1  0.75755433  0.35519950  0.28054857  1.0
  Hf  Hf746  1  0.75755433  0.68853283  0.28054857  1.0
  Hf  Hf747  1  0.09088767  0.18853283  0.23054857  1.0
  Hf  Hf748  1  0.09088767  0.52186617  0.23054857  1.0
  Hf  Hf749  1  0.09088767  0.85519950  0.23054858  1.0
  Hf  Hf750  1  0.42422100  0.18853283  0.23054857  1.0
  Hf  Hf751  1  0.42422100  0.52186617  0.23054857  1.0
  Hf  Hf752  1  0.42422100  0.85519950  0.23054858  1.0
  Hf  Hf753  1  0.75755433  0.18853283  0.23054857  1.0
  Hf  Hf754  1  0.75755433  0.52186617  0.23054857  1.0
  Hf  Hf755  1  0.75755433  0.85519950  0.23054858  1.0
  Hf  Hf756  1  0.18156500  0.12967650  0.28022178  1.0
  Hf  Hf757  1  0.18156500  0.46300983  0.28022178  1.0
  Hf  Hf758  1  0.18156500  0.79634317  0.28022178  1.0
  Hf  Hf759  1  0.51489833  0.12967650  0.28022178  1.0
  Hf  Hf760  1  0.51489833  0.46300983  0.28022178  1.0
  Hf  Hf761  1  0.51489833  0.79634317  0.28022178  1.0
  Hf  Hf762  1  0.84823167  0.12967650  0.28022177  1.0
  Hf  Hf763  1  0.84823167  0.46300983  0.28022178  1.0
  Hf  Hf764  1  0.84823167  0.79634317  0.28022178  1.0
  Hf  Hf765  1  0.18156500  0.29634317  0.23022177  1.0
  Hf  Hf766  1  0.18156500  0.62967650  0.23022177  1.0
  Hf  Hf767  1  0.18156500  0.96300983  0.23022178  1.0
  Hf  Hf768  1  0.51489833  0.29634317  0.23022177  1.0
  Hf  Hf769  1  0.51489833  0.62967650  0.23022177  1.0
  Hf  Hf770  1  0.51489833  0.96300983  0.23022178  1.0
  Hf  Hf771  1  0.84823167  0.29634317  0.23022178  1.0
  Hf  Hf772  1  0.84823167  0.62967650  0.23022178  1.0
  Hf  Hf773  1  0.84823167  0.96300983  0.23022177  1.0
  Hf  Hf774  1  0.15176833  0.03699017  0.26329967  1.0
  Hf  Hf775  1  0.15176833  0.37032350  0.26329967  1.0
  Hf  Hf776  1  0.15176833  0.70365683  0.26329967  1.0
  Hf  Hf777  1  0.48510167  0.03699017  0.26329967  1.0
  Hf  Hf778  1  0.48510167  0.37032350  0.26329967  1.0
  Hf  Hf779  1  0.48510167  0.70365683  0.26329967  1.0
  Hf  Hf780  1  0.81843500  0.03699017  0.26329967  1.0
  Hf  Hf781  1  0.81843500  0.37032350  0.26329967  1.0
  Hf  Hf782  1  0.81843500  0.70365683  0.26329967  1.0
  Hf  Hf783  1  0.15176833  0.20365683  0.21329967  1.0
  Hf  Hf784  1  0.15176833  0.53699017  0.21329968  1.0
  Hf  Hf785  1  0.15176833  0.87032350  0.21329968  1.0
  Hf  Hf786  1  0.48510167  0.20365683  0.21329967  1.0
  Hf  Hf787  1  0.48510167  0.53699017  0.21329968  1.0
  Hf  Hf788  1  0.48510167  0.87032350  0.21329968  1.0
  Hf  Hf789  1  0.81843500  0.20365683  0.21329967  1.0
  Hf  Hf790  1  0.81843500  0.53699017  0.21329968  1.0
  Hf  Hf791  1  0.81843500  0.87032350  0.21329968  1.0
  Hf  Hf792  1  0.32477600  0.10411717  0.20965427  1.0
  Hf  Hf793  1  0.32477600  0.43745050  0.20965428  1.0
  Hf  Hf794  1  0.32477600  0.77078383  0.20965428  1.0
  Hf  Hf795  1  0.65810933  0.10411717  0.20965427  1.0
  Hf  Hf796  1  0.65810933  0.43745050  0.20965428  1.0
  Hf  Hf797  1  0.65810933  0.77078383  0.20965428  1.0
  Hf  Hf798  1  0.99144267  0.10411717  0.20965428  1.0
  Hf  Hf799  1  0.99144267  0.43745050  0.20965428  1.0
  Hf  Hf800  1  0.99144267  0.77078383  0.20965428  1.0
  Hf  Hf801  1  0.32477600  0.27078383  0.25965427  1.0
  Hf  Hf802  1  0.32477600  0.60411717  0.25965428  1.0
  Hf  Hf803  1  0.32477600  0.93745050  0.25965428  1.0
  Hf  Hf804  1  0.65810933  0.27078383  0.25965427  1.0
  Hf  Hf805  1  0.65810933  0.60411717  0.25965428  1.0
  Hf  Hf806  1  0.65810933  0.93745050  0.25965428  1.0
  Hf  Hf807  1  0.99144267  0.27078383  0.25965427  1.0
  Hf  Hf808  1  0.99144267  0.60411717  0.25965428  1.0
  Hf  Hf809  1  0.99144267  0.93745050  0.25965428  1.0
  Hf  Hf810  1  0.00855733  0.06254950  0.23386717  1.0
  Hf  Hf811  1  0.00855733  0.39588283  0.23386718  1.0
  Hf  Hf812  1  0.00855733  0.72921617  0.23386718  1.0
  Hf  Hf813  1  0.34189067  0.06254950  0.23386717  1.0
  Hf  Hf814  1  0.34189067  0.39588283  0.23386718  1.0
  Hf  Hf815  1  0.34189067  0.72921617  0.23386718  1.0
  Hf  Hf816  1  0.67522400  0.06254950  0.23386718  1.0
  Hf  Hf817  1  0.67522400  0.39588283  0.23386718  1.0
  Hf  Hf818  1  0.67522400  0.72921617  0.23386717  1.0
  Hf  Hf819  1  0.00855733  0.22921617  0.28386717  1.0
  Hf  Hf820  1  0.00855733  0.56254950  0.28386717  1.0
  Hf  Hf821  1  0.00855733  0.89588283  0.28386717  1.0
  Hf  Hf822  1  0.34189067  0.22921617  0.28386717  1.0
  Hf  Hf823  1  0.34189067  0.56254950  0.28386718  1.0
  Hf  Hf824  1  0.34189067  0.89588283  0.28386717  1.0
  Hf  Hf825  1  0.67522400  0.22921617  0.28386717  1.0
  Hf  Hf826  1  0.67522400  0.56254950  0.28386717  1.0
  Hf  Hf827  1  0.67522400  0.89588283  0.28386717  1.0
  Ni  Ni828  1  0.16666667  0.08333333  0.22176072  1.0
  Ni  Ni829  1  0.16666667  0.41666667  0.22176073  1.0
  Ni  Ni830  1  0.16666667  0.75000000  0.22176073  1.0
  Ni  Ni831  1  0.50000000  0.08333333  0.22176072  1.0
  Ni  Ni832  1  0.50000000  0.41666667  0.22176073  1.0
  Ni  Ni833  1  0.50000000  0.75000000  0.22176073  1.0
  Ni  Ni834  1  0.83333333  0.08333333  0.22176073  1.0
  Ni  Ni835  1  0.83333333  0.41666667  0.22176073  1.0
  Ni  Ni836  1  0.83333333  0.75000000  0.22176073  1.0
  Ni  Ni837  1  0.16666667  0.25000000  0.27176072  1.0
  Ni  Ni838  1  0.16666667  0.58333333  0.27176072  1.0
  Ni  Ni839  1  0.16666667  0.91666667  0.27176072  1.0
  Ni  Ni840  1  0.50000000  0.25000000  0.27176072  1.0
  Ni  Ni841  1  0.50000000  0.58333333  0.27176072  1.0
  Ni  Ni842  1  0.50000000  0.91666667  0.27176072  1.0
  Ni  Ni843  1  0.83333333  0.25000000  0.27176072  1.0
  Ni  Ni844  1  0.83333333  0.58333333  0.27176072  1.0
  Ni  Ni845  1  0.83333333  0.91666667  0.27176072  1.0
  Ni  Ni846  1  0.00000000  0.00000000  0.29676072  1.0
  Ni  Ni847  1  0.00000000  0.33333333  0.29676072  1.0
  Ni  Ni848  1  1.00000000  0.66666667  0.29676072  1.0
  Ni  Ni849  1  0.33333333  0.00000000  0.29676072  1.0
  Ni  Ni850  1  0.33333333  0.33333333  0.29676072  1.0
  Ni  Ni851  1  0.33333333  0.66666667  0.29676072  1.0
  Ni  Ni852  1  0.66666667  0.00000000  0.29676072  1.0
  Ni  Ni853  1  0.66666667  0.33333333  0.29676072  1.0
  Ni  Ni854  1  0.66666667  0.66666667  0.29676072  1.0
  Ni  Ni855  1  0.00000000  0.16666667  0.24676072  1.0
  Ni  Ni856  1  0.00000000  0.50000000  0.24676073  1.0
  Ni  Ni857  1  1.00000000  0.83333333  0.24676072  1.0
  Ni  Ni858  1  0.33333333  0.16666667  0.24676072  1.0
  Ni  Ni859  1  0.33333333  0.50000000  0.24676073  1.0
  Ni  Ni860  1  0.33333333  0.83333333  0.24676072  1.0
  Ni  Ni861  1  0.66666667  0.16666667  0.24676073  1.0
  Ni  Ni862  1  0.66666667  0.50000000  0.24676073  1.0
  Ni  Ni863  1  0.66666667  0.83333333  0.24676072  1.0
  Ni  Ni864  1  0.02110600  0.03584250  0.29096797  1.0
  Ni  Ni865  1  0.02110600  0.36917583  0.29096797  1.0
  Ni  Ni866  1  0.02110600  0.70250917  0.29096797  1.0
  Ni  Ni867  1  0.35443933  0.03584250  0.29096797  1.0
  Ni  Ni868  1  0.35443933  0.36917583  0.29096797  1.0
  Ni  Ni869  1  0.35443933  0.70250917  0.29096797  1.0
  Ni  Ni870  1  0.68777267  0.03584250  0.29096797  1.0
  Ni  Ni871  1  0.68777267  0.36917583  0.29096797  1.0
  Ni  Ni872  1  0.68777267  0.70250917  0.29096797  1.0
  Ni  Ni873  1  0.02110600  0.20250917  0.24096797  1.0
  Ni  Ni874  1  0.02110600  0.53584250  0.24096797  1.0
  Ni  Ni875  1  0.02110600  0.86917583  0.24096797  1.0
  Ni  Ni876  1  0.35443933  0.20250917  0.24096797  1.0
  Ni  Ni877  1  0.35443933  0.53584250  0.24096798  1.0
  Ni  Ni878  1  0.35443933  0.86917583  0.24096797  1.0
  Ni  Ni879  1  0.68777267  0.20250917  0.24096797  1.0
  Ni  Ni880  1  0.68777267  0.53584250  0.24096798  1.0
  Ni  Ni881  1  0.68777267  0.86917583  0.24096797  1.0
  Ni  Ni882  1  0.31222733  0.13082417  0.25255348  1.0
  Ni  Ni883  1  0.31222733  0.46415750  0.25255348  1.0
  Ni  Ni884  1  0.31222733  0.79749083  0.25255348  1.0
  Ni  Ni885  1  0.64556067  0.13082417  0.25255348  1.0
  Ni  Ni886  1  0.64556067  0.46415750  0.25255347  1.0
  Ni  Ni887  1  0.64556067  0.79749083  0.25255348  1.0
  Ni  Ni888  1  0.97889400  0.13082417  0.25255347  1.0
  Ni  Ni889  1  0.97889400  0.46415750  0.25255348  1.0
  Ni  Ni890  1  0.97889400  0.79749083  0.25255348  1.0
  Ni  Ni891  1  0.31222733  0.29749083  0.20255347  1.0
  Ni  Ni892  1  0.31222733  0.63082417  0.20255347  1.0
  Ni  Ni893  1  0.31222733  0.96415750  0.20255348  1.0
  Ni  Ni894  1  0.64556067  0.29749083  0.20255347  1.0
  Ni  Ni895  1  0.64556067  0.63082417  0.20255347  1.0
  Ni  Ni896  1  0.64556067  0.96415750  0.20255348  1.0
  Ni  Ni897  1  0.97889400  0.29749083  0.20255347  1.0
  Ni  Ni898  1  0.97889400  0.63082417  0.20255348  1.0
  Ni  Ni899  1  0.97889400  0.96415750  0.20255348  1.0
  Ni  Ni900  1  0.05867000  0.07612350  0.29894627  1.0
  Ni  Ni901  1  0.05867000  0.40945683  0.29894628  1.0
  Ni  Ni902  1  0.05867000  0.74279017  0.29894628  1.0
  Ni  Ni903  1  0.39200333  0.07612350  0.29894627  1.0
  Ni  Ni904  1  0.39200333  0.40945683  0.29894627  1.0
  Ni  Ni905  1  0.39200333  0.74279017  0.29894627  1.0
  Ni  Ni906  1  0.72533667  0.07612350  0.29894628  1.0
  Ni  Ni907  1  0.72533667  0.40945683  0.29894628  1.0
  Ni  Ni908  1  0.72533667  0.74279017  0.29894627  1.0
  Ni  Ni909  1  0.05867000  0.24279017  0.24894627  1.0
  Ni  Ni910  1  0.05867000  0.57612350  0.24894627  1.0
  Ni  Ni911  1  0.05867000  0.90945683  0.24894628  1.0
  Ni  Ni912  1  0.39200333  0.24279017  0.24894627  1.0
  Ni  Ni913  1  0.39200333  0.57612350  0.24894627  1.0
  Ni  Ni914  1  0.39200333  0.90945683  0.24894628  1.0
  Ni  Ni915  1  0.72533667  0.24279017  0.24894627  1.0
  Ni  Ni916  1  0.72533667  0.57612350  0.24894628  1.0
  Ni  Ni917  1  0.72533667  0.90945683  0.24894628  1.0
  Ni  Ni918  1  0.27466333  0.09054317  0.24457517  1.0
  Ni  Ni919  1  0.27466333  0.42387650  0.24457518  1.0
  Ni  Ni920  1  0.27466333  0.75720983  0.24457517  1.0
  Ni  Ni921  1  0.60799667  0.09054317  0.24457517  1.0
  Ni  Ni922  1  0.60799667  0.42387650  0.24457517  1.0
  Ni  Ni923  1  0.60799667  0.75720983  0.24457517  1.0
  Ni  Ni924  1  0.94133000  0.09054317  0.24457518  1.0
  Ni  Ni925  1  0.94133000  0.42387650  0.24457518  1.0
  Ni  Ni926  1  0.94133000  0.75720983  0.24457517  1.0
  Ni  Ni927  1  0.27466333  0.25720983  0.29457517  1.0
  Ni  Ni928  1  0.27466333  0.59054317  0.29457517  1.0
  Ni  Ni929  1  0.27466333  0.92387650  0.29457518  1.0
  Ni  Ni930  1  0.60799667  0.25720983  0.29457517  1.0
  Ni  Ni931  1  0.60799667  0.59054317  0.29457517  1.0
  Ni  Ni932  1  0.60799667  0.92387650  0.29457518  1.0
  Ni  Ni933  1  0.94133000  0.25720983  0.29457517  1.0
  Ni  Ni934  1  0.94133000  0.59054317  0.29457517  1.0
  Ni  Ni935  1  0.94133000  0.92387650  0.29457517  1.0
  Ni  Ni936  1  0.10002333  0.12246800  0.20804063  1.0
  Ni  Ni937  1  0.10002333  0.45580133  0.20804063  1.0
  Ni  Ni938  1  0.10002333  0.78913467  0.20804062  1.0
  Ni  Ni939  1  0.43335667  0.12246800  0.20804063  1.0
  Ni  Ni940  1  0.43335667  0.45580133  0.20804062  1.0
  Ni  Ni941  1  0.43335667  0.78913467  0.20804062  1.0
  Ni  Ni942  1  0.76669000  0.12246800  0.20804063  1.0
  Ni  Ni943  1  0.76669000  0.45580133  0.20804062  1.0
  Ni  Ni944  1  0.76669000  0.78913467  0.20804062  1.0
  Ni  Ni945  1  0.10002333  0.28913467  0.25804063  1.0
  Ni  Ni946  1  0.10002333  0.62246800  0.25804063  1.0
  Ni  Ni947  1  0.10002333  0.95580133  0.25804063  1.0
  Ni  Ni948  1  0.43335667  0.28913467  0.25804063  1.0
  Ni  Ni949  1  0.43335667  0.62246800  0.25804063  1.0
  Ni  Ni950  1  0.43335667  0.95580133  0.25804063  1.0
  Ni  Ni951  1  0.76669000  0.28913467  0.25804063  1.0
  Ni  Ni952  1  0.76669000  0.62246800  0.25804063  1.0
  Ni  Ni953  1  0.76669000  0.95580133  0.25804062  1.0
  Ni  Ni954  1  0.23331000  0.04419867  0.23548083  1.0
  Ni  Ni955  1  0.23331000  0.37753200  0.23548082  1.0
  Ni  Ni956  1  0.23331000  0.71086533  0.23548082  1.0
  Ni  Ni957  1  0.56664333  0.04419867  0.23548082  1.0
  Ni  Ni958  1  0.56664333  0.37753200  0.23548082  1.0
  Ni  Ni959  1  0.56664333  0.71086533  0.23548083  1.0
  Ni  Ni960  1  0.89997667  0.04419867  0.23548083  1.0
  Ni  Ni961  1  0.89997667  0.37753200  0.23548083  1.0
  Ni  Ni962  1  0.89997667  0.71086533  0.23548082  1.0
  Ni  Ni963  1  0.23331000  0.21086533  0.28548082  1.0
  Ni  Ni964  1  0.23331000  0.54419867  0.28548082  1.0
  Ni  Ni965  1  0.23331000  0.87753200  0.28548082  1.0
  Ni  Ni966  1  0.56664333  0.21086533  0.28548082  1.0
  Ni  Ni967  1  0.56664333  0.54419867  0.28548082  1.0
  Ni  Ni968  1  0.56664333  0.87753200  0.28548082  1.0
  Ni  Ni969  1  0.89997667  0.21086533  0.28548082  1.0
  Ni  Ni970  1  0.89997667  0.54419867  0.28548083  1.0
  Ni  Ni971  1  0.89997667  0.87753200  0.28548082  1.0
  Ni  Ni972  1  0.11978867  0.15100633  0.29607492  1.0
  Ni  Ni973  1  0.11978867  0.48433967  0.29607492  1.0
  Ni  Ni974  1  0.11978867  0.81767300  0.29607492  1.0
  Ni  Ni975  1  0.45312200  0.15100633  0.29607492  1.0
  Ni  Ni976  1  0.45312200  0.48433967  0.29607492  1.0
  Ni  Ni977  1  0.45312200  0.81767300  0.29607492  1.0
  Ni  Ni978  1  0.78645533  0.15100633  0.29607492  1.0
  Ni  Ni979  1  0.78645533  0.48433967  0.29607492  1.0
  Ni  Ni980  1  0.78645533  0.81767300  0.29607492  1.0
  Ni  Ni981  1  0.11978867  0.31767300  0.24607493  1.0
  Ni  Ni982  1  0.11978867  0.65100633  0.24607493  1.0
  Ni  Ni983  1  0.11978867  0.98433967  0.24607492  1.0
  Ni  Ni984  1  0.45312200  0.31767300  0.24607493  1.0
  Ni  Ni985  1  0.45312200  0.65100633  0.24607493  1.0
  Ni  Ni986  1  0.45312200  0.98433967  0.24607492  1.0
  Ni  Ni987  1  0.78645533  0.31767300  0.24607493  1.0
  Ni  Ni988  1  0.78645533  0.65100633  0.24607493  1.0
  Ni  Ni989  1  0.78645533  0.98433967  0.24607492  1.0
  Ni  Ni990  1  0.21354467  0.01566033  0.24744653  1.0
  Ni  Ni991  1  0.21354467  0.34899367  0.24744653  1.0
  Ni  Ni992  1  0.21354467  0.68232700  0.24744653  1.0
  Ni  Ni993  1  0.54687800  0.01566033  0.24744653  1.0
  Ni  Ni994  1  0.54687800  0.34899367  0.24744652  1.0
  Ni  Ni995  1  0.54687800  0.68232700  0.24744653  1.0
  Ni  Ni996  1  0.88021133  0.01566033  0.24744653  1.0
  Ni  Ni997  1  0.88021133  0.34899367  0.24744653  1.0
  Ni  Ni998  1  0.88021133  0.68232700  0.24744652  1.0
  Ni  Ni999  1  0.21354467  0.18232700  0.29744653  1.0
  Ni  Ni1000  1  0.21354467  0.51566033  0.29744653  1.0
  Ni  Ni1001  1  0.21354467  0.84899367  0.29744653  1.0
  Ni  Ni1002  1  0.54687800  0.18232700  0.29744653  1.0
  Ni  Ni1003  1  0.54687800  0.51566033  0.29744652  1.0
  Ni  Ni1004  1  0.54687800  0.84899367  0.29744653  1.0
  Ni  Ni1005  1  0.88021133  0.18232700  0.29744653  1.0
  Ni  Ni1006  1  0.88021133  0.51566033  0.29744653  1.0
  Ni  Ni1007  1  0.88021133  0.84899367  0.29744652  1.0
  Ni  Ni1008  1  0.12785733  0.09324083  0.27373037  1.0
  Ni  Ni1009  1  0.12785733  0.42657417  0.27373037  1.0
  Ni  Ni1010  1  0.12785733  0.75990750  0.27373037  1.0
  Ni  Ni1011  1  0.46119067  0.09324083  0.27373037  1.0
  Ni  Ni1012  1  0.46119067  0.42657417  0.27373037  1.0
  Ni  Ni1013  1  0.46119067  0.75990750  0.27373037  1.0
  Ni  Ni1014  1  0.79452400  0.09324083  0.27373037  1.0
  Ni  Ni1015  1  0.79452400  0.42657417  0.27373037  1.0
  Ni  Ni1016  1  0.79452400  0.75990750  0.27373037  1.0
  Ni  Ni1017  1  0.12785733  0.25990750  0.22373038  1.0
  Ni  Ni1018  1  0.12785733  0.59324083  0.22373038  1.0
  Ni  Ni1019  1  0.12785733  0.92657417  0.22373038  1.0
  Ni  Ni1020  1  0.46119067  0.25990750  0.22373037  1.0
  Ni  Ni1021  1  0.46119067  0.59324083  0.22373037  1.0
  Ni  Ni1022  1  0.46119067  0.92657417  0.22373038  1.0
  Ni  Ni1023  1  0.79452400  0.25990750  0.22373038  1.0
  Ni  Ni1024  1  0.79452400  0.59324083  0.22373038  1.0
  Ni  Ni1025  1  0.79452400  0.92657417  0.22373038  1.0
  Ni  Ni1026  1  0.20547600  0.07342583  0.26979107  1.0
  Ni  Ni1027  1  0.20547600  0.40675917  0.26979107  1.0
  Ni  Ni1028  1  0.20547600  0.74009250  0.26979107  1.0
  Ni  Ni1029  1  0.53880933  0.07342583  0.26979107  1.0
  Ni  Ni1030  1  0.53880933  0.40675917  0.26979107  1.0
  Ni  Ni1031  1  0.53880933  0.74009250  0.26979107  1.0
  Ni  Ni1032  1  0.87214267  0.07342583  0.26979107  1.0
  Ni  Ni1033  1  0.87214267  0.40675917  0.26979107  1.0
  Ni  Ni1034  1  0.87214267  0.74009250  0.26979107  1.0
  Ni  Ni1035  1  0.20547600  0.24009250  0.21979108  1.0
  Ni  Ni1036  1  0.20547600  0.57342583  0.21979108  1.0
  Ni  Ni1037  1  0.20547600  0.90675917  0.21979108  1.0
  Ni  Ni1038  1  0.53880933  0.24009250  0.21979107  1.0
  Ni  Ni1039  1  0.53880933  0.57342583  0.21979108  1.0
  Ni  Ni1040  1  0.53880933  0.90675917  0.21979108  1.0
  Ni  Ni1041  1  0.87214267  0.24009250  0.21979108  1.0
  Ni  Ni1042  1  0.87214267  0.57342583  0.21979108  1.0
  Ni  Ni1043  1  0.87214267  0.90675917  0.21979108  1.0
  Ni  Ni1044  1  0.27569900  0.01790950  0.21267457  1.0
  Ni  Ni1045  1  0.27569900  0.35124283  0.21267457  1.0
  Ni  Ni1046  1  0.27569900  0.68457617  0.21267457  1.0
  Ni  Ni1047  1  0.60903233  0.01790950  0.21267457  1.0
  Ni  Ni1048  1  0.60903233  0.35124283  0.21267457  1.0
  Ni  Ni1049  1  0.60903233  0.68457617  0.21267458  1.0
  Ni  Ni1050  1  0.94236567  0.01790950  0.21267458  1.0
  Ni  Ni1051  1  0.94236567  0.35124283  0.21267458  1.0
  Ni  Ni1052  1  0.94236567  0.68457617  0.21267457  1.0
  Ni  Ni1053  1  0.27569900  0.18457617  0.26267458  1.0
  Ni  Ni1054  1  0.27569900  0.51790950  0.26267458  1.0
  Ni  Ni1055  1  0.27569900  0.85124283  0.26267458  1.0
  Ni  Ni1056  1  0.60903233  0.18457617  0.26267458  1.0
  Ni  Ni1057  1  0.60903233  0.51790950  0.26267458  1.0
  Ni  Ni1058  1  0.60903233  0.85124283  0.26267458  1.0
  Ni  Ni1059  1  0.94236567  0.18457617  0.26267458  1.0
  Ni  Ni1060  1  0.94236567  0.51790950  0.26267458  1.0
  Ni  Ni1061  1  0.94236567  0.85124283  0.26267458  1.0
  Ni  Ni1062  1  0.05763433  0.14875717  0.23084688  1.0
  Ni  Ni1063  1  0.05763433  0.48209050  0.23084688  1.0
  Ni  Ni1064  1  0.05763433  0.81542383  0.23084688  1.0
  Ni  Ni1065  1  0.39096767  0.14875717  0.23084687  1.0
  Ni  Ni1066  1  0.39096767  0.48209050  0.23084687  1.0
  Ni  Ni1067  1  0.39096767  0.81542383  0.23084688  1.0
  Ni  Ni1068  1  0.72430100  0.14875717  0.23084687  1.0
  Ni  Ni1069  1  0.72430100  0.48209050  0.23084688  1.0
  Ni  Ni1070  1  0.72430100  0.81542383  0.23084687  1.0
  Ni  Ni1071  1  0.05763433  0.31542383  0.28084687  1.0
  Ni  Ni1072  1  0.05763433  0.64875717  0.28084687  1.0
  Ni  Ni1073  1  0.05763433  0.98209050  0.28084687  1.0
  Ni  Ni1074  1  0.39096767  0.31542383  0.28084687  1.0
  Ni  Ni1075  1  0.39096767  0.64875717  0.28084688  1.0
  Ni  Ni1076  1  0.39096767  0.98209050  0.28084687  1.0
  Ni  Ni1077  1  0.72430100  0.31542383  0.28084688  1.0
  Ni  Ni1078  1  0.72430100  0.64875717  0.28084688  1.0
  Ni  Ni1079  1  0.72430100  0.98209050  0.28084687  1.0
  Hf  Hf1080  1  0.24244567  0.14480050  0.36297287  1.0
  Hf  Hf1081  1  0.24244567  0.47813383  0.36297287  1.0
  Hf  Hf1082  1  0.24244567  0.81146717  0.36297287  1.0
  Hf  Hf1083  1  0.57577900  0.14480050  0.36297287  1.0
  Hf  Hf1084  1  0.57577900  0.47813383  0.36297287  1.0
  Hf  Hf1085  1  0.57577900  0.81146717  0.36297287  1.0
  Hf  Hf1086  1  0.90911233  0.14480050  0.36297287  1.0
  Hf  Hf1087  1  0.90911233  0.47813383  0.36297287  1.0
  Hf  Hf1088  1  0.90911233  0.81146717  0.36297287  1.0
  Hf  Hf1089  1  0.24244567  0.31146717  0.31297287  1.0
  Hf  Hf1090  1  0.24244567  0.64480050  0.31297287  1.0
  Hf  Hf1091  1  0.24244567  0.97813383  0.31297288  1.0
  Hf  Hf1092  1  0.57577900  0.31146717  0.31297287  1.0
  Hf  Hf1093  1  0.57577900  0.64480050  0.31297287  1.0
  Hf  Hf1094  1  0.57577900  0.97813383  0.31297288  1.0
  Hf  Hf1095  1  0.90911233  0.31146717  0.31297287  1.0
  Hf  Hf1096  1  0.90911233  0.64480050  0.31297287  1.0
  Hf  Hf1097  1  0.90911233  0.97813383  0.31297288  1.0
  Hf  Hf1098  1  0.09088767  0.02186617  0.38054857  1.0
  Hf  Hf1099  1  0.09088767  0.35519950  0.38054857  1.0
  Hf  Hf1100  1  0.09088767  0.68853283  0.38054857  1.0
  Hf  Hf1101  1  0.42422100  0.02186617  0.38054857  1.0
  Hf  Hf1102  1  0.42422100  0.35519950  0.38054857  1.0
  Hf  Hf1103  1  0.42422100  0.68853283  0.38054857  1.0
  Hf  Hf1104  1  0.75755433  0.02186617  0.38054857  1.0
  Hf  Hf1105  1  0.75755433  0.35519950  0.38054858  1.0
  Hf  Hf1106  1  0.75755433  0.68853283  0.38054857  1.0
  Hf  Hf1107  1  0.09088767  0.18853283  0.33054857  1.0
  Hf  Hf1108  1  0.09088767  0.52186617  0.33054857  1.0
  Hf  Hf1109  1  0.09088767  0.85519950  0.33054858  1.0
  Hf  Hf1110  1  0.42422100  0.18853283  0.33054857  1.0
  Hf  Hf1111  1  0.42422100  0.52186617  0.33054857  1.0
  Hf  Hf1112  1  0.42422100  0.85519950  0.33054858  1.0
  Hf  Hf1113  1  0.75755433  0.18853283  0.33054857  1.0
  Hf  Hf1114  1  0.75755433  0.52186617  0.33054858  1.0
  Hf  Hf1115  1  0.75755433  0.85519950  0.33054858  1.0
  Hf  Hf1116  1  0.18156500  0.12967650  0.38022177  1.0
  Hf  Hf1117  1  0.18156500  0.46300983  0.38022178  1.0
  Hf  Hf1118  1  0.18156500  0.79634317  0.38022178  1.0
  Hf  Hf1119  1  0.51489833  0.12967650  0.38022177  1.0
  Hf  Hf1120  1  0.51489833  0.46300983  0.38022177  1.0
  Hf  Hf1121  1  0.51489833  0.79634317  0.38022178  1.0
  Hf  Hf1122  1  0.84823167  0.12967650  0.38022177  1.0
  Hf  Hf1123  1  0.84823167  0.46300983  0.38022178  1.0
  Hf  Hf1124  1  0.84823167  0.79634317  0.38022177  1.0
  Hf  Hf1125  1  0.18156500  0.29634317  0.33022177  1.0
  Hf  Hf1126  1  0.18156500  0.62967650  0.33022177  1.0
  Hf  Hf1127  1  0.18156500  0.96300983  0.33022178  1.0
  Hf  Hf1128  1  0.51489833  0.29634317  0.33022177  1.0
  Hf  Hf1129  1  0.51489833  0.62967650  0.33022177  1.0
  Hf  Hf1130  1  0.51489833  0.96300983  0.33022177  1.0
  Hf  Hf1131  1  0.84823167  0.29634317  0.33022177  1.0
  Hf  Hf1132  1  0.84823167  0.62967650  0.33022177  1.0
  Hf  Hf1133  1  0.84823167  0.96300983  0.33022177  1.0
  Hf  Hf1134  1  0.15176833  0.03699017  0.36329967  1.0
  Hf  Hf1135  1  0.15176833  0.37032350  0.36329967  1.0
  Hf  Hf1136  1  0.15176833  0.70365683  0.36329967  1.0
  Hf  Hf1137  1  0.48510167  0.03699017  0.36329967  1.0
  Hf  Hf1138  1  0.48510167  0.37032350  0.36329967  1.0
  Hf  Hf1139  1  0.48510167  0.70365683  0.36329967  1.0
  Hf  Hf1140  1  0.81843500  0.03699017  0.36329967  1.0
  Hf  Hf1141  1  0.81843500  0.37032350  0.36329967  1.0
  Hf  Hf1142  1  0.81843500  0.70365683  0.36329967  1.0
  Hf  Hf1143  1  0.15176833  0.20365683  0.31329967  1.0
  Hf  Hf1144  1  0.15176833  0.53699017  0.31329968  1.0
  Hf  Hf1145  1  0.15176833  0.87032350  0.31329967  1.0
  Hf  Hf1146  1  0.48510167  0.20365683  0.31329967  1.0
  Hf  Hf1147  1  0.48510167  0.53699017  0.31329967  1.0
  Hf  Hf1148  1  0.48510167  0.87032350  0.31329967  1.0
  Hf  Hf1149  1  0.81843500  0.20365683  0.31329967  1.0
  Hf  Hf1150  1  0.81843500  0.53699017  0.31329968  1.0
  Hf  Hf1151  1  0.81843500  0.87032350  0.31329967  1.0
  Hf  Hf1152  1  0.32477600  0.10411717  0.30965427  1.0
  Hf  Hf1153  1  0.32477600  0.43745050  0.30965427  1.0
  Hf  Hf1154  1  0.32477600  0.77078383  0.30965427  1.0
  Hf  Hf1155  1  0.65810933  0.10411717  0.30965427  1.0
  Hf  Hf1156  1  0.65810933  0.43745050  0.30965427  1.0
  Hf  Hf1157  1  0.65810933  0.77078383  0.30965427  1.0
  Hf  Hf1158  1  0.99144267  0.10411717  0.30965427  1.0
  Hf  Hf1159  1  0.99144267  0.43745050  0.30965427  1.0
  Hf  Hf1160  1  0.99144267  0.77078383  0.30965427  1.0
  Hf  Hf1161  1  0.32477600  0.27078383  0.35965427  1.0
  Hf  Hf1162  1  0.32477600  0.60411717  0.35965427  1.0
  Hf  Hf1163  1  0.32477600  0.93745050  0.35965428  1.0
  Hf  Hf1164  1  0.65810933  0.27078383  0.35965427  1.0
  Hf  Hf1165  1  0.65810933  0.60411717  0.35965427  1.0
  Hf  Hf1166  1  0.65810933  0.93745050  0.35965428  1.0
  Hf  Hf1167  1  0.99144267  0.27078383  0.35965427  1.0
  Hf  Hf1168  1  0.99144267  0.60411717  0.35965428  1.0
  Hf  Hf1169  1  0.99144267  0.93745050  0.35965427  1.0
  Hf  Hf1170  1  0.00855733  0.06254950  0.33386717  1.0
  Hf  Hf1171  1  0.00855733  0.39588283  0.33386717  1.0
  Hf  Hf1172  1  0.00855733  0.72921617  0.33386718  1.0
  Hf  Hf1173  1  0.34189067  0.06254950  0.33386717  1.0
  Hf  Hf1174  1  0.34189067  0.39588283  0.33386717  1.0
  Hf  Hf1175  1  0.34189067  0.72921617  0.33386717  1.0
  Hf  Hf1176  1  0.67522400  0.06254950  0.33386717  1.0
  Hf  Hf1177  1  0.67522400  0.39588283  0.33386717  1.0
  Hf  Hf1178  1  0.67522400  0.72921617  0.33386717  1.0
  Hf  Hf1179  1  0.00855733  0.22921617  0.38386717  1.0
  Hf  Hf1180  1  0.00855733  0.56254950  0.38386718  1.0
  Hf  Hf1181  1  0.00855733  0.89588283  0.38386717  1.0
  Hf  Hf1182  1  0.34189067  0.22921617  0.38386717  1.0
  Hf  Hf1183  1  0.34189067  0.56254950  0.38386718  1.0
  Hf  Hf1184  1  0.34189067  0.89588283  0.38386717  1.0
  Hf  Hf1185  1  0.67522400  0.22921617  0.38386717  1.0
  Hf  Hf1186  1  0.67522400  0.56254950  0.38386718  1.0
  Hf  Hf1187  1  0.67522400  0.89588283  0.38386717  1.0
  Ni  Ni1188  1  0.16666667  0.08333333  0.32176072  1.0
  Ni  Ni1189  1  0.16666667  0.41666667  0.32176072  1.0
  Ni  Ni1190  1  0.16666667  0.75000000  0.32176072  1.0
  Ni  Ni1191  1  0.50000000  0.08333333  0.32176072  1.0
  Ni  Ni1192  1  0.50000000  0.41666667  0.32176072  1.0
  Ni  Ni1193  1  0.50000000  0.75000000  0.32176072  1.0
  Ni  Ni1194  1  0.83333333  0.08333333  0.32176072  1.0
  Ni  Ni1195  1  0.83333333  0.41666667  0.32176072  1.0
  Ni  Ni1196  1  0.83333333  0.75000000  0.32176073  1.0
  Ni  Ni1197  1  0.16666667  0.25000000  0.37176072  1.0
  Ni  Ni1198  1  0.16666667  0.58333333  0.37176072  1.0
  Ni  Ni1199  1  0.16666667  0.91666667  0.37176072  1.0
  Ni  Ni1200  1  0.50000000  0.25000000  0.37176072  1.0
  Ni  Ni1201  1  0.50000000  0.58333333  0.37176072  1.0
  Ni  Ni1202  1  0.50000000  0.91666667  0.37176072  1.0
  Ni  Ni1203  1  0.83333333  0.25000000  0.37176072  1.0
  Ni  Ni1204  1  0.83333333  0.58333333  0.37176072  1.0
  Ni  Ni1205  1  0.83333333  0.91666667  0.37176072  1.0
  Ni  Ni1206  1  0.00000000  0.00000000  0.39676072  1.0
  Ni  Ni1207  1  0.00000000  0.33333333  0.39676072  1.0
  Ni  Ni1208  1  1.00000000  0.66666667  0.39676072  1.0
  Ni  Ni1209  1  0.33333333  0.00000000  0.39676072  1.0
  Ni  Ni1210  1  0.33333333  0.33333333  0.39676072  1.0
  Ni  Ni1211  1  0.33333333  0.66666667  0.39676072  1.0
  Ni  Ni1212  1  0.66666667  0.00000000  0.39676072  1.0
  Ni  Ni1213  1  0.66666667  0.33333333  0.39676072  1.0
  Ni  Ni1214  1  0.66666667  0.66666667  0.39676072  1.0
  Ni  Ni1215  1  0.00000000  0.16666667  0.34676072  1.0
  Ni  Ni1216  1  0.00000000  0.50000000  0.34676072  1.0
  Ni  Ni1217  1  1.00000000  0.83333333  0.34676072  1.0
  Ni  Ni1218  1  0.33333333  0.16666667  0.34676072  1.0
  Ni  Ni1219  1  0.33333333  0.50000000  0.34676072  1.0
  Ni  Ni1220  1  0.33333333  0.83333333  0.34676072  1.0
  Ni  Ni1221  1  0.66666667  0.16666667  0.34676072  1.0
  Ni  Ni1222  1  0.66666667  0.50000000  0.34676072  1.0
  Ni  Ni1223  1  0.66666667  0.83333333  0.34676072  1.0
  Ni  Ni1224  1  0.02110600  0.03584250  0.39096797  1.0
  Ni  Ni1225  1  0.02110600  0.36917583  0.39096797  1.0
  Ni  Ni1226  1  0.02110600  0.70250917  0.39096797  1.0
  Ni  Ni1227  1  0.35443933  0.03584250  0.39096797  1.0
  Ni  Ni1228  1  0.35443933  0.36917583  0.39096797  1.0
  Ni  Ni1229  1  0.35443933  0.70250917  0.39096797  1.0
  Ni  Ni1230  1  0.68777267  0.03584250  0.39096797  1.0
  Ni  Ni1231  1  0.68777267  0.36917583  0.39096797  1.0
  Ni  Ni1232  1  0.68777267  0.70250917  0.39096797  1.0
  Ni  Ni1233  1  0.02110600  0.20250917  0.34096797  1.0
  Ni  Ni1234  1  0.02110600  0.53584250  0.34096797  1.0
  Ni  Ni1235  1  0.02110600  0.86917583  0.34096797  1.0
  Ni  Ni1236  1  0.35443933  0.20250917  0.34096797  1.0
  Ni  Ni1237  1  0.35443933  0.53584250  0.34096797  1.0
  Ni  Ni1238  1  0.35443933  0.86917583  0.34096797  1.0
  Ni  Ni1239  1  0.68777267  0.20250917  0.34096797  1.0
  Ni  Ni1240  1  0.68777267  0.53584250  0.34096797  1.0
  Ni  Ni1241  1  0.68777267  0.86917583  0.34096797  1.0
  Ni  Ni1242  1  0.31222733  0.13082417  0.35255348  1.0
  Ni  Ni1243  1  0.31222733  0.46415750  0.35255348  1.0
  Ni  Ni1244  1  0.31222733  0.79749083  0.35255348  1.0
  Ni  Ni1245  1  0.64556067  0.13082417  0.35255348  1.0
  Ni  Ni1246  1  0.64556067  0.46415750  0.35255347  1.0
  Ni  Ni1247  1  0.64556067  0.79749083  0.35255348  1.0
  Ni  Ni1248  1  0.97889400  0.13082417  0.35255347  1.0
  Ni  Ni1249  1  0.97889400  0.46415750  0.35255348  1.0
  Ni  Ni1250  1  0.97889400  0.79749083  0.35255348  1.0
  Ni  Ni1251  1  0.31222733  0.29749083  0.30255347  1.0
  Ni  Ni1252  1  0.31222733  0.63082417  0.30255347  1.0
  Ni  Ni1253  1  0.31222733  0.96415750  0.30255348  1.0
  Ni  Ni1254  1  0.64556067  0.29749083  0.30255347  1.0
  Ni  Ni1255  1  0.64556067  0.63082417  0.30255347  1.0
  Ni  Ni1256  1  0.64556067  0.96415750  0.30255348  1.0
  Ni  Ni1257  1  0.97889400  0.29749083  0.30255347  1.0
  Ni  Ni1258  1  0.97889400  0.63082417  0.30255347  1.0
  Ni  Ni1259  1  0.97889400  0.96415750  0.30255347  1.0
  Ni  Ni1260  1  0.05867000  0.07612350  0.39894628  1.0
  Ni  Ni1261  1  0.05867000  0.40945683  0.39894628  1.0
  Ni  Ni1262  1  0.05867000  0.74279017  0.39894628  1.0
  Ni  Ni1263  1  0.39200333  0.07612350  0.39894628  1.0
  Ni  Ni1264  1  0.39200333  0.40945683  0.39894627  1.0
  Ni  Ni1265  1  0.39200333  0.74279017  0.39894628  1.0
  Ni  Ni1266  1  0.72533667  0.07612350  0.39894628  1.0
  Ni  Ni1267  1  0.72533667  0.40945683  0.39894628  1.0
  Ni  Ni1268  1  0.72533667  0.74279017  0.39894628  1.0
  Ni  Ni1269  1  0.05867000  0.24279017  0.34894627  1.0
  Ni  Ni1270  1  0.05867000  0.57612350  0.34894627  1.0
  Ni  Ni1271  1  0.05867000  0.90945683  0.34894628  1.0
  Ni  Ni1272  1  0.39200333  0.24279017  0.34894627  1.0
  Ni  Ni1273  1  0.39200333  0.57612350  0.34894627  1.0
  Ni  Ni1274  1  0.39200333  0.90945683  0.34894628  1.0
  Ni  Ni1275  1  0.72533667  0.24279017  0.34894627  1.0
  Ni  Ni1276  1  0.72533667  0.57612350  0.34894628  1.0
  Ni  Ni1277  1  0.72533667  0.90945683  0.34894628  1.0
  Ni  Ni1278  1  0.27466333  0.09054317  0.34457517  1.0
  Ni  Ni1279  1  0.27466333  0.42387650  0.34457518  1.0
  Ni  Ni1280  1  0.27466333  0.75720983  0.34457517  1.0
  Ni  Ni1281  1  0.60799667  0.09054317  0.34457517  1.0
  Ni  Ni1282  1  0.60799667  0.42387650  0.34457517  1.0
  Ni  Ni1283  1  0.60799667  0.75720983  0.34457517  1.0
  Ni  Ni1284  1  0.94133000  0.09054317  0.34457517  1.0
  Ni  Ni1285  1  0.94133000  0.42387650  0.34457518  1.0
  Ni  Ni1286  1  0.94133000  0.75720983  0.34457517  1.0
  Ni  Ni1287  1  0.27466333  0.25720983  0.39457517  1.0
  Ni  Ni1288  1  0.27466333  0.59054317  0.39457517  1.0
  Ni  Ni1289  1  0.27466333  0.92387650  0.39457518  1.0
  Ni  Ni1290  1  0.60799667  0.25720983  0.39457518  1.0
  Ni  Ni1291  1  0.60799667  0.59054317  0.39457517  1.0
  Ni  Ni1292  1  0.60799667  0.92387650  0.39457518  1.0
  Ni  Ni1293  1  0.94133000  0.25720983  0.39457517  1.0
  Ni  Ni1294  1  0.94133000  0.59054317  0.39457518  1.0
  Ni  Ni1295  1  0.94133000  0.92387650  0.39457518  1.0
  Ni  Ni1296  1  0.10002333  0.12246800  0.30804063  1.0
  Ni  Ni1297  1  0.10002333  0.45580133  0.30804063  1.0
  Ni  Ni1298  1  0.10002333  0.78913467  0.30804062  1.0
  Ni  Ni1299  1  0.43335667  0.12246800  0.30804063  1.0
  Ni  Ni1300  1  0.43335667  0.45580133  0.30804063  1.0
  Ni  Ni1301  1  0.43335667  0.78913467  0.30804063  1.0
  Ni  Ni1302  1  0.76669000  0.12246800  0.30804063  1.0
  Ni  Ni1303  1  0.76669000  0.45580133  0.30804063  1.0
  Ni  Ni1304  1  0.76669000  0.78913467  0.30804062  1.0
  Ni  Ni1305  1  0.10002333  0.28913467  0.35804063  1.0
  Ni  Ni1306  1  0.10002333  0.62246800  0.35804063  1.0
  Ni  Ni1307  1  0.10002333  0.95580133  0.35804063  1.0
  Ni  Ni1308  1  0.43335667  0.28913467  0.35804063  1.0
  Ni  Ni1309  1  0.43335667  0.62246800  0.35804063  1.0
  Ni  Ni1310  1  0.43335667  0.95580133  0.35804063  1.0
  Ni  Ni1311  1  0.76669000  0.28913467  0.35804063  1.0
  Ni  Ni1312  1  0.76669000  0.62246800  0.35804063  1.0
  Ni  Ni1313  1  0.76669000  0.95580133  0.35804063  1.0
  Ni  Ni1314  1  0.23331000  0.04419867  0.33548082  1.0
  Ni  Ni1315  1  0.23331000  0.37753200  0.33548082  1.0
  Ni  Ni1316  1  0.23331000  0.71086533  0.33548082  1.0
  Ni  Ni1317  1  0.56664333  0.04419867  0.33548082  1.0
  Ni  Ni1318  1  0.56664333  0.37753200  0.33548082  1.0
  Ni  Ni1319  1  0.56664333  0.71086533  0.33548082  1.0
  Ni  Ni1320  1  0.89997667  0.04419867  0.33548082  1.0
  Ni  Ni1321  1  0.89997667  0.37753200  0.33548082  1.0
  Ni  Ni1322  1  0.89997667  0.71086533  0.33548082  1.0
  Ni  Ni1323  1  0.23331000  0.21086533  0.38548082  1.0
  Ni  Ni1324  1  0.23331000  0.54419867  0.38548082  1.0
  Ni  Ni1325  1  0.23331000  0.87753200  0.38548083  1.0
  Ni  Ni1326  1  0.56664333  0.21086533  0.38548082  1.0
  Ni  Ni1327  1  0.56664333  0.54419867  0.38548082  1.0
  Ni  Ni1328  1  0.56664333  0.87753200  0.38548082  1.0
  Ni  Ni1329  1  0.89997667  0.21086533  0.38548082  1.0
  Ni  Ni1330  1  0.89997667  0.54419867  0.38548082  1.0
  Ni  Ni1331  1  0.89997667  0.87753200  0.38548082  1.0
  Ni  Ni1332  1  0.11978867  0.15100633  0.39607492  1.0
  Ni  Ni1333  1  0.11978867  0.48433967  0.39607492  1.0
  Ni  Ni1334  1  0.11978867  0.81767300  0.39607492  1.0
  Ni  Ni1335  1  0.45312200  0.15100633  0.39607492  1.0
  Ni  Ni1336  1  0.45312200  0.48433967  0.39607492  1.0
  Ni  Ni1337  1  0.45312200  0.81767300  0.39607492  1.0
  Ni  Ni1338  1  0.78645533  0.15100633  0.39607492  1.0
  Ni  Ni1339  1  0.78645533  0.48433967  0.39607492  1.0
  Ni  Ni1340  1  0.78645533  0.81767300  0.39607492  1.0
  Ni  Ni1341  1  0.11978867  0.31767300  0.34607493  1.0
  Ni  Ni1342  1  0.11978867  0.65100633  0.34607493  1.0
  Ni  Ni1343  1  0.11978867  0.98433967  0.34607492  1.0
  Ni  Ni1344  1  0.45312200  0.31767300  0.34607493  1.0
  Ni  Ni1345  1  0.45312200  0.65100633  0.34607493  1.0
  Ni  Ni1346  1  0.45312200  0.98433967  0.34607492  1.0
  Ni  Ni1347  1  0.78645533  0.31767300  0.34607493  1.0
  Ni  Ni1348  1  0.78645533  0.65100633  0.34607493  1.0
  Ni  Ni1349  1  0.78645533  0.98433967  0.34607492  1.0
  Ni  Ni1350  1  0.21354467  0.01566033  0.34744653  1.0
  Ni  Ni1351  1  0.21354467  0.34899367  0.34744653  1.0
  Ni  Ni1352  1  0.21354467  0.68232700  0.34744653  1.0
  Ni  Ni1353  1  0.54687800  0.01566033  0.34744653  1.0
  Ni  Ni1354  1  0.54687800  0.34899367  0.34744652  1.0
  Ni  Ni1355  1  0.54687800  0.68232700  0.34744653  1.0
  Ni  Ni1356  1  0.88021133  0.01566033  0.34744653  1.0
  Ni  Ni1357  1  0.88021133  0.34899367  0.34744653  1.0
  Ni  Ni1358  1  0.88021133  0.68232700  0.34744653  1.0
  Ni  Ni1359  1  0.21354467  0.18232700  0.39744652  1.0
  Ni  Ni1360  1  0.21354467  0.51566033  0.39744652  1.0
  Ni  Ni1361  1  0.21354467  0.84899367  0.39744652  1.0
  Ni  Ni1362  1  0.54687800  0.18232700  0.39744652  1.0
  Ni  Ni1363  1  0.54687800  0.51566033  0.39744652  1.0
  Ni  Ni1364  1  0.54687800  0.84899367  0.39744652  1.0
  Ni  Ni1365  1  0.88021133  0.18232700  0.39744652  1.0
  Ni  Ni1366  1  0.88021133  0.51566033  0.39744653  1.0
  Ni  Ni1367  1  0.88021133  0.84899367  0.39744652  1.0
  Ni  Ni1368  1  0.12785733  0.09324083  0.37373037  1.0
  Ni  Ni1369  1  0.12785733  0.42657417  0.37373037  1.0
  Ni  Ni1370  1  0.12785733  0.75990750  0.37373037  1.0
  Ni  Ni1371  1  0.46119067  0.09324083  0.37373037  1.0
  Ni  Ni1372  1  0.46119067  0.42657417  0.37373037  1.0
  Ni  Ni1373  1  0.46119067  0.75990750  0.37373037  1.0
  Ni  Ni1374  1  0.79452400  0.09324083  0.37373037  1.0
  Ni  Ni1375  1  0.79452400  0.42657417  0.37373037  1.0
  Ni  Ni1376  1  0.79452400  0.75990750  0.37373037  1.0
  Ni  Ni1377  1  0.12785733  0.25990750  0.32373037  1.0
  Ni  Ni1378  1  0.12785733  0.59324083  0.32373037  1.0
  Ni  Ni1379  1  0.12785733  0.92657417  0.32373038  1.0
  Ni  Ni1380  1  0.46119067  0.25990750  0.32373037  1.0
  Ni  Ni1381  1  0.46119067  0.59324083  0.32373037  1.0
  Ni  Ni1382  1  0.46119067  0.92657417  0.32373037  1.0
  Ni  Ni1383  1  0.79452400  0.25990750  0.32373037  1.0
  Ni  Ni1384  1  0.79452400  0.59324083  0.32373037  1.0
  Ni  Ni1385  1  0.79452400  0.92657417  0.32373038  1.0
  Ni  Ni1386  1  0.20547600  0.07342583  0.36979107  1.0
  Ni  Ni1387  1  0.20547600  0.40675917  0.36979107  1.0
  Ni  Ni1388  1  0.20547600  0.74009250  0.36979107  1.0
  Ni  Ni1389  1  0.53880933  0.07342583  0.36979107  1.0
  Ni  Ni1390  1  0.53880933  0.40675917  0.36979107  1.0
  Ni  Ni1391  1  0.53880933  0.74009250  0.36979107  1.0
  Ni  Ni1392  1  0.87214267  0.07342583  0.36979107  1.0
  Ni  Ni1393  1  0.87214267  0.40675917  0.36979107  1.0
  Ni  Ni1394  1  0.87214267  0.74009250  0.36979107  1.0
  Ni  Ni1395  1  0.20547600  0.24009250  0.31979108  1.0
  Ni  Ni1396  1  0.20547600  0.57342583  0.31979108  1.0
  Ni  Ni1397  1  0.20547600  0.90675917  0.31979108  1.0
  Ni  Ni1398  1  0.53880933  0.24009250  0.31979107  1.0
  Ni  Ni1399  1  0.53880933  0.57342583  0.31979107  1.0
  Ni  Ni1400  1  0.53880933  0.90675917  0.31979108  1.0
  Ni  Ni1401  1  0.87214267  0.24009250  0.31979108  1.0
  Ni  Ni1402  1  0.87214267  0.57342583  0.31979108  1.0
  Ni  Ni1403  1  0.87214267  0.90675917  0.31979108  1.0
  Ni  Ni1404  1  0.27569900  0.01790950  0.31267457  1.0
  Ni  Ni1405  1  0.27569900  0.35124283  0.31267457  1.0
  Ni  Ni1406  1  0.27569900  0.68457617  0.31267457  1.0
  Ni  Ni1407  1  0.60903233  0.01790950  0.31267457  1.0
  Ni  Ni1408  1  0.60903233  0.35124283  0.31267457  1.0
  Ni  Ni1409  1  0.60903233  0.68457617  0.31267457  1.0
  Ni  Ni1410  1  0.94236567  0.01790950  0.31267457  1.0
  Ni  Ni1411  1  0.94236567  0.35124283  0.31267457  1.0
  Ni  Ni1412  1  0.94236567  0.68457617  0.31267457  1.0
  Ni  Ni1413  1  0.27569900  0.18457617  0.36267457  1.0
  Ni  Ni1414  1  0.27569900  0.51790950  0.36267457  1.0
  Ni  Ni1415  1  0.27569900  0.85124283  0.36267457  1.0
  Ni  Ni1416  1  0.60903233  0.18457617  0.36267457  1.0
  Ni  Ni1417  1  0.60903233  0.51790950  0.36267457  1.0
  Ni  Ni1418  1  0.60903233  0.85124283  0.36267457  1.0
  Ni  Ni1419  1  0.94236567  0.18457617  0.36267457  1.0
  Ni  Ni1420  1  0.94236567  0.51790950  0.36267457  1.0
  Ni  Ni1421  1  0.94236567  0.85124283  0.36267457  1.0
  Ni  Ni1422  1  0.05763433  0.14875717  0.33084687  1.0
  Ni  Ni1423  1  0.05763433  0.48209050  0.33084687  1.0
  Ni  Ni1424  1  0.05763433  0.81542383  0.33084687  1.0
  Ni  Ni1425  1  0.39096767  0.14875717  0.33084687  1.0
  Ni  Ni1426  1  0.39096767  0.48209050  0.33084687  1.0
  Ni  Ni1427  1  0.39096767  0.81542383  0.33084687  1.0
  Ni  Ni1428  1  0.72430100  0.14875717  0.33084687  1.0
  Ni  Ni1429  1  0.72430100  0.48209050  0.33084687  1.0
  Ni  Ni1430  1  0.72430100  0.81542383  0.33084687  1.0
  Ni  Ni1431  1  0.05763433  0.31542383  0.38084687  1.0
  Ni  Ni1432  1  0.05763433  0.64875717  0.38084687  1.0
  Ni  Ni1433  1  0.05763433  0.98209050  0.38084687  1.0
  Ni  Ni1434  1  0.39096767  0.31542383  0.38084687  1.0
  Ni  Ni1435  1  0.39096767  0.64875717  0.38084688  1.0
  Ni  Ni1436  1  0.39096767  0.98209050  0.38084687  1.0
  Ni  Ni1437  1  0.72430100  0.31542383  0.38084688  1.0
  Ni  Ni1438  1  0.72430100  0.64875717  0.38084688  1.0
  Ni  Ni1439  1  0.72430100  0.98209050  0.38084687  1.0
