# generated using pymatgen
data_Hf3Ni7
_symmetry_space_group_name_H-M   'P 1'
_cell_length_a   36.32764482
_cell_length_b   26.04107115
_cell_length_c   32.86286460
_cell_angle_alpha   61.16796417
_cell_angle_beta   97.44707057
_cell_angle_gamma   72.18616557
_symmetry_Int_Tables_number   1
_chemical_formula_structural   Hf3Ni7
_chemical_formula_sum   'Hf216 Ni504'
_cell_volume   24455.68765610
_cell_formula_units_Z   72
loop_
 _symmetry_equiv_pos_site_id
 _symmetry_equiv_pos_as_xyz
  1  'x, y, z'
loop_
 _atom_site_type_symbol
 _atom_site_label
 _atom_site_symmetry_multiplicity
 _atom_site_fract_x
 _atom_site_fract_y
 _atom_site_fract_z
 _atom_site_occupancy
  Hf  Hf0  1  0.27193000  0.28960100  0.01217175  1.0
  Hf  Hf1  1  0.27193000  0.62293433  0.01217175  1.0
  Hf  Hf2  1  0.27193000  0.95626767  0.01217175  1.0
  Hf  Hf3  1  0.60526333  0.28960100  0.01217175  1.0
  Hf  Hf4  1  0.60526333  0.62293433  0.01217175  1.0
  Hf  Hf5  1  0.60526333  0.95626767  0.01217175  1.0
  Hf  Hf6  1  0.93859667  0.28960100  0.01217175  1.0
  Hf  Hf7  1  0.93859667  0.62293433  0.01217175  1.0
  Hf  Hf8  1  0.93859667  0.95626767  0.01217175  1.0
  Hf  Hf9  1  0.10526333  0.28960100  0.11217175  1.0
  Hf  Hf10  1  0.10526333  0.62293433  0.11217175  1.0
  Hf  Hf11  1  0.10526333  0.95626767  0.11217175  1.0
  Hf  Hf12  1  0.43859667  0.28960100  0.11217175  1.0
  Hf  Hf13  1  0.43859667  0.62293433  0.11217175  1.0
  Hf  Hf14  1  0.43859667  0.95626767  0.11217175  1.0
  Hf  Hf15  1  0.77193000  0.28960100  0.11217175  1.0
  Hf  Hf16  1  0.77193000  0.62293433  0.11217175  1.0
  Hf  Hf17  1  0.77193000  0.95626767  0.11217175  1.0
  Hf  Hf18  1  0.06140333  0.04373233  0.17679055  1.0
  Hf  Hf19  1  0.06140333  0.37706567  0.17679055  1.0
  Hf  Hf20  1  0.06140333  0.71039900  0.17679055  1.0
  Hf  Hf21  1  0.39473667  0.04373233  0.17679055  1.0
  Hf  Hf22  1  0.39473667  0.37706567  0.17679055  1.0
  Hf  Hf23  1  0.39473667  0.71039900  0.17679055  1.0
  Hf  Hf24  1  0.72807000  0.04373233  0.17679055  1.0
  Hf  Hf25  1  0.72807000  0.37706567  0.17679055  1.0
  Hf  Hf26  1  0.72807000  0.71039900  0.17679055  1.0
  Hf  Hf27  1  0.22807000  0.04373233  0.07679055  1.0
  Hf  Hf28  1  0.22807000  0.37706567  0.07679055  1.0
  Hf  Hf29  1  0.22807000  0.71039900  0.07679055  1.0
  Hf  Hf30  1  0.56140333  0.04373233  0.07679055  1.0
  Hf  Hf31  1  0.56140333  0.37706567  0.07679055  1.0
  Hf  Hf32  1  0.56140333  0.71039900  0.07679055  1.0
  Hf  Hf33  1  0.89473667  0.04373233  0.07679055  1.0
  Hf  Hf34  1  0.89473667  0.37706567  0.07679055  1.0
  Hf  Hf35  1  0.89473667  0.71039900  0.07679055  1.0
  Hf  Hf36  1  0.02047117  0.25935300  0.09782485  1.0
  Hf  Hf37  1  0.02047117  0.59268633  0.09782485  1.0
  Hf  Hf38  1  0.02047117  0.92601967  0.09782485  1.0
  Hf  Hf39  1  0.35380450  0.25935300  0.09782485  1.0
  Hf  Hf40  1  0.35380450  0.59268633  0.09782485  1.0
  Hf  Hf41  1  0.35380450  0.92601967  0.09782485  1.0
  Hf  Hf42  1  0.68713783  0.25935300  0.09782485  1.0
  Hf  Hf43  1  0.68713783  0.59268633  0.09782485  1.0
  Hf  Hf44  1  0.68713783  0.92601967  0.09782485  1.0
  Hf  Hf45  1  0.18713783  0.25935300  0.19782485  1.0
  Hf  Hf46  1  0.18713783  0.59268633  0.19782485  1.0
  Hf  Hf47  1  0.18713783  0.92601967  0.19782485  1.0
  Hf  Hf48  1  0.52047117  0.25935300  0.19782485  1.0
  Hf  Hf49  1  0.52047117  0.59268633  0.19782485  1.0
  Hf  Hf50  1  0.52047117  0.92601967  0.19782485  1.0
  Hf  Hf51  1  0.85380450  0.25935300  0.19782485  1.0
  Hf  Hf52  1  0.85380450  0.59268633  0.19782485  1.0
  Hf  Hf53  1  0.85380450  0.92601967  0.19782485  1.0
  Hf  Hf54  1  0.31286217  0.07398033  0.09113745  1.0
  Hf  Hf55  1  0.31286217  0.40731367  0.09113745  1.0
  Hf  Hf56  1  0.31286217  0.74064700  0.09113745  1.0
  Hf  Hf57  1  0.64619550  0.07398033  0.09113745  1.0
  Hf  Hf58  1  0.64619550  0.40731367  0.09113745  1.0
  Hf  Hf59  1  0.64619550  0.74064700  0.09113745  1.0
  Hf  Hf60  1  0.97952883  0.07398033  0.09113745  1.0
  Hf  Hf61  1  0.97952883  0.40731367  0.09113745  1.0
  Hf  Hf62  1  0.97952883  0.74064700  0.09113745  1.0
  Hf  Hf63  1  0.14619550  0.07398033  0.19113745  1.0
  Hf  Hf64  1  0.14619550  0.40731367  0.19113745  1.0
  Hf  Hf65  1  0.14619550  0.74064700  0.19113745  1.0
  Hf  Hf66  1  0.47952883  0.07398033  0.19113745  1.0
  Hf  Hf67  1  0.47952883  0.40731367  0.19113745  1.0
  Hf  Hf68  1  0.47952883  0.74064700  0.19113745  1.0
  Hf  Hf69  1  0.81286217  0.07398033  0.19113745  1.0
  Hf  Hf70  1  0.81286217  0.40731367  0.19113745  1.0
  Hf  Hf71  1  0.81286217  0.74064700  0.19113745  1.0
  Hf  Hf72  1  0.03625883  0.20823433  0.02137085  1.0
  Hf  Hf73  1  0.03625883  0.54156767  0.02137085  1.0
  Hf  Hf74  1  0.03625883  0.87490100  0.02137085  1.0
  Hf  Hf75  1  0.36959217  0.20823433  0.02137085  1.0
  Hf  Hf76  1  0.36959217  0.54156767  0.02137085  1.0
  Hf  Hf77  1  0.36959217  0.87490100  0.02137085  1.0
  Hf  Hf78  1  0.70292550  0.20823433  0.02137085  1.0
  Hf  Hf79  1  0.70292550  0.54156767  0.02137085  1.0
  Hf  Hf80  1  0.70292550  0.87490100  0.02137085  1.0
  Hf  Hf81  1  0.20292550  0.20823433  0.12137085  1.0
  Hf  Hf82  1  0.20292550  0.54156767  0.12137085  1.0
  Hf  Hf83  1  0.20292550  0.87490100  0.12137085  1.0
  Hf  Hf84  1  0.53625883  0.20823433  0.12137085  1.0
  Hf  Hf85  1  0.53625883  0.54156767  0.12137085  1.0
  Hf  Hf86  1  0.53625883  0.87490100  0.12137085  1.0
  Hf  Hf87  1  0.86959217  0.20823433  0.12137085  1.0
  Hf  Hf88  1  0.86959217  0.54156767  0.12137085  1.0
  Hf  Hf89  1  0.86959217  0.87490100  0.12137085  1.0
  Hf  Hf90  1  0.29707450  0.12509900  0.16759145  1.0
  Hf  Hf91  1  0.29707450  0.45843233  0.16759145  1.0
  Hf  Hf92  1  0.29707450  0.79176567  0.16759145  1.0
  Hf  Hf93  1  0.63040783  0.12509900  0.16759145  1.0
  Hf  Hf94  1  0.63040783  0.45843233  0.16759145  1.0
  Hf  Hf95  1  0.63040783  0.79176567  0.16759145  1.0
  Hf  Hf96  1  0.96374117  0.12509900  0.16759145  1.0
  Hf  Hf97  1  0.96374117  0.45843233  0.16759145  1.0
  Hf  Hf98  1  0.96374117  0.79176567  0.16759145  1.0
  Hf  Hf99  1  0.13040783  0.12509900  0.06759145  1.0
  Hf  Hf100  1  0.13040783  0.45843233  0.06759145  1.0
  Hf  Hf101  1  0.13040783  0.79176567  0.06759145  1.0
  Hf  Hf102  1  0.46374117  0.12509900  0.06759145  1.0
  Hf  Hf103  1  0.46374117  0.45843233  0.06759145  1.0
  Hf  Hf104  1  0.46374117  0.79176567  0.06759145  1.0
  Hf  Hf105  1  0.79707450  0.12509900  0.06759145  1.0
  Hf  Hf106  1  0.79707450  0.45843233  0.06759145  1.0
  Hf  Hf107  1  0.79707450  0.79176567  0.06759145  1.0
  Ni  Ni108  1  0.00000000  0.16666667  0.09448115  1.0
  Ni  Ni109  1  0.00000000  0.50000000  0.09448115  1.0
  Ni  Ni110  1  0.00000000  0.83333333  0.09448115  1.0
  Ni  Ni111  1  0.33333333  0.16666667  0.09448115  1.0
  Ni  Ni112  1  0.33333333  0.50000000  0.09448115  1.0
  Ni  Ni113  1  0.33333333  0.83333333  0.09448115  1.0
  Ni  Ni114  1  0.66666667  0.16666667  0.09448115  1.0
  Ni  Ni115  1  0.66666667  0.50000000  0.09448115  1.0
  Ni  Ni116  1  0.66666667  0.83333333  0.09448115  1.0
  Ni  Ni117  1  0.16666667  0.16666667  0.19448115  1.0
  Ni  Ni118  1  0.16666667  0.50000000  0.19448115  1.0
  Ni  Ni119  1  0.16666667  0.83333333  0.19448115  1.0
  Ni  Ni120  1  0.50000000  0.16666667  0.19448115  1.0
  Ni  Ni121  1  0.50000000  0.50000000  0.19448115  1.0
  Ni  Ni122  1  0.50000000  0.83333333  0.19448115  1.0
  Ni  Ni123  1  0.83333333  0.16666667  0.19448115  1.0
  Ni  Ni124  1  0.83333333  0.50000000  0.19448115  1.0
  Ni  Ni125  1  0.83333333  0.83333333  0.19448115  1.0
  Ni  Ni126  1  0.00000000  0.00000000  0.19448115  1.0
  Ni  Ni127  1  0.00000000  0.33333333  0.19448115  1.0
  Ni  Ni128  1  0.00000000  0.66666667  0.19448115  1.0
  Ni  Ni129  1  0.33333333  0.00000000  0.19448115  1.0
  Ni  Ni130  1  0.33333333  0.33333333  0.19448115  1.0
  Ni  Ni131  1  0.33333333  0.66666667  0.19448115  1.0
  Ni  Ni132  1  0.66666667  0.00000000  0.19448115  1.0
  Ni  Ni133  1  0.66666667  0.33333333  0.19448115  1.0
  Ni  Ni134  1  0.66666667  0.66666667  0.19448115  1.0
  Ni  Ni135  1  0.16666667  0.00000000  0.09448115  1.0
  Ni  Ni136  1  0.16666667  0.33333333  0.09448115  1.0
  Ni  Ni137  1  0.16666667  0.66666667  0.09448115  1.0
  Ni  Ni138  1  0.50000000  0.00000000  0.09448115  1.0
  Ni  Ni139  1  0.50000000  0.33333333  0.09448115  1.0
  Ni  Ni140  1  0.50000000  0.66666667  0.09448115  1.0
  Ni  Ni141  1  0.83333333  0.00000000  0.09448115  1.0
  Ni  Ni142  1  0.83333333  0.33333333  0.09448115  1.0
  Ni  Ni143  1  0.83333333  0.66666667  0.09448115  1.0
  Ni  Ni144  1  0.09269533  0.07168500  0.03743475  1.0
  Ni  Ni145  1  0.09269533  0.40501833  0.03743475  1.0
  Ni  Ni146  1  0.09269533  0.73835167  0.03743475  1.0
  Ni  Ni147  1  0.42602867  0.07168500  0.03743475  1.0
  Ni  Ni148  1  0.42602867  0.40501833  0.03743475  1.0
  Ni  Ni149  1  0.42602867  0.73835167  0.03743475  1.0
  Ni  Ni150  1  0.75936200  0.07168500  0.03743475  1.0
  Ni  Ni151  1  0.75936200  0.40501833  0.03743475  1.0
  Ni  Ni152  1  0.75936200  0.73835167  0.03743475  1.0
  Ni  Ni153  1  0.25936200  0.07168500  0.13743475  1.0
  Ni  Ni154  1  0.25936200  0.40501833  0.13743475  1.0
  Ni  Ni155  1  0.25936200  0.73835167  0.13743475  1.0
  Ni  Ni156  1  0.59269533  0.07168500  0.13743475  1.0
  Ni  Ni157  1  0.59269533  0.40501833  0.13743475  1.0
  Ni  Ni158  1  0.59269533  0.73835167  0.13743475  1.0
  Ni  Ni159  1  0.92602867  0.07168500  0.13743475  1.0
  Ni  Ni160  1  0.92602867  0.40501833  0.13743475  1.0
  Ni  Ni161  1  0.92602867  0.73835167  0.13743475  1.0
  Ni  Ni162  1  0.24063800  0.26164833  0.15152755  1.0
  Ni  Ni163  1  0.24063800  0.59498167  0.15152755  1.0
  Ni  Ni164  1  0.24063800  0.92831500  0.15152755  1.0
  Ni  Ni165  1  0.57397133  0.26164833  0.15152755  1.0
  Ni  Ni166  1  0.57397133  0.59498167  0.15152755  1.0
  Ni  Ni167  1  0.57397133  0.92831500  0.15152755  1.0
  Ni  Ni168  1  0.90730467  0.26164833  0.15152755  1.0
  Ni  Ni169  1  0.90730467  0.59498167  0.15152755  1.0
  Ni  Ni170  1  0.90730467  0.92831500  0.15152755  1.0
  Ni  Ni171  1  0.07397133  0.26164833  0.05152755  1.0
  Ni  Ni172  1  0.07397133  0.59498167  0.05152755  1.0
  Ni  Ni173  1  0.07397133  0.92831500  0.05152755  1.0
  Ni  Ni174  1  0.40730467  0.26164833  0.05152755  1.0
  Ni  Ni175  1  0.40730467  0.59498167  0.05152755  1.0
  Ni  Ni176  1  0.40730467  0.92831500  0.05152755  1.0
  Ni  Ni177  1  0.74063800  0.26164833  0.05152755  1.0
  Ni  Ni178  1  0.74063800  0.59498167  0.05152755  1.0
  Ni  Ni179  1  0.74063800  0.92831500  0.05152755  1.0
  Ni  Ni180  1  0.02678900  0.15224700  0.17535255  1.0
  Ni  Ni181  1  0.02678900  0.48558033  0.17535255  1.0
  Ni  Ni182  1  0.02678900  0.81891367  0.17535255  1.0
  Ni  Ni183  1  0.36012233  0.15224700  0.17535255  1.0
  Ni  Ni184  1  0.36012233  0.48558033  0.17535255  1.0
  Ni  Ni185  1  0.36012233  0.81891367  0.17535255  1.0
  Ni  Ni186  1  0.69345567  0.15224700  0.17535255  1.0
  Ni  Ni187  1  0.69345567  0.48558033  0.17535255  1.0
  Ni  Ni188  1  0.69345567  0.81891367  0.17535255  1.0
  Ni  Ni189  1  0.19345567  0.15224700  0.07535255  1.0
  Ni  Ni190  1  0.19345567  0.48558033  0.07535255  1.0
  Ni  Ni191  1  0.19345567  0.81891367  0.07535255  1.0
  Ni  Ni192  1  0.52678900  0.15224700  0.07535255  1.0
  Ni  Ni193  1  0.52678900  0.48558033  0.07535255  1.0
  Ni  Ni194  1  0.52678900  0.81891367  0.07535255  1.0
  Ni  Ni195  1  0.86012233  0.15224700  0.07535255  1.0
  Ni  Ni196  1  0.86012233  0.48558033  0.07535255  1.0
  Ni  Ni197  1  0.86012233  0.81891367  0.07535255  1.0
  Ni  Ni198  1  0.30654433  0.18108633  0.01360975  1.0
  Ni  Ni199  1  0.30654433  0.51441967  0.01360975  1.0
  Ni  Ni200  1  0.30654433  0.84775300  0.01360975  1.0
  Ni  Ni201  1  0.63987767  0.18108633  0.01360975  1.0
  Ni  Ni202  1  0.63987767  0.51441967  0.01360975  1.0
  Ni  Ni203  1  0.63987767  0.84775300  0.01360975  1.0
  Ni  Ni204  1  0.97321100  0.18108633  0.01360975  1.0
  Ni  Ni205  1  0.97321100  0.51441967  0.01360975  1.0
  Ni  Ni206  1  0.97321100  0.84775300  0.01360975  1.0
  Ni  Ni207  1  0.13987767  0.18108633  0.11360975  1.0
  Ni  Ni208  1  0.13987767  0.51441967  0.11360975  1.0
  Ni  Ni209  1  0.13987767  0.84775300  0.11360975  1.0
  Ni  Ni210  1  0.47321100  0.18108633  0.11360975  1.0
  Ni  Ni211  1  0.47321100  0.51441967  0.11360975  1.0
  Ni  Ni212  1  0.47321100  0.84775300  0.11360975  1.0
  Ni  Ni213  1  0.80654433  0.18108633  0.11360975  1.0
  Ni  Ni214  1  0.80654433  0.51441967  0.11360975  1.0
  Ni  Ni215  1  0.80654433  0.84775300  0.11360975  1.0
  Ni  Ni216  1  0.28508617  0.24493600  0.10551885  1.0
  Ni  Ni217  1  0.28508617  0.57826933  0.10551885  1.0
  Ni  Ni218  1  0.28508617  0.91160267  0.10551885  1.0
  Ni  Ni219  1  0.61841950  0.24493600  0.10551885  1.0
  Ni  Ni220  1  0.61841950  0.57826933  0.10551885  1.0
  Ni  Ni221  1  0.61841950  0.91160267  0.10551885  1.0
  Ni  Ni222  1  0.95175283  0.24493600  0.10551885  1.0
  Ni  Ni223  1  0.95175283  0.57826933  0.10551885  1.0
  Ni  Ni224  1  0.95175283  0.91160267  0.10551885  1.0
  Ni  Ni225  1  0.11841950  0.24493600  0.00551885  1.0
  Ni  Ni226  1  0.11841950  0.57826933  0.00551885  1.0
  Ni  Ni227  1  0.11841950  0.91160267  0.00551885  1.0
  Ni  Ni228  1  0.45175283  0.24493600  0.00551885  1.0
  Ni  Ni229  1  0.45175283  0.57826933  0.00551885  1.0
  Ni  Ni230  1  0.45175283  0.91160267  0.00551885  1.0
  Ni  Ni231  1  0.78508617  0.24493600  0.00551885  1.0
  Ni  Ni232  1  0.78508617  0.57826933  0.00551885  1.0
  Ni  Ni233  1  0.78508617  0.91160267  0.00551885  1.0
  Ni  Ni234  1  0.04824717  0.08839733  0.08344345  1.0
  Ni  Ni235  1  0.04824717  0.42173067  0.08344345  1.0
  Ni  Ni236  1  0.04824717  0.75506400  0.08344345  1.0
  Ni  Ni237  1  0.38158050  0.08839733  0.08344345  1.0
  Ni  Ni238  1  0.38158050  0.42173067  0.08344345  1.0
  Ni  Ni239  1  0.38158050  0.75506400  0.08344345  1.0
  Ni  Ni240  1  0.71491383  0.08839733  0.08344345  1.0
  Ni  Ni241  1  0.71491383  0.42173067  0.08344345  1.0
  Ni  Ni242  1  0.71491383  0.75506400  0.08344345  1.0
  Ni  Ni243  1  0.21491383  0.08839733  0.18344345  1.0
  Ni  Ni244  1  0.21491383  0.42173067  0.18344345  1.0
  Ni  Ni245  1  0.21491383  0.75506400  0.18344345  1.0
  Ni  Ni246  1  0.54824717  0.08839733  0.18344345  1.0
  Ni  Ni247  1  0.54824717  0.42173067  0.18344345  1.0
  Ni  Ni248  1  0.54824717  0.75506400  0.18344345  1.0
  Ni  Ni249  1  0.88158050  0.08839733  0.18344345  1.0
  Ni  Ni250  1  0.88158050  0.42173067  0.18344345  1.0
  Ni  Ni251  1  0.88158050  0.75506400  0.18344345  1.0
  Ni  Ni252  1  0.21245317  0.30201267  0.05007985  1.0
  Ni  Ni253  1  0.21245317  0.63534600  0.05007985  1.0
  Ni  Ni254  1  0.21245317  0.96867933  0.05007985  1.0
  Ni  Ni255  1  0.54578650  0.30201267  0.05007985  1.0
  Ni  Ni256  1  0.54578650  0.63534600  0.05007985  1.0
  Ni  Ni257  1  0.54578650  0.96867933  0.05007985  1.0
  Ni  Ni258  1  0.87911983  0.30201267  0.05007985  1.0
  Ni  Ni259  1  0.87911983  0.63534600  0.05007985  1.0
  Ni  Ni260  1  0.87911983  0.96867933  0.05007985  1.0
  Ni  Ni261  1  0.04578650  0.30201267  0.15007985  1.0
  Ni  Ni262  1  0.04578650  0.63534600  0.15007985  1.0
  Ni  Ni263  1  0.04578650  0.96867933  0.15007985  1.0
  Ni  Ni264  1  0.37911983  0.30201267  0.15007985  1.0
  Ni  Ni265  1  0.37911983  0.63534600  0.15007985  1.0
  Ni  Ni266  1  0.37911983  0.96867933  0.15007985  1.0
  Ni  Ni267  1  0.71245317  0.30201267  0.15007985  1.0
  Ni  Ni268  1  0.71245317  0.63534600  0.15007985  1.0
  Ni  Ni269  1  0.71245317  0.96867933  0.15007985  1.0
  Ni  Ni270  1  0.12088017  0.03132067  0.13888245  1.0
  Ni  Ni271  1  0.12088017  0.36465400  0.13888245  1.0
  Ni  Ni272  1  0.12088017  0.69798733  0.13888245  1.0
  Ni  Ni273  1  0.45421350  0.03132067  0.13888245  1.0
  Ni  Ni274  1  0.45421350  0.36465400  0.13888245  1.0
  Ni  Ni275  1  0.45421350  0.69798733  0.13888245  1.0
  Ni  Ni276  1  0.78754683  0.03132067  0.13888245  1.0
  Ni  Ni277  1  0.78754683  0.36465400  0.13888245  1.0
  Ni  Ni278  1  0.78754683  0.69798733  0.13888245  1.0
  Ni  Ni279  1  0.28754683  0.03132067  0.03888245  1.0
  Ni  Ni280  1  0.28754683  0.36465400  0.03888245  1.0
  Ni  Ni281  1  0.28754683  0.69798733  0.03888245  1.0
  Ni  Ni282  1  0.62088017  0.03132067  0.03888245  1.0
  Ni  Ni283  1  0.62088017  0.36465400  0.03888245  1.0
  Ni  Ni284  1  0.62088017  0.69798733  0.03888245  1.0
  Ni  Ni285  1  0.95421350  0.03132067  0.03888245  1.0
  Ni  Ni286  1  0.95421350  0.36465400  0.03888245  1.0
  Ni  Ni287  1  0.95421350  0.69798733  0.03888245  1.0
  Ni  Ni288  1  0.25782617  0.18648167  0.07246245  1.0
  Ni  Ni289  1  0.25782617  0.51981500  0.07246245  1.0
  Ni  Ni290  1  0.25782617  0.85314833  0.07246245  1.0
  Ni  Ni291  1  0.59115950  0.18648167  0.07246245  1.0
  Ni  Ni292  1  0.59115950  0.51981500  0.07246245  1.0
  Ni  Ni293  1  0.59115950  0.85314833  0.07246245  1.0
  Ni  Ni294  1  0.92449283  0.18648167  0.07246245  1.0
  Ni  Ni295  1  0.92449283  0.51981500  0.07246245  1.0
  Ni  Ni296  1  0.92449283  0.85314833  0.07246245  1.0
  Ni  Ni297  1  0.09115950  0.18648167  0.17246245  1.0
  Ni  Ni298  1  0.09115950  0.51981500  0.17246245  1.0
  Ni  Ni299  1  0.09115950  0.85314833  0.17246245  1.0
  Ni  Ni300  1  0.42449283  0.18648167  0.17246245  1.0
  Ni  Ni301  1  0.42449283  0.51981500  0.17246245  1.0
  Ni  Ni302  1  0.42449283  0.85314833  0.17246245  1.0
  Ni  Ni303  1  0.75782617  0.18648167  0.17246245  1.0
  Ni  Ni304  1  0.75782617  0.51981500  0.17246245  1.0
  Ni  Ni305  1  0.75782617  0.85314833  0.17246245  1.0
  Ni  Ni306  1  0.07550717  0.14685167  0.11649985  1.0
  Ni  Ni307  1  0.07550717  0.48018500  0.11649985  1.0
  Ni  Ni308  1  0.07550717  0.81351833  0.11649985  1.0
  Ni  Ni309  1  0.40884050  0.14685167  0.11649985  1.0
  Ni  Ni310  1  0.40884050  0.48018500  0.11649985  1.0
  Ni  Ni311  1  0.40884050  0.81351833  0.11649985  1.0
  Ni  Ni312  1  0.74217383  0.14685167  0.11649985  1.0
  Ni  Ni313  1  0.74217383  0.48018500  0.11649985  1.0
  Ni  Ni314  1  0.74217383  0.81351833  0.11649985  1.0
  Ni  Ni315  1  0.24217383  0.14685167  0.01649985  1.0
  Ni  Ni316  1  0.24217383  0.48018500  0.01649985  1.0
  Ni  Ni317  1  0.24217383  0.81351833  0.01649985  1.0
  Ni  Ni318  1  0.57550717  0.14685167  0.01649985  1.0
  Ni  Ni319  1  0.57550717  0.48018500  0.01649985  1.0
  Ni  Ni320  1  0.57550717  0.81351833  0.01649985  1.0
  Ni  Ni321  1  0.90884050  0.14685167  0.01649985  1.0
  Ni  Ni322  1  0.90884050  0.48018500  0.01649985  1.0
  Ni  Ni323  1  0.90884050  0.81351833  0.01649985  1.0
  Ni  Ni324  1  0.02847600  0.03581900  0.04614735  1.0
  Ni  Ni325  1  0.02847600  0.36915233  0.04614735  1.0
  Ni  Ni326  1  0.02847600  0.70248567  0.04614735  1.0
  Ni  Ni327  1  0.36180933  0.03581900  0.04614735  1.0
  Ni  Ni328  1  0.36180933  0.36915233  0.04614735  1.0
  Ni  Ni329  1  0.36180933  0.70248567  0.04614735  1.0
  Ni  Ni330  1  0.69514267  0.03581900  0.04614735  1.0
  Ni  Ni331  1  0.69514267  0.36915233  0.04614735  1.0
  Ni  Ni332  1  0.69514267  0.70248567  0.04614735  1.0
  Ni  Ni333  1  0.19514267  0.03581900  0.14614735  1.0
  Ni  Ni334  1  0.19514267  0.36915233  0.14614735  1.0
  Ni  Ni335  1  0.19514267  0.70248567  0.14614735  1.0
  Ni  Ni336  1  0.52847600  0.03581900  0.14614735  1.0
  Ni  Ni337  1  0.52847600  0.36915233  0.14614735  1.0
  Ni  Ni338  1  0.52847600  0.70248567  0.14614735  1.0
  Ni  Ni339  1  0.86180933  0.03581900  0.14614735  1.0
  Ni  Ni340  1  0.86180933  0.36915233  0.14614735  1.0
  Ni  Ni341  1  0.86180933  0.70248567  0.14614735  1.0
  Ni  Ni342  1  0.30485733  0.29751433  0.14281495  1.0
  Ni  Ni343  1  0.30485733  0.63084767  0.14281495  1.0
  Ni  Ni344  1  0.30485733  0.96418100  0.14281495  1.0
  Ni  Ni345  1  0.63819067  0.29751433  0.14281495  1.0
  Ni  Ni346  1  0.63819067  0.63084767  0.14281495  1.0
  Ni  Ni347  1  0.63819067  0.96418100  0.14281495  1.0
  Ni  Ni348  1  0.97152400  0.29751433  0.14281495  1.0
  Ni  Ni349  1  0.97152400  0.63084767  0.14281495  1.0
  Ni  Ni350  1  0.97152400  0.96418100  0.14281495  1.0
  Ni  Ni351  1  0.13819067  0.29751433  0.04281495  1.0
  Ni  Ni352  1  0.13819067  0.63084767  0.04281495  1.0
  Ni  Ni353  1  0.13819067  0.96418100  0.04281495  1.0
  Ni  Ni354  1  0.47152400  0.29751433  0.04281495  1.0
  Ni  Ni355  1  0.47152400  0.63084767  0.04281495  1.0
  Ni  Ni356  1  0.47152400  0.96418100  0.04281495  1.0
  Ni  Ni357  1  0.80485733  0.29751433  0.04281495  1.0
  Ni  Ni358  1  0.80485733  0.63084767  0.04281495  1.0
  Ni  Ni359  1  0.80485733  0.96418100  0.04281495  1.0
  Hf  Hf360  1  0.27193000  0.28960100  0.21217175  1.0
  Hf  Hf361  1  0.27193000  0.62293433  0.21217175  1.0
  Hf  Hf362  1  0.27193000  0.95626767  0.21217175  1.0
  Hf  Hf363  1  0.60526333  0.28960100  0.21217175  1.0
  Hf  Hf364  1  0.60526333  0.62293433  0.21217175  1.0
  Hf  Hf365  1  0.60526333  0.95626767  0.21217175  1.0
  Hf  Hf366  1  0.93859667  0.28960100  0.21217175  1.0
  Hf  Hf367  1  0.93859667  0.62293433  0.21217175  1.0
  Hf  Hf368  1  0.93859667  0.95626767  0.21217175  1.0
  Hf  Hf369  1  0.10526333  0.28960100  0.31217175  1.0
  Hf  Hf370  1  0.10526333  0.62293433  0.31217175  1.0
  Hf  Hf371  1  0.10526333  0.95626767  0.31217175  1.0
  Hf  Hf372  1  0.43859667  0.28960100  0.31217175  1.0
  Hf  Hf373  1  0.43859667  0.62293433  0.31217175  1.0
  Hf  Hf374  1  0.43859667  0.95626767  0.31217175  1.0
  Hf  Hf375  1  0.77193000  0.28960100  0.31217175  1.0
  Hf  Hf376  1  0.77193000  0.62293433  0.31217175  1.0
  Hf  Hf377  1  0.77193000  0.95626767  0.31217175  1.0
  Hf  Hf378  1  0.06140333  0.04373233  0.37679055  1.0
  Hf  Hf379  1  0.06140333  0.37706567  0.37679055  1.0
  Hf  Hf380  1  0.06140333  0.71039900  0.37679055  1.0
  Hf  Hf381  1  0.39473667  0.04373233  0.37679055  1.0
  Hf  Hf382  1  0.39473667  0.37706567  0.37679055  1.0
  Hf  Hf383  1  0.39473667  0.71039900  0.37679055  1.0
  Hf  Hf384  1  0.72807000  0.04373233  0.37679055  1.0
  Hf  Hf385  1  0.72807000  0.37706567  0.37679055  1.0
  Hf  Hf386  1  0.72807000  0.71039900  0.37679055  1.0
  Hf  Hf387  1  0.22807000  0.04373233  0.27679055  1.0
  Hf  Hf388  1  0.22807000  0.37706567  0.27679055  1.0
  Hf  Hf389  1  0.22807000  0.71039900  0.27679055  1.0
  Hf  Hf390  1  0.56140333  0.04373233  0.27679055  1.0
  Hf  Hf391  1  0.56140333  0.37706567  0.27679055  1.0
  Hf  Hf392  1  0.56140333  0.71039900  0.27679055  1.0
  Hf  Hf393  1  0.89473667  0.04373233  0.27679055  1.0
  Hf  Hf394  1  0.89473667  0.37706567  0.27679055  1.0
  Hf  Hf395  1  0.89473667  0.71039900  0.27679055  1.0
  Hf  Hf396  1  0.02047117  0.25935300  0.29782485  1.0
  Hf  Hf397  1  0.02047117  0.59268633  0.29782485  1.0
  Hf  Hf398  1  0.02047117  0.92601967  0.29782485  1.0
  Hf  Hf399  1  0.35380450  0.25935300  0.29782485  1.0
  Hf  Hf400  1  0.35380450  0.59268633  0.29782485  1.0
  Hf  Hf401  1  0.35380450  0.92601967  0.29782485  1.0
  Hf  Hf402  1  0.68713783  0.25935300  0.29782485  1.0
  Hf  Hf403  1  0.68713783  0.59268633  0.29782485  1.0
  Hf  Hf404  1  0.68713783  0.92601967  0.29782485  1.0
  Hf  Hf405  1  0.18713783  0.25935300  0.39782485  1.0
  Hf  Hf406  1  0.18713783  0.59268633  0.39782485  1.0
  Hf  Hf407  1  0.18713783  0.92601967  0.39782485  1.0
  Hf  Hf408  1  0.52047117  0.25935300  0.39782485  1.0
  Hf  Hf409  1  0.52047117  0.59268633  0.39782485  1.0
  Hf  Hf410  1  0.52047117  0.92601967  0.39782485  1.0
  Hf  Hf411  1  0.85380450  0.25935300  0.39782485  1.0
  Hf  Hf412  1  0.85380450  0.59268633  0.39782485  1.0
  Hf  Hf413  1  0.85380450  0.92601967  0.39782485  1.0
  Hf  Hf414  1  0.31286217  0.07398033  0.29113745  1.0
  Hf  Hf415  1  0.31286217  0.40731367  0.29113745  1.0
  Hf  Hf416  1  0.31286217  0.74064700  0.29113745  1.0
  Hf  Hf417  1  0.64619550  0.07398033  0.29113745  1.0
  Hf  Hf418  1  0.64619550  0.40731367  0.29113745  1.0
  Hf  Hf419  1  0.64619550  0.74064700  0.29113745  1.0
  Hf  Hf420  1  0.97952883  0.07398033  0.29113745  1.0
  Hf  Hf421  1  0.97952883  0.40731367  0.29113745  1.0
  Hf  Hf422  1  0.97952883  0.74064700  0.29113745  1.0
  Hf  Hf423  1  0.14619550  0.07398033  0.39113745  1.0
  Hf  Hf424  1  0.14619550  0.40731367  0.39113745  1.0
  Hf  Hf425  1  0.14619550  0.74064700  0.39113745  1.0
  Hf  Hf426  1  0.47952883  0.07398033  0.39113745  1.0
  Hf  Hf427  1  0.47952883  0.40731367  0.39113745  1.0
  Hf  Hf428  1  0.47952883  0.74064700  0.39113745  1.0
  Hf  Hf429  1  0.81286217  0.07398033  0.39113745  1.0
  Hf  Hf430  1  0.81286217  0.40731367  0.39113745  1.0
  Hf  Hf431  1  0.81286217  0.74064700  0.39113745  1.0
  Hf  Hf432  1  0.03625883  0.20823433  0.22137085  1.0
  Hf  Hf433  1  0.03625883  0.54156767  0.22137085  1.0
  Hf  Hf434  1  0.03625883  0.87490100  0.22137085  1.0
  Hf  Hf435  1  0.36959217  0.20823433  0.22137085  1.0
  Hf  Hf436  1  0.36959217  0.54156767  0.22137085  1.0
  Hf  Hf437  1  0.36959217  0.87490100  0.22137085  1.0
  Hf  Hf438  1  0.70292550  0.20823433  0.22137085  1.0
  Hf  Hf439  1  0.70292550  0.54156767  0.22137085  1.0
  Hf  Hf440  1  0.70292550  0.87490100  0.22137085  1.0
  Hf  Hf441  1  0.20292550  0.20823433  0.32137085  1.0
  Hf  Hf442  1  0.20292550  0.54156767  0.32137085  1.0
  Hf  Hf443  1  0.20292550  0.87490100  0.32137085  1.0
  Hf  Hf444  1  0.53625883  0.20823433  0.32137085  1.0
  Hf  Hf445  1  0.53625883  0.54156767  0.32137085  1.0
  Hf  Hf446  1  0.53625883  0.87490100  0.32137085  1.0
  Hf  Hf447  1  0.86959217  0.20823433  0.32137085  1.0
  Hf  Hf448  1  0.86959217  0.54156767  0.32137085  1.0
  Hf  Hf449  1  0.86959217  0.87490100  0.32137085  1.0
  Hf  Hf450  1  0.29707450  0.12509900  0.36759145  1.0
  Hf  Hf451  1  0.29707450  0.45843233  0.36759145  1.0
  Hf  Hf452  1  0.29707450  0.79176567  0.36759145  1.0
  Hf  Hf453  1  0.63040783  0.12509900  0.36759145  1.0
  Hf  Hf454  1  0.63040783  0.45843233  0.36759145  1.0
  Hf  Hf455  1  0.63040783  0.79176567  0.36759145  1.0
  Hf  Hf456  1  0.96374117  0.12509900  0.36759145  1.0
  Hf  Hf457  1  0.96374117  0.45843233  0.36759145  1.0
  Hf  Hf458  1  0.96374117  0.79176567  0.36759145  1.0
  Hf  Hf459  1  0.13040783  0.12509900  0.26759145  1.0
  Hf  Hf460  1  0.13040783  0.45843233  0.26759145  1.0
  Hf  Hf461  1  0.13040783  0.79176567  0.26759145  1.0
  Hf  Hf462  1  0.46374117  0.12509900  0.26759145  1.0
  Hf  Hf463  1  0.46374117  0.45843233  0.26759145  1.0
  Hf  Hf464  1  0.46374117  0.79176567  0.26759145  1.0
  Hf  Hf465  1  0.79707450  0.12509900  0.26759145  1.0
  Hf  Hf466  1  0.79707450  0.45843233  0.26759145  1.0
  Hf  Hf467  1  0.79707450  0.79176567  0.26759145  1.0
  Ni  Ni468  1  0.00000000  0.16666667  0.29448115  1.0
  Ni  Ni469  1  0.00000000  0.50000000  0.29448115  1.0
  Ni  Ni470  1  0.00000000  0.83333333  0.29448115  1.0
  Ni  Ni471  1  0.33333333  0.16666667  0.29448115  1.0
  Ni  Ni472  1  0.33333333  0.50000000  0.29448115  1.0
  Ni  Ni473  1  0.33333333  0.83333333  0.29448115  1.0
  Ni  Ni474  1  0.66666667  0.16666667  0.29448115  1.0
  Ni  Ni475  1  0.66666667  0.50000000  0.29448115  1.0
  Ni  Ni476  1  0.66666667  0.83333333  0.29448115  1.0
  Ni  Ni477  1  0.16666667  0.16666667  0.39448115  1.0
  Ni  Ni478  1  0.16666667  0.50000000  0.39448115  1.0
  Ni  Ni479  1  0.16666667  0.83333333  0.39448115  1.0
  Ni  Ni480  1  0.50000000  0.16666667  0.39448115  1.0
  Ni  Ni481  1  0.50000000  0.50000000  0.39448115  1.0
  Ni  Ni482  1  0.50000000  0.83333333  0.39448115  1.0
  Ni  Ni483  1  0.83333333  0.16666667  0.39448115  1.0
  Ni  Ni484  1  0.83333333  0.50000000  0.39448115  1.0
  Ni  Ni485  1  0.83333333  0.83333333  0.39448115  1.0
  Ni  Ni486  1  0.00000000  0.00000000  0.39448115  1.0
  Ni  Ni487  1  0.00000000  0.33333333  0.39448115  1.0
  Ni  Ni488  1  0.00000000  0.66666667  0.39448115  1.0
  Ni  Ni489  1  0.33333333  0.00000000  0.39448115  1.0
  Ni  Ni490  1  0.33333333  0.33333333  0.39448115  1.0
  Ni  Ni491  1  0.33333333  0.66666667  0.39448115  1.0
  Ni  Ni492  1  0.66666667  0.00000000  0.39448115  1.0
  Ni  Ni493  1  0.66666667  0.33333333  0.39448115  1.0
  Ni  Ni494  1  0.66666667  0.66666667  0.39448115  1.0
  Ni  Ni495  1  0.16666667  0.00000000  0.29448115  1.0
  Ni  Ni496  1  0.16666667  0.33333333  0.29448115  1.0
  Ni  Ni497  1  0.16666667  0.66666667  0.29448115  1.0
  Ni  Ni498  1  0.50000000  0.00000000  0.29448115  1.0
  Ni  Ni499  1  0.50000000  0.33333333  0.29448115  1.0
  Ni  Ni500  1  0.50000000  0.66666667  0.29448115  1.0
  Ni  Ni501  1  0.83333333  0.00000000  0.29448115  1.0
  Ni  Ni502  1  0.83333333  0.33333333  0.29448115  1.0
  Ni  Ni503  1  0.83333333  0.66666667  0.29448115  1.0
  Ni  Ni504  1  0.09269533  0.07168500  0.23743475  1.0
  Ni  Ni505  1  0.09269533  0.40501833  0.23743475  1.0
  Ni  Ni506  1  0.09269533  0.73835167  0.23743475  1.0
  Ni  Ni507  1  0.42602867  0.07168500  0.23743475  1.0
  Ni  Ni508  1  0.42602867  0.40501833  0.23743475  1.0
  Ni  Ni509  1  0.42602867  0.73835167  0.23743475  1.0
  Ni  Ni510  1  0.75936200  0.07168500  0.23743475  1.0
  Ni  Ni511  1  0.75936200  0.40501833  0.23743475  1.0
  Ni  Ni512  1  0.75936200  0.73835167  0.23743475  1.0
  Ni  Ni513  1  0.25936200  0.07168500  0.33743475  1.0
  Ni  Ni514  1  0.25936200  0.40501833  0.33743475  1.0
  Ni  Ni515  1  0.25936200  0.73835167  0.33743475  1.0
  Ni  Ni516  1  0.59269533  0.07168500  0.33743475  1.0
  Ni  Ni517  1  0.59269533  0.40501833  0.33743475  1.0
  Ni  Ni518  1  0.59269533  0.73835167  0.33743475  1.0
  Ni  Ni519  1  0.92602867  0.07168500  0.33743475  1.0
  Ni  Ni520  1  0.92602867  0.40501833  0.33743475  1.0
  Ni  Ni521  1  0.92602867  0.73835167  0.33743475  1.0
  Ni  Ni522  1  0.24063800  0.26164833  0.35152755  1.0
  Ni  Ni523  1  0.24063800  0.59498167  0.35152755  1.0
  Ni  Ni524  1  0.24063800  0.92831500  0.35152755  1.0
  Ni  Ni525  1  0.57397133  0.26164833  0.35152755  1.0
  Ni  Ni526  1  0.57397133  0.59498167  0.35152755  1.0
  Ni  Ni527  1  0.57397133  0.92831500  0.35152755  1.0
  Ni  Ni528  1  0.90730467  0.26164833  0.35152755  1.0
  Ni  Ni529  1  0.90730467  0.59498167  0.35152755  1.0
  Ni  Ni530  1  0.90730467  0.92831500  0.35152755  1.0
  Ni  Ni531  1  0.07397133  0.26164833  0.25152755  1.0
  Ni  Ni532  1  0.07397133  0.59498167  0.25152755  1.0
  Ni  Ni533  1  0.07397133  0.92831500  0.25152755  1.0
  Ni  Ni534  1  0.40730467  0.26164833  0.25152755  1.0
  Ni  Ni535  1  0.40730467  0.59498167  0.25152755  1.0
  Ni  Ni536  1  0.40730467  0.92831500  0.25152755  1.0
  Ni  Ni537  1  0.74063800  0.26164833  0.25152755  1.0
  Ni  Ni538  1  0.74063800  0.59498167  0.25152755  1.0
  Ni  Ni539  1  0.74063800  0.92831500  0.25152755  1.0
  Ni  Ni540  1  0.02678900  0.15224700  0.37535255  1.0
  Ni  Ni541  1  0.02678900  0.48558033  0.37535255  1.0
  Ni  Ni542  1  0.02678900  0.81891367  0.37535255  1.0
  Ni  Ni543  1  0.36012233  0.15224700  0.37535255  1.0
  Ni  Ni544  1  0.36012233  0.48558033  0.37535255  1.0
  Ni  Ni545  1  0.36012233  0.81891367  0.37535255  1.0
  Ni  Ni546  1  0.69345567  0.15224700  0.37535255  1.0
  Ni  Ni547  1  0.69345567  0.48558033  0.37535255  1.0
  Ni  Ni548  1  0.69345567  0.81891367  0.37535255  1.0
  Ni  Ni549  1  0.19345567  0.15224700  0.27535255  1.0
  Ni  Ni550  1  0.19345567  0.48558033  0.27535255  1.0
  Ni  Ni551  1  0.19345567  0.81891367  0.27535255  1.0
  Ni  Ni552  1  0.52678900  0.15224700  0.27535255  1.0
  Ni  Ni553  1  0.52678900  0.48558033  0.27535255  1.0
  Ni  Ni554  1  0.52678900  0.81891367  0.27535255  1.0
  Ni  Ni555  1  0.86012233  0.15224700  0.27535255  1.0
  Ni  Ni556  1  0.86012233  0.48558033  0.27535255  1.0
  Ni  Ni557  1  0.86012233  0.81891367  0.27535255  1.0
  Ni  Ni558  1  0.30654433  0.18108633  0.21360975  1.0
  Ni  Ni559  1  0.30654433  0.51441967  0.21360975  1.0
  Ni  Ni560  1  0.30654433  0.84775300  0.21360975  1.0
  Ni  Ni561  1  0.63987767  0.18108633  0.21360975  1.0
  Ni  Ni562  1  0.63987767  0.51441967  0.21360975  1.0
  Ni  Ni563  1  0.63987767  0.84775300  0.21360975  1.0
  Ni  Ni564  1  0.97321100  0.18108633  0.21360975  1.0
  Ni  Ni565  1  0.97321100  0.51441967  0.21360975  1.0
  Ni  Ni566  1  0.97321100  0.84775300  0.21360975  1.0
  Ni  Ni567  1  0.13987767  0.18108633  0.31360975  1.0
  Ni  Ni568  1  0.13987767  0.51441967  0.31360975  1.0
  Ni  Ni569  1  0.13987767  0.84775300  0.31360975  1.0
  Ni  Ni570  1  0.47321100  0.18108633  0.31360975  1.0
  Ni  Ni571  1  0.47321100  0.51441967  0.31360975  1.0
  Ni  Ni572  1  0.47321100  0.84775300  0.31360975  1.0
  Ni  Ni573  1  0.80654433  0.18108633  0.31360975  1.0
  Ni  Ni574  1  0.80654433  0.51441967  0.31360975  1.0
  Ni  Ni575  1  0.80654433  0.84775300  0.31360975  1.0
  Ni  Ni576  1  0.28508617  0.24493600  0.30551885  1.0
  Ni  Ni577  1  0.28508617  0.57826933  0.30551885  1.0
  Ni  Ni578  1  0.28508617  0.91160267  0.30551885  1.0
  Ni  Ni579  1  0.61841950  0.24493600  0.30551885  1.0
  Ni  Ni580  1  0.61841950  0.57826933  0.30551885  1.0
  Ni  Ni581  1  0.61841950  0.91160267  0.30551885  1.0
  Ni  Ni582  1  0.95175283  0.24493600  0.30551885  1.0
  Ni  Ni583  1  0.95175283  0.57826933  0.30551885  1.0
  Ni  Ni584  1  0.95175283  0.91160267  0.30551885  1.0
  Ni  Ni585  1  0.11841950  0.24493600  0.20551885  1.0
  Ni  Ni586  1  0.11841950  0.57826933  0.20551885  1.0
  Ni  Ni587  1  0.11841950  0.91160267  0.20551885  1.0
  Ni  Ni588  1  0.45175283  0.24493600  0.20551885  1.0
  Ni  Ni589  1  0.45175283  0.57826933  0.20551885  1.0
  Ni  Ni590  1  0.45175283  0.91160267  0.20551885  1.0
  Ni  Ni591  1  0.78508617  0.24493600  0.20551885  1.0
  Ni  Ni592  1  0.78508617  0.57826933  0.20551885  1.0
  Ni  Ni593  1  0.78508617  0.91160267  0.20551885  1.0
  Ni  Ni594  1  0.04824717  0.08839733  0.28344345  1.0
  Ni  Ni595  1  0.04824717  0.42173067  0.28344345  1.0
  Ni  Ni596  1  0.04824717  0.75506400  0.28344345  1.0
  Ni  Ni597  1  0.38158050  0.08839733  0.28344345  1.0
  Ni  Ni598  1  0.38158050  0.42173067  0.28344345  1.0
  Ni  Ni599  1  0.38158050  0.75506400  0.28344345  1.0
  Ni  Ni600  1  0.71491383  0.08839733  0.28344345  1.0
  Ni  Ni601  1  0.71491383  0.42173067  0.28344345  1.0
  Ni  Ni602  1  0.71491383  0.75506400  0.28344345  1.0
  Ni  Ni603  1  0.21491383  0.08839733  0.38344345  1.0
  Ni  Ni604  1  0.21491383  0.42173067  0.38344345  1.0
  Ni  Ni605  1  0.21491383  0.75506400  0.38344345  1.0
  Ni  Ni606  1  0.54824717  0.08839733  0.38344345  1.0
  Ni  Ni607  1  0.54824717  0.42173067  0.38344345  1.0
  Ni  Ni608  1  0.54824717  0.75506400  0.38344345  1.0
  Ni  Ni609  1  0.88158050  0.08839733  0.38344345  1.0
  Ni  Ni610  1  0.88158050  0.42173067  0.38344345  1.0
  Ni  Ni611  1  0.88158050  0.75506400  0.38344345  1.0
  Ni  Ni612  1  0.21245317  0.30201267  0.25007985  1.0
  Ni  Ni613  1  0.21245317  0.63534600  0.25007985  1.0
  Ni  Ni614  1  0.21245317  0.96867933  0.25007985  1.0
  Ni  Ni615  1  0.54578650  0.30201267  0.25007985  1.0
  Ni  Ni616  1  0.54578650  0.63534600  0.25007985  1.0
  Ni  Ni617  1  0.54578650  0.96867933  0.25007985  1.0
  Ni  Ni618  1  0.87911983  0.30201267  0.25007985  1.0
  Ni  Ni619  1  0.87911983  0.63534600  0.25007985  1.0
  Ni  Ni620  1  0.87911983  0.96867933  0.25007985  1.0
  Ni  Ni621  1  0.04578650  0.30201267  0.35007985  1.0
  Ni  Ni622  1  0.04578650  0.63534600  0.35007985  1.0
  Ni  Ni623  1  0.04578650  0.96867933  0.35007985  1.0
  Ni  Ni624  1  0.37911983  0.30201267  0.35007985  1.0
  Ni  Ni625  1  0.37911983  0.63534600  0.35007985  1.0
  Ni  Ni626  1  0.37911983  0.96867933  0.35007985  1.0
  Ni  Ni627  1  0.71245317  0.30201267  0.35007985  1.0
  Ni  Ni628  1  0.71245317  0.63534600  0.35007985  1.0
  Ni  Ni629  1  0.71245317  0.96867933  0.35007985  1.0
  Ni  Ni630  1  0.12088017  0.03132067  0.33888245  1.0
  Ni  Ni631  1  0.12088017  0.36465400  0.33888245  1.0
  Ni  Ni632  1  0.12088017  0.69798733  0.33888245  1.0
  Ni  Ni633  1  0.45421350  0.03132067  0.33888245  1.0
  Ni  Ni634  1  0.45421350  0.36465400  0.33888245  1.0
  Ni  Ni635  1  0.45421350  0.69798733  0.33888245  1.0
  Ni  Ni636  1  0.78754683  0.03132067  0.33888245  1.0
  Ni  Ni637  1  0.78754683  0.36465400  0.33888245  1.0
  Ni  Ni638  1  0.78754683  0.69798733  0.33888245  1.0
  Ni  Ni639  1  0.28754683  0.03132067  0.23888245  1.0
  Ni  Ni640  1  0.28754683  0.36465400  0.23888245  1.0
  Ni  Ni641  1  0.28754683  0.69798733  0.23888245  1.0
  Ni  Ni642  1  0.62088017  0.03132067  0.23888245  1.0
  Ni  Ni643  1  0.62088017  0.36465400  0.23888245  1.0
  Ni  Ni644  1  0.62088017  0.69798733  0.23888245  1.0
  Ni  Ni645  1  0.95421350  0.03132067  0.23888245  1.0
  Ni  Ni646  1  0.95421350  0.36465400  0.23888245  1.0
  Ni  Ni647  1  0.95421350  0.69798733  0.23888245  1.0
  Ni  Ni648  1  0.25782617  0.18648167  0.27246245  1.0
  Ni  Ni649  1  0.25782617  0.51981500  0.27246245  1.0
  Ni  Ni650  1  0.25782617  0.85314833  0.27246245  1.0
  Ni  Ni651  1  0.59115950  0.18648167  0.27246245  1.0
  Ni  Ni652  1  0.59115950  0.51981500  0.27246245  1.0
  Ni  Ni653  1  0.59115950  0.85314833  0.27246245  1.0
  Ni  Ni654  1  0.92449283  0.18648167  0.27246245  1.0
  Ni  Ni655  1  0.92449283  0.51981500  0.27246245  1.0
  Ni  Ni656  1  0.92449283  0.85314833  0.27246245  1.0
  Ni  Ni657  1  0.09115950  0.18648167  0.37246245  1.0
  Ni  Ni658  1  0.09115950  0.51981500  0.37246245  1.0
  Ni  Ni659  1  0.09115950  0.85314833  0.37246245  1.0
  Ni  Ni660  1  0.42449283  0.18648167  0.37246245  1.0
  Ni  Ni661  1  0.42449283  0.51981500  0.37246245  1.0
  Ni  Ni662  1  0.42449283  0.85314833  0.37246245  1.0
  Ni  Ni663  1  0.75782617  0.18648167  0.37246245  1.0
  Ni  Ni664  1  0.75782617  0.51981500  0.37246245  1.0
  Ni  Ni665  1  0.75782617  0.85314833  0.37246245  1.0
  Ni  Ni666  1  0.07550717  0.14685167  0.31649985  1.0
  Ni  Ni667  1  0.07550717  0.48018500  0.31649985  1.0
  Ni  Ni668  1  0.07550717  0.81351833  0.31649985  1.0
  Ni  Ni669  1  0.40884050  0.14685167  0.31649985  1.0
  Ni  Ni670  1  0.40884050  0.48018500  0.31649985  1.0
  Ni  Ni671  1  0.40884050  0.81351833  0.31649985  1.0
  Ni  Ni672  1  0.74217383  0.14685167  0.31649985  1.0
  Ni  Ni673  1  0.74217383  0.48018500  0.31649985  1.0
  Ni  Ni674  1  0.74217383  0.81351833  0.31649985  1.0
  Ni  Ni675  1  0.24217383  0.14685167  0.21649985  1.0
  Ni  Ni676  1  0.24217383  0.48018500  0.21649985  1.0
  Ni  Ni677  1  0.24217383  0.81351833  0.21649985  1.0
  Ni  Ni678  1  0.57550717  0.14685167  0.21649985  1.0
  Ni  Ni679  1  0.57550717  0.48018500  0.21649985  1.0
  Ni  Ni680  1  0.57550717  0.81351833  0.21649985  1.0
  Ni  Ni681  1  0.90884050  0.14685167  0.21649985  1.0
  Ni  Ni682  1  0.90884050  0.48018500  0.21649985  1.0
  Ni  Ni683  1  0.90884050  0.81351833  0.21649985  1.0
  Ni  Ni684  1  0.02847600  0.03581900  0.24614735  1.0
  Ni  Ni685  1  0.02847600  0.36915233  0.24614735  1.0
  Ni  Ni686  1  0.02847600  0.70248567  0.24614735  1.0
  Ni  Ni687  1  0.36180933  0.03581900  0.24614735  1.0
  Ni  Ni688  1  0.36180933  0.36915233  0.24614735  1.0
  Ni  Ni689  1  0.36180933  0.70248567  0.24614735  1.0
  Ni  Ni690  1  0.69514267  0.03581900  0.24614735  1.0
  Ni  Ni691  1  0.69514267  0.36915233  0.24614735  1.0
  Ni  Ni692  1  0.69514267  0.70248567  0.24614735  1.0
  Ni  Ni693  1  0.19514267  0.03581900  0.34614735  1.0
  Ni  Ni694  1  0.19514267  0.36915233  0.34614735  1.0
  Ni  Ni695  1  0.19514267  0.70248567  0.34614735  1.0
  Ni  Ni696  1  0.52847600  0.03581900  0.34614735  1.0
  Ni  Ni697  1  0.52847600  0.36915233  0.34614735  1.0
  Ni  Ni698  1  0.52847600  0.70248567  0.34614735  1.0
  Ni  Ni699  1  0.86180933  0.03581900  0.34614735  1.0
  Ni  Ni700  1  0.86180933  0.36915233  0.34614735  1.0
  Ni  Ni701  1  0.86180933  0.70248567  0.34614735  1.0
  Ni  Ni702  1  0.30485733  0.29751433  0.34281495  1.0
  Ni  Ni703  1  0.30485733  0.63084767  0.34281495  1.0
  Ni  Ni704  1  0.30485733  0.96418100  0.34281495  1.0
  Ni  Ni705  1  0.63819067  0.29751433  0.34281495  1.0
  Ni  Ni706  1  0.63819067  0.63084767  0.34281495  1.0
  Ni  Ni707  1  0.63819067  0.96418100  0.34281495  1.0
  Ni  Ni708  1  0.97152400  0.29751433  0.34281495  1.0
  Ni  Ni709  1  0.97152400  0.63084767  0.34281495  1.0
  Ni  Ni710  1  0.97152400  0.96418100  0.34281495  1.0
  Ni  Ni711  1  0.13819067  0.29751433  0.24281495  1.0
  Ni  Ni712  1  0.13819067  0.63084767  0.24281495  1.0
  Ni  Ni713  1  0.13819067  0.96418100  0.24281495  1.0
  Ni  Ni714  1  0.47152400  0.29751433  0.24281495  1.0
  Ni  Ni715  1  0.47152400  0.63084767  0.24281495  1.0
  Ni  Ni716  1  0.47152400  0.96418100  0.24281495  1.0
  Ni  Ni717  1  0.80485733  0.29751433  0.24281495  1.0
  Ni  Ni718  1  0.80485733  0.63084767  0.24281495  1.0
  Ni  Ni719  1  0.80485733  0.96418100  0.24281495  1.0
