# generated using pymatgen
data_Hf3Ni7
_symmetry_space_group_name_H-M   'P 1'
_cell_length_a   22.84322118
_cell_length_b   32.64106345
_cell_length_c   58.53474000
_cell_angle_alpha   146.10951934
_cell_angle_beta   104.57866672
_cell_angle_gamma   89.03595694
_symmetry_Int_Tables_number   1
_chemical_formula_structural   Hf3Ni7
_chemical_formula_sum   'Hf216 Ni504'
_cell_volume   22010.11889049
_cell_formula_units_Z   72
loop_
 _symmetry_equiv_pos_site_id
 _symmetry_equiv_pos_as_xyz
  1  'x, y, z'
loop_
 _atom_site_type_symbol
 _atom_site_label
 _atom_site_symmetry_multiplicity
 _atom_site_fract_x
 _atom_site_fract_y
 _atom_site_fract_z
 _atom_site_occupancy
  Hf  Hf0  1  0.04373233  0.09088767  0.07995278  1.0
  Hf  Hf1  1  0.04373233  0.42422100  0.07995278  1.0
  Hf  Hf2  1  0.04373233  0.75755433  0.07995278  1.0
  Hf  Hf3  1  0.37706567  0.09088767  0.07995278  1.0
  Hf  Hf4  1  0.37706567  0.42422100  0.07995278  1.0
  Hf  Hf5  1  0.37706567  0.75755433  0.07995278  1.0
  Hf  Hf6  1  0.71039900  0.09088767  0.07995278  1.0
  Hf  Hf7  1  0.71039900  0.42422100  0.07995278  1.0
  Hf  Hf8  1  0.71039900  0.75755433  0.07995278  1.0
  Hf  Hf9  1  0.28960100  0.24244567  0.01944611  1.0
  Hf  Hf10  1  0.28960100  0.57577900  0.01944611  1.0
  Hf  Hf11  1  0.28960100  0.90911233  0.01944611  1.0
  Hf  Hf12  1  0.62293433  0.24244567  0.01944611  1.0
  Hf  Hf13  1  0.62293433  0.57577900  0.01944611  1.0
  Hf  Hf14  1  0.62293433  0.90911233  0.01944611  1.0
  Hf  Hf15  1  0.95626767  0.24244567  0.01944611  1.0
  Hf  Hf16  1  0.95626767  0.57577900  0.01944611  1.0
  Hf  Hf17  1  0.95626767  0.90911233  0.01944611  1.0
  Hf  Hf18  1  0.07398033  0.15176833  0.05574600  1.0
  Hf  Hf19  1  0.07398033  0.48510167  0.05574600  1.0
  Hf  Hf20  1  0.07398033  0.81843500  0.05574600  1.0
  Hf  Hf21  1  0.40731367  0.15176833  0.05574600  1.0
  Hf  Hf22  1  0.40731367  0.48510167  0.05574600  1.0
  Hf  Hf23  1  0.40731367  0.81843500  0.05574600  1.0
  Hf  Hf24  1  0.74064700  0.15176833  0.05574600  1.0
  Hf  Hf25  1  0.74064700  0.48510167  0.05574600  1.0
  Hf  Hf26  1  0.74064700  0.81843500  0.05574600  1.0
  Hf  Hf27  1  0.25935300  0.18156500  0.04365289  1.0
  Hf  Hf28  1  0.25935300  0.51489833  0.04365289  1.0
  Hf  Hf29  1  0.25935300  0.84823167  0.04365289  1.0
  Hf  Hf30  1  0.59268633  0.18156500  0.04365289  1.0
  Hf  Hf31  1  0.59268633  0.51489833  0.04365289  1.0
  Hf  Hf32  1  0.59268633  0.84823167  0.04365289  1.0
  Hf  Hf33  1  0.92601967  0.18156500  0.04365289  1.0
  Hf  Hf34  1  0.92601967  0.51489833  0.04365289  1.0
  Hf  Hf35  1  0.92601967  0.84823167  0.04365289  1.0
  Hf  Hf36  1  0.12509900  0.00855733  0.01452344  1.0
  Hf  Hf37  1  0.12509900  0.34189067  0.01452344  1.0
  Hf  Hf38  1  0.12509900  0.67522400  0.01452344  1.0
  Hf  Hf39  1  0.45843233  0.00855733  0.01452344  1.0
  Hf  Hf40  1  0.45843233  0.34189067  0.01452344  1.0
  Hf  Hf41  1  0.45843233  0.67522400  0.01452344  1.0
  Hf  Hf42  1  0.79176567  0.00855733  0.01452344  1.0
  Hf  Hf43  1  0.79176567  0.34189067  0.01452344  1.0
  Hf  Hf44  1  0.79176567  0.67522400  0.01452344  1.0
  Hf  Hf45  1  0.20823433  0.32477600  0.08487544  1.0
  Hf  Hf46  1  0.20823433  0.65810933  0.08487544  1.0
  Hf  Hf47  1  0.20823433  0.99144267  0.08487544  1.0
  Hf  Hf48  1  0.54156767  0.32477600  0.08487544  1.0
  Hf  Hf49  1  0.54156767  0.65810933  0.08487544  1.0
  Hf  Hf50  1  0.54156767  0.99144267  0.08487544  1.0
  Hf  Hf51  1  0.87490100  0.32477600  0.08487544  1.0
  Hf  Hf52  1  0.87490100  0.65810933  0.08487544  1.0
  Hf  Hf53  1  0.87490100  0.99144267  0.08487544  1.0
  Ni  Ni54  1  0.16666667  0.16666667  0.10525500  1.0
  Ni  Ni55  1  0.16666667  0.50000000  0.10525500  1.0
  Ni  Ni56  1  0.16666667  0.83333333  0.10525500  1.0
  Ni  Ni57  1  0.50000000  0.16666667  0.10525500  1.0
  Ni  Ni58  1  0.50000000  0.50000000  0.10525500  1.0
  Ni  Ni59  1  0.50000000  0.83333333  0.10525500  1.0
  Ni  Ni60  1  0.83333333  0.16666667  0.10525500  1.0
  Ni  Ni61  1  0.83333333  0.50000000  0.10525500  1.0
  Ni  Ni62  1  0.83333333  0.83333333  0.10525500  1.0
  Ni  Ni63  1  0.00000000  0.00000000  0.10525500  1.0
  Ni  Ni64  1  0.00000000  0.33333333  0.10525500  1.0
  Ni  Ni65  1  0.00000000  0.66666667  0.10525500  1.0
  Ni  Ni66  1  0.33333333  0.00000000  0.10525500  1.0
  Ni  Ni67  1  0.33333333  0.33333333  0.10525500  1.0
  Ni  Ni68  1  0.33333333  0.66666667  0.10525500  1.0
  Ni  Ni69  1  0.66666667  0.00000000  0.10525500  1.0
  Ni  Ni70  1  0.66666667  0.33333333  0.10525500  1.0
  Ni  Ni71  1  0.66666667  0.66666667  0.10525500  1.0
  Ni  Ni72  1  0.26164833  0.31222733  0.01252778  1.0
  Ni  Ni73  1  0.26164833  0.64556067  0.01252778  1.0
  Ni  Ni74  1  0.26164833  0.97889400  0.01252778  1.0
  Ni  Ni75  1  0.59498167  0.31222733  0.01252778  1.0
  Ni  Ni76  1  0.59498167  0.64556067  0.01252778  1.0
  Ni  Ni77  1  0.59498167  0.97889400  0.01252778  1.0
  Ni  Ni78  1  0.92831500  0.31222733  0.01252778  1.0
  Ni  Ni79  1  0.92831500  0.64556067  0.01252778  1.0
  Ni  Ni80  1  0.92831500  0.97889400  0.01252778  1.0
  Ni  Ni81  1  0.07168500  0.02110600  0.08687111  1.0
  Ni  Ni82  1  0.07168500  0.35443933  0.08687111  1.0
  Ni  Ni83  1  0.07168500  0.68777267  0.08687111  1.0
  Ni  Ni84  1  0.40501833  0.02110600  0.08687111  1.0
  Ni  Ni85  1  0.40501833  0.35443933  0.08687111  1.0
  Ni  Ni86  1  0.40501833  0.68777267  0.08687111  1.0
  Ni  Ni87  1  0.73835167  0.02110600  0.08687111  1.0
  Ni  Ni88  1  0.73835167  0.35443933  0.08687111  1.0
  Ni  Ni89  1  0.73835167  0.68777267  0.08687111  1.0
  Ni  Ni90  1  0.18108633  0.27466333  0.01709000  1.0
  Ni  Ni91  1  0.18108633  0.60799667  0.01709000  1.0
  Ni  Ni92  1  0.18108633  0.94133000  0.01709000  1.0
  Ni  Ni93  1  0.51441967  0.27466333  0.01709000  1.0
  Ni  Ni94  1  0.51441967  0.60799667  0.01709000  1.0
  Ni  Ni95  1  0.51441967  0.94133000  0.01709000  1.0
  Ni  Ni96  1  0.84775300  0.27466333  0.01709000  1.0
  Ni  Ni97  1  0.84775300  0.60799667  0.01709000  1.0
  Ni  Ni98  1  0.84775300  0.94133000  0.01709000  1.0
  Ni  Ni99  1  0.15224700  0.05867000  0.08230889  1.0
  Ni  Ni100  1  0.15224700  0.39200333  0.08230889  1.0
  Ni  Ni101  1  0.15224700  0.72533667  0.08230889  1.0
  Ni  Ni102  1  0.48558033  0.05867000  0.08230889  1.0
  Ni  Ni103  1  0.48558033  0.39200333  0.08230889  1.0
  Ni  Ni104  1  0.48558033  0.72533667  0.08230889  1.0
  Ni  Ni105  1  0.81891367  0.05867000  0.08230889  1.0
  Ni  Ni106  1  0.81891367  0.39200333  0.08230889  1.0
  Ni  Ni107  1  0.81891367  0.72533667  0.08230889  1.0
  Ni  Ni108  1  0.08839733  0.23331000  0.02243333  1.0
  Ni  Ni109  1  0.08839733  0.56664333  0.02243333  1.0
  Ni  Ni110  1  0.08839733  0.89997667  0.02243333  1.0
  Ni  Ni111  1  0.42173067  0.23331000  0.02243333  1.0
  Ni  Ni112  1  0.42173067  0.56664333  0.02243333  1.0
  Ni  Ni113  1  0.42173067  0.89997667  0.02243333  1.0
  Ni  Ni114  1  0.75506400  0.23331000  0.02243333  1.0
  Ni  Ni115  1  0.75506400  0.56664333  0.02243333  1.0
  Ni  Ni116  1  0.75506400  0.89997667  0.02243333  1.0
  Ni  Ni117  1  0.24493600  0.10002333  0.07696556  1.0
  Ni  Ni118  1  0.24493600  0.43335667  0.07696556  1.0
  Ni  Ni119  1  0.24493600  0.76669000  0.07696556  1.0
  Ni  Ni120  1  0.57826933  0.10002333  0.07696556  1.0
  Ni  Ni121  1  0.57826933  0.43335667  0.07696556  1.0
  Ni  Ni122  1  0.57826933  0.76669000  0.07696556  1.0
  Ni  Ni123  1  0.91160267  0.10002333  0.07696556  1.0
  Ni  Ni124  1  0.91160267  0.43335667  0.07696556  1.0
  Ni  Ni125  1  0.91160267  0.76669000  0.07696556  1.0
  Ni  Ni126  1  0.03132067  0.21354467  0.04524133  1.0
  Ni  Ni127  1  0.03132067  0.54687800  0.04524133  1.0
  Ni  Ni128  1  0.03132067  0.88021133  0.04524133  1.0
  Ni  Ni129  1  0.36465400  0.21354467  0.04524133  1.0
  Ni  Ni130  1  0.36465400  0.54687800  0.04524133  1.0
  Ni  Ni131  1  0.36465400  0.88021133  0.04524133  1.0
  Ni  Ni132  1  0.69798733  0.21354467  0.04524133  1.0
  Ni  Ni133  1  0.69798733  0.54687800  0.04524133  1.0
  Ni  Ni134  1  0.69798733  0.88021133  0.04524133  1.0
  Ni  Ni135  1  0.30201267  0.11978867  0.05415756  1.0
  Ni  Ni136  1  0.30201267  0.45312200  0.05415756  1.0
  Ni  Ni137  1  0.30201267  0.78645533  0.05415756  1.0
  Ni  Ni138  1  0.63534600  0.11978867  0.05415756  1.0
  Ni  Ni139  1  0.63534600  0.45312200  0.05415756  1.0
  Ni  Ni140  1  0.63534600  0.78645533  0.05415756  1.0
  Ni  Ni141  1  0.96867933  0.11978867  0.05415756  1.0
  Ni  Ni142  1  0.96867933  0.45312200  0.05415756  1.0
  Ni  Ni143  1  0.96867933  0.78645533  0.05415756  1.0
  Ni  Ni144  1  0.14685167  0.20547600  0.05081344  1.0
  Ni  Ni145  1  0.14685167  0.53880933  0.05081344  1.0
  Ni  Ni146  1  0.14685167  0.87214267  0.05081344  1.0
  Ni  Ni147  1  0.48018500  0.20547600  0.05081344  1.0
  Ni  Ni148  1  0.48018500  0.53880933  0.05081344  1.0
  Ni  Ni149  1  0.48018500  0.87214267  0.05081344  1.0
  Ni  Ni150  1  0.81351833  0.20547600  0.05081344  1.0
  Ni  Ni151  1  0.81351833  0.53880933  0.05081344  1.0
  Ni  Ni152  1  0.81351833  0.87214267  0.05081344  1.0
  Ni  Ni153  1  0.18648167  0.12785733  0.04858544  1.0
  Ni  Ni154  1  0.18648167  0.46119067  0.04858544  1.0
  Ni  Ni155  1  0.18648167  0.79452400  0.04858544  1.0
  Ni  Ni156  1  0.51981500  0.12785733  0.04858544  1.0
  Ni  Ni157  1  0.51981500  0.46119067  0.04858544  1.0
  Ni  Ni158  1  0.51981500  0.79452400  0.04858544  1.0
  Ni  Ni159  1  0.85314833  0.12785733  0.04858544  1.0
  Ni  Ni160  1  0.85314833  0.46119067  0.04858544  1.0
  Ni  Ni161  1  0.85314833  0.79452400  0.04858544  1.0
  Ni  Ni162  1  0.29751433  0.05763433  0.09354278  1.0
  Ni  Ni163  1  0.29751433  0.39096767  0.09354278  1.0
  Ni  Ni164  1  0.29751433  0.72430100  0.09354278  1.0
  Ni  Ni165  1  0.63084767  0.05763433  0.09354278  1.0
  Ni  Ni166  1  0.63084767  0.39096767  0.09354278  1.0
  Ni  Ni167  1  0.63084767  0.72430100  0.09354278  1.0
  Ni  Ni168  1  0.96418100  0.05763433  0.09354278  1.0
  Ni  Ni169  1  0.96418100  0.39096767  0.09354278  1.0
  Ni  Ni170  1  0.96418100  0.72430100  0.09354278  1.0
  Ni  Ni171  1  0.03581900  0.27569900  0.00585611  1.0
  Ni  Ni172  1  0.03581900  0.60903233  0.00585611  1.0
  Ni  Ni173  1  0.03581900  0.94236567  0.00585611  1.0
  Ni  Ni174  1  0.36915233  0.27569900  0.00585611  1.0
  Ni  Ni175  1  0.36915233  0.60903233  0.00585611  1.0
  Ni  Ni176  1  0.36915233  0.94236567  0.00585611  1.0
  Ni  Ni177  1  0.70248567  0.27569900  0.00585611  1.0
  Ni  Ni178  1  0.70248567  0.60903233  0.00585611  1.0
  Ni  Ni179  1  0.70248567  0.94236567  0.00585611  1.0
  Hf  Hf180  1  0.04373233  0.09088767  0.19106389  1.0
  Hf  Hf181  1  0.04373233  0.42422100  0.19106389  1.0
  Hf  Hf182  1  0.04373233  0.75755433  0.19106389  1.0
  Hf  Hf183  1  0.37706567  0.09088767  0.19106389  1.0
  Hf  Hf184  1  0.37706567  0.42422100  0.19106389  1.0
  Hf  Hf185  1  0.37706567  0.75755433  0.19106389  1.0
  Hf  Hf186  1  0.71039900  0.09088767  0.19106389  1.0
  Hf  Hf187  1  0.71039900  0.42422100  0.19106389  1.0
  Hf  Hf188  1  0.71039900  0.75755433  0.19106389  1.0
  Hf  Hf189  1  0.28960100  0.24244567  0.13055722  1.0
  Hf  Hf190  1  0.28960100  0.57577900  0.13055722  1.0
  Hf  Hf191  1  0.28960100  0.90911233  0.13055722  1.0
  Hf  Hf192  1  0.62293433  0.24244567  0.13055722  1.0
  Hf  Hf193  1  0.62293433  0.57577900  0.13055722  1.0
  Hf  Hf194  1  0.62293433  0.90911233  0.13055722  1.0
  Hf  Hf195  1  0.95626767  0.24244567  0.13055722  1.0
  Hf  Hf196  1  0.95626767  0.57577900  0.13055722  1.0
  Hf  Hf197  1  0.95626767  0.90911233  0.13055722  1.0
  Hf  Hf198  1  0.07398033  0.15176833  0.16685711  1.0
  Hf  Hf199  1  0.07398033  0.48510167  0.16685711  1.0
  Hf  Hf200  1  0.07398033  0.81843500  0.16685711  1.0
  Hf  Hf201  1  0.40731367  0.15176833  0.16685711  1.0
  Hf  Hf202  1  0.40731367  0.48510167  0.16685711  1.0
  Hf  Hf203  1  0.40731367  0.81843500  0.16685711  1.0
  Hf  Hf204  1  0.74064700  0.15176833  0.16685711  1.0
  Hf  Hf205  1  0.74064700  0.48510167  0.16685711  1.0
  Hf  Hf206  1  0.74064700  0.81843500  0.16685711  1.0
  Hf  Hf207  1  0.25935300  0.18156500  0.15476400  1.0
  Hf  Hf208  1  0.25935300  0.51489833  0.15476400  1.0
  Hf  Hf209  1  0.25935300  0.84823167  0.15476400  1.0
  Hf  Hf210  1  0.59268633  0.18156500  0.15476400  1.0
  Hf  Hf211  1  0.59268633  0.51489833  0.15476400  1.0
  Hf  Hf212  1  0.59268633  0.84823167  0.15476400  1.0
  Hf  Hf213  1  0.92601967  0.18156500  0.15476400  1.0
  Hf  Hf214  1  0.92601967  0.51489833  0.15476400  1.0
  Hf  Hf215  1  0.92601967  0.84823167  0.15476400  1.0
  Hf  Hf216  1  0.12509900  0.00855733  0.12563456  1.0
  Hf  Hf217  1  0.12509900  0.34189067  0.12563456  1.0
  Hf  Hf218  1  0.12509900  0.67522400  0.12563456  1.0
  Hf  Hf219  1  0.45843233  0.00855733  0.12563456  1.0
  Hf  Hf220  1  0.45843233  0.34189067  0.12563456  1.0
  Hf  Hf221  1  0.45843233  0.67522400  0.12563456  1.0
  Hf  Hf222  1  0.79176567  0.00855733  0.12563456  1.0
  Hf  Hf223  1  0.79176567  0.34189067  0.12563456  1.0
  Hf  Hf224  1  0.79176567  0.67522400  0.12563456  1.0
  Hf  Hf225  1  0.20823433  0.32477600  0.19598656  1.0
  Hf  Hf226  1  0.20823433  0.65810933  0.19598656  1.0
  Hf  Hf227  1  0.20823433  0.99144267  0.19598656  1.0
  Hf  Hf228  1  0.54156767  0.32477600  0.19598656  1.0
  Hf  Hf229  1  0.54156767  0.65810933  0.19598656  1.0
  Hf  Hf230  1  0.54156767  0.99144267  0.19598656  1.0
  Hf  Hf231  1  0.87490100  0.32477600  0.19598656  1.0
  Hf  Hf232  1  0.87490100  0.65810933  0.19598656  1.0
  Hf  Hf233  1  0.87490100  0.99144267  0.19598656  1.0
  Ni  Ni234  1  0.16666667  0.16666667  0.21636611  1.0
  Ni  Ni235  1  0.16666667  0.50000000  0.21636611  1.0
  Ni  Ni236  1  0.16666667  0.83333333  0.21636611  1.0
  Ni  Ni237  1  0.50000000  0.16666667  0.21636611  1.0
  Ni  Ni238  1  0.50000000  0.50000000  0.21636611  1.0
  Ni  Ni239  1  0.50000000  0.83333333  0.21636611  1.0
  Ni  Ni240  1  0.83333333  0.16666667  0.21636611  1.0
  Ni  Ni241  1  0.83333333  0.50000000  0.21636611  1.0
  Ni  Ni242  1  0.83333333  0.83333333  0.21636611  1.0
  Ni  Ni243  1  0.00000000  0.00000000  0.21636611  1.0
  Ni  Ni244  1  0.00000000  0.33333333  0.21636611  1.0
  Ni  Ni245  1  0.00000000  0.66666667  0.21636611  1.0
  Ni  Ni246  1  0.33333333  0.00000000  0.21636611  1.0
  Ni  Ni247  1  0.33333333  0.33333333  0.21636611  1.0
  Ni  Ni248  1  0.33333333  0.66666667  0.21636611  1.0
  Ni  Ni249  1  0.66666667  0.00000000  0.21636611  1.0
  Ni  Ni250  1  0.66666667  0.33333333  0.21636611  1.0
  Ni  Ni251  1  0.66666667  0.66666667  0.21636611  1.0
  Ni  Ni252  1  0.26164833  0.31222733  0.12363889  1.0
  Ni  Ni253  1  0.26164833  0.64556067  0.12363889  1.0
  Ni  Ni254  1  0.26164833  0.97889400  0.12363889  1.0
  Ni  Ni255  1  0.59498167  0.31222733  0.12363889  1.0
  Ni  Ni256  1  0.59498167  0.64556067  0.12363889  1.0
  Ni  Ni257  1  0.59498167  0.97889400  0.12363889  1.0
  Ni  Ni258  1  0.92831500  0.31222733  0.12363889  1.0
  Ni  Ni259  1  0.92831500  0.64556067  0.12363889  1.0
  Ni  Ni260  1  0.92831500  0.97889400  0.12363889  1.0
  Ni  Ni261  1  0.07168500  0.02110600  0.19798222  1.0
  Ni  Ni262  1  0.07168500  0.35443933  0.19798222  1.0
  Ni  Ni263  1  0.07168500  0.68777267  0.19798222  1.0
  Ni  Ni264  1  0.40501833  0.02110600  0.19798222  1.0
  Ni  Ni265  1  0.40501833  0.35443933  0.19798222  1.0
  Ni  Ni266  1  0.40501833  0.68777267  0.19798222  1.0
  Ni  Ni267  1  0.73835167  0.02110600  0.19798222  1.0
  Ni  Ni268  1  0.73835167  0.35443933  0.19798222  1.0
  Ni  Ni269  1  0.73835167  0.68777267  0.19798222  1.0
  Ni  Ni270  1  0.18108633  0.27466333  0.12820111  1.0
  Ni  Ni271  1  0.18108633  0.60799667  0.12820111  1.0
  Ni  Ni272  1  0.18108633  0.94133000  0.12820111  1.0
  Ni  Ni273  1  0.51441967  0.27466333  0.12820111  1.0
  Ni  Ni274  1  0.51441967  0.60799667  0.12820111  1.0
  Ni  Ni275  1  0.51441967  0.94133000  0.12820111  1.0
  Ni  Ni276  1  0.84775300  0.27466333  0.12820111  1.0
  Ni  Ni277  1  0.84775300  0.60799667  0.12820111  1.0
  Ni  Ni278  1  0.84775300  0.94133000  0.12820111  1.0
  Ni  Ni279  1  0.15224700  0.05867000  0.19342000  1.0
  Ni  Ni280  1  0.15224700  0.39200333  0.19342000  1.0
  Ni  Ni281  1  0.15224700  0.72533667  0.19342000  1.0
  Ni  Ni282  1  0.48558033  0.05867000  0.19342000  1.0
  Ni  Ni283  1  0.48558033  0.39200333  0.19342000  1.0
  Ni  Ni284  1  0.48558033  0.72533667  0.19342000  1.0
  Ni  Ni285  1  0.81891367  0.05867000  0.19342000  1.0
  Ni  Ni286  1  0.81891367  0.39200333  0.19342000  1.0
  Ni  Ni287  1  0.81891367  0.72533667  0.19342000  1.0
  Ni  Ni288  1  0.08839733  0.23331000  0.13354444  1.0
  Ni  Ni289  1  0.08839733  0.56664333  0.13354444  1.0
  Ni  Ni290  1  0.08839733  0.89997667  0.13354444  1.0
  Ni  Ni291  1  0.42173067  0.23331000  0.13354444  1.0
  Ni  Ni292  1  0.42173067  0.56664333  0.13354444  1.0
  Ni  Ni293  1  0.42173067  0.89997667  0.13354444  1.0
  Ni  Ni294  1  0.75506400  0.23331000  0.13354444  1.0
  Ni  Ni295  1  0.75506400  0.56664333  0.13354444  1.0
  Ni  Ni296  1  0.75506400  0.89997667  0.13354444  1.0
  Ni  Ni297  1  0.24493600  0.10002333  0.18807667  1.0
  Ni  Ni298  1  0.24493600  0.43335667  0.18807667  1.0
  Ni  Ni299  1  0.24493600  0.76669000  0.18807667  1.0
  Ni  Ni300  1  0.57826933  0.10002333  0.18807667  1.0
  Ni  Ni301  1  0.57826933  0.43335667  0.18807667  1.0
  Ni  Ni302  1  0.57826933  0.76669000  0.18807667  1.0
  Ni  Ni303  1  0.91160267  0.10002333  0.18807667  1.0
  Ni  Ni304  1  0.91160267  0.43335667  0.18807667  1.0
  Ni  Ni305  1  0.91160267  0.76669000  0.18807667  1.0
  Ni  Ni306  1  0.03132067  0.21354467  0.15635244  1.0
  Ni  Ni307  1  0.03132067  0.54687800  0.15635244  1.0
  Ni  Ni308  1  0.03132067  0.88021133  0.15635244  1.0
  Ni  Ni309  1  0.36465400  0.21354467  0.15635244  1.0
  Ni  Ni310  1  0.36465400  0.54687800  0.15635244  1.0
  Ni  Ni311  1  0.36465400  0.88021133  0.15635244  1.0
  Ni  Ni312  1  0.69798733  0.21354467  0.15635244  1.0
  Ni  Ni313  1  0.69798733  0.54687800  0.15635244  1.0
  Ni  Ni314  1  0.69798733  0.88021133  0.15635244  1.0
  Ni  Ni315  1  0.30201267  0.11978867  0.16526867  1.0
  Ni  Ni316  1  0.30201267  0.45312200  0.16526867  1.0
  Ni  Ni317  1  0.30201267  0.78645533  0.16526867  1.0
  Ni  Ni318  1  0.63534600  0.11978867  0.16526867  1.0
  Ni  Ni319  1  0.63534600  0.45312200  0.16526867  1.0
  Ni  Ni320  1  0.63534600  0.78645533  0.16526867  1.0
  Ni  Ni321  1  0.96867933  0.11978867  0.16526867  1.0
  Ni  Ni322  1  0.96867933  0.45312200  0.16526867  1.0
  Ni  Ni323  1  0.96867933  0.78645533  0.16526867  1.0
  Ni  Ni324  1  0.14685167  0.20547600  0.16192456  1.0
  Ni  Ni325  1  0.14685167  0.53880933  0.16192456  1.0
  Ni  Ni326  1  0.14685167  0.87214267  0.16192456  1.0
  Ni  Ni327  1  0.48018500  0.20547600  0.16192456  1.0
  Ni  Ni328  1  0.48018500  0.53880933  0.16192456  1.0
  Ni  Ni329  1  0.48018500  0.87214267  0.16192456  1.0
  Ni  Ni330  1  0.81351833  0.20547600  0.16192456  1.0
  Ni  Ni331  1  0.81351833  0.53880933  0.16192456  1.0
  Ni  Ni332  1  0.81351833  0.87214267  0.16192456  1.0
  Ni  Ni333  1  0.18648167  0.12785733  0.15969656  1.0
  Ni  Ni334  1  0.18648167  0.46119067  0.15969656  1.0
  Ni  Ni335  1  0.18648167  0.79452400  0.15969656  1.0
  Ni  Ni336  1  0.51981500  0.12785733  0.15969656  1.0
  Ni  Ni337  1  0.51981500  0.46119067  0.15969656  1.0
  Ni  Ni338  1  0.51981500  0.79452400  0.15969656  1.0
  Ni  Ni339  1  0.85314833  0.12785733  0.15969656  1.0
  Ni  Ni340  1  0.85314833  0.46119067  0.15969656  1.0
  Ni  Ni341  1  0.85314833  0.79452400  0.15969656  1.0
  Ni  Ni342  1  0.29751433  0.05763433  0.20465389  1.0
  Ni  Ni343  1  0.29751433  0.39096767  0.20465389  1.0
  Ni  Ni344  1  0.29751433  0.72430100  0.20465389  1.0
  Ni  Ni345  1  0.63084767  0.05763433  0.20465389  1.0
  Ni  Ni346  1  0.63084767  0.39096767  0.20465389  1.0
  Ni  Ni347  1  0.63084767  0.72430100  0.20465389  1.0
  Ni  Ni348  1  0.96418100  0.05763433  0.20465389  1.0
  Ni  Ni349  1  0.96418100  0.39096767  0.20465389  1.0
  Ni  Ni350  1  0.96418100  0.72430100  0.20465389  1.0
  Ni  Ni351  1  0.03581900  0.27569900  0.11696722  1.0
  Ni  Ni352  1  0.03581900  0.60903233  0.11696722  1.0
  Ni  Ni353  1  0.03581900  0.94236567  0.11696722  1.0
  Ni  Ni354  1  0.36915233  0.27569900  0.11696722  1.0
  Ni  Ni355  1  0.36915233  0.60903233  0.11696722  1.0
  Ni  Ni356  1  0.36915233  0.94236567  0.11696722  1.0
  Ni  Ni357  1  0.70248567  0.27569900  0.11696722  1.0
  Ni  Ni358  1  0.70248567  0.60903233  0.11696722  1.0
  Ni  Ni359  1  0.70248567  0.94236567  0.11696722  1.0
  Hf  Hf360  1  0.04373233  0.09088767  0.30217500  1.0
  Hf  Hf361  1  0.04373233  0.42422100  0.30217500  1.0
  Hf  Hf362  1  0.04373233  0.75755433  0.30217500  1.0
  Hf  Hf363  1  0.37706567  0.09088767  0.30217500  1.0
  Hf  Hf364  1  0.37706567  0.42422100  0.30217500  1.0
  Hf  Hf365  1  0.37706567  0.75755433  0.30217500  1.0
  Hf  Hf366  1  0.71039900  0.09088767  0.30217500  1.0
  Hf  Hf367  1  0.71039900  0.42422100  0.30217500  1.0
  Hf  Hf368  1  0.71039900  0.75755433  0.30217500  1.0
  Hf  Hf369  1  0.28960100  0.24244567  0.24166833  1.0
  Hf  Hf370  1  0.28960100  0.57577900  0.24166833  1.0
  Hf  Hf371  1  0.28960100  0.90911233  0.24166833  1.0
  Hf  Hf372  1  0.62293433  0.24244567  0.24166833  1.0
  Hf  Hf373  1  0.62293433  0.57577900  0.24166833  1.0
  Hf  Hf374  1  0.62293433  0.90911233  0.24166833  1.0
  Hf  Hf375  1  0.95626767  0.24244567  0.24166833  1.0
  Hf  Hf376  1  0.95626767  0.57577900  0.24166833  1.0
  Hf  Hf377  1  0.95626767  0.90911233  0.24166833  1.0
  Hf  Hf378  1  0.07398033  0.15176833  0.27796822  1.0
  Hf  Hf379  1  0.07398033  0.48510167  0.27796822  1.0
  Hf  Hf380  1  0.07398033  0.81843500  0.27796822  1.0
  Hf  Hf381  1  0.40731367  0.15176833  0.27796822  1.0
  Hf  Hf382  1  0.40731367  0.48510167  0.27796822  1.0
  Hf  Hf383  1  0.40731367  0.81843500  0.27796822  1.0
  Hf  Hf384  1  0.74064700  0.15176833  0.27796822  1.0
  Hf  Hf385  1  0.74064700  0.48510167  0.27796822  1.0
  Hf  Hf386  1  0.74064700  0.81843500  0.27796822  1.0
  Hf  Hf387  1  0.25935300  0.18156500  0.26587511  1.0
  Hf  Hf388  1  0.25935300  0.51489833  0.26587511  1.0
  Hf  Hf389  1  0.25935300  0.84823167  0.26587511  1.0
  Hf  Hf390  1  0.59268633  0.18156500  0.26587511  1.0
  Hf  Hf391  1  0.59268633  0.51489833  0.26587511  1.0
  Hf  Hf392  1  0.59268633  0.84823167  0.26587511  1.0
  Hf  Hf393  1  0.92601967  0.18156500  0.26587511  1.0
  Hf  Hf394  1  0.92601967  0.51489833  0.26587511  1.0
  Hf  Hf395  1  0.92601967  0.84823167  0.26587511  1.0
  Hf  Hf396  1  0.12509900  0.00855733  0.23674567  1.0
  Hf  Hf397  1  0.12509900  0.34189067  0.23674567  1.0
  Hf  Hf398  1  0.12509900  0.67522400  0.23674567  1.0
  Hf  Hf399  1  0.45843233  0.00855733  0.23674567  1.0
  Hf  Hf400  1  0.45843233  0.34189067  0.23674567  1.0
  Hf  Hf401  1  0.45843233  0.67522400  0.23674567  1.0
  Hf  Hf402  1  0.79176567  0.00855733  0.23674567  1.0
  Hf  Hf403  1  0.79176567  0.34189067  0.23674567  1.0
  Hf  Hf404  1  0.79176567  0.67522400  0.23674567  1.0
  Hf  Hf405  1  0.20823433  0.32477600  0.30709767  1.0
  Hf  Hf406  1  0.20823433  0.65810933  0.30709767  1.0
  Hf  Hf407  1  0.20823433  0.99144267  0.30709767  1.0
  Hf  Hf408  1  0.54156767  0.32477600  0.30709767  1.0
  Hf  Hf409  1  0.54156767  0.65810933  0.30709767  1.0
  Hf  Hf410  1  0.54156767  0.99144267  0.30709767  1.0
  Hf  Hf411  1  0.87490100  0.32477600  0.30709767  1.0
  Hf  Hf412  1  0.87490100  0.65810933  0.30709767  1.0
  Hf  Hf413  1  0.87490100  0.99144267  0.30709767  1.0
  Ni  Ni414  1  0.16666667  0.16666667  0.32747722  1.0
  Ni  Ni415  1  0.16666667  0.50000000  0.32747722  1.0
  Ni  Ni416  1  0.16666667  0.83333333  0.32747722  1.0
  Ni  Ni417  1  0.50000000  0.16666667  0.32747722  1.0
  Ni  Ni418  1  0.50000000  0.50000000  0.32747722  1.0
  Ni  Ni419  1  0.50000000  0.83333333  0.32747722  1.0
  Ni  Ni420  1  0.83333333  0.16666667  0.32747722  1.0
  Ni  Ni421  1  0.83333333  0.50000000  0.32747722  1.0
  Ni  Ni422  1  0.83333333  0.83333333  0.32747722  1.0
  Ni  Ni423  1  0.00000000  0.00000000  0.32747722  1.0
  Ni  Ni424  1  0.00000000  0.33333333  0.32747722  1.0
  Ni  Ni425  1  0.00000000  0.66666667  0.32747722  1.0
  Ni  Ni426  1  0.33333333  0.00000000  0.32747722  1.0
  Ni  Ni427  1  0.33333333  0.33333333  0.32747722  1.0
  Ni  Ni428  1  0.33333333  0.66666667  0.32747722  1.0
  Ni  Ni429  1  0.66666667  0.00000000  0.32747722  1.0
  Ni  Ni430  1  0.66666667  0.33333333  0.32747722  1.0
  Ni  Ni431  1  0.66666667  0.66666667  0.32747722  1.0
  Ni  Ni432  1  0.26164833  0.31222733  0.23475000  1.0
  Ni  Ni433  1  0.26164833  0.64556067  0.23475000  1.0
  Ni  Ni434  1  0.26164833  0.97889400  0.23475000  1.0
  Ni  Ni435  1  0.59498167  0.31222733  0.23475000  1.0
  Ni  Ni436  1  0.59498167  0.64556067  0.23475000  1.0
  Ni  Ni437  1  0.59498167  0.97889400  0.23475000  1.0
  Ni  Ni438  1  0.92831500  0.31222733  0.23475000  1.0
  Ni  Ni439  1  0.92831500  0.64556067  0.23475000  1.0
  Ni  Ni440  1  0.92831500  0.97889400  0.23475000  1.0
  Ni  Ni441  1  0.07168500  0.02110600  0.30909333  1.0
  Ni  Ni442  1  0.07168500  0.35443933  0.30909333  1.0
  Ni  Ni443  1  0.07168500  0.68777267  0.30909333  1.0
  Ni  Ni444  1  0.40501833  0.02110600  0.30909333  1.0
  Ni  Ni445  1  0.40501833  0.35443933  0.30909333  1.0
  Ni  Ni446  1  0.40501833  0.68777267  0.30909333  1.0
  Ni  Ni447  1  0.73835167  0.02110600  0.30909333  1.0
  Ni  Ni448  1  0.73835167  0.35443933  0.30909333  1.0
  Ni  Ni449  1  0.73835167  0.68777267  0.30909333  1.0
  Ni  Ni450  1  0.18108633  0.27466333  0.23931222  1.0
  Ni  Ni451  1  0.18108633  0.60799667  0.23931222  1.0
  Ni  Ni452  1  0.18108633  0.94133000  0.23931222  1.0
  Ni  Ni453  1  0.51441967  0.27466333  0.23931222  1.0
  Ni  Ni454  1  0.51441967  0.60799667  0.23931222  1.0
  Ni  Ni455  1  0.51441967  0.94133000  0.23931222  1.0
  Ni  Ni456  1  0.84775300  0.27466333  0.23931222  1.0
  Ni  Ni457  1  0.84775300  0.60799667  0.23931222  1.0
  Ni  Ni458  1  0.84775300  0.94133000  0.23931222  1.0
  Ni  Ni459  1  0.15224700  0.05867000  0.30453111  1.0
  Ni  Ni460  1  0.15224700  0.39200333  0.30453111  1.0
  Ni  Ni461  1  0.15224700  0.72533667  0.30453111  1.0
  Ni  Ni462  1  0.48558033  0.05867000  0.30453111  1.0
  Ni  Ni463  1  0.48558033  0.39200333  0.30453111  1.0
  Ni  Ni464  1  0.48558033  0.72533667  0.30453111  1.0
  Ni  Ni465  1  0.81891367  0.05867000  0.30453111  1.0
  Ni  Ni466  1  0.81891367  0.39200333  0.30453111  1.0
  Ni  Ni467  1  0.81891367  0.72533667  0.30453111  1.0
  Ni  Ni468  1  0.08839733  0.23331000  0.24465556  1.0
  Ni  Ni469  1  0.08839733  0.56664333  0.24465556  1.0
  Ni  Ni470  1  0.08839733  0.89997667  0.24465556  1.0
  Ni  Ni471  1  0.42173067  0.23331000  0.24465556  1.0
  Ni  Ni472  1  0.42173067  0.56664333  0.24465556  1.0
  Ni  Ni473  1  0.42173067  0.89997667  0.24465556  1.0
  Ni  Ni474  1  0.75506400  0.23331000  0.24465556  1.0
  Ni  Ni475  1  0.75506400  0.56664333  0.24465556  1.0
  Ni  Ni476  1  0.75506400  0.89997667  0.24465556  1.0
  Ni  Ni477  1  0.24493600  0.10002333  0.29918778  1.0
  Ni  Ni478  1  0.24493600  0.43335667  0.29918778  1.0
  Ni  Ni479  1  0.24493600  0.76669000  0.29918778  1.0
  Ni  Ni480  1  0.57826933  0.10002333  0.29918778  1.0
  Ni  Ni481  1  0.57826933  0.43335667  0.29918778  1.0
  Ni  Ni482  1  0.57826933  0.76669000  0.29918778  1.0
  Ni  Ni483  1  0.91160267  0.10002333  0.29918778  1.0
  Ni  Ni484  1  0.91160267  0.43335667  0.29918778  1.0
  Ni  Ni485  1  0.91160267  0.76669000  0.29918778  1.0
  Ni  Ni486  1  0.03132067  0.21354467  0.26746356  1.0
  Ni  Ni487  1  0.03132067  0.54687800  0.26746356  1.0
  Ni  Ni488  1  0.03132067  0.88021133  0.26746356  1.0
  Ni  Ni489  1  0.36465400  0.21354467  0.26746356  1.0
  Ni  Ni490  1  0.36465400  0.54687800  0.26746356  1.0
  Ni  Ni491  1  0.36465400  0.88021133  0.26746356  1.0
  Ni  Ni492  1  0.69798733  0.21354467  0.26746356  1.0
  Ni  Ni493  1  0.69798733  0.54687800  0.26746356  1.0
  Ni  Ni494  1  0.69798733  0.88021133  0.26746356  1.0
  Ni  Ni495  1  0.30201267  0.11978867  0.27637978  1.0
  Ni  Ni496  1  0.30201267  0.45312200  0.27637978  1.0
  Ni  Ni497  1  0.30201267  0.78645533  0.27637978  1.0
  Ni  Ni498  1  0.63534600  0.11978867  0.27637978  1.0
  Ni  Ni499  1  0.63534600  0.45312200  0.27637978  1.0
  Ni  Ni500  1  0.63534600  0.78645533  0.27637978  1.0
  Ni  Ni501  1  0.96867933  0.11978867  0.27637978  1.0
  Ni  Ni502  1  0.96867933  0.45312200  0.27637978  1.0
  Ni  Ni503  1  0.96867933  0.78645533  0.27637978  1.0
  Ni  Ni504  1  0.14685167  0.20547600  0.27303567  1.0
  Ni  Ni505  1  0.14685167  0.53880933  0.27303567  1.0
  Ni  Ni506  1  0.14685167  0.87214267  0.27303567  1.0
  Ni  Ni507  1  0.48018500  0.20547600  0.27303567  1.0
  Ni  Ni508  1  0.48018500  0.53880933  0.27303567  1.0
  Ni  Ni509  1  0.48018500  0.87214267  0.27303567  1.0
  Ni  Ni510  1  0.81351833  0.20547600  0.27303567  1.0
  Ni  Ni511  1  0.81351833  0.53880933  0.27303567  1.0
  Ni  Ni512  1  0.81351833  0.87214267  0.27303567  1.0
  Ni  Ni513  1  0.18648167  0.12785733  0.27080767  1.0
  Ni  Ni514  1  0.18648167  0.46119067  0.27080767  1.0
  Ni  Ni515  1  0.18648167  0.79452400  0.27080767  1.0
  Ni  Ni516  1  0.51981500  0.12785733  0.27080767  1.0
  Ni  Ni517  1  0.51981500  0.46119067  0.27080767  1.0
  Ni  Ni518  1  0.51981500  0.79452400  0.27080767  1.0
  Ni  Ni519  1  0.85314833  0.12785733  0.27080767  1.0
  Ni  Ni520  1  0.85314833  0.46119067  0.27080767  1.0
  Ni  Ni521  1  0.85314833  0.79452400  0.27080767  1.0
  Ni  Ni522  1  0.29751433  0.05763433  0.31576500  1.0
  Ni  Ni523  1  0.29751433  0.39096767  0.31576500  1.0
  Ni  Ni524  1  0.29751433  0.72430100  0.31576500  1.0
  Ni  Ni525  1  0.63084767  0.05763433  0.31576500  1.0
  Ni  Ni526  1  0.63084767  0.39096767  0.31576500  1.0
  Ni  Ni527  1  0.63084767  0.72430100  0.31576500  1.0
  Ni  Ni528  1  0.96418100  0.05763433  0.31576500  1.0
  Ni  Ni529  1  0.96418100  0.39096767  0.31576500  1.0
  Ni  Ni530  1  0.96418100  0.72430100  0.31576500  1.0
  Ni  Ni531  1  0.03581900  0.27569900  0.22807833  1.0
  Ni  Ni532  1  0.03581900  0.60903233  0.22807833  1.0
  Ni  Ni533  1  0.03581900  0.94236567  0.22807833  1.0
  Ni  Ni534  1  0.36915233  0.27569900  0.22807833  1.0
  Ni  Ni535  1  0.36915233  0.60903233  0.22807833  1.0
  Ni  Ni536  1  0.36915233  0.94236567  0.22807833  1.0
  Ni  Ni537  1  0.70248567  0.27569900  0.22807833  1.0
  Ni  Ni538  1  0.70248567  0.60903233  0.22807833  1.0
  Ni  Ni539  1  0.70248567  0.94236567  0.22807833  1.0
  Hf  Hf540  1  0.04373233  0.09088767  0.41328611  1.0
  Hf  Hf541  1  0.04373233  0.42422100  0.41328611  1.0
  Hf  Hf542  1  0.04373233  0.75755433  0.41328611  1.0
  Hf  Hf543  1  0.37706567  0.09088767  0.41328611  1.0
  Hf  Hf544  1  0.37706567  0.42422100  0.41328611  1.0
  Hf  Hf545  1  0.37706567  0.75755433  0.41328611  1.0
  Hf  Hf546  1  0.71039900  0.09088767  0.41328611  1.0
  Hf  Hf547  1  0.71039900  0.42422100  0.41328611  1.0
  Hf  Hf548  1  0.71039900  0.75755433  0.41328611  1.0
  Hf  Hf549  1  0.28960100  0.24244567  0.35277944  1.0
  Hf  Hf550  1  0.28960100  0.57577900  0.35277944  1.0
  Hf  Hf551  1  0.28960100  0.90911233  0.35277944  1.0
  Hf  Hf552  1  0.62293433  0.24244567  0.35277944  1.0
  Hf  Hf553  1  0.62293433  0.57577900  0.35277944  1.0
  Hf  Hf554  1  0.62293433  0.90911233  0.35277944  1.0
  Hf  Hf555  1  0.95626767  0.24244567  0.35277944  1.0
  Hf  Hf556  1  0.95626767  0.57577900  0.35277944  1.0
  Hf  Hf557  1  0.95626767  0.90911233  0.35277944  1.0
  Hf  Hf558  1  0.07398033  0.15176833  0.38907933  1.0
  Hf  Hf559  1  0.07398033  0.48510167  0.38907933  1.0
  Hf  Hf560  1  0.07398033  0.81843500  0.38907933  1.0
  Hf  Hf561  1  0.40731367  0.15176833  0.38907933  1.0
  Hf  Hf562  1  0.40731367  0.48510167  0.38907933  1.0
  Hf  Hf563  1  0.40731367  0.81843500  0.38907933  1.0
  Hf  Hf564  1  0.74064700  0.15176833  0.38907933  1.0
  Hf  Hf565  1  0.74064700  0.48510167  0.38907933  1.0
  Hf  Hf566  1  0.74064700  0.81843500  0.38907933  1.0
  Hf  Hf567  1  0.25935300  0.18156500  0.37698622  1.0
  Hf  Hf568  1  0.25935300  0.51489833  0.37698622  1.0
  Hf  Hf569  1  0.25935300  0.84823167  0.37698622  1.0
  Hf  Hf570  1  0.59268633  0.18156500  0.37698622  1.0
  Hf  Hf571  1  0.59268633  0.51489833  0.37698622  1.0
  Hf  Hf572  1  0.59268633  0.84823167  0.37698622  1.0
  Hf  Hf573  1  0.92601967  0.18156500  0.37698622  1.0
  Hf  Hf574  1  0.92601967  0.51489833  0.37698622  1.0
  Hf  Hf575  1  0.92601967  0.84823167  0.37698622  1.0
  Hf  Hf576  1  0.12509900  0.00855733  0.34785678  1.0
  Hf  Hf577  1  0.12509900  0.34189067  0.34785678  1.0
  Hf  Hf578  1  0.12509900  0.67522400  0.34785678  1.0
  Hf  Hf579  1  0.45843233  0.00855733  0.34785678  1.0
  Hf  Hf580  1  0.45843233  0.34189067  0.34785678  1.0
  Hf  Hf581  1  0.45843233  0.67522400  0.34785678  1.0
  Hf  Hf582  1  0.79176567  0.00855733  0.34785678  1.0
  Hf  Hf583  1  0.79176567  0.34189067  0.34785678  1.0
  Hf  Hf584  1  0.79176567  0.67522400  0.34785678  1.0
  Hf  Hf585  1  0.20823433  0.32477600  0.41820878  1.0
  Hf  Hf586  1  0.20823433  0.65810933  0.41820878  1.0
  Hf  Hf587  1  0.20823433  0.99144267  0.41820878  1.0
  Hf  Hf588  1  0.54156767  0.32477600  0.41820878  1.0
  Hf  Hf589  1  0.54156767  0.65810933  0.41820878  1.0
  Hf  Hf590  1  0.54156767  0.99144267  0.41820878  1.0
  Hf  Hf591  1  0.87490100  0.32477600  0.41820878  1.0
  Hf  Hf592  1  0.87490100  0.65810933  0.41820878  1.0
  Hf  Hf593  1  0.87490100  0.99144267  0.41820878  1.0
  Ni  Ni594  1  0.16666667  0.16666667  0.43858833  1.0
  Ni  Ni595  1  0.16666667  0.50000000  0.43858833  1.0
  Ni  Ni596  1  0.16666667  0.83333333  0.43858833  1.0
  Ni  Ni597  1  0.50000000  0.16666667  0.43858833  1.0
  Ni  Ni598  1  0.50000000  0.50000000  0.43858833  1.0
  Ni  Ni599  1  0.50000000  0.83333333  0.43858833  1.0
  Ni  Ni600  1  0.83333333  0.16666667  0.43858833  1.0
  Ni  Ni601  1  0.83333333  0.50000000  0.43858833  1.0
  Ni  Ni602  1  0.83333333  0.83333333  0.43858833  1.0
  Ni  Ni603  1  0.00000000  0.00000000  0.43858833  1.0
  Ni  Ni604  1  0.00000000  0.33333333  0.43858833  1.0
  Ni  Ni605  1  0.00000000  0.66666667  0.43858833  1.0
  Ni  Ni606  1  0.33333333  0.00000000  0.43858833  1.0
  Ni  Ni607  1  0.33333333  0.33333333  0.43858833  1.0
  Ni  Ni608  1  0.33333333  0.66666667  0.43858833  1.0
  Ni  Ni609  1  0.66666667  0.00000000  0.43858833  1.0
  Ni  Ni610  1  0.66666667  0.33333333  0.43858833  1.0
  Ni  Ni611  1  0.66666667  0.66666667  0.43858833  1.0
  Ni  Ni612  1  0.26164833  0.31222733  0.34586111  1.0
  Ni  Ni613  1  0.26164833  0.64556067  0.34586111  1.0
  Ni  Ni614  1  0.26164833  0.97889400  0.34586111  1.0
  Ni  Ni615  1  0.59498167  0.31222733  0.34586111  1.0
  Ni  Ni616  1  0.59498167  0.64556067  0.34586111  1.0
  Ni  Ni617  1  0.59498167  0.97889400  0.34586111  1.0
  Ni  Ni618  1  0.92831500  0.31222733  0.34586111  1.0
  Ni  Ni619  1  0.92831500  0.64556067  0.34586111  1.0
  Ni  Ni620  1  0.92831500  0.97889400  0.34586111  1.0
  Ni  Ni621  1  0.07168500  0.02110600  0.42020444  1.0
  Ni  Ni622  1  0.07168500  0.35443933  0.42020444  1.0
  Ni  Ni623  1  0.07168500  0.68777267  0.42020444  1.0
  Ni  Ni624  1  0.40501833  0.02110600  0.42020444  1.0
  Ni  Ni625  1  0.40501833  0.35443933  0.42020444  1.0
  Ni  Ni626  1  0.40501833  0.68777267  0.42020444  1.0
  Ni  Ni627  1  0.73835167  0.02110600  0.42020444  1.0
  Ni  Ni628  1  0.73835167  0.35443933  0.42020444  1.0
  Ni  Ni629  1  0.73835167  0.68777267  0.42020444  1.0
  Ni  Ni630  1  0.18108633  0.27466333  0.35042333  1.0
  Ni  Ni631  1  0.18108633  0.60799667  0.35042333  1.0
  Ni  Ni632  1  0.18108633  0.94133000  0.35042333  1.0
  Ni  Ni633  1  0.51441967  0.27466333  0.35042333  1.0
  Ni  Ni634  1  0.51441967  0.60799667  0.35042333  1.0
  Ni  Ni635  1  0.51441967  0.94133000  0.35042333  1.0
  Ni  Ni636  1  0.84775300  0.27466333  0.35042333  1.0
  Ni  Ni637  1  0.84775300  0.60799667  0.35042333  1.0
  Ni  Ni638  1  0.84775300  0.94133000  0.35042333  1.0
  Ni  Ni639  1  0.15224700  0.05867000  0.41564222  1.0
  Ni  Ni640  1  0.15224700  0.39200333  0.41564222  1.0
  Ni  Ni641  1  0.15224700  0.72533667  0.41564222  1.0
  Ni  Ni642  1  0.48558033  0.05867000  0.41564222  1.0
  Ni  Ni643  1  0.48558033  0.39200333  0.41564222  1.0
  Ni  Ni644  1  0.48558033  0.72533667  0.41564222  1.0
  Ni  Ni645  1  0.81891367  0.05867000  0.41564222  1.0
  Ni  Ni646  1  0.81891367  0.39200333  0.41564222  1.0
  Ni  Ni647  1  0.81891367  0.72533667  0.41564222  1.0
  Ni  Ni648  1  0.08839733  0.23331000  0.35576667  1.0
  Ni  Ni649  1  0.08839733  0.56664333  0.35576667  1.0
  Ni  Ni650  1  0.08839733  0.89997667  0.35576667  1.0
  Ni  Ni651  1  0.42173067  0.23331000  0.35576667  1.0
  Ni  Ni652  1  0.42173067  0.56664333  0.35576667  1.0
  Ni  Ni653  1  0.42173067  0.89997667  0.35576667  1.0
  Ni  Ni654  1  0.75506400  0.23331000  0.35576667  1.0
  Ni  Ni655  1  0.75506400  0.56664333  0.35576667  1.0
  Ni  Ni656  1  0.75506400  0.89997667  0.35576667  1.0
  Ni  Ni657  1  0.24493600  0.10002333  0.41029889  1.0
  Ni  Ni658  1  0.24493600  0.43335667  0.41029889  1.0
  Ni  Ni659  1  0.24493600  0.76669000  0.41029889  1.0
  Ni  Ni660  1  0.57826933  0.10002333  0.41029889  1.0
  Ni  Ni661  1  0.57826933  0.43335667  0.41029889  1.0
  Ni  Ni662  1  0.57826933  0.76669000  0.41029889  1.0
  Ni  Ni663  1  0.91160267  0.10002333  0.41029889  1.0
  Ni  Ni664  1  0.91160267  0.43335667  0.41029889  1.0
  Ni  Ni665  1  0.91160267  0.76669000  0.41029889  1.0
  Ni  Ni666  1  0.03132067  0.21354467  0.37857467  1.0
  Ni  Ni667  1  0.03132067  0.54687800  0.37857467  1.0
  Ni  Ni668  1  0.03132067  0.88021133  0.37857467  1.0
  Ni  Ni669  1  0.36465400  0.21354467  0.37857467  1.0
  Ni  Ni670  1  0.36465400  0.54687800  0.37857467  1.0
  Ni  Ni671  1  0.36465400  0.88021133  0.37857467  1.0
  Ni  Ni672  1  0.69798733  0.21354467  0.37857467  1.0
  Ni  Ni673  1  0.69798733  0.54687800  0.37857467  1.0
  Ni  Ni674  1  0.69798733  0.88021133  0.37857467  1.0
  Ni  Ni675  1  0.30201267  0.11978867  0.38749089  1.0
  Ni  Ni676  1  0.30201267  0.45312200  0.38749089  1.0
  Ni  Ni677  1  0.30201267  0.78645533  0.38749089  1.0
  Ni  Ni678  1  0.63534600  0.11978867  0.38749089  1.0
  Ni  Ni679  1  0.63534600  0.45312200  0.38749089  1.0
  Ni  Ni680  1  0.63534600  0.78645533  0.38749089  1.0
  Ni  Ni681  1  0.96867933  0.11978867  0.38749089  1.0
  Ni  Ni682  1  0.96867933  0.45312200  0.38749089  1.0
  Ni  Ni683  1  0.96867933  0.78645533  0.38749089  1.0
  Ni  Ni684  1  0.14685167  0.20547600  0.38414678  1.0
  Ni  Ni685  1  0.14685167  0.53880933  0.38414678  1.0
  Ni  Ni686  1  0.14685167  0.87214267  0.38414678  1.0
  Ni  Ni687  1  0.48018500  0.20547600  0.38414678  1.0
  Ni  Ni688  1  0.48018500  0.53880933  0.38414678  1.0
  Ni  Ni689  1  0.48018500  0.87214267  0.38414678  1.0
  Ni  Ni690  1  0.81351833  0.20547600  0.38414678  1.0
  Ni  Ni691  1  0.81351833  0.53880933  0.38414678  1.0
  Ni  Ni692  1  0.81351833  0.87214267  0.38414678  1.0
  Ni  Ni693  1  0.18648167  0.12785733  0.38191878  1.0
  Ni  Ni694  1  0.18648167  0.46119067  0.38191878  1.0
  Ni  Ni695  1  0.18648167  0.79452400  0.38191878  1.0
  Ni  Ni696  1  0.51981500  0.12785733  0.38191878  1.0
  Ni  Ni697  1  0.51981500  0.46119067  0.38191878  1.0
  Ni  Ni698  1  0.51981500  0.79452400  0.38191878  1.0
  Ni  Ni699  1  0.85314833  0.12785733  0.38191878  1.0
  Ni  Ni700  1  0.85314833  0.46119067  0.38191878  1.0
  Ni  Ni701  1  0.85314833  0.79452400  0.38191878  1.0
  Ni  Ni702  1  0.29751433  0.05763433  0.42687611  1.0
  Ni  Ni703  1  0.29751433  0.39096767  0.42687611  1.0
  Ni  Ni704  1  0.29751433  0.72430100  0.42687611  1.0
  Ni  Ni705  1  0.63084767  0.05763433  0.42687611  1.0
  Ni  Ni706  1  0.63084767  0.39096767  0.42687611  1.0
  Ni  Ni707  1  0.63084767  0.72430100  0.42687611  1.0
  Ni  Ni708  1  0.96418100  0.05763433  0.42687611  1.0
  Ni  Ni709  1  0.96418100  0.39096767  0.42687611  1.0
  Ni  Ni710  1  0.96418100  0.72430100  0.42687611  1.0
  Ni  Ni711  1  0.03581900  0.27569900  0.33918944  1.0
  Ni  Ni712  1  0.03581900  0.60903233  0.33918944  1.0
  Ni  Ni713  1  0.03581900  0.94236567  0.33918944  1.0
  Ni  Ni714  1  0.36915233  0.27569900  0.33918944  1.0
  Ni  Ni715  1  0.36915233  0.60903233  0.33918944  1.0
  Ni  Ni716  1  0.36915233  0.94236567  0.33918944  1.0
  Ni  Ni717  1  0.70248567  0.27569900  0.33918944  1.0
  Ni  Ni718  1  0.70248567  0.60903233  0.33918944  1.0
  Ni  Ni719  1  0.70248567  0.94236567  0.33918944  1.0
