# generated using pymatgen
data_Hf7Ni10
_symmetry_space_group_name_H-M   'P 1'
_cell_length_a   27.21283199
_cell_length_b   53.27276122
_cell_length_c   45.50845500
_cell_angle_alpha   120.83398308
_cell_angle_beta   90.00000000
_cell_angle_gamma   59.28148485
_symmetry_Int_Tables_number   1
_chemical_formula_structural   Hf7Ni10
_chemical_formula_sum   'Hf504 Ni720'
_cell_volume   45533.93684753
_cell_formula_units_Z   72
loop_
 _symmetry_equiv_pos_site_id
 _symmetry_equiv_pos_as_xyz
  1  'x, y, z'
loop_
 _atom_site_type_symbol
 _atom_site_label
 _atom_site_symmetry_multiplicity
 _atom_site_fract_x
 _atom_site_fract_y
 _atom_site_fract_z
 _atom_site_occupancy
  Hf  Hf0  1  0.10209400  0.23123933  0.13235540  1.0
  Hf  Hf1  1  0.10209400  0.56457267  0.13235540  1.0
  Hf  Hf2  1  0.10209400  0.89790600  0.13235540  1.0
  Hf  Hf3  1  0.43542733  0.23123933  0.13235540  1.0
  Hf  Hf4  1  0.43542733  0.56457267  0.13235540  1.0
  Hf  Hf5  1  0.43542733  0.89790600  0.13235540  1.0
  Hf  Hf6  1  0.76876067  0.23123933  0.13235540  1.0
  Hf  Hf7  1  0.76876067  0.56457267  0.13235540  1.0
  Hf  Hf8  1  0.76876067  0.89790600  0.13235540  1.0
  Hf  Hf9  1  0.10209400  0.06457267  0.03235540  1.0
  Hf  Hf10  1  0.10209400  0.39790600  0.03235540  1.0
  Hf  Hf11  1  0.10209400  0.73123933  0.03235540  1.0
  Hf  Hf12  1  0.43542733  0.06457267  0.03235540  1.0
  Hf  Hf13  1  0.43542733  0.39790600  0.03235540  1.0
  Hf  Hf14  1  0.43542733  0.73123933  0.03235540  1.0
  Hf  Hf15  1  0.76876067  0.06457267  0.03235540  1.0
  Hf  Hf16  1  0.76876067  0.39790600  0.03235540  1.0
  Hf  Hf17  1  0.76876067  0.73123933  0.03235540  1.0
  Hf  Hf18  1  0.23123933  0.10209400  0.05486820  1.0
  Hf  Hf19  1  0.23123933  0.43542733  0.05486820  1.0
  Hf  Hf20  1  0.23123933  0.76876067  0.05486820  1.0
  Hf  Hf21  1  0.56457267  0.10209400  0.05486820  1.0
  Hf  Hf22  1  0.56457267  0.43542733  0.05486820  1.0
  Hf  Hf23  1  0.56457267  0.76876067  0.05486820  1.0
  Hf  Hf24  1  0.89790600  0.10209400  0.05486820  1.0
  Hf  Hf25  1  0.89790600  0.43542733  0.05486820  1.0
  Hf  Hf26  1  0.89790600  0.76876067  0.05486820  1.0
  Hf  Hf27  1  0.23123933  0.26876067  0.15486820  1.0
  Hf  Hf28  1  0.23123933  0.60209400  0.15486820  1.0
  Hf  Hf29  1  0.23123933  0.93542733  0.15486820  1.0
  Hf  Hf30  1  0.56457267  0.26876067  0.15486820  1.0
  Hf  Hf31  1  0.56457267  0.60209400  0.15486820  1.0
  Hf  Hf32  1  0.56457267  0.93542733  0.15486820  1.0
  Hf  Hf33  1  0.89790600  0.26876067  0.15486820  1.0
  Hf  Hf34  1  0.89790600  0.60209400  0.15486820  1.0
  Hf  Hf35  1  0.89790600  0.93542733  0.15486820  1.0
  Hf  Hf36  1  0.06457267  0.26876067  0.05486820  1.0
  Hf  Hf37  1  0.06457267  0.60209400  0.05486820  1.0
  Hf  Hf38  1  0.06457267  0.93542733  0.05486820  1.0
  Hf  Hf39  1  0.39790600  0.26876067  0.05486820  1.0
  Hf  Hf40  1  0.39790600  0.60209400  0.05486820  1.0
  Hf  Hf41  1  0.39790600  0.93542733  0.05486820  1.0
  Hf  Hf42  1  0.73123933  0.26876067  0.05486820  1.0
  Hf  Hf43  1  0.73123933  0.60209400  0.05486820  1.0
  Hf  Hf44  1  0.73123933  0.93542733  0.05486820  1.0
  Hf  Hf45  1  0.06457267  0.10209400  0.15486820  1.0
  Hf  Hf46  1  0.06457267  0.43542733  0.15486820  1.0
  Hf  Hf47  1  0.06457267  0.76876067  0.15486820  1.0
  Hf  Hf48  1  0.39790600  0.10209400  0.15486820  1.0
  Hf  Hf49  1  0.39790600  0.43542733  0.15486820  1.0
  Hf  Hf50  1  0.39790600  0.76876067  0.15486820  1.0
  Hf  Hf51  1  0.73123933  0.10209400  0.15486820  1.0
  Hf  Hf52  1  0.73123933  0.43542733  0.15486820  1.0
  Hf  Hf53  1  0.73123933  0.76876067  0.15486820  1.0
  Hf  Hf54  1  0.26876067  0.06457267  0.13235540  1.0
  Hf  Hf55  1  0.26876067  0.39790600  0.13235540  1.0
  Hf  Hf56  1  0.26876067  0.73123933  0.13235540  1.0
  Hf  Hf57  1  0.60209400  0.06457267  0.13235540  1.0
  Hf  Hf58  1  0.60209400  0.39790600  0.13235540  1.0
  Hf  Hf59  1  0.60209400  0.73123933  0.13235540  1.0
  Hf  Hf60  1  0.93542733  0.06457267  0.13235540  1.0
  Hf  Hf61  1  0.93542733  0.39790600  0.13235540  1.0
  Hf  Hf62  1  0.93542733  0.73123933  0.13235540  1.0
  Hf  Hf63  1  0.26876067  0.23123933  0.03235540  1.0
  Hf  Hf64  1  0.26876067  0.56457267  0.03235540  1.0
  Hf  Hf65  1  0.26876067  0.89790600  0.03235540  1.0
  Hf  Hf66  1  0.60209400  0.23123933  0.03235540  1.0
  Hf  Hf67  1  0.60209400  0.56457267  0.03235540  1.0
  Hf  Hf68  1  0.60209400  0.89790600  0.03235540  1.0
  Hf  Hf69  1  0.93542733  0.23123933  0.03235540  1.0
  Hf  Hf70  1  0.93542733  0.56457267  0.03235540  1.0
  Hf  Hf71  1  0.93542733  0.89790600  0.03235540  1.0
  Hf  Hf72  1  0.00000000  0.16666667  0.09361180  1.0
  Hf  Hf73  1  0.00000000  0.50000000  0.09361180  1.0
  Hf  Hf74  1  0.00000000  0.83333333  0.09361180  1.0
  Hf  Hf75  1  0.33333333  0.16666667  0.09361180  1.0
  Hf  Hf76  1  0.33333333  0.50000000  0.09361180  1.0
  Hf  Hf77  1  0.33333333  0.83333333  0.09361180  1.0
  Hf  Hf78  1  0.66666667  0.16666667  0.09361180  1.0
  Hf  Hf79  1  0.66666667  0.50000000  0.09361180  1.0
  Hf  Hf80  1  0.66666667  0.83333333  0.09361180  1.0
  Hf  Hf81  1  0.00000000  0.00000000  0.19361180  1.0
  Hf  Hf82  1  0.00000000  0.33333333  0.19361180  1.0
  Hf  Hf83  1  0.00000000  0.66666667  0.19361180  1.0
  Hf  Hf84  1  0.33333333  0.00000000  0.19361180  1.0
  Hf  Hf85  1  0.33333333  0.33333333  0.19361180  1.0
  Hf  Hf86  1  0.33333333  0.66666667  0.19361180  1.0
  Hf  Hf87  1  0.66666667  0.00000000  0.19361180  1.0
  Hf  Hf88  1  0.66666667  0.33333333  0.19361180  1.0
  Hf  Hf89  1  0.66666667  0.66666667  0.19361180  1.0
  Hf  Hf90  1  0.16666667  0.16666667  0.19361180  1.0
  Hf  Hf91  1  0.16666667  0.50000000  0.19361180  1.0
  Hf  Hf92  1  0.16666667  0.83333333  0.19361180  1.0
  Hf  Hf93  1  0.50000000  0.16666667  0.19361180  1.0
  Hf  Hf94  1  0.50000000  0.50000000  0.19361180  1.0
  Hf  Hf95  1  0.50000000  0.83333333  0.19361180  1.0
  Hf  Hf96  1  0.83333333  0.16666667  0.19361180  1.0
  Hf  Hf97  1  0.83333333  0.50000000  0.19361180  1.0
  Hf  Hf98  1  0.83333333  0.83333333  0.19361180  1.0
  Hf  Hf99  1  0.16666667  0.00000000  0.09361180  1.0
  Hf  Hf100  1  0.16666667  0.33333333  0.09361180  1.0
  Hf  Hf101  1  0.16666667  0.66666667  0.09361180  1.0
  Hf  Hf102  1  0.50000000  0.00000000  0.09361180  1.0
  Hf  Hf103  1  0.50000000  0.33333333  0.09361180  1.0
  Hf  Hf104  1  0.50000000  0.66666667  0.09361180  1.0
  Hf  Hf105  1  0.83333333  0.00000000  0.09361180  1.0
  Hf  Hf106  1  0.83333333  0.33333333  0.09361180  1.0
  Hf  Hf107  1  0.83333333  0.66666667  0.09361180  1.0
  Hf  Hf108  1  0.33164533  0.08333333  0.19361180  1.0
  Hf  Hf109  1  0.33164533  0.41666667  0.19361180  1.0
  Hf  Hf110  1  0.33164533  0.75000000  0.19361180  1.0
  Hf  Hf111  1  0.66497867  0.08333333  0.19361180  1.0
  Hf  Hf112  1  0.66497867  0.41666667  0.19361180  1.0
  Hf  Hf113  1  0.66497867  0.75000000  0.19361180  1.0
  Hf  Hf114  1  0.99831200  0.08333333  0.19361180  1.0
  Hf  Hf115  1  0.99831200  0.41666667  0.19361180  1.0
  Hf  Hf116  1  0.99831200  0.75000000  0.19361180  1.0
  Hf  Hf117  1  0.33164533  0.25000000  0.09361180  1.0
  Hf  Hf118  1  0.33164533  0.58333333  0.09361180  1.0
  Hf  Hf119  1  0.33164533  0.91666667  0.09361180  1.0
  Hf  Hf120  1  0.66497867  0.25000000  0.09361180  1.0
  Hf  Hf121  1  0.66497867  0.58333333  0.09361180  1.0
  Hf  Hf122  1  0.66497867  0.91666667  0.09361180  1.0
  Hf  Hf123  1  0.99831200  0.25000000  0.09361180  1.0
  Hf  Hf124  1  0.99831200  0.58333333  0.09361180  1.0
  Hf  Hf125  1  0.99831200  0.91666667  0.09361180  1.0
  Hf  Hf126  1  0.00168800  0.25000000  0.19361180  1.0
  Hf  Hf127  1  0.00168800  0.58333333  0.19361180  1.0
  Hf  Hf128  1  0.00168800  0.91666667  0.19361180  1.0
  Hf  Hf129  1  0.33502133  0.25000000  0.19361180  1.0
  Hf  Hf130  1  0.33502133  0.58333333  0.19361180  1.0
  Hf  Hf131  1  0.33502133  0.91666667  0.19361180  1.0
  Hf  Hf132  1  0.66835467  0.25000000  0.19361180  1.0
  Hf  Hf133  1  0.66835467  0.58333333  0.19361180  1.0
  Hf  Hf134  1  0.66835467  0.91666667  0.19361180  1.0
  Hf  Hf135  1  0.00168800  0.08333333  0.09361180  1.0
  Hf  Hf136  1  0.00168800  0.41666667  0.09361180  1.0
  Hf  Hf137  1  0.00168800  0.75000000  0.09361180  1.0
  Hf  Hf138  1  0.33502133  0.08333333  0.09361180  1.0
  Hf  Hf139  1  0.33502133  0.41666667  0.09361180  1.0
  Hf  Hf140  1  0.33502133  0.75000000  0.09361180  1.0
  Hf  Hf141  1  0.66835467  0.08333333  0.09361180  1.0
  Hf  Hf142  1  0.66835467  0.41666667  0.09361180  1.0
  Hf  Hf143  1  0.66835467  0.75000000  0.09361180  1.0
  Hf  Hf144  1  0.16835467  0.08333333  0.09361180  1.0
  Hf  Hf145  1  0.16835467  0.41666667  0.09361180  1.0
  Hf  Hf146  1  0.16835467  0.75000000  0.09361180  1.0
  Hf  Hf147  1  0.50168800  0.08333333  0.09361180  1.0
  Hf  Hf148  1  0.50168800  0.41666667  0.09361180  1.0
  Hf  Hf149  1  0.50168800  0.75000000  0.09361180  1.0
  Hf  Hf150  1  0.83502133  0.08333333  0.09361180  1.0
  Hf  Hf151  1  0.83502133  0.41666667  0.09361180  1.0
  Hf  Hf152  1  0.83502133  0.75000000  0.09361180  1.0
  Hf  Hf153  1  0.16835467  0.25000000  0.19361180  1.0
  Hf  Hf154  1  0.16835467  0.58333333  0.19361180  1.0
  Hf  Hf155  1  0.16835467  0.91666667  0.19361180  1.0
  Hf  Hf156  1  0.50168800  0.25000000  0.19361180  1.0
  Hf  Hf157  1  0.50168800  0.58333333  0.19361180  1.0
  Hf  Hf158  1  0.50168800  0.91666667  0.19361180  1.0
  Hf  Hf159  1  0.83502133  0.25000000  0.19361180  1.0
  Hf  Hf160  1  0.83502133  0.58333333  0.19361180  1.0
  Hf  Hf161  1  0.83502133  0.91666667  0.19361180  1.0
  Hf  Hf162  1  0.16497867  0.25000000  0.09361180  1.0
  Hf  Hf163  1  0.16497867  0.58333333  0.09361180  1.0
  Hf  Hf164  1  0.16497867  0.91666667  0.09361180  1.0
  Hf  Hf165  1  0.49831200  0.25000000  0.09361180  1.0
  Hf  Hf166  1  0.49831200  0.58333333  0.09361180  1.0
  Hf  Hf167  1  0.49831200  0.91666667  0.09361180  1.0
  Hf  Hf168  1  0.83164533  0.25000000  0.09361180  1.0
  Hf  Hf169  1  0.83164533  0.58333333  0.09361180  1.0
  Hf  Hf170  1  0.83164533  0.91666667  0.09361180  1.0
  Hf  Hf171  1  0.16497867  0.08333333  0.19361180  1.0
  Hf  Hf172  1  0.16497867  0.41666667  0.19361180  1.0
  Hf  Hf173  1  0.16497867  0.75000000  0.19361180  1.0
  Hf  Hf174  1  0.49831200  0.08333333  0.19361180  1.0
  Hf  Hf175  1  0.49831200  0.41666667  0.19361180  1.0
  Hf  Hf176  1  0.49831200  0.75000000  0.19361180  1.0
  Hf  Hf177  1  0.83164533  0.08333333  0.19361180  1.0
  Hf  Hf178  1  0.83164533  0.41666667  0.19361180  1.0
  Hf  Hf179  1  0.83164533  0.75000000  0.19361180  1.0
  Hf  Hf180  1  0.22894833  0.16666667  0.05610040  1.0
  Hf  Hf181  1  0.22894833  0.50000000  0.05610040  1.0
  Hf  Hf182  1  0.22894833  0.83333333  0.05610040  1.0
  Hf  Hf183  1  0.56228167  0.16666667  0.05610040  1.0
  Hf  Hf184  1  0.56228167  0.50000000  0.05610040  1.0
  Hf  Hf185  1  0.56228167  0.83333333  0.05610040  1.0
  Hf  Hf186  1  0.89561500  0.16666667  0.05610040  1.0
  Hf  Hf187  1  0.89561500  0.50000000  0.05610040  1.0
  Hf  Hf188  1  0.89561500  0.83333333  0.05610040  1.0
  Hf  Hf189  1  0.22894833  0.00000000  0.15610040  1.0
  Hf  Hf190  1  0.22894833  0.33333333  0.15610040  1.0
  Hf  Hf191  1  0.22894833  0.66666667  0.15610040  1.0
  Hf  Hf192  1  0.56228167  0.00000000  0.15610040  1.0
  Hf  Hf193  1  0.56228167  0.33333333  0.15610040  1.0
  Hf  Hf194  1  0.56228167  0.66666667  0.15610040  1.0
  Hf  Hf195  1  0.89561500  0.00000000  0.15610040  1.0
  Hf  Hf196  1  0.89561500  0.33333333  0.15610040  1.0
  Hf  Hf197  1  0.89561500  0.66666667  0.15610040  1.0
  Hf  Hf198  1  0.10438500  0.16666667  0.13112320  1.0
  Hf  Hf199  1  0.10438500  0.50000000  0.13112320  1.0
  Hf  Hf200  1  0.10438500  0.83333333  0.13112320  1.0
  Hf  Hf201  1  0.43771833  0.16666667  0.13112320  1.0
  Hf  Hf202  1  0.43771833  0.50000000  0.13112320  1.0
  Hf  Hf203  1  0.43771833  0.83333333  0.13112320  1.0
  Hf  Hf204  1  0.77105167  0.16666667  0.13112320  1.0
  Hf  Hf205  1  0.77105167  0.50000000  0.13112320  1.0
  Hf  Hf206  1  0.77105167  0.83333333  0.13112320  1.0
  Hf  Hf207  1  0.10438500  0.00000000  0.03112320  1.0
  Hf  Hf208  1  0.10438500  0.33333333  0.03112320  1.0
  Hf  Hf209  1  0.10438500  0.66666667  0.03112320  1.0
  Hf  Hf210  1  0.43771833  0.00000000  0.03112320  1.0
  Hf  Hf211  1  0.43771833  0.33333333  0.03112320  1.0
  Hf  Hf212  1  0.43771833  0.66666667  0.03112320  1.0
  Hf  Hf213  1  0.77105167  0.00000000  0.03112320  1.0
  Hf  Hf214  1  0.77105167  0.33333333  0.03112320  1.0
  Hf  Hf215  1  0.77105167  0.66666667  0.03112320  1.0
  Hf  Hf216  1  0.27105167  0.16666667  0.15610040  1.0
  Hf  Hf217  1  0.27105167  0.50000000  0.15610040  1.0
  Hf  Hf218  1  0.27105167  0.83333333  0.15610040  1.0
  Hf  Hf219  1  0.60438500  0.16666667  0.15610040  1.0
  Hf  Hf220  1  0.60438500  0.50000000  0.15610040  1.0
  Hf  Hf221  1  0.60438500  0.83333333  0.15610040  1.0
  Hf  Hf222  1  0.93771833  0.16666667  0.15610040  1.0
  Hf  Hf223  1  0.93771833  0.50000000  0.15610040  1.0
  Hf  Hf224  1  0.93771833  0.83333333  0.15610040  1.0
  Hf  Hf225  1  0.27105167  0.00000000  0.05610040  1.0
  Hf  Hf226  1  0.27105167  0.33333333  0.05610040  1.0
  Hf  Hf227  1  0.27105167  0.66666667  0.05610040  1.0
  Hf  Hf228  1  0.60438500  0.00000000  0.05610040  1.0
  Hf  Hf229  1  0.60438500  0.33333333  0.05610040  1.0
  Hf  Hf230  1  0.60438500  0.66666667  0.05610040  1.0
  Hf  Hf231  1  0.93771833  0.00000000  0.05610040  1.0
  Hf  Hf232  1  0.93771833  0.33333333  0.05610040  1.0
  Hf  Hf233  1  0.93771833  0.66666667  0.05610040  1.0
  Hf  Hf234  1  0.06228167  0.16666667  0.03112320  1.0
  Hf  Hf235  1  0.06228167  0.50000000  0.03112320  1.0
  Hf  Hf236  1  0.06228167  0.83333333  0.03112320  1.0
  Hf  Hf237  1  0.39561500  0.16666667  0.03112320  1.0
  Hf  Hf238  1  0.39561500  0.50000000  0.03112320  1.0
  Hf  Hf239  1  0.39561500  0.83333333  0.03112320  1.0
  Hf  Hf240  1  0.72894833  0.16666667  0.03112320  1.0
  Hf  Hf241  1  0.72894833  0.50000000  0.03112320  1.0
  Hf  Hf242  1  0.72894833  0.83333333  0.03112320  1.0
  Hf  Hf243  1  0.06228167  0.00000000  0.13112320  1.0
  Hf  Hf244  1  0.06228167  0.33333333  0.13112320  1.0
  Hf  Hf245  1  0.06228167  0.66666667  0.13112320  1.0
  Hf  Hf246  1  0.39561500  0.00000000  0.13112320  1.0
  Hf  Hf247  1  0.39561500  0.33333333  0.13112320  1.0
  Hf  Hf248  1  0.39561500  0.66666667  0.13112320  1.0
  Hf  Hf249  1  0.72894833  0.00000000  0.13112320  1.0
  Hf  Hf250  1  0.72894833  0.33333333  0.13112320  1.0
  Hf  Hf251  1  0.72894833  0.66666667  0.13112320  1.0
  Ni  Ni252  1  0.04462900  0.28519500  0.12306940  1.0
  Ni  Ni253  1  0.04462900  0.61852833  0.12306940  1.0
  Ni  Ni254  1  0.04462900  0.95186167  0.12306940  1.0
  Ni  Ni255  1  0.37796233  0.28519500  0.12306940  1.0
  Ni  Ni256  1  0.37796233  0.61852833  0.12306940  1.0
  Ni  Ni257  1  0.37796233  0.95186167  0.12306940  1.0
  Ni  Ni258  1  0.71129567  0.28519500  0.12306940  1.0
  Ni  Ni259  1  0.71129567  0.61852833  0.12306940  1.0
  Ni  Ni260  1  0.71129567  0.95186167  0.12306940  1.0
  Ni  Ni261  1  0.04462900  0.11852833  0.02306940  1.0
  Ni  Ni262  1  0.04462900  0.45186167  0.02306940  1.0
  Ni  Ni263  1  0.04462900  0.78519500  0.02306940  1.0
  Ni  Ni264  1  0.37796233  0.11852833  0.02306940  1.0
  Ni  Ni265  1  0.37796233  0.45186167  0.02306940  1.0
  Ni  Ni266  1  0.37796233  0.78519500  0.02306940  1.0
  Ni  Ni267  1  0.71129567  0.11852833  0.02306940  1.0
  Ni  Ni268  1  0.71129567  0.45186167  0.02306940  1.0
  Ni  Ni269  1  0.71129567  0.78519500  0.02306940  1.0
  Ni  Ni270  1  0.28870433  0.04813833  0.06415420  1.0
  Ni  Ni271  1  0.28870433  0.38147167  0.06415420  1.0
  Ni  Ni272  1  0.28870433  0.71480500  0.06415420  1.0
  Ni  Ni273  1  0.62203767  0.04813833  0.06415420  1.0
  Ni  Ni274  1  0.62203767  0.38147167  0.06415420  1.0
  Ni  Ni275  1  0.62203767  0.71480500  0.06415420  1.0
  Ni  Ni276  1  0.95537100  0.04813833  0.06415420  1.0
  Ni  Ni277  1  0.95537100  0.38147167  0.06415420  1.0
  Ni  Ni278  1  0.95537100  0.71480500  0.06415420  1.0
  Ni  Ni279  1  0.28870433  0.21480500  0.16415420  1.0
  Ni  Ni280  1  0.28870433  0.54813833  0.16415420  1.0
  Ni  Ni281  1  0.28870433  0.88147167  0.16415420  1.0
  Ni  Ni282  1  0.62203767  0.21480500  0.16415420  1.0
  Ni  Ni283  1  0.62203767  0.54813833  0.16415420  1.0
  Ni  Ni284  1  0.62203767  0.88147167  0.16415420  1.0
  Ni  Ni285  1  0.95537100  0.21480500  0.16415420  1.0
  Ni  Ni286  1  0.95537100  0.54813833  0.16415420  1.0
  Ni  Ni287  1  0.95537100  0.88147167  0.16415420  1.0
  Ni  Ni288  1  0.12203767  0.21480500  0.18083540  1.0
  Ni  Ni289  1  0.12203767  0.54813833  0.18083540  1.0
  Ni  Ni290  1  0.12203767  0.88147167  0.18083540  1.0
  Ni  Ni291  1  0.45537100  0.21480500  0.18083540  1.0
  Ni  Ni292  1  0.45537100  0.54813833  0.18083540  1.0
  Ni  Ni293  1  0.45537100  0.88147167  0.18083540  1.0
  Ni  Ni294  1  0.78870433  0.21480500  0.18083540  1.0
  Ni  Ni295  1  0.78870433  0.54813833  0.18083540  1.0
  Ni  Ni296  1  0.78870433  0.88147167  0.18083540  1.0
  Ni  Ni297  1  0.12203767  0.04813833  0.08083540  1.0
  Ni  Ni298  1  0.12203767  0.38147167  0.08083540  1.0
  Ni  Ni299  1  0.12203767  0.71480500  0.08083540  1.0
  Ni  Ni300  1  0.45537100  0.04813833  0.08083540  1.0
  Ni  Ni301  1  0.45537100  0.38147167  0.08083540  1.0
  Ni  Ni302  1  0.45537100  0.71480500  0.08083540  1.0
  Ni  Ni303  1  0.78870433  0.04813833  0.08083540  1.0
  Ni  Ni304  1  0.78870433  0.38147167  0.08083540  1.0
  Ni  Ni305  1  0.78870433  0.71480500  0.08083540  1.0
  Ni  Ni306  1  0.11501900  0.21480500  0.06415420  1.0
  Ni  Ni307  1  0.11501900  0.54813833  0.06415420  1.0
  Ni  Ni308  1  0.11501900  0.88147167  0.06415420  1.0
  Ni  Ni309  1  0.44835233  0.21480500  0.06415420  1.0
  Ni  Ni310  1  0.44835233  0.54813833  0.06415420  1.0
  Ni  Ni311  1  0.44835233  0.88147167  0.06415420  1.0
  Ni  Ni312  1  0.78168567  0.21480500  0.06415420  1.0
  Ni  Ni313  1  0.78168567  0.54813833  0.06415420  1.0
  Ni  Ni314  1  0.78168567  0.88147167  0.06415420  1.0
  Ni  Ni315  1  0.11501900  0.04813833  0.16415420  1.0
  Ni  Ni316  1  0.11501900  0.38147167  0.16415420  1.0
  Ni  Ni317  1  0.11501900  0.71480500  0.16415420  1.0
  Ni  Ni318  1  0.44835233  0.04813833  0.16415420  1.0
  Ni  Ni319  1  0.44835233  0.38147167  0.16415420  1.0
  Ni  Ni320  1  0.44835233  0.71480500  0.16415420  1.0
  Ni  Ni321  1  0.78168567  0.04813833  0.16415420  1.0
  Ni  Ni322  1  0.78168567  0.38147167  0.16415420  1.0
  Ni  Ni323  1  0.78168567  0.71480500  0.16415420  1.0
  Ni  Ni324  1  0.21129567  0.11852833  0.00638820  1.0
  Ni  Ni325  1  0.21129567  0.45186167  0.00638820  1.0
  Ni  Ni326  1  0.21129567  0.78519500  0.00638820  1.0
  Ni  Ni327  1  0.54462900  0.11852833  0.00638820  1.0
  Ni  Ni328  1  0.54462900  0.45186167  0.00638820  1.0
  Ni  Ni329  1  0.54462900  0.78519500  0.00638820  1.0
  Ni  Ni330  1  0.87796233  0.11852833  0.00638820  1.0
  Ni  Ni331  1  0.87796233  0.45186167  0.00638820  1.0
  Ni  Ni332  1  0.87796233  0.78519500  0.00638820  1.0
  Ni  Ni333  1  0.21129567  0.28519500  0.10638820  1.0
  Ni  Ni334  1  0.21129567  0.61852833  0.10638820  1.0
  Ni  Ni335  1  0.21129567  0.95186167  0.10638820  1.0
  Ni  Ni336  1  0.54462900  0.28519500  0.10638820  1.0
  Ni  Ni337  1  0.54462900  0.61852833  0.10638820  1.0
  Ni  Ni338  1  0.54462900  0.95186167  0.10638820  1.0
  Ni  Ni339  1  0.87796233  0.28519500  0.10638820  1.0
  Ni  Ni340  1  0.87796233  0.61852833  0.10638820  1.0
  Ni  Ni341  1  0.87796233  0.95186167  0.10638820  1.0
  Ni  Ni342  1  0.21831433  0.11852833  0.12306940  1.0
  Ni  Ni343  1  0.21831433  0.45186167  0.12306940  1.0
  Ni  Ni344  1  0.21831433  0.78519500  0.12306940  1.0
  Ni  Ni345  1  0.55164767  0.11852833  0.12306940  1.0
  Ni  Ni346  1  0.55164767  0.45186167  0.12306940  1.0
  Ni  Ni347  1  0.55164767  0.78519500  0.12306940  1.0
  Ni  Ni348  1  0.88498100  0.11852833  0.12306940  1.0
  Ni  Ni349  1  0.88498100  0.45186167  0.12306940  1.0
  Ni  Ni350  1  0.88498100  0.78519500  0.12306940  1.0
  Ni  Ni351  1  0.21831433  0.28519500  0.02306940  1.0
  Ni  Ni352  1  0.21831433  0.61852833  0.02306940  1.0
  Ni  Ni353  1  0.21831433  0.95186167  0.02306940  1.0
  Ni  Ni354  1  0.55164767  0.28519500  0.02306940  1.0
  Ni  Ni355  1  0.55164767  0.61852833  0.02306940  1.0
  Ni  Ni356  1  0.55164767  0.95186167  0.02306940  1.0
  Ni  Ni357  1  0.88498100  0.28519500  0.02306940  1.0
  Ni  Ni358  1  0.88498100  0.61852833  0.02306940  1.0
  Ni  Ni359  1  0.88498100  0.95186167  0.02306940  1.0
  Ni  Ni360  1  0.05164767  0.28519500  0.00638820  1.0
  Ni  Ni361  1  0.05164767  0.61852833  0.00638820  1.0
  Ni  Ni362  1  0.05164767  0.95186167  0.00638820  1.0
  Ni  Ni363  1  0.38498100  0.28519500  0.00638820  1.0
  Ni  Ni364  1  0.38498100  0.61852833  0.00638820  1.0
  Ni  Ni365  1  0.38498100  0.95186167  0.00638820  1.0
  Ni  Ni366  1  0.71831433  0.28519500  0.00638820  1.0
  Ni  Ni367  1  0.71831433  0.61852833  0.00638820  1.0
  Ni  Ni368  1  0.71831433  0.95186167  0.00638820  1.0
  Ni  Ni369  1  0.05164767  0.11852833  0.10638820  1.0
  Ni  Ni370  1  0.05164767  0.45186167  0.10638820  1.0
  Ni  Ni371  1  0.05164767  0.78519500  0.10638820  1.0
  Ni  Ni372  1  0.38498100  0.11852833  0.10638820  1.0
  Ni  Ni373  1  0.38498100  0.45186167  0.10638820  1.0
  Ni  Ni374  1  0.38498100  0.78519500  0.10638820  1.0
  Ni  Ni375  1  0.71831433  0.11852833  0.10638820  1.0
  Ni  Ni376  1  0.71831433  0.45186167  0.10638820  1.0
  Ni  Ni377  1  0.71831433  0.78519500  0.10638820  1.0
  Ni  Ni378  1  0.28168567  0.04813833  0.18083540  1.0
  Ni  Ni379  1  0.28168567  0.38147167  0.18083540  1.0
  Ni  Ni380  1  0.28168567  0.71480500  0.18083540  1.0
  Ni  Ni381  1  0.61501900  0.04813833  0.18083540  1.0
  Ni  Ni382  1  0.61501900  0.38147167  0.18083540  1.0
  Ni  Ni383  1  0.61501900  0.71480500  0.18083540  1.0
  Ni  Ni384  1  0.94835233  0.04813833  0.18083540  1.0
  Ni  Ni385  1  0.94835233  0.38147167  0.18083540  1.0
  Ni  Ni386  1  0.94835233  0.71480500  0.18083540  1.0
  Ni  Ni387  1  0.28168567  0.21480500  0.08083540  1.0
  Ni  Ni388  1  0.28168567  0.54813833  0.08083540  1.0
  Ni  Ni389  1  0.28168567  0.88147167  0.08083540  1.0
  Ni  Ni390  1  0.61501900  0.21480500  0.08083540  1.0
  Ni  Ni391  1  0.61501900  0.54813833  0.08083540  1.0
  Ni  Ni392  1  0.61501900  0.88147167  0.08083540  1.0
  Ni  Ni393  1  0.94835233  0.21480500  0.08083540  1.0
  Ni  Ni394  1  0.94835233  0.54813833  0.08083540  1.0
  Ni  Ni395  1  0.94835233  0.88147167  0.08083540  1.0
  Ni  Ni396  1  0.02129900  0.21493133  0.12100460  1.0
  Ni  Ni397  1  0.02129900  0.54826467  0.12100460  1.0
  Ni  Ni398  1  0.02129900  0.88159800  0.12100460  1.0
  Ni  Ni399  1  0.35463233  0.21493133  0.12100460  1.0
  Ni  Ni400  1  0.35463233  0.54826467  0.12100460  1.0
  Ni  Ni401  1  0.35463233  0.88159800  0.12100460  1.0
  Ni  Ni402  1  0.68796567  0.21493133  0.12100460  1.0
  Ni  Ni403  1  0.68796567  0.54826467  0.12100460  1.0
  Ni  Ni404  1  0.68796567  0.88159800  0.12100460  1.0
  Ni  Ni405  1  0.02129900  0.04826467  0.02100460  1.0
  Ni  Ni406  1  0.02129900  0.38159800  0.02100460  1.0
  Ni  Ni407  1  0.02129900  0.71493133  0.02100460  1.0
  Ni  Ni408  1  0.35463233  0.04826467  0.02100460  1.0
  Ni  Ni409  1  0.35463233  0.38159800  0.02100460  1.0
  Ni  Ni410  1  0.35463233  0.71493133  0.02100460  1.0
  Ni  Ni411  1  0.68796567  0.04826467  0.02100460  1.0
  Ni  Ni412  1  0.68796567  0.38159800  0.02100460  1.0
  Ni  Ni413  1  0.68796567  0.71493133  0.02100460  1.0
  Ni  Ni414  1  0.31203433  0.11840200  0.06621900  1.0
  Ni  Ni415  1  0.31203433  0.45173533  0.06621900  1.0
  Ni  Ni416  1  0.31203433  0.78506867  0.06621900  1.0
  Ni  Ni417  1  0.64536767  0.11840200  0.06621900  1.0
  Ni  Ni418  1  0.64536767  0.45173533  0.06621900  1.0
  Ni  Ni419  1  0.64536767  0.78506867  0.06621900  1.0
  Ni  Ni420  1  0.97870100  0.11840200  0.06621900  1.0
  Ni  Ni421  1  0.97870100  0.45173533  0.06621900  1.0
  Ni  Ni422  1  0.97870100  0.78506867  0.06621900  1.0
  Ni  Ni423  1  0.31203433  0.28506867  0.16621900  1.0
  Ni  Ni424  1  0.31203433  0.61840200  0.16621900  1.0
  Ni  Ni425  1  0.31203433  0.95173533  0.16621900  1.0
  Ni  Ni426  1  0.64536767  0.28506867  0.16621900  1.0
  Ni  Ni427  1  0.64536767  0.61840200  0.16621900  1.0
  Ni  Ni428  1  0.64536767  0.95173533  0.16621900  1.0
  Ni  Ni429  1  0.97870100  0.28506867  0.16621900  1.0
  Ni  Ni430  1  0.97870100  0.61840200  0.16621900  1.0
  Ni  Ni431  1  0.97870100  0.95173533  0.16621900  1.0
  Ni  Ni432  1  0.14536767  0.11840200  0.16308700  1.0
  Ni  Ni433  1  0.14536767  0.45173533  0.16308700  1.0
  Ni  Ni434  1  0.14536767  0.78506867  0.16308700  1.0
  Ni  Ni435  1  0.47870100  0.11840200  0.16308700  1.0
  Ni  Ni436  1  0.47870100  0.45173533  0.16308700  1.0
  Ni  Ni437  1  0.47870100  0.78506867  0.16308700  1.0
  Ni  Ni438  1  0.81203433  0.11840200  0.16308700  1.0
  Ni  Ni439  1  0.81203433  0.45173533  0.16308700  1.0
  Ni  Ni440  1  0.81203433  0.78506867  0.16308700  1.0
  Ni  Ni441  1  0.14536767  0.28506867  0.06308700  1.0
  Ni  Ni442  1  0.14536767  0.61840200  0.06308700  1.0
  Ni  Ni443  1  0.14536767  0.95173533  0.06308700  1.0
  Ni  Ni444  1  0.47870100  0.28506867  0.06308700  1.0
  Ni  Ni445  1  0.47870100  0.61840200  0.06308700  1.0
  Ni  Ni446  1  0.47870100  0.95173533  0.06308700  1.0
  Ni  Ni447  1  0.81203433  0.28506867  0.06308700  1.0
  Ni  Ni448  1  0.81203433  0.61840200  0.06308700  1.0
  Ni  Ni449  1  0.81203433  0.95173533  0.06308700  1.0
  Ni  Ni450  1  0.28449500  0.11840200  0.16621900  1.0
  Ni  Ni451  1  0.28449500  0.45173533  0.16621900  1.0
  Ni  Ni452  1  0.28449500  0.78506867  0.16621900  1.0
  Ni  Ni453  1  0.61782833  0.11840200  0.16621900  1.0
  Ni  Ni454  1  0.61782833  0.45173533  0.16621900  1.0
  Ni  Ni455  1  0.61782833  0.78506867  0.16621900  1.0
  Ni  Ni456  1  0.95116167  0.11840200  0.16621900  1.0
  Ni  Ni457  1  0.95116167  0.45173533  0.16621900  1.0
  Ni  Ni458  1  0.95116167  0.78506867  0.16621900  1.0
  Ni  Ni459  1  0.28449500  0.28506867  0.06621900  1.0
  Ni  Ni460  1  0.28449500  0.61840200  0.06621900  1.0
  Ni  Ni461  1  0.28449500  0.95173533  0.06621900  1.0
  Ni  Ni462  1  0.61782833  0.28506867  0.06621900  1.0
  Ni  Ni463  1  0.61782833  0.61840200  0.06621900  1.0
  Ni  Ni464  1  0.61782833  0.95173533  0.06621900  1.0
  Ni  Ni465  1  0.95116167  0.28506867  0.06621900  1.0
  Ni  Ni466  1  0.95116167  0.61840200  0.06621900  1.0
  Ni  Ni467  1  0.95116167  0.95173533  0.06621900  1.0
  Ni  Ni468  1  0.18796567  0.21493133  0.02413660  1.0
  Ni  Ni469  1  0.18796567  0.54826467  0.02413660  1.0
  Ni  Ni470  1  0.18796567  0.88159800  0.02413660  1.0
  Ni  Ni471  1  0.52129900  0.21493133  0.02413660  1.0
  Ni  Ni472  1  0.52129900  0.54826467  0.02413660  1.0
  Ni  Ni473  1  0.52129900  0.88159800  0.02413660  1.0
  Ni  Ni474  1  0.85463233  0.21493133  0.02413660  1.0
  Ni  Ni475  1  0.85463233  0.54826467  0.02413660  1.0
  Ni  Ni476  1  0.85463233  0.88159800  0.02413660  1.0
  Ni  Ni477  1  0.18796567  0.04826467  0.12413660  1.0
  Ni  Ni478  1  0.18796567  0.38159800  0.12413660  1.0
  Ni  Ni479  1  0.18796567  0.71493133  0.12413660  1.0
  Ni  Ni480  1  0.52129900  0.04826467  0.12413660  1.0
  Ni  Ni481  1  0.52129900  0.38159800  0.12413660  1.0
  Ni  Ni482  1  0.52129900  0.71493133  0.12413660  1.0
  Ni  Ni483  1  0.85463233  0.04826467  0.12413660  1.0
  Ni  Ni484  1  0.85463233  0.38159800  0.12413660  1.0
  Ni  Ni485  1  0.85463233  0.71493133  0.12413660  1.0
  Ni  Ni486  1  0.04883833  0.21493133  0.02100460  1.0
  Ni  Ni487  1  0.04883833  0.54826467  0.02100460  1.0
  Ni  Ni488  1  0.04883833  0.88159800  0.02100460  1.0
  Ni  Ni489  1  0.38217167  0.21493133  0.02100460  1.0
  Ni  Ni490  1  0.38217167  0.54826467  0.02100460  1.0
  Ni  Ni491  1  0.38217167  0.88159800  0.02100460  1.0
  Ni  Ni492  1  0.71550500  0.21493133  0.02100460  1.0
  Ni  Ni493  1  0.71550500  0.54826467  0.02100460  1.0
  Ni  Ni494  1  0.71550500  0.88159800  0.02100460  1.0
  Ni  Ni495  1  0.04883833  0.04826467  0.12100460  1.0
  Ni  Ni496  1  0.04883833  0.38159800  0.12100460  1.0
  Ni  Ni497  1  0.04883833  0.71493133  0.12100460  1.0
  Ni  Ni498  1  0.38217167  0.04826467  0.12100460  1.0
  Ni  Ni499  1  0.38217167  0.38159800  0.12100460  1.0
  Ni  Ni500  1  0.38217167  0.71493133  0.12100460  1.0
  Ni  Ni501  1  0.71550500  0.04826467  0.12100460  1.0
  Ni  Ni502  1  0.71550500  0.38159800  0.12100460  1.0
  Ni  Ni503  1  0.71550500  0.71493133  0.12100460  1.0
  Ni  Ni504  1  0.21550500  0.21493133  0.12413660  1.0
  Ni  Ni505  1  0.21550500  0.54826467  0.12413660  1.0
  Ni  Ni506  1  0.21550500  0.88159800  0.12413660  1.0
  Ni  Ni507  1  0.54883833  0.21493133  0.12413660  1.0
  Ni  Ni508  1  0.54883833  0.54826467  0.12413660  1.0
  Ni  Ni509  1  0.54883833  0.88159800  0.12413660  1.0
  Ni  Ni510  1  0.88217167  0.21493133  0.12413660  1.0
  Ni  Ni511  1  0.88217167  0.54826467  0.12413660  1.0
  Ni  Ni512  1  0.88217167  0.88159800  0.12413660  1.0
  Ni  Ni513  1  0.21550500  0.04826467  0.02413660  1.0
  Ni  Ni514  1  0.21550500  0.38159800  0.02413660  1.0
  Ni  Ni515  1  0.21550500  0.71493133  0.02413660  1.0
  Ni  Ni516  1  0.54883833  0.04826467  0.02413660  1.0
  Ni  Ni517  1  0.54883833  0.38159800  0.02413660  1.0
  Ni  Ni518  1  0.54883833  0.71493133  0.02413660  1.0
  Ni  Ni519  1  0.88217167  0.04826467  0.02413660  1.0
  Ni  Ni520  1  0.88217167  0.38159800  0.02413660  1.0
  Ni  Ni521  1  0.88217167  0.71493133  0.02413660  1.0
  Ni  Ni522  1  0.11782833  0.11840200  0.06308700  1.0
  Ni  Ni523  1  0.11782833  0.45173533  0.06308700  1.0
  Ni  Ni524  1  0.11782833  0.78506867  0.06308700  1.0
  Ni  Ni525  1  0.45116167  0.11840200  0.06308700  1.0
  Ni  Ni526  1  0.45116167  0.45173533  0.06308700  1.0
  Ni  Ni527  1  0.45116167  0.78506867  0.06308700  1.0
  Ni  Ni528  1  0.78449500  0.11840200  0.06308700  1.0
  Ni  Ni529  1  0.78449500  0.45173533  0.06308700  1.0
  Ni  Ni530  1  0.78449500  0.78506867  0.06308700  1.0
  Ni  Ni531  1  0.11782833  0.28506867  0.16308700  1.0
  Ni  Ni532  1  0.11782833  0.61840200  0.16308700  1.0
  Ni  Ni533  1  0.11782833  0.95173533  0.16308700  1.0
  Ni  Ni534  1  0.45116167  0.28506867  0.16308700  1.0
  Ni  Ni535  1  0.45116167  0.61840200  0.16308700  1.0
  Ni  Ni536  1  0.45116167  0.95173533  0.16308700  1.0
  Ni  Ni537  1  0.78449500  0.28506867  0.16308700  1.0
  Ni  Ni538  1  0.78449500  0.61840200  0.16308700  1.0
  Ni  Ni539  1  0.78449500  0.95173533  0.16308700  1.0
  Ni  Ni540  1  0.29763133  0.16666667  0.01463160  1.0
  Ni  Ni541  1  0.29763133  0.50000000  0.01463160  1.0
  Ni  Ni542  1  0.29763133  0.83333333  0.01463160  1.0
  Ni  Ni543  1  0.63096467  0.16666667  0.01463160  1.0
  Ni  Ni544  1  0.63096467  0.50000000  0.01463160  1.0
  Ni  Ni545  1  0.63096467  0.83333333  0.01463160  1.0
  Ni  Ni546  1  0.96429800  0.16666667  0.01463160  1.0
  Ni  Ni547  1  0.96429800  0.50000000  0.01463160  1.0
  Ni  Ni548  1  0.96429800  0.83333333  0.01463160  1.0
  Ni  Ni549  1  0.29763133  0.00000000  0.11463160  1.0
  Ni  Ni550  1  0.29763133  0.33333333  0.11463160  1.0
  Ni  Ni551  1  0.29763133  0.66666667  0.11463160  1.0
  Ni  Ni552  1  0.63096467  0.00000000  0.11463160  1.0
  Ni  Ni553  1  0.63096467  0.33333333  0.11463160  1.0
  Ni  Ni554  1  0.63096467  0.66666667  0.11463160  1.0
  Ni  Ni555  1  0.96429800  0.00000000  0.11463160  1.0
  Ni  Ni556  1  0.96429800  0.33333333  0.11463160  1.0
  Ni  Ni557  1  0.96429800  0.66666667  0.11463160  1.0
  Ni  Ni558  1  0.03570200  0.16666667  0.17259200  1.0
  Ni  Ni559  1  0.03570200  0.50000000  0.17259200  1.0
  Ni  Ni560  1  0.03570200  0.83333333  0.17259200  1.0
  Ni  Ni561  1  0.36903533  0.16666667  0.17259200  1.0
  Ni  Ni562  1  0.36903533  0.50000000  0.17259200  1.0
  Ni  Ni563  1  0.36903533  0.83333333  0.17259200  1.0
  Ni  Ni564  1  0.70236867  0.16666667  0.17259200  1.0
  Ni  Ni565  1  0.70236867  0.50000000  0.17259200  1.0
  Ni  Ni566  1  0.70236867  0.83333333  0.17259200  1.0
  Ni  Ni567  1  0.03570200  0.00000000  0.07259200  1.0
  Ni  Ni568  1  0.03570200  0.33333333  0.07259200  1.0
  Ni  Ni569  1  0.03570200  0.66666667  0.07259200  1.0
  Ni  Ni570  1  0.36903533  0.00000000  0.07259200  1.0
  Ni  Ni571  1  0.36903533  0.33333333  0.07259200  1.0
  Ni  Ni572  1  0.36903533  0.66666667  0.07259200  1.0
  Ni  Ni573  1  0.70236867  0.00000000  0.07259200  1.0
  Ni  Ni574  1  0.70236867  0.33333333  0.07259200  1.0
  Ni  Ni575  1  0.70236867  0.66666667  0.07259200  1.0
  Ni  Ni576  1  0.20236867  0.16666667  0.11463160  1.0
  Ni  Ni577  1  0.20236867  0.50000000  0.11463160  1.0
  Ni  Ni578  1  0.20236867  0.83333333  0.11463160  1.0
  Ni  Ni579  1  0.53570200  0.16666667  0.11463160  1.0
  Ni  Ni580  1  0.53570200  0.50000000  0.11463160  1.0
  Ni  Ni581  1  0.53570200  0.83333333  0.11463160  1.0
  Ni  Ni582  1  0.86903533  0.16666667  0.11463160  1.0
  Ni  Ni583  1  0.86903533  0.50000000  0.11463160  1.0
  Ni  Ni584  1  0.86903533  0.83333333  0.11463160  1.0
  Ni  Ni585  1  0.20236867  0.00000000  0.01463160  1.0
  Ni  Ni586  1  0.20236867  0.33333333  0.01463160  1.0
  Ni  Ni587  1  0.20236867  0.66666667  0.01463160  1.0
  Ni  Ni588  1  0.53570200  0.00000000  0.01463160  1.0
  Ni  Ni589  1  0.53570200  0.33333333  0.01463160  1.0
  Ni  Ni590  1  0.53570200  0.66666667  0.01463160  1.0
  Ni  Ni591  1  0.86903533  0.00000000  0.01463160  1.0
  Ni  Ni592  1  0.86903533  0.33333333  0.01463160  1.0
  Ni  Ni593  1  0.86903533  0.66666667  0.01463160  1.0
  Ni  Ni594  1  0.13096467  0.16666667  0.07259200  1.0
  Ni  Ni595  1  0.13096467  0.50000000  0.07259200  1.0
  Ni  Ni596  1  0.13096467  0.83333333  0.07259200  1.0
  Ni  Ni597  1  0.46429800  0.16666667  0.07259200  1.0
  Ni  Ni598  1  0.46429800  0.50000000  0.07259200  1.0
  Ni  Ni599  1  0.46429800  0.83333333  0.07259200  1.0
  Ni  Ni600  1  0.79763133  0.16666667  0.07259200  1.0
  Ni  Ni601  1  0.79763133  0.50000000  0.07259200  1.0
  Ni  Ni602  1  0.79763133  0.83333333  0.07259200  1.0
  Ni  Ni603  1  0.13096467  0.00000000  0.17259200  1.0
  Ni  Ni604  1  0.13096467  0.33333333  0.17259200  1.0
  Ni  Ni605  1  0.13096467  0.66666667  0.17259200  1.0
  Ni  Ni606  1  0.46429800  0.00000000  0.17259200  1.0
  Ni  Ni607  1  0.46429800  0.33333333  0.17259200  1.0
  Ni  Ni608  1  0.46429800  0.66666667  0.17259200  1.0
  Ni  Ni609  1  0.79763133  0.00000000  0.17259200  1.0
  Ni  Ni610  1  0.79763133  0.33333333  0.17259200  1.0
  Ni  Ni611  1  0.79763133  0.66666667  0.17259200  1.0
  Hf  Hf612  1  0.10209400  0.23123933  0.33235540  1.0
  Hf  Hf613  1  0.10209400  0.56457267  0.33235540  1.0
  Hf  Hf614  1  0.10209400  0.89790600  0.33235540  1.0
  Hf  Hf615  1  0.43542733  0.23123933  0.33235540  1.0
  Hf  Hf616  1  0.43542733  0.56457267  0.33235540  1.0
  Hf  Hf617  1  0.43542733  0.89790600  0.33235540  1.0
  Hf  Hf618  1  0.76876067  0.23123933  0.33235540  1.0
  Hf  Hf619  1  0.76876067  0.56457267  0.33235540  1.0
  Hf  Hf620  1  0.76876067  0.89790600  0.33235540  1.0
  Hf  Hf621  1  0.10209400  0.06457267  0.23235540  1.0
  Hf  Hf622  1  0.10209400  0.39790600  0.23235540  1.0
  Hf  Hf623  1  0.10209400  0.73123933  0.23235540  1.0
  Hf  Hf624  1  0.43542733  0.06457267  0.23235540  1.0
  Hf  Hf625  1  0.43542733  0.39790600  0.23235540  1.0
  Hf  Hf626  1  0.43542733  0.73123933  0.23235540  1.0
  Hf  Hf627  1  0.76876067  0.06457267  0.23235540  1.0
  Hf  Hf628  1  0.76876067  0.39790600  0.23235540  1.0
  Hf  Hf629  1  0.76876067  0.73123933  0.23235540  1.0
  Hf  Hf630  1  0.23123933  0.10209400  0.25486820  1.0
  Hf  Hf631  1  0.23123933  0.43542733  0.25486820  1.0
  Hf  Hf632  1  0.23123933  0.76876067  0.25486820  1.0
  Hf  Hf633  1  0.56457267  0.10209400  0.25486820  1.0
  Hf  Hf634  1  0.56457267  0.43542733  0.25486820  1.0
  Hf  Hf635  1  0.56457267  0.76876067  0.25486820  1.0
  Hf  Hf636  1  0.89790600  0.10209400  0.25486820  1.0
  Hf  Hf637  1  0.89790600  0.43542733  0.25486820  1.0
  Hf  Hf638  1  0.89790600  0.76876067  0.25486820  1.0
  Hf  Hf639  1  0.23123933  0.26876067  0.35486820  1.0
  Hf  Hf640  1  0.23123933  0.60209400  0.35486820  1.0
  Hf  Hf641  1  0.23123933  0.93542733  0.35486820  1.0
  Hf  Hf642  1  0.56457267  0.26876067  0.35486820  1.0
  Hf  Hf643  1  0.56457267  0.60209400  0.35486820  1.0
  Hf  Hf644  1  0.56457267  0.93542733  0.35486820  1.0
  Hf  Hf645  1  0.89790600  0.26876067  0.35486820  1.0
  Hf  Hf646  1  0.89790600  0.60209400  0.35486820  1.0
  Hf  Hf647  1  0.89790600  0.93542733  0.35486820  1.0
  Hf  Hf648  1  0.06457267  0.26876067  0.25486820  1.0
  Hf  Hf649  1  0.06457267  0.60209400  0.25486820  1.0
  Hf  Hf650  1  0.06457267  0.93542733  0.25486820  1.0
  Hf  Hf651  1  0.39790600  0.26876067  0.25486820  1.0
  Hf  Hf652  1  0.39790600  0.60209400  0.25486820  1.0
  Hf  Hf653  1  0.39790600  0.93542733  0.25486820  1.0
  Hf  Hf654  1  0.73123933  0.26876067  0.25486820  1.0
  Hf  Hf655  1  0.73123933  0.60209400  0.25486820  1.0
  Hf  Hf656  1  0.73123933  0.93542733  0.25486820  1.0
  Hf  Hf657  1  0.06457267  0.10209400  0.35486820  1.0
  Hf  Hf658  1  0.06457267  0.43542733  0.35486820  1.0
  Hf  Hf659  1  0.06457267  0.76876067  0.35486820  1.0
  Hf  Hf660  1  0.39790600  0.10209400  0.35486820  1.0
  Hf  Hf661  1  0.39790600  0.43542733  0.35486820  1.0
  Hf  Hf662  1  0.39790600  0.76876067  0.35486820  1.0
  Hf  Hf663  1  0.73123933  0.10209400  0.35486820  1.0
  Hf  Hf664  1  0.73123933  0.43542733  0.35486820  1.0
  Hf  Hf665  1  0.73123933  0.76876067  0.35486820  1.0
  Hf  Hf666  1  0.26876067  0.06457267  0.33235540  1.0
  Hf  Hf667  1  0.26876067  0.39790600  0.33235540  1.0
  Hf  Hf668  1  0.26876067  0.73123933  0.33235540  1.0
  Hf  Hf669  1  0.60209400  0.06457267  0.33235540  1.0
  Hf  Hf670  1  0.60209400  0.39790600  0.33235540  1.0
  Hf  Hf671  1  0.60209400  0.73123933  0.33235540  1.0
  Hf  Hf672  1  0.93542733  0.06457267  0.33235540  1.0
  Hf  Hf673  1  0.93542733  0.39790600  0.33235540  1.0
  Hf  Hf674  1  0.93542733  0.73123933  0.33235540  1.0
  Hf  Hf675  1  0.26876067  0.23123933  0.23235540  1.0
  Hf  Hf676  1  0.26876067  0.56457267  0.23235540  1.0
  Hf  Hf677  1  0.26876067  0.89790600  0.23235540  1.0
  Hf  Hf678  1  0.60209400  0.23123933  0.23235540  1.0
  Hf  Hf679  1  0.60209400  0.56457267  0.23235540  1.0
  Hf  Hf680  1  0.60209400  0.89790600  0.23235540  1.0
  Hf  Hf681  1  0.93542733  0.23123933  0.23235540  1.0
  Hf  Hf682  1  0.93542733  0.56457267  0.23235540  1.0
  Hf  Hf683  1  0.93542733  0.89790600  0.23235540  1.0
  Hf  Hf684  1  0.00000000  0.16666667  0.29361180  1.0
  Hf  Hf685  1  0.00000000  0.50000000  0.29361180  1.0
  Hf  Hf686  1  0.00000000  0.83333333  0.29361180  1.0
  Hf  Hf687  1  0.33333333  0.16666667  0.29361180  1.0
  Hf  Hf688  1  0.33333333  0.50000000  0.29361180  1.0
  Hf  Hf689  1  0.33333333  0.83333333  0.29361180  1.0
  Hf  Hf690  1  0.66666667  0.16666667  0.29361180  1.0
  Hf  Hf691  1  0.66666667  0.50000000  0.29361180  1.0
  Hf  Hf692  1  0.66666667  0.83333333  0.29361180  1.0
  Hf  Hf693  1  0.00000000  0.00000000  0.39361180  1.0
  Hf  Hf694  1  0.00000000  0.33333333  0.39361180  1.0
  Hf  Hf695  1  0.00000000  0.66666667  0.39361180  1.0
  Hf  Hf696  1  0.33333333  0.00000000  0.39361180  1.0
  Hf  Hf697  1  0.33333333  0.33333333  0.39361180  1.0
  Hf  Hf698  1  0.33333333  0.66666667  0.39361180  1.0
  Hf  Hf699  1  0.66666667  0.00000000  0.39361180  1.0
  Hf  Hf700  1  0.66666667  0.33333333  0.39361180  1.0
  Hf  Hf701  1  0.66666667  0.66666667  0.39361180  1.0
  Hf  Hf702  1  0.16666667  0.16666667  0.39361180  1.0
  Hf  Hf703  1  0.16666667  0.50000000  0.39361180  1.0
  Hf  Hf704  1  0.16666667  0.83333333  0.39361180  1.0
  Hf  Hf705  1  0.50000000  0.16666667  0.39361180  1.0
  Hf  Hf706  1  0.50000000  0.50000000  0.39361180  1.0
  Hf  Hf707  1  0.50000000  0.83333333  0.39361180  1.0
  Hf  Hf708  1  0.83333333  0.16666667  0.39361180  1.0
  Hf  Hf709  1  0.83333333  0.50000000  0.39361180  1.0
  Hf  Hf710  1  0.83333333  0.83333333  0.39361180  1.0
  Hf  Hf711  1  0.16666667  0.00000000  0.29361180  1.0
  Hf  Hf712  1  0.16666667  0.33333333  0.29361180  1.0
  Hf  Hf713  1  0.16666667  0.66666667  0.29361180  1.0
  Hf  Hf714  1  0.50000000  0.00000000  0.29361180  1.0
  Hf  Hf715  1  0.50000000  0.33333333  0.29361180  1.0
  Hf  Hf716  1  0.50000000  0.66666667  0.29361180  1.0
  Hf  Hf717  1  0.83333333  0.00000000  0.29361180  1.0
  Hf  Hf718  1  0.83333333  0.33333333  0.29361180  1.0
  Hf  Hf719  1  0.83333333  0.66666667  0.29361180  1.0
  Hf  Hf720  1  0.33164533  0.08333333  0.39361180  1.0
  Hf  Hf721  1  0.33164533  0.41666667  0.39361180  1.0
  Hf  Hf722  1  0.33164533  0.75000000  0.39361180  1.0
  Hf  Hf723  1  0.66497867  0.08333333  0.39361180  1.0
  Hf  Hf724  1  0.66497867  0.41666667  0.39361180  1.0
  Hf  Hf725  1  0.66497867  0.75000000  0.39361180  1.0
  Hf  Hf726  1  0.99831200  0.08333333  0.39361180  1.0
  Hf  Hf727  1  0.99831200  0.41666667  0.39361180  1.0
  Hf  Hf728  1  0.99831200  0.75000000  0.39361180  1.0
  Hf  Hf729  1  0.33164533  0.25000000  0.29361180  1.0
  Hf  Hf730  1  0.33164533  0.58333333  0.29361180  1.0
  Hf  Hf731  1  0.33164533  0.91666667  0.29361180  1.0
  Hf  Hf732  1  0.66497867  0.25000000  0.29361180  1.0
  Hf  Hf733  1  0.66497867  0.58333333  0.29361180  1.0
  Hf  Hf734  1  0.66497867  0.91666667  0.29361180  1.0
  Hf  Hf735  1  0.99831200  0.25000000  0.29361180  1.0
  Hf  Hf736  1  0.99831200  0.58333333  0.29361180  1.0
  Hf  Hf737  1  0.99831200  0.91666667  0.29361180  1.0
  Hf  Hf738  1  0.00168800  0.25000000  0.39361180  1.0
  Hf  Hf739  1  0.00168800  0.58333333  0.39361180  1.0
  Hf  Hf740  1  0.00168800  0.91666667  0.39361180  1.0
  Hf  Hf741  1  0.33502133  0.25000000  0.39361180  1.0
  Hf  Hf742  1  0.33502133  0.58333333  0.39361180  1.0
  Hf  Hf743  1  0.33502133  0.91666667  0.39361180  1.0
  Hf  Hf744  1  0.66835467  0.25000000  0.39361180  1.0
  Hf  Hf745  1  0.66835467  0.58333333  0.39361180  1.0
  Hf  Hf746  1  0.66835467  0.91666667  0.39361180  1.0
  Hf  Hf747  1  0.00168800  0.08333333  0.29361180  1.0
  Hf  Hf748  1  0.00168800  0.41666667  0.29361180  1.0
  Hf  Hf749  1  0.00168800  0.75000000  0.29361180  1.0
  Hf  Hf750  1  0.33502133  0.08333333  0.29361180  1.0
  Hf  Hf751  1  0.33502133  0.41666667  0.29361180  1.0
  Hf  Hf752  1  0.33502133  0.75000000  0.29361180  1.0
  Hf  Hf753  1  0.66835467  0.08333333  0.29361180  1.0
  Hf  Hf754  1  0.66835467  0.41666667  0.29361180  1.0
  Hf  Hf755  1  0.66835467  0.75000000  0.29361180  1.0
  Hf  Hf756  1  0.16835467  0.08333333  0.29361180  1.0
  Hf  Hf757  1  0.16835467  0.41666667  0.29361180  1.0
  Hf  Hf758  1  0.16835467  0.75000000  0.29361180  1.0
  Hf  Hf759  1  0.50168800  0.08333333  0.29361180  1.0
  Hf  Hf760  1  0.50168800  0.41666667  0.29361180  1.0
  Hf  Hf761  1  0.50168800  0.75000000  0.29361180  1.0
  Hf  Hf762  1  0.83502133  0.08333333  0.29361180  1.0
  Hf  Hf763  1  0.83502133  0.41666667  0.29361180  1.0
  Hf  Hf764  1  0.83502133  0.75000000  0.29361180  1.0
  Hf  Hf765  1  0.16835467  0.25000000  0.39361180  1.0
  Hf  Hf766  1  0.16835467  0.58333333  0.39361180  1.0
  Hf  Hf767  1  0.16835467  0.91666667  0.39361180  1.0
  Hf  Hf768  1  0.50168800  0.25000000  0.39361180  1.0
  Hf  Hf769  1  0.50168800  0.58333333  0.39361180  1.0
  Hf  Hf770  1  0.50168800  0.91666667  0.39361180  1.0
  Hf  Hf771  1  0.83502133  0.25000000  0.39361180  1.0
  Hf  Hf772  1  0.83502133  0.58333333  0.39361180  1.0
  Hf  Hf773  1  0.83502133  0.91666667  0.39361180  1.0
  Hf  Hf774  1  0.16497867  0.25000000  0.29361180  1.0
  Hf  Hf775  1  0.16497867  0.58333333  0.29361180  1.0
  Hf  Hf776  1  0.16497867  0.91666667  0.29361180  1.0
  Hf  Hf777  1  0.49831200  0.25000000  0.29361180  1.0
  Hf  Hf778  1  0.49831200  0.58333333  0.29361180  1.0
  Hf  Hf779  1  0.49831200  0.91666667  0.29361180  1.0
  Hf  Hf780  1  0.83164533  0.25000000  0.29361180  1.0
  Hf  Hf781  1  0.83164533  0.58333333  0.29361180  1.0
  Hf  Hf782  1  0.83164533  0.91666667  0.29361180  1.0
  Hf  Hf783  1  0.16497867  0.08333333  0.39361180  1.0
  Hf  Hf784  1  0.16497867  0.41666667  0.39361180  1.0
  Hf  Hf785  1  0.16497867  0.75000000  0.39361180  1.0
  Hf  Hf786  1  0.49831200  0.08333333  0.39361180  1.0
  Hf  Hf787  1  0.49831200  0.41666667  0.39361180  1.0
  Hf  Hf788  1  0.49831200  0.75000000  0.39361180  1.0
  Hf  Hf789  1  0.83164533  0.08333333  0.39361180  1.0
  Hf  Hf790  1  0.83164533  0.41666667  0.39361180  1.0
  Hf  Hf791  1  0.83164533  0.75000000  0.39361180  1.0
  Hf  Hf792  1  0.22894833  0.16666667  0.25610040  1.0
  Hf  Hf793  1  0.22894833  0.50000000  0.25610040  1.0
  Hf  Hf794  1  0.22894833  0.83333333  0.25610040  1.0
  Hf  Hf795  1  0.56228167  0.16666667  0.25610040  1.0
  Hf  Hf796  1  0.56228167  0.50000000  0.25610040  1.0
  Hf  Hf797  1  0.56228167  0.83333333  0.25610040  1.0
  Hf  Hf798  1  0.89561500  0.16666667  0.25610040  1.0
  Hf  Hf799  1  0.89561500  0.50000000  0.25610040  1.0
  Hf  Hf800  1  0.89561500  0.83333333  0.25610040  1.0
  Hf  Hf801  1  0.22894833  0.00000000  0.35610040  1.0
  Hf  Hf802  1  0.22894833  0.33333333  0.35610040  1.0
  Hf  Hf803  1  0.22894833  0.66666667  0.35610040  1.0
  Hf  Hf804  1  0.56228167  0.00000000  0.35610040  1.0
  Hf  Hf805  1  0.56228167  0.33333333  0.35610040  1.0
  Hf  Hf806  1  0.56228167  0.66666667  0.35610040  1.0
  Hf  Hf807  1  0.89561500  0.00000000  0.35610040  1.0
  Hf  Hf808  1  0.89561500  0.33333333  0.35610040  1.0
  Hf  Hf809  1  0.89561500  0.66666667  0.35610040  1.0
  Hf  Hf810  1  0.10438500  0.16666667  0.33112320  1.0
  Hf  Hf811  1  0.10438500  0.50000000  0.33112320  1.0
  Hf  Hf812  1  0.10438500  0.83333333  0.33112320  1.0
  Hf  Hf813  1  0.43771833  0.16666667  0.33112320  1.0
  Hf  Hf814  1  0.43771833  0.50000000  0.33112320  1.0
  Hf  Hf815  1  0.43771833  0.83333333  0.33112320  1.0
  Hf  Hf816  1  0.77105167  0.16666667  0.33112320  1.0
  Hf  Hf817  1  0.77105167  0.50000000  0.33112320  1.0
  Hf  Hf818  1  0.77105167  0.83333333  0.33112320  1.0
  Hf  Hf819  1  0.10438500  0.00000000  0.23112320  1.0
  Hf  Hf820  1  0.10438500  0.33333333  0.23112320  1.0
  Hf  Hf821  1  0.10438500  0.66666667  0.23112320  1.0
  Hf  Hf822  1  0.43771833  0.00000000  0.23112320  1.0
  Hf  Hf823  1  0.43771833  0.33333333  0.23112320  1.0
  Hf  Hf824  1  0.43771833  0.66666667  0.23112320  1.0
  Hf  Hf825  1  0.77105167  0.00000000  0.23112320  1.0
  Hf  Hf826  1  0.77105167  0.33333333  0.23112320  1.0
  Hf  Hf827  1  0.77105167  0.66666667  0.23112320  1.0
  Hf  Hf828  1  0.27105167  0.16666667  0.35610040  1.0
  Hf  Hf829  1  0.27105167  0.50000000  0.35610040  1.0
  Hf  Hf830  1  0.27105167  0.83333333  0.35610040  1.0
  Hf  Hf831  1  0.60438500  0.16666667  0.35610040  1.0
  Hf  Hf832  1  0.60438500  0.50000000  0.35610040  1.0
  Hf  Hf833  1  0.60438500  0.83333333  0.35610040  1.0
  Hf  Hf834  1  0.93771833  0.16666667  0.35610040  1.0
  Hf  Hf835  1  0.93771833  0.50000000  0.35610040  1.0
  Hf  Hf836  1  0.93771833  0.83333333  0.35610040  1.0
  Hf  Hf837  1  0.27105167  0.00000000  0.25610040  1.0
  Hf  Hf838  1  0.27105167  0.33333333  0.25610040  1.0
  Hf  Hf839  1  0.27105167  0.66666667  0.25610040  1.0
  Hf  Hf840  1  0.60438500  0.00000000  0.25610040  1.0
  Hf  Hf841  1  0.60438500  0.33333333  0.25610040  1.0
  Hf  Hf842  1  0.60438500  0.66666667  0.25610040  1.0
  Hf  Hf843  1  0.93771833  0.00000000  0.25610040  1.0
  Hf  Hf844  1  0.93771833  0.33333333  0.25610040  1.0
  Hf  Hf845  1  0.93771833  0.66666667  0.25610040  1.0
  Hf  Hf846  1  0.06228167  0.16666667  0.23112320  1.0
  Hf  Hf847  1  0.06228167  0.50000000  0.23112320  1.0
  Hf  Hf848  1  0.06228167  0.83333333  0.23112320  1.0
  Hf  Hf849  1  0.39561500  0.16666667  0.23112320  1.0
  Hf  Hf850  1  0.39561500  0.50000000  0.23112320  1.0
  Hf  Hf851  1  0.39561500  0.83333333  0.23112320  1.0
  Hf  Hf852  1  0.72894833  0.16666667  0.23112320  1.0
  Hf  Hf853  1  0.72894833  0.50000000  0.23112320  1.0
  Hf  Hf854  1  0.72894833  0.83333333  0.23112320  1.0
  Hf  Hf855  1  0.06228167  0.00000000  0.33112320  1.0
  Hf  Hf856  1  0.06228167  0.33333333  0.33112320  1.0
  Hf  Hf857  1  0.06228167  0.66666667  0.33112320  1.0
  Hf  Hf858  1  0.39561500  0.00000000  0.33112320  1.0
  Hf  Hf859  1  0.39561500  0.33333333  0.33112320  1.0
  Hf  Hf860  1  0.39561500  0.66666667  0.33112320  1.0
  Hf  Hf861  1  0.72894833  0.00000000  0.33112320  1.0
  Hf  Hf862  1  0.72894833  0.33333333  0.33112320  1.0
  Hf  Hf863  1  0.72894833  0.66666667  0.33112320  1.0
  Ni  Ni864  1  0.04462900  0.28519500  0.32306940  1.0
  Ni  Ni865  1  0.04462900  0.61852833  0.32306940  1.0
  Ni  Ni866  1  0.04462900  0.95186167  0.32306940  1.0
  Ni  Ni867  1  0.37796233  0.28519500  0.32306940  1.0
  Ni  Ni868  1  0.37796233  0.61852833  0.32306940  1.0
  Ni  Ni869  1  0.37796233  0.95186167  0.32306940  1.0
  Ni  Ni870  1  0.71129567  0.28519500  0.32306940  1.0
  Ni  Ni871  1  0.71129567  0.61852833  0.32306940  1.0
  Ni  Ni872  1  0.71129567  0.95186167  0.32306940  1.0
  Ni  Ni873  1  0.04462900  0.11852833  0.22306940  1.0
  Ni  Ni874  1  0.04462900  0.45186167  0.22306940  1.0
  Ni  Ni875  1  0.04462900  0.78519500  0.22306940  1.0
  Ni  Ni876  1  0.37796233  0.11852833  0.22306940  1.0
  Ni  Ni877  1  0.37796233  0.45186167  0.22306940  1.0
  Ni  Ni878  1  0.37796233  0.78519500  0.22306940  1.0
  Ni  Ni879  1  0.71129567  0.11852833  0.22306940  1.0
  Ni  Ni880  1  0.71129567  0.45186167  0.22306940  1.0
  Ni  Ni881  1  0.71129567  0.78519500  0.22306940  1.0
  Ni  Ni882  1  0.28870433  0.04813833  0.26415420  1.0
  Ni  Ni883  1  0.28870433  0.38147167  0.26415420  1.0
  Ni  Ni884  1  0.28870433  0.71480500  0.26415420  1.0
  Ni  Ni885  1  0.62203767  0.04813833  0.26415420  1.0
  Ni  Ni886  1  0.62203767  0.38147167  0.26415420  1.0
  Ni  Ni887  1  0.62203767  0.71480500  0.26415420  1.0
  Ni  Ni888  1  0.95537100  0.04813833  0.26415420  1.0
  Ni  Ni889  1  0.95537100  0.38147167  0.26415420  1.0
  Ni  Ni890  1  0.95537100  0.71480500  0.26415420  1.0
  Ni  Ni891  1  0.28870433  0.21480500  0.36415420  1.0
  Ni  Ni892  1  0.28870433  0.54813833  0.36415420  1.0
  Ni  Ni893  1  0.28870433  0.88147167  0.36415420  1.0
  Ni  Ni894  1  0.62203767  0.21480500  0.36415420  1.0
  Ni  Ni895  1  0.62203767  0.54813833  0.36415420  1.0
  Ni  Ni896  1  0.62203767  0.88147167  0.36415420  1.0
  Ni  Ni897  1  0.95537100  0.21480500  0.36415420  1.0
  Ni  Ni898  1  0.95537100  0.54813833  0.36415420  1.0
  Ni  Ni899  1  0.95537100  0.88147167  0.36415420  1.0
  Ni  Ni900  1  0.12203767  0.21480500  0.38083540  1.0
  Ni  Ni901  1  0.12203767  0.54813833  0.38083540  1.0
  Ni  Ni902  1  0.12203767  0.88147167  0.38083540  1.0
  Ni  Ni903  1  0.45537100  0.21480500  0.38083540  1.0
  Ni  Ni904  1  0.45537100  0.54813833  0.38083540  1.0
  Ni  Ni905  1  0.45537100  0.88147167  0.38083540  1.0
  Ni  Ni906  1  0.78870433  0.21480500  0.38083540  1.0
  Ni  Ni907  1  0.78870433  0.54813833  0.38083540  1.0
  Ni  Ni908  1  0.78870433  0.88147167  0.38083540  1.0
  Ni  Ni909  1  0.12203767  0.04813833  0.28083540  1.0
  Ni  Ni910  1  0.12203767  0.38147167  0.28083540  1.0
  Ni  Ni911  1  0.12203767  0.71480500  0.28083540  1.0
  Ni  Ni912  1  0.45537100  0.04813833  0.28083540  1.0
  Ni  Ni913  1  0.45537100  0.38147167  0.28083540  1.0
  Ni  Ni914  1  0.45537100  0.71480500  0.28083540  1.0
  Ni  Ni915  1  0.78870433  0.04813833  0.28083540  1.0
  Ni  Ni916  1  0.78870433  0.38147167  0.28083540  1.0
  Ni  Ni917  1  0.78870433  0.71480500  0.28083540  1.0
  Ni  Ni918  1  0.11501900  0.21480500  0.26415420  1.0
  Ni  Ni919  1  0.11501900  0.54813833  0.26415420  1.0
  Ni  Ni920  1  0.11501900  0.88147167  0.26415420  1.0
  Ni  Ni921  1  0.44835233  0.21480500  0.26415420  1.0
  Ni  Ni922  1  0.44835233  0.54813833  0.26415420  1.0
  Ni  Ni923  1  0.44835233  0.88147167  0.26415420  1.0
  Ni  Ni924  1  0.78168567  0.21480500  0.26415420  1.0
  Ni  Ni925  1  0.78168567  0.54813833  0.26415420  1.0
  Ni  Ni926  1  0.78168567  0.88147167  0.26415420  1.0
  Ni  Ni927  1  0.11501900  0.04813833  0.36415420  1.0
  Ni  Ni928  1  0.11501900  0.38147167  0.36415420  1.0
  Ni  Ni929  1  0.11501900  0.71480500  0.36415420  1.0
  Ni  Ni930  1  0.44835233  0.04813833  0.36415420  1.0
  Ni  Ni931  1  0.44835233  0.38147167  0.36415420  1.0
  Ni  Ni932  1  0.44835233  0.71480500  0.36415420  1.0
  Ni  Ni933  1  0.78168567  0.04813833  0.36415420  1.0
  Ni  Ni934  1  0.78168567  0.38147167  0.36415420  1.0
  Ni  Ni935  1  0.78168567  0.71480500  0.36415420  1.0
  Ni  Ni936  1  0.21129567  0.11852833  0.20638820  1.0
  Ni  Ni937  1  0.21129567  0.45186167  0.20638820  1.0
  Ni  Ni938  1  0.21129567  0.78519500  0.20638820  1.0
  Ni  Ni939  1  0.54462900  0.11852833  0.20638820  1.0
  Ni  Ni940  1  0.54462900  0.45186167  0.20638820  1.0
  Ni  Ni941  1  0.54462900  0.78519500  0.20638820  1.0
  Ni  Ni942  1  0.87796233  0.11852833  0.20638820  1.0
  Ni  Ni943  1  0.87796233  0.45186167  0.20638820  1.0
  Ni  Ni944  1  0.87796233  0.78519500  0.20638820  1.0
  Ni  Ni945  1  0.21129567  0.28519500  0.30638820  1.0
  Ni  Ni946  1  0.21129567  0.61852833  0.30638820  1.0
  Ni  Ni947  1  0.21129567  0.95186167  0.30638820  1.0
  Ni  Ni948  1  0.54462900  0.28519500  0.30638820  1.0
  Ni  Ni949  1  0.54462900  0.61852833  0.30638820  1.0
  Ni  Ni950  1  0.54462900  0.95186167  0.30638820  1.0
  Ni  Ni951  1  0.87796233  0.28519500  0.30638820  1.0
  Ni  Ni952  1  0.87796233  0.61852833  0.30638820  1.0
  Ni  Ni953  1  0.87796233  0.95186167  0.30638820  1.0
  Ni  Ni954  1  0.21831433  0.11852833  0.32306940  1.0
  Ni  Ni955  1  0.21831433  0.45186167  0.32306940  1.0
  Ni  Ni956  1  0.21831433  0.78519500  0.32306940  1.0
  Ni  Ni957  1  0.55164767  0.11852833  0.32306940  1.0
  Ni  Ni958  1  0.55164767  0.45186167  0.32306940  1.0
  Ni  Ni959  1  0.55164767  0.78519500  0.32306940  1.0
  Ni  Ni960  1  0.88498100  0.11852833  0.32306940  1.0
  Ni  Ni961  1  0.88498100  0.45186167  0.32306940  1.0
  Ni  Ni962  1  0.88498100  0.78519500  0.32306940  1.0
  Ni  Ni963  1  0.21831433  0.28519500  0.22306940  1.0
  Ni  Ni964  1  0.21831433  0.61852833  0.22306940  1.0
  Ni  Ni965  1  0.21831433  0.95186167  0.22306940  1.0
  Ni  Ni966  1  0.55164767  0.28519500  0.22306940  1.0
  Ni  Ni967  1  0.55164767  0.61852833  0.22306940  1.0
  Ni  Ni968  1  0.55164767  0.95186167  0.22306940  1.0
  Ni  Ni969  1  0.88498100  0.28519500  0.22306940  1.0
  Ni  Ni970  1  0.88498100  0.61852833  0.22306940  1.0
  Ni  Ni971  1  0.88498100  0.95186167  0.22306940  1.0
  Ni  Ni972  1  0.05164767  0.28519500  0.20638820  1.0
  Ni  Ni973  1  0.05164767  0.61852833  0.20638820  1.0
  Ni  Ni974  1  0.05164767  0.95186167  0.20638820  1.0
  Ni  Ni975  1  0.38498100  0.28519500  0.20638820  1.0
  Ni  Ni976  1  0.38498100  0.61852833  0.20638820  1.0
  Ni  Ni977  1  0.38498100  0.95186167  0.20638820  1.0
  Ni  Ni978  1  0.71831433  0.28519500  0.20638820  1.0
  Ni  Ni979  1  0.71831433  0.61852833  0.20638820  1.0
  Ni  Ni980  1  0.71831433  0.95186167  0.20638820  1.0
  Ni  Ni981  1  0.05164767  0.11852833  0.30638820  1.0
  Ni  Ni982  1  0.05164767  0.45186167  0.30638820  1.0
  Ni  Ni983  1  0.05164767  0.78519500  0.30638820  1.0
  Ni  Ni984  1  0.38498100  0.11852833  0.30638820  1.0
  Ni  Ni985  1  0.38498100  0.45186167  0.30638820  1.0
  Ni  Ni986  1  0.38498100  0.78519500  0.30638820  1.0
  Ni  Ni987  1  0.71831433  0.11852833  0.30638820  1.0
  Ni  Ni988  1  0.71831433  0.45186167  0.30638820  1.0
  Ni  Ni989  1  0.71831433  0.78519500  0.30638820  1.0
  Ni  Ni990  1  0.28168567  0.04813833  0.38083540  1.0
  Ni  Ni991  1  0.28168567  0.38147167  0.38083540  1.0
  Ni  Ni992  1  0.28168567  0.71480500  0.38083540  1.0
  Ni  Ni993  1  0.61501900  0.04813833  0.38083540  1.0
  Ni  Ni994  1  0.61501900  0.38147167  0.38083540  1.0
  Ni  Ni995  1  0.61501900  0.71480500  0.38083540  1.0
  Ni  Ni996  1  0.94835233  0.04813833  0.38083540  1.0
  Ni  Ni997  1  0.94835233  0.38147167  0.38083540  1.0
  Ni  Ni998  1  0.94835233  0.71480500  0.38083540  1.0
  Ni  Ni999  1  0.28168567  0.21480500  0.28083540  1.0
  Ni  Ni1000  1  0.28168567  0.54813833  0.28083540  1.0
  Ni  Ni1001  1  0.28168567  0.88147167  0.28083540  1.0
  Ni  Ni1002  1  0.61501900  0.21480500  0.28083540  1.0
  Ni  Ni1003  1  0.61501900  0.54813833  0.28083540  1.0
  Ni  Ni1004  1  0.61501900  0.88147167  0.28083540  1.0
  Ni  Ni1005  1  0.94835233  0.21480500  0.28083540  1.0
  Ni  Ni1006  1  0.94835233  0.54813833  0.28083540  1.0
  Ni  Ni1007  1  0.94835233  0.88147167  0.28083540  1.0
  Ni  Ni1008  1  0.02129900  0.21493133  0.32100460  1.0
  Ni  Ni1009  1  0.02129900  0.54826467  0.32100460  1.0
  Ni  Ni1010  1  0.02129900  0.88159800  0.32100460  1.0
  Ni  Ni1011  1  0.35463233  0.21493133  0.32100460  1.0
  Ni  Ni1012  1  0.35463233  0.54826467  0.32100460  1.0
  Ni  Ni1013  1  0.35463233  0.88159800  0.32100460  1.0
  Ni  Ni1014  1  0.68796567  0.21493133  0.32100460  1.0
  Ni  Ni1015  1  0.68796567  0.54826467  0.32100460  1.0
  Ni  Ni1016  1  0.68796567  0.88159800  0.32100460  1.0
  Ni  Ni1017  1  0.02129900  0.04826467  0.22100460  1.0
  Ni  Ni1018  1  0.02129900  0.38159800  0.22100460  1.0
  Ni  Ni1019  1  0.02129900  0.71493133  0.22100460  1.0
  Ni  Ni1020  1  0.35463233  0.04826467  0.22100460  1.0
  Ni  Ni1021  1  0.35463233  0.38159800  0.22100460  1.0
  Ni  Ni1022  1  0.35463233  0.71493133  0.22100460  1.0
  Ni  Ni1023  1  0.68796567  0.04826467  0.22100460  1.0
  Ni  Ni1024  1  0.68796567  0.38159800  0.22100460  1.0
  Ni  Ni1025  1  0.68796567  0.71493133  0.22100460  1.0
  Ni  Ni1026  1  0.31203433  0.11840200  0.26621900  1.0
  Ni  Ni1027  1  0.31203433  0.45173533  0.26621900  1.0
  Ni  Ni1028  1  0.31203433  0.78506867  0.26621900  1.0
  Ni  Ni1029  1  0.64536767  0.11840200  0.26621900  1.0
  Ni  Ni1030  1  0.64536767  0.45173533  0.26621900  1.0
  Ni  Ni1031  1  0.64536767  0.78506867  0.26621900  1.0
  Ni  Ni1032  1  0.97870100  0.11840200  0.26621900  1.0
  Ni  Ni1033  1  0.97870100  0.45173533  0.26621900  1.0
  Ni  Ni1034  1  0.97870100  0.78506867  0.26621900  1.0
  Ni  Ni1035  1  0.31203433  0.28506867  0.36621900  1.0
  Ni  Ni1036  1  0.31203433  0.61840200  0.36621900  1.0
  Ni  Ni1037  1  0.31203433  0.95173533  0.36621900  1.0
  Ni  Ni1038  1  0.64536767  0.28506867  0.36621900  1.0
  Ni  Ni1039  1  0.64536767  0.61840200  0.36621900  1.0
  Ni  Ni1040  1  0.64536767  0.95173533  0.36621900  1.0
  Ni  Ni1041  1  0.97870100  0.28506867  0.36621900  1.0
  Ni  Ni1042  1  0.97870100  0.61840200  0.36621900  1.0
  Ni  Ni1043  1  0.97870100  0.95173533  0.36621900  1.0
  Ni  Ni1044  1  0.14536767  0.11840200  0.36308700  1.0
  Ni  Ni1045  1  0.14536767  0.45173533  0.36308700  1.0
  Ni  Ni1046  1  0.14536767  0.78506867  0.36308700  1.0
  Ni  Ni1047  1  0.47870100  0.11840200  0.36308700  1.0
  Ni  Ni1048  1  0.47870100  0.45173533  0.36308700  1.0
  Ni  Ni1049  1  0.47870100  0.78506867  0.36308700  1.0
  Ni  Ni1050  1  0.81203433  0.11840200  0.36308700  1.0
  Ni  Ni1051  1  0.81203433  0.45173533  0.36308700  1.0
  Ni  Ni1052  1  0.81203433  0.78506867  0.36308700  1.0
  Ni  Ni1053  1  0.14536767  0.28506867  0.26308700  1.0
  Ni  Ni1054  1  0.14536767  0.61840200  0.26308700  1.0
  Ni  Ni1055  1  0.14536767  0.95173533  0.26308700  1.0
  Ni  Ni1056  1  0.47870100  0.28506867  0.26308700  1.0
  Ni  Ni1057  1  0.47870100  0.61840200  0.26308700  1.0
  Ni  Ni1058  1  0.47870100  0.95173533  0.26308700  1.0
  Ni  Ni1059  1  0.81203433  0.28506867  0.26308700  1.0
  Ni  Ni1060  1  0.81203433  0.61840200  0.26308700  1.0
  Ni  Ni1061  1  0.81203433  0.95173533  0.26308700  1.0
  Ni  Ni1062  1  0.28449500  0.11840200  0.36621900  1.0
  Ni  Ni1063  1  0.28449500  0.45173533  0.36621900  1.0
  Ni  Ni1064  1  0.28449500  0.78506867  0.36621900  1.0
  Ni  Ni1065  1  0.61782833  0.11840200  0.36621900  1.0
  Ni  Ni1066  1  0.61782833  0.45173533  0.36621900  1.0
  Ni  Ni1067  1  0.61782833  0.78506867  0.36621900  1.0
  Ni  Ni1068  1  0.95116167  0.11840200  0.36621900  1.0
  Ni  Ni1069  1  0.95116167  0.45173533  0.36621900  1.0
  Ni  Ni1070  1  0.95116167  0.78506867  0.36621900  1.0
  Ni  Ni1071  1  0.28449500  0.28506867  0.26621900  1.0
  Ni  Ni1072  1  0.28449500  0.61840200  0.26621900  1.0
  Ni  Ni1073  1  0.28449500  0.95173533  0.26621900  1.0
  Ni  Ni1074  1  0.61782833  0.28506867  0.26621900  1.0
  Ni  Ni1075  1  0.61782833  0.61840200  0.26621900  1.0
  Ni  Ni1076  1  0.61782833  0.95173533  0.26621900  1.0
  Ni  Ni1077  1  0.95116167  0.28506867  0.26621900  1.0
  Ni  Ni1078  1  0.95116167  0.61840200  0.26621900  1.0
  Ni  Ni1079  1  0.95116167  0.95173533  0.26621900  1.0
  Ni  Ni1080  1  0.18796567  0.21493133  0.22413660  1.0
  Ni  Ni1081  1  0.18796567  0.54826467  0.22413660  1.0
  Ni  Ni1082  1  0.18796567  0.88159800  0.22413660  1.0
  Ni  Ni1083  1  0.52129900  0.21493133  0.22413660  1.0
  Ni  Ni1084  1  0.52129900  0.54826467  0.22413660  1.0
  Ni  Ni1085  1  0.52129900  0.88159800  0.22413660  1.0
  Ni  Ni1086  1  0.85463233  0.21493133  0.22413660  1.0
  Ni  Ni1087  1  0.85463233  0.54826467  0.22413660  1.0
  Ni  Ni1088  1  0.85463233  0.88159800  0.22413660  1.0
  Ni  Ni1089  1  0.18796567  0.04826467  0.32413660  1.0
  Ni  Ni1090  1  0.18796567  0.38159800  0.32413660  1.0
  Ni  Ni1091  1  0.18796567  0.71493133  0.32413660  1.0
  Ni  Ni1092  1  0.52129900  0.04826467  0.32413660  1.0
  Ni  Ni1093  1  0.52129900  0.38159800  0.32413660  1.0
  Ni  Ni1094  1  0.52129900  0.71493133  0.32413660  1.0
  Ni  Ni1095  1  0.85463233  0.04826467  0.32413660  1.0
  Ni  Ni1096  1  0.85463233  0.38159800  0.32413660  1.0
  Ni  Ni1097  1  0.85463233  0.71493133  0.32413660  1.0
  Ni  Ni1098  1  0.04883833  0.21493133  0.22100460  1.0
  Ni  Ni1099  1  0.04883833  0.54826467  0.22100460  1.0
  Ni  Ni1100  1  0.04883833  0.88159800  0.22100460  1.0
  Ni  Ni1101  1  0.38217167  0.21493133  0.22100460  1.0
  Ni  Ni1102  1  0.38217167  0.54826467  0.22100460  1.0
  Ni  Ni1103  1  0.38217167  0.88159800  0.22100460  1.0
  Ni  Ni1104  1  0.71550500  0.21493133  0.22100460  1.0
  Ni  Ni1105  1  0.71550500  0.54826467  0.22100460  1.0
  Ni  Ni1106  1  0.71550500  0.88159800  0.22100460  1.0
  Ni  Ni1107  1  0.04883833  0.04826467  0.32100460  1.0
  Ni  Ni1108  1  0.04883833  0.38159800  0.32100460  1.0
  Ni  Ni1109  1  0.04883833  0.71493133  0.32100460  1.0
  Ni  Ni1110  1  0.38217167  0.04826467  0.32100460  1.0
  Ni  Ni1111  1  0.38217167  0.38159800  0.32100460  1.0
  Ni  Ni1112  1  0.38217167  0.71493133  0.32100460  1.0
  Ni  Ni1113  1  0.71550500  0.04826467  0.32100460  1.0
  Ni  Ni1114  1  0.71550500  0.38159800  0.32100460  1.0
  Ni  Ni1115  1  0.71550500  0.71493133  0.32100460  1.0
  Ni  Ni1116  1  0.21550500  0.21493133  0.32413660  1.0
  Ni  Ni1117  1  0.21550500  0.54826467  0.32413660  1.0
  Ni  Ni1118  1  0.21550500  0.88159800  0.32413660  1.0
  Ni  Ni1119  1  0.54883833  0.21493133  0.32413660  1.0
  Ni  Ni1120  1  0.54883833  0.54826467  0.32413660  1.0
  Ni  Ni1121  1  0.54883833  0.88159800  0.32413660  1.0
  Ni  Ni1122  1  0.88217167  0.21493133  0.32413660  1.0
  Ni  Ni1123  1  0.88217167  0.54826467  0.32413660  1.0
  Ni  Ni1124  1  0.88217167  0.88159800  0.32413660  1.0
  Ni  Ni1125  1  0.21550500  0.04826467  0.22413660  1.0
  Ni  Ni1126  1  0.21550500  0.38159800  0.22413660  1.0
  Ni  Ni1127  1  0.21550500  0.71493133  0.22413660  1.0
  Ni  Ni1128  1  0.54883833  0.04826467  0.22413660  1.0
  Ni  Ni1129  1  0.54883833  0.38159800  0.22413660  1.0
  Ni  Ni1130  1  0.54883833  0.71493133  0.22413660  1.0
  Ni  Ni1131  1  0.88217167  0.04826467  0.22413660  1.0
  Ni  Ni1132  1  0.88217167  0.38159800  0.22413660  1.0
  Ni  Ni1133  1  0.88217167  0.71493133  0.22413660  1.0
  Ni  Ni1134  1  0.11782833  0.11840200  0.26308700  1.0
  Ni  Ni1135  1  0.11782833  0.45173533  0.26308700  1.0
  Ni  Ni1136  1  0.11782833  0.78506867  0.26308700  1.0
  Ni  Ni1137  1  0.45116167  0.11840200  0.26308700  1.0
  Ni  Ni1138  1  0.45116167  0.45173533  0.26308700  1.0
  Ni  Ni1139  1  0.45116167  0.78506867  0.26308700  1.0
  Ni  Ni1140  1  0.78449500  0.11840200  0.26308700  1.0
  Ni  Ni1141  1  0.78449500  0.45173533  0.26308700  1.0
  Ni  Ni1142  1  0.78449500  0.78506867  0.26308700  1.0
  Ni  Ni1143  1  0.11782833  0.28506867  0.36308700  1.0
  Ni  Ni1144  1  0.11782833  0.61840200  0.36308700  1.0
  Ni  Ni1145  1  0.11782833  0.95173533  0.36308700  1.0
  Ni  Ni1146  1  0.45116167  0.28506867  0.36308700  1.0
  Ni  Ni1147  1  0.45116167  0.61840200  0.36308700  1.0
  Ni  Ni1148  1  0.45116167  0.95173533  0.36308700  1.0
  Ni  Ni1149  1  0.78449500  0.28506867  0.36308700  1.0
  Ni  Ni1150  1  0.78449500  0.61840200  0.36308700  1.0
  Ni  Ni1151  1  0.78449500  0.95173533  0.36308700  1.0
  Ni  Ni1152  1  0.29763133  0.16666667  0.21463160  1.0
  Ni  Ni1153  1  0.29763133  0.50000000  0.21463160  1.0
  Ni  Ni1154  1  0.29763133  0.83333333  0.21463160  1.0
  Ni  Ni1155  1  0.63096467  0.16666667  0.21463160  1.0
  Ni  Ni1156  1  0.63096467  0.50000000  0.21463160  1.0
  Ni  Ni1157  1  0.63096467  0.83333333  0.21463160  1.0
  Ni  Ni1158  1  0.96429800  0.16666667  0.21463160  1.0
  Ni  Ni1159  1  0.96429800  0.50000000  0.21463160  1.0
  Ni  Ni1160  1  0.96429800  0.83333333  0.21463160  1.0
  Ni  Ni1161  1  0.29763133  0.00000000  0.31463160  1.0
  Ni  Ni1162  1  0.29763133  0.33333333  0.31463160  1.0
  Ni  Ni1163  1  0.29763133  0.66666667  0.31463160  1.0
  Ni  Ni1164  1  0.63096467  0.00000000  0.31463160  1.0
  Ni  Ni1165  1  0.63096467  0.33333333  0.31463160  1.0
  Ni  Ni1166  1  0.63096467  0.66666667  0.31463160  1.0
  Ni  Ni1167  1  0.96429800  0.00000000  0.31463160  1.0
  Ni  Ni1168  1  0.96429800  0.33333333  0.31463160  1.0
  Ni  Ni1169  1  0.96429800  0.66666667  0.31463160  1.0
  Ni  Ni1170  1  0.03570200  0.16666667  0.37259200  1.0
  Ni  Ni1171  1  0.03570200  0.50000000  0.37259200  1.0
  Ni  Ni1172  1  0.03570200  0.83333333  0.37259200  1.0
  Ni  Ni1173  1  0.36903533  0.16666667  0.37259200  1.0
  Ni  Ni1174  1  0.36903533  0.50000000  0.37259200  1.0
  Ni  Ni1175  1  0.36903533  0.83333333  0.37259200  1.0
  Ni  Ni1176  1  0.70236867  0.16666667  0.37259200  1.0
  Ni  Ni1177  1  0.70236867  0.50000000  0.37259200  1.0
  Ni  Ni1178  1  0.70236867  0.83333333  0.37259200  1.0
  Ni  Ni1179  1  0.03570200  0.00000000  0.27259200  1.0
  Ni  Ni1180  1  0.03570200  0.33333333  0.27259200  1.0
  Ni  Ni1181  1  0.03570200  0.66666667  0.27259200  1.0
  Ni  Ni1182  1  0.36903533  0.00000000  0.27259200  1.0
  Ni  Ni1183  1  0.36903533  0.33333333  0.27259200  1.0
  Ni  Ni1184  1  0.36903533  0.66666667  0.27259200  1.0
  Ni  Ni1185  1  0.70236867  0.00000000  0.27259200  1.0
  Ni  Ni1186  1  0.70236867  0.33333333  0.27259200  1.0
  Ni  Ni1187  1  0.70236867  0.66666667  0.27259200  1.0
  Ni  Ni1188  1  0.20236867  0.16666667  0.31463160  1.0
  Ni  Ni1189  1  0.20236867  0.50000000  0.31463160  1.0
  Ni  Ni1190  1  0.20236867  0.83333333  0.31463160  1.0
  Ni  Ni1191  1  0.53570200  0.16666667  0.31463160  1.0
  Ni  Ni1192  1  0.53570200  0.50000000  0.31463160  1.0
  Ni  Ni1193  1  0.53570200  0.83333333  0.31463160  1.0
  Ni  Ni1194  1  0.86903533  0.16666667  0.31463160  1.0
  Ni  Ni1195  1  0.86903533  0.50000000  0.31463160  1.0
  Ni  Ni1196  1  0.86903533  0.83333333  0.31463160  1.0
  Ni  Ni1197  1  0.20236867  0.00000000  0.21463160  1.0
  Ni  Ni1198  1  0.20236867  0.33333333  0.21463160  1.0
  Ni  Ni1199  1  0.20236867  0.66666667  0.21463160  1.0
  Ni  Ni1200  1  0.53570200  0.00000000  0.21463160  1.0
  Ni  Ni1201  1  0.53570200  0.33333333  0.21463160  1.0
  Ni  Ni1202  1  0.53570200  0.66666667  0.21463160  1.0
  Ni  Ni1203  1  0.86903533  0.00000000  0.21463160  1.0
  Ni  Ni1204  1  0.86903533  0.33333333  0.21463160  1.0
  Ni  Ni1205  1  0.86903533  0.66666667  0.21463160  1.0
  Ni  Ni1206  1  0.13096467  0.16666667  0.27259200  1.0
  Ni  Ni1207  1  0.13096467  0.50000000  0.27259200  1.0
  Ni  Ni1208  1  0.13096467  0.83333333  0.27259200  1.0
  Ni  Ni1209  1  0.46429800  0.16666667  0.27259200  1.0
  Ni  Ni1210  1  0.46429800  0.50000000  0.27259200  1.0
  Ni  Ni1211  1  0.46429800  0.83333333  0.27259200  1.0
  Ni  Ni1212  1  0.79763133  0.16666667  0.27259200  1.0
  Ni  Ni1213  1  0.79763133  0.50000000  0.27259200  1.0
  Ni  Ni1214  1  0.79763133  0.83333333  0.27259200  1.0
  Ni  Ni1215  1  0.13096467  0.00000000  0.37259200  1.0
  Ni  Ni1216  1  0.13096467  0.33333333  0.37259200  1.0
  Ni  Ni1217  1  0.13096467  0.66666667  0.37259200  1.0
  Ni  Ni1218  1  0.46429800  0.00000000  0.37259200  1.0
  Ni  Ni1219  1  0.46429800  0.33333333  0.37259200  1.0
  Ni  Ni1220  1  0.46429800  0.66666667  0.37259200  1.0
  Ni  Ni1221  1  0.79763133  0.00000000  0.37259200  1.0
  Ni  Ni1222  1  0.79763133  0.33333333  0.37259200  1.0
  Ni  Ni1223  1  0.79763133  0.66666667  0.37259200  1.0
