# generated using pymatgen
data_Hf7Ni10
_symmetry_space_group_name_H-M   'P 1'
_cell_length_a   35.61842263
_cell_length_b   38.55003549
_cell_length_c   34.73877051
_cell_angle_alpha   84.78395984
_cell_angle_beta   83.98649999
_cell_angle_gamma   74.13788084
_symmetry_Int_Tables_number   1
_chemical_formula_structural   Hf7Ni10
_chemical_formula_sum   'Hf504 Ni720'
_cell_volume   45533.93684753
_cell_formula_units_Z   72
loop_
 _symmetry_equiv_pos_site_id
 _symmetry_equiv_pos_as_xyz
  1  'x, y, z'
loop_
 _atom_site_type_symbol
 _atom_site_label
 _atom_site_symmetry_multiplicity
 _atom_site_fract_x
 _atom_site_fract_y
 _atom_site_fract_z
 _atom_site_occupancy
  Hf  Hf0  1  0.05104700  0.24760043  0.89594230  1.0
  Hf  Hf1  1  0.05104700  0.58093377  0.89594230  1.0
  Hf  Hf2  1  0.05104700  0.91426710  0.89594230  1.0
  Hf  Hf3  1  0.38438033  0.24760043  0.89594230  1.0
  Hf  Hf4  1  0.38438033  0.58093377  0.89594230  1.0
  Hf  Hf5  1  0.38438033  0.91426710  0.89594230  1.0
  Hf  Hf6  1  0.71771367  0.24760043  0.89594230  1.0
  Hf  Hf7  1  0.71771367  0.58093377  0.89594230  1.0
  Hf  Hf8  1  0.71771367  0.91426710  0.89594230  1.0
  Hf  Hf9  1  0.21771367  0.11426710  0.99594230  1.0
  Hf  Hf10  1  0.21771367  0.44760043  0.99594230  1.0
  Hf  Hf11  1  0.21771367  0.78093377  0.99594230  1.0
  Hf  Hf12  1  0.55104700  0.11426710  0.99594230  1.0
  Hf  Hf13  1  0.55104700  0.44760043  0.99594230  1.0
  Hf  Hf14  1  0.55104700  0.78093377  0.99594230  1.0
  Hf  Hf15  1  0.88438033  0.11426710  0.99594230  1.0
  Hf  Hf16  1  0.88438033  0.44760043  0.99594230  1.0
  Hf  Hf17  1  0.88438033  0.78093377  0.99594230  1.0
  Hf  Hf18  1  0.11561967  0.15510470  0.81217310  1.0
  Hf  Hf19  1  0.11561967  0.48843803  0.81217310  1.0
  Hf  Hf20  1  0.11561967  0.82177137  0.81217310  1.0
  Hf  Hf21  1  0.44895300  0.15510470  0.81217310  1.0
  Hf  Hf22  1  0.44895300  0.48843803  0.81217310  1.0
  Hf  Hf23  1  0.44895300  0.82177137  0.81217310  1.0
  Hf  Hf24  1  0.78228633  0.15510470  0.81217310  1.0
  Hf  Hf25  1  0.78228633  0.48843803  0.81217310  1.0
  Hf  Hf26  1  0.78228633  0.82177137  0.81217310  1.0
  Hf  Hf27  1  0.28228633  0.02177137  0.91217310  1.0
  Hf  Hf28  1  0.28228633  0.35510470  0.91217310  1.0
  Hf  Hf29  1  0.28228633  0.68843803  0.91217310  1.0
  Hf  Hf30  1  0.61561967  0.02177137  0.91217310  1.0
  Hf  Hf31  1  0.61561967  0.35510470  0.91217310  1.0
  Hf  Hf32  1  0.61561967  0.68843803  0.91217310  1.0
  Hf  Hf33  1  0.94895300  0.02177137  0.91217310  1.0
  Hf  Hf34  1  0.94895300  0.35510470  0.91217310  1.0
  Hf  Hf35  1  0.94895300  0.68843803  0.91217310  1.0
  Hf  Hf36  1  0.28228633  0.18843803  0.91217310  1.0
  Hf  Hf37  1  0.28228633  0.52177137  0.91217310  1.0
  Hf  Hf38  1  0.28228633  0.85510470  0.91217310  1.0
  Hf  Hf39  1  0.61561967  0.18843803  0.91217310  1.0
  Hf  Hf40  1  0.61561967  0.52177137  0.91217310  1.0
  Hf  Hf41  1  0.61561967  0.85510470  0.91217310  1.0
  Hf  Hf42  1  0.94895300  0.18843803  0.91217310  1.0
  Hf  Hf43  1  0.94895300  0.52177137  0.91217310  1.0
  Hf  Hf44  1  0.94895300  0.85510470  0.91217310  1.0
  Hf  Hf45  1  0.11561967  0.32177137  0.81217310  1.0
  Hf  Hf46  1  0.11561967  0.65510470  0.81217310  1.0
  Hf  Hf47  1  0.11561967  0.98843803  0.81217310  1.0
  Hf  Hf48  1  0.44895300  0.32177137  0.81217310  1.0
  Hf  Hf49  1  0.44895300  0.65510470  0.81217310  1.0
  Hf  Hf50  1  0.44895300  0.98843803  0.81217310  1.0
  Hf  Hf51  1  0.78228633  0.32177137  0.81217310  1.0
  Hf  Hf52  1  0.78228633  0.65510470  0.81217310  1.0
  Hf  Hf53  1  0.78228633  0.98843803  0.81217310  1.0
  Hf  Hf54  1  0.05104700  0.08093377  0.89594230  1.0
  Hf  Hf55  1  0.05104700  0.41426710  0.89594230  1.0
  Hf  Hf56  1  0.05104700  0.74760043  0.89594230  1.0
  Hf  Hf57  1  0.38438033  0.08093377  0.89594230  1.0
  Hf  Hf58  1  0.38438033  0.41426710  0.89594230  1.0
  Hf  Hf59  1  0.38438033  0.74760043  0.89594230  1.0
  Hf  Hf60  1  0.71771367  0.08093377  0.89594230  1.0
  Hf  Hf61  1  0.71771367  0.41426710  0.89594230  1.0
  Hf  Hf62  1  0.71771367  0.74760043  0.89594230  1.0
  Hf  Hf63  1  0.21771367  0.28093377  0.99594230  1.0
  Hf  Hf64  1  0.21771367  0.61426710  0.99594230  1.0
  Hf  Hf65  1  0.21771367  0.94760043  0.99594230  1.0
  Hf  Hf66  1  0.55104700  0.28093377  0.99594230  1.0
  Hf  Hf67  1  0.55104700  0.61426710  0.99594230  1.0
  Hf  Hf68  1  0.55104700  0.94760043  0.99594230  1.0
  Hf  Hf69  1  0.88438033  0.28093377  0.99594230  1.0
  Hf  Hf70  1  0.88438033  0.61426710  0.99594230  1.0
  Hf  Hf71  1  0.88438033  0.94760043  0.99594230  1.0
  Hf  Hf72  1  0.16666667  0.13468590  0.90405770  1.0
  Hf  Hf73  1  0.16666667  0.46801923  0.90405770  1.0
  Hf  Hf74  1  0.16666667  0.80135257  0.90405770  1.0
  Hf  Hf75  1  0.50000000  0.13468590  0.90405770  1.0
  Hf  Hf76  1  0.50000000  0.46801923  0.90405770  1.0
  Hf  Hf77  1  0.50000000  0.80135257  0.90405770  1.0
  Hf  Hf78  1  0.83333333  0.13468590  0.90405770  1.0
  Hf  Hf79  1  0.83333333  0.46801923  0.90405770  1.0
  Hf  Hf80  1  0.83333333  0.80135257  0.90405770  1.0
  Hf  Hf81  1  0.33333333  0.26801923  0.80405770  1.0
  Hf  Hf82  1  0.33333333  0.60135257  0.80405770  1.0
  Hf  Hf83  1  0.33333333  0.93468590  0.80405770  1.0
  Hf  Hf84  1  0.66666667  0.26801923  0.80405770  1.0
  Hf  Hf85  1  0.66666667  0.60135257  0.80405770  1.0
  Hf  Hf86  1  0.66666667  0.93468590  0.80405770  1.0
  Hf  Hf87  1  0.00000000  0.26801923  0.80405770  1.0
  Hf  Hf88  1  0.00000000  0.60135257  0.80405770  1.0
  Hf  Hf89  1  0.00000000  0.93468590  0.80405770  1.0
  Hf  Hf90  1  0.33333333  0.10135257  0.80405770  1.0
  Hf  Hf91  1  0.33333333  0.43468590  0.80405770  1.0
  Hf  Hf92  1  0.33333333  0.76801923  0.80405770  1.0
  Hf  Hf93  1  0.66666667  0.10135257  0.80405770  1.0
  Hf  Hf94  1  0.66666667  0.43468590  0.80405770  1.0
  Hf  Hf95  1  0.66666667  0.76801923  0.80405770  1.0
  Hf  Hf96  1  0.00000000  0.10135257  0.80405770  1.0
  Hf  Hf97  1  0.00000000  0.43468590  0.80405770  1.0
  Hf  Hf98  1  0.00000000  0.76801923  0.80405770  1.0
  Hf  Hf99  1  0.16666667  0.30135257  0.90405770  1.0
  Hf  Hf100  1  0.16666667  0.63468590  0.90405770  1.0
  Hf  Hf101  1  0.16666667  0.96801923  0.90405770  1.0
  Hf  Hf102  1  0.50000000  0.30135257  0.90405770  1.0
  Hf  Hf103  1  0.50000000  0.63468590  0.90405770  1.0
  Hf  Hf104  1  0.50000000  0.96801923  0.90405770  1.0
  Hf  Hf105  1  0.83333333  0.30135257  0.90405770  1.0
  Hf  Hf106  1  0.83333333  0.63468590  0.90405770  1.0
  Hf  Hf107  1  0.83333333  0.96801923  0.90405770  1.0
  Hf  Hf108  1  0.12415600  0.06903203  0.82956410  1.0
  Hf  Hf109  1  0.12415600  0.40236537  0.82956410  1.0
  Hf  Hf110  1  0.12415600  0.73569870  0.82956410  1.0
  Hf  Hf111  1  0.45748933  0.06903203  0.82956410  1.0
  Hf  Hf112  1  0.45748933  0.40236537  0.82956410  1.0
  Hf  Hf113  1  0.45748933  0.73569870  0.82956410  1.0
  Hf  Hf114  1  0.79082267  0.06903203  0.82956410  1.0
  Hf  Hf115  1  0.79082267  0.40236537  0.82956410  1.0
  Hf  Hf116  1  0.79082267  0.73569870  0.82956410  1.0
  Hf  Hf117  1  0.29082267  0.26903203  0.92956410  1.0
  Hf  Hf118  1  0.29082267  0.60236537  0.92956410  1.0
  Hf  Hf119  1  0.29082267  0.93569870  0.92956410  1.0
  Hf  Hf120  1  0.62415600  0.26903203  0.92956410  1.0
  Hf  Hf121  1  0.62415600  0.60236537  0.92956410  1.0
  Hf  Hf122  1  0.62415600  0.93569870  0.92956410  1.0
  Hf  Hf123  1  0.95748933  0.26903203  0.92956410  1.0
  Hf  Hf124  1  0.95748933  0.60236537  0.92956410  1.0
  Hf  Hf125  1  0.95748933  0.93569870  0.92956410  1.0
  Hf  Hf126  1  0.20917733  0.20033977  0.97855130  1.0
  Hf  Hf127  1  0.20917733  0.53367310  0.97855130  1.0
  Hf  Hf128  1  0.20917733  0.86700643  0.97855130  1.0
  Hf  Hf129  1  0.54251067  0.20033977  0.97855130  1.0
  Hf  Hf130  1  0.54251067  0.53367310  0.97855130  1.0
  Hf  Hf131  1  0.54251067  0.86700643  0.97855130  1.0
  Hf  Hf132  1  0.87584400  0.20033977  0.97855130  1.0
  Hf  Hf133  1  0.87584400  0.53367310  0.97855130  1.0
  Hf  Hf134  1  0.87584400  0.86700643  0.97855130  1.0
  Hf  Hf135  1  0.04251067  0.00033977  0.87855130  1.0
  Hf  Hf136  1  0.04251067  0.33367310  0.87855130  1.0
  Hf  Hf137  1  0.04251067  0.66700643  0.87855130  1.0
  Hf  Hf138  1  0.37584400  0.00033977  0.87855130  1.0
  Hf  Hf139  1  0.37584400  0.33367310  0.87855130  1.0
  Hf  Hf140  1  0.37584400  0.66700643  0.87855130  1.0
  Hf  Hf141  1  0.70917733  0.00033977  0.87855130  1.0
  Hf  Hf142  1  0.70917733  0.33367310  0.87855130  1.0
  Hf  Hf143  1  0.70917733  0.66700643  0.87855130  1.0
  Hf  Hf144  1  0.29251067  0.10033977  0.92855130  1.0
  Hf  Hf145  1  0.29251067  0.43367310  0.92855130  1.0
  Hf  Hf146  1  0.29251067  0.76700643  0.92855130  1.0
  Hf  Hf147  1  0.62584400  0.10033977  0.92855130  1.0
  Hf  Hf148  1  0.62584400  0.43367310  0.92855130  1.0
  Hf  Hf149  1  0.62584400  0.76700643  0.92855130  1.0
  Hf  Hf150  1  0.95917733  0.10033977  0.92855130  1.0
  Hf  Hf151  1  0.95917733  0.43367310  0.92855130  1.0
  Hf  Hf152  1  0.95917733  0.76700643  0.92855130  1.0
  Hf  Hf153  1  0.12584400  0.23367310  0.82855130  1.0
  Hf  Hf154  1  0.12584400  0.56700643  0.82855130  1.0
  Hf  Hf155  1  0.12584400  0.90033977  0.82855130  1.0
  Hf  Hf156  1  0.45917733  0.23367310  0.82855130  1.0
  Hf  Hf157  1  0.45917733  0.56700643  0.82855130  1.0
  Hf  Hf158  1  0.45917733  0.90033977  0.82855130  1.0
  Hf  Hf159  1  0.79251067  0.23367310  0.82855130  1.0
  Hf  Hf160  1  0.79251067  0.56700643  0.82855130  1.0
  Hf  Hf161  1  0.79251067  0.90033977  0.82855130  1.0
  Hf  Hf162  1  0.04082267  0.16903203  0.87956410  1.0
  Hf  Hf163  1  0.04082267  0.50236537  0.87956410  1.0
  Hf  Hf164  1  0.04082267  0.83569870  0.87956410  1.0
  Hf  Hf165  1  0.37415600  0.16903203  0.87956410  1.0
  Hf  Hf166  1  0.37415600  0.50236537  0.87956410  1.0
  Hf  Hf167  1  0.37415600  0.83569870  0.87956410  1.0
  Hf  Hf168  1  0.70748933  0.16903203  0.87956410  1.0
  Hf  Hf169  1  0.70748933  0.50236537  0.87956410  1.0
  Hf  Hf170  1  0.70748933  0.83569870  0.87956410  1.0
  Hf  Hf171  1  0.20748933  0.03569870  0.97956410  1.0
  Hf  Hf172  1  0.20748933  0.36903203  0.97956410  1.0
  Hf  Hf173  1  0.20748933  0.70236537  0.97956410  1.0
  Hf  Hf174  1  0.54082267  0.03569870  0.97956410  1.0
  Hf  Hf175  1  0.54082267  0.36903203  0.97956410  1.0
  Hf  Hf176  1  0.54082267  0.70236537  0.97956410  1.0
  Hf  Hf177  1  0.87415600  0.03569870  0.97956410  1.0
  Hf  Hf178  1  0.87415600  0.36903203  0.97956410  1.0
  Hf  Hf179  1  0.87415600  0.70236537  0.97956410  1.0
  Hf  Hf180  1  0.08321467  0.17230930  0.95412890  1.0
  Hf  Hf181  1  0.08321467  0.50564263  0.95412890  1.0
  Hf  Hf182  1  0.08321467  0.83897597  0.95412890  1.0
  Hf  Hf183  1  0.41654800  0.17230930  0.95412890  1.0
  Hf  Hf184  1  0.41654800  0.50564263  0.95412890  1.0
  Hf  Hf185  1  0.41654800  0.83897597  0.95412890  1.0
  Hf  Hf186  1  0.74988133  0.17230930  0.95412890  1.0
  Hf  Hf187  1  0.74988133  0.50564263  0.95412890  1.0
  Hf  Hf188  1  0.74988133  0.83897597  0.95412890  1.0
  Hf  Hf189  1  0.24988133  0.30564263  0.85412890  1.0
  Hf  Hf190  1  0.24988133  0.63897597  0.85412890  1.0
  Hf  Hf191  1  0.24988133  0.97230930  0.85412890  1.0
  Hf  Hf192  1  0.58321467  0.30564263  0.85412890  1.0
  Hf  Hf193  1  0.58321467  0.63897597  0.85412890  1.0
  Hf  Hf194  1  0.58321467  0.97230930  0.85412890  1.0
  Hf  Hf195  1  0.91654800  0.30564263  0.85412890  1.0
  Hf  Hf196  1  0.91654800  0.63897597  0.85412890  1.0
  Hf  Hf197  1  0.91654800  0.97230930  0.85412890  1.0
  Hf  Hf198  1  0.25011867  0.09706250  0.85398650  1.0
  Hf  Hf199  1  0.25011867  0.43039583  0.85398650  1.0
  Hf  Hf200  1  0.25011867  0.76372917  0.85398650  1.0
  Hf  Hf201  1  0.58345200  0.09706250  0.85398650  1.0
  Hf  Hf202  1  0.58345200  0.43039583  0.85398650  1.0
  Hf  Hf203  1  0.58345200  0.76372917  0.85398650  1.0
  Hf  Hf204  1  0.91678533  0.09706250  0.85398650  1.0
  Hf  Hf205  1  0.91678533  0.43039583  0.85398650  1.0
  Hf  Hf206  1  0.91678533  0.76372917  0.85398650  1.0
  Hf  Hf207  1  0.08345200  0.29706250  0.95398650  1.0
  Hf  Hf208  1  0.08345200  0.63039583  0.95398650  1.0
  Hf  Hf209  1  0.08345200  0.96372917  0.95398650  1.0
  Hf  Hf210  1  0.41678533  0.29706250  0.95398650  1.0
  Hf  Hf211  1  0.41678533  0.63039583  0.95398650  1.0
  Hf  Hf212  1  0.41678533  0.96372917  0.95398650  1.0
  Hf  Hf213  1  0.75011867  0.29706250  0.95398650  1.0
  Hf  Hf214  1  0.75011867  0.63039583  0.95398650  1.0
  Hf  Hf215  1  0.75011867  0.96372917  0.95398650  1.0
  Hf  Hf216  1  0.02093300  0.08038063  0.99149790  1.0
  Hf  Hf217  1  0.02093300  0.41371397  0.99149790  1.0
  Hf  Hf218  1  0.02093300  0.74704730  0.99149790  1.0
  Hf  Hf219  1  0.35426633  0.08038063  0.99149790  1.0
  Hf  Hf220  1  0.35426633  0.41371397  0.99149790  1.0
  Hf  Hf221  1  0.35426633  0.74704730  0.99149790  1.0
  Hf  Hf222  1  0.68759967  0.08038063  0.99149790  1.0
  Hf  Hf223  1  0.68759967  0.41371397  0.99149790  1.0
  Hf  Hf224  1  0.68759967  0.74704730  0.99149790  1.0
  Hf  Hf225  1  0.18759967  0.21371397  0.89149790  1.0
  Hf  Hf226  1  0.18759967  0.54704730  0.89149790  1.0
  Hf  Hf227  1  0.18759967  0.88038063  0.89149790  1.0
  Hf  Hf228  1  0.52093300  0.21371397  0.89149790  1.0
  Hf  Hf229  1  0.52093300  0.54704730  0.89149790  1.0
  Hf  Hf230  1  0.52093300  0.88038063  0.89149790  1.0
  Hf  Hf231  1  0.85426633  0.21371397  0.89149790  1.0
  Hf  Hf232  1  0.85426633  0.54704730  0.89149790  1.0
  Hf  Hf233  1  0.85426633  0.88038063  0.89149790  1.0
  Hf  Hf234  1  0.31240033  0.18899117  0.81661750  1.0
  Hf  Hf235  1  0.31240033  0.52232450  0.81661750  1.0
  Hf  Hf236  1  0.31240033  0.85565783  0.81661750  1.0
  Hf  Hf237  1  0.64573367  0.18899117  0.81661750  1.0
  Hf  Hf238  1  0.64573367  0.52232450  0.81661750  1.0
  Hf  Hf239  1  0.64573367  0.85565783  0.81661750  1.0
  Hf  Hf240  1  0.97906700  0.18899117  0.81661750  1.0
  Hf  Hf241  1  0.97906700  0.52232450  0.81661750  1.0
  Hf  Hf242  1  0.97906700  0.85565783  0.81661750  1.0
  Hf  Hf243  1  0.14573367  0.05565783  0.91661750  1.0
  Hf  Hf244  1  0.14573367  0.38899117  0.91661750  1.0
  Hf  Hf245  1  0.14573367  0.72232450  0.91661750  1.0
  Hf  Hf246  1  0.47906700  0.05565783  0.91661750  1.0
  Hf  Hf247  1  0.47906700  0.38899117  0.91661750  1.0
  Hf  Hf248  1  0.47906700  0.72232450  0.91661750  1.0
  Hf  Hf249  1  0.81240033  0.05565783  0.91661750  1.0
  Hf  Hf250  1  0.81240033  0.38899117  0.91661750  1.0
  Hf  Hf251  1  0.81240033  0.72232450  0.91661750  1.0
  Hf  Hf252  1  0.05104700  0.18093377  0.69594230  1.0
  Hf  Hf253  1  0.05104700  0.51426710  0.69594230  1.0
  Hf  Hf254  1  0.05104700  0.84760043  0.69594230  1.0
  Hf  Hf255  1  0.38438033  0.18093377  0.69594230  1.0
  Hf  Hf256  1  0.38438033  0.51426710  0.69594230  1.0
  Hf  Hf257  1  0.38438033  0.84760043  0.69594230  1.0
  Hf  Hf258  1  0.71771367  0.18093377  0.69594230  1.0
  Hf  Hf259  1  0.71771367  0.51426710  0.69594230  1.0
  Hf  Hf260  1  0.71771367  0.84760043  0.69594230  1.0
  Hf  Hf261  1  0.21771367  0.04760043  0.79594230  1.0
  Hf  Hf262  1  0.21771367  0.38093377  0.79594230  1.0
  Hf  Hf263  1  0.21771367  0.71426710  0.79594230  1.0
  Hf  Hf264  1  0.55104700  0.04760043  0.79594230  1.0
  Hf  Hf265  1  0.55104700  0.38093377  0.79594230  1.0
  Hf  Hf266  1  0.55104700  0.71426710  0.79594230  1.0
  Hf  Hf267  1  0.88438033  0.04760043  0.79594230  1.0
  Hf  Hf268  1  0.88438033  0.38093377  0.79594230  1.0
  Hf  Hf269  1  0.88438033  0.71426710  0.79594230  1.0
  Hf  Hf270  1  0.11561967  0.08843803  0.61217310  1.0
  Hf  Hf271  1  0.11561967  0.42177137  0.61217310  1.0
  Hf  Hf272  1  0.11561967  0.75510470  0.61217310  1.0
  Hf  Hf273  1  0.44895300  0.08843803  0.61217310  1.0
  Hf  Hf274  1  0.44895300  0.42177137  0.61217310  1.0
  Hf  Hf275  1  0.44895300  0.75510470  0.61217310  1.0
  Hf  Hf276  1  0.78228633  0.08843803  0.61217310  1.0
  Hf  Hf277  1  0.78228633  0.42177137  0.61217310  1.0
  Hf  Hf278  1  0.78228633  0.75510470  0.61217310  1.0
  Hf  Hf279  1  0.28228633  0.28843803  0.71217310  1.0
  Hf  Hf280  1  0.28228633  0.62177137  0.71217310  1.0
  Hf  Hf281  1  0.28228633  0.95510470  0.71217310  1.0
  Hf  Hf282  1  0.61561967  0.28843803  0.71217310  1.0
  Hf  Hf283  1  0.61561967  0.62177137  0.71217310  1.0
  Hf  Hf284  1  0.61561967  0.95510470  0.71217310  1.0
  Hf  Hf285  1  0.94895300  0.28843803  0.71217310  1.0
  Hf  Hf286  1  0.94895300  0.62177137  0.71217310  1.0
  Hf  Hf287  1  0.94895300  0.95510470  0.71217310  1.0
  Hf  Hf288  1  0.28228633  0.12177137  0.71217310  1.0
  Hf  Hf289  1  0.28228633  0.45510470  0.71217310  1.0
  Hf  Hf290  1  0.28228633  0.78843803  0.71217310  1.0
  Hf  Hf291  1  0.61561967  0.12177137  0.71217310  1.0
  Hf  Hf292  1  0.61561967  0.45510470  0.71217310  1.0
  Hf  Hf293  1  0.61561967  0.78843803  0.71217310  1.0
  Hf  Hf294  1  0.94895300  0.12177137  0.71217310  1.0
  Hf  Hf295  1  0.94895300  0.45510470  0.71217310  1.0
  Hf  Hf296  1  0.94895300  0.78843803  0.71217310  1.0
  Hf  Hf297  1  0.11561967  0.25510470  0.61217310  1.0
  Hf  Hf298  1  0.11561967  0.58843803  0.61217310  1.0
  Hf  Hf299  1  0.11561967  0.92177137  0.61217310  1.0
  Hf  Hf300  1  0.44895300  0.25510470  0.61217310  1.0
  Hf  Hf301  1  0.44895300  0.58843803  0.61217310  1.0
  Hf  Hf302  1  0.44895300  0.92177137  0.61217310  1.0
  Hf  Hf303  1  0.78228633  0.25510470  0.61217310  1.0
  Hf  Hf304  1  0.78228633  0.58843803  0.61217310  1.0
  Hf  Hf305  1  0.78228633  0.92177137  0.61217310  1.0
  Hf  Hf306  1  0.05104700  0.01426710  0.69594230  1.0
  Hf  Hf307  1  0.05104700  0.34760043  0.69594230  1.0
  Hf  Hf308  1  0.05104700  0.68093377  0.69594230  1.0
  Hf  Hf309  1  0.38438033  0.01426710  0.69594230  1.0
  Hf  Hf310  1  0.38438033  0.34760043  0.69594230  1.0
  Hf  Hf311  1  0.38438033  0.68093377  0.69594230  1.0
  Hf  Hf312  1  0.71771367  0.01426710  0.69594230  1.0
  Hf  Hf313  1  0.71771367  0.34760043  0.69594230  1.0
  Hf  Hf314  1  0.71771367  0.68093377  0.69594230  1.0
  Hf  Hf315  1  0.21771367  0.21426710  0.79594230  1.0
  Hf  Hf316  1  0.21771367  0.54760043  0.79594230  1.0
  Hf  Hf317  1  0.21771367  0.88093377  0.79594230  1.0
  Hf  Hf318  1  0.55104700  0.21426710  0.79594230  1.0
  Hf  Hf319  1  0.55104700  0.54760043  0.79594230  1.0
  Hf  Hf320  1  0.55104700  0.88093377  0.79594230  1.0
  Hf  Hf321  1  0.88438033  0.21426710  0.79594230  1.0
  Hf  Hf322  1  0.88438033  0.54760043  0.79594230  1.0
  Hf  Hf323  1  0.88438033  0.88093377  0.79594230  1.0
  Hf  Hf324  1  0.16666667  0.06801923  0.70405770  1.0
  Hf  Hf325  1  0.16666667  0.40135257  0.70405770  1.0
  Hf  Hf326  1  0.16666667  0.73468590  0.70405770  1.0
  Hf  Hf327  1  0.50000000  0.06801923  0.70405770  1.0
  Hf  Hf328  1  0.50000000  0.40135257  0.70405770  1.0
  Hf  Hf329  1  0.50000000  0.73468590  0.70405770  1.0
  Hf  Hf330  1  0.83333333  0.06801923  0.70405770  1.0
  Hf  Hf331  1  0.83333333  0.40135257  0.70405770  1.0
  Hf  Hf332  1  0.83333333  0.73468590  0.70405770  1.0
  Hf  Hf333  1  0.33333333  0.20135257  0.60405770  1.0
  Hf  Hf334  1  0.33333333  0.53468590  0.60405770  1.0
  Hf  Hf335  1  0.33333333  0.86801923  0.60405770  1.0
  Hf  Hf336  1  0.66666667  0.20135257  0.60405770  1.0
  Hf  Hf337  1  0.66666667  0.53468590  0.60405770  1.0
  Hf  Hf338  1  0.66666667  0.86801923  0.60405770  1.0
  Hf  Hf339  1  0.00000000  0.20135257  0.60405770  1.0
  Hf  Hf340  1  0.00000000  0.53468590  0.60405770  1.0
  Hf  Hf341  1  1.00000000  0.86801923  0.60405770  1.0
  Hf  Hf342  1  0.33333333  0.03468590  0.60405770  1.0
  Hf  Hf343  1  0.33333333  0.36801923  0.60405770  1.0
  Hf  Hf344  1  0.33333333  0.70135257  0.60405770  1.0
  Hf  Hf345  1  0.66666667  0.03468590  0.60405770  1.0
  Hf  Hf346  1  0.66666667  0.36801923  0.60405770  1.0
  Hf  Hf347  1  0.66666667  0.70135257  0.60405770  1.0
  Hf  Hf348  1  1.00000000  0.03468590  0.60405770  1.0
  Hf  Hf349  1  0.00000000  0.36801923  0.60405770  1.0
  Hf  Hf350  1  0.00000000  0.70135257  0.60405770  1.0
  Hf  Hf351  1  0.16666667  0.23468590  0.70405770  1.0
  Hf  Hf352  1  0.16666667  0.56801923  0.70405770  1.0
  Hf  Hf353  1  0.16666667  0.90135257  0.70405770  1.0
  Hf  Hf354  1  0.50000000  0.23468590  0.70405770  1.0
  Hf  Hf355  1  0.50000000  0.56801923  0.70405770  1.0
  Hf  Hf356  1  0.50000000  0.90135257  0.70405770  1.0
  Hf  Hf357  1  0.83333333  0.23468590  0.70405770  1.0
  Hf  Hf358  1  0.83333333  0.56801923  0.70405770  1.0
  Hf  Hf359  1  0.83333333  0.90135257  0.70405770  1.0
  Hf  Hf360  1  0.12415600  0.00236537  0.62956410  1.0
  Hf  Hf361  1  0.12415600  0.33569870  0.62956410  1.0
  Hf  Hf362  1  0.12415600  0.66903203  0.62956410  1.0
  Hf  Hf363  1  0.45748933  0.00236537  0.62956410  1.0
  Hf  Hf364  1  0.45748933  0.33569870  0.62956410  1.0
  Hf  Hf365  1  0.45748933  0.66903203  0.62956410  1.0
  Hf  Hf366  1  0.79082267  0.00236537  0.62956410  1.0
  Hf  Hf367  1  0.79082267  0.33569870  0.62956410  1.0
  Hf  Hf368  1  0.79082267  0.66903203  0.62956410  1.0
  Hf  Hf369  1  0.29082267  0.20236537  0.72956410  1.0
  Hf  Hf370  1  0.29082267  0.53569870  0.72956410  1.0
  Hf  Hf371  1  0.29082267  0.86903203  0.72956410  1.0
  Hf  Hf372  1  0.62415600  0.20236537  0.72956410  1.0
  Hf  Hf373  1  0.62415600  0.53569870  0.72956410  1.0
  Hf  Hf374  1  0.62415600  0.86903203  0.72956410  1.0
  Hf  Hf375  1  0.95748933  0.20236537  0.72956410  1.0
  Hf  Hf376  1  0.95748933  0.53569870  0.72956410  1.0
  Hf  Hf377  1  0.95748933  0.86903203  0.72956410  1.0
  Hf  Hf378  1  0.20917733  0.13367310  0.77855130  1.0
  Hf  Hf379  1  0.20917733  0.46700643  0.77855130  1.0
  Hf  Hf380  1  0.20917733  0.80033977  0.77855130  1.0
  Hf  Hf381  1  0.54251067  0.13367310  0.77855130  1.0
  Hf  Hf382  1  0.54251067  0.46700643  0.77855130  1.0
  Hf  Hf383  1  0.54251067  0.80033977  0.77855130  1.0
  Hf  Hf384  1  0.87584400  0.13367310  0.77855130  1.0
  Hf  Hf385  1  0.87584400  0.46700643  0.77855130  1.0
  Hf  Hf386  1  0.87584400  0.80033977  0.77855130  1.0
  Hf  Hf387  1  0.04251067  0.26700643  0.67855130  1.0
  Hf  Hf388  1  0.04251067  0.60033977  0.67855130  1.0
  Hf  Hf389  1  0.04251067  0.93367310  0.67855130  1.0
  Hf  Hf390  1  0.37584400  0.26700643  0.67855130  1.0
  Hf  Hf391  1  0.37584400  0.60033977  0.67855130  1.0
  Hf  Hf392  1  0.37584400  0.93367310  0.67855130  1.0
  Hf  Hf393  1  0.70917733  0.26700643  0.67855130  1.0
  Hf  Hf394  1  0.70917733  0.60033977  0.67855130  1.0
  Hf  Hf395  1  0.70917733  0.93367310  0.67855130  1.0
  Hf  Hf396  1  0.29251067  0.03367310  0.72855130  1.0
  Hf  Hf397  1  0.29251067  0.36700643  0.72855130  1.0
  Hf  Hf398  1  0.29251067  0.70033977  0.72855130  1.0
  Hf  Hf399  1  0.62584400  0.03367310  0.72855130  1.0
  Hf  Hf400  1  0.62584400  0.36700643  0.72855130  1.0
  Hf  Hf401  1  0.62584400  0.70033977  0.72855130  1.0
  Hf  Hf402  1  0.95917733  0.03367310  0.72855130  1.0
  Hf  Hf403  1  0.95917733  0.36700643  0.72855130  1.0
  Hf  Hf404  1  0.95917733  0.70033977  0.72855130  1.0
  Hf  Hf405  1  0.12584400  0.16700643  0.62855130  1.0
  Hf  Hf406  1  0.12584400  0.50033977  0.62855130  1.0
  Hf  Hf407  1  0.12584400  0.83367310  0.62855130  1.0
  Hf  Hf408  1  0.45917733  0.16700643  0.62855130  1.0
  Hf  Hf409  1  0.45917733  0.50033977  0.62855130  1.0
  Hf  Hf410  1  0.45917733  0.83367310  0.62855130  1.0
  Hf  Hf411  1  0.79251067  0.16700643  0.62855130  1.0
  Hf  Hf412  1  0.79251067  0.50033977  0.62855130  1.0
  Hf  Hf413  1  0.79251067  0.83367310  0.62855130  1.0
  Hf  Hf414  1  0.04082267  0.10236537  0.67956410  1.0
  Hf  Hf415  1  0.04082267  0.43569870  0.67956410  1.0
  Hf  Hf416  1  0.04082267  0.76903203  0.67956410  1.0
  Hf  Hf417  1  0.37415600  0.10236537  0.67956410  1.0
  Hf  Hf418  1  0.37415600  0.43569870  0.67956410  1.0
  Hf  Hf419  1  0.37415600  0.76903203  0.67956410  1.0
  Hf  Hf420  1  0.70748933  0.10236537  0.67956410  1.0
  Hf  Hf421  1  0.70748933  0.43569870  0.67956410  1.0
  Hf  Hf422  1  0.70748933  0.76903203  0.67956410  1.0
  Hf  Hf423  1  0.20748933  0.30236537  0.77956410  1.0
  Hf  Hf424  1  0.20748933  0.63569870  0.77956410  1.0
  Hf  Hf425  1  0.20748933  0.96903203  0.77956410  1.0
  Hf  Hf426  1  0.54082267  0.30236537  0.77956410  1.0
  Hf  Hf427  1  0.54082267  0.63569870  0.77956410  1.0
  Hf  Hf428  1  0.54082267  0.96903203  0.77956410  1.0
  Hf  Hf429  1  0.87415600  0.30236537  0.77956410  1.0
  Hf  Hf430  1  0.87415600  0.63569870  0.77956410  1.0
  Hf  Hf431  1  0.87415600  0.96903203  0.77956410  1.0
  Hf  Hf432  1  0.08321467  0.10564263  0.75412890  1.0
  Hf  Hf433  1  0.08321467  0.43897597  0.75412890  1.0
  Hf  Hf434  1  0.08321467  0.77230930  0.75412890  1.0
  Hf  Hf435  1  0.41654800  0.10564263  0.75412890  1.0
  Hf  Hf436  1  0.41654800  0.43897597  0.75412890  1.0
  Hf  Hf437  1  0.41654800  0.77230930  0.75412890  1.0
  Hf  Hf438  1  0.74988133  0.10564263  0.75412890  1.0
  Hf  Hf439  1  0.74988133  0.43897597  0.75412890  1.0
  Hf  Hf440  1  0.74988133  0.77230930  0.75412890  1.0
  Hf  Hf441  1  0.24988133  0.23897597  0.65412890  1.0
  Hf  Hf442  1  0.24988133  0.57230930  0.65412890  1.0
  Hf  Hf443  1  0.24988133  0.90564263  0.65412890  1.0
  Hf  Hf444  1  0.58321467  0.23897597  0.65412890  1.0
  Hf  Hf445  1  0.58321467  0.57230930  0.65412890  1.0
  Hf  Hf446  1  0.58321467  0.90564263  0.65412890  1.0
  Hf  Hf447  1  0.91654800  0.23897597  0.65412890  1.0
  Hf  Hf448  1  0.91654800  0.57230930  0.65412890  1.0
  Hf  Hf449  1  0.91654800  0.90564263  0.65412890  1.0
  Hf  Hf450  1  0.25011867  0.03039583  0.65398650  1.0
  Hf  Hf451  1  0.25011867  0.36372917  0.65398650  1.0
  Hf  Hf452  1  0.25011867  0.69706250  0.65398650  1.0
  Hf  Hf453  1  0.58345200  0.03039583  0.65398650  1.0
  Hf  Hf454  1  0.58345200  0.36372917  0.65398650  1.0
  Hf  Hf455  1  0.58345200  0.69706250  0.65398650  1.0
  Hf  Hf456  1  0.91678533  0.03039583  0.65398650  1.0
  Hf  Hf457  1  0.91678533  0.36372917  0.65398650  1.0
  Hf  Hf458  1  0.91678533  0.69706250  0.65398650  1.0
  Hf  Hf459  1  0.08345200  0.23039583  0.75398650  1.0
  Hf  Hf460  1  0.08345200  0.56372917  0.75398650  1.0
  Hf  Hf461  1  0.08345200  0.89706250  0.75398650  1.0
  Hf  Hf462  1  0.41678533  0.23039583  0.75398650  1.0
  Hf  Hf463  1  0.41678533  0.56372917  0.75398650  1.0
  Hf  Hf464  1  0.41678533  0.89706250  0.75398650  1.0
  Hf  Hf465  1  0.75011867  0.23039583  0.75398650  1.0
  Hf  Hf466  1  0.75011867  0.56372917  0.75398650  1.0
  Hf  Hf467  1  0.75011867  0.89706250  0.75398650  1.0
  Hf  Hf468  1  0.02093300  0.01371397  0.79149790  1.0
  Hf  Hf469  1  0.02093300  0.34704730  0.79149790  1.0
  Hf  Hf470  1  0.02093300  0.68038063  0.79149790  1.0
  Hf  Hf471  1  0.35426633  0.01371397  0.79149790  1.0
  Hf  Hf472  1  0.35426633  0.34704730  0.79149790  1.0
  Hf  Hf473  1  0.35426633  0.68038063  0.79149790  1.0
  Hf  Hf474  1  0.68759967  0.01371397  0.79149790  1.0
  Hf  Hf475  1  0.68759967  0.34704730  0.79149790  1.0
  Hf  Hf476  1  0.68759967  0.68038063  0.79149790  1.0
  Hf  Hf477  1  0.18759967  0.14704730  0.69149790  1.0
  Hf  Hf478  1  0.18759967  0.48038063  0.69149790  1.0
  Hf  Hf479  1  0.18759967  0.81371397  0.69149790  1.0
  Hf  Hf480  1  0.52093300  0.14704730  0.69149790  1.0
  Hf  Hf481  1  0.52093300  0.48038063  0.69149790  1.0
  Hf  Hf482  1  0.52093300  0.81371397  0.69149790  1.0
  Hf  Hf483  1  0.85426633  0.14704730  0.69149790  1.0
  Hf  Hf484  1  0.85426633  0.48038063  0.69149790  1.0
  Hf  Hf485  1  0.85426633  0.81371397  0.69149790  1.0
  Hf  Hf486  1  0.31240033  0.12232450  0.61661750  1.0
  Hf  Hf487  1  0.31240033  0.45565783  0.61661750  1.0
  Hf  Hf488  1  0.31240033  0.78899117  0.61661750  1.0
  Hf  Hf489  1  0.64573367  0.12232450  0.61661750  1.0
  Hf  Hf490  1  0.64573367  0.45565783  0.61661750  1.0
  Hf  Hf491  1  0.64573367  0.78899117  0.61661750  1.0
  Hf  Hf492  1  0.97906700  0.12232450  0.61661750  1.0
  Hf  Hf493  1  0.97906700  0.45565783  0.61661750  1.0
  Hf  Hf494  1  0.97906700  0.78899117  0.61661750  1.0
  Hf  Hf495  1  0.14573367  0.32232450  0.71661750  1.0
  Hf  Hf496  1  0.14573367  0.65565783  0.71661750  1.0
  Hf  Hf497  1  0.14573367  0.98899117  0.71661750  1.0
  Hf  Hf498  1  0.47906700  0.32232450  0.71661750  1.0
  Hf  Hf499  1  0.47906700  0.65565783  0.71661750  1.0
  Hf  Hf500  1  0.47906700  0.98899117  0.71661750  1.0
  Hf  Hf501  1  0.81240033  0.32232450  0.71661750  1.0
  Hf  Hf502  1  0.81240033  0.65565783  0.71661750  1.0
  Hf  Hf503  1  0.81240033  0.98899117  0.71661750  1.0
  Ni  Ni504  1  0.32093167  0.23272423  0.86926470  1.0
  Ni  Ni505  1  0.32093167  0.56605757  0.86926470  1.0
  Ni  Ni506  1  0.32093167  0.89939090  0.86926470  1.0
  Ni  Ni507  1  0.65426500  0.23272423  0.86926470  1.0
  Ni  Ni508  1  0.65426500  0.56605757  0.86926470  1.0
  Ni  Ni509  1  0.65426500  0.89939090  0.86926470  1.0
  Ni  Ni510  1  0.98759833  0.23272423  0.86926470  1.0
  Ni  Ni511  1  0.98759833  0.56605757  0.86926470  1.0
  Ni  Ni512  1  0.98759833  0.89939090  0.86926470  1.0
  Ni  Ni513  1  0.15426500  0.09939090  0.96926470  1.0
  Ni  Ni514  1  0.15426500  0.43272423  0.96926470  1.0
  Ni  Ni515  1  0.15426500  0.76605757  0.96926470  1.0
  Ni  Ni516  1  0.48759833  0.09939090  0.96926470  1.0
  Ni  Ni517  1  0.48759833  0.43272423  0.96926470  1.0
  Ni  Ni518  1  0.48759833  0.76605757  0.96926470  1.0
  Ni  Ni519  1  0.82093167  0.09939090  0.96926470  1.0
  Ni  Ni520  1  0.82093167  0.43272423  0.96926470  1.0
  Ni  Ni521  1  0.82093167  0.76605757  0.96926470  1.0
  Ni  Ni522  1  0.01240167  0.03664757  0.93885070  1.0
  Ni  Ni523  1  0.01240167  0.36998090  0.93885070  1.0
  Ni  Ni524  1  0.01240167  0.70331423  0.93885070  1.0
  Ni  Ni525  1  0.34573500  0.03664757  0.93885070  1.0
  Ni  Ni526  1  0.34573500  0.36998090  0.93885070  1.0
  Ni  Ni527  1  0.34573500  0.70331423  0.93885070  1.0
  Ni  Ni528  1  0.67906833  0.03664757  0.93885070  1.0
  Ni  Ni529  1  0.67906833  0.36998090  0.93885070  1.0
  Ni  Ni530  1  0.67906833  0.70331423  0.93885070  1.0
  Ni  Ni531  1  0.17906833  0.16998090  0.83885070  1.0
  Ni  Ni532  1  0.17906833  0.50331423  0.83885070  1.0
  Ni  Ni533  1  0.17906833  0.83664757  0.83885070  1.0
  Ni  Ni534  1  0.51240167  0.16998090  0.83885070  1.0
  Ni  Ni535  1  0.51240167  0.50331423  0.83885070  1.0
  Ni  Ni536  1  0.51240167  0.83664757  0.83885070  1.0
  Ni  Ni537  1  0.84573500  0.16998090  0.83885070  1.0
  Ni  Ni538  1  0.84573500  0.50331423  0.83885070  1.0
  Ni  Ni539  1  0.84573500  0.83664757  0.83885070  1.0
  Ni  Ni540  1  0.27630267  0.14776837  0.98051010  1.0
  Ni  Ni541  1  0.27630267  0.48110170  0.98051010  1.0
  Ni  Ni542  1  0.27630267  0.81443503  0.98051010  1.0
  Ni  Ni543  1  0.60963600  0.14776837  0.98051010  1.0
  Ni  Ni544  1  0.60963600  0.48110170  0.98051010  1.0
  Ni  Ni545  1  0.60963600  0.81443503  0.98051010  1.0
  Ni  Ni546  1  0.94296933  0.14776837  0.98051010  1.0
  Ni  Ni547  1  0.94296933  0.48110170  0.98051010  1.0
  Ni  Ni548  1  0.94296933  0.81443503  0.98051010  1.0
  Ni  Ni549  1  0.10963600  0.28110170  0.88051010  1.0
  Ni  Ni550  1  0.10963600  0.61443503  0.88051010  1.0
  Ni  Ni551  1  0.10963600  0.94776837  0.88051010  1.0
  Ni  Ni552  1  0.44296933  0.28110170  0.88051010  1.0
  Ni  Ni553  1  0.44296933  0.61443503  0.88051010  1.0
  Ni  Ni554  1  0.44296933  0.94776837  0.88051010  1.0
  Ni  Ni555  1  0.77630267  0.28110170  0.88051010  1.0
  Ni  Ni556  1  0.77630267  0.61443503  0.88051010  1.0
  Ni  Ni557  1  0.77630267  0.94776837  0.88051010  1.0
  Ni  Ni558  1  0.00889233  0.20752543  0.94095630  1.0
  Ni  Ni559  1  0.00889233  0.54085877  0.94095630  1.0
  Ni  Ni560  1  0.00889233  0.87419210  0.94095630  1.0
  Ni  Ni561  1  0.34222567  0.20752543  0.94095630  1.0
  Ni  Ni562  1  0.34222567  0.54085877  0.94095630  1.0
  Ni  Ni563  1  0.34222567  0.87419210  0.94095630  1.0
  Ni  Ni564  1  0.67555900  0.20752543  0.94095630  1.0
  Ni  Ni565  1  0.67555900  0.54085877  0.94095630  1.0
  Ni  Ni566  1  0.67555900  0.87419210  0.94095630  1.0
  Ni  Ni567  1  0.17555900  0.00752543  0.84095630  1.0
  Ni  Ni568  1  0.17555900  0.34085877  0.84095630  1.0
  Ni  Ni569  1  0.17555900  0.67419210  0.84095630  1.0
  Ni  Ni570  1  0.50889233  0.00752543  0.84095630  1.0
  Ni  Ni571  1  0.50889233  0.34085877  0.84095630  1.0
  Ni  Ni572  1  0.50889233  0.67419210  0.84095630  1.0
  Ni  Ni573  1  0.84222567  0.00752543  0.84095630  1.0
  Ni  Ni574  1  0.84222567  0.34085877  0.84095630  1.0
  Ni  Ni575  1  0.84222567  0.67419210  0.84095630  1.0
  Ni  Ni576  1  0.05703067  0.12160343  0.82760530  1.0
  Ni  Ni577  1  0.05703067  0.45493677  0.82760530  1.0
  Ni  Ni578  1  0.05703067  0.78827010  0.82760530  1.0
  Ni  Ni579  1  0.39036400  0.12160343  0.82760530  1.0
  Ni  Ni580  1  0.39036400  0.45493677  0.82760530  1.0
  Ni  Ni581  1  0.39036400  0.78827010  0.82760530  1.0
  Ni  Ni582  1  0.72369733  0.12160343  0.82760530  1.0
  Ni  Ni583  1  0.72369733  0.45493677  0.82760530  1.0
  Ni  Ni584  1  0.72369733  0.78827010  0.82760530  1.0
  Ni  Ni585  1  0.22369733  0.32160343  0.92760530  1.0
  Ni  Ni586  1  0.22369733  0.65493677  0.92760530  1.0
  Ni  Ni587  1  0.22369733  0.98827010  0.92760530  1.0
  Ni  Ni588  1  0.55703067  0.32160343  0.92760530  1.0
  Ni  Ni589  1  0.55703067  0.65493677  0.92760530  1.0
  Ni  Ni590  1  0.55703067  0.98827010  0.92760530  1.0
  Ni  Ni591  1  0.89036400  0.32160343  0.92760530  1.0
  Ni  Ni592  1  0.89036400  0.65493677  0.92760530  1.0
  Ni  Ni593  1  0.89036400  0.98827010  0.92760530  1.0
  Ni  Ni594  1  0.32444100  0.06184637  0.86715910  1.0
  Ni  Ni595  1  0.32444100  0.39517970  0.86715910  1.0
  Ni  Ni596  1  0.32444100  0.72851303  0.86715910  1.0
  Ni  Ni597  1  0.65777433  0.06184637  0.86715910  1.0
  Ni  Ni598  1  0.65777433  0.39517970  0.86715910  1.0
  Ni  Ni599  1  0.65777433  0.72851303  0.86715910  1.0
  Ni  Ni600  1  0.99110767  0.06184637  0.86715910  1.0
  Ni  Ni601  1  0.99110767  0.39517970  0.86715910  1.0
  Ni  Ni602  1  0.99110767  0.72851303  0.86715910  1.0
  Ni  Ni603  1  0.15777433  0.26184637  0.96715910  1.0
  Ni  Ni604  1  0.15777433  0.59517970  0.96715910  1.0
  Ni  Ni605  1  0.15777433  0.92851303  0.96715910  1.0
  Ni  Ni606  1  0.49110767  0.26184637  0.96715910  1.0
  Ni  Ni607  1  0.49110767  0.59517970  0.96715910  1.0
  Ni  Ni608  1  0.49110767  0.92851303  0.96715910  1.0
  Ni  Ni609  1  0.82444100  0.26184637  0.96715910  1.0
  Ni  Ni610  1  0.82444100  0.59517970  0.96715910  1.0
  Ni  Ni611  1  0.82444100  0.92851303  0.96715910  1.0
  Ni  Ni612  1  0.22720667  0.15072557  0.92549970  1.0
  Ni  Ni613  1  0.22720667  0.48405890  0.92549970  1.0
  Ni  Ni614  1  0.22720667  0.81739223  0.92549970  1.0
  Ni  Ni615  1  0.56054000  0.15072557  0.92549970  1.0
  Ni  Ni616  1  0.56054000  0.48405890  0.92549970  1.0
  Ni  Ni617  1  0.56054000  0.81739223  0.92549970  1.0
  Ni  Ni618  1  0.89387333  0.15072557  0.92549970  1.0
  Ni  Ni619  1  0.89387333  0.48405890  0.92549970  1.0
  Ni  Ni620  1  0.89387333  0.81739223  0.92549970  1.0
  Ni  Ni621  1  0.06054000  0.28405890  0.82549970  1.0
  Ni  Ni622  1  0.06054000  0.61739223  0.82549970  1.0
  Ni  Ni623  1  0.06054000  0.95072557  0.82549970  1.0
  Ni  Ni624  1  0.39387333  0.28405890  0.82549970  1.0
  Ni  Ni625  1  0.39387333  0.61739223  0.82549970  1.0
  Ni  Ni626  1  0.39387333  0.95072557  0.82549970  1.0
  Ni  Ni627  1  0.72720667  0.28405890  0.82549970  1.0
  Ni  Ni628  1  0.72720667  0.61739223  0.82549970  1.0
  Ni  Ni629  1  0.72720667  0.95072557  0.82549970  1.0
  Ni  Ni630  1  0.10612667  0.11864623  0.88261570  1.0
  Ni  Ni631  1  0.10612667  0.45197957  0.88261570  1.0
  Ni  Ni632  1  0.10612667  0.78531290  0.88261570  1.0
  Ni  Ni633  1  0.43946000  0.11864623  0.88261570  1.0
  Ni  Ni634  1  0.43946000  0.45197957  0.88261570  1.0
  Ni  Ni635  1  0.43946000  0.78531290  0.88261570  1.0
  Ni  Ni636  1  0.77279333  0.11864623  0.88261570  1.0
  Ni  Ni637  1  0.77279333  0.45197957  0.88261570  1.0
  Ni  Ni638  1  0.77279333  0.78531290  0.88261570  1.0
  Ni  Ni639  1  0.27279333  0.31864623  0.98261570  1.0
  Ni  Ni640  1  0.27279333  0.65197957  0.98261570  1.0
  Ni  Ni641  1  0.27279333  0.98531290  0.98261570  1.0
  Ni  Ni642  1  0.60612667  0.31864623  0.98261570  1.0
  Ni  Ni643  1  0.60612667  0.65197957  0.98261570  1.0
  Ni  Ni644  1  0.60612667  0.98531290  0.98261570  1.0
  Ni  Ni645  1  0.93946000  0.31864623  0.98261570  1.0
  Ni  Ni646  1  0.93946000  0.65197957  0.98261570  1.0
  Ni  Ni647  1  0.93946000  0.98531290  0.98261570  1.0
  Ni  Ni648  1  0.00934450  0.30155663  0.94053340  1.0
  Ni  Ni649  1  0.00934450  0.63488997  0.94053340  1.0
  Ni  Ni650  1  0.00934450  0.96822330  0.94053340  1.0
  Ni  Ni651  1  0.34267783  0.30155663  0.94053340  1.0
  Ni  Ni652  1  0.34267783  0.63488997  0.94053340  1.0
  Ni  Ni653  1  0.34267783  0.96822330  0.94053340  1.0
  Ni  Ni654  1  0.67601117  0.30155663  0.94053340  1.0
  Ni  Ni655  1  0.67601117  0.63488997  0.94053340  1.0
  Ni  Ni656  1  0.67601117  0.96822330  0.94053340  1.0
  Ni  Ni657  1  0.17601117  0.10155663  0.84053340  1.0
  Ni  Ni658  1  0.17601117  0.43488997  0.84053340  1.0
  Ni  Ni659  1  0.17601117  0.76822330  0.84053340  1.0
  Ni  Ni660  1  0.50934450  0.10155663  0.84053340  1.0
  Ni  Ni661  1  0.50934450  0.43488997  0.84053340  1.0
  Ni  Ni662  1  0.50934450  0.76822330  0.84053340  1.0
  Ni  Ni663  1  0.84267783  0.10155663  0.84053340  1.0
  Ni  Ni664  1  0.84267783  0.43488997  0.84053340  1.0
  Ni  Ni665  1  0.84267783  0.76822330  0.84053340  1.0
  Ni  Ni666  1  0.32398883  0.30114850  0.86758200  1.0
  Ni  Ni667  1  0.32398883  0.63448183  0.86758200  1.0
  Ni  Ni668  1  0.32398883  0.96781517  0.86758200  1.0
  Ni  Ni669  1  0.65732217  0.30114850  0.86758200  1.0
  Ni  Ni670  1  0.65732217  0.63448183  0.86758200  1.0
  Ni  Ni671  1  0.65732217  0.96781517  0.86758200  1.0
  Ni  Ni672  1  0.99065550  0.30114850  0.86758200  1.0
  Ni  Ni673  1  0.99065550  0.63448183  0.86758200  1.0
  Ni  Ni674  1  0.99065550  0.96781517  0.86758200  1.0
  Ni  Ni675  1  0.15732217  0.16781517  0.96758200  1.0
  Ni  Ni676  1  0.15732217  0.50114850  0.96758200  1.0
  Ni  Ni677  1  0.15732217  0.83448183  0.96758200  1.0
  Ni  Ni678  1  0.49065550  0.16781517  0.96758200  1.0
  Ni  Ni679  1  0.49065550  0.50114850  0.96758200  1.0
  Ni  Ni680  1  0.49065550  0.83448183  0.96758200  1.0
  Ni  Ni681  1  0.82398883  0.16781517  0.96758200  1.0
  Ni  Ni682  1  0.82398883  0.50114850  0.96758200  1.0
  Ni  Ni683  1  0.82398883  0.83448183  0.96758200  1.0
  Ni  Ni684  1  0.32137883  0.13239383  0.86914800  1.0
  Ni  Ni685  1  0.32137883  0.46572717  0.86914800  1.0
  Ni  Ni686  1  0.32137883  0.79906050  0.86914800  1.0
  Ni  Ni687  1  0.65471217  0.13239383  0.86914800  1.0
  Ni  Ni688  1  0.65471217  0.46572717  0.86914800  1.0
  Ni  Ni689  1  0.65471217  0.79906050  0.86914800  1.0
  Ni  Ni690  1  0.98804550  0.13239383  0.86914800  1.0
  Ni  Ni691  1  0.98804550  0.46572717  0.86914800  1.0
  Ni  Ni692  1  0.98804550  0.79906050  0.86914800  1.0
  Ni  Ni693  1  0.15471217  0.33239383  0.96914800  1.0
  Ni  Ni694  1  0.15471217  0.66572717  0.96914800  1.0
  Ni  Ni695  1  0.15471217  0.99906050  0.96914800  1.0
  Ni  Ni696  1  0.48804550  0.33239383  0.96914800  1.0
  Ni  Ni697  1  0.48804550  0.66572717  0.96914800  1.0
  Ni  Ni698  1  0.48804550  0.99906050  0.96914800  1.0
  Ni  Ni699  1  0.82137883  0.33239383  0.96914800  1.0
  Ni  Ni700  1  0.82137883  0.66572717  0.96914800  1.0
  Ni  Ni701  1  0.82137883  0.99906050  0.96914800  1.0
  Ni  Ni702  1  0.06021917  0.05100543  0.82584380  1.0
  Ni  Ni703  1  0.06021917  0.38433877  0.82584380  1.0
  Ni  Ni704  1  0.06021917  0.71767210  0.82584380  1.0
  Ni  Ni705  1  0.39355250  0.05100543  0.82584380  1.0
  Ni  Ni706  1  0.39355250  0.38433877  0.82584380  1.0
  Ni  Ni707  1  0.39355250  0.71767210  0.82584380  1.0
  Ni  Ni708  1  0.72688583  0.05100543  0.82584380  1.0
  Ni  Ni709  1  0.72688583  0.38433877  0.82584380  1.0
  Ni  Ni710  1  0.72688583  0.71767210  0.82584380  1.0
  Ni  Ni711  1  0.22688583  0.25100543  0.92584380  1.0
  Ni  Ni712  1  0.22688583  0.58433877  0.92584380  1.0
  Ni  Ni713  1  0.22688583  0.91767210  0.92584380  1.0
  Ni  Ni714  1  0.56021917  0.25100543  0.92584380  1.0
  Ni  Ni715  1  0.56021917  0.58433877  0.92584380  1.0
  Ni  Ni716  1  0.56021917  0.91767210  0.92584380  1.0
  Ni  Ni717  1  0.89355250  0.25100543  0.92584380  1.0
  Ni  Ni718  1  0.89355250  0.58433877  0.92584380  1.0
  Ni  Ni719  1  0.89355250  0.91767210  0.92584380  1.0
  Ni  Ni720  1  0.01195450  0.13697797  0.93896740  1.0
  Ni  Ni721  1  0.01195450  0.47031130  0.93896740  1.0
  Ni  Ni722  1  0.01195450  0.80364463  0.93896740  1.0
  Ni  Ni723  1  0.34528783  0.13697797  0.93896740  1.0
  Ni  Ni724  1  0.34528783  0.47031130  0.93896740  1.0
  Ni  Ni725  1  0.34528783  0.80364463  0.93896740  1.0
  Ni  Ni726  1  0.67862117  0.13697797  0.93896740  1.0
  Ni  Ni727  1  0.67862117  0.47031130  0.93896740  1.0
  Ni  Ni728  1  0.67862117  0.80364463  0.93896740  1.0
  Ni  Ni729  1  0.17862117  0.27031130  0.83896740  1.0
  Ni  Ni730  1  0.17862117  0.60364463  0.83896740  1.0
  Ni  Ni731  1  0.17862117  0.93697797  0.83896740  1.0
  Ni  Ni732  1  0.51195450  0.27031130  0.83896740  1.0
  Ni  Ni733  1  0.51195450  0.60364463  0.83896740  1.0
  Ni  Ni734  1  0.51195450  0.93697797  0.83896740  1.0
  Ni  Ni735  1  0.84528783  0.27031130  0.83896740  1.0
  Ni  Ni736  1  0.84528783  0.60364463  0.83896740  1.0
  Ni  Ni737  1  0.84528783  0.93697797  0.83896740  1.0
  Ni  Ni738  1  0.27311417  0.21836637  0.98227160  1.0
  Ni  Ni739  1  0.27311417  0.55169970  0.98227160  1.0
  Ni  Ni740  1  0.27311417  0.88503303  0.98227160  1.0
  Ni  Ni741  1  0.60644750  0.21836637  0.98227160  1.0
  Ni  Ni742  1  0.60644750  0.55169970  0.98227160  1.0
  Ni  Ni743  1  0.60644750  0.88503303  0.98227160  1.0
  Ni  Ni744  1  0.93978083  0.21836637  0.98227160  1.0
  Ni  Ni745  1  0.93978083  0.55169970  0.98227160  1.0
  Ni  Ni746  1  0.93978083  0.88503303  0.98227160  1.0
  Ni  Ni747  1  0.10644750  0.01836637  0.88227160  1.0
  Ni  Ni748  1  0.10644750  0.35169970  0.88227160  1.0
  Ni  Ni749  1  0.10644750  0.68503303  0.88227160  1.0
  Ni  Ni750  1  0.43978083  0.01836637  0.88227160  1.0
  Ni  Ni751  1  0.43978083  0.35169970  0.88227160  1.0
  Ni  Ni752  1  0.43978083  0.68503303  0.88227160  1.0
  Ni  Ni753  1  0.77311417  0.01836637  0.88227160  1.0
  Ni  Ni754  1  0.77311417  0.35169970  0.88227160  1.0
  Ni  Ni755  1  0.77311417  0.68503303  0.88227160  1.0
  Ni  Ni756  1  0.27572417  0.05378770  0.98070560  1.0
  Ni  Ni757  1  0.27572417  0.38712103  0.98070560  1.0
  Ni  Ni758  1  0.27572417  0.72045437  0.98070560  1.0
  Ni  Ni759  1  0.60905750  0.05378770  0.98070560  1.0
  Ni  Ni760  1  0.60905750  0.38712103  0.98070560  1.0
  Ni  Ni761  1  0.60905750  0.72045437  0.98070560  1.0
  Ni  Ni762  1  0.94239083  0.05378770  0.98070560  1.0
  Ni  Ni763  1  0.94239083  0.38712103  0.98070560  1.0
  Ni  Ni764  1  0.94239083  0.72045437  0.98070560  1.0
  Ni  Ni765  1  0.10905750  0.18712103  0.88070560  1.0
  Ni  Ni766  1  0.10905750  0.52045437  0.88070560  1.0
  Ni  Ni767  1  0.10905750  0.85378770  0.88070560  1.0
  Ni  Ni768  1  0.44239083  0.18712103  0.88070560  1.0
  Ni  Ni769  1  0.44239083  0.52045437  0.88070560  1.0
  Ni  Ni770  1  0.44239083  0.85378770  0.88070560  1.0
  Ni  Ni771  1  0.77572417  0.18712103  0.88070560  1.0
  Ni  Ni772  1  0.77572417  0.52045437  0.88070560  1.0
  Ni  Ni773  1  0.77572417  0.85378770  0.88070560  1.0
  Ni  Ni774  1  0.05760917  0.21558410  0.82740980  1.0
  Ni  Ni775  1  0.05760917  0.54891743  0.82740980  1.0
  Ni  Ni776  1  0.05760917  0.88225077  0.82740980  1.0
  Ni  Ni777  1  0.39094250  0.21558410  0.82740980  1.0
  Ni  Ni778  1  0.39094250  0.54891743  0.82740980  1.0
  Ni  Ni779  1  0.39094250  0.88225077  0.82740980  1.0
  Ni  Ni780  1  0.72427583  0.21558410  0.82740980  1.0
  Ni  Ni781  1  0.72427583  0.54891743  0.82740980  1.0
  Ni  Ni782  1  0.72427583  0.88225077  0.82740980  1.0
  Ni  Ni783  1  0.22427583  0.08225077  0.92740980  1.0
  Ni  Ni784  1  0.22427583  0.41558410  0.92740980  1.0
  Ni  Ni785  1  0.22427583  0.74891743  0.92740980  1.0
  Ni  Ni786  1  0.55760917  0.08225077  0.92740980  1.0
  Ni  Ni787  1  0.55760917  0.41558410  0.92740980  1.0
  Ni  Ni788  1  0.55760917  0.74891743  0.92740980  1.0
  Ni  Ni789  1  0.89094250  0.08225077  0.92740980  1.0
  Ni  Ni790  1  0.89094250  0.41558410  0.92740980  1.0
  Ni  Ni791  1  0.89094250  0.74891743  0.92740980  1.0
  Ni  Ni792  1  0.08299883  0.10345363  0.95425840  1.0
  Ni  Ni793  1  0.08299883  0.43678697  0.95425840  1.0
  Ni  Ni794  1  0.08299883  0.77012030  0.95425840  1.0
  Ni  Ni795  1  0.41633217  0.10345363  0.95425840  1.0
  Ni  Ni796  1  0.41633217  0.43678697  0.95425840  1.0
  Ni  Ni797  1  0.41633217  0.77012030  0.95425840  1.0
  Ni  Ni798  1  0.74966550  0.10345363  0.95425840  1.0
  Ni  Ni799  1  0.74966550  0.43678697  0.95425840  1.0
  Ni  Ni800  1  0.74966550  0.77012030  0.95425840  1.0
  Ni  Ni801  1  0.24966550  0.23678697  0.85425840  1.0
  Ni  Ni802  1  0.24966550  0.57012030  0.85425840  1.0
  Ni  Ni803  1  0.24966550  0.90345363  0.85425840  1.0
  Ni  Ni804  1  0.58299883  0.23678697  0.85425840  1.0
  Ni  Ni805  1  0.58299883  0.57012030  0.85425840  1.0
  Ni  Ni806  1  0.58299883  0.90345363  0.85425840  1.0
  Ni  Ni807  1  0.91633217  0.23678697  0.85425840  1.0
  Ni  Ni808  1  0.91633217  0.57012030  0.85425840  1.0
  Ni  Ni809  1  0.91633217  0.90345363  0.85425840  1.0
  Ni  Ni810  1  0.25033450  0.16591817  0.85385700  1.0
  Ni  Ni811  1  0.25033450  0.49925150  0.85385700  1.0
  Ni  Ni812  1  0.25033450  0.83258483  0.85385700  1.0
  Ni  Ni813  1  0.58366783  0.16591817  0.85385700  1.0
  Ni  Ni814  1  0.58366783  0.49925150  0.85385700  1.0
  Ni  Ni815  1  0.58366783  0.83258483  0.85385700  1.0
  Ni  Ni816  1  0.91700117  0.16591817  0.85385700  1.0
  Ni  Ni817  1  0.91700117  0.49925150  0.85385700  1.0
  Ni  Ni818  1  0.91700117  0.83258483  0.85385700  1.0
  Ni  Ni819  1  0.08366783  0.03258483  0.95385700  1.0
  Ni  Ni820  1  0.08366783  0.36591817  0.95385700  1.0
  Ni  Ni821  1  0.08366783  0.69925150  0.95385700  1.0
  Ni  Ni822  1  0.41700117  0.03258483  0.95385700  1.0
  Ni  Ni823  1  0.41700117  0.36591817  0.95385700  1.0
  Ni  Ni824  1  0.41700117  0.69925150  0.95385700  1.0
  Ni  Ni825  1  0.75033450  0.03258483  0.95385700  1.0
  Ni  Ni826  1  0.75033450  0.36591817  0.95385700  1.0
  Ni  Ni827  1  0.75033450  0.69925150  0.95385700  1.0
  Ni  Ni828  1  0.28536750  0.02727790  0.83283720  1.0
  Ni  Ni829  1  0.28536750  0.36061123  0.83283720  1.0
  Ni  Ni830  1  0.28536750  0.69394457  0.83283720  1.0
  Ni  Ni831  1  0.61870083  0.02727790  0.83283720  1.0
  Ni  Ni832  1  0.61870083  0.36061123  0.83283720  1.0
  Ni  Ni833  1  0.61870083  0.69394457  0.83283720  1.0
  Ni  Ni834  1  0.95203417  0.02727790  0.83283720  1.0
  Ni  Ni835  1  0.95203417  0.36061123  0.83283720  1.0
  Ni  Ni836  1  0.95203417  0.69394457  0.83283720  1.0
  Ni  Ni837  1  0.11870083  0.22727790  0.93283720  1.0
  Ni  Ni838  1  0.11870083  0.56061123  0.93283720  1.0
  Ni  Ni839  1  0.11870083  0.89394457  0.93283720  1.0
  Ni  Ni840  1  0.45203417  0.22727790  0.93283720  1.0
  Ni  Ni841  1  0.45203417  0.56061123  0.93283720  1.0
  Ni  Ni842  1  0.45203417  0.89394457  0.93283720  1.0
  Ni  Ni843  1  0.78536750  0.22727790  0.93283720  1.0
  Ni  Ni844  1  0.78536750  0.56061123  0.93283720  1.0
  Ni  Ni845  1  0.78536750  0.89394457  0.93283720  1.0
  Ni  Ni846  1  0.04796583  0.24209390  0.97527820  1.0
  Ni  Ni847  1  0.04796583  0.57542723  0.97527820  1.0
  Ni  Ni848  1  0.04796583  0.90876057  0.97527820  1.0
  Ni  Ni849  1  0.38129917  0.24209390  0.97527820  1.0
  Ni  Ni850  1  0.38129917  0.57542723  0.97527820  1.0
  Ni  Ni851  1  0.38129917  0.90876057  0.97527820  1.0
  Ni  Ni852  1  0.71463250  0.24209390  0.97527820  1.0
  Ni  Ni853  1  0.71463250  0.57542723  0.97527820  1.0
  Ni  Ni854  1  0.71463250  0.90876057  0.97527820  1.0
  Ni  Ni855  1  0.21463250  0.04209390  0.87527820  1.0
  Ni  Ni856  1  0.21463250  0.37542723  0.87527820  1.0
  Ni  Ni857  1  0.21463250  0.70876057  0.87527820  1.0
  Ni  Ni858  1  0.54796583  0.04209390  0.87527820  1.0
  Ni  Ni859  1  0.54796583  0.37542723  0.87527820  1.0
  Ni  Ni860  1  0.54796583  0.70876057  0.87527820  1.0
  Ni  Ni861  1  0.88129917  0.04209390  0.87527820  1.0
  Ni  Ni862  1  0.88129917  0.37542723  0.87527820  1.0
  Ni  Ni863  1  0.88129917  0.70876057  0.87527820  1.0
  Ni  Ni864  1  0.32093167  0.16605757  0.66926470  1.0
  Ni  Ni865  1  0.32093167  0.49939090  0.66926470  1.0
  Ni  Ni866  1  0.32093167  0.83272423  0.66926470  1.0
  Ni  Ni867  1  0.65426500  0.16605757  0.66926470  1.0
  Ni  Ni868  1  0.65426500  0.49939090  0.66926470  1.0
  Ni  Ni869  1  0.65426500  0.83272423  0.66926470  1.0
  Ni  Ni870  1  0.98759833  0.16605757  0.66926470  1.0
  Ni  Ni871  1  0.98759833  0.49939090  0.66926470  1.0
  Ni  Ni872  1  0.98759833  0.83272423  0.66926470  1.0
  Ni  Ni873  1  0.15426500  0.03272423  0.76926470  1.0
  Ni  Ni874  1  0.15426500  0.36605757  0.76926470  1.0
  Ni  Ni875  1  0.15426500  0.69939090  0.76926470  1.0
  Ni  Ni876  1  0.48759833  0.03272423  0.76926470  1.0
  Ni  Ni877  1  0.48759833  0.36605757  0.76926470  1.0
  Ni  Ni878  1  0.48759833  0.69939090  0.76926470  1.0
  Ni  Ni879  1  0.82093167  0.03272423  0.76926470  1.0
  Ni  Ni880  1  0.82093167  0.36605757  0.76926470  1.0
  Ni  Ni881  1  0.82093167  0.69939090  0.76926470  1.0
  Ni  Ni882  1  0.01240167  0.30331423  0.73885070  1.0
  Ni  Ni883  1  0.01240167  0.63664757  0.73885070  1.0
  Ni  Ni884  1  0.01240167  0.96998090  0.73885070  1.0
  Ni  Ni885  1  0.34573500  0.30331423  0.73885070  1.0
  Ni  Ni886  1  0.34573500  0.63664757  0.73885070  1.0
  Ni  Ni887  1  0.34573500  0.96998090  0.73885070  1.0
  Ni  Ni888  1  0.67906833  0.30331423  0.73885070  1.0
  Ni  Ni889  1  0.67906833  0.63664757  0.73885070  1.0
  Ni  Ni890  1  0.67906833  0.96998090  0.73885070  1.0
  Ni  Ni891  1  0.17906833  0.10331423  0.63885070  1.0
  Ni  Ni892  1  0.17906833  0.43664757  0.63885070  1.0
  Ni  Ni893  1  0.17906833  0.76998090  0.63885070  1.0
  Ni  Ni894  1  0.51240167  0.10331423  0.63885070  1.0
  Ni  Ni895  1  0.51240167  0.43664757  0.63885070  1.0
  Ni  Ni896  1  0.51240167  0.76998090  0.63885070  1.0
  Ni  Ni897  1  0.84573500  0.10331423  0.63885070  1.0
  Ni  Ni898  1  0.84573500  0.43664757  0.63885070  1.0
  Ni  Ni899  1  0.84573500  0.76998090  0.63885070  1.0
  Ni  Ni900  1  0.27630267  0.08110170  0.78051010  1.0
  Ni  Ni901  1  0.27630267  0.41443503  0.78051010  1.0
  Ni  Ni902  1  0.27630267  0.74776837  0.78051010  1.0
  Ni  Ni903  1  0.60963600  0.08110170  0.78051010  1.0
  Ni  Ni904  1  0.60963600  0.41443503  0.78051010  1.0
  Ni  Ni905  1  0.60963600  0.74776837  0.78051010  1.0
  Ni  Ni906  1  0.94296933  0.08110170  0.78051010  1.0
  Ni  Ni907  1  0.94296933  0.41443503  0.78051010  1.0
  Ni  Ni908  1  0.94296933  0.74776837  0.78051010  1.0
  Ni  Ni909  1  0.10963600  0.21443503  0.68051010  1.0
  Ni  Ni910  1  0.10963600  0.54776837  0.68051010  1.0
  Ni  Ni911  1  0.10963600  0.88110170  0.68051010  1.0
  Ni  Ni912  1  0.44296933  0.21443503  0.68051010  1.0
  Ni  Ni913  1  0.44296933  0.54776837  0.68051010  1.0
  Ni  Ni914  1  0.44296933  0.88110170  0.68051010  1.0
  Ni  Ni915  1  0.77630267  0.21443503  0.68051010  1.0
  Ni  Ni916  1  0.77630267  0.54776837  0.68051010  1.0
  Ni  Ni917  1  0.77630267  0.88110170  0.68051010  1.0
  Ni  Ni918  1  0.00889233  0.14085877  0.74095630  1.0
  Ni  Ni919  1  0.00889233  0.47419210  0.74095630  1.0
  Ni  Ni920  1  0.00889233  0.80752543  0.74095630  1.0
  Ni  Ni921  1  0.34222567  0.14085877  0.74095630  1.0
  Ni  Ni922  1  0.34222567  0.47419210  0.74095630  1.0
  Ni  Ni923  1  0.34222567  0.80752543  0.74095630  1.0
  Ni  Ni924  1  0.67555900  0.14085877  0.74095630  1.0
  Ni  Ni925  1  0.67555900  0.47419210  0.74095630  1.0
  Ni  Ni926  1  0.67555900  0.80752543  0.74095630  1.0
  Ni  Ni927  1  0.17555900  0.27419210  0.64095630  1.0
  Ni  Ni928  1  0.17555900  0.60752543  0.64095630  1.0
  Ni  Ni929  1  0.17555900  0.94085877  0.64095630  1.0
  Ni  Ni930  1  0.50889233  0.27419210  0.64095630  1.0
  Ni  Ni931  1  0.50889233  0.60752543  0.64095630  1.0
  Ni  Ni932  1  0.50889233  0.94085877  0.64095630  1.0
  Ni  Ni933  1  0.84222567  0.27419210  0.64095630  1.0
  Ni  Ni934  1  0.84222567  0.60752543  0.64095630  1.0
  Ni  Ni935  1  0.84222567  0.94085877  0.64095630  1.0
  Ni  Ni936  1  0.05703067  0.05493677  0.62760530  1.0
  Ni  Ni937  1  0.05703067  0.38827010  0.62760530  1.0
  Ni  Ni938  1  0.05703067  0.72160343  0.62760530  1.0
  Ni  Ni939  1  0.39036400  0.05493677  0.62760530  1.0
  Ni  Ni940  1  0.39036400  0.38827010  0.62760530  1.0
  Ni  Ni941  1  0.39036400  0.72160343  0.62760530  1.0
  Ni  Ni942  1  0.72369733  0.05493677  0.62760530  1.0
  Ni  Ni943  1  0.72369733  0.38827010  0.62760530  1.0
  Ni  Ni944  1  0.72369733  0.72160343  0.62760530  1.0
  Ni  Ni945  1  0.22369733  0.25493677  0.72760530  1.0
  Ni  Ni946  1  0.22369733  0.58827010  0.72760530  1.0
  Ni  Ni947  1  0.22369733  0.92160343  0.72760530  1.0
  Ni  Ni948  1  0.55703067  0.25493677  0.72760530  1.0
  Ni  Ni949  1  0.55703067  0.58827010  0.72760530  1.0
  Ni  Ni950  1  0.55703067  0.92160343  0.72760530  1.0
  Ni  Ni951  1  0.89036400  0.25493677  0.72760530  1.0
  Ni  Ni952  1  0.89036400  0.58827010  0.72760530  1.0
  Ni  Ni953  1  0.89036400  0.92160343  0.72760530  1.0
  Ni  Ni954  1  0.32444100  0.32851303  0.66715910  1.0
  Ni  Ni955  1  0.32444100  0.66184637  0.66715910  1.0
  Ni  Ni956  1  0.32444100  0.99517970  0.66715910  1.0
  Ni  Ni957  1  0.65777433  0.32851303  0.66715910  1.0
  Ni  Ni958  1  0.65777433  0.66184637  0.66715910  1.0
  Ni  Ni959  1  0.65777433  0.99517970  0.66715910  1.0
  Ni  Ni960  1  0.99110767  0.32851303  0.66715910  1.0
  Ni  Ni961  1  0.99110767  0.66184637  0.66715910  1.0
  Ni  Ni962  1  0.99110767  0.99517970  0.66715910  1.0
  Ni  Ni963  1  0.15777433  0.19517970  0.76715910  1.0
  Ni  Ni964  1  0.15777433  0.52851303  0.76715910  1.0
  Ni  Ni965  1  0.15777433  0.86184637  0.76715910  1.0
  Ni  Ni966  1  0.49110767  0.19517970  0.76715910  1.0
  Ni  Ni967  1  0.49110767  0.52851303  0.76715910  1.0
  Ni  Ni968  1  0.49110767  0.86184637  0.76715910  1.0
  Ni  Ni969  1  0.82444100  0.19517970  0.76715910  1.0
  Ni  Ni970  1  0.82444100  0.52851303  0.76715910  1.0
  Ni  Ni971  1  0.82444100  0.86184637  0.76715910  1.0
  Ni  Ni972  1  0.22720667  0.08405890  0.72549970  1.0
  Ni  Ni973  1  0.22720667  0.41739223  0.72549970  1.0
  Ni  Ni974  1  0.22720667  0.75072557  0.72549970  1.0
  Ni  Ni975  1  0.56054000  0.08405890  0.72549970  1.0
  Ni  Ni976  1  0.56054000  0.41739223  0.72549970  1.0
  Ni  Ni977  1  0.56054000  0.75072557  0.72549970  1.0
  Ni  Ni978  1  0.89387333  0.08405890  0.72549970  1.0
  Ni  Ni979  1  0.89387333  0.41739223  0.72549970  1.0
  Ni  Ni980  1  0.89387333  0.75072557  0.72549970  1.0
  Ni  Ni981  1  0.06054000  0.21739223  0.62549970  1.0
  Ni  Ni982  1  0.06054000  0.55072557  0.62549970  1.0
  Ni  Ni983  1  0.06054000  0.88405890  0.62549970  1.0
  Ni  Ni984  1  0.39387333  0.21739223  0.62549970  1.0
  Ni  Ni985  1  0.39387333  0.55072557  0.62549970  1.0
  Ni  Ni986  1  0.39387333  0.88405890  0.62549970  1.0
  Ni  Ni987  1  0.72720667  0.21739223  0.62549970  1.0
  Ni  Ni988  1  0.72720667  0.55072557  0.62549970  1.0
  Ni  Ni989  1  0.72720667  0.88405890  0.62549970  1.0
  Ni  Ni990  1  0.10612667  0.05197957  0.68261570  1.0
  Ni  Ni991  1  0.10612667  0.38531290  0.68261570  1.0
  Ni  Ni992  1  0.10612667  0.71864623  0.68261570  1.0
  Ni  Ni993  1  0.43946000  0.05197957  0.68261570  1.0
  Ni  Ni994  1  0.43946000  0.38531290  0.68261570  1.0
  Ni  Ni995  1  0.43946000  0.71864623  0.68261570  1.0
  Ni  Ni996  1  0.77279333  0.05197957  0.68261570  1.0
  Ni  Ni997  1  0.77279333  0.38531290  0.68261570  1.0
  Ni  Ni998  1  0.77279333  0.71864623  0.68261570  1.0
  Ni  Ni999  1  0.27279333  0.25197957  0.78261570  1.0
  Ni  Ni1000  1  0.27279333  0.58531290  0.78261570  1.0
  Ni  Ni1001  1  0.27279333  0.91864623  0.78261570  1.0
  Ni  Ni1002  1  0.60612667  0.25197957  0.78261570  1.0
  Ni  Ni1003  1  0.60612667  0.58531290  0.78261570  1.0
  Ni  Ni1004  1  0.60612667  0.91864623  0.78261570  1.0
  Ni  Ni1005  1  0.93946000  0.25197957  0.78261570  1.0
  Ni  Ni1006  1  0.93946000  0.58531290  0.78261570  1.0
  Ni  Ni1007  1  0.93946000  0.91864623  0.78261570  1.0
  Ni  Ni1008  1  0.00934450  0.23488997  0.74053340  1.0
  Ni  Ni1009  1  0.00934450  0.56822330  0.74053340  1.0
  Ni  Ni1010  1  0.00934450  0.90155663  0.74053340  1.0
  Ni  Ni1011  1  0.34267783  0.23488997  0.74053340  1.0
  Ni  Ni1012  1  0.34267783  0.56822330  0.74053340  1.0
  Ni  Ni1013  1  0.34267783  0.90155663  0.74053340  1.0
  Ni  Ni1014  1  0.67601117  0.23488997  0.74053340  1.0
  Ni  Ni1015  1  0.67601117  0.56822330  0.74053340  1.0
  Ni  Ni1016  1  0.67601117  0.90155663  0.74053340  1.0
  Ni  Ni1017  1  0.17601117  0.03488997  0.64053340  1.0
  Ni  Ni1018  1  0.17601117  0.36822330  0.64053340  1.0
  Ni  Ni1019  1  0.17601117  0.70155663  0.64053340  1.0
  Ni  Ni1020  1  0.50934450  0.03488997  0.64053340  1.0
  Ni  Ni1021  1  0.50934450  0.36822330  0.64053340  1.0
  Ni  Ni1022  1  0.50934450  0.70155663  0.64053340  1.0
  Ni  Ni1023  1  0.84267783  0.03488997  0.64053340  1.0
  Ni  Ni1024  1  0.84267783  0.36822330  0.64053340  1.0
  Ni  Ni1025  1  0.84267783  0.70155663  0.64053340  1.0
  Ni  Ni1026  1  0.32398883  0.23448183  0.66758200  1.0
  Ni  Ni1027  1  0.32398883  0.56781517  0.66758200  1.0
  Ni  Ni1028  1  0.32398883  0.90114850  0.66758200  1.0
  Ni  Ni1029  1  0.65732217  0.23448183  0.66758200  1.0
  Ni  Ni1030  1  0.65732217  0.56781517  0.66758200  1.0
  Ni  Ni1031  1  0.65732217  0.90114850  0.66758200  1.0
  Ni  Ni1032  1  0.99065550  0.23448183  0.66758200  1.0
  Ni  Ni1033  1  0.99065550  0.56781517  0.66758200  1.0
  Ni  Ni1034  1  0.99065550  0.90114850  0.66758200  1.0
  Ni  Ni1035  1  0.15732217  0.10114850  0.76758200  1.0
  Ni  Ni1036  1  0.15732217  0.43448183  0.76758200  1.0
  Ni  Ni1037  1  0.15732217  0.76781517  0.76758200  1.0
  Ni  Ni1038  1  0.49065550  0.10114850  0.76758200  1.0
  Ni  Ni1039  1  0.49065550  0.43448183  0.76758200  1.0
  Ni  Ni1040  1  0.49065550  0.76781517  0.76758200  1.0
  Ni  Ni1041  1  0.82398883  0.10114850  0.76758200  1.0
  Ni  Ni1042  1  0.82398883  0.43448183  0.76758200  1.0
  Ni  Ni1043  1  0.82398883  0.76781517  0.76758200  1.0
  Ni  Ni1044  1  0.32137883  0.06572717  0.66914800  1.0
  Ni  Ni1045  1  0.32137883  0.39906050  0.66914800  1.0
  Ni  Ni1046  1  0.32137883  0.73239383  0.66914800  1.0
  Ni  Ni1047  1  0.65471217  0.06572717  0.66914800  1.0
  Ni  Ni1048  1  0.65471217  0.39906050  0.66914800  1.0
  Ni  Ni1049  1  0.65471217  0.73239383  0.66914800  1.0
  Ni  Ni1050  1  0.98804550  0.06572717  0.66914800  1.0
  Ni  Ni1051  1  0.98804550  0.39906050  0.66914800  1.0
  Ni  Ni1052  1  0.98804550  0.73239383  0.66914800  1.0
  Ni  Ni1053  1  0.15471217  0.26572717  0.76914800  1.0
  Ni  Ni1054  1  0.15471217  0.59906050  0.76914800  1.0
  Ni  Ni1055  1  0.15471217  0.93239383  0.76914800  1.0
  Ni  Ni1056  1  0.48804550  0.26572717  0.76914800  1.0
  Ni  Ni1057  1  0.48804550  0.59906050  0.76914800  1.0
  Ni  Ni1058  1  0.48804550  0.93239383  0.76914800  1.0
  Ni  Ni1059  1  0.82137883  0.26572717  0.76914800  1.0
  Ni  Ni1060  1  0.82137883  0.59906050  0.76914800  1.0
  Ni  Ni1061  1  0.82137883  0.93239383  0.76914800  1.0
  Ni  Ni1062  1  0.06021917  0.31767210  0.62584380  1.0
  Ni  Ni1063  1  0.06021917  0.65100543  0.62584380  1.0
  Ni  Ni1064  1  0.06021917  0.98433877  0.62584380  1.0
  Ni  Ni1065  1  0.39355250  0.31767210  0.62584380  1.0
  Ni  Ni1066  1  0.39355250  0.65100543  0.62584380  1.0
  Ni  Ni1067  1  0.39355250  0.98433877  0.62584380  1.0
  Ni  Ni1068  1  0.72688583  0.31767210  0.62584380  1.0
  Ni  Ni1069  1  0.72688583  0.65100543  0.62584380  1.0
  Ni  Ni1070  1  0.72688583  0.98433877  0.62584380  1.0
  Ni  Ni1071  1  0.22688583  0.18433877  0.72584380  1.0
  Ni  Ni1072  1  0.22688583  0.51767210  0.72584380  1.0
  Ni  Ni1073  1  0.22688583  0.85100543  0.72584380  1.0
  Ni  Ni1074  1  0.56021917  0.18433877  0.72584380  1.0
  Ni  Ni1075  1  0.56021917  0.51767210  0.72584380  1.0
  Ni  Ni1076  1  0.56021917  0.85100543  0.72584380  1.0
  Ni  Ni1077  1  0.89355250  0.18433877  0.72584380  1.0
  Ni  Ni1078  1  0.89355250  0.51767210  0.72584380  1.0
  Ni  Ni1079  1  0.89355250  0.85100543  0.72584380  1.0
  Ni  Ni1080  1  0.01195450  0.07031130  0.73896740  1.0
  Ni  Ni1081  1  0.01195450  0.40364463  0.73896740  1.0
  Ni  Ni1082  1  0.01195450  0.73697797  0.73896740  1.0
  Ni  Ni1083  1  0.34528783  0.07031130  0.73896740  1.0
  Ni  Ni1084  1  0.34528783  0.40364463  0.73896740  1.0
  Ni  Ni1085  1  0.34528783  0.73697797  0.73896740  1.0
  Ni  Ni1086  1  0.67862117  0.07031130  0.73896740  1.0
  Ni  Ni1087  1  0.67862117  0.40364463  0.73896740  1.0
  Ni  Ni1088  1  0.67862117  0.73697797  0.73896740  1.0
  Ni  Ni1089  1  0.17862117  0.20364463  0.63896740  1.0
  Ni  Ni1090  1  0.17862117  0.53697797  0.63896740  1.0
  Ni  Ni1091  1  0.17862117  0.87031130  0.63896740  1.0
  Ni  Ni1092  1  0.51195450  0.20364463  0.63896740  1.0
  Ni  Ni1093  1  0.51195450  0.53697797  0.63896740  1.0
  Ni  Ni1094  1  0.51195450  0.87031130  0.63896740  1.0
  Ni  Ni1095  1  0.84528783  0.20364463  0.63896740  1.0
  Ni  Ni1096  1  0.84528783  0.53697797  0.63896740  1.0
  Ni  Ni1097  1  0.84528783  0.87031130  0.63896740  1.0
  Ni  Ni1098  1  0.27311417  0.15169970  0.78227160  1.0
  Ni  Ni1099  1  0.27311417  0.48503303  0.78227160  1.0
  Ni  Ni1100  1  0.27311417  0.81836637  0.78227160  1.0
  Ni  Ni1101  1  0.60644750  0.15169970  0.78227160  1.0
  Ni  Ni1102  1  0.60644750  0.48503303  0.78227160  1.0
  Ni  Ni1103  1  0.60644750  0.81836637  0.78227160  1.0
  Ni  Ni1104  1  0.93978083  0.15169970  0.78227160  1.0
  Ni  Ni1105  1  0.93978083  0.48503303  0.78227160  1.0
  Ni  Ni1106  1  0.93978083  0.81836637  0.78227160  1.0
  Ni  Ni1107  1  0.10644750  0.28503303  0.68227160  1.0
  Ni  Ni1108  1  0.10644750  0.61836637  0.68227160  1.0
  Ni  Ni1109  1  0.10644750  0.95169970  0.68227160  1.0
  Ni  Ni1110  1  0.43978083  0.28503303  0.68227160  1.0
  Ni  Ni1111  1  0.43978083  0.61836637  0.68227160  1.0
  Ni  Ni1112  1  0.43978083  0.95169970  0.68227160  1.0
  Ni  Ni1113  1  0.77311417  0.28503303  0.68227160  1.0
  Ni  Ni1114  1  0.77311417  0.61836637  0.68227160  1.0
  Ni  Ni1115  1  0.77311417  0.95169970  0.68227160  1.0
  Ni  Ni1116  1  0.27572417  0.32045437  0.78070560  1.0
  Ni  Ni1117  1  0.27572417  0.65378770  0.78070560  1.0
  Ni  Ni1118  1  0.27572417  0.98712103  0.78070560  1.0
  Ni  Ni1119  1  0.60905750  0.32045437  0.78070560  1.0
  Ni  Ni1120  1  0.60905750  0.65378770  0.78070560  1.0
  Ni  Ni1121  1  0.60905750  0.98712103  0.78070560  1.0
  Ni  Ni1122  1  0.94239083  0.32045437  0.78070560  1.0
  Ni  Ni1123  1  0.94239083  0.65378770  0.78070560  1.0
  Ni  Ni1124  1  0.94239083  0.98712103  0.78070560  1.0
  Ni  Ni1125  1  0.10905750  0.12045437  0.68070560  1.0
  Ni  Ni1126  1  0.10905750  0.45378770  0.68070560  1.0
  Ni  Ni1127  1  0.10905750  0.78712103  0.68070560  1.0
  Ni  Ni1128  1  0.44239083  0.12045437  0.68070560  1.0
  Ni  Ni1129  1  0.44239083  0.45378770  0.68070560  1.0
  Ni  Ni1130  1  0.44239083  0.78712103  0.68070560  1.0
  Ni  Ni1131  1  0.77572417  0.12045437  0.68070560  1.0
  Ni  Ni1132  1  0.77572417  0.45378770  0.68070560  1.0
  Ni  Ni1133  1  0.77572417  0.78712103  0.68070560  1.0
  Ni  Ni1134  1  0.05760917  0.14891743  0.62740980  1.0
  Ni  Ni1135  1  0.05760917  0.48225077  0.62740980  1.0
  Ni  Ni1136  1  0.05760917  0.81558410  0.62740980  1.0
  Ni  Ni1137  1  0.39094250  0.14891743  0.62740980  1.0
  Ni  Ni1138  1  0.39094250  0.48225077  0.62740980  1.0
  Ni  Ni1139  1  0.39094250  0.81558410  0.62740980  1.0
  Ni  Ni1140  1  0.72427583  0.14891743  0.62740980  1.0
  Ni  Ni1141  1  0.72427583  0.48225077  0.62740980  1.0
  Ni  Ni1142  1  0.72427583  0.81558410  0.62740980  1.0
  Ni  Ni1143  1  0.22427583  0.01558410  0.72740980  1.0
  Ni  Ni1144  1  0.22427583  0.34891743  0.72740980  1.0
  Ni  Ni1145  1  0.22427583  0.68225077  0.72740980  1.0
  Ni  Ni1146  1  0.55760917  0.01558410  0.72740980  1.0
  Ni  Ni1147  1  0.55760917  0.34891743  0.72740980  1.0
  Ni  Ni1148  1  0.55760917  0.68225077  0.72740980  1.0
  Ni  Ni1149  1  0.89094250  0.01558410  0.72740980  1.0
  Ni  Ni1150  1  0.89094250  0.34891743  0.72740980  1.0
  Ni  Ni1151  1  0.89094250  0.68225077  0.72740980  1.0
  Ni  Ni1152  1  0.08299883  0.03678697  0.75425840  1.0
  Ni  Ni1153  1  0.08299883  0.37012030  0.75425840  1.0
  Ni  Ni1154  1  0.08299883  0.70345363  0.75425840  1.0
  Ni  Ni1155  1  0.41633217  0.03678697  0.75425840  1.0
  Ni  Ni1156  1  0.41633217  0.37012030  0.75425840  1.0
  Ni  Ni1157  1  0.41633217  0.70345363  0.75425840  1.0
  Ni  Ni1158  1  0.74966550  0.03678697  0.75425840  1.0
  Ni  Ni1159  1  0.74966550  0.37012030  0.75425840  1.0
  Ni  Ni1160  1  0.74966550  0.70345363  0.75425840  1.0
  Ni  Ni1161  1  0.24966550  0.17012030  0.65425840  1.0
  Ni  Ni1162  1  0.24966550  0.50345363  0.65425840  1.0
  Ni  Ni1163  1  0.24966550  0.83678697  0.65425840  1.0
  Ni  Ni1164  1  0.58299883  0.17012030  0.65425840  1.0
  Ni  Ni1165  1  0.58299883  0.50345363  0.65425840  1.0
  Ni  Ni1166  1  0.58299883  0.83678697  0.65425840  1.0
  Ni  Ni1167  1  0.91633217  0.17012030  0.65425840  1.0
  Ni  Ni1168  1  0.91633217  0.50345363  0.65425840  1.0
  Ni  Ni1169  1  0.91633217  0.83678697  0.65425840  1.0
  Ni  Ni1170  1  0.25033450  0.09925150  0.65385700  1.0
  Ni  Ni1171  1  0.25033450  0.43258483  0.65385700  1.0
  Ni  Ni1172  1  0.25033450  0.76591817  0.65385700  1.0
  Ni  Ni1173  1  0.58366783  0.09925150  0.65385700  1.0
  Ni  Ni1174  1  0.58366783  0.43258483  0.65385700  1.0
  Ni  Ni1175  1  0.58366783  0.76591817  0.65385700  1.0
  Ni  Ni1176  1  0.91700117  0.09925150  0.65385700  1.0
  Ni  Ni1177  1  0.91700117  0.43258483  0.65385700  1.0
  Ni  Ni1178  1  0.91700117  0.76591817  0.65385700  1.0
  Ni  Ni1179  1  0.08366783  0.29925150  0.75385700  1.0
  Ni  Ni1180  1  0.08366783  0.63258483  0.75385700  1.0
  Ni  Ni1181  1  0.08366783  0.96591817  0.75385700  1.0
  Ni  Ni1182  1  0.41700117  0.29925150  0.75385700  1.0
  Ni  Ni1183  1  0.41700117  0.63258483  0.75385700  1.0
  Ni  Ni1184  1  0.41700117  0.96591817  0.75385700  1.0
  Ni  Ni1185  1  0.75033450  0.29925150  0.75385700  1.0
  Ni  Ni1186  1  0.75033450  0.63258483  0.75385700  1.0
  Ni  Ni1187  1  0.75033450  0.96591817  0.75385700  1.0
  Ni  Ni1188  1  0.28536750  0.29394457  0.63283720  1.0
  Ni  Ni1189  1  0.28536750  0.62727790  0.63283720  1.0
  Ni  Ni1190  1  0.28536750  0.96061123  0.63283720  1.0
  Ni  Ni1191  1  0.61870083  0.29394457  0.63283720  1.0
  Ni  Ni1192  1  0.61870083  0.62727790  0.63283720  1.0
  Ni  Ni1193  1  0.61870083  0.96061123  0.63283720  1.0
  Ni  Ni1194  1  0.95203417  0.29394457  0.63283720  1.0
  Ni  Ni1195  1  0.95203417  0.62727790  0.63283720  1.0
  Ni  Ni1196  1  0.95203417  0.96061123  0.63283720  1.0
  Ni  Ni1197  1  0.11870083  0.16061123  0.73283720  1.0
  Ni  Ni1198  1  0.11870083  0.49394457  0.73283720  1.0
  Ni  Ni1199  1  0.11870083  0.82727790  0.73283720  1.0
  Ni  Ni1200  1  0.45203417  0.16061123  0.73283720  1.0
  Ni  Ni1201  1  0.45203417  0.49394457  0.73283720  1.0
  Ni  Ni1202  1  0.45203417  0.82727790  0.73283720  1.0
  Ni  Ni1203  1  0.78536750  0.16061123  0.73283720  1.0
  Ni  Ni1204  1  0.78536750  0.49394457  0.73283720  1.0
  Ni  Ni1205  1  0.78536750  0.82727790  0.73283720  1.0
  Ni  Ni1206  1  0.04796583  0.17542723  0.77527820  1.0
  Ni  Ni1207  1  0.04796583  0.50876057  0.77527820  1.0
  Ni  Ni1208  1  0.04796583  0.84209390  0.77527820  1.0
  Ni  Ni1209  1  0.38129917  0.17542723  0.77527820  1.0
  Ni  Ni1210  1  0.38129917  0.50876057  0.77527820  1.0
  Ni  Ni1211  1  0.38129917  0.84209390  0.77527820  1.0
  Ni  Ni1212  1  0.71463250  0.17542723  0.77527820  1.0
  Ni  Ni1213  1  0.71463250  0.50876057  0.77527820  1.0
  Ni  Ni1214  1  0.71463250  0.84209390  0.77527820  1.0
  Ni  Ni1215  1  0.21463250  0.30876057  0.67527820  1.0
  Ni  Ni1216  1  0.21463250  0.64209390  0.67527820  1.0
  Ni  Ni1217  1  0.21463250  0.97542723  0.67527820  1.0
  Ni  Ni1218  1  0.54796583  0.30876057  0.67527820  1.0
  Ni  Ni1219  1  0.54796583  0.64209390  0.67527820  1.0
  Ni  Ni1220  1  0.54796583  0.97542723  0.67527820  1.0
  Ni  Ni1221  1  0.88129917  0.30876057  0.67527820  1.0
  Ni  Ni1222  1  0.88129917  0.64209390  0.67527820  1.0
  Ni  Ni1223  1  0.88129917  0.97542723  0.67527820  1.0
