# generated using pymatgen
data_Hf7Ni10
_symmetry_space_group_name_H-M   'P 1'
_cell_length_a   56.80553426
_cell_length_b   35.61842263
_cell_length_c   53.36680818
_cell_angle_alpha   129.95047864
_cell_angle_beta   129.63539538
_cell_angle_gamma   65.81956013
_symmetry_Int_Tables_number   1
_chemical_formula_structural   Hf7Ni10
_chemical_formula_sum   'Hf756 Ni1080'
_cell_volume   63747.51158654
_cell_formula_units_Z   108
loop_
 _symmetry_equiv_pos_site_id
 _symmetry_equiv_pos_as_xyz
  1  'x, y, z'
loop_
 _atom_site_type_symbol
 _atom_site_label
 _atom_site_symmetry_multiplicity
 _atom_site_fract_x
 _atom_site_fract_y
 _atom_site_fract_z
 _atom_site_occupancy
  Hf  Hf0  1  0.11561967  0.00000000  0.08821171  1.0
  Hf  Hf1  1  0.11561967  0.33333333  0.08821171  1.0
  Hf  Hf2  1  0.11561967  0.66666667  0.08821171  1.0
  Hf  Hf3  1  0.44895300  0.00000000  0.08821171  1.0
  Hf  Hf4  1  0.44895300  0.33333333  0.08821171  1.0
  Hf  Hf5  1  0.44895300  0.66666667  0.08821171  1.0
  Hf  Hf6  1  0.78228633  0.00000000  0.08821171  1.0
  Hf  Hf7  1  0.78228633  0.33333333  0.08821171  1.0
  Hf  Hf8  1  0.78228633  0.66666667  0.08821171  1.0
  Hf  Hf9  1  0.28228633  0.00000000  0.01678314  1.0
  Hf  Hf10  1  0.28228633  0.33333333  0.01678314  1.0
  Hf  Hf11  1  0.28228633  0.66666667  0.01678314  1.0
  Hf  Hf12  1  0.61561967  0.00000000  0.01678314  1.0
  Hf  Hf13  1  0.61561967  0.33333333  0.01678314  1.0
  Hf  Hf14  1  0.61561967  0.66666667  0.01678314  1.0
  Hf  Hf15  1  0.94895300  0.00000000  0.01678314  1.0
  Hf  Hf16  1  0.94895300  0.33333333  0.01678314  1.0
  Hf  Hf17  1  0.94895300  0.66666667  0.01678314  1.0
  Hf  Hf18  1  0.05104700  0.00000000  0.11588571  1.0
  Hf  Hf19  1  0.05104700  0.33333333  0.11588571  1.0
  Hf  Hf20  1  0.05104700  0.66666667  0.11588571  1.0
  Hf  Hf21  1  0.38438033  0.00000000  0.11588571  1.0
  Hf  Hf22  1  0.38438033  0.33333333  0.11588571  1.0
  Hf  Hf23  1  0.38438033  0.66666667  0.11588571  1.0
  Hf  Hf24  1  0.71771367  0.00000000  0.11588571  1.0
  Hf  Hf25  1  0.71771367  0.33333333  0.11588571  1.0
  Hf  Hf26  1  0.71771367  0.66666667  0.11588571  1.0
  Hf  Hf27  1  0.21771367  0.00000000  0.04445714  1.0
  Hf  Hf28  1  0.21771367  0.33333333  0.04445714  1.0
  Hf  Hf29  1  0.21771367  0.66666667  0.04445714  1.0
  Hf  Hf30  1  0.55104700  0.00000000  0.04445714  1.0
  Hf  Hf31  1  0.55104700  0.33333333  0.04445714  1.0
  Hf  Hf32  1  0.55104700  0.66666667  0.04445714  1.0
  Hf  Hf33  1  0.88438033  0.00000000  0.04445714  1.0
  Hf  Hf34  1  0.88438033  0.33333333  0.04445714  1.0
  Hf  Hf35  1  0.88438033  0.66666667  0.04445714  1.0
  Hf  Hf36  1  0.13438033  0.16666667  0.00874286  1.0
  Hf  Hf37  1  0.13438033  0.50000000  0.00874286  1.0
  Hf  Hf38  1  0.13438033  0.83333333  0.00874286  1.0
  Hf  Hf39  1  0.46771367  0.16666667  0.00874286  1.0
  Hf  Hf40  1  0.46771367  0.50000000  0.00874286  1.0
  Hf  Hf41  1  0.46771367  0.83333333  0.00874286  1.0
  Hf  Hf42  1  0.80104700  0.16666667  0.00874286  1.0
  Hf  Hf43  1  0.80104700  0.50000000  0.00874286  1.0
  Hf  Hf44  1  0.80104700  0.83333333  0.00874286  1.0
  Hf  Hf45  1  0.30104700  0.16666667  0.08017143  1.0
  Hf  Hf46  1  0.30104700  0.50000000  0.08017143  1.0
  Hf  Hf47  1  0.30104700  0.83333333  0.08017143  1.0
  Hf  Hf48  1  0.63438033  0.16666667  0.08017143  1.0
  Hf  Hf49  1  0.63438033  0.50000000  0.08017143  1.0
  Hf  Hf50  1  0.63438033  0.83333333  0.08017143  1.0
  Hf  Hf51  1  0.96771367  0.16666667  0.08017143  1.0
  Hf  Hf52  1  0.96771367  0.50000000  0.08017143  1.0
  Hf  Hf53  1  0.96771367  0.83333333  0.08017143  1.0
  Hf  Hf54  1  0.03228633  0.16666667  0.05249743  1.0
  Hf  Hf55  1  0.03228633  0.50000000  0.05249743  1.0
  Hf  Hf56  1  0.03228633  0.83333333  0.05249743  1.0
  Hf  Hf57  1  0.36561967  0.16666667  0.05249743  1.0
  Hf  Hf58  1  0.36561967  0.50000000  0.05249743  1.0
  Hf  Hf59  1  0.36561967  0.83333333  0.05249743  1.0
  Hf  Hf60  1  0.69895300  0.16666667  0.05249743  1.0
  Hf  Hf61  1  0.69895300  0.50000000  0.05249743  1.0
  Hf  Hf62  1  0.69895300  0.83333333  0.05249743  1.0
  Hf  Hf63  1  0.19895300  0.16666667  0.12392600  1.0
  Hf  Hf64  1  0.19895300  0.50000000  0.12392600  1.0
  Hf  Hf65  1  0.19895300  0.83333333  0.12392600  1.0
  Hf  Hf66  1  0.53228633  0.16666667  0.12392600  1.0
  Hf  Hf67  1  0.53228633  0.50000000  0.12392600  1.0
  Hf  Hf68  1  0.53228633  0.83333333  0.12392600  1.0
  Hf  Hf69  1  0.86561967  0.16666667  0.12392600  1.0
  Hf  Hf70  1  0.86561967  0.50000000  0.12392600  1.0
  Hf  Hf71  1  0.86561967  0.83333333  0.12392600  1.0
  Hf  Hf72  1  0.00000000  0.00000000  0.13776300  1.0
  Hf  Hf73  1  0.00000000  0.33333333  0.13776300  1.0
  Hf  Hf74  1  0.00000000  0.66666667  0.13776300  1.0
  Hf  Hf75  1  0.33333333  0.00000000  0.13776300  1.0
  Hf  Hf76  1  0.33333333  0.33333333  0.13776300  1.0
  Hf  Hf77  1  0.33333333  0.66666667  0.13776300  1.0
  Hf  Hf78  1  0.66666667  0.00000000  0.13776300  1.0
  Hf  Hf79  1  0.66666667  0.33333333  0.13776300  1.0
  Hf  Hf80  1  0.66666667  0.66666667  0.13776300  1.0
  Hf  Hf81  1  0.16666667  0.00000000  0.06633443  1.0
  Hf  Hf82  1  0.16666667  0.33333333  0.06633443  1.0
  Hf  Hf83  1  0.16666667  0.66666667  0.06633443  1.0
  Hf  Hf84  1  0.50000000  0.00000000  0.06633443  1.0
  Hf  Hf85  1  0.50000000  0.33333333  0.06633443  1.0
  Hf  Hf86  1  0.50000000  0.66666667  0.06633443  1.0
  Hf  Hf87  1  0.83333333  0.00000000  0.06633443  1.0
  Hf  Hf88  1  0.83333333  0.33333333  0.06633443  1.0
  Hf  Hf89  1  0.83333333  0.66666667  0.06633443  1.0
  Hf  Hf90  1  0.08333333  0.16666667  0.03062014  1.0
  Hf  Hf91  1  0.08333333  0.50000000  0.03062014  1.0
  Hf  Hf92  1  0.08333333  0.83333333  0.03062014  1.0
  Hf  Hf93  1  0.41666667  0.16666667  0.03062014  1.0
  Hf  Hf94  1  0.41666667  0.50000000  0.03062014  1.0
  Hf  Hf95  1  0.41666667  0.83333333  0.03062014  1.0
  Hf  Hf96  1  0.75000000  0.16666667  0.03062014  1.0
  Hf  Hf97  1  0.75000000  0.50000000  0.03062014  1.0
  Hf  Hf98  1  0.75000000  0.83333333  0.03062014  1.0
  Hf  Hf99  1  0.25000000  0.16666667  0.10204871  1.0
  Hf  Hf100  1  0.25000000  0.50000000  0.10204871  1.0
  Hf  Hf101  1  0.25000000  0.83333333  0.10204871  1.0
  Hf  Hf102  1  0.58333333  0.16666667  0.10204871  1.0
  Hf  Hf103  1  0.58333333  0.50000000  0.10204871  1.0
  Hf  Hf104  1  0.58333333  0.83333333  0.10204871  1.0
  Hf  Hf105  1  0.91666667  0.16666667  0.10204871  1.0
  Hf  Hf106  1  0.91666667  0.50000000  0.10204871  1.0
  Hf  Hf107  1  0.91666667  0.83333333  0.10204871  1.0
  Hf  Hf108  1  0.00084400  0.08333333  0.10313386  1.0
  Hf  Hf109  1  0.00084400  0.41666667  0.10313386  1.0
  Hf  Hf110  1  0.00084400  0.75000000  0.10313386  1.0
  Hf  Hf111  1  0.33417733  0.08333333  0.10313386  1.0
  Hf  Hf112  1  0.33417733  0.41666667  0.10313386  1.0
  Hf  Hf113  1  0.33417733  0.75000000  0.10313386  1.0
  Hf  Hf114  1  0.66751067  0.08333333  0.10313386  1.0
  Hf  Hf115  1  0.66751067  0.41666667  0.10313386  1.0
  Hf  Hf116  1  0.66751067  0.75000000  0.10313386  1.0
  Hf  Hf117  1  0.16751067  0.08333333  0.03170529  1.0
  Hf  Hf118  1  0.16751067  0.41666667  0.03170529  1.0
  Hf  Hf119  1  0.16751067  0.75000000  0.03170529  1.0
  Hf  Hf120  1  0.50084400  0.08333333  0.03170529  1.0
  Hf  Hf121  1  0.50084400  0.41666667  0.03170529  1.0
  Hf  Hf122  1  0.50084400  0.75000000  0.03170529  1.0
  Hf  Hf123  1  0.83417733  0.08333333  0.03170529  1.0
  Hf  Hf124  1  0.83417733  0.41666667  0.03170529  1.0
  Hf  Hf125  1  0.83417733  0.75000000  0.03170529  1.0
  Hf  Hf126  1  0.16582267  0.25000000  0.10096357  1.0
  Hf  Hf127  1  0.16582267  0.58333333  0.10096357  1.0
  Hf  Hf128  1  0.16582267  0.91666667  0.10096357  1.0
  Hf  Hf129  1  0.49915600  0.25000000  0.10096357  1.0
  Hf  Hf130  1  0.49915600  0.58333333  0.10096357  1.0
  Hf  Hf131  1  0.49915600  0.91666667  0.10096357  1.0
  Hf  Hf132  1  0.83248933  0.25000000  0.10096357  1.0
  Hf  Hf133  1  0.83248933  0.58333333  0.10096357  1.0
  Hf  Hf134  1  0.83248933  0.91666667  0.10096357  1.0
  Hf  Hf135  1  0.33248933  0.25000000  0.02953500  1.0
  Hf  Hf136  1  0.33248933  0.58333333  0.02953500  1.0
  Hf  Hf137  1  0.33248933  0.91666667  0.02953500  1.0
  Hf  Hf138  1  0.66582267  0.25000000  0.02953500  1.0
  Hf  Hf139  1  0.66582267  0.58333333  0.02953500  1.0
  Hf  Hf140  1  0.66582267  0.91666667  0.02953500  1.0
  Hf  Hf141  1  0.99915600  0.25000000  0.02953500  1.0
  Hf  Hf142  1  0.99915600  0.58333333  0.02953500  1.0
  Hf  Hf143  1  0.99915600  0.91666667  0.02953500  1.0
  Hf  Hf144  1  0.08248933  0.25000000  0.13667786  1.0
  Hf  Hf145  1  0.08248933  0.58333333  0.13667786  1.0
  Hf  Hf146  1  0.08248933  0.91666667  0.13667786  1.0
  Hf  Hf147  1  0.41582267  0.25000000  0.13667786  1.0
  Hf  Hf148  1  0.41582267  0.58333333  0.13667786  1.0
  Hf  Hf149  1  0.41582267  0.91666667  0.13667786  1.0
  Hf  Hf150  1  0.74915600  0.25000000  0.13667786  1.0
  Hf  Hf151  1  0.74915600  0.58333333  0.13667786  1.0
  Hf  Hf152  1  0.74915600  0.91666667  0.13667786  1.0
  Hf  Hf153  1  0.24915600  0.25000000  0.06524929  1.0
  Hf  Hf154  1  0.24915600  0.58333333  0.06524929  1.0
  Hf  Hf155  1  0.24915600  0.91666667  0.06524929  1.0
  Hf  Hf156  1  0.58248933  0.25000000  0.06524929  1.0
  Hf  Hf157  1  0.58248933  0.58333333  0.06524929  1.0
  Hf  Hf158  1  0.58248933  0.91666667  0.06524929  1.0
  Hf  Hf159  1  0.91582267  0.25000000  0.06524929  1.0
  Hf  Hf160  1  0.91582267  0.58333333  0.06524929  1.0
  Hf  Hf161  1  0.91582267  0.91666667  0.06524929  1.0
  Hf  Hf162  1  0.08417733  0.08333333  0.06741957  1.0
  Hf  Hf163  1  0.08417733  0.41666667  0.06741957  1.0
  Hf  Hf164  1  0.08417733  0.75000000  0.06741957  1.0
  Hf  Hf165  1  0.41751067  0.08333333  0.06741957  1.0
  Hf  Hf166  1  0.41751067  0.41666667  0.06741957  1.0
  Hf  Hf167  1  0.41751067  0.75000000  0.06741957  1.0
  Hf  Hf168  1  0.75084400  0.08333333  0.06741957  1.0
  Hf  Hf169  1  0.75084400  0.41666667  0.06741957  1.0
  Hf  Hf170  1  0.75084400  0.75000000  0.06741957  1.0
  Hf  Hf171  1  0.25084400  0.08333333  0.13884814  1.0
  Hf  Hf172  1  0.25084400  0.41666667  0.13884814  1.0
  Hf  Hf173  1  0.25084400  0.75000000  0.13884814  1.0
  Hf  Hf174  1  0.58417733  0.08333333  0.13884814  1.0
  Hf  Hf175  1  0.58417733  0.41666667  0.13884814  1.0
  Hf  Hf176  1  0.58417733  0.75000000  0.13884814  1.0
  Hf  Hf177  1  0.91751067  0.08333333  0.13884814  1.0
  Hf  Hf178  1  0.91751067  0.41666667  0.13884814  1.0
  Hf  Hf179  1  0.91751067  0.75000000  0.13884814  1.0
  Hf  Hf180  1  0.05219250  0.06251900  0.08880436  1.0
  Hf  Hf181  1  0.05219250  0.39585233  0.08880436  1.0
  Hf  Hf182  1  0.05219250  0.72918567  0.08880436  1.0
  Hf  Hf183  1  0.38552583  0.06251900  0.08880436  1.0
  Hf  Hf184  1  0.38552583  0.39585233  0.08880436  1.0
  Hf  Hf185  1  0.38552583  0.72918567  0.08880436  1.0
  Hf  Hf186  1  0.71885917  0.06251900  0.08880436  1.0
  Hf  Hf187  1  0.71885917  0.39585233  0.08880436  1.0
  Hf  Hf188  1  0.71885917  0.72918567  0.08880436  1.0
  Hf  Hf189  1  0.21885917  0.06251900  0.01737579  1.0
  Hf  Hf190  1  0.21885917  0.39585233  0.01737579  1.0
  Hf  Hf191  1  0.21885917  0.72918567  0.01737579  1.0
  Hf  Hf192  1  0.55219250  0.06251900  0.01737579  1.0
  Hf  Hf193  1  0.55219250  0.39585233  0.01737579  1.0
  Hf  Hf194  1  0.55219250  0.72918567  0.01737579  1.0
  Hf  Hf195  1  0.88552583  0.06251900  0.01737579  1.0
  Hf  Hf196  1  0.88552583  0.39585233  0.01737579  1.0
  Hf  Hf197  1  0.88552583  0.72918567  0.01737579  1.0
  Hf  Hf198  1  0.11447417  0.27081433  0.11529307  1.0
  Hf  Hf199  1  0.11447417  0.60414767  0.11529307  1.0
  Hf  Hf200  1  0.11447417  0.93748100  0.11529307  1.0
  Hf  Hf201  1  0.44780750  0.27081433  0.11529307  1.0
  Hf  Hf202  1  0.44780750  0.60414767  0.11529307  1.0
  Hf  Hf203  1  0.44780750  0.93748100  0.11529307  1.0
  Hf  Hf204  1  0.78114083  0.27081433  0.11529307  1.0
  Hf  Hf205  1  0.78114083  0.60414767  0.11529307  1.0
  Hf  Hf206  1  0.78114083  0.93748100  0.11529307  1.0
  Hf  Hf207  1  0.28114083  0.27081433  0.04386450  1.0
  Hf  Hf208  1  0.28114083  0.60414767  0.04386450  1.0
  Hf  Hf209  1  0.28114083  0.93748100  0.04386450  1.0
  Hf  Hf210  1  0.61447417  0.27081433  0.04386450  1.0
  Hf  Hf211  1  0.61447417  0.60414767  0.04386450  1.0
  Hf  Hf212  1  0.61447417  0.93748100  0.04386450  1.0
  Hf  Hf213  1  0.94780750  0.27081433  0.04386450  1.0
  Hf  Hf214  1  0.94780750  0.60414767  0.04386450  1.0
  Hf  Hf215  1  0.94780750  0.93748100  0.04386450  1.0
  Hf  Hf216  1  0.03114083  0.22918567  0.13316650  1.0
  Hf  Hf217  1  0.03114083  0.56251900  0.13316650  1.0
  Hf  Hf218  1  0.03114083  0.89585233  0.13316650  1.0
  Hf  Hf219  1  0.36447417  0.22918567  0.13316650  1.0
  Hf  Hf220  1  0.36447417  0.56251900  0.13316650  1.0
  Hf  Hf221  1  0.36447417  0.89585233  0.13316650  1.0
  Hf  Hf222  1  0.69780750  0.22918567  0.13316650  1.0
  Hf  Hf223  1  0.69780750  0.56251900  0.13316650  1.0
  Hf  Hf224  1  0.69780750  0.89585233  0.13316650  1.0
  Hf  Hf225  1  0.19780750  0.22918567  0.06173793  1.0
  Hf  Hf226  1  0.19780750  0.56251900  0.06173793  1.0
  Hf  Hf227  1  0.19780750  0.89585233  0.06173793  1.0
  Hf  Hf228  1  0.53114083  0.22918567  0.06173793  1.0
  Hf  Hf229  1  0.53114083  0.56251900  0.06173793  1.0
  Hf  Hf230  1  0.53114083  0.89585233  0.06173793  1.0
  Hf  Hf231  1  0.86447417  0.22918567  0.06173793  1.0
  Hf  Hf232  1  0.86447417  0.56251900  0.06173793  1.0
  Hf  Hf233  1  0.86447417  0.89585233  0.06173793  1.0
  Hf  Hf234  1  0.13552583  0.10414767  0.07093093  1.0
  Hf  Hf235  1  0.13552583  0.43748100  0.07093093  1.0
  Hf  Hf236  1  0.13552583  0.77081433  0.07093093  1.0
  Hf  Hf237  1  0.46885917  0.10414767  0.07093093  1.0
  Hf  Hf238  1  0.46885917  0.43748100  0.07093093  1.0
  Hf  Hf239  1  0.46885917  0.77081433  0.07093093  1.0
  Hf  Hf240  1  0.80219250  0.10414767  0.07093093  1.0
  Hf  Hf241  1  0.80219250  0.43748100  0.07093093  1.0
  Hf  Hf242  1  0.80219250  0.77081433  0.07093093  1.0
  Hf  Hf243  1  0.30219250  0.10414767  0.14235950  1.0
  Hf  Hf244  1  0.30219250  0.43748100  0.14235950  1.0
  Hf  Hf245  1  0.30219250  0.77081433  0.14235950  1.0
  Hf  Hf246  1  0.63552583  0.10414767  0.14235950  1.0
  Hf  Hf247  1  0.63552583  0.43748100  0.14235950  1.0
  Hf  Hf248  1  0.63552583  0.77081433  0.14235950  1.0
  Hf  Hf249  1  0.96885917  0.10414767  0.14235950  1.0
  Hf  Hf250  1  0.96885917  0.43748100  0.14235950  1.0
  Hf  Hf251  1  0.96885917  0.77081433  0.14235950  1.0
  Ni  Ni252  1  0.14435217  0.06943233  0.10866250  1.0
  Ni  Ni253  1  0.14435217  0.40276567  0.10866250  1.0
  Ni  Ni254  1  0.14435217  0.73609900  0.10866250  1.0
  Ni  Ni255  1  0.47768550  0.06943233  0.10866250  1.0
  Ni  Ni256  1  0.47768550  0.40276567  0.10866250  1.0
  Ni  Ni257  1  0.47768550  0.73609900  0.10866250  1.0
  Ni  Ni258  1  0.81101883  0.06943233  0.10866250  1.0
  Ni  Ni259  1  0.81101883  0.40276567  0.10866250  1.0
  Ni  Ni260  1  0.81101883  0.73609900  0.10866250  1.0
  Ni  Ni261  1  0.31101883  0.06943233  0.03723393  1.0
  Ni  Ni262  1  0.31101883  0.40276567  0.03723393  1.0
  Ni  Ni263  1  0.31101883  0.73609900  0.03723393  1.0
  Ni  Ni264  1  0.64435217  0.06943233  0.03723393  1.0
  Ni  Ni265  1  0.64435217  0.40276567  0.03723393  1.0
  Ni  Ni266  1  0.64435217  0.73609900  0.03723393  1.0
  Ni  Ni267  1  0.97768550  0.06943233  0.03723393  1.0
  Ni  Ni268  1  0.97768550  0.40276567  0.03723393  1.0
  Ni  Ni269  1  0.97768550  0.73609900  0.03723393  1.0
  Ni  Ni270  1  0.02231450  0.26390100  0.09543493  1.0
  Ni  Ni271  1  0.02231450  0.59723433  0.09543493  1.0
  Ni  Ni272  1  0.02231450  0.93056767  0.09543493  1.0
  Ni  Ni273  1  0.35564783  0.26390100  0.09543493  1.0
  Ni  Ni274  1  0.35564783  0.59723433  0.09543493  1.0
  Ni  Ni275  1  0.35564783  0.93056767  0.09543493  1.0
  Ni  Ni276  1  0.68898117  0.26390100  0.09543493  1.0
  Ni  Ni277  1  0.68898117  0.59723433  0.09543493  1.0
  Ni  Ni278  1  0.68898117  0.93056767  0.09543493  1.0
  Ni  Ni279  1  0.18898117  0.26390100  0.02400636  1.0
  Ni  Ni280  1  0.18898117  0.59723433  0.02400636  1.0
  Ni  Ni281  1  0.18898117  0.93056767  0.02400636  1.0
  Ni  Ni282  1  0.52231450  0.26390100  0.02400636  1.0
  Ni  Ni283  1  0.52231450  0.59723433  0.02400636  1.0
  Ni  Ni284  1  0.52231450  0.93056767  0.02400636  1.0
  Ni  Ni285  1  0.85564783  0.26390100  0.02400636  1.0
  Ni  Ni286  1  0.85564783  0.59723433  0.02400636  1.0
  Ni  Ni287  1  0.85564783  0.93056767  0.02400636  1.0
  Ni  Ni288  1  0.10564783  0.23609900  0.04780550  1.0
  Ni  Ni289  1  0.10564783  0.56943233  0.04780550  1.0
  Ni  Ni290  1  0.10564783  0.90276567  0.04780550  1.0
  Ni  Ni291  1  0.43898117  0.23609900  0.04780550  1.0
  Ni  Ni292  1  0.43898117  0.56943233  0.04780550  1.0
  Ni  Ni293  1  0.43898117  0.90276567  0.04780550  1.0
  Ni  Ni294  1  0.77231450  0.23609900  0.04780550  1.0
  Ni  Ni295  1  0.77231450  0.56943233  0.04780550  1.0
  Ni  Ni296  1  0.77231450  0.90276567  0.04780550  1.0
  Ni  Ni297  1  0.27231450  0.23609900  0.11923407  1.0
  Ni  Ni298  1  0.27231450  0.56943233  0.11923407  1.0
  Ni  Ni299  1  0.27231450  0.90276567  0.11923407  1.0
  Ni  Ni300  1  0.60564783  0.23609900  0.11923407  1.0
  Ni  Ni301  1  0.60564783  0.56943233  0.11923407  1.0
  Ni  Ni302  1  0.60564783  0.90276567  0.11923407  1.0
  Ni  Ni303  1  0.93898117  0.23609900  0.11923407  1.0
  Ni  Ni304  1  0.93898117  0.56943233  0.11923407  1.0
  Ni  Ni305  1  0.93898117  0.90276567  0.11923407  1.0
  Ni  Ni306  1  0.10915717  0.09723433  0.13566121  1.0
  Ni  Ni307  1  0.10915717  0.43056767  0.13566121  1.0
  Ni  Ni308  1  0.10915717  0.76390100  0.13566121  1.0
  Ni  Ni309  1  0.44249050  0.09723433  0.13566121  1.0
  Ni  Ni310  1  0.44249050  0.43056767  0.13566121  1.0
  Ni  Ni311  1  0.44249050  0.76390100  0.13566121  1.0
  Ni  Ni312  1  0.77582383  0.09723433  0.13566121  1.0
  Ni  Ni313  1  0.77582383  0.43056767  0.13566121  1.0
  Ni  Ni314  1  0.77582383  0.76390100  0.13566121  1.0
  Ni  Ni315  1  0.27582383  0.09723433  0.06423264  1.0
  Ni  Ni316  1  0.27582383  0.43056767  0.06423264  1.0
  Ni  Ni317  1  0.27582383  0.76390100  0.06423264  1.0
  Ni  Ni318  1  0.60915717  0.09723433  0.06423264  1.0
  Ni  Ni319  1  0.60915717  0.43056767  0.06423264  1.0
  Ni  Ni320  1  0.60915717  0.76390100  0.06423264  1.0
  Ni  Ni321  1  0.94249050  0.09723433  0.06423264  1.0
  Ni  Ni322  1  0.94249050  0.43056767  0.06423264  1.0
  Ni  Ni323  1  0.94249050  0.76390100  0.06423264  1.0
  Ni  Ni324  1  0.06101883  0.09723433  0.01343479  1.0
  Ni  Ni325  1  0.06101883  0.43056767  0.01343479  1.0
  Ni  Ni326  1  0.06101883  0.76390100  0.01343479  1.0
  Ni  Ni327  1  0.39435217  0.09723433  0.01343479  1.0
  Ni  Ni328  1  0.39435217  0.43056767  0.01343479  1.0
  Ni  Ni329  1  0.39435217  0.76390100  0.01343479  1.0
  Ni  Ni330  1  0.72768550  0.09723433  0.01343479  1.0
  Ni  Ni331  1  0.72768550  0.43056767  0.01343479  1.0
  Ni  Ni332  1  0.72768550  0.76390100  0.01343479  1.0
  Ni  Ni333  1  0.22768550  0.09723433  0.08486336  1.0
  Ni  Ni334  1  0.22768550  0.43056767  0.08486336  1.0
  Ni  Ni335  1  0.22768550  0.76390100  0.08486336  1.0
  Ni  Ni336  1  0.56101883  0.09723433  0.08486336  1.0
  Ni  Ni337  1  0.56101883  0.43056767  0.08486336  1.0
  Ni  Ni338  1  0.56101883  0.76390100  0.08486336  1.0
  Ni  Ni339  1  0.89435217  0.09723433  0.08486336  1.0
  Ni  Ni340  1  0.89435217  0.43056767  0.08486336  1.0
  Ni  Ni341  1  0.89435217  0.76390100  0.08486336  1.0
  Ni  Ni342  1  0.05750950  0.23609900  0.06843621  1.0
  Ni  Ni343  1  0.05750950  0.56943233  0.06843621  1.0
  Ni  Ni344  1  0.05750950  0.90276567  0.06843621  1.0
  Ni  Ni345  1  0.39084283  0.23609900  0.06843621  1.0
  Ni  Ni346  1  0.39084283  0.56943233  0.06843621  1.0
  Ni  Ni347  1  0.39084283  0.90276567  0.06843621  1.0
  Ni  Ni348  1  0.72417617  0.23609900  0.06843621  1.0
  Ni  Ni349  1  0.72417617  0.56943233  0.06843621  1.0
  Ni  Ni350  1  0.72417617  0.90276567  0.06843621  1.0
  Ni  Ni351  1  0.22417617  0.23609900  0.13986479  1.0
  Ni  Ni352  1  0.22417617  0.56943233  0.13986479  1.0
  Ni  Ni353  1  0.22417617  0.90276567  0.13986479  1.0
  Ni  Ni354  1  0.55750950  0.23609900  0.13986479  1.0
  Ni  Ni355  1  0.55750950  0.56943233  0.13986479  1.0
  Ni  Ni356  1  0.55750950  0.90276567  0.13986479  1.0
  Ni  Ni357  1  0.89084283  0.23609900  0.13986479  1.0
  Ni  Ni358  1  0.89084283  0.56943233  0.13986479  1.0
  Ni  Ni359  1  0.89084283  0.90276567  0.13986479  1.0
  Ni  Ni360  1  0.14084283  0.26390100  0.04463707  1.0
  Ni  Ni361  1  0.14084283  0.59723433  0.04463707  1.0
  Ni  Ni362  1  0.14084283  0.93056767  0.04463707  1.0
  Ni  Ni363  1  0.47417617  0.26390100  0.04463707  1.0
  Ni  Ni364  1  0.47417617  0.59723433  0.04463707  1.0
  Ni  Ni365  1  0.47417617  0.93056767  0.04463707  1.0
  Ni  Ni366  1  0.80750950  0.26390100  0.04463707  1.0
  Ni  Ni367  1  0.80750950  0.59723433  0.04463707  1.0
  Ni  Ni368  1  0.80750950  0.93056767  0.04463707  1.0
  Ni  Ni369  1  0.30750950  0.26390100  0.11606564  1.0
  Ni  Ni370  1  0.30750950  0.59723433  0.11606564  1.0
  Ni  Ni371  1  0.30750950  0.93056767  0.11606564  1.0
  Ni  Ni372  1  0.64084283  0.26390100  0.11606564  1.0
  Ni  Ni373  1  0.64084283  0.59723433  0.11606564  1.0
  Ni  Ni374  1  0.64084283  0.93056767  0.11606564  1.0
  Ni  Ni375  1  0.97417617  0.26390100  0.11606564  1.0
  Ni  Ni376  1  0.97417617  0.59723433  0.11606564  1.0
  Ni  Ni377  1  0.97417617  0.93056767  0.11606564  1.0
  Ni  Ni378  1  0.02582383  0.06943233  0.01660321  1.0
  Ni  Ni379  1  0.02582383  0.40276567  0.01660321  1.0
  Ni  Ni380  1  0.02582383  0.73609900  0.01660321  1.0
  Ni  Ni381  1  0.35915717  0.06943233  0.01660321  1.0
  Ni  Ni382  1  0.35915717  0.40276567  0.01660321  1.0
  Ni  Ni383  1  0.35915717  0.73609900  0.01660321  1.0
  Ni  Ni384  1  0.69249050  0.06943233  0.01660321  1.0
  Ni  Ni385  1  0.69249050  0.40276567  0.01660321  1.0
  Ni  Ni386  1  0.69249050  0.73609900  0.01660321  1.0
  Ni  Ni387  1  0.19249050  0.06943233  0.08803179  1.0
  Ni  Ni388  1  0.19249050  0.40276567  0.08803179  1.0
  Ni  Ni389  1  0.19249050  0.73609900  0.08803179  1.0
  Ni  Ni390  1  0.52582383  0.06943233  0.08803179  1.0
  Ni  Ni391  1  0.52582383  0.40276567  0.08803179  1.0
  Ni  Ni392  1  0.52582383  0.73609900  0.08803179  1.0
  Ni  Ni393  1  0.85915717  0.06943233  0.08803179  1.0
  Ni  Ni394  1  0.85915717  0.40276567  0.08803179  1.0
  Ni  Ni395  1  0.85915717  0.73609900  0.08803179  1.0
  Ni  Ni396  1  0.15601717  0.00261000  0.01239107  1.0
  Ni  Ni397  1  0.15601717  0.33594333  0.01239107  1.0
  Ni  Ni398  1  0.15601717  0.66927667  0.01239107  1.0
  Ni  Ni399  1  0.48935050  0.00261000  0.01239107  1.0
  Ni  Ni400  1  0.48935050  0.33594333  0.01239107  1.0
  Ni  Ni401  1  0.48935050  0.66927667  0.01239107  1.0
  Ni  Ni402  1  0.82268383  0.00261000  0.01239107  1.0
  Ni  Ni403  1  0.82268383  0.33594333  0.01239107  1.0
  Ni  Ni404  1  0.82268383  0.66927667  0.01239107  1.0
  Ni  Ni405  1  0.32268383  0.00261000  0.08381964  1.0
  Ni  Ni406  1  0.32268383  0.33594333  0.08381964  1.0
  Ni  Ni407  1  0.32268383  0.66927667  0.08381964  1.0
  Ni  Ni408  1  0.65601717  0.00261000  0.08381964  1.0
  Ni  Ni409  1  0.65601717  0.33594333  0.08381964  1.0
  Ni  Ni410  1  0.65601717  0.66927667  0.08381964  1.0
  Ni  Ni411  1  0.98935050  0.00261000  0.08381964  1.0
  Ni  Ni412  1  0.98935050  0.33594333  0.08381964  1.0
  Ni  Ni413  1  0.98935050  0.66927667  0.08381964  1.0
  Ni  Ni414  1  0.01064950  0.33072333  0.04884921  1.0
  Ni  Ni415  1  0.01064950  0.66405667  0.04884921  1.0
  Ni  Ni416  1  0.01064950  0.99739000  0.04884921  1.0
  Ni  Ni417  1  0.34398283  0.33072333  0.04884921  1.0
  Ni  Ni418  1  0.34398283  0.66405667  0.04884921  1.0
  Ni  Ni419  1  0.34398283  0.99739000  0.04884921  1.0
  Ni  Ni420  1  0.67731617  0.33072333  0.04884921  1.0
  Ni  Ni421  1  0.67731617  0.66405667  0.04884921  1.0
  Ni  Ni422  1  0.67731617  0.99739000  0.04884921  1.0
  Ni  Ni423  1  0.17731617  0.33072333  0.12027779  1.0
  Ni  Ni424  1  0.17731617  0.66405667  0.12027779  1.0
  Ni  Ni425  1  0.17731617  0.99739000  0.12027779  1.0
  Ni  Ni426  1  0.51064950  0.33072333  0.12027779  1.0
  Ni  Ni427  1  0.51064950  0.66405667  0.12027779  1.0
  Ni  Ni428  1  0.51064950  0.99739000  0.12027779  1.0
  Ni  Ni429  1  0.84398283  0.33072333  0.12027779  1.0
  Ni  Ni430  1  0.84398283  0.66405667  0.12027779  1.0
  Ni  Ni431  1  0.84398283  0.99739000  0.12027779  1.0
  Ni  Ni432  1  0.09398283  0.16927667  0.08680064  1.0
  Ni  Ni433  1  0.09398283  0.50261000  0.08680064  1.0
  Ni  Ni434  1  0.09398283  0.83594333  0.08680064  1.0
  Ni  Ni435  1  0.42731617  0.16927667  0.08680064  1.0
  Ni  Ni436  1  0.42731617  0.50261000  0.08680064  1.0
  Ni  Ni437  1  0.42731617  0.83594333  0.08680064  1.0
  Ni  Ni438  1  0.76064950  0.16927667  0.08680064  1.0
  Ni  Ni439  1  0.76064950  0.50261000  0.08680064  1.0
  Ni  Ni440  1  0.76064950  0.83594333  0.08680064  1.0
  Ni  Ni441  1  0.26064950  0.16927667  0.01537207  1.0
  Ni  Ni442  1  0.26064950  0.50261000  0.01537207  1.0
  Ni  Ni443  1  0.26064950  0.83594333  0.01537207  1.0
  Ni  Ni444  1  0.59398283  0.16927667  0.01537207  1.0
  Ni  Ni445  1  0.59398283  0.50261000  0.01537207  1.0
  Ni  Ni446  1  0.59398283  0.83594333  0.01537207  1.0
  Ni  Ni447  1  0.92731617  0.16927667  0.01537207  1.0
  Ni  Ni448  1  0.92731617  0.50261000  0.01537207  1.0
  Ni  Ni449  1  0.92731617  0.83594333  0.01537207  1.0
  Ni  Ni450  1  0.02441917  0.16405667  0.13798164  1.0
  Ni  Ni451  1  0.02441917  0.49739000  0.13798164  1.0
  Ni  Ni452  1  0.02441917  0.83072333  0.13798164  1.0
  Ni  Ni453  1  0.35775250  0.16405667  0.13798164  1.0
  Ni  Ni454  1  0.35775250  0.49739000  0.13798164  1.0
  Ni  Ni455  1  0.35775250  0.83072333  0.13798164  1.0
  Ni  Ni456  1  0.69108583  0.16405667  0.13798164  1.0
  Ni  Ni457  1  0.69108583  0.49739000  0.13798164  1.0
  Ni  Ni458  1  0.69108583  0.83072333  0.13798164  1.0
  Ni  Ni459  1  0.19108583  0.16405667  0.06655307  1.0
  Ni  Ni460  1  0.19108583  0.49739000  0.06655307  1.0
  Ni  Ni461  1  0.19108583  0.83072333  0.06655307  1.0
  Ni  Ni462  1  0.52441917  0.16405667  0.06655307  1.0
  Ni  Ni463  1  0.52441917  0.49739000  0.06655307  1.0
  Ni  Ni464  1  0.52441917  0.83072333  0.06655307  1.0
  Ni  Ni465  1  0.85775250  0.16405667  0.06655307  1.0
  Ni  Ni466  1  0.85775250  0.49739000  0.06655307  1.0
  Ni  Ni467  1  0.85775250  0.83072333  0.06655307  1.0
  Ni  Ni468  1  0.07268383  0.16405667  0.11729679  1.0
  Ni  Ni469  1  0.07268383  0.49739000  0.11729679  1.0
  Ni  Ni470  1  0.07268383  0.83072333  0.11729679  1.0
  Ni  Ni471  1  0.40601717  0.16405667  0.11729679  1.0
  Ni  Ni472  1  0.40601717  0.49739000  0.11729679  1.0
  Ni  Ni473  1  0.40601717  0.83072333  0.11729679  1.0
  Ni  Ni474  1  0.73935050  0.16405667  0.11729679  1.0
  Ni  Ni475  1  0.73935050  0.49739000  0.11729679  1.0
  Ni  Ni476  1  0.73935050  0.83072333  0.11729679  1.0
  Ni  Ni477  1  0.23935050  0.16405667  0.04586821  1.0
  Ni  Ni478  1  0.23935050  0.49739000  0.04586821  1.0
  Ni  Ni479  1  0.23935050  0.83072333  0.04586821  1.0
  Ni  Ni480  1  0.57268383  0.16405667  0.04586821  1.0
  Ni  Ni481  1  0.57268383  0.49739000  0.04586821  1.0
  Ni  Ni482  1  0.57268383  0.83072333  0.04586821  1.0
  Ni  Ni483  1  0.90601717  0.16405667  0.04586821  1.0
  Ni  Ni484  1  0.90601717  0.49739000  0.04586821  1.0
  Ni  Ni485  1  0.90601717  0.83072333  0.04586821  1.0
  Ni  Ni486  1  0.14224750  0.16927667  0.06611579  1.0
  Ni  Ni487  1  0.14224750  0.50261000  0.06611579  1.0
  Ni  Ni488  1  0.14224750  0.83594333  0.06611579  1.0
  Ni  Ni489  1  0.47558083  0.16927667  0.06611579  1.0
  Ni  Ni490  1  0.47558083  0.50261000  0.06611579  1.0
  Ni  Ni491  1  0.47558083  0.83594333  0.06611579  1.0
  Ni  Ni492  1  0.80891417  0.16927667  0.06611579  1.0
  Ni  Ni493  1  0.80891417  0.50261000  0.06611579  1.0
  Ni  Ni494  1  0.80891417  0.83594333  0.06611579  1.0
  Ni  Ni495  1  0.30891417  0.16927667  0.13754436  1.0
  Ni  Ni496  1  0.30891417  0.50261000  0.13754436  1.0
  Ni  Ni497  1  0.30891417  0.83594333  0.13754436  1.0
  Ni  Ni498  1  0.64224750  0.16927667  0.13754436  1.0
  Ni  Ni499  1  0.64224750  0.50261000  0.13754436  1.0
  Ni  Ni500  1  0.64224750  0.83594333  0.13754436  1.0
  Ni  Ni501  1  0.97558083  0.16927667  0.13754436  1.0
  Ni  Ni502  1  0.97558083  0.50261000  0.13754436  1.0
  Ni  Ni503  1  0.97558083  0.83594333  0.13754436  1.0
  Ni  Ni504  1  0.05891417  0.33072333  0.02816436  1.0
  Ni  Ni505  1  0.05891417  0.66405667  0.02816436  1.0
  Ni  Ni506  1  0.05891417  0.99739000  0.02816436  1.0
  Ni  Ni507  1  0.39224750  0.33072333  0.02816436  1.0
  Ni  Ni508  1  0.39224750  0.66405667  0.02816436  1.0
  Ni  Ni509  1  0.39224750  0.99739000  0.02816436  1.0
  Ni  Ni510  1  0.72558083  0.33072333  0.02816436  1.0
  Ni  Ni511  1  0.72558083  0.66405667  0.02816436  1.0
  Ni  Ni512  1  0.72558083  0.99739000  0.02816436  1.0
  Ni  Ni513  1  0.22558083  0.33072333  0.09959293  1.0
  Ni  Ni514  1  0.22558083  0.66405667  0.09959293  1.0
  Ni  Ni515  1  0.22558083  0.99739000  0.09959293  1.0
  Ni  Ni516  1  0.55891417  0.33072333  0.09959293  1.0
  Ni  Ni517  1  0.55891417  0.66405667  0.09959293  1.0
  Ni  Ni518  1  0.55891417  0.99739000  0.09959293  1.0
  Ni  Ni519  1  0.89224750  0.33072333  0.09959293  1.0
  Ni  Ni520  1  0.89224750  0.66405667  0.09959293  1.0
  Ni  Ni521  1  0.89224750  0.99739000  0.09959293  1.0
  Ni  Ni522  1  0.10775250  0.00261000  0.03307593  1.0
  Ni  Ni523  1  0.10775250  0.33594333  0.03307593  1.0
  Ni  Ni524  1  0.10775250  0.66927667  0.03307593  1.0
  Ni  Ni525  1  0.44108583  0.00261000  0.03307593  1.0
  Ni  Ni526  1  0.44108583  0.33594333  0.03307593  1.0
  Ni  Ni527  1  0.44108583  0.66927667  0.03307593  1.0
  Ni  Ni528  1  0.77441917  0.00261000  0.03307593  1.0
  Ni  Ni529  1  0.77441917  0.33594333  0.03307593  1.0
  Ni  Ni530  1  0.77441917  0.66927667  0.03307593  1.0
  Ni  Ni531  1  0.27441917  0.00261000  0.10450450  1.0
  Ni  Ni532  1  0.27441917  0.33594333  0.10450450  1.0
  Ni  Ni533  1  0.27441917  0.66927667  0.10450450  1.0
  Ni  Ni534  1  0.60775250  0.00261000  0.10450450  1.0
  Ni  Ni535  1  0.60775250  0.33594333  0.10450450  1.0
  Ni  Ni536  1  0.60775250  0.66927667  0.10450450  1.0
  Ni  Ni537  1  0.94108583  0.00261000  0.10450450  1.0
  Ni  Ni538  1  0.94108583  0.33594333  0.10450450  1.0
  Ni  Ni539  1  0.94108583  0.66927667  0.10450450  1.0
  Ni  Ni540  1  0.01785100  0.13163367  0.07427157  1.0
  Ni  Ni541  1  0.01785100  0.46496700  0.07427157  1.0
  Ni  Ni542  1  0.01785100  0.79830033  0.07427157  1.0
  Ni  Ni543  1  0.35118433  0.13163367  0.07427157  1.0
  Ni  Ni544  1  0.35118433  0.46496700  0.07427157  1.0
  Ni  Ni545  1  0.35118433  0.79830033  0.07427157  1.0
  Ni  Ni546  1  0.68451767  0.13163367  0.07427157  1.0
  Ni  Ni547  1  0.68451767  0.46496700  0.07427157  1.0
  Ni  Ni548  1  0.68451767  0.79830033  0.07427157  1.0
  Ni  Ni549  1  0.18451767  0.13163367  0.00284300  1.0
  Ni  Ni550  1  0.18451767  0.46496700  0.00284300  1.0
  Ni  Ni551  1  0.18451767  0.79830033  0.00284300  1.0
  Ni  Ni552  1  0.51785100  0.13163367  0.00284300  1.0
  Ni  Ni553  1  0.51785100  0.46496700  0.00284300  1.0
  Ni  Ni554  1  0.51785100  0.79830033  0.00284300  1.0
  Ni  Ni555  1  0.85118433  0.13163367  0.00284300  1.0
  Ni  Ni556  1  0.85118433  0.46496700  0.00284300  1.0
  Ni  Ni557  1  0.85118433  0.79830033  0.00284300  1.0
  Ni  Ni558  1  0.14881567  0.20169967  0.12982586  1.0
  Ni  Ni559  1  0.14881567  0.53503300  0.12982586  1.0
  Ni  Ni560  1  0.14881567  0.86836633  0.12982586  1.0
  Ni  Ni561  1  0.48214900  0.20169967  0.12982586  1.0
  Ni  Ni562  1  0.48214900  0.53503300  0.12982586  1.0
  Ni  Ni563  1  0.48214900  0.86836633  0.12982586  1.0
  Ni  Ni564  1  0.81548233  0.20169967  0.12982586  1.0
  Ni  Ni565  1  0.81548233  0.53503300  0.12982586  1.0
  Ni  Ni566  1  0.81548233  0.86836633  0.12982586  1.0
  Ni  Ni567  1  0.31548233  0.20169967  0.05839729  1.0
  Ni  Ni568  1  0.31548233  0.53503300  0.05839729  1.0
  Ni  Ni569  1  0.31548233  0.86836633  0.05839729  1.0
  Ni  Ni570  1  0.64881567  0.20169967  0.05839729  1.0
  Ni  Ni571  1  0.64881567  0.53503300  0.05839729  1.0
  Ni  Ni572  1  0.64881567  0.86836633  0.05839729  1.0
  Ni  Ni573  1  0.98214900  0.20169967  0.05839729  1.0
  Ni  Ni574  1  0.98214900  0.53503300  0.05839729  1.0
  Ni  Ni575  1  0.98214900  0.86836633  0.05839729  1.0
  Ni  Ni576  1  0.06548233  0.29830033  0.06408329  1.0
  Ni  Ni577  1  0.06548233  0.63163367  0.06408329  1.0
  Ni  Ni578  1  0.06548233  0.96496700  0.06408329  1.0
  Ni  Ni579  1  0.39881567  0.29830033  0.06408329  1.0
  Ni  Ni580  1  0.39881567  0.63163367  0.06408329  1.0
  Ni  Ni581  1  0.39881567  0.96496700  0.06408329  1.0
  Ni  Ni582  1  0.73214900  0.29830033  0.06408329  1.0
  Ni  Ni583  1  0.73214900  0.63163367  0.06408329  1.0
  Ni  Ni584  1  0.73214900  0.96496700  0.06408329  1.0
  Ni  Ni585  1  0.23214900  0.29830033  0.13551186  1.0
  Ni  Ni586  1  0.23214900  0.63163367  0.13551186  1.0
  Ni  Ni587  1  0.23214900  0.96496700  0.13551186  1.0
  Ni  Ni588  1  0.56548233  0.29830033  0.13551186  1.0
  Ni  Ni589  1  0.56548233  0.63163367  0.13551186  1.0
  Ni  Ni590  1  0.56548233  0.96496700  0.13551186  1.0
  Ni  Ni591  1  0.89881567  0.29830033  0.13551186  1.0
  Ni  Ni592  1  0.89881567  0.63163367  0.13551186  1.0
  Ni  Ni593  1  0.89881567  0.96496700  0.13551186  1.0
  Ni  Ni594  1  0.10118433  0.03503300  0.14001414  1.0
  Ni  Ni595  1  0.10118433  0.36836633  0.14001414  1.0
  Ni  Ni596  1  0.10118433  0.70169967  0.14001414  1.0
  Ni  Ni597  1  0.43451767  0.03503300  0.14001414  1.0
  Ni  Ni598  1  0.43451767  0.36836633  0.14001414  1.0
  Ni  Ni599  1  0.43451767  0.70169967  0.14001414  1.0
  Ni  Ni600  1  0.76785100  0.03503300  0.14001414  1.0
  Ni  Ni601  1  0.76785100  0.36836633  0.14001414  1.0
  Ni  Ni602  1  0.76785100  0.70169967  0.14001414  1.0
  Ni  Ni603  1  0.26785100  0.03503300  0.06858557  1.0
  Ni  Ni604  1  0.26785100  0.36836633  0.06858557  1.0
  Ni  Ni605  1  0.26785100  0.70169967  0.06858557  1.0
  Ni  Ni606  1  0.60118433  0.03503300  0.06858557  1.0
  Ni  Ni607  1  0.60118433  0.36836633  0.06858557  1.0
  Ni  Ni608  1  0.60118433  0.70169967  0.06858557  1.0
  Ni  Ni609  1  0.93451767  0.03503300  0.06858557  1.0
  Ni  Ni610  1  0.93451767  0.36836633  0.06858557  1.0
  Ni  Ni611  1  0.93451767  0.70169967  0.06858557  1.0
  Hf  Hf612  1  0.11561967  0.00000000  0.23106886  1.0
  Hf  Hf613  1  0.11561967  0.33333333  0.23106886  1.0
  Hf  Hf614  1  0.11561967  0.66666667  0.23106886  1.0
  Hf  Hf615  1  0.44895300  0.00000000  0.23106886  1.0
  Hf  Hf616  1  0.44895300  0.33333333  0.23106886  1.0
  Hf  Hf617  1  0.44895300  0.66666667  0.23106886  1.0
  Hf  Hf618  1  0.78228633  0.00000000  0.23106886  1.0
  Hf  Hf619  1  0.78228633  0.33333333  0.23106886  1.0
  Hf  Hf620  1  0.78228633  0.66666667  0.23106886  1.0
  Hf  Hf621  1  0.28228633  0.00000000  0.15964029  1.0
  Hf  Hf622  1  0.28228633  0.33333333  0.15964029  1.0
  Hf  Hf623  1  0.28228633  0.66666667  0.15964029  1.0
  Hf  Hf624  1  0.61561967  0.00000000  0.15964029  1.0
  Hf  Hf625  1  0.61561967  0.33333333  0.15964029  1.0
  Hf  Hf626  1  0.61561967  0.66666667  0.15964029  1.0
  Hf  Hf627  1  0.94895300  0.00000000  0.15964029  1.0
  Hf  Hf628  1  0.94895300  0.33333333  0.15964029  1.0
  Hf  Hf629  1  0.94895300  0.66666667  0.15964029  1.0
  Hf  Hf630  1  0.05104700  0.00000000  0.25874286  1.0
  Hf  Hf631  1  0.05104700  0.33333333  0.25874286  1.0
  Hf  Hf632  1  0.05104700  0.66666667  0.25874286  1.0
  Hf  Hf633  1  0.38438033  0.00000000  0.25874286  1.0
  Hf  Hf634  1  0.38438033  0.33333333  0.25874286  1.0
  Hf  Hf635  1  0.38438033  0.66666667  0.25874286  1.0
  Hf  Hf636  1  0.71771367  0.00000000  0.25874286  1.0
  Hf  Hf637  1  0.71771367  0.33333333  0.25874286  1.0
  Hf  Hf638  1  0.71771367  0.66666667  0.25874286  1.0
  Hf  Hf639  1  0.21771367  0.00000000  0.18731429  1.0
  Hf  Hf640  1  0.21771367  0.33333333  0.18731429  1.0
  Hf  Hf641  1  0.21771367  0.66666667  0.18731429  1.0
  Hf  Hf642  1  0.55104700  0.00000000  0.18731429  1.0
  Hf  Hf643  1  0.55104700  0.33333333  0.18731429  1.0
  Hf  Hf644  1  0.55104700  0.66666667  0.18731429  1.0
  Hf  Hf645  1  0.88438033  0.00000000  0.18731429  1.0
  Hf  Hf646  1  0.88438033  0.33333333  0.18731429  1.0
  Hf  Hf647  1  0.88438033  0.66666667  0.18731429  1.0
  Hf  Hf648  1  0.13438033  0.16666667  0.15160000  1.0
  Hf  Hf649  1  0.13438033  0.50000000  0.15160000  1.0
  Hf  Hf650  1  0.13438033  0.83333333  0.15160000  1.0
  Hf  Hf651  1  0.46771367  0.16666667  0.15160000  1.0
  Hf  Hf652  1  0.46771367  0.50000000  0.15160000  1.0
  Hf  Hf653  1  0.46771367  0.83333333  0.15160000  1.0
  Hf  Hf654  1  0.80104700  0.16666667  0.15160000  1.0
  Hf  Hf655  1  0.80104700  0.50000000  0.15160000  1.0
  Hf  Hf656  1  0.80104700  0.83333333  0.15160000  1.0
  Hf  Hf657  1  0.30104700  0.16666667  0.22302857  1.0
  Hf  Hf658  1  0.30104700  0.50000000  0.22302857  1.0
  Hf  Hf659  1  0.30104700  0.83333333  0.22302857  1.0
  Hf  Hf660  1  0.63438033  0.16666667  0.22302857  1.0
  Hf  Hf661  1  0.63438033  0.50000000  0.22302857  1.0
  Hf  Hf662  1  0.63438033  0.83333333  0.22302857  1.0
  Hf  Hf663  1  0.96771367  0.16666667  0.22302857  1.0
  Hf  Hf664  1  0.96771367  0.50000000  0.22302857  1.0
  Hf  Hf665  1  0.96771367  0.83333333  0.22302857  1.0
  Hf  Hf666  1  0.03228633  0.16666667  0.19535457  1.0
  Hf  Hf667  1  0.03228633  0.50000000  0.19535457  1.0
  Hf  Hf668  1  0.03228633  0.83333333  0.19535457  1.0
  Hf  Hf669  1  0.36561967  0.16666667  0.19535457  1.0
  Hf  Hf670  1  0.36561967  0.50000000  0.19535457  1.0
  Hf  Hf671  1  0.36561967  0.83333333  0.19535457  1.0
  Hf  Hf672  1  0.69895300  0.16666667  0.19535457  1.0
  Hf  Hf673  1  0.69895300  0.50000000  0.19535457  1.0
  Hf  Hf674  1  0.69895300  0.83333333  0.19535457  1.0
  Hf  Hf675  1  0.19895300  0.16666667  0.26678314  1.0
  Hf  Hf676  1  0.19895300  0.50000000  0.26678314  1.0
  Hf  Hf677  1  0.19895300  0.83333333  0.26678314  1.0
  Hf  Hf678  1  0.53228633  0.16666667  0.26678314  1.0
  Hf  Hf679  1  0.53228633  0.50000000  0.26678314  1.0
  Hf  Hf680  1  0.53228633  0.83333333  0.26678314  1.0
  Hf  Hf681  1  0.86561967  0.16666667  0.26678314  1.0
  Hf  Hf682  1  0.86561967  0.50000000  0.26678314  1.0
  Hf  Hf683  1  0.86561967  0.83333333  0.26678314  1.0
  Hf  Hf684  1  0.00000000  0.00000000  0.28062014  1.0
  Hf  Hf685  1  0.00000000  0.33333333  0.28062014  1.0
  Hf  Hf686  1  0.00000000  0.66666667  0.28062014  1.0
  Hf  Hf687  1  0.33333333  0.00000000  0.28062014  1.0
  Hf  Hf688  1  0.33333333  0.33333333  0.28062014  1.0
  Hf  Hf689  1  0.33333333  0.66666667  0.28062014  1.0
  Hf  Hf690  1  0.66666667  0.00000000  0.28062014  1.0
  Hf  Hf691  1  0.66666667  0.33333333  0.28062014  1.0
  Hf  Hf692  1  0.66666667  0.66666667  0.28062014  1.0
  Hf  Hf693  1  0.16666667  0.00000000  0.20919157  1.0
  Hf  Hf694  1  0.16666667  0.33333333  0.20919157  1.0
  Hf  Hf695  1  0.16666667  0.66666667  0.20919157  1.0
  Hf  Hf696  1  0.50000000  0.00000000  0.20919157  1.0
  Hf  Hf697  1  0.50000000  0.33333333  0.20919157  1.0
  Hf  Hf698  1  0.50000000  0.66666667  0.20919157  1.0
  Hf  Hf699  1  0.83333333  0.00000000  0.20919157  1.0
  Hf  Hf700  1  0.83333333  0.33333333  0.20919157  1.0
  Hf  Hf701  1  0.83333333  0.66666667  0.20919157  1.0
  Hf  Hf702  1  0.08333333  0.16666667  0.17347729  1.0
  Hf  Hf703  1  0.08333333  0.50000000  0.17347729  1.0
  Hf  Hf704  1  0.08333333  0.83333333  0.17347729  1.0
  Hf  Hf705  1  0.41666667  0.16666667  0.17347729  1.0
  Hf  Hf706  1  0.41666667  0.50000000  0.17347729  1.0
  Hf  Hf707  1  0.41666667  0.83333333  0.17347729  1.0
  Hf  Hf708  1  0.75000000  0.16666667  0.17347729  1.0
  Hf  Hf709  1  0.75000000  0.50000000  0.17347729  1.0
  Hf  Hf710  1  0.75000000  0.83333333  0.17347729  1.0
  Hf  Hf711  1  0.25000000  0.16666667  0.24490586  1.0
  Hf  Hf712  1  0.25000000  0.50000000  0.24490586  1.0
  Hf  Hf713  1  0.25000000  0.83333333  0.24490586  1.0
  Hf  Hf714  1  0.58333333  0.16666667  0.24490586  1.0
  Hf  Hf715  1  0.58333333  0.50000000  0.24490586  1.0
  Hf  Hf716  1  0.58333333  0.83333333  0.24490586  1.0
  Hf  Hf717  1  0.91666667  0.16666667  0.24490586  1.0
  Hf  Hf718  1  0.91666667  0.50000000  0.24490586  1.0
  Hf  Hf719  1  0.91666667  0.83333333  0.24490586  1.0
  Hf  Hf720  1  0.00084400  0.08333333  0.24599100  1.0
  Hf  Hf721  1  0.00084400  0.41666667  0.24599100  1.0
  Hf  Hf722  1  0.00084400  0.75000000  0.24599100  1.0
  Hf  Hf723  1  0.33417733  0.08333333  0.24599100  1.0
  Hf  Hf724  1  0.33417733  0.41666667  0.24599100  1.0
  Hf  Hf725  1  0.33417733  0.75000000  0.24599100  1.0
  Hf  Hf726  1  0.66751067  0.08333333  0.24599100  1.0
  Hf  Hf727  1  0.66751067  0.41666667  0.24599100  1.0
  Hf  Hf728  1  0.66751067  0.75000000  0.24599100  1.0
  Hf  Hf729  1  0.16751067  0.08333333  0.17456243  1.0
  Hf  Hf730  1  0.16751067  0.41666667  0.17456243  1.0
  Hf  Hf731  1  0.16751067  0.75000000  0.17456243  1.0
  Hf  Hf732  1  0.50084400  0.08333333  0.17456243  1.0
  Hf  Hf733  1  0.50084400  0.41666667  0.17456243  1.0
  Hf  Hf734  1  0.50084400  0.75000000  0.17456243  1.0
  Hf  Hf735  1  0.83417733  0.08333333  0.17456243  1.0
  Hf  Hf736  1  0.83417733  0.41666667  0.17456243  1.0
  Hf  Hf737  1  0.83417733  0.75000000  0.17456243  1.0
  Hf  Hf738  1  0.16582267  0.25000000  0.24382071  1.0
  Hf  Hf739  1  0.16582267  0.58333333  0.24382071  1.0
  Hf  Hf740  1  0.16582267  0.91666667  0.24382071  1.0
  Hf  Hf741  1  0.49915600  0.25000000  0.24382071  1.0
  Hf  Hf742  1  0.49915600  0.58333333  0.24382071  1.0
  Hf  Hf743  1  0.49915600  0.91666667  0.24382071  1.0
  Hf  Hf744  1  0.83248933  0.25000000  0.24382071  1.0
  Hf  Hf745  1  0.83248933  0.58333333  0.24382071  1.0
  Hf  Hf746  1  0.83248933  0.91666667  0.24382071  1.0
  Hf  Hf747  1  0.33248933  0.25000000  0.17239214  1.0
  Hf  Hf748  1  0.33248933  0.58333333  0.17239214  1.0
  Hf  Hf749  1  0.33248933  0.91666667  0.17239214  1.0
  Hf  Hf750  1  0.66582267  0.25000000  0.17239214  1.0
  Hf  Hf751  1  0.66582267  0.58333333  0.17239214  1.0
  Hf  Hf752  1  0.66582267  0.91666667  0.17239214  1.0
  Hf  Hf753  1  0.99915600  0.25000000  0.17239214  1.0
  Hf  Hf754  1  0.99915600  0.58333333  0.17239214  1.0
  Hf  Hf755  1  0.99915600  0.91666667  0.17239214  1.0
  Hf  Hf756  1  0.08248933  0.25000000  0.27953500  1.0
  Hf  Hf757  1  0.08248933  0.58333333  0.27953500  1.0
  Hf  Hf758  1  0.08248933  0.91666667  0.27953500  1.0
  Hf  Hf759  1  0.41582267  0.25000000  0.27953500  1.0
  Hf  Hf760  1  0.41582267  0.58333333  0.27953500  1.0
  Hf  Hf761  1  0.41582267  0.91666667  0.27953500  1.0
  Hf  Hf762  1  0.74915600  0.25000000  0.27953500  1.0
  Hf  Hf763  1  0.74915600  0.58333333  0.27953500  1.0
  Hf  Hf764  1  0.74915600  0.91666667  0.27953500  1.0
  Hf  Hf765  1  0.24915600  0.25000000  0.20810643  1.0
  Hf  Hf766  1  0.24915600  0.58333333  0.20810643  1.0
  Hf  Hf767  1  0.24915600  0.91666667  0.20810643  1.0
  Hf  Hf768  1  0.58248933  0.25000000  0.20810643  1.0
  Hf  Hf769  1  0.58248933  0.58333333  0.20810643  1.0
  Hf  Hf770  1  0.58248933  0.91666667  0.20810643  1.0
  Hf  Hf771  1  0.91582267  0.25000000  0.20810643  1.0
  Hf  Hf772  1  0.91582267  0.58333333  0.20810643  1.0
  Hf  Hf773  1  0.91582267  0.91666667  0.20810643  1.0
  Hf  Hf774  1  0.08417733  0.08333333  0.21027671  1.0
  Hf  Hf775  1  0.08417733  0.41666667  0.21027671  1.0
  Hf  Hf776  1  0.08417733  0.75000000  0.21027671  1.0
  Hf  Hf777  1  0.41751067  0.08333333  0.21027671  1.0
  Hf  Hf778  1  0.41751067  0.41666667  0.21027671  1.0
  Hf  Hf779  1  0.41751067  0.75000000  0.21027671  1.0
  Hf  Hf780  1  0.75084400  0.08333333  0.21027671  1.0
  Hf  Hf781  1  0.75084400  0.41666667  0.21027671  1.0
  Hf  Hf782  1  0.75084400  0.75000000  0.21027671  1.0
  Hf  Hf783  1  0.25084400  0.08333333  0.28170529  1.0
  Hf  Hf784  1  0.25084400  0.41666667  0.28170529  1.0
  Hf  Hf785  1  0.25084400  0.75000000  0.28170529  1.0
  Hf  Hf786  1  0.58417733  0.08333333  0.28170529  1.0
  Hf  Hf787  1  0.58417733  0.41666667  0.28170529  1.0
  Hf  Hf788  1  0.58417733  0.75000000  0.28170529  1.0
  Hf  Hf789  1  0.91751067  0.08333333  0.28170529  1.0
  Hf  Hf790  1  0.91751067  0.41666667  0.28170529  1.0
  Hf  Hf791  1  0.91751067  0.75000000  0.28170529  1.0
  Hf  Hf792  1  0.05219250  0.06251900  0.23166150  1.0
  Hf  Hf793  1  0.05219250  0.39585233  0.23166150  1.0
  Hf  Hf794  1  0.05219250  0.72918567  0.23166150  1.0
  Hf  Hf795  1  0.38552583  0.06251900  0.23166150  1.0
  Hf  Hf796  1  0.38552583  0.39585233  0.23166150  1.0
  Hf  Hf797  1  0.38552583  0.72918567  0.23166150  1.0
  Hf  Hf798  1  0.71885917  0.06251900  0.23166150  1.0
  Hf  Hf799  1  0.71885917  0.39585233  0.23166150  1.0
  Hf  Hf800  1  0.71885917  0.72918567  0.23166150  1.0
  Hf  Hf801  1  0.21885917  0.06251900  0.16023293  1.0
  Hf  Hf802  1  0.21885917  0.39585233  0.16023293  1.0
  Hf  Hf803  1  0.21885917  0.72918567  0.16023293  1.0
  Hf  Hf804  1  0.55219250  0.06251900  0.16023293  1.0
  Hf  Hf805  1  0.55219250  0.39585233  0.16023293  1.0
  Hf  Hf806  1  0.55219250  0.72918567  0.16023293  1.0
  Hf  Hf807  1  0.88552583  0.06251900  0.16023293  1.0
  Hf  Hf808  1  0.88552583  0.39585233  0.16023293  1.0
  Hf  Hf809  1  0.88552583  0.72918567  0.16023293  1.0
  Hf  Hf810  1  0.11447417  0.27081433  0.25815021  1.0
  Hf  Hf811  1  0.11447417  0.60414767  0.25815021  1.0
  Hf  Hf812  1  0.11447417  0.93748100  0.25815021  1.0
  Hf  Hf813  1  0.44780750  0.27081433  0.25815021  1.0
  Hf  Hf814  1  0.44780750  0.60414767  0.25815021  1.0
  Hf  Hf815  1  0.44780750  0.93748100  0.25815021  1.0
  Hf  Hf816  1  0.78114083  0.27081433  0.25815021  1.0
  Hf  Hf817  1  0.78114083  0.60414767  0.25815021  1.0
  Hf  Hf818  1  0.78114083  0.93748100  0.25815021  1.0
  Hf  Hf819  1  0.28114083  0.27081433  0.18672164  1.0
  Hf  Hf820  1  0.28114083  0.60414767  0.18672164  1.0
  Hf  Hf821  1  0.28114083  0.93748100  0.18672164  1.0
  Hf  Hf822  1  0.61447417  0.27081433  0.18672164  1.0
  Hf  Hf823  1  0.61447417  0.60414767  0.18672164  1.0
  Hf  Hf824  1  0.61447417  0.93748100  0.18672164  1.0
  Hf  Hf825  1  0.94780750  0.27081433  0.18672164  1.0
  Hf  Hf826  1  0.94780750  0.60414767  0.18672164  1.0
  Hf  Hf827  1  0.94780750  0.93748100  0.18672164  1.0
  Hf  Hf828  1  0.03114083  0.22918567  0.27602364  1.0
  Hf  Hf829  1  0.03114083  0.56251900  0.27602364  1.0
  Hf  Hf830  1  0.03114083  0.89585233  0.27602364  1.0
  Hf  Hf831  1  0.36447417  0.22918567  0.27602364  1.0
  Hf  Hf832  1  0.36447417  0.56251900  0.27602364  1.0
  Hf  Hf833  1  0.36447417  0.89585233  0.27602364  1.0
  Hf  Hf834  1  0.69780750  0.22918567  0.27602364  1.0
  Hf  Hf835  1  0.69780750  0.56251900  0.27602364  1.0
  Hf  Hf836  1  0.69780750  0.89585233  0.27602364  1.0
  Hf  Hf837  1  0.19780750  0.22918567  0.20459507  1.0
  Hf  Hf838  1  0.19780750  0.56251900  0.20459507  1.0
  Hf  Hf839  1  0.19780750  0.89585233  0.20459507  1.0
  Hf  Hf840  1  0.53114083  0.22918567  0.20459507  1.0
  Hf  Hf841  1  0.53114083  0.56251900  0.20459507  1.0
  Hf  Hf842  1  0.53114083  0.89585233  0.20459507  1.0
  Hf  Hf843  1  0.86447417  0.22918567  0.20459507  1.0
  Hf  Hf844  1  0.86447417  0.56251900  0.20459507  1.0
  Hf  Hf845  1  0.86447417  0.89585233  0.20459507  1.0
  Hf  Hf846  1  0.13552583  0.10414767  0.21378807  1.0
  Hf  Hf847  1  0.13552583  0.43748100  0.21378807  1.0
  Hf  Hf848  1  0.13552583  0.77081433  0.21378807  1.0
  Hf  Hf849  1  0.46885917  0.10414767  0.21378807  1.0
  Hf  Hf850  1  0.46885917  0.43748100  0.21378807  1.0
  Hf  Hf851  1  0.46885917  0.77081433  0.21378807  1.0
  Hf  Hf852  1  0.80219250  0.10414767  0.21378807  1.0
  Hf  Hf853  1  0.80219250  0.43748100  0.21378807  1.0
  Hf  Hf854  1  0.80219250  0.77081433  0.21378807  1.0
  Hf  Hf855  1  0.30219250  0.10414767  0.28521664  1.0
  Hf  Hf856  1  0.30219250  0.43748100  0.28521664  1.0
  Hf  Hf857  1  0.30219250  0.77081433  0.28521664  1.0
  Hf  Hf858  1  0.63552583  0.10414767  0.28521664  1.0
  Hf  Hf859  1  0.63552583  0.43748100  0.28521664  1.0
  Hf  Hf860  1  0.63552583  0.77081433  0.28521664  1.0
  Hf  Hf861  1  0.96885917  0.10414767  0.28521664  1.0
  Hf  Hf862  1  0.96885917  0.43748100  0.28521664  1.0
  Hf  Hf863  1  0.96885917  0.77081433  0.28521664  1.0
  Ni  Ni864  1  0.14435217  0.06943233  0.25151964  1.0
  Ni  Ni865  1  0.14435217  0.40276567  0.25151964  1.0
  Ni  Ni866  1  0.14435217  0.73609900  0.25151964  1.0
  Ni  Ni867  1  0.47768550  0.06943233  0.25151964  1.0
  Ni  Ni868  1  0.47768550  0.40276567  0.25151964  1.0
  Ni  Ni869  1  0.47768550  0.73609900  0.25151964  1.0
  Ni  Ni870  1  0.81101883  0.06943233  0.25151964  1.0
  Ni  Ni871  1  0.81101883  0.40276567  0.25151964  1.0
  Ni  Ni872  1  0.81101883  0.73609900  0.25151964  1.0
  Ni  Ni873  1  0.31101883  0.06943233  0.18009107  1.0
  Ni  Ni874  1  0.31101883  0.40276567  0.18009107  1.0
  Ni  Ni875  1  0.31101883  0.73609900  0.18009107  1.0
  Ni  Ni876  1  0.64435217  0.06943233  0.18009107  1.0
  Ni  Ni877  1  0.64435217  0.40276567  0.18009107  1.0
  Ni  Ni878  1  0.64435217  0.73609900  0.18009107  1.0
  Ni  Ni879  1  0.97768550  0.06943233  0.18009107  1.0
  Ni  Ni880  1  0.97768550  0.40276567  0.18009107  1.0
  Ni  Ni881  1  0.97768550  0.73609900  0.18009107  1.0
  Ni  Ni882  1  0.02231450  0.26390100  0.23829207  1.0
  Ni  Ni883  1  0.02231450  0.59723433  0.23829207  1.0
  Ni  Ni884  1  0.02231450  0.93056767  0.23829207  1.0
  Ni  Ni885  1  0.35564783  0.26390100  0.23829207  1.0
  Ni  Ni886  1  0.35564783  0.59723433  0.23829207  1.0
  Ni  Ni887  1  0.35564783  0.93056767  0.23829207  1.0
  Ni  Ni888  1  0.68898117  0.26390100  0.23829207  1.0
  Ni  Ni889  1  0.68898117  0.59723433  0.23829207  1.0
  Ni  Ni890  1  0.68898117  0.93056767  0.23829207  1.0
  Ni  Ni891  1  0.18898117  0.26390100  0.16686350  1.0
  Ni  Ni892  1  0.18898117  0.59723433  0.16686350  1.0
  Ni  Ni893  1  0.18898117  0.93056767  0.16686350  1.0
  Ni  Ni894  1  0.52231450  0.26390100  0.16686350  1.0
  Ni  Ni895  1  0.52231450  0.59723433  0.16686350  1.0
  Ni  Ni896  1  0.52231450  0.93056767  0.16686350  1.0
  Ni  Ni897  1  0.85564783  0.26390100  0.16686350  1.0
  Ni  Ni898  1  0.85564783  0.59723433  0.16686350  1.0
  Ni  Ni899  1  0.85564783  0.93056767  0.16686350  1.0
  Ni  Ni900  1  0.10564783  0.23609900  0.19066264  1.0
  Ni  Ni901  1  0.10564783  0.56943233  0.19066264  1.0
  Ni  Ni902  1  0.10564783  0.90276567  0.19066264  1.0
  Ni  Ni903  1  0.43898117  0.23609900  0.19066264  1.0
  Ni  Ni904  1  0.43898117  0.56943233  0.19066264  1.0
  Ni  Ni905  1  0.43898117  0.90276567  0.19066264  1.0
  Ni  Ni906  1  0.77231450  0.23609900  0.19066264  1.0
  Ni  Ni907  1  0.77231450  0.56943233  0.19066264  1.0
  Ni  Ni908  1  0.77231450  0.90276567  0.19066264  1.0
  Ni  Ni909  1  0.27231450  0.23609900  0.26209121  1.0
  Ni  Ni910  1  0.27231450  0.56943233  0.26209121  1.0
  Ni  Ni911  1  0.27231450  0.90276567  0.26209121  1.0
  Ni  Ni912  1  0.60564783  0.23609900  0.26209121  1.0
  Ni  Ni913  1  0.60564783  0.56943233  0.26209121  1.0
  Ni  Ni914  1  0.60564783  0.90276567  0.26209121  1.0
  Ni  Ni915  1  0.93898117  0.23609900  0.26209121  1.0
  Ni  Ni916  1  0.93898117  0.56943233  0.26209121  1.0
  Ni  Ni917  1  0.93898117  0.90276567  0.26209121  1.0
  Ni  Ni918  1  0.10915717  0.09723433  0.27851836  1.0
  Ni  Ni919  1  0.10915717  0.43056767  0.27851836  1.0
  Ni  Ni920  1  0.10915717  0.76390100  0.27851836  1.0
  Ni  Ni921  1  0.44249050  0.09723433  0.27851836  1.0
  Ni  Ni922  1  0.44249050  0.43056767  0.27851836  1.0
  Ni  Ni923  1  0.44249050  0.76390100  0.27851836  1.0
  Ni  Ni924  1  0.77582383  0.09723433  0.27851836  1.0
  Ni  Ni925  1  0.77582383  0.43056767  0.27851836  1.0
  Ni  Ni926  1  0.77582383  0.76390100  0.27851836  1.0
  Ni  Ni927  1  0.27582383  0.09723433  0.20708979  1.0
  Ni  Ni928  1  0.27582383  0.43056767  0.20708979  1.0
  Ni  Ni929  1  0.27582383  0.76390100  0.20708979  1.0
  Ni  Ni930  1  0.60915717  0.09723433  0.20708979  1.0
  Ni  Ni931  1  0.60915717  0.43056767  0.20708979  1.0
  Ni  Ni932  1  0.60915717  0.76390100  0.20708979  1.0
  Ni  Ni933  1  0.94249050  0.09723433  0.20708979  1.0
  Ni  Ni934  1  0.94249050  0.43056767  0.20708979  1.0
  Ni  Ni935  1  0.94249050  0.76390100  0.20708979  1.0
  Ni  Ni936  1  0.06101883  0.09723433  0.15629193  1.0
  Ni  Ni937  1  0.06101883  0.43056767  0.15629193  1.0
  Ni  Ni938  1  0.06101883  0.76390100  0.15629193  1.0
  Ni  Ni939  1  0.39435217  0.09723433  0.15629193  1.0
  Ni  Ni940  1  0.39435217  0.43056767  0.15629193  1.0
  Ni  Ni941  1  0.39435217  0.76390100  0.15629193  1.0
  Ni  Ni942  1  0.72768550  0.09723433  0.15629193  1.0
  Ni  Ni943  1  0.72768550  0.43056767  0.15629193  1.0
  Ni  Ni944  1  0.72768550  0.76390100  0.15629193  1.0
  Ni  Ni945  1  0.22768550  0.09723433  0.22772050  1.0
  Ni  Ni946  1  0.22768550  0.43056767  0.22772050  1.0
  Ni  Ni947  1  0.22768550  0.76390100  0.22772050  1.0
  Ni  Ni948  1  0.56101883  0.09723433  0.22772050  1.0
  Ni  Ni949  1  0.56101883  0.43056767  0.22772050  1.0
  Ni  Ni950  1  0.56101883  0.76390100  0.22772050  1.0
  Ni  Ni951  1  0.89435217  0.09723433  0.22772050  1.0
  Ni  Ni952  1  0.89435217  0.43056767  0.22772050  1.0
  Ni  Ni953  1  0.89435217  0.76390100  0.22772050  1.0
  Ni  Ni954  1  0.05750950  0.23609900  0.21129336  1.0
  Ni  Ni955  1  0.05750950  0.56943233  0.21129336  1.0
  Ni  Ni956  1  0.05750950  0.90276567  0.21129336  1.0
  Ni  Ni957  1  0.39084283  0.23609900  0.21129336  1.0
  Ni  Ni958  1  0.39084283  0.56943233  0.21129336  1.0
  Ni  Ni959  1  0.39084283  0.90276567  0.21129336  1.0
  Ni  Ni960  1  0.72417617  0.23609900  0.21129336  1.0
  Ni  Ni961  1  0.72417617  0.56943233  0.21129336  1.0
  Ni  Ni962  1  0.72417617  0.90276567  0.21129336  1.0
  Ni  Ni963  1  0.22417617  0.23609900  0.28272193  1.0
  Ni  Ni964  1  0.22417617  0.56943233  0.28272193  1.0
  Ni  Ni965  1  0.22417617  0.90276567  0.28272193  1.0
  Ni  Ni966  1  0.55750950  0.23609900  0.28272193  1.0
  Ni  Ni967  1  0.55750950  0.56943233  0.28272193  1.0
  Ni  Ni968  1  0.55750950  0.90276567  0.28272193  1.0
  Ni  Ni969  1  0.89084283  0.23609900  0.28272193  1.0
  Ni  Ni970  1  0.89084283  0.56943233  0.28272193  1.0
  Ni  Ni971  1  0.89084283  0.90276567  0.28272193  1.0
  Ni  Ni972  1  0.14084283  0.26390100  0.18749421  1.0
  Ni  Ni973  1  0.14084283  0.59723433  0.18749421  1.0
  Ni  Ni974  1  0.14084283  0.93056767  0.18749421  1.0
  Ni  Ni975  1  0.47417617  0.26390100  0.18749421  1.0
  Ni  Ni976  1  0.47417617  0.59723433  0.18749421  1.0
  Ni  Ni977  1  0.47417617  0.93056767  0.18749421  1.0
  Ni  Ni978  1  0.80750950  0.26390100  0.18749421  1.0
  Ni  Ni979  1  0.80750950  0.59723433  0.18749421  1.0
  Ni  Ni980  1  0.80750950  0.93056767  0.18749421  1.0
  Ni  Ni981  1  0.30750950  0.26390100  0.25892279  1.0
  Ni  Ni982  1  0.30750950  0.59723433  0.25892279  1.0
  Ni  Ni983  1  0.30750950  0.93056767  0.25892279  1.0
  Ni  Ni984  1  0.64084283  0.26390100  0.25892279  1.0
  Ni  Ni985  1  0.64084283  0.59723433  0.25892279  1.0
  Ni  Ni986  1  0.64084283  0.93056767  0.25892279  1.0
  Ni  Ni987  1  0.97417617  0.26390100  0.25892279  1.0
  Ni  Ni988  1  0.97417617  0.59723433  0.25892279  1.0
  Ni  Ni989  1  0.97417617  0.93056767  0.25892279  1.0
  Ni  Ni990  1  0.02582383  0.06943233  0.15946036  1.0
  Ni  Ni991  1  0.02582383  0.40276567  0.15946036  1.0
  Ni  Ni992  1  0.02582383  0.73609900  0.15946036  1.0
  Ni  Ni993  1  0.35915717  0.06943233  0.15946036  1.0
  Ni  Ni994  1  0.35915717  0.40276567  0.15946036  1.0
  Ni  Ni995  1  0.35915717  0.73609900  0.15946036  1.0
  Ni  Ni996  1  0.69249050  0.06943233  0.15946036  1.0
  Ni  Ni997  1  0.69249050  0.40276567  0.15946036  1.0
  Ni  Ni998  1  0.69249050  0.73609900  0.15946036  1.0
  Ni  Ni999  1  0.19249050  0.06943233  0.23088893  1.0
  Ni  Ni1000  1  0.19249050  0.40276567  0.23088893  1.0
  Ni  Ni1001  1  0.19249050  0.73609900  0.23088893  1.0
  Ni  Ni1002  1  0.52582383  0.06943233  0.23088893  1.0
  Ni  Ni1003  1  0.52582383  0.40276567  0.23088893  1.0
  Ni  Ni1004  1  0.52582383  0.73609900  0.23088893  1.0
  Ni  Ni1005  1  0.85915717  0.06943233  0.23088893  1.0
  Ni  Ni1006  1  0.85915717  0.40276567  0.23088893  1.0
  Ni  Ni1007  1  0.85915717  0.73609900  0.23088893  1.0
  Ni  Ni1008  1  0.15601717  0.00261000  0.15524821  1.0
  Ni  Ni1009  1  0.15601717  0.33594333  0.15524821  1.0
  Ni  Ni1010  1  0.15601717  0.66927667  0.15524821  1.0
  Ni  Ni1011  1  0.48935050  0.00261000  0.15524821  1.0
  Ni  Ni1012  1  0.48935050  0.33594333  0.15524821  1.0
  Ni  Ni1013  1  0.48935050  0.66927667  0.15524821  1.0
  Ni  Ni1014  1  0.82268383  0.00261000  0.15524821  1.0
  Ni  Ni1015  1  0.82268383  0.33594333  0.15524821  1.0
  Ni  Ni1016  1  0.82268383  0.66927667  0.15524821  1.0
  Ni  Ni1017  1  0.32268383  0.00261000  0.22667679  1.0
  Ni  Ni1018  1  0.32268383  0.33594333  0.22667679  1.0
  Ni  Ni1019  1  0.32268383  0.66927667  0.22667679  1.0
  Ni  Ni1020  1  0.65601717  0.00261000  0.22667679  1.0
  Ni  Ni1021  1  0.65601717  0.33594333  0.22667679  1.0
  Ni  Ni1022  1  0.65601717  0.66927667  0.22667679  1.0
  Ni  Ni1023  1  0.98935050  0.00261000  0.22667679  1.0
  Ni  Ni1024  1  0.98935050  0.33594333  0.22667679  1.0
  Ni  Ni1025  1  0.98935050  0.66927667  0.22667679  1.0
  Ni  Ni1026  1  0.01064950  0.33072333  0.19170636  1.0
  Ni  Ni1027  1  0.01064950  0.66405667  0.19170636  1.0
  Ni  Ni1028  1  0.01064950  0.99739000  0.19170636  1.0
  Ni  Ni1029  1  0.34398283  0.33072333  0.19170636  1.0
  Ni  Ni1030  1  0.34398283  0.66405667  0.19170636  1.0
  Ni  Ni1031  1  0.34398283  0.99739000  0.19170636  1.0
  Ni  Ni1032  1  0.67731617  0.33072333  0.19170636  1.0
  Ni  Ni1033  1  0.67731617  0.66405667  0.19170636  1.0
  Ni  Ni1034  1  0.67731617  0.99739000  0.19170636  1.0
  Ni  Ni1035  1  0.17731617  0.33072333  0.26313493  1.0
  Ni  Ni1036  1  0.17731617  0.66405667  0.26313493  1.0
  Ni  Ni1037  1  0.17731617  0.99739000  0.26313493  1.0
  Ni  Ni1038  1  0.51064950  0.33072333  0.26313493  1.0
  Ni  Ni1039  1  0.51064950  0.66405667  0.26313493  1.0
  Ni  Ni1040  1  0.51064950  0.99739000  0.26313493  1.0
  Ni  Ni1041  1  0.84398283  0.33072333  0.26313493  1.0
  Ni  Ni1042  1  0.84398283  0.66405667  0.26313493  1.0
  Ni  Ni1043  1  0.84398283  0.99739000  0.26313493  1.0
  Ni  Ni1044  1  0.09398283  0.16927667  0.22965779  1.0
  Ni  Ni1045  1  0.09398283  0.50261000  0.22965779  1.0
  Ni  Ni1046  1  0.09398283  0.83594333  0.22965779  1.0
  Ni  Ni1047  1  0.42731617  0.16927667  0.22965779  1.0
  Ni  Ni1048  1  0.42731617  0.50261000  0.22965779  1.0
  Ni  Ni1049  1  0.42731617  0.83594333  0.22965779  1.0
  Ni  Ni1050  1  0.76064950  0.16927667  0.22965779  1.0
  Ni  Ni1051  1  0.76064950  0.50261000  0.22965779  1.0
  Ni  Ni1052  1  0.76064950  0.83594333  0.22965779  1.0
  Ni  Ni1053  1  0.26064950  0.16927667  0.15822921  1.0
  Ni  Ni1054  1  0.26064950  0.50261000  0.15822921  1.0
  Ni  Ni1055  1  0.26064950  0.83594333  0.15822921  1.0
  Ni  Ni1056  1  0.59398283  0.16927667  0.15822921  1.0
  Ni  Ni1057  1  0.59398283  0.50261000  0.15822921  1.0
  Ni  Ni1058  1  0.59398283  0.83594333  0.15822921  1.0
  Ni  Ni1059  1  0.92731617  0.16927667  0.15822921  1.0
  Ni  Ni1060  1  0.92731617  0.50261000  0.15822921  1.0
  Ni  Ni1061  1  0.92731617  0.83594333  0.15822921  1.0
  Ni  Ni1062  1  0.02441917  0.16405667  0.28083879  1.0
  Ni  Ni1063  1  0.02441917  0.49739000  0.28083879  1.0
  Ni  Ni1064  1  0.02441917  0.83072333  0.28083879  1.0
  Ni  Ni1065  1  0.35775250  0.16405667  0.28083879  1.0
  Ni  Ni1066  1  0.35775250  0.49739000  0.28083879  1.0
  Ni  Ni1067  1  0.35775250  0.83072333  0.28083879  1.0
  Ni  Ni1068  1  0.69108583  0.16405667  0.28083879  1.0
  Ni  Ni1069  1  0.69108583  0.49739000  0.28083879  1.0
  Ni  Ni1070  1  0.69108583  0.83072333  0.28083879  1.0
  Ni  Ni1071  1  0.19108583  0.16405667  0.20941021  1.0
  Ni  Ni1072  1  0.19108583  0.49739000  0.20941021  1.0
  Ni  Ni1073  1  0.19108583  0.83072333  0.20941021  1.0
  Ni  Ni1074  1  0.52441917  0.16405667  0.20941021  1.0
  Ni  Ni1075  1  0.52441917  0.49739000  0.20941021  1.0
  Ni  Ni1076  1  0.52441917  0.83072333  0.20941021  1.0
  Ni  Ni1077  1  0.85775250  0.16405667  0.20941021  1.0
  Ni  Ni1078  1  0.85775250  0.49739000  0.20941021  1.0
  Ni  Ni1079  1  0.85775250  0.83072333  0.20941021  1.0
  Ni  Ni1080  1  0.07268383  0.16405667  0.26015393  1.0
  Ni  Ni1081  1  0.07268383  0.49739000  0.26015393  1.0
  Ni  Ni1082  1  0.07268383  0.83072333  0.26015393  1.0
  Ni  Ni1083  1  0.40601717  0.16405667  0.26015393  1.0
  Ni  Ni1084  1  0.40601717  0.49739000  0.26015393  1.0
  Ni  Ni1085  1  0.40601717  0.83072333  0.26015393  1.0
  Ni  Ni1086  1  0.73935050  0.16405667  0.26015393  1.0
  Ni  Ni1087  1  0.73935050  0.49739000  0.26015393  1.0
  Ni  Ni1088  1  0.73935050  0.83072333  0.26015393  1.0
  Ni  Ni1089  1  0.23935050  0.16405667  0.18872536  1.0
  Ni  Ni1090  1  0.23935050  0.49739000  0.18872536  1.0
  Ni  Ni1091  1  0.23935050  0.83072333  0.18872536  1.0
  Ni  Ni1092  1  0.57268383  0.16405667  0.18872536  1.0
  Ni  Ni1093  1  0.57268383  0.49739000  0.18872536  1.0
  Ni  Ni1094  1  0.57268383  0.83072333  0.18872536  1.0
  Ni  Ni1095  1  0.90601717  0.16405667  0.18872536  1.0
  Ni  Ni1096  1  0.90601717  0.49739000  0.18872536  1.0
  Ni  Ni1097  1  0.90601717  0.83072333  0.18872536  1.0
  Ni  Ni1098  1  0.14224750  0.16927667  0.20897293  1.0
  Ni  Ni1099  1  0.14224750  0.50261000  0.20897293  1.0
  Ni  Ni1100  1  0.14224750  0.83594333  0.20897293  1.0
  Ni  Ni1101  1  0.47558083  0.16927667  0.20897293  1.0
  Ni  Ni1102  1  0.47558083  0.50261000  0.20897293  1.0
  Ni  Ni1103  1  0.47558083  0.83594333  0.20897293  1.0
  Ni  Ni1104  1  0.80891417  0.16927667  0.20897293  1.0
  Ni  Ni1105  1  0.80891417  0.50261000  0.20897293  1.0
  Ni  Ni1106  1  0.80891417  0.83594333  0.20897293  1.0
  Ni  Ni1107  1  0.30891417  0.16927667  0.28040150  1.0
  Ni  Ni1108  1  0.30891417  0.50261000  0.28040150  1.0
  Ni  Ni1109  1  0.30891417  0.83594333  0.28040150  1.0
  Ni  Ni1110  1  0.64224750  0.16927667  0.28040150  1.0
  Ni  Ni1111  1  0.64224750  0.50261000  0.28040150  1.0
  Ni  Ni1112  1  0.64224750  0.83594333  0.28040150  1.0
  Ni  Ni1113  1  0.97558083  0.16927667  0.28040150  1.0
  Ni  Ni1114  1  0.97558083  0.50261000  0.28040150  1.0
  Ni  Ni1115  1  0.97558083  0.83594333  0.28040150  1.0
  Ni  Ni1116  1  0.05891417  0.33072333  0.17102150  1.0
  Ni  Ni1117  1  0.05891417  0.66405667  0.17102150  1.0
  Ni  Ni1118  1  0.05891417  0.99739000  0.17102150  1.0
  Ni  Ni1119  1  0.39224750  0.33072333  0.17102150  1.0
  Ni  Ni1120  1  0.39224750  0.66405667  0.17102150  1.0
  Ni  Ni1121  1  0.39224750  0.99739000  0.17102150  1.0
  Ni  Ni1122  1  0.72558083  0.33072333  0.17102150  1.0
  Ni  Ni1123  1  0.72558083  0.66405667  0.17102150  1.0
  Ni  Ni1124  1  0.72558083  0.99739000  0.17102150  1.0
  Ni  Ni1125  1  0.22558083  0.33072333  0.24245007  1.0
  Ni  Ni1126  1  0.22558083  0.66405667  0.24245007  1.0
  Ni  Ni1127  1  0.22558083  0.99739000  0.24245007  1.0
  Ni  Ni1128  1  0.55891417  0.33072333  0.24245007  1.0
  Ni  Ni1129  1  0.55891417  0.66405667  0.24245007  1.0
  Ni  Ni1130  1  0.55891417  0.99739000  0.24245007  1.0
  Ni  Ni1131  1  0.89224750  0.33072333  0.24245007  1.0
  Ni  Ni1132  1  0.89224750  0.66405667  0.24245007  1.0
  Ni  Ni1133  1  0.89224750  0.99739000  0.24245007  1.0
  Ni  Ni1134  1  0.10775250  0.00261000  0.17593307  1.0
  Ni  Ni1135  1  0.10775250  0.33594333  0.17593307  1.0
  Ni  Ni1136  1  0.10775250  0.66927667  0.17593307  1.0
  Ni  Ni1137  1  0.44108583  0.00261000  0.17593307  1.0
  Ni  Ni1138  1  0.44108583  0.33594333  0.17593307  1.0
  Ni  Ni1139  1  0.44108583  0.66927667  0.17593307  1.0
  Ni  Ni1140  1  0.77441917  0.00261000  0.17593307  1.0
  Ni  Ni1141  1  0.77441917  0.33594333  0.17593307  1.0
  Ni  Ni1142  1  0.77441917  0.66927667  0.17593307  1.0
  Ni  Ni1143  1  0.27441917  0.00261000  0.24736164  1.0
  Ni  Ni1144  1  0.27441917  0.33594333  0.24736164  1.0
  Ni  Ni1145  1  0.27441917  0.66927667  0.24736164  1.0
  Ni  Ni1146  1  0.60775250  0.00261000  0.24736164  1.0
  Ni  Ni1147  1  0.60775250  0.33594333  0.24736164  1.0
  Ni  Ni1148  1  0.60775250  0.66927667  0.24736164  1.0
  Ni  Ni1149  1  0.94108583  0.00261000  0.24736164  1.0
  Ni  Ni1150  1  0.94108583  0.33594333  0.24736164  1.0
  Ni  Ni1151  1  0.94108583  0.66927667  0.24736164  1.0
  Ni  Ni1152  1  0.01785100  0.13163367  0.21712871  1.0
  Ni  Ni1153  1  0.01785100  0.46496700  0.21712871  1.0
  Ni  Ni1154  1  0.01785100  0.79830033  0.21712871  1.0
  Ni  Ni1155  1  0.35118433  0.13163367  0.21712871  1.0
  Ni  Ni1156  1  0.35118433  0.46496700  0.21712871  1.0
  Ni  Ni1157  1  0.35118433  0.79830033  0.21712871  1.0
  Ni  Ni1158  1  0.68451767  0.13163367  0.21712871  1.0
  Ni  Ni1159  1  0.68451767  0.46496700  0.21712871  1.0
  Ni  Ni1160  1  0.68451767  0.79830033  0.21712871  1.0
  Ni  Ni1161  1  0.18451767  0.13163367  0.14570014  1.0
  Ni  Ni1162  1  0.18451767  0.46496700  0.14570014  1.0
  Ni  Ni1163  1  0.18451767  0.79830033  0.14570014  1.0
  Ni  Ni1164  1  0.51785100  0.13163367  0.14570014  1.0
  Ni  Ni1165  1  0.51785100  0.46496700  0.14570014  1.0
  Ni  Ni1166  1  0.51785100  0.79830033  0.14570014  1.0
  Ni  Ni1167  1  0.85118433  0.13163367  0.14570014  1.0
  Ni  Ni1168  1  0.85118433  0.46496700  0.14570014  1.0
  Ni  Ni1169  1  0.85118433  0.79830033  0.14570014  1.0
  Ni  Ni1170  1  0.14881567  0.20169967  0.27268300  1.0
  Ni  Ni1171  1  0.14881567  0.53503300  0.27268300  1.0
  Ni  Ni1172  1  0.14881567  0.86836633  0.27268300  1.0
  Ni  Ni1173  1  0.48214900  0.20169967  0.27268300  1.0
  Ni  Ni1174  1  0.48214900  0.53503300  0.27268300  1.0
  Ni  Ni1175  1  0.48214900  0.86836633  0.27268300  1.0
  Ni  Ni1176  1  0.81548233  0.20169967  0.27268300  1.0
  Ni  Ni1177  1  0.81548233  0.53503300  0.27268300  1.0
  Ni  Ni1178  1  0.81548233  0.86836633  0.27268300  1.0
  Ni  Ni1179  1  0.31548233  0.20169967  0.20125443  1.0
  Ni  Ni1180  1  0.31548233  0.53503300  0.20125443  1.0
  Ni  Ni1181  1  0.31548233  0.86836633  0.20125443  1.0
  Ni  Ni1182  1  0.64881567  0.20169967  0.20125443  1.0
  Ni  Ni1183  1  0.64881567  0.53503300  0.20125443  1.0
  Ni  Ni1184  1  0.64881567  0.86836633  0.20125443  1.0
  Ni  Ni1185  1  0.98214900  0.20169967  0.20125443  1.0
  Ni  Ni1186  1  0.98214900  0.53503300  0.20125443  1.0
  Ni  Ni1187  1  0.98214900  0.86836633  0.20125443  1.0
  Ni  Ni1188  1  0.06548233  0.29830033  0.20694043  1.0
  Ni  Ni1189  1  0.06548233  0.63163367  0.20694043  1.0
  Ni  Ni1190  1  0.06548233  0.96496700  0.20694043  1.0
  Ni  Ni1191  1  0.39881567  0.29830033  0.20694043  1.0
  Ni  Ni1192  1  0.39881567  0.63163367  0.20694043  1.0
  Ni  Ni1193  1  0.39881567  0.96496700  0.20694043  1.0
  Ni  Ni1194  1  0.73214900  0.29830033  0.20694043  1.0
  Ni  Ni1195  1  0.73214900  0.63163367  0.20694043  1.0
  Ni  Ni1196  1  0.73214900  0.96496700  0.20694043  1.0
  Ni  Ni1197  1  0.23214900  0.29830033  0.27836900  1.0
  Ni  Ni1198  1  0.23214900  0.63163367  0.27836900  1.0
  Ni  Ni1199  1  0.23214900  0.96496700  0.27836900  1.0
  Ni  Ni1200  1  0.56548233  0.29830033  0.27836900  1.0
  Ni  Ni1201  1  0.56548233  0.63163367  0.27836900  1.0
  Ni  Ni1202  1  0.56548233  0.96496700  0.27836900  1.0
  Ni  Ni1203  1  0.89881567  0.29830033  0.27836900  1.0
  Ni  Ni1204  1  0.89881567  0.63163367  0.27836900  1.0
  Ni  Ni1205  1  0.89881567  0.96496700  0.27836900  1.0
  Ni  Ni1206  1  0.10118433  0.03503300  0.28287129  1.0
  Ni  Ni1207  1  0.10118433  0.36836633  0.28287129  1.0
  Ni  Ni1208  1  0.10118433  0.70169967  0.28287129  1.0
  Ni  Ni1209  1  0.43451767  0.03503300  0.28287129  1.0
  Ni  Ni1210  1  0.43451767  0.36836633  0.28287129  1.0
  Ni  Ni1211  1  0.43451767  0.70169967  0.28287129  1.0
  Ni  Ni1212  1  0.76785100  0.03503300  0.28287129  1.0
  Ni  Ni1213  1  0.76785100  0.36836633  0.28287129  1.0
  Ni  Ni1214  1  0.76785100  0.70169967  0.28287129  1.0
  Ni  Ni1215  1  0.26785100  0.03503300  0.21144271  1.0
  Ni  Ni1216  1  0.26785100  0.36836633  0.21144271  1.0
  Ni  Ni1217  1  0.26785100  0.70169967  0.21144271  1.0
  Ni  Ni1218  1  0.60118433  0.03503300  0.21144271  1.0
  Ni  Ni1219  1  0.60118433  0.36836633  0.21144271  1.0
  Ni  Ni1220  1  0.60118433  0.70169967  0.21144271  1.0
  Ni  Ni1221  1  0.93451767  0.03503300  0.21144271  1.0
  Ni  Ni1222  1  0.93451767  0.36836633  0.21144271  1.0
  Ni  Ni1223  1  0.93451767  0.70169967  0.21144271  1.0
  Hf  Hf1224  1  0.11561967  0.00000000  0.37392600  1.0
  Hf  Hf1225  1  0.11561967  0.33333333  0.37392600  1.0
  Hf  Hf1226  1  0.11561967  0.66666667  0.37392600  1.0
  Hf  Hf1227  1  0.44895300  0.00000000  0.37392600  1.0
  Hf  Hf1228  1  0.44895300  0.33333333  0.37392600  1.0
  Hf  Hf1229  1  0.44895300  0.66666667  0.37392600  1.0
  Hf  Hf1230  1  0.78228633  0.00000000  0.37392600  1.0
  Hf  Hf1231  1  0.78228633  0.33333333  0.37392600  1.0
  Hf  Hf1232  1  0.78228633  0.66666667  0.37392600  1.0
  Hf  Hf1233  1  0.28228633  0.00000000  0.30249743  1.0
  Hf  Hf1234  1  0.28228633  0.33333333  0.30249743  1.0
  Hf  Hf1235  1  0.28228633  0.66666667  0.30249743  1.0
  Hf  Hf1236  1  0.61561967  0.00000000  0.30249743  1.0
  Hf  Hf1237  1  0.61561967  0.33333333  0.30249743  1.0
  Hf  Hf1238  1  0.61561967  0.66666667  0.30249743  1.0
  Hf  Hf1239  1  0.94895300  0.00000000  0.30249743  1.0
  Hf  Hf1240  1  0.94895300  0.33333333  0.30249743  1.0
  Hf  Hf1241  1  0.94895300  0.66666667  0.30249743  1.0
  Hf  Hf1242  1  0.05104700  0.00000000  0.40160000  1.0
  Hf  Hf1243  1  0.05104700  0.33333333  0.40160000  1.0
  Hf  Hf1244  1  0.05104700  0.66666667  0.40160000  1.0
  Hf  Hf1245  1  0.38438033  0.00000000  0.40160000  1.0
  Hf  Hf1246  1  0.38438033  0.33333333  0.40160000  1.0
  Hf  Hf1247  1  0.38438033  0.66666667  0.40160000  1.0
  Hf  Hf1248  1  0.71771367  0.00000000  0.40160000  1.0
  Hf  Hf1249  1  0.71771367  0.33333333  0.40160000  1.0
  Hf  Hf1250  1  0.71771367  0.66666667  0.40160000  1.0
  Hf  Hf1251  1  0.21771367  0.00000000  0.33017143  1.0
  Hf  Hf1252  1  0.21771367  0.33333333  0.33017143  1.0
  Hf  Hf1253  1  0.21771367  0.66666667  0.33017143  1.0
  Hf  Hf1254  1  0.55104700  0.00000000  0.33017143  1.0
  Hf  Hf1255  1  0.55104700  0.33333333  0.33017143  1.0
  Hf  Hf1256  1  0.55104700  0.66666667  0.33017143  1.0
  Hf  Hf1257  1  0.88438033  0.00000000  0.33017143  1.0
  Hf  Hf1258  1  0.88438033  0.33333333  0.33017143  1.0
  Hf  Hf1259  1  0.88438033  0.66666667  0.33017143  1.0
  Hf  Hf1260  1  0.13438033  0.16666667  0.29445714  1.0
  Hf  Hf1261  1  0.13438033  0.50000000  0.29445714  1.0
  Hf  Hf1262  1  0.13438033  0.83333333  0.29445714  1.0
  Hf  Hf1263  1  0.46771367  0.16666667  0.29445714  1.0
  Hf  Hf1264  1  0.46771367  0.50000000  0.29445714  1.0
  Hf  Hf1265  1  0.46771367  0.83333333  0.29445714  1.0
  Hf  Hf1266  1  0.80104700  0.16666667  0.29445714  1.0
  Hf  Hf1267  1  0.80104700  0.50000000  0.29445714  1.0
  Hf  Hf1268  1  0.80104700  0.83333333  0.29445714  1.0
  Hf  Hf1269  1  0.30104700  0.16666667  0.36588571  1.0
  Hf  Hf1270  1  0.30104700  0.50000000  0.36588571  1.0
  Hf  Hf1271  1  0.30104700  0.83333333  0.36588571  1.0
  Hf  Hf1272  1  0.63438033  0.16666667  0.36588571  1.0
  Hf  Hf1273  1  0.63438033  0.50000000  0.36588571  1.0
  Hf  Hf1274  1  0.63438033  0.83333333  0.36588571  1.0
  Hf  Hf1275  1  0.96771367  0.16666667  0.36588571  1.0
  Hf  Hf1276  1  0.96771367  0.50000000  0.36588571  1.0
  Hf  Hf1277  1  0.96771367  0.83333333  0.36588571  1.0
  Hf  Hf1278  1  0.03228633  0.16666667  0.33821171  1.0
  Hf  Hf1279  1  0.03228633  0.50000000  0.33821171  1.0
  Hf  Hf1280  1  0.03228633  0.83333333  0.33821171  1.0
  Hf  Hf1281  1  0.36561967  0.16666667  0.33821171  1.0
  Hf  Hf1282  1  0.36561967  0.50000000  0.33821171  1.0
  Hf  Hf1283  1  0.36561967  0.83333333  0.33821171  1.0
  Hf  Hf1284  1  0.69895300  0.16666667  0.33821171  1.0
  Hf  Hf1285  1  0.69895300  0.50000000  0.33821171  1.0
  Hf  Hf1286  1  0.69895300  0.83333333  0.33821171  1.0
  Hf  Hf1287  1  0.19895300  0.16666667  0.40964029  1.0
  Hf  Hf1288  1  0.19895300  0.50000000  0.40964029  1.0
  Hf  Hf1289  1  0.19895300  0.83333333  0.40964029  1.0
  Hf  Hf1290  1  0.53228633  0.16666667  0.40964029  1.0
  Hf  Hf1291  1  0.53228633  0.50000000  0.40964029  1.0
  Hf  Hf1292  1  0.53228633  0.83333333  0.40964029  1.0
  Hf  Hf1293  1  0.86561967  0.16666667  0.40964029  1.0
  Hf  Hf1294  1  0.86561967  0.50000000  0.40964029  1.0
  Hf  Hf1295  1  0.86561967  0.83333333  0.40964029  1.0
  Hf  Hf1296  1  0.00000000  0.00000000  0.42347729  1.0
  Hf  Hf1297  1  0.00000000  0.33333333  0.42347729  1.0
  Hf  Hf1298  1  0.00000000  0.66666667  0.42347729  1.0
  Hf  Hf1299  1  0.33333333  0.00000000  0.42347729  1.0
  Hf  Hf1300  1  0.33333333  0.33333333  0.42347729  1.0
  Hf  Hf1301  1  0.33333333  0.66666667  0.42347729  1.0
  Hf  Hf1302  1  0.66666667  0.00000000  0.42347729  1.0
  Hf  Hf1303  1  0.66666667  0.33333333  0.42347729  1.0
  Hf  Hf1304  1  0.66666667  0.66666667  0.42347729  1.0
  Hf  Hf1305  1  0.16666667  0.00000000  0.35204871  1.0
  Hf  Hf1306  1  0.16666667  0.33333333  0.35204871  1.0
  Hf  Hf1307  1  0.16666667  0.66666667  0.35204871  1.0
  Hf  Hf1308  1  0.50000000  0.00000000  0.35204871  1.0
  Hf  Hf1309  1  0.50000000  0.33333333  0.35204871  1.0
  Hf  Hf1310  1  0.50000000  0.66666667  0.35204871  1.0
  Hf  Hf1311  1  0.83333333  0.00000000  0.35204871  1.0
  Hf  Hf1312  1  0.83333333  0.33333333  0.35204871  1.0
  Hf  Hf1313  1  0.83333333  0.66666667  0.35204871  1.0
  Hf  Hf1314  1  0.08333333  0.16666667  0.31633443  1.0
  Hf  Hf1315  1  0.08333333  0.50000000  0.31633443  1.0
  Hf  Hf1316  1  0.08333333  0.83333333  0.31633443  1.0
  Hf  Hf1317  1  0.41666667  0.16666667  0.31633443  1.0
  Hf  Hf1318  1  0.41666667  0.50000000  0.31633443  1.0
  Hf  Hf1319  1  0.41666667  0.83333333  0.31633443  1.0
  Hf  Hf1320  1  0.75000000  0.16666667  0.31633443  1.0
  Hf  Hf1321  1  0.75000000  0.50000000  0.31633443  1.0
  Hf  Hf1322  1  0.75000000  0.83333333  0.31633443  1.0
  Hf  Hf1323  1  0.25000000  0.16666667  0.38776300  1.0
  Hf  Hf1324  1  0.25000000  0.50000000  0.38776300  1.0
  Hf  Hf1325  1  0.25000000  0.83333333  0.38776300  1.0
  Hf  Hf1326  1  0.58333333  0.16666667  0.38776300  1.0
  Hf  Hf1327  1  0.58333333  0.50000000  0.38776300  1.0
  Hf  Hf1328  1  0.58333333  0.83333333  0.38776300  1.0
  Hf  Hf1329  1  0.91666667  0.16666667  0.38776300  1.0
  Hf  Hf1330  1  0.91666667  0.50000000  0.38776300  1.0
  Hf  Hf1331  1  0.91666667  0.83333333  0.38776300  1.0
  Hf  Hf1332  1  0.00084400  0.08333333  0.38884814  1.0
  Hf  Hf1333  1  0.00084400  0.41666667  0.38884814  1.0
  Hf  Hf1334  1  0.00084400  0.75000000  0.38884814  1.0
  Hf  Hf1335  1  0.33417733  0.08333333  0.38884814  1.0
  Hf  Hf1336  1  0.33417733  0.41666667  0.38884814  1.0
  Hf  Hf1337  1  0.33417733  0.75000000  0.38884814  1.0
  Hf  Hf1338  1  0.66751067  0.08333333  0.38884814  1.0
  Hf  Hf1339  1  0.66751067  0.41666667  0.38884814  1.0
  Hf  Hf1340  1  0.66751067  0.75000000  0.38884814  1.0
  Hf  Hf1341  1  0.16751067  0.08333333  0.31741957  1.0
  Hf  Hf1342  1  0.16751067  0.41666667  0.31741957  1.0
  Hf  Hf1343  1  0.16751067  0.75000000  0.31741957  1.0
  Hf  Hf1344  1  0.50084400  0.08333333  0.31741957  1.0
  Hf  Hf1345  1  0.50084400  0.41666667  0.31741957  1.0
  Hf  Hf1346  1  0.50084400  0.75000000  0.31741957  1.0
  Hf  Hf1347  1  0.83417733  0.08333333  0.31741957  1.0
  Hf  Hf1348  1  0.83417733  0.41666667  0.31741957  1.0
  Hf  Hf1349  1  0.83417733  0.75000000  0.31741957  1.0
  Hf  Hf1350  1  0.16582267  0.25000000  0.38667786  1.0
  Hf  Hf1351  1  0.16582267  0.58333333  0.38667786  1.0
  Hf  Hf1352  1  0.16582267  0.91666667  0.38667786  1.0
  Hf  Hf1353  1  0.49915600  0.25000000  0.38667786  1.0
  Hf  Hf1354  1  0.49915600  0.58333333  0.38667786  1.0
  Hf  Hf1355  1  0.49915600  0.91666667  0.38667786  1.0
  Hf  Hf1356  1  0.83248933  0.25000000  0.38667786  1.0
  Hf  Hf1357  1  0.83248933  0.58333333  0.38667786  1.0
  Hf  Hf1358  1  0.83248933  0.91666667  0.38667786  1.0
  Hf  Hf1359  1  0.33248933  0.25000000  0.31524929  1.0
  Hf  Hf1360  1  0.33248933  0.58333333  0.31524929  1.0
  Hf  Hf1361  1  0.33248933  0.91666667  0.31524929  1.0
  Hf  Hf1362  1  0.66582267  0.25000000  0.31524929  1.0
  Hf  Hf1363  1  0.66582267  0.58333333  0.31524929  1.0
  Hf  Hf1364  1  0.66582267  0.91666667  0.31524929  1.0
  Hf  Hf1365  1  0.99915600  0.25000000  0.31524929  1.0
  Hf  Hf1366  1  0.99915600  0.58333333  0.31524929  1.0
  Hf  Hf1367  1  0.99915600  0.91666667  0.31524929  1.0
  Hf  Hf1368  1  0.08248933  0.25000000  0.42239214  1.0
  Hf  Hf1369  1  0.08248933  0.58333333  0.42239214  1.0
  Hf  Hf1370  1  0.08248933  0.91666667  0.42239214  1.0
  Hf  Hf1371  1  0.41582267  0.25000000  0.42239214  1.0
  Hf  Hf1372  1  0.41582267  0.58333333  0.42239214  1.0
  Hf  Hf1373  1  0.41582267  0.91666667  0.42239214  1.0
  Hf  Hf1374  1  0.74915600  0.25000000  0.42239214  1.0
  Hf  Hf1375  1  0.74915600  0.58333333  0.42239214  1.0
  Hf  Hf1376  1  0.74915600  0.91666667  0.42239214  1.0
  Hf  Hf1377  1  0.24915600  0.25000000  0.35096357  1.0
  Hf  Hf1378  1  0.24915600  0.58333333  0.35096357  1.0
  Hf  Hf1379  1  0.24915600  0.91666667  0.35096357  1.0
  Hf  Hf1380  1  0.58248933  0.25000000  0.35096357  1.0
  Hf  Hf1381  1  0.58248933  0.58333333  0.35096357  1.0
  Hf  Hf1382  1  0.58248933  0.91666667  0.35096357  1.0
  Hf  Hf1383  1  0.91582267  0.25000000  0.35096357  1.0
  Hf  Hf1384  1  0.91582267  0.58333333  0.35096357  1.0
  Hf  Hf1385  1  0.91582267  0.91666667  0.35096357  1.0
  Hf  Hf1386  1  0.08417733  0.08333333  0.35313386  1.0
  Hf  Hf1387  1  0.08417733  0.41666667  0.35313386  1.0
  Hf  Hf1388  1  0.08417733  0.75000000  0.35313386  1.0
  Hf  Hf1389  1  0.41751067  0.08333333  0.35313386  1.0
  Hf  Hf1390  1  0.41751067  0.41666667  0.35313386  1.0
  Hf  Hf1391  1  0.41751067  0.75000000  0.35313386  1.0
  Hf  Hf1392  1  0.75084400  0.08333333  0.35313386  1.0
  Hf  Hf1393  1  0.75084400  0.41666667  0.35313386  1.0
  Hf  Hf1394  1  0.75084400  0.75000000  0.35313386  1.0
  Hf  Hf1395  1  0.25084400  0.08333333  0.42456243  1.0
  Hf  Hf1396  1  0.25084400  0.41666667  0.42456243  1.0
  Hf  Hf1397  1  0.25084400  0.75000000  0.42456243  1.0
  Hf  Hf1398  1  0.58417733  0.08333333  0.42456243  1.0
  Hf  Hf1399  1  0.58417733  0.41666667  0.42456243  1.0
  Hf  Hf1400  1  0.58417733  0.75000000  0.42456243  1.0
  Hf  Hf1401  1  0.91751067  0.08333333  0.42456243  1.0
  Hf  Hf1402  1  0.91751067  0.41666667  0.42456243  1.0
  Hf  Hf1403  1  0.91751067  0.75000000  0.42456243  1.0
  Hf  Hf1404  1  0.05219250  0.06251900  0.37451864  1.0
  Hf  Hf1405  1  0.05219250  0.39585233  0.37451864  1.0
  Hf  Hf1406  1  0.05219250  0.72918567  0.37451864  1.0
  Hf  Hf1407  1  0.38552583  0.06251900  0.37451864  1.0
  Hf  Hf1408  1  0.38552583  0.39585233  0.37451864  1.0
  Hf  Hf1409  1  0.38552583  0.72918567  0.37451864  1.0
  Hf  Hf1410  1  0.71885917  0.06251900  0.37451864  1.0
  Hf  Hf1411  1  0.71885917  0.39585233  0.37451864  1.0
  Hf  Hf1412  1  0.71885917  0.72918567  0.37451864  1.0
  Hf  Hf1413  1  0.21885917  0.06251900  0.30309007  1.0
  Hf  Hf1414  1  0.21885917  0.39585233  0.30309007  1.0
  Hf  Hf1415  1  0.21885917  0.72918567  0.30309007  1.0
  Hf  Hf1416  1  0.55219250  0.06251900  0.30309007  1.0
  Hf  Hf1417  1  0.55219250  0.39585233  0.30309007  1.0
  Hf  Hf1418  1  0.55219250  0.72918567  0.30309007  1.0
  Hf  Hf1419  1  0.88552583  0.06251900  0.30309007  1.0
  Hf  Hf1420  1  0.88552583  0.39585233  0.30309007  1.0
  Hf  Hf1421  1  0.88552583  0.72918567  0.30309007  1.0
  Hf  Hf1422  1  0.11447417  0.27081433  0.40100736  1.0
  Hf  Hf1423  1  0.11447417  0.60414767  0.40100736  1.0
  Hf  Hf1424  1  0.11447417  0.93748100  0.40100736  1.0
  Hf  Hf1425  1  0.44780750  0.27081433  0.40100736  1.0
  Hf  Hf1426  1  0.44780750  0.60414767  0.40100736  1.0
  Hf  Hf1427  1  0.44780750  0.93748100  0.40100736  1.0
  Hf  Hf1428  1  0.78114083  0.27081433  0.40100736  1.0
  Hf  Hf1429  1  0.78114083  0.60414767  0.40100736  1.0
  Hf  Hf1430  1  0.78114083  0.93748100  0.40100736  1.0
  Hf  Hf1431  1  0.28114083  0.27081433  0.32957879  1.0
  Hf  Hf1432  1  0.28114083  0.60414767  0.32957879  1.0
  Hf  Hf1433  1  0.28114083  0.93748100  0.32957879  1.0
  Hf  Hf1434  1  0.61447417  0.27081433  0.32957879  1.0
  Hf  Hf1435  1  0.61447417  0.60414767  0.32957879  1.0
  Hf  Hf1436  1  0.61447417  0.93748100  0.32957879  1.0
  Hf  Hf1437  1  0.94780750  0.27081433  0.32957879  1.0
  Hf  Hf1438  1  0.94780750  0.60414767  0.32957879  1.0
  Hf  Hf1439  1  0.94780750  0.93748100  0.32957879  1.0
  Hf  Hf1440  1  0.03114083  0.22918567  0.41888079  1.0
  Hf  Hf1441  1  0.03114083  0.56251900  0.41888079  1.0
  Hf  Hf1442  1  0.03114083  0.89585233  0.41888079  1.0
  Hf  Hf1443  1  0.36447417  0.22918567  0.41888079  1.0
  Hf  Hf1444  1  0.36447417  0.56251900  0.41888079  1.0
  Hf  Hf1445  1  0.36447417  0.89585233  0.41888079  1.0
  Hf  Hf1446  1  0.69780750  0.22918567  0.41888079  1.0
  Hf  Hf1447  1  0.69780750  0.56251900  0.41888079  1.0
  Hf  Hf1448  1  0.69780750  0.89585233  0.41888079  1.0
  Hf  Hf1449  1  0.19780750  0.22918567  0.34745221  1.0
  Hf  Hf1450  1  0.19780750  0.56251900  0.34745221  1.0
  Hf  Hf1451  1  0.19780750  0.89585233  0.34745221  1.0
  Hf  Hf1452  1  0.53114083  0.22918567  0.34745221  1.0
  Hf  Hf1453  1  0.53114083  0.56251900  0.34745221  1.0
  Hf  Hf1454  1  0.53114083  0.89585233  0.34745221  1.0
  Hf  Hf1455  1  0.86447417  0.22918567  0.34745221  1.0
  Hf  Hf1456  1  0.86447417  0.56251900  0.34745221  1.0
  Hf  Hf1457  1  0.86447417  0.89585233  0.34745221  1.0
  Hf  Hf1458  1  0.13552583  0.10414767  0.35664521  1.0
  Hf  Hf1459  1  0.13552583  0.43748100  0.35664521  1.0
  Hf  Hf1460  1  0.13552583  0.77081433  0.35664521  1.0
  Hf  Hf1461  1  0.46885917  0.10414767  0.35664521  1.0
  Hf  Hf1462  1  0.46885917  0.43748100  0.35664521  1.0
  Hf  Hf1463  1  0.46885917  0.77081433  0.35664521  1.0
  Hf  Hf1464  1  0.80219250  0.10414767  0.35664521  1.0
  Hf  Hf1465  1  0.80219250  0.43748100  0.35664521  1.0
  Hf  Hf1466  1  0.80219250  0.77081433  0.35664521  1.0
  Hf  Hf1467  1  0.30219250  0.10414767  0.42807379  1.0
  Hf  Hf1468  1  0.30219250  0.43748100  0.42807379  1.0
  Hf  Hf1469  1  0.30219250  0.77081433  0.42807379  1.0
  Hf  Hf1470  1  0.63552583  0.10414767  0.42807379  1.0
  Hf  Hf1471  1  0.63552583  0.43748100  0.42807379  1.0
  Hf  Hf1472  1  0.63552583  0.77081433  0.42807379  1.0
  Hf  Hf1473  1  0.96885917  0.10414767  0.42807379  1.0
  Hf  Hf1474  1  0.96885917  0.43748100  0.42807379  1.0
  Hf  Hf1475  1  0.96885917  0.77081433  0.42807379  1.0
  Ni  Ni1476  1  0.14435217  0.06943233  0.39437679  1.0
  Ni  Ni1477  1  0.14435217  0.40276567  0.39437679  1.0
  Ni  Ni1478  1  0.14435217  0.73609900  0.39437679  1.0
  Ni  Ni1479  1  0.47768550  0.06943233  0.39437679  1.0
  Ni  Ni1480  1  0.47768550  0.40276567  0.39437679  1.0
  Ni  Ni1481  1  0.47768550  0.73609900  0.39437679  1.0
  Ni  Ni1482  1  0.81101883  0.06943233  0.39437679  1.0
  Ni  Ni1483  1  0.81101883  0.40276567  0.39437679  1.0
  Ni  Ni1484  1  0.81101883  0.73609900  0.39437679  1.0
  Ni  Ni1485  1  0.31101883  0.06943233  0.32294821  1.0
  Ni  Ni1486  1  0.31101883  0.40276567  0.32294821  1.0
  Ni  Ni1487  1  0.31101883  0.73609900  0.32294821  1.0
  Ni  Ni1488  1  0.64435217  0.06943233  0.32294821  1.0
  Ni  Ni1489  1  0.64435217  0.40276567  0.32294821  1.0
  Ni  Ni1490  1  0.64435217  0.73609900  0.32294821  1.0
  Ni  Ni1491  1  0.97768550  0.06943233  0.32294821  1.0
  Ni  Ni1492  1  0.97768550  0.40276567  0.32294821  1.0
  Ni  Ni1493  1  0.97768550  0.73609900  0.32294821  1.0
  Ni  Ni1494  1  0.02231450  0.26390100  0.38114921  1.0
  Ni  Ni1495  1  0.02231450  0.59723433  0.38114921  1.0
  Ni  Ni1496  1  0.02231450  0.93056767  0.38114921  1.0
  Ni  Ni1497  1  0.35564783  0.26390100  0.38114921  1.0
  Ni  Ni1498  1  0.35564783  0.59723433  0.38114921  1.0
  Ni  Ni1499  1  0.35564783  0.93056767  0.38114921  1.0
  Ni  Ni1500  1  0.68898117  0.26390100  0.38114921  1.0
  Ni  Ni1501  1  0.68898117  0.59723433  0.38114921  1.0
  Ni  Ni1502  1  0.68898117  0.93056767  0.38114921  1.0
  Ni  Ni1503  1  0.18898117  0.26390100  0.30972064  1.0
  Ni  Ni1504  1  0.18898117  0.59723433  0.30972064  1.0
  Ni  Ni1505  1  0.18898117  0.93056767  0.30972064  1.0
  Ni  Ni1506  1  0.52231450  0.26390100  0.30972064  1.0
  Ni  Ni1507  1  0.52231450  0.59723433  0.30972064  1.0
  Ni  Ni1508  1  0.52231450  0.93056767  0.30972064  1.0
  Ni  Ni1509  1  0.85564783  0.26390100  0.30972064  1.0
  Ni  Ni1510  1  0.85564783  0.59723433  0.30972064  1.0
  Ni  Ni1511  1  0.85564783  0.93056767  0.30972064  1.0
  Ni  Ni1512  1  0.10564783  0.23609900  0.33351979  1.0
  Ni  Ni1513  1  0.10564783  0.56943233  0.33351979  1.0
  Ni  Ni1514  1  0.10564783  0.90276567  0.33351979  1.0
  Ni  Ni1515  1  0.43898117  0.23609900  0.33351979  1.0
  Ni  Ni1516  1  0.43898117  0.56943233  0.33351979  1.0
  Ni  Ni1517  1  0.43898117  0.90276567  0.33351979  1.0
  Ni  Ni1518  1  0.77231450  0.23609900  0.33351979  1.0
  Ni  Ni1519  1  0.77231450  0.56943233  0.33351979  1.0
  Ni  Ni1520  1  0.77231450  0.90276567  0.33351979  1.0
  Ni  Ni1521  1  0.27231450  0.23609900  0.40494836  1.0
  Ni  Ni1522  1  0.27231450  0.56943233  0.40494836  1.0
  Ni  Ni1523  1  0.27231450  0.90276567  0.40494836  1.0
  Ni  Ni1524  1  0.60564783  0.23609900  0.40494836  1.0
  Ni  Ni1525  1  0.60564783  0.56943233  0.40494836  1.0
  Ni  Ni1526  1  0.60564783  0.90276567  0.40494836  1.0
  Ni  Ni1527  1  0.93898117  0.23609900  0.40494836  1.0
  Ni  Ni1528  1  0.93898117  0.56943233  0.40494836  1.0
  Ni  Ni1529  1  0.93898117  0.90276567  0.40494836  1.0
  Ni  Ni1530  1  0.10915717  0.09723433  0.42137550  1.0
  Ni  Ni1531  1  0.10915717  0.43056767  0.42137550  1.0
  Ni  Ni1532  1  0.10915717  0.76390100  0.42137550  1.0
  Ni  Ni1533  1  0.44249050  0.09723433  0.42137550  1.0
  Ni  Ni1534  1  0.44249050  0.43056767  0.42137550  1.0
  Ni  Ni1535  1  0.44249050  0.76390100  0.42137550  1.0
  Ni  Ni1536  1  0.77582383  0.09723433  0.42137550  1.0
  Ni  Ni1537  1  0.77582383  0.43056767  0.42137550  1.0
  Ni  Ni1538  1  0.77582383  0.76390100  0.42137550  1.0
  Ni  Ni1539  1  0.27582383  0.09723433  0.34994693  1.0
  Ni  Ni1540  1  0.27582383  0.43056767  0.34994693  1.0
  Ni  Ni1541  1  0.27582383  0.76390100  0.34994693  1.0
  Ni  Ni1542  1  0.60915717  0.09723433  0.34994693  1.0
  Ni  Ni1543  1  0.60915717  0.43056767  0.34994693  1.0
  Ni  Ni1544  1  0.60915717  0.76390100  0.34994693  1.0
  Ni  Ni1545  1  0.94249050  0.09723433  0.34994693  1.0
  Ni  Ni1546  1  0.94249050  0.43056767  0.34994693  1.0
  Ni  Ni1547  1  0.94249050  0.76390100  0.34994693  1.0
  Ni  Ni1548  1  0.06101883  0.09723433  0.29914907  1.0
  Ni  Ni1549  1  0.06101883  0.43056767  0.29914907  1.0
  Ni  Ni1550  1  0.06101883  0.76390100  0.29914907  1.0
  Ni  Ni1551  1  0.39435217  0.09723433  0.29914907  1.0
  Ni  Ni1552  1  0.39435217  0.43056767  0.29914907  1.0
  Ni  Ni1553  1  0.39435217  0.76390100  0.29914907  1.0
  Ni  Ni1554  1  0.72768550  0.09723433  0.29914907  1.0
  Ni  Ni1555  1  0.72768550  0.43056767  0.29914907  1.0
  Ni  Ni1556  1  0.72768550  0.76390100  0.29914907  1.0
  Ni  Ni1557  1  0.22768550  0.09723433  0.37057764  1.0
  Ni  Ni1558  1  0.22768550  0.43056767  0.37057764  1.0
  Ni  Ni1559  1  0.22768550  0.76390100  0.37057764  1.0
  Ni  Ni1560  1  0.56101883  0.09723433  0.37057764  1.0
  Ni  Ni1561  1  0.56101883  0.43056767  0.37057764  1.0
  Ni  Ni1562  1  0.56101883  0.76390100  0.37057764  1.0
  Ni  Ni1563  1  0.89435217  0.09723433  0.37057764  1.0
  Ni  Ni1564  1  0.89435217  0.43056767  0.37057764  1.0
  Ni  Ni1565  1  0.89435217  0.76390100  0.37057764  1.0
  Ni  Ni1566  1  0.05750950  0.23609900  0.35415050  1.0
  Ni  Ni1567  1  0.05750950  0.56943233  0.35415050  1.0
  Ni  Ni1568  1  0.05750950  0.90276567  0.35415050  1.0
  Ni  Ni1569  1  0.39084283  0.23609900  0.35415050  1.0
  Ni  Ni1570  1  0.39084283  0.56943233  0.35415050  1.0
  Ni  Ni1571  1  0.39084283  0.90276567  0.35415050  1.0
  Ni  Ni1572  1  0.72417617  0.23609900  0.35415050  1.0
  Ni  Ni1573  1  0.72417617  0.56943233  0.35415050  1.0
  Ni  Ni1574  1  0.72417617  0.90276567  0.35415050  1.0
  Ni  Ni1575  1  0.22417617  0.23609900  0.42557907  1.0
  Ni  Ni1576  1  0.22417617  0.56943233  0.42557907  1.0
  Ni  Ni1577  1  0.22417617  0.90276567  0.42557907  1.0
  Ni  Ni1578  1  0.55750950  0.23609900  0.42557907  1.0
  Ni  Ni1579  1  0.55750950  0.56943233  0.42557907  1.0
  Ni  Ni1580  1  0.55750950  0.90276567  0.42557907  1.0
  Ni  Ni1581  1  0.89084283  0.23609900  0.42557907  1.0
  Ni  Ni1582  1  0.89084283  0.56943233  0.42557907  1.0
  Ni  Ni1583  1  0.89084283  0.90276567  0.42557907  1.0
  Ni  Ni1584  1  0.14084283  0.26390100  0.33035136  1.0
  Ni  Ni1585  1  0.14084283  0.59723433  0.33035136  1.0
  Ni  Ni1586  1  0.14084283  0.93056767  0.33035136  1.0
  Ni  Ni1587  1  0.47417617  0.26390100  0.33035136  1.0
  Ni  Ni1588  1  0.47417617  0.59723433  0.33035136  1.0
  Ni  Ni1589  1  0.47417617  0.93056767  0.33035136  1.0
  Ni  Ni1590  1  0.80750950  0.26390100  0.33035136  1.0
  Ni  Ni1591  1  0.80750950  0.59723433  0.33035136  1.0
  Ni  Ni1592  1  0.80750950  0.93056767  0.33035136  1.0
  Ni  Ni1593  1  0.30750950  0.26390100  0.40177993  1.0
  Ni  Ni1594  1  0.30750950  0.59723433  0.40177993  1.0
  Ni  Ni1595  1  0.30750950  0.93056767  0.40177993  1.0
  Ni  Ni1596  1  0.64084283  0.26390100  0.40177993  1.0
  Ni  Ni1597  1  0.64084283  0.59723433  0.40177993  1.0
  Ni  Ni1598  1  0.64084283  0.93056767  0.40177993  1.0
  Ni  Ni1599  1  0.97417617  0.26390100  0.40177993  1.0
  Ni  Ni1600  1  0.97417617  0.59723433  0.40177993  1.0
  Ni  Ni1601  1  0.97417617  0.93056767  0.40177993  1.0
  Ni  Ni1602  1  0.02582383  0.06943233  0.30231750  1.0
  Ni  Ni1603  1  0.02582383  0.40276567  0.30231750  1.0
  Ni  Ni1604  1  0.02582383  0.73609900  0.30231750  1.0
  Ni  Ni1605  1  0.35915717  0.06943233  0.30231750  1.0
  Ni  Ni1606  1  0.35915717  0.40276567  0.30231750  1.0
  Ni  Ni1607  1  0.35915717  0.73609900  0.30231750  1.0
  Ni  Ni1608  1  0.69249050  0.06943233  0.30231750  1.0
  Ni  Ni1609  1  0.69249050  0.40276567  0.30231750  1.0
  Ni  Ni1610  1  0.69249050  0.73609900  0.30231750  1.0
  Ni  Ni1611  1  0.19249050  0.06943233  0.37374607  1.0
  Ni  Ni1612  1  0.19249050  0.40276567  0.37374607  1.0
  Ni  Ni1613  1  0.19249050  0.73609900  0.37374607  1.0
  Ni  Ni1614  1  0.52582383  0.06943233  0.37374607  1.0
  Ni  Ni1615  1  0.52582383  0.40276567  0.37374607  1.0
  Ni  Ni1616  1  0.52582383  0.73609900  0.37374607  1.0
  Ni  Ni1617  1  0.85915717  0.06943233  0.37374607  1.0
  Ni  Ni1618  1  0.85915717  0.40276567  0.37374607  1.0
  Ni  Ni1619  1  0.85915717  0.73609900  0.37374607  1.0
  Ni  Ni1620  1  0.15601717  0.00261000  0.29810536  1.0
  Ni  Ni1621  1  0.15601717  0.33594333  0.29810536  1.0
  Ni  Ni1622  1  0.15601717  0.66927667  0.29810536  1.0
  Ni  Ni1623  1  0.48935050  0.00261000  0.29810536  1.0
  Ni  Ni1624  1  0.48935050  0.33594333  0.29810536  1.0
  Ni  Ni1625  1  0.48935050  0.66927667  0.29810536  1.0
  Ni  Ni1626  1  0.82268383  0.00261000  0.29810536  1.0
  Ni  Ni1627  1  0.82268383  0.33594333  0.29810536  1.0
  Ni  Ni1628  1  0.82268383  0.66927667  0.29810536  1.0
  Ni  Ni1629  1  0.32268383  0.00261000  0.36953393  1.0
  Ni  Ni1630  1  0.32268383  0.33594333  0.36953393  1.0
  Ni  Ni1631  1  0.32268383  0.66927667  0.36953393  1.0
  Ni  Ni1632  1  0.65601717  0.00261000  0.36953393  1.0
  Ni  Ni1633  1  0.65601717  0.33594333  0.36953393  1.0
  Ni  Ni1634  1  0.65601717  0.66927667  0.36953393  1.0
  Ni  Ni1635  1  0.98935050  0.00261000  0.36953393  1.0
  Ni  Ni1636  1  0.98935050  0.33594333  0.36953393  1.0
  Ni  Ni1637  1  0.98935050  0.66927667  0.36953393  1.0
  Ni  Ni1638  1  0.01064950  0.33072333  0.33456350  1.0
  Ni  Ni1639  1  0.01064950  0.66405667  0.33456350  1.0
  Ni  Ni1640  1  0.01064950  0.99739000  0.33456350  1.0
  Ni  Ni1641  1  0.34398283  0.33072333  0.33456350  1.0
  Ni  Ni1642  1  0.34398283  0.66405667  0.33456350  1.0
  Ni  Ni1643  1  0.34398283  0.99739000  0.33456350  1.0
  Ni  Ni1644  1  0.67731617  0.33072333  0.33456350  1.0
  Ni  Ni1645  1  0.67731617  0.66405667  0.33456350  1.0
  Ni  Ni1646  1  0.67731617  0.99739000  0.33456350  1.0
  Ni  Ni1647  1  0.17731617  0.33072333  0.40599207  1.0
  Ni  Ni1648  1  0.17731617  0.66405667  0.40599207  1.0
  Ni  Ni1649  1  0.17731617  0.99739000  0.40599207  1.0
  Ni  Ni1650  1  0.51064950  0.33072333  0.40599207  1.0
  Ni  Ni1651  1  0.51064950  0.66405667  0.40599207  1.0
  Ni  Ni1652  1  0.51064950  0.99739000  0.40599207  1.0
  Ni  Ni1653  1  0.84398283  0.33072333  0.40599207  1.0
  Ni  Ni1654  1  0.84398283  0.66405667  0.40599207  1.0
  Ni  Ni1655  1  0.84398283  0.99739000  0.40599207  1.0
  Ni  Ni1656  1  0.09398283  0.16927667  0.37251493  1.0
  Ni  Ni1657  1  0.09398283  0.50261000  0.37251493  1.0
  Ni  Ni1658  1  0.09398283  0.83594333  0.37251493  1.0
  Ni  Ni1659  1  0.42731617  0.16927667  0.37251493  1.0
  Ni  Ni1660  1  0.42731617  0.50261000  0.37251493  1.0
  Ni  Ni1661  1  0.42731617  0.83594333  0.37251493  1.0
  Ni  Ni1662  1  0.76064950  0.16927667  0.37251493  1.0
  Ni  Ni1663  1  0.76064950  0.50261000  0.37251493  1.0
  Ni  Ni1664  1  0.76064950  0.83594333  0.37251493  1.0
  Ni  Ni1665  1  0.26064950  0.16927667  0.30108636  1.0
  Ni  Ni1666  1  0.26064950  0.50261000  0.30108636  1.0
  Ni  Ni1667  1  0.26064950  0.83594333  0.30108636  1.0
  Ni  Ni1668  1  0.59398283  0.16927667  0.30108636  1.0
  Ni  Ni1669  1  0.59398283  0.50261000  0.30108636  1.0
  Ni  Ni1670  1  0.59398283  0.83594333  0.30108636  1.0
  Ni  Ni1671  1  0.92731617  0.16927667  0.30108636  1.0
  Ni  Ni1672  1  0.92731617  0.50261000  0.30108636  1.0
  Ni  Ni1673  1  0.92731617  0.83594333  0.30108636  1.0
  Ni  Ni1674  1  0.02441917  0.16405667  0.42369593  1.0
  Ni  Ni1675  1  0.02441917  0.49739000  0.42369593  1.0
  Ni  Ni1676  1  0.02441917  0.83072333  0.42369593  1.0
  Ni  Ni1677  1  0.35775250  0.16405667  0.42369593  1.0
  Ni  Ni1678  1  0.35775250  0.49739000  0.42369593  1.0
  Ni  Ni1679  1  0.35775250  0.83072333  0.42369593  1.0
  Ni  Ni1680  1  0.69108583  0.16405667  0.42369593  1.0
  Ni  Ni1681  1  0.69108583  0.49739000  0.42369593  1.0
  Ni  Ni1682  1  0.69108583  0.83072333  0.42369593  1.0
  Ni  Ni1683  1  0.19108583  0.16405667  0.35226736  1.0
  Ni  Ni1684  1  0.19108583  0.49739000  0.35226736  1.0
  Ni  Ni1685  1  0.19108583  0.83072333  0.35226736  1.0
  Ni  Ni1686  1  0.52441917  0.16405667  0.35226736  1.0
  Ni  Ni1687  1  0.52441917  0.49739000  0.35226736  1.0
  Ni  Ni1688  1  0.52441917  0.83072333  0.35226736  1.0
  Ni  Ni1689  1  0.85775250  0.16405667  0.35226736  1.0
  Ni  Ni1690  1  0.85775250  0.49739000  0.35226736  1.0
  Ni  Ni1691  1  0.85775250  0.83072333  0.35226736  1.0
  Ni  Ni1692  1  0.07268383  0.16405667  0.40301107  1.0
  Ni  Ni1693  1  0.07268383  0.49739000  0.40301107  1.0
  Ni  Ni1694  1  0.07268383  0.83072333  0.40301107  1.0
  Ni  Ni1695  1  0.40601717  0.16405667  0.40301107  1.0
  Ni  Ni1696  1  0.40601717  0.49739000  0.40301107  1.0
  Ni  Ni1697  1  0.40601717  0.83072333  0.40301107  1.0
  Ni  Ni1698  1  0.73935050  0.16405667  0.40301107  1.0
  Ni  Ni1699  1  0.73935050  0.49739000  0.40301107  1.0
  Ni  Ni1700  1  0.73935050  0.83072333  0.40301107  1.0
  Ni  Ni1701  1  0.23935050  0.16405667  0.33158250  1.0
  Ni  Ni1702  1  0.23935050  0.49739000  0.33158250  1.0
  Ni  Ni1703  1  0.23935050  0.83072333  0.33158250  1.0
  Ni  Ni1704  1  0.57268383  0.16405667  0.33158250  1.0
  Ni  Ni1705  1  0.57268383  0.49739000  0.33158250  1.0
  Ni  Ni1706  1  0.57268383  0.83072333  0.33158250  1.0
  Ni  Ni1707  1  0.90601717  0.16405667  0.33158250  1.0
  Ni  Ni1708  1  0.90601717  0.49739000  0.33158250  1.0
  Ni  Ni1709  1  0.90601717  0.83072333  0.33158250  1.0
  Ni  Ni1710  1  0.14224750  0.16927667  0.35183007  1.0
  Ni  Ni1711  1  0.14224750  0.50261000  0.35183007  1.0
  Ni  Ni1712  1  0.14224750  0.83594333  0.35183007  1.0
  Ni  Ni1713  1  0.47558083  0.16927667  0.35183007  1.0
  Ni  Ni1714  1  0.47558083  0.50261000  0.35183007  1.0
  Ni  Ni1715  1  0.47558083  0.83594333  0.35183007  1.0
  Ni  Ni1716  1  0.80891417  0.16927667  0.35183007  1.0
  Ni  Ni1717  1  0.80891417  0.50261000  0.35183007  1.0
  Ni  Ni1718  1  0.80891417  0.83594333  0.35183007  1.0
  Ni  Ni1719  1  0.30891417  0.16927667  0.42325864  1.0
  Ni  Ni1720  1  0.30891417  0.50261000  0.42325864  1.0
  Ni  Ni1721  1  0.30891417  0.83594333  0.42325864  1.0
  Ni  Ni1722  1  0.64224750  0.16927667  0.42325864  1.0
  Ni  Ni1723  1  0.64224750  0.50261000  0.42325864  1.0
  Ni  Ni1724  1  0.64224750  0.83594333  0.42325864  1.0
  Ni  Ni1725  1  0.97558083  0.16927667  0.42325864  1.0
  Ni  Ni1726  1  0.97558083  0.50261000  0.42325864  1.0
  Ni  Ni1727  1  0.97558083  0.83594333  0.42325864  1.0
  Ni  Ni1728  1  0.05891417  0.33072333  0.31387864  1.0
  Ni  Ni1729  1  0.05891417  0.66405667  0.31387864  1.0
  Ni  Ni1730  1  0.05891417  0.99739000  0.31387864  1.0
  Ni  Ni1731  1  0.39224750  0.33072333  0.31387864  1.0
  Ni  Ni1732  1  0.39224750  0.66405667  0.31387864  1.0
  Ni  Ni1733  1  0.39224750  0.99739000  0.31387864  1.0
  Ni  Ni1734  1  0.72558083  0.33072333  0.31387864  1.0
  Ni  Ni1735  1  0.72558083  0.66405667  0.31387864  1.0
  Ni  Ni1736  1  0.72558083  0.99739000  0.31387864  1.0
  Ni  Ni1737  1  0.22558083  0.33072333  0.38530721  1.0
  Ni  Ni1738  1  0.22558083  0.66405667  0.38530721  1.0
  Ni  Ni1739  1  0.22558083  0.99739000  0.38530721  1.0
  Ni  Ni1740  1  0.55891417  0.33072333  0.38530721  1.0
  Ni  Ni1741  1  0.55891417  0.66405667  0.38530721  1.0
  Ni  Ni1742  1  0.55891417  0.99739000  0.38530721  1.0
  Ni  Ni1743  1  0.89224750  0.33072333  0.38530721  1.0
  Ni  Ni1744  1  0.89224750  0.66405667  0.38530721  1.0
  Ni  Ni1745  1  0.89224750  0.99739000  0.38530721  1.0
  Ni  Ni1746  1  0.10775250  0.00261000  0.31879021  1.0
  Ni  Ni1747  1  0.10775250  0.33594333  0.31879021  1.0
  Ni  Ni1748  1  0.10775250  0.66927667  0.31879021  1.0
  Ni  Ni1749  1  0.44108583  0.00261000  0.31879021  1.0
  Ni  Ni1750  1  0.44108583  0.33594333  0.31879021  1.0
  Ni  Ni1751  1  0.44108583  0.66927667  0.31879021  1.0
  Ni  Ni1752  1  0.77441917  0.00261000  0.31879021  1.0
  Ni  Ni1753  1  0.77441917  0.33594333  0.31879021  1.0
  Ni  Ni1754  1  0.77441917  0.66927667  0.31879021  1.0
  Ni  Ni1755  1  0.27441917  0.00261000  0.39021879  1.0
  Ni  Ni1756  1  0.27441917  0.33594333  0.39021879  1.0
  Ni  Ni1757  1  0.27441917  0.66927667  0.39021879  1.0
  Ni  Ni1758  1  0.60775250  0.00261000  0.39021879  1.0
  Ni  Ni1759  1  0.60775250  0.33594333  0.39021879  1.0
  Ni  Ni1760  1  0.60775250  0.66927667  0.39021879  1.0
  Ni  Ni1761  1  0.94108583  0.00261000  0.39021879  1.0
  Ni  Ni1762  1  0.94108583  0.33594333  0.39021879  1.0
  Ni  Ni1763  1  0.94108583  0.66927667  0.39021879  1.0
  Ni  Ni1764  1  0.01785100  0.13163367  0.35998586  1.0
  Ni  Ni1765  1  0.01785100  0.46496700  0.35998586  1.0
  Ni  Ni1766  1  0.01785100  0.79830033  0.35998586  1.0
  Ni  Ni1767  1  0.35118433  0.13163367  0.35998586  1.0
  Ni  Ni1768  1  0.35118433  0.46496700  0.35998586  1.0
  Ni  Ni1769  1  0.35118433  0.79830033  0.35998586  1.0
  Ni  Ni1770  1  0.68451767  0.13163367  0.35998586  1.0
  Ni  Ni1771  1  0.68451767  0.46496700  0.35998586  1.0
  Ni  Ni1772  1  0.68451767  0.79830033  0.35998586  1.0
  Ni  Ni1773  1  0.18451767  0.13163367  0.28855729  1.0
  Ni  Ni1774  1  0.18451767  0.46496700  0.28855729  1.0
  Ni  Ni1775  1  0.18451767  0.79830033  0.28855729  1.0
  Ni  Ni1776  1  0.51785100  0.13163367  0.28855729  1.0
  Ni  Ni1777  1  0.51785100  0.46496700  0.28855729  1.0
  Ni  Ni1778  1  0.51785100  0.79830033  0.28855729  1.0
  Ni  Ni1779  1  0.85118433  0.13163367  0.28855729  1.0
  Ni  Ni1780  1  0.85118433  0.46496700  0.28855729  1.0
  Ni  Ni1781  1  0.85118433  0.79830033  0.28855729  1.0
  Ni  Ni1782  1  0.14881567  0.20169967  0.41554014  1.0
  Ni  Ni1783  1  0.14881567  0.53503300  0.41554014  1.0
  Ni  Ni1784  1  0.14881567  0.86836633  0.41554014  1.0
  Ni  Ni1785  1  0.48214900  0.20169967  0.41554014  1.0
  Ni  Ni1786  1  0.48214900  0.53503300  0.41554014  1.0
  Ni  Ni1787  1  0.48214900  0.86836633  0.41554014  1.0
  Ni  Ni1788  1  0.81548233  0.20169967  0.41554014  1.0
  Ni  Ni1789  1  0.81548233  0.53503300  0.41554014  1.0
  Ni  Ni1790  1  0.81548233  0.86836633  0.41554014  1.0
  Ni  Ni1791  1  0.31548233  0.20169967  0.34411157  1.0
  Ni  Ni1792  1  0.31548233  0.53503300  0.34411157  1.0
  Ni  Ni1793  1  0.31548233  0.86836633  0.34411157  1.0
  Ni  Ni1794  1  0.64881567  0.20169967  0.34411157  1.0
  Ni  Ni1795  1  0.64881567  0.53503300  0.34411157  1.0
  Ni  Ni1796  1  0.64881567  0.86836633  0.34411157  1.0
  Ni  Ni1797  1  0.98214900  0.20169967  0.34411157  1.0
  Ni  Ni1798  1  0.98214900  0.53503300  0.34411157  1.0
  Ni  Ni1799  1  0.98214900  0.86836633  0.34411157  1.0
  Ni  Ni1800  1  0.06548233  0.29830033  0.34979757  1.0
  Ni  Ni1801  1  0.06548233  0.63163367  0.34979757  1.0
  Ni  Ni1802  1  0.06548233  0.96496700  0.34979757  1.0
  Ni  Ni1803  1  0.39881567  0.29830033  0.34979757  1.0
  Ni  Ni1804  1  0.39881567  0.63163367  0.34979757  1.0
  Ni  Ni1805  1  0.39881567  0.96496700  0.34979757  1.0
  Ni  Ni1806  1  0.73214900  0.29830033  0.34979757  1.0
  Ni  Ni1807  1  0.73214900  0.63163367  0.34979757  1.0
  Ni  Ni1808  1  0.73214900  0.96496700  0.34979757  1.0
  Ni  Ni1809  1  0.23214900  0.29830033  0.42122614  1.0
  Ni  Ni1810  1  0.23214900  0.63163367  0.42122614  1.0
  Ni  Ni1811  1  0.23214900  0.96496700  0.42122614  1.0
  Ni  Ni1812  1  0.56548233  0.29830033  0.42122614  1.0
  Ni  Ni1813  1  0.56548233  0.63163367  0.42122614  1.0
  Ni  Ni1814  1  0.56548233  0.96496700  0.42122614  1.0
  Ni  Ni1815  1  0.89881567  0.29830033  0.42122614  1.0
  Ni  Ni1816  1  0.89881567  0.63163367  0.42122614  1.0
  Ni  Ni1817  1  0.89881567  0.96496700  0.42122614  1.0
  Ni  Ni1818  1  0.10118433  0.03503300  0.42572843  1.0
  Ni  Ni1819  1  0.10118433  0.36836633  0.42572843  1.0
  Ni  Ni1820  1  0.10118433  0.70169967  0.42572843  1.0
  Ni  Ni1821  1  0.43451767  0.03503300  0.42572843  1.0
  Ni  Ni1822  1  0.43451767  0.36836633  0.42572843  1.0
  Ni  Ni1823  1  0.43451767  0.70169967  0.42572843  1.0
  Ni  Ni1824  1  0.76785100  0.03503300  0.42572843  1.0
  Ni  Ni1825  1  0.76785100  0.36836633  0.42572843  1.0
  Ni  Ni1826  1  0.76785100  0.70169967  0.42572843  1.0
  Ni  Ni1827  1  0.26785100  0.03503300  0.35429986  1.0
  Ni  Ni1828  1  0.26785100  0.36836633  0.35429986  1.0
  Ni  Ni1829  1  0.26785100  0.70169967  0.35429986  1.0
  Ni  Ni1830  1  0.60118433  0.03503300  0.35429986  1.0
  Ni  Ni1831  1  0.60118433  0.36836633  0.35429986  1.0
  Ni  Ni1832  1  0.60118433  0.70169967  0.35429986  1.0
  Ni  Ni1833  1  0.93451767  0.03503300  0.35429986  1.0
  Ni  Ni1834  1  0.93451767  0.36836633  0.35429986  1.0
  Ni  Ni1835  1  0.93451767  0.70169967  0.35429986  1.0
