# generated using pymatgen
data_Hf7Ni10
_symmetry_space_group_name_H-M   'P 1'
_cell_length_a   35.61842263
_cell_length_b   45.79791331
_cell_length_c   28.69458144
_cell_angle_alpha   100.90098530
_cell_angle_beta   96.84128960
_cell_angle_gamma   92.44628017
_symmetry_Int_Tables_number   1
_chemical_formula_structural   Hf7Ni10
_chemical_formula_sum   'Hf504 Ni720'
_cell_volume   45533.93684753
_cell_formula_units_Z   72
loop_
 _symmetry_equiv_pos_site_id
 _symmetry_equiv_pos_as_xyz
  1  'x, y, z'
loop_
 _atom_site_type_symbol
 _atom_site_label
 _atom_site_symmetry_multiplicity
 _atom_site_fract_x
 _atom_site_fract_y
 _atom_site_fract_z
 _atom_site_occupancy
  Hf  Hf0  1  0.26056832  0.30342297  0.12856395  1.0
  Hf  Hf1  1  0.26056832  0.63675630  0.12856395  1.0
  Hf  Hf2  1  0.26056832  0.97008963  0.12856395  1.0
  Hf  Hf3  1  0.59390165  0.30342297  0.12856395  1.0
  Hf  Hf4  1  0.59390165  0.63675630  0.12856395  1.0
  Hf  Hf5  1  0.59390165  0.97008963  0.12856395  1.0
  Hf  Hf6  1  0.92723498  0.30342297  0.12856395  1.0
  Hf  Hf7  1  0.92723498  0.63675630  0.12856395  1.0
  Hf  Hf8  1  0.92723498  0.97008963  0.12856395  1.0
  Hf  Hf9  1  0.06056832  0.07008963  0.02856395  1.0
  Hf  Hf10  1  0.06056832  0.40342297  0.02856395  1.0
  Hf  Hf11  1  0.06056832  0.73675630  0.02856395  1.0
  Hf  Hf12  1  0.39390165  0.07008963  0.02856395  1.0
  Hf  Hf13  1  0.39390165  0.40342297  0.02856395  1.0
  Hf  Hf14  1  0.39390165  0.73675630  0.02856395  1.0
  Hf  Hf15  1  0.72723498  0.07008963  0.02856395  1.0
  Hf  Hf16  1  0.72723498  0.40342297  0.02856395  1.0
  Hf  Hf17  1  0.72723498  0.73675630  0.02856395  1.0
  Hf  Hf18  1  0.00472218  0.06049137  0.16730755  1.0
  Hf  Hf19  1  0.00472218  0.39382470  0.16730755  1.0
  Hf  Hf20  1  0.00472218  0.72715803  0.16730755  1.0
  Hf  Hf21  1  0.33805552  0.06049137  0.16730755  1.0
  Hf  Hf22  1  0.33805552  0.39382470  0.16730755  1.0
  Hf  Hf23  1  0.33805552  0.72715803  0.16730755  1.0
  Hf  Hf24  1  0.67138885  0.06049137  0.16730755  1.0
  Hf  Hf25  1  0.67138885  0.39382470  0.16730755  1.0
  Hf  Hf26  1  0.67138885  0.72715803  0.16730755  1.0
  Hf  Hf27  1  0.13805552  0.16049137  0.06730755  1.0
  Hf  Hf28  1  0.13805552  0.49382470  0.06730755  1.0
  Hf  Hf29  1  0.13805552  0.82715803  0.06730755  1.0
  Hf  Hf30  1  0.47138885  0.16049137  0.06730755  1.0
  Hf  Hf31  1  0.47138885  0.49382470  0.06730755  1.0
  Hf  Hf32  1  0.47138885  0.82715803  0.06730755  1.0
  Hf  Hf33  1  0.80472218  0.16049137  0.06730755  1.0
  Hf  Hf34  1  0.80472218  0.49382470  0.06730755  1.0
  Hf  Hf35  1  0.80472218  0.82715803  0.06730755  1.0
  Hf  Hf36  1  0.00472218  0.22715803  0.16730755  1.0
  Hf  Hf37  1  0.00472218  0.56049137  0.16730755  1.0
  Hf  Hf38  1  0.00472218  0.89382470  0.16730755  1.0
  Hf  Hf39  1  0.33805552  0.22715803  0.16730755  1.0
  Hf  Hf40  1  0.33805552  0.56049137  0.16730755  1.0
  Hf  Hf41  1  0.33805552  0.89382470  0.16730755  1.0
  Hf  Hf42  1  0.67138885  0.22715803  0.16730755  1.0
  Hf  Hf43  1  0.67138885  0.56049137  0.16730755  1.0
  Hf  Hf44  1  0.67138885  0.89382470  0.16730755  1.0
  Hf  Hf45  1  0.13805552  0.32715803  0.06730755  1.0
  Hf  Hf46  1  0.13805552  0.66049137  0.06730755  1.0
  Hf  Hf47  1  0.13805552  0.99382470  0.06730755  1.0
  Hf  Hf48  1  0.47138885  0.32715803  0.06730755  1.0
  Hf  Hf49  1  0.47138885  0.66049137  0.06730755  1.0
  Hf  Hf50  1  0.47138885  0.99382470  0.06730755  1.0
  Hf  Hf51  1  0.80472218  0.32715803  0.06730755  1.0
  Hf  Hf52  1  0.80472218  0.66049137  0.06730755  1.0
  Hf  Hf53  1  0.80472218  0.99382470  0.06730755  1.0
  Hf  Hf54  1  0.06056832  0.23675630  0.02856395  1.0
  Hf  Hf55  1  0.06056832  0.57008963  0.02856395  1.0
  Hf  Hf56  1  0.06056832  0.90342297  0.02856395  1.0
  Hf  Hf57  1  0.39390165  0.23675630  0.02856395  1.0
  Hf  Hf58  1  0.39390165  0.57008963  0.02856395  1.0
  Hf  Hf59  1  0.39390165  0.90342297  0.02856395  1.0
  Hf  Hf60  1  0.72723498  0.23675630  0.02856395  1.0
  Hf  Hf61  1  0.72723498  0.57008963  0.02856395  1.0
  Hf  Hf62  1  0.72723498  0.90342297  0.02856395  1.0
  Hf  Hf63  1  0.26056832  0.13675630  0.12856395  1.0
  Hf  Hf64  1  0.26056832  0.47008963  0.12856395  1.0
  Hf  Hf65  1  0.26056832  0.80342297  0.12856395  1.0
  Hf  Hf66  1  0.59390165  0.13675630  0.12856395  1.0
  Hf  Hf67  1  0.59390165  0.47008963  0.12856395  1.0
  Hf  Hf68  1  0.59390165  0.80342297  0.12856395  1.0
  Hf  Hf69  1  0.92723498  0.13675630  0.12856395  1.0
  Hf  Hf70  1  0.92723498  0.47008963  0.12856395  1.0
  Hf  Hf71  1  0.92723498  0.80342297  0.12856395  1.0
  Hf  Hf72  1  0.06597858  0.13195717  0.19793575  1.0
  Hf  Hf73  1  0.06597858  0.46529050  0.19793575  1.0
  Hf  Hf74  1  0.06597858  0.79862383  0.19793575  1.0
  Hf  Hf75  1  0.39931192  0.13195717  0.19793575  1.0
  Hf  Hf76  1  0.39931192  0.46529050  0.19793575  1.0
  Hf  Hf77  1  0.39931192  0.79862383  0.19793575  1.0
  Hf  Hf78  1  0.73264525  0.13195717  0.19793575  1.0
  Hf  Hf79  1  0.73264525  0.46529050  0.19793575  1.0
  Hf  Hf80  1  0.73264525  0.79862383  0.19793575  1.0
  Hf  Hf81  1  0.19931192  0.23195717  0.09793575  1.0
  Hf  Hf82  1  0.19931192  0.56529050  0.09793575  1.0
  Hf  Hf83  1  0.19931192  0.89862383  0.09793575  1.0
  Hf  Hf84  1  0.53264525  0.23195717  0.09793575  1.0
  Hf  Hf85  1  0.53264525  0.56529050  0.09793575  1.0
  Hf  Hf86  1  0.53264525  0.89862383  0.09793575  1.0
  Hf  Hf87  1  0.86597858  0.23195717  0.09793575  1.0
  Hf  Hf88  1  0.86597858  0.56529050  0.09793575  1.0
  Hf  Hf89  1  0.86597858  0.89862383  0.09793575  1.0
  Hf  Hf90  1  0.06597858  0.29862383  0.19793575  1.0
  Hf  Hf91  1  0.06597858  0.63195717  0.19793575  1.0
  Hf  Hf92  1  0.06597858  0.96529050  0.19793575  1.0
  Hf  Hf93  1  0.39931192  0.29862383  0.19793575  1.0
  Hf  Hf94  1  0.39931192  0.63195717  0.19793575  1.0
  Hf  Hf95  1  0.39931192  0.96529050  0.19793575  1.0
  Hf  Hf96  1  0.73264525  0.29862383  0.19793575  1.0
  Hf  Hf97  1  0.73264525  0.63195717  0.19793575  1.0
  Hf  Hf98  1  0.73264525  0.96529050  0.19793575  1.0
  Hf  Hf99  1  0.19931192  0.06529050  0.09793575  1.0
  Hf  Hf100  1  0.19931192  0.39862383  0.09793575  1.0
  Hf  Hf101  1  0.19931192  0.73195717  0.09793575  1.0
  Hf  Hf102  1  0.53264525  0.06529050  0.09793575  1.0
  Hf  Hf103  1  0.53264525  0.39862383  0.09793575  1.0
  Hf  Hf104  1  0.53264525  0.73195717  0.09793575  1.0
  Hf  Hf105  1  0.86597858  0.06529050  0.09793575  1.0
  Hf  Hf106  1  0.86597858  0.39862383  0.09793575  1.0
  Hf  Hf107  1  0.86597858  0.73195717  0.09793575  1.0
  Hf  Hf108  1  0.08230765  0.04045930  0.12445495  1.0
  Hf  Hf109  1  0.08230765  0.37379263  0.12445495  1.0
  Hf  Hf110  1  0.08230765  0.70712597  0.12445495  1.0
  Hf  Hf111  1  0.41564098  0.04045930  0.12445495  1.0
  Hf  Hf112  1  0.41564098  0.37379263  0.12445495  1.0
  Hf  Hf113  1  0.41564098  0.70712597  0.12445495  1.0
  Hf  Hf114  1  0.74897432  0.04045930  0.12445495  1.0
  Hf  Hf115  1  0.74897432  0.37379263  0.12445495  1.0
  Hf  Hf116  1  0.74897432  0.70712597  0.12445495  1.0
  Hf  Hf117  1  0.21564098  0.14045930  0.02445495  1.0
  Hf  Hf118  1  0.21564098  0.47379263  0.02445495  1.0
  Hf  Hf119  1  0.21564098  0.80712597  0.02445495  1.0
  Hf  Hf120  1  0.54897432  0.14045930  0.02445495  1.0
  Hf  Hf121  1  0.54897432  0.47379263  0.02445495  1.0
  Hf  Hf122  1  0.54897432  0.80712597  0.02445495  1.0
  Hf  Hf123  1  0.88230765  0.14045930  0.02445495  1.0
  Hf  Hf124  1  0.88230765  0.47379263  0.02445495  1.0
  Hf  Hf125  1  0.88230765  0.80712597  0.02445495  1.0
  Hf  Hf126  1  0.31631618  0.09012170  0.07141655  1.0
  Hf  Hf127  1  0.31631618  0.42345503  0.07141655  1.0
  Hf  Hf128  1  0.31631618  0.75678837  0.07141655  1.0
  Hf  Hf129  1  0.64964952  0.09012170  0.07141655  1.0
  Hf  Hf130  1  0.64964952  0.42345503  0.07141655  1.0
  Hf  Hf131  1  0.64964952  0.75678837  0.07141655  1.0
  Hf  Hf132  1  0.98298285  0.09012170  0.07141655  1.0
  Hf  Hf133  1  0.98298285  0.42345503  0.07141655  1.0
  Hf  Hf134  1  0.98298285  0.75678837  0.07141655  1.0
  Hf  Hf135  1  0.18298285  0.32345503  0.17141655  1.0
  Hf  Hf136  1  0.18298285  0.65678837  0.17141655  1.0
  Hf  Hf137  1  0.18298285  0.99012170  0.17141655  1.0
  Hf  Hf138  1  0.51631618  0.32345503  0.17141655  1.0
  Hf  Hf139  1  0.51631618  0.65678837  0.17141655  1.0
  Hf  Hf140  1  0.51631618  0.99012170  0.17141655  1.0
  Hf  Hf141  1  0.84964952  0.32345503  0.17141655  1.0
  Hf  Hf142  1  0.84964952  0.65678837  0.17141655  1.0
  Hf  Hf143  1  0.84964952  0.99012170  0.17141655  1.0
  Hf  Hf144  1  0.08298285  0.20678837  0.12141655  1.0
  Hf  Hf145  1  0.08298285  0.54012170  0.12141655  1.0
  Hf  Hf146  1  0.08298285  0.87345503  0.12141655  1.0
  Hf  Hf147  1  0.41631618  0.20678837  0.12141655  1.0
  Hf  Hf148  1  0.41631618  0.54012170  0.12141655  1.0
  Hf  Hf149  1  0.41631618  0.87345503  0.12141655  1.0
  Hf  Hf150  1  0.74964952  0.20678837  0.12141655  1.0
  Hf  Hf151  1  0.74964952  0.54012170  0.12141655  1.0
  Hf  Hf152  1  0.74964952  0.87345503  0.12141655  1.0
  Hf  Hf153  1  0.21631618  0.30678837  0.02141655  1.0
  Hf  Hf154  1  0.21631618  0.64012170  0.02141655  1.0
  Hf  Hf155  1  0.21631618  0.97345503  0.02141655  1.0
  Hf  Hf156  1  0.54964952  0.30678837  0.02141655  1.0
  Hf  Hf157  1  0.54964952  0.64012170  0.02141655  1.0
  Hf  Hf158  1  0.54964952  0.97345503  0.02141655  1.0
  Hf  Hf159  1  0.88298285  0.30678837  0.02141655  1.0
  Hf  Hf160  1  0.88298285  0.64012170  0.02141655  1.0
  Hf  Hf161  1  0.88298285  0.97345503  0.02141655  1.0
  Hf  Hf162  1  0.31564098  0.25712597  0.07445495  1.0
  Hf  Hf163  1  0.31564098  0.59045930  0.07445495  1.0
  Hf  Hf164  1  0.31564098  0.92379263  0.07445495  1.0
  Hf  Hf165  1  0.64897432  0.25712597  0.07445495  1.0
  Hf  Hf166  1  0.64897432  0.59045930  0.07445495  1.0
  Hf  Hf167  1  0.64897432  0.92379263  0.07445495  1.0
  Hf  Hf168  1  0.98230765  0.25712597  0.07445495  1.0
  Hf  Hf169  1  0.98230765  0.59045930  0.07445495  1.0
  Hf  Hf170  1  0.98230765  0.92379263  0.07445495  1.0
  Hf  Hf171  1  0.18230765  0.15712597  0.17445495  1.0
  Hf  Hf172  1  0.18230765  0.49045930  0.17445495  1.0
  Hf  Hf173  1  0.18230765  0.82379263  0.17445495  1.0
  Hf  Hf174  1  0.51564098  0.15712597  0.17445495  1.0
  Hf  Hf175  1  0.51564098  0.49045930  0.17445495  1.0
  Hf  Hf176  1  0.51564098  0.82379263  0.17445495  1.0
  Hf  Hf177  1  0.84897432  0.15712597  0.17445495  1.0
  Hf  Hf178  1  0.84897432  0.49045930  0.17445495  1.0
  Hf  Hf179  1  0.84897432  0.82379263  0.17445495  1.0
  Hf  Hf180  1  0.01594632  0.32363997  0.11063795  1.0
  Hf  Hf181  1  0.01594632  0.65697330  0.11063795  1.0
  Hf  Hf182  1  0.01594632  0.99030663  0.11063795  1.0
  Hf  Hf183  1  0.34927965  0.32363997  0.11063795  1.0
  Hf  Hf184  1  0.34927965  0.65697330  0.11063795  1.0
  Hf  Hf185  1  0.34927965  0.99030663  0.11063795  1.0
  Hf  Hf186  1  0.68261298  0.32363997  0.11063795  1.0
  Hf  Hf187  1  0.68261298  0.65697330  0.11063795  1.0
  Hf  Hf188  1  0.68261298  0.99030663  0.11063795  1.0
  Hf  Hf189  1  0.14927965  0.09030663  0.01063795  1.0
  Hf  Hf190  1  0.14927965  0.42363997  0.01063795  1.0
  Hf  Hf191  1  0.14927965  0.75697330  0.01063795  1.0
  Hf  Hf192  1  0.48261298  0.09030663  0.01063795  1.0
  Hf  Hf193  1  0.48261298  0.42363997  0.01063795  1.0
  Hf  Hf194  1  0.48261298  0.75697330  0.01063795  1.0
  Hf  Hf195  1  0.81594632  0.09030663  0.01063795  1.0
  Hf  Hf196  1  0.81594632  0.42363997  0.01063795  1.0
  Hf  Hf197  1  0.81594632  0.75697330  0.01063795  1.0
  Hf  Hf198  1  0.04934418  0.14027437  0.08523355  1.0
  Hf  Hf199  1  0.04934418  0.47360770  0.08523355  1.0
  Hf  Hf200  1  0.04934418  0.80694103  0.08523355  1.0
  Hf  Hf201  1  0.38267752  0.14027437  0.08523355  1.0
  Hf  Hf202  1  0.38267752  0.47360770  0.08523355  1.0
  Hf  Hf203  1  0.38267752  0.80694103  0.08523355  1.0
  Hf  Hf204  1  0.71601085  0.14027437  0.08523355  1.0
  Hf  Hf205  1  0.71601085  0.47360770  0.08523355  1.0
  Hf  Hf206  1  0.71601085  0.80694103  0.08523355  1.0
  Hf  Hf207  1  0.24934418  0.04027437  0.18523355  1.0
  Hf  Hf208  1  0.24934418  0.37360770  0.18523355  1.0
  Hf  Hf209  1  0.24934418  0.70694103  0.18523355  1.0
  Hf  Hf210  1  0.58267752  0.04027437  0.18523355  1.0
  Hf  Hf211  1  0.58267752  0.37360770  0.18523355  1.0
  Hf  Hf212  1  0.58267752  0.70694103  0.18523355  1.0
  Hf  Hf213  1  0.91601085  0.04027437  0.18523355  1.0
  Hf  Hf214  1  0.91601085  0.37360770  0.18523355  1.0
  Hf  Hf215  1  0.91601085  0.70694103  0.18523355  1.0
  Hf  Hf216  1  0.12436698  0.26942963  0.12274495  1.0
  Hf  Hf217  1  0.12436698  0.60276297  0.12274495  1.0
  Hf  Hf218  1  0.12436698  0.93609630  0.12274495  1.0
  Hf  Hf219  1  0.45770032  0.26942963  0.12274495  1.0
  Hf  Hf220  1  0.45770032  0.60276297  0.12274495  1.0
  Hf  Hf221  1  0.45770032  0.93609630  0.12274495  1.0
  Hf  Hf222  1  0.79103365  0.26942963  0.12274495  1.0
  Hf  Hf223  1  0.79103365  0.60276297  0.12274495  1.0
  Hf  Hf224  1  0.79103365  0.93609630  0.12274495  1.0
  Hf  Hf225  1  0.25770032  0.03609630  0.02274495  1.0
  Hf  Hf226  1  0.25770032  0.36942963  0.02274495  1.0
  Hf  Hf227  1  0.25770032  0.70276297  0.02274495  1.0
  Hf  Hf228  1  0.59103365  0.03609630  0.02274495  1.0
  Hf  Hf229  1  0.59103365  0.36942963  0.02274495  1.0
  Hf  Hf230  1  0.59103365  0.70276297  0.02274495  1.0
  Hf  Hf231  1  0.92436698  0.03609630  0.02274495  1.0
  Hf  Hf232  1  0.92436698  0.36942963  0.02274495  1.0
  Hf  Hf233  1  0.92436698  0.70276297  0.02274495  1.0
  Hf  Hf234  1  0.27425685  0.19448470  0.07312655  1.0
  Hf  Hf235  1  0.27425685  0.52781803  0.07312655  1.0
  Hf  Hf236  1  0.27425685  0.86115137  0.07312655  1.0
  Hf  Hf237  1  0.60759018  0.19448470  0.07312655  1.0
  Hf  Hf238  1  0.60759018  0.52781803  0.07312655  1.0
  Hf  Hf239  1  0.60759018  0.86115137  0.07312655  1.0
  Hf  Hf240  1  0.94092352  0.19448470  0.07312655  1.0
  Hf  Hf241  1  0.94092352  0.52781803  0.07312655  1.0
  Hf  Hf242  1  0.94092352  0.86115137  0.07312655  1.0
  Hf  Hf243  1  0.14092352  0.09448470  0.17312655  1.0
  Hf  Hf244  1  0.14092352  0.42781803  0.17312655  1.0
  Hf  Hf245  1  0.14092352  0.76115137  0.17312655  1.0
  Hf  Hf246  1  0.47425685  0.09448470  0.17312655  1.0
  Hf  Hf247  1  0.47425685  0.42781803  0.17312655  1.0
  Hf  Hf248  1  0.47425685  0.76115137  0.17312655  1.0
  Hf  Hf249  1  0.80759018  0.09448470  0.17312655  1.0
  Hf  Hf250  1  0.80759018  0.42781803  0.17312655  1.0
  Hf  Hf251  1  0.80759018  0.76115137  0.17312655  1.0
  Hf  Hf252  1  0.32723498  0.10342297  0.32856395  1.0
  Hf  Hf253  1  0.32723498  0.43675630  0.32856395  1.0
  Hf  Hf254  1  0.32723498  0.77008963  0.32856395  1.0
  Hf  Hf255  1  0.66056832  0.10342297  0.32856395  1.0
  Hf  Hf256  1  0.66056832  0.43675630  0.32856395  1.0
  Hf  Hf257  1  0.66056832  0.77008963  0.32856395  1.0
  Hf  Hf258  1  0.99390165  0.10342297  0.32856395  1.0
  Hf  Hf259  1  0.99390165  0.43675630  0.32856395  1.0
  Hf  Hf260  1  0.99390165  0.77008963  0.32856395  1.0
  Hf  Hf261  1  0.12723498  0.20342297  0.22856395  1.0
  Hf  Hf262  1  0.12723498  0.53675630  0.22856395  1.0
  Hf  Hf263  1  0.12723498  0.87008963  0.22856395  1.0
  Hf  Hf264  1  0.46056832  0.20342297  0.22856395  1.0
  Hf  Hf265  1  0.46056832  0.53675630  0.22856395  1.0
  Hf  Hf266  1  0.46056832  0.87008963  0.22856395  1.0
  Hf  Hf267  1  0.79390165  0.20342297  0.22856395  1.0
  Hf  Hf268  1  0.79390165  0.53675630  0.22856395  1.0
  Hf  Hf269  1  0.79390165  0.87008963  0.22856395  1.0
  Hf  Hf270  1  0.07138885  0.19382470  0.36730755  1.0
  Hf  Hf271  1  0.07138885  0.52715803  0.36730755  1.0
  Hf  Hf272  1  0.07138885  0.86049137  0.36730755  1.0
  Hf  Hf273  1  0.40472218  0.19382470  0.36730755  1.0
  Hf  Hf274  1  0.40472218  0.52715803  0.36730755  1.0
  Hf  Hf275  1  0.40472218  0.86049137  0.36730755  1.0
  Hf  Hf276  1  0.73805552  0.19382470  0.36730755  1.0
  Hf  Hf277  1  0.73805552  0.52715803  0.36730755  1.0
  Hf  Hf278  1  0.73805552  0.86049137  0.36730755  1.0
  Hf  Hf279  1  0.20472218  0.29382470  0.26730755  1.0
  Hf  Hf280  1  0.20472218  0.62715803  0.26730755  1.0
  Hf  Hf281  1  0.20472218  0.96049137  0.26730755  1.0
  Hf  Hf282  1  0.53805552  0.29382470  0.26730755  1.0
  Hf  Hf283  1  0.53805552  0.62715803  0.26730755  1.0
  Hf  Hf284  1  0.53805552  0.96049137  0.26730755  1.0
  Hf  Hf285  1  0.87138885  0.29382470  0.26730755  1.0
  Hf  Hf286  1  0.87138885  0.62715803  0.26730755  1.0
  Hf  Hf287  1  0.87138885  0.96049137  0.26730755  1.0
  Hf  Hf288  1  0.07138885  0.02715803  0.36730755  1.0
  Hf  Hf289  1  0.07138885  0.36049137  0.36730755  1.0
  Hf  Hf290  1  0.07138885  0.69382470  0.36730755  1.0
  Hf  Hf291  1  0.40472218  0.02715803  0.36730755  1.0
  Hf  Hf292  1  0.40472218  0.36049137  0.36730755  1.0
  Hf  Hf293  1  0.40472218  0.69382470  0.36730755  1.0
  Hf  Hf294  1  0.73805552  0.02715803  0.36730755  1.0
  Hf  Hf295  1  0.73805552  0.36049137  0.36730755  1.0
  Hf  Hf296  1  0.73805552  0.69382470  0.36730755  1.0
  Hf  Hf297  1  0.20472218  0.12715803  0.26730755  1.0
  Hf  Hf298  1  0.20472218  0.46049137  0.26730755  1.0
  Hf  Hf299  1  0.20472218  0.79382470  0.26730755  1.0
  Hf  Hf300  1  0.53805552  0.12715803  0.26730755  1.0
  Hf  Hf301  1  0.53805552  0.46049137  0.26730755  1.0
  Hf  Hf302  1  0.53805552  0.79382470  0.26730755  1.0
  Hf  Hf303  1  0.87138885  0.12715803  0.26730755  1.0
  Hf  Hf304  1  0.87138885  0.46049137  0.26730755  1.0
  Hf  Hf305  1  0.87138885  0.79382470  0.26730755  1.0
  Hf  Hf306  1  0.12723498  0.03675630  0.22856395  1.0
  Hf  Hf307  1  0.12723498  0.37008963  0.22856395  1.0
  Hf  Hf308  1  0.12723498  0.70342297  0.22856395  1.0
  Hf  Hf309  1  0.46056832  0.03675630  0.22856395  1.0
  Hf  Hf310  1  0.46056832  0.37008963  0.22856395  1.0
  Hf  Hf311  1  0.46056832  0.70342297  0.22856395  1.0
  Hf  Hf312  1  0.79390165  0.03675630  0.22856395  1.0
  Hf  Hf313  1  0.79390165  0.37008963  0.22856395  1.0
  Hf  Hf314  1  0.79390165  0.70342297  0.22856395  1.0
  Hf  Hf315  1  0.32723498  0.27008963  0.32856395  1.0
  Hf  Hf316  1  0.32723498  0.60342297  0.32856395  1.0
  Hf  Hf317  1  0.32723498  0.93675630  0.32856395  1.0
  Hf  Hf318  1  0.66056832  0.27008963  0.32856395  1.0
  Hf  Hf319  1  0.66056832  0.60342297  0.32856395  1.0
  Hf  Hf320  1  0.66056832  0.93675630  0.32856395  1.0
  Hf  Hf321  1  0.99390165  0.27008963  0.32856395  1.0
  Hf  Hf322  1  0.99390165  0.60342297  0.32856395  1.0
  Hf  Hf323  1  0.99390165  0.93675630  0.32856395  1.0
  Hf  Hf324  1  0.13264525  0.26529050  0.39793575  1.0
  Hf  Hf325  1  0.13264525  0.59862383  0.39793575  1.0
  Hf  Hf326  1  0.13264525  0.93195717  0.39793575  1.0
  Hf  Hf327  1  0.46597858  0.26529050  0.39793575  1.0
  Hf  Hf328  1  0.46597858  0.59862383  0.39793575  1.0
  Hf  Hf329  1  0.46597858  0.93195717  0.39793575  1.0
  Hf  Hf330  1  0.79931192  0.26529050  0.39793575  1.0
  Hf  Hf331  1  0.79931192  0.59862383  0.39793575  1.0
  Hf  Hf332  1  0.79931192  0.93195717  0.39793575  1.0
  Hf  Hf333  1  0.26597858  0.03195717  0.29793575  1.0
  Hf  Hf334  1  0.26597858  0.36529050  0.29793575  1.0
  Hf  Hf335  1  0.26597858  0.69862383  0.29793575  1.0
  Hf  Hf336  1  0.59931192  0.03195717  0.29793575  1.0
  Hf  Hf337  1  0.59931192  0.36529050  0.29793575  1.0
  Hf  Hf338  1  0.59931192  0.69862383  0.29793575  1.0
  Hf  Hf339  1  0.93264525  0.03195717  0.29793575  1.0
  Hf  Hf340  1  0.93264525  0.36529050  0.29793575  1.0
  Hf  Hf341  1  0.93264525  0.69862383  0.29793575  1.0
  Hf  Hf342  1  0.13264525  0.09862383  0.39793575  1.0
  Hf  Hf343  1  0.13264525  0.43195717  0.39793575  1.0
  Hf  Hf344  1  0.13264525  0.76529050  0.39793575  1.0
  Hf  Hf345  1  0.46597858  0.09862383  0.39793575  1.0
  Hf  Hf346  1  0.46597858  0.43195717  0.39793575  1.0
  Hf  Hf347  1  0.46597858  0.76529050  0.39793575  1.0
  Hf  Hf348  1  0.79931192  0.09862383  0.39793575  1.0
  Hf  Hf349  1  0.79931192  0.43195717  0.39793575  1.0
  Hf  Hf350  1  0.79931192  0.76529050  0.39793575  1.0
  Hf  Hf351  1  0.26597858  0.19862383  0.29793575  1.0
  Hf  Hf352  1  0.26597858  0.53195717  0.29793575  1.0
  Hf  Hf353  1  0.26597858  0.86529050  0.29793575  1.0
  Hf  Hf354  1  0.59931192  0.19862383  0.29793575  1.0
  Hf  Hf355  1  0.59931192  0.53195717  0.29793575  1.0
  Hf  Hf356  1  0.59931192  0.86529050  0.29793575  1.0
  Hf  Hf357  1  0.93264525  0.19862383  0.29793575  1.0
  Hf  Hf358  1  0.93264525  0.53195717  0.29793575  1.0
  Hf  Hf359  1  0.93264525  0.86529050  0.29793575  1.0
  Hf  Hf360  1  0.14897432  0.17379263  0.32445495  1.0
  Hf  Hf361  1  0.14897432  0.50712597  0.32445495  1.0
  Hf  Hf362  1  0.14897432  0.84045930  0.32445495  1.0
  Hf  Hf363  1  0.48230765  0.17379263  0.32445495  1.0
  Hf  Hf364  1  0.48230765  0.50712597  0.32445495  1.0
  Hf  Hf365  1  0.48230765  0.84045930  0.32445495  1.0
  Hf  Hf366  1  0.81564098  0.17379263  0.32445495  1.0
  Hf  Hf367  1  0.81564098  0.50712597  0.32445495  1.0
  Hf  Hf368  1  0.81564098  0.84045930  0.32445495  1.0
  Hf  Hf369  1  0.28230765  0.27379263  0.22445495  1.0
  Hf  Hf370  1  0.28230765  0.60712597  0.22445495  1.0
  Hf  Hf371  1  0.28230765  0.94045930  0.22445495  1.0
  Hf  Hf372  1  0.61564098  0.27379263  0.22445495  1.0
  Hf  Hf373  1  0.61564098  0.60712597  0.22445495  1.0
  Hf  Hf374  1  0.61564098  0.94045930  0.22445495  1.0
  Hf  Hf375  1  0.94897432  0.27379263  0.22445495  1.0
  Hf  Hf376  1  0.94897432  0.60712597  0.22445495  1.0
  Hf  Hf377  1  0.94897432  0.94045930  0.22445495  1.0
  Hf  Hf378  1  0.04964952  0.22345503  0.27141655  1.0
  Hf  Hf379  1  0.04964952  0.55678837  0.27141655  1.0
  Hf  Hf380  1  0.04964952  0.89012170  0.27141655  1.0
  Hf  Hf381  1  0.38298285  0.22345503  0.27141655  1.0
  Hf  Hf382  1  0.38298285  0.55678837  0.27141655  1.0
  Hf  Hf383  1  0.38298285  0.89012170  0.27141655  1.0
  Hf  Hf384  1  0.71631618  0.22345503  0.27141655  1.0
  Hf  Hf385  1  0.71631618  0.55678837  0.27141655  1.0
  Hf  Hf386  1  0.71631618  0.89012170  0.27141655  1.0
  Hf  Hf387  1  0.24964952  0.12345503  0.37141655  1.0
  Hf  Hf388  1  0.24964952  0.45678837  0.37141655  1.0
  Hf  Hf389  1  0.24964952  0.79012170  0.37141655  1.0
  Hf  Hf390  1  0.58298285  0.12345503  0.37141655  1.0
  Hf  Hf391  1  0.58298285  0.45678837  0.37141655  1.0
  Hf  Hf392  1  0.58298285  0.79012170  0.37141655  1.0
  Hf  Hf393  1  0.91631618  0.12345503  0.37141655  1.0
  Hf  Hf394  1  0.91631618  0.45678837  0.37141655  1.0
  Hf  Hf395  1  0.91631618  0.79012170  0.37141655  1.0
  Hf  Hf396  1  0.14964952  0.00678837  0.32141655  1.0
  Hf  Hf397  1  0.14964952  0.34012170  0.32141655  1.0
  Hf  Hf398  1  0.14964952  0.67345503  0.32141655  1.0
  Hf  Hf399  1  0.48298285  0.00678837  0.32141655  1.0
  Hf  Hf400  1  0.48298285  0.34012170  0.32141655  1.0
  Hf  Hf401  1  0.48298285  0.67345503  0.32141655  1.0
  Hf  Hf402  1  0.81631618  0.00678837  0.32141655  1.0
  Hf  Hf403  1  0.81631618  0.34012170  0.32141655  1.0
  Hf  Hf404  1  0.81631618  0.67345503  0.32141655  1.0
  Hf  Hf405  1  0.28298285  0.10678837  0.22141655  1.0
  Hf  Hf406  1  0.28298285  0.44012170  0.22141655  1.0
  Hf  Hf407  1  0.28298285  0.77345503  0.22141655  1.0
  Hf  Hf408  1  0.61631618  0.10678837  0.22141655  1.0
  Hf  Hf409  1  0.61631618  0.44012170  0.22141655  1.0
  Hf  Hf410  1  0.61631618  0.77345503  0.22141655  1.0
  Hf  Hf411  1  0.94964952  0.10678837  0.22141655  1.0
  Hf  Hf412  1  0.94964952  0.44012170  0.22141655  1.0
  Hf  Hf413  1  0.94964952  0.77345503  0.22141655  1.0
  Hf  Hf414  1  0.04897432  0.05712597  0.27445495  1.0
  Hf  Hf415  1  0.04897432  0.39045930  0.27445495  1.0
  Hf  Hf416  1  0.04897432  0.72379263  0.27445495  1.0
  Hf  Hf417  1  0.38230765  0.05712597  0.27445495  1.0
  Hf  Hf418  1  0.38230765  0.39045930  0.27445495  1.0
  Hf  Hf419  1  0.38230765  0.72379263  0.27445495  1.0
  Hf  Hf420  1  0.71564098  0.05712597  0.27445495  1.0
  Hf  Hf421  1  0.71564098  0.39045930  0.27445495  1.0
  Hf  Hf422  1  0.71564098  0.72379263  0.27445495  1.0
  Hf  Hf423  1  0.24897432  0.29045930  0.37445495  1.0
  Hf  Hf424  1  0.24897432  0.62379263  0.37445495  1.0
  Hf  Hf425  1  0.24897432  0.95712597  0.37445495  1.0
  Hf  Hf426  1  0.58230765  0.29045930  0.37445495  1.0
  Hf  Hf427  1  0.58230765  0.62379263  0.37445495  1.0
  Hf  Hf428  1  0.58230765  0.95712597  0.37445495  1.0
  Hf  Hf429  1  0.91564098  0.29045930  0.37445495  1.0
  Hf  Hf430  1  0.91564098  0.62379263  0.37445495  1.0
  Hf  Hf431  1  0.91564098  0.95712597  0.37445495  1.0
  Hf  Hf432  1  0.08261298  0.12363997  0.31063795  1.0
  Hf  Hf433  1  0.08261298  0.45697330  0.31063795  1.0
  Hf  Hf434  1  0.08261298  0.79030663  0.31063795  1.0
  Hf  Hf435  1  0.41594632  0.12363997  0.31063795  1.0
  Hf  Hf436  1  0.41594632  0.45697330  0.31063795  1.0
  Hf  Hf437  1  0.41594632  0.79030663  0.31063795  1.0
  Hf  Hf438  1  0.74927965  0.12363997  0.31063795  1.0
  Hf  Hf439  1  0.74927965  0.45697330  0.31063795  1.0
  Hf  Hf440  1  0.74927965  0.79030663  0.31063795  1.0
  Hf  Hf441  1  0.21594632  0.22363997  0.21063795  1.0
  Hf  Hf442  1  0.21594632  0.55697330  0.21063795  1.0
  Hf  Hf443  1  0.21594632  0.89030663  0.21063795  1.0
  Hf  Hf444  1  0.54927965  0.22363997  0.21063795  1.0
  Hf  Hf445  1  0.54927965  0.55697330  0.21063795  1.0
  Hf  Hf446  1  0.54927965  0.89030663  0.21063795  1.0
  Hf  Hf447  1  0.88261298  0.22363997  0.21063795  1.0
  Hf  Hf448  1  0.88261298  0.55697330  0.21063795  1.0
  Hf  Hf449  1  0.88261298  0.89030663  0.21063795  1.0
  Hf  Hf450  1  0.11601085  0.27360770  0.28523355  1.0
  Hf  Hf451  1  0.11601085  0.60694103  0.28523355  1.0
  Hf  Hf452  1  0.11601085  0.94027437  0.28523355  1.0
  Hf  Hf453  1  0.44934418  0.27360770  0.28523355  1.0
  Hf  Hf454  1  0.44934418  0.60694103  0.28523355  1.0
  Hf  Hf455  1  0.44934418  0.94027437  0.28523355  1.0
  Hf  Hf456  1  0.78267752  0.27360770  0.28523355  1.0
  Hf  Hf457  1  0.78267752  0.60694103  0.28523355  1.0
  Hf  Hf458  1  0.78267752  0.94027437  0.28523355  1.0
  Hf  Hf459  1  0.31601085  0.17360770  0.38523355  1.0
  Hf  Hf460  1  0.31601085  0.50694103  0.38523355  1.0
  Hf  Hf461  1  0.31601085  0.84027437  0.38523355  1.0
  Hf  Hf462  1  0.64934418  0.17360770  0.38523355  1.0
  Hf  Hf463  1  0.64934418  0.50694103  0.38523355  1.0
  Hf  Hf464  1  0.64934418  0.84027437  0.38523355  1.0
  Hf  Hf465  1  0.98267752  0.17360770  0.38523355  1.0
  Hf  Hf466  1  0.98267752  0.50694103  0.38523355  1.0
  Hf  Hf467  1  0.98267752  0.84027437  0.38523355  1.0
  Hf  Hf468  1  0.19103365  0.06942963  0.32274495  1.0
  Hf  Hf469  1  0.19103365  0.40276297  0.32274495  1.0
  Hf  Hf470  1  0.19103365  0.73609630  0.32274495  1.0
  Hf  Hf471  1  0.52436698  0.06942963  0.32274495  1.0
  Hf  Hf472  1  0.52436698  0.40276297  0.32274495  1.0
  Hf  Hf473  1  0.52436698  0.73609630  0.32274495  1.0
  Hf  Hf474  1  0.85770032  0.06942963  0.32274495  1.0
  Hf  Hf475  1  0.85770032  0.40276297  0.32274495  1.0
  Hf  Hf476  1  0.85770032  0.73609630  0.32274495  1.0
  Hf  Hf477  1  0.32436698  0.16942963  0.22274495  1.0
  Hf  Hf478  1  0.32436698  0.50276297  0.22274495  1.0
  Hf  Hf479  1  0.32436698  0.83609630  0.22274495  1.0
  Hf  Hf480  1  0.65770032  0.16942963  0.22274495  1.0
  Hf  Hf481  1  0.65770032  0.50276297  0.22274495  1.0
  Hf  Hf482  1  0.65770032  0.83609630  0.22274495  1.0
  Hf  Hf483  1  0.99103365  0.16942963  0.22274495  1.0
  Hf  Hf484  1  0.99103365  0.50276297  0.22274495  1.0
  Hf  Hf485  1  0.99103365  0.83609630  0.22274495  1.0
  Hf  Hf486  1  0.00759018  0.32781803  0.27312655  1.0
  Hf  Hf487  1  0.00759018  0.66115137  0.27312655  1.0
  Hf  Hf488  1  0.00759018  0.99448470  0.27312655  1.0
  Hf  Hf489  1  0.34092352  0.32781803  0.27312655  1.0
  Hf  Hf490  1  0.34092352  0.66115137  0.27312655  1.0
  Hf  Hf491  1  0.34092352  0.99448470  0.27312655  1.0
  Hf  Hf492  1  0.67425685  0.32781803  0.27312655  1.0
  Hf  Hf493  1  0.67425685  0.66115137  0.27312655  1.0
  Hf  Hf494  1  0.67425685  0.99448470  0.27312655  1.0
  Hf  Hf495  1  0.20759018  0.22781803  0.37312655  1.0
  Hf  Hf496  1  0.20759018  0.56115137  0.37312655  1.0
  Hf  Hf497  1  0.20759018  0.89448470  0.37312655  1.0
  Hf  Hf498  1  0.54092352  0.22781803  0.37312655  1.0
  Hf  Hf499  1  0.54092352  0.56115137  0.37312655  1.0
  Hf  Hf500  1  0.54092352  0.89448470  0.37312655  1.0
  Hf  Hf501  1  0.87425685  0.22781803  0.37312655  1.0
  Hf  Hf502  1  0.87425685  0.56115137  0.37312655  1.0
  Hf  Hf503  1  0.87425685  0.89448470  0.37312655  1.0
  Ni  Ni504  1  0.26915245  0.24517523  0.13636535  1.0
  Ni  Ni505  1  0.26915245  0.57850857  0.13636535  1.0
  Ni  Ni506  1  0.26915245  0.91184190  0.13636535  1.0
  Ni  Ni507  1  0.60248578  0.24517523  0.13636535  1.0
  Ni  Ni508  1  0.60248578  0.57850857  0.13636535  1.0
  Ni  Ni509  1  0.60248578  0.91184190  0.13636535  1.0
  Ni  Ni510  1  0.93581912  0.24517523  0.13636535  1.0
  Ni  Ni511  1  0.93581912  0.57850857  0.13636535  1.0
  Ni  Ni512  1  0.93581912  0.91184190  0.13636535  1.0
  Ni  Ni513  1  0.06915245  0.01184190  0.03636535  1.0
  Ni  Ni514  1  0.06915245  0.34517523  0.03636535  1.0
  Ni  Ni515  1  0.06915245  0.67850857  0.03636535  1.0
  Ni  Ni516  1  0.40248578  0.01184190  0.03636535  1.0
  Ni  Ni517  1  0.40248578  0.34517523  0.03636535  1.0
  Ni  Ni518  1  0.40248578  0.67850857  0.03636535  1.0
  Ni  Ni519  1  0.73581912  0.01184190  0.03636535  1.0
  Ni  Ni520  1  0.73581912  0.34517523  0.03636535  1.0
  Ni  Ni521  1  0.73581912  0.67850857  0.03636535  1.0
  Ni  Ni522  1  0.12947138  0.21873910  0.05950615  1.0
  Ni  Ni523  1  0.12947138  0.55207243  0.05950615  1.0
  Ni  Ni524  1  0.12947138  0.88540577  0.05950615  1.0
  Ni  Ni525  1  0.46280472  0.21873910  0.05950615  1.0
  Ni  Ni526  1  0.46280472  0.55207243  0.05950615  1.0
  Ni  Ni527  1  0.46280472  0.88540577  0.05950615  1.0
  Ni  Ni528  1  0.79613805  0.21873910  0.05950615  1.0
  Ni  Ni529  1  0.79613805  0.55207243  0.05950615  1.0
  Ni  Ni530  1  0.79613805  0.88540577  0.05950615  1.0
  Ni  Ni531  1  0.32947138  0.11873910  0.15950615  1.0
  Ni  Ni532  1  0.32947138  0.45207243  0.15950615  1.0
  Ni  Ni533  1  0.32947138  0.78540577  0.15950615  1.0
  Ni  Ni534  1  0.66280472  0.11873910  0.15950615  1.0
  Ni  Ni535  1  0.66280472  0.45207243  0.15950615  1.0
  Ni  Ni536  1  0.66280472  0.78540577  0.15950615  1.0
  Ni  Ni537  1  0.99613805  0.11873910  0.15950615  1.0
  Ni  Ni538  1  0.99613805  0.45207243  0.15950615  1.0
  Ni  Ni539  1  0.99613805  0.78540577  0.15950615  1.0
  Ni  Ni540  1  0.01279018  0.11041303  0.00116555  1.0
  Ni  Ni541  1  0.01279018  0.44374637  0.00116555  1.0
  Ni  Ni542  1  0.01279018  0.77707970  0.00116555  1.0
  Ni  Ni543  1  0.34612352  0.11041303  0.00116555  1.0
  Ni  Ni544  1  0.34612352  0.44374637  0.00116555  1.0
  Ni  Ni545  1  0.34612352  0.77707970  0.00116555  1.0
  Ni  Ni546  1  0.67945685  0.11041303  0.00116555  1.0
  Ni  Ni547  1  0.67945685  0.44374637  0.00116555  1.0
  Ni  Ni548  1  0.67945685  0.77707970  0.00116555  1.0
  Ni  Ni549  1  0.21279018  0.01041303  0.10116555  1.0
  Ni  Ni550  1  0.21279018  0.34374637  0.10116555  1.0
  Ni  Ni551  1  0.21279018  0.67707970  0.10116555  1.0
  Ni  Ni552  1  0.54612352  0.01041303  0.10116555  1.0
  Ni  Ni553  1  0.54612352  0.34374637  0.10116555  1.0
  Ni  Ni554  1  0.54612352  0.67707970  0.10116555  1.0
  Ni  Ni555  1  0.87945685  0.01041303  0.10116555  1.0
  Ni  Ni556  1  0.87945685  0.34374637  0.10116555  1.0
  Ni  Ni557  1  0.87945685  0.67707970  0.10116555  1.0
  Ni  Ni558  1  0.32806765  0.28610763  0.16582295  1.0
  Ni  Ni559  1  0.32806765  0.61944097  0.16582295  1.0
  Ni  Ni560  1  0.32806765  0.95277430  0.16582295  1.0
  Ni  Ni561  1  0.66140098  0.28610763  0.16582295  1.0
  Ni  Ni562  1  0.66140098  0.61944097  0.16582295  1.0
  Ni  Ni563  1  0.66140098  0.95277430  0.16582295  1.0
  Ni  Ni564  1  0.99473432  0.28610763  0.16582295  1.0
  Ni  Ni565  1  0.99473432  0.61944097  0.16582295  1.0
  Ni  Ni566  1  0.99473432  0.95277430  0.16582295  1.0
  Ni  Ni567  1  0.12806765  0.05277430  0.06582295  1.0
  Ni  Ni568  1  0.12806765  0.38610763  0.06582295  1.0
  Ni  Ni569  1  0.12806765  0.71944097  0.06582295  1.0
  Ni  Ni570  1  0.46140098  0.05277430  0.06582295  1.0
  Ni  Ni571  1  0.46140098  0.38610763  0.06582295  1.0
  Ni  Ni572  1  0.46140098  0.71944097  0.06582295  1.0
  Ni  Ni573  1  0.79473432  0.05277430  0.06582295  1.0
  Ni  Ni574  1  0.79473432  0.38610763  0.06582295  1.0
  Ni  Ni575  1  0.79473432  0.71944097  0.06582295  1.0
  Ni  Ni576  1  0.05250032  0.02016797  0.19470595  1.0
  Ni  Ni577  1  0.05250032  0.35350130  0.19470595  1.0
  Ni  Ni578  1  0.05250032  0.68683463  0.19470595  1.0
  Ni  Ni579  1  0.38583365  0.02016797  0.19470595  1.0
  Ni  Ni580  1  0.38583365  0.35350130  0.19470595  1.0
  Ni  Ni581  1  0.38583365  0.68683463  0.19470595  1.0
  Ni  Ni582  1  0.71916698  0.02016797  0.19470595  1.0
  Ni  Ni583  1  0.71916698  0.35350130  0.19470595  1.0
  Ni  Ni584  1  0.71916698  0.68683463  0.19470595  1.0
  Ni  Ni585  1  0.18583365  0.12016797  0.09470595  1.0
  Ni  Ni586  1  0.18583365  0.45350130  0.09470595  1.0
  Ni  Ni587  1  0.18583365  0.78683463  0.09470595  1.0
  Ni  Ni588  1  0.51916698  0.12016797  0.09470595  1.0
  Ni  Ni589  1  0.51916698  0.45350130  0.09470595  1.0
  Ni  Ni590  1  0.51916698  0.78683463  0.09470595  1.0
  Ni  Ni591  1  0.85250032  0.12016797  0.09470595  1.0
  Ni  Ni592  1  0.85250032  0.45350130  0.09470595  1.0
  Ni  Ni593  1  0.85250032  0.78683463  0.09470595  1.0
  Ni  Ni594  1  0.07055618  0.17780670  0.03004855  1.0
  Ni  Ni595  1  0.07055618  0.51114003  0.03004855  1.0
  Ni  Ni596  1  0.07055618  0.84447337  0.03004855  1.0
  Ni  Ni597  1  0.40388952  0.17780670  0.03004855  1.0
  Ni  Ni598  1  0.40388952  0.51114003  0.03004855  1.0
  Ni  Ni599  1  0.40388952  0.84447337  0.03004855  1.0
  Ni  Ni600  1  0.73722285  0.17780670  0.03004855  1.0
  Ni  Ni601  1  0.73722285  0.51114003  0.03004855  1.0
  Ni  Ni602  1  0.73722285  0.84447337  0.03004855  1.0
  Ni  Ni603  1  0.27055618  0.07780670  0.13004855  1.0
  Ni  Ni604  1  0.27055618  0.41114003  0.13004855  1.0
  Ni  Ni605  1  0.27055618  0.74447337  0.13004855  1.0
  Ni  Ni606  1  0.60388952  0.07780670  0.13004855  1.0
  Ni  Ni607  1  0.60388952  0.41114003  0.13004855  1.0
  Ni  Ni608  1  0.60388952  0.74447337  0.13004855  1.0
  Ni  Ni609  1  0.93722285  0.07780670  0.13004855  1.0
  Ni  Ni610  1  0.93722285  0.41114003  0.13004855  1.0
  Ni  Ni611  1  0.93722285  0.74447337  0.13004855  1.0
  Ni  Ni612  1  0.05390405  0.18613277  0.18838915  1.0
  Ni  Ni613  1  0.05390405  0.51946610  0.18838915  1.0
  Ni  Ni614  1  0.05390405  0.85279943  0.18838915  1.0
  Ni  Ni615  1  0.38723738  0.18613277  0.18838915  1.0
  Ni  Ni616  1  0.38723738  0.51946610  0.18838915  1.0
  Ni  Ni617  1  0.38723738  0.85279943  0.18838915  1.0
  Ni  Ni618  1  0.72057072  0.18613277  0.18838915  1.0
  Ni  Ni619  1  0.72057072  0.51946610  0.18838915  1.0
  Ni  Ni620  1  0.72057072  0.85279943  0.18838915  1.0
  Ni  Ni621  1  0.18723738  0.28613277  0.08838915  1.0
  Ni  Ni622  1  0.18723738  0.61946610  0.08838915  1.0
  Ni  Ni623  1  0.18723738  0.95279943  0.08838915  1.0
  Ni  Ni624  1  0.52057072  0.28613277  0.08838915  1.0
  Ni  Ni625  1  0.52057072  0.61946610  0.08838915  1.0
  Ni  Ni626  1  0.52057072  0.95279943  0.08838915  1.0
  Ni  Ni627  1  0.85390405  0.28613277  0.08838915  1.0
  Ni  Ni628  1  0.85390405  0.61946610  0.08838915  1.0
  Ni  Ni629  1  0.85390405  0.95279943  0.08838915  1.0
  Ni  Ni630  1  0.01138645  0.27778157  0.00748235  1.0
  Ni  Ni631  1  0.01138645  0.61111490  0.00748235  1.0
  Ni  Ni632  1  0.01138645  0.94444823  0.00748235  1.0
  Ni  Ni633  1  0.34471978  0.27778157  0.00748235  1.0
  Ni  Ni634  1  0.34471978  0.61111490  0.00748235  1.0
  Ni  Ni635  1  0.34471978  0.94444823  0.00748235  1.0
  Ni  Ni636  1  0.67805312  0.27778157  0.00748235  1.0
  Ni  Ni637  1  0.67805312  0.61111490  0.00748235  1.0
  Ni  Ni638  1  0.67805312  0.94444823  0.00748235  1.0
  Ni  Ni639  1  0.21138645  0.17778157  0.10748235  1.0
  Ni  Ni640  1  0.21138645  0.51111490  0.10748235  1.0
  Ni  Ni641  1  0.21138645  0.84444823  0.10748235  1.0
  Ni  Ni642  1  0.54471978  0.17778157  0.10748235  1.0
  Ni  Ni643  1  0.54471978  0.51111490  0.10748235  1.0
  Ni  Ni644  1  0.54471978  0.84444823  0.10748235  1.0
  Ni  Ni645  1  0.87805312  0.17778157  0.10748235  1.0
  Ni  Ni646  1  0.87805312  0.51111490  0.10748235  1.0
  Ni  Ni647  1  0.87805312  0.84444823  0.10748235  1.0
  Ni  Ni648  1  0.18583185  0.19043253  0.02163205  1.0
  Ni  Ni649  1  0.18583185  0.52376587  0.02163205  1.0
  Ni  Ni650  1  0.18583185  0.85709920  0.02163205  1.0
  Ni  Ni651  1  0.51916518  0.19043253  0.02163205  1.0
  Ni  Ni652  1  0.51916518  0.52376587  0.02163205  1.0
  Ni  Ni653  1  0.51916518  0.85709920  0.02163205  1.0
  Ni  Ni654  1  0.85249852  0.19043253  0.02163205  1.0
  Ni  Ni655  1  0.85249852  0.52376587  0.02163205  1.0
  Ni  Ni656  1  0.85249852  0.85709920  0.02163205  1.0
  Ni  Ni657  1  0.05249852  0.09043253  0.12163205  1.0
  Ni  Ni658  1  0.05249852  0.42376587  0.12163205  1.0
  Ni  Ni659  1  0.05249852  0.75709920  0.12163205  1.0
  Ni  Ni660  1  0.38583185  0.09043253  0.12163205  1.0
  Ni  Ni661  1  0.38583185  0.42376587  0.12163205  1.0
  Ni  Ni662  1  0.38583185  0.75709920  0.12163205  1.0
  Ni  Ni663  1  0.71916518  0.09043253  0.12163205  1.0
  Ni  Ni664  1  0.71916518  0.42376587  0.12163205  1.0
  Ni  Ni665  1  0.71916518  0.75709920  0.12163205  1.0
  Ni  Ni666  1  0.21279198  0.27348180  0.17423945  1.0
  Ni  Ni667  1  0.21279198  0.60681513  0.17423945  1.0
  Ni  Ni668  1  0.21279198  0.94014847  0.17423945  1.0
  Ni  Ni669  1  0.54612532  0.27348180  0.17423945  1.0
  Ni  Ni670  1  0.54612532  0.60681513  0.17423945  1.0
  Ni  Ni671  1  0.54612532  0.94014847  0.17423945  1.0
  Ni  Ni672  1  0.87945865  0.27348180  0.17423945  1.0
  Ni  Ni673  1  0.87945865  0.60681513  0.17423945  1.0
  Ni  Ni674  1  0.87945865  0.94014847  0.17423945  1.0
  Ni  Ni675  1  0.01279198  0.04014847  0.07423945  1.0
  Ni  Ni676  1  0.01279198  0.37348180  0.07423945  1.0
  Ni  Ni677  1  0.01279198  0.70681513  0.07423945  1.0
  Ni  Ni678  1  0.34612532  0.04014847  0.07423945  1.0
  Ni  Ni679  1  0.34612532  0.37348180  0.07423945  1.0
  Ni  Ni680  1  0.34612532  0.70681513  0.07423945  1.0
  Ni  Ni681  1  0.67945865  0.04014847  0.07423945  1.0
  Ni  Ni682  1  0.67945865  0.37348180  0.07423945  1.0
  Ni  Ni683  1  0.67945865  0.70681513  0.07423945  1.0
  Ni  Ni684  1  0.01592398  0.20524913  0.07580545  1.0
  Ni  Ni685  1  0.01592398  0.53858247  0.07580545  1.0
  Ni  Ni686  1  0.01592398  0.87191580  0.07580545  1.0
  Ni  Ni687  1  0.34925732  0.20524913  0.07580545  1.0
  Ni  Ni688  1  0.34925732  0.53858247  0.07580545  1.0
  Ni  Ni689  1  0.34925732  0.87191580  0.07580545  1.0
  Ni  Ni690  1  0.68259065  0.20524913  0.07580545  1.0
  Ni  Ni691  1  0.68259065  0.53858247  0.07580545  1.0
  Ni  Ni692  1  0.68259065  0.87191580  0.07580545  1.0
  Ni  Ni693  1  0.21592398  0.10524913  0.17580545  1.0
  Ni  Ni694  1  0.21592398  0.43858247  0.17580545  1.0
  Ni  Ni695  1  0.21592398  0.77191580  0.17580545  1.0
  Ni  Ni696  1  0.54925732  0.10524913  0.17580545  1.0
  Ni  Ni697  1  0.54925732  0.43858247  0.17580545  1.0
  Ni  Ni698  1  0.54925732  0.77191580  0.17580545  1.0
  Ni  Ni699  1  0.88259065  0.10524913  0.17580545  1.0
  Ni  Ni700  1  0.88259065  0.43858247  0.17580545  1.0
  Ni  Ni701  1  0.88259065  0.77191580  0.17580545  1.0
  Ni  Ni702  1  0.10728412  0.32623573  0.14902485  1.0
  Ni  Ni703  1  0.10728412  0.65956907  0.14902485  1.0
  Ni  Ni704  1  0.10728412  0.99290240  0.14902485  1.0
  Ni  Ni705  1  0.44061745  0.32623573  0.14902485  1.0
  Ni  Ni706  1  0.44061745  0.65956907  0.14902485  1.0
  Ni  Ni707  1  0.44061745  0.99290240  0.14902485  1.0
  Ni  Ni708  1  0.77395078  0.32623573  0.14902485  1.0
  Ni  Ni709  1  0.77395078  0.65956907  0.14902485  1.0
  Ni  Ni710  1  0.77395078  0.99290240  0.14902485  1.0
  Ni  Ni711  1  0.24061745  0.09290240  0.04902485  1.0
  Ni  Ni712  1  0.24061745  0.42623573  0.04902485  1.0
  Ni  Ni713  1  0.24061745  0.75956907  0.04902485  1.0
  Ni  Ni714  1  0.57395078  0.09290240  0.04902485  1.0
  Ni  Ni715  1  0.57395078  0.42623573  0.04902485  1.0
  Ni  Ni716  1  0.57395078  0.75956907  0.04902485  1.0
  Ni  Ni717  1  0.90728412  0.09290240  0.04902485  1.0
  Ni  Ni718  1  0.90728412  0.42623573  0.04902485  1.0
  Ni  Ni719  1  0.90728412  0.75956907  0.04902485  1.0
  Ni  Ni720  1  0.04936652  0.25866520  0.12006605  1.0
  Ni  Ni721  1  0.04936652  0.59199853  0.12006605  1.0
  Ni  Ni722  1  0.04936652  0.92533187  0.12006605  1.0
  Ni  Ni723  1  0.38269985  0.25866520  0.12006605  1.0
  Ni  Ni724  1  0.38269985  0.59199853  0.12006605  1.0
  Ni  Ni725  1  0.38269985  0.92533187  0.12006605  1.0
  Ni  Ni726  1  0.71603318  0.25866520  0.12006605  1.0
  Ni  Ni727  1  0.71603318  0.59199853  0.12006605  1.0
  Ni  Ni728  1  0.71603318  0.92533187  0.12006605  1.0
  Ni  Ni729  1  0.18269985  0.02533187  0.02006605  1.0
  Ni  Ni730  1  0.18269985  0.35866520  0.02006605  1.0
  Ni  Ni731  1  0.18269985  0.69199853  0.02006605  1.0
  Ni  Ni732  1  0.51603318  0.02533187  0.02006605  1.0
  Ni  Ni733  1  0.51603318  0.35866520  0.02006605  1.0
  Ni  Ni734  1  0.51603318  0.69199853  0.02006605  1.0
  Ni  Ni735  1  0.84936652  0.02533187  0.02006605  1.0
  Ni  Ni736  1  0.84936652  0.35866520  0.02006605  1.0
  Ni  Ni737  1  0.84936652  0.69199853  0.02006605  1.0
  Ni  Ni738  1  0.29133972  0.13767860  0.04684665  1.0
  Ni  Ni739  1  0.29133972  0.47101193  0.04684665  1.0
  Ni  Ni740  1  0.29133972  0.80434527  0.04684665  1.0
  Ni  Ni741  1  0.62467305  0.13767860  0.04684665  1.0
  Ni  Ni742  1  0.62467305  0.47101193  0.04684665  1.0
  Ni  Ni743  1  0.62467305  0.80434527  0.04684665  1.0
  Ni  Ni744  1  0.95800638  0.13767860  0.04684665  1.0
  Ni  Ni745  1  0.95800638  0.47101193  0.04684665  1.0
  Ni  Ni746  1  0.95800638  0.80434527  0.04684665  1.0
  Ni  Ni747  1  0.15800638  0.03767860  0.14684665  1.0
  Ni  Ni748  1  0.15800638  0.37101193  0.14684665  1.0
  Ni  Ni749  1  0.15800638  0.70434527  0.14684665  1.0
  Ni  Ni750  1  0.49133972  0.03767860  0.14684665  1.0
  Ni  Ni751  1  0.49133972  0.37101193  0.14684665  1.0
  Ni  Ni752  1  0.49133972  0.70434527  0.14684665  1.0
  Ni  Ni753  1  0.82467305  0.03767860  0.14684665  1.0
  Ni  Ni754  1  0.82467305  0.37101193  0.14684665  1.0
  Ni  Ni755  1  0.82467305  0.70434527  0.14684665  1.0
  Ni  Ni756  1  0.15487438  0.20591127  0.14528065  1.0
  Ni  Ni757  1  0.15487438  0.53924460  0.14528065  1.0
  Ni  Ni758  1  0.15487438  0.87257793  0.14528065  1.0
  Ni  Ni759  1  0.48820772  0.20591127  0.14528065  1.0
  Ni  Ni760  1  0.48820772  0.53924460  0.14528065  1.0
  Ni  Ni761  1  0.48820772  0.87257793  0.14528065  1.0
  Ni  Ni762  1  0.82154105  0.20591127  0.14528065  1.0
  Ni  Ni763  1  0.82154105  0.53924460  0.14528065  1.0
  Ni  Ni764  1  0.82154105  0.87257793  0.14528065  1.0
  Ni  Ni765  1  0.28820772  0.30591127  0.04528065  1.0
  Ni  Ni766  1  0.28820772  0.63924460  0.04528065  1.0
  Ni  Ni767  1  0.28820772  0.97257793  0.04528065  1.0
  Ni  Ni768  1  0.62154105  0.30591127  0.04528065  1.0
  Ni  Ni769  1  0.62154105  0.63924460  0.04528065  1.0
  Ni  Ni770  1  0.62154105  0.97257793  0.04528065  1.0
  Ni  Ni771  1  0.95487438  0.30591127  0.04528065  1.0
  Ni  Ni772  1  0.95487438  0.63924460  0.04528065  1.0
  Ni  Ni773  1  0.95487438  0.97257793  0.04528065  1.0
  Ni  Ni774  1  0.24374945  0.25800307  0.05059085  1.0
  Ni  Ni775  1  0.24374945  0.59133640  0.05059085  1.0
  Ni  Ni776  1  0.24374945  0.92466973  0.05059085  1.0
  Ni  Ni777  1  0.57708278  0.25800307  0.05059085  1.0
  Ni  Ni778  1  0.57708278  0.59133640  0.05059085  1.0
  Ni  Ni779  1  0.57708278  0.92466973  0.05059085  1.0
  Ni  Ni780  1  0.91041612  0.25800307  0.05059085  1.0
  Ni  Ni781  1  0.91041612  0.59133640  0.05059085  1.0
  Ni  Ni782  1  0.91041612  0.92466973  0.05059085  1.0
  Ni  Ni783  1  0.11041612  0.15800307  0.15059085  1.0
  Ni  Ni784  1  0.11041612  0.49133640  0.15059085  1.0
  Ni  Ni785  1  0.11041612  0.82466973  0.15059085  1.0
  Ni  Ni786  1  0.44374945  0.15800307  0.15059085  1.0
  Ni  Ni787  1  0.44374945  0.49133640  0.15059085  1.0
  Ni  Ni788  1  0.44374945  0.82466973  0.15059085  1.0
  Ni  Ni789  1  0.77708278  0.15800307  0.15059085  1.0
  Ni  Ni790  1  0.77708278  0.49133640  0.15059085  1.0
  Ni  Ni791  1  0.77708278  0.82466973  0.15059085  1.0
  Ni  Ni792  1  0.07115172  0.29603727  0.06955765  1.0
  Ni  Ni793  1  0.07115172  0.62937060  0.06955765  1.0
  Ni  Ni794  1  0.07115172  0.96270393  0.06955765  1.0
  Ni  Ni795  1  0.40448505  0.29603727  0.06955765  1.0
  Ni  Ni796  1  0.40448505  0.62937060  0.06955765  1.0
  Ni  Ni797  1  0.40448505  0.96270393  0.06955765  1.0
  Ni  Ni798  1  0.73781838  0.29603727  0.06955765  1.0
  Ni  Ni799  1  0.73781838  0.62937060  0.06955765  1.0
  Ni  Ni800  1  0.73781838  0.96270393  0.06955765  1.0
  Ni  Ni801  1  0.27115172  0.19603727  0.16955765  1.0
  Ni  Ni802  1  0.27115172  0.52937060  0.16955765  1.0
  Ni  Ni803  1  0.27115172  0.86270393  0.16955765  1.0
  Ni  Ni804  1  0.60448505  0.19603727  0.16955765  1.0
  Ni  Ni805  1  0.60448505  0.52937060  0.16955765  1.0
  Ni  Ni806  1  0.60448505  0.86270393  0.16955765  1.0
  Ni  Ni807  1  0.93781838  0.19603727  0.16955765  1.0
  Ni  Ni808  1  0.93781838  0.52937060  0.16955765  1.0
  Ni  Ni809  1  0.93781838  0.86270393  0.16955765  1.0
  Ni  Ni810  1  0.32747212  0.16787707  0.12631385  1.0
  Ni  Ni811  1  0.32747212  0.50121040  0.12631385  1.0
  Ni  Ni812  1  0.32747212  0.83454373  0.12631385  1.0
  Ni  Ni813  1  0.66080545  0.16787707  0.12631385  1.0
  Ni  Ni814  1  0.66080545  0.50121040  0.12631385  1.0
  Ni  Ni815  1  0.66080545  0.83454373  0.12631385  1.0
  Ni  Ni816  1  0.99413878  0.16787707  0.12631385  1.0
  Ni  Ni817  1  0.99413878  0.50121040  0.12631385  1.0
  Ni  Ni818  1  0.99413878  0.83454373  0.12631385  1.0
  Ni  Ni819  1  0.12747212  0.26787707  0.02631385  1.0
  Ni  Ni820  1  0.12747212  0.60121040  0.02631385  1.0
  Ni  Ni821  1  0.12747212  0.93454373  0.02631385  1.0
  Ni  Ni822  1  0.46080545  0.26787707  0.02631385  1.0
  Ni  Ni823  1  0.46080545  0.60121040  0.02631385  1.0
  Ni  Ni824  1  0.46080545  0.93454373  0.02631385  1.0
  Ni  Ni825  1  0.79413878  0.26787707  0.02631385  1.0
  Ni  Ni826  1  0.79413878  0.60121040  0.02631385  1.0
  Ni  Ni827  1  0.79413878  0.93454373  0.02631385  1.0
  Ni  Ni828  1  0.08543252  0.12223020  0.00529405  1.0
  Ni  Ni829  1  0.08543252  0.45556353  0.00529405  1.0
  Ni  Ni830  1  0.08543252  0.78889687  0.00529405  1.0
  Ni  Ni831  1  0.41876585  0.12223020  0.00529405  1.0
  Ni  Ni832  1  0.41876585  0.45556353  0.00529405  1.0
  Ni  Ni833  1  0.41876585  0.78889687  0.00529405  1.0
  Ni  Ni834  1  0.75209918  0.12223020  0.00529405  1.0
  Ni  Ni835  1  0.75209918  0.45556353  0.00529405  1.0
  Ni  Ni836  1  0.75209918  0.78889687  0.00529405  1.0
  Ni  Ni837  1  0.28543252  0.02223020  0.10529405  1.0
  Ni  Ni838  1  0.28543252  0.35556353  0.10529405  1.0
  Ni  Ni839  1  0.28543252  0.68889687  0.10529405  1.0
  Ni  Ni840  1  0.61876585  0.02223020  0.10529405  1.0
  Ni  Ni841  1  0.61876585  0.35556353  0.10529405  1.0
  Ni  Ni842  1  0.61876585  0.68889687  0.10529405  1.0
  Ni  Ni843  1  0.95209918  0.02223020  0.10529405  1.0
  Ni  Ni844  1  0.95209918  0.35556353  0.10529405  1.0
  Ni  Ni845  1  0.95209918  0.68889687  0.10529405  1.0
  Ni  Ni846  1  0.31319132  0.00835080  0.19057745  1.0
  Ni  Ni847  1  0.31319132  0.34168413  0.19057745  1.0
  Ni  Ni848  1  0.31319132  0.67501747  0.19057745  1.0
  Ni  Ni849  1  0.64652465  0.00835080  0.19057745  1.0
  Ni  Ni850  1  0.64652465  0.34168413  0.19057745  1.0
  Ni  Ni851  1  0.64652465  0.67501747  0.19057745  1.0
  Ni  Ni852  1  0.97985798  0.00835080  0.19057745  1.0
  Ni  Ni853  1  0.97985798  0.34168413  0.19057745  1.0
  Ni  Ni854  1  0.97985798  0.67501747  0.19057745  1.0
  Ni  Ni855  1  0.11319132  0.10835080  0.09057745  1.0
  Ni  Ni856  1  0.11319132  0.44168413  0.09057745  1.0
  Ni  Ni857  1  0.11319132  0.77501747  0.09057745  1.0
  Ni  Ni858  1  0.44652465  0.10835080  0.09057745  1.0
  Ni  Ni859  1  0.44652465  0.44168413  0.09057745  1.0
  Ni  Ni860  1  0.44652465  0.77501747  0.09057745  1.0
  Ni  Ni861  1  0.77985798  0.10835080  0.09057745  1.0
  Ni  Ni862  1  0.77985798  0.44168413  0.09057745  1.0
  Ni  Ni863  1  0.77985798  0.77501747  0.09057745  1.0
  Ni  Ni864  1  0.00248578  0.04517523  0.33636535  1.0
  Ni  Ni865  1  0.00248578  0.37850857  0.33636535  1.0
  Ni  Ni866  1  0.00248578  0.71184190  0.33636535  1.0
  Ni  Ni867  1  0.33581912  0.04517523  0.33636535  1.0
  Ni  Ni868  1  0.33581912  0.37850857  0.33636535  1.0
  Ni  Ni869  1  0.33581912  0.71184190  0.33636535  1.0
  Ni  Ni870  1  0.66915245  0.04517523  0.33636535  1.0
  Ni  Ni871  1  0.66915245  0.37850857  0.33636535  1.0
  Ni  Ni872  1  0.66915245  0.71184190  0.33636535  1.0
  Ni  Ni873  1  0.13581912  0.14517523  0.23636535  1.0
  Ni  Ni874  1  0.13581912  0.47850857  0.23636535  1.0
  Ni  Ni875  1  0.13581912  0.81184190  0.23636535  1.0
  Ni  Ni876  1  0.46915245  0.14517523  0.23636535  1.0
  Ni  Ni877  1  0.46915245  0.47850857  0.23636535  1.0
  Ni  Ni878  1  0.46915245  0.81184190  0.23636535  1.0
  Ni  Ni879  1  0.80248578  0.14517523  0.23636535  1.0
  Ni  Ni880  1  0.80248578  0.47850857  0.23636535  1.0
  Ni  Ni881  1  0.80248578  0.81184190  0.23636535  1.0
  Ni  Ni882  1  0.19613805  0.01873910  0.25950615  1.0
  Ni  Ni883  1  0.19613805  0.35207243  0.25950615  1.0
  Ni  Ni884  1  0.19613805  0.68540577  0.25950615  1.0
  Ni  Ni885  1  0.52947138  0.01873910  0.25950615  1.0
  Ni  Ni886  1  0.52947138  0.35207243  0.25950615  1.0
  Ni  Ni887  1  0.52947138  0.68540577  0.25950615  1.0
  Ni  Ni888  1  0.86280472  0.01873910  0.25950615  1.0
  Ni  Ni889  1  0.86280472  0.35207243  0.25950615  1.0
  Ni  Ni890  1  0.86280472  0.68540577  0.25950615  1.0
  Ni  Ni891  1  0.06280472  0.25207243  0.35950615  1.0
  Ni  Ni892  1  0.06280472  0.58540577  0.35950615  1.0
  Ni  Ni893  1  0.06280472  0.91873910  0.35950615  1.0
  Ni  Ni894  1  0.39613805  0.25207243  0.35950615  1.0
  Ni  Ni895  1  0.39613805  0.58540577  0.35950615  1.0
  Ni  Ni896  1  0.39613805  0.91873910  0.35950615  1.0
  Ni  Ni897  1  0.72947138  0.25207243  0.35950615  1.0
  Ni  Ni898  1  0.72947138  0.58540577  0.35950615  1.0
  Ni  Ni899  1  0.72947138  0.91873910  0.35950615  1.0
  Ni  Ni900  1  0.07945685  0.24374637  0.20116555  1.0
  Ni  Ni901  1  0.07945685  0.57707970  0.20116555  1.0
  Ni  Ni902  1  0.07945685  0.91041303  0.20116555  1.0
  Ni  Ni903  1  0.41279018  0.24374637  0.20116555  1.0
  Ni  Ni904  1  0.41279018  0.57707970  0.20116555  1.0
  Ni  Ni905  1  0.41279018  0.91041303  0.20116555  1.0
  Ni  Ni906  1  0.74612352  0.24374637  0.20116555  1.0
  Ni  Ni907  1  0.74612352  0.57707970  0.20116555  1.0
  Ni  Ni908  1  0.74612352  0.91041303  0.20116555  1.0
  Ni  Ni909  1  0.27945685  0.14374637  0.30116555  1.0
  Ni  Ni910  1  0.27945685  0.47707970  0.30116555  1.0
  Ni  Ni911  1  0.27945685  0.81041303  0.30116555  1.0
  Ni  Ni912  1  0.61279018  0.14374637  0.30116555  1.0
  Ni  Ni913  1  0.61279018  0.47707970  0.30116555  1.0
  Ni  Ni914  1  0.61279018  0.81041303  0.30116555  1.0
  Ni  Ni915  1  0.94612352  0.14374637  0.30116555  1.0
  Ni  Ni916  1  0.94612352  0.47707970  0.30116555  1.0
  Ni  Ni917  1  0.94612352  0.81041303  0.30116555  1.0
  Ni  Ni918  1  0.06140098  0.08610763  0.36582295  1.0
  Ni  Ni919  1  0.06140098  0.41944097  0.36582295  1.0
  Ni  Ni920  1  0.06140098  0.75277430  0.36582295  1.0
  Ni  Ni921  1  0.39473432  0.08610763  0.36582295  1.0
  Ni  Ni922  1  0.39473432  0.41944097  0.36582295  1.0
  Ni  Ni923  1  0.39473432  0.75277430  0.36582295  1.0
  Ni  Ni924  1  0.72806765  0.08610763  0.36582295  1.0
  Ni  Ni925  1  0.72806765  0.41944097  0.36582295  1.0
  Ni  Ni926  1  0.72806765  0.75277430  0.36582295  1.0
  Ni  Ni927  1  0.19473432  0.18610763  0.26582295  1.0
  Ni  Ni928  1  0.19473432  0.51944097  0.26582295  1.0
  Ni  Ni929  1  0.19473432  0.85277430  0.26582295  1.0
  Ni  Ni930  1  0.52806765  0.18610763  0.26582295  1.0
  Ni  Ni931  1  0.52806765  0.51944097  0.26582295  1.0
  Ni  Ni932  1  0.52806765  0.85277430  0.26582295  1.0
  Ni  Ni933  1  0.86140098  0.18610763  0.26582295  1.0
  Ni  Ni934  1  0.86140098  0.51944097  0.26582295  1.0
  Ni  Ni935  1  0.86140098  0.85277430  0.26582295  1.0
  Ni  Ni936  1  0.11916698  0.15350130  0.39470595  1.0
  Ni  Ni937  1  0.11916698  0.48683463  0.39470595  1.0
  Ni  Ni938  1  0.11916698  0.82016797  0.39470595  1.0
  Ni  Ni939  1  0.45250032  0.15350130  0.39470595  1.0
  Ni  Ni940  1  0.45250032  0.48683463  0.39470595  1.0
  Ni  Ni941  1  0.45250032  0.82016797  0.39470595  1.0
  Ni  Ni942  1  0.78583365  0.15350130  0.39470595  1.0
  Ni  Ni943  1  0.78583365  0.48683463  0.39470595  1.0
  Ni  Ni944  1  0.78583365  0.82016797  0.39470595  1.0
  Ni  Ni945  1  0.25250032  0.25350130  0.29470595  1.0
  Ni  Ni946  1  0.25250032  0.58683463  0.29470595  1.0
  Ni  Ni947  1  0.25250032  0.92016797  0.29470595  1.0
  Ni  Ni948  1  0.58583365  0.25350130  0.29470595  1.0
  Ni  Ni949  1  0.58583365  0.58683463  0.29470595  1.0
  Ni  Ni950  1  0.58583365  0.92016797  0.29470595  1.0
  Ni  Ni951  1  0.91916698  0.25350130  0.29470595  1.0
  Ni  Ni952  1  0.91916698  0.58683463  0.29470595  1.0
  Ni  Ni953  1  0.91916698  0.92016797  0.29470595  1.0
  Ni  Ni954  1  0.13722285  0.31114003  0.23004855  1.0
  Ni  Ni955  1  0.13722285  0.64447337  0.23004855  1.0
  Ni  Ni956  1  0.13722285  0.97780670  0.23004855  1.0
  Ni  Ni957  1  0.47055618  0.31114003  0.23004855  1.0
  Ni  Ni958  1  0.47055618  0.64447337  0.23004855  1.0
  Ni  Ni959  1  0.47055618  0.97780670  0.23004855  1.0
  Ni  Ni960  1  0.80388952  0.31114003  0.23004855  1.0
  Ni  Ni961  1  0.80388952  0.64447337  0.23004855  1.0
  Ni  Ni962  1  0.80388952  0.97780670  0.23004855  1.0
  Ni  Ni963  1  0.00388952  0.21114003  0.33004855  1.0
  Ni  Ni964  1  0.00388952  0.54447337  0.33004855  1.0
  Ni  Ni965  1  0.00388952  0.87780670  0.33004855  1.0
  Ni  Ni966  1  0.33722285  0.21114003  0.33004855  1.0
  Ni  Ni967  1  0.33722285  0.54447337  0.33004855  1.0
  Ni  Ni968  1  0.33722285  0.87780670  0.33004855  1.0
  Ni  Ni969  1  0.67055618  0.21114003  0.33004855  1.0
  Ni  Ni970  1  0.67055618  0.54447337  0.33004855  1.0
  Ni  Ni971  1  0.67055618  0.87780670  0.33004855  1.0
  Ni  Ni972  1  0.12057072  0.31946610  0.38838915  1.0
  Ni  Ni973  1  0.12057072  0.65279943  0.38838915  1.0
  Ni  Ni974  1  0.12057072  0.98613277  0.38838915  1.0
  Ni  Ni975  1  0.45390405  0.31946610  0.38838915  1.0
  Ni  Ni976  1  0.45390405  0.65279943  0.38838915  1.0
  Ni  Ni977  1  0.45390405  0.98613277  0.38838915  1.0
  Ni  Ni978  1  0.78723738  0.31946610  0.38838915  1.0
  Ni  Ni979  1  0.78723738  0.65279943  0.38838915  1.0
  Ni  Ni980  1  0.78723738  0.98613277  0.38838915  1.0
  Ni  Ni981  1  0.25390405  0.08613277  0.28838915  1.0
  Ni  Ni982  1  0.25390405  0.41946610  0.28838915  1.0
  Ni  Ni983  1  0.25390405  0.75279943  0.28838915  1.0
  Ni  Ni984  1  0.58723738  0.08613277  0.28838915  1.0
  Ni  Ni985  1  0.58723738  0.41946610  0.28838915  1.0
  Ni  Ni986  1  0.58723738  0.75279943  0.28838915  1.0
  Ni  Ni987  1  0.92057072  0.08613277  0.28838915  1.0
  Ni  Ni988  1  0.92057072  0.41946610  0.28838915  1.0
  Ni  Ni989  1  0.92057072  0.75279943  0.28838915  1.0
  Ni  Ni990  1  0.07805312  0.07778157  0.20748235  1.0
  Ni  Ni991  1  0.07805312  0.41111490  0.20748235  1.0
  Ni  Ni992  1  0.07805312  0.74444823  0.20748235  1.0
  Ni  Ni993  1  0.41138645  0.07778157  0.20748235  1.0
  Ni  Ni994  1  0.41138645  0.41111490  0.20748235  1.0
  Ni  Ni995  1  0.41138645  0.74444823  0.20748235  1.0
  Ni  Ni996  1  0.74471978  0.07778157  0.20748235  1.0
  Ni  Ni997  1  0.74471978  0.41111490  0.20748235  1.0
  Ni  Ni998  1  0.74471978  0.74444823  0.20748235  1.0
  Ni  Ni999  1  0.27805312  0.31111490  0.30748235  1.0
  Ni  Ni1000  1  0.27805312  0.64444823  0.30748235  1.0
  Ni  Ni1001  1  0.27805312  0.97778157  0.30748235  1.0
  Ni  Ni1002  1  0.61138645  0.31111490  0.30748235  1.0
  Ni  Ni1003  1  0.61138645  0.64444823  0.30748235  1.0
  Ni  Ni1004  1  0.61138645  0.97778157  0.30748235  1.0
  Ni  Ni1005  1  0.94471978  0.31111490  0.30748235  1.0
  Ni  Ni1006  1  0.94471978  0.64444823  0.30748235  1.0
  Ni  Ni1007  1  0.94471978  0.97778157  0.30748235  1.0
  Ni  Ni1008  1  0.25249852  0.32376587  0.22163205  1.0
  Ni  Ni1009  1  0.25249852  0.65709920  0.22163205  1.0
  Ni  Ni1010  1  0.25249852  0.99043253  0.22163205  1.0
  Ni  Ni1011  1  0.58583185  0.32376587  0.22163205  1.0
  Ni  Ni1012  1  0.58583185  0.65709920  0.22163205  1.0
  Ni  Ni1013  1  0.58583185  0.99043253  0.22163205  1.0
  Ni  Ni1014  1  0.91916518  0.32376587  0.22163205  1.0
  Ni  Ni1015  1  0.91916518  0.65709920  0.22163205  1.0
  Ni  Ni1016  1  0.91916518  0.99043253  0.22163205  1.0
  Ni  Ni1017  1  0.11916518  0.22376587  0.32163205  1.0
  Ni  Ni1018  1  0.11916518  0.55709920  0.32163205  1.0
  Ni  Ni1019  1  0.11916518  0.89043253  0.32163205  1.0
  Ni  Ni1020  1  0.45249852  0.22376587  0.32163205  1.0
  Ni  Ni1021  1  0.45249852  0.55709920  0.32163205  1.0
  Ni  Ni1022  1  0.45249852  0.89043253  0.32163205  1.0
  Ni  Ni1023  1  0.78583185  0.22376587  0.32163205  1.0
  Ni  Ni1024  1  0.78583185  0.55709920  0.32163205  1.0
  Ni  Ni1025  1  0.78583185  0.89043253  0.32163205  1.0
  Ni  Ni1026  1  0.27945865  0.07348180  0.37423945  1.0
  Ni  Ni1027  1  0.27945865  0.40681513  0.37423945  1.0
  Ni  Ni1028  1  0.27945865  0.74014847  0.37423945  1.0
  Ni  Ni1029  1  0.61279198  0.07348180  0.37423945  1.0
  Ni  Ni1030  1  0.61279198  0.40681513  0.37423945  1.0
  Ni  Ni1031  1  0.61279198  0.74014847  0.37423945  1.0
  Ni  Ni1032  1  0.94612532  0.07348180  0.37423945  1.0
  Ni  Ni1033  1  0.94612532  0.40681513  0.37423945  1.0
  Ni  Ni1034  1  0.94612532  0.74014847  0.37423945  1.0
  Ni  Ni1035  1  0.07945865  0.17348180  0.27423945  1.0
  Ni  Ni1036  1  0.07945865  0.50681513  0.27423945  1.0
  Ni  Ni1037  1  0.07945865  0.84014847  0.27423945  1.0
  Ni  Ni1038  1  0.41279198  0.17348180  0.27423945  1.0
  Ni  Ni1039  1  0.41279198  0.50681513  0.27423945  1.0
  Ni  Ni1040  1  0.41279198  0.84014847  0.27423945  1.0
  Ni  Ni1041  1  0.74612532  0.17348180  0.27423945  1.0
  Ni  Ni1042  1  0.74612532  0.50681513  0.27423945  1.0
  Ni  Ni1043  1  0.74612532  0.84014847  0.27423945  1.0
  Ni  Ni1044  1  0.08259065  0.00524913  0.27580545  1.0
  Ni  Ni1045  1  0.08259065  0.33858247  0.27580545  1.0
  Ni  Ni1046  1  0.08259065  0.67191580  0.27580545  1.0
  Ni  Ni1047  1  0.41592398  0.00524913  0.27580545  1.0
  Ni  Ni1048  1  0.41592398  0.33858247  0.27580545  1.0
  Ni  Ni1049  1  0.41592398  0.67191580  0.27580545  1.0
  Ni  Ni1050  1  0.74925732  0.00524913  0.27580545  1.0
  Ni  Ni1051  1  0.74925732  0.33858247  0.27580545  1.0
  Ni  Ni1052  1  0.74925732  0.67191580  0.27580545  1.0
  Ni  Ni1053  1  0.28259065  0.23858247  0.37580545  1.0
  Ni  Ni1054  1  0.28259065  0.57191580  0.37580545  1.0
  Ni  Ni1055  1  0.28259065  0.90524913  0.37580545  1.0
  Ni  Ni1056  1  0.61592398  0.23858247  0.37580545  1.0
  Ni  Ni1057  1  0.61592398  0.57191580  0.37580545  1.0
  Ni  Ni1058  1  0.61592398  0.90524913  0.37580545  1.0
  Ni  Ni1059  1  0.94925732  0.23858247  0.37580545  1.0
  Ni  Ni1060  1  0.94925732  0.57191580  0.37580545  1.0
  Ni  Ni1061  1  0.94925732  0.90524913  0.37580545  1.0
  Ni  Ni1062  1  0.17395078  0.12623573  0.34902485  1.0
  Ni  Ni1063  1  0.17395078  0.45956907  0.34902485  1.0
  Ni  Ni1064  1  0.17395078  0.79290240  0.34902485  1.0
  Ni  Ni1065  1  0.50728412  0.12623573  0.34902485  1.0
  Ni  Ni1066  1  0.50728412  0.45956907  0.34902485  1.0
  Ni  Ni1067  1  0.50728412  0.79290240  0.34902485  1.0
  Ni  Ni1068  1  0.84061745  0.12623573  0.34902485  1.0
  Ni  Ni1069  1  0.84061745  0.45956907  0.34902485  1.0
  Ni  Ni1070  1  0.84061745  0.79290240  0.34902485  1.0
  Ni  Ni1071  1  0.30728412  0.22623573  0.24902485  1.0
  Ni  Ni1072  1  0.30728412  0.55956907  0.24902485  1.0
  Ni  Ni1073  1  0.30728412  0.89290240  0.24902485  1.0
  Ni  Ni1074  1  0.64061745  0.22623573  0.24902485  1.0
  Ni  Ni1075  1  0.64061745  0.55956907  0.24902485  1.0
  Ni  Ni1076  1  0.64061745  0.89290240  0.24902485  1.0
  Ni  Ni1077  1  0.97395078  0.22623573  0.24902485  1.0
  Ni  Ni1078  1  0.97395078  0.55956907  0.24902485  1.0
  Ni  Ni1079  1  0.97395078  0.89290240  0.24902485  1.0
  Ni  Ni1080  1  0.11603318  0.05866520  0.32006605  1.0
  Ni  Ni1081  1  0.11603318  0.39199853  0.32006605  1.0
  Ni  Ni1082  1  0.11603318  0.72533187  0.32006605  1.0
  Ni  Ni1083  1  0.44936652  0.05866520  0.32006605  1.0
  Ni  Ni1084  1  0.44936652  0.39199853  0.32006605  1.0
  Ni  Ni1085  1  0.44936652  0.72533187  0.32006605  1.0
  Ni  Ni1086  1  0.78269985  0.05866520  0.32006605  1.0
  Ni  Ni1087  1  0.78269985  0.39199853  0.32006605  1.0
  Ni  Ni1088  1  0.78269985  0.72533187  0.32006605  1.0
  Ni  Ni1089  1  0.24936652  0.15866520  0.22006605  1.0
  Ni  Ni1090  1  0.24936652  0.49199853  0.22006605  1.0
  Ni  Ni1091  1  0.24936652  0.82533187  0.22006605  1.0
  Ni  Ni1092  1  0.58269985  0.15866520  0.22006605  1.0
  Ni  Ni1093  1  0.58269985  0.49199853  0.22006605  1.0
  Ni  Ni1094  1  0.58269985  0.82533187  0.22006605  1.0
  Ni  Ni1095  1  0.91603318  0.15866520  0.22006605  1.0
  Ni  Ni1096  1  0.91603318  0.49199853  0.22006605  1.0
  Ni  Ni1097  1  0.91603318  0.82533187  0.22006605  1.0
  Ni  Ni1098  1  0.02467305  0.27101193  0.24684665  1.0
  Ni  Ni1099  1  0.02467305  0.60434527  0.24684665  1.0
  Ni  Ni1100  1  0.02467305  0.93767860  0.24684665  1.0
  Ni  Ni1101  1  0.35800638  0.27101193  0.24684665  1.0
  Ni  Ni1102  1  0.35800638  0.60434527  0.24684665  1.0
  Ni  Ni1103  1  0.35800638  0.93767860  0.24684665  1.0
  Ni  Ni1104  1  0.69133972  0.27101193  0.24684665  1.0
  Ni  Ni1105  1  0.69133972  0.60434527  0.24684665  1.0
  Ni  Ni1106  1  0.69133972  0.93767860  0.24684665  1.0
  Ni  Ni1107  1  0.22467305  0.17101193  0.34684665  1.0
  Ni  Ni1108  1  0.22467305  0.50434527  0.34684665  1.0
  Ni  Ni1109  1  0.22467305  0.83767860  0.34684665  1.0
  Ni  Ni1110  1  0.55800638  0.17101193  0.34684665  1.0
  Ni  Ni1111  1  0.55800638  0.50434527  0.34684665  1.0
  Ni  Ni1112  1  0.55800638  0.83767860  0.34684665  1.0
  Ni  Ni1113  1  0.89133972  0.17101193  0.34684665  1.0
  Ni  Ni1114  1  0.89133972  0.50434527  0.34684665  1.0
  Ni  Ni1115  1  0.89133972  0.83767860  0.34684665  1.0
  Ni  Ni1116  1  0.22154105  0.00591127  0.34528065  1.0
  Ni  Ni1117  1  0.22154105  0.33924460  0.34528065  1.0
  Ni  Ni1118  1  0.22154105  0.67257793  0.34528065  1.0
  Ni  Ni1119  1  0.55487438  0.00591127  0.34528065  1.0
  Ni  Ni1120  1  0.55487438  0.33924460  0.34528065  1.0
  Ni  Ni1121  1  0.55487438  0.67257793  0.34528065  1.0
  Ni  Ni1122  1  0.88820772  0.00591127  0.34528065  1.0
  Ni  Ni1123  1  0.88820772  0.33924460  0.34528065  1.0
  Ni  Ni1124  1  0.88820772  0.67257793  0.34528065  1.0
  Ni  Ni1125  1  0.02154105  0.10591127  0.24528065  1.0
  Ni  Ni1126  1  0.02154105  0.43924460  0.24528065  1.0
  Ni  Ni1127  1  0.02154105  0.77257793  0.24528065  1.0
  Ni  Ni1128  1  0.35487438  0.10591127  0.24528065  1.0
  Ni  Ni1129  1  0.35487438  0.43924460  0.24528065  1.0
  Ni  Ni1130  1  0.35487438  0.77257793  0.24528065  1.0
  Ni  Ni1131  1  0.68820772  0.10591127  0.24528065  1.0
  Ni  Ni1132  1  0.68820772  0.43924460  0.24528065  1.0
  Ni  Ni1133  1  0.68820772  0.77257793  0.24528065  1.0
  Ni  Ni1134  1  0.31041612  0.05800307  0.25059085  1.0
  Ni  Ni1135  1  0.31041612  0.39133640  0.25059085  1.0
  Ni  Ni1136  1  0.31041612  0.72466973  0.25059085  1.0
  Ni  Ni1137  1  0.64374945  0.05800307  0.25059085  1.0
  Ni  Ni1138  1  0.64374945  0.39133640  0.25059085  1.0
  Ni  Ni1139  1  0.64374945  0.72466973  0.25059085  1.0
  Ni  Ni1140  1  0.97708278  0.05800307  0.25059085  1.0
  Ni  Ni1141  1  0.97708278  0.39133640  0.25059085  1.0
  Ni  Ni1142  1  0.97708278  0.72466973  0.25059085  1.0
  Ni  Ni1143  1  0.17708278  0.29133640  0.35059085  1.0
  Ni  Ni1144  1  0.17708278  0.62466973  0.35059085  1.0
  Ni  Ni1145  1  0.17708278  0.95800307  0.35059085  1.0
  Ni  Ni1146  1  0.51041612  0.29133640  0.35059085  1.0
  Ni  Ni1147  1  0.51041612  0.62466973  0.35059085  1.0
  Ni  Ni1148  1  0.51041612  0.95800307  0.35059085  1.0
  Ni  Ni1149  1  0.84374945  0.29133640  0.35059085  1.0
  Ni  Ni1150  1  0.84374945  0.62466973  0.35059085  1.0
  Ni  Ni1151  1  0.84374945  0.95800307  0.35059085  1.0
  Ni  Ni1152  1  0.13781838  0.09603727  0.26955765  1.0
  Ni  Ni1153  1  0.13781838  0.42937060  0.26955765  1.0
  Ni  Ni1154  1  0.13781838  0.76270393  0.26955765  1.0
  Ni  Ni1155  1  0.47115172  0.09603727  0.26955765  1.0
  Ni  Ni1156  1  0.47115172  0.42937060  0.26955765  1.0
  Ni  Ni1157  1  0.47115172  0.76270393  0.26955765  1.0
  Ni  Ni1158  1  0.80448505  0.09603727  0.26955765  1.0
  Ni  Ni1159  1  0.80448505  0.42937060  0.26955765  1.0
  Ni  Ni1160  1  0.80448505  0.76270393  0.26955765  1.0
  Ni  Ni1161  1  0.00448505  0.32937060  0.36955765  1.0
  Ni  Ni1162  1  0.00448505  0.66270393  0.36955765  1.0
  Ni  Ni1163  1  0.00448505  0.99603727  0.36955765  1.0
  Ni  Ni1164  1  0.33781838  0.32937060  0.36955765  1.0
  Ni  Ni1165  1  0.33781838  0.66270393  0.36955765  1.0
  Ni  Ni1166  1  0.33781838  0.99603727  0.36955765  1.0
  Ni  Ni1167  1  0.67115172  0.32937060  0.36955765  1.0
  Ni  Ni1168  1  0.67115172  0.66270393  0.36955765  1.0
  Ni  Ni1169  1  0.67115172  0.99603727  0.36955765  1.0
  Ni  Ni1170  1  0.06080545  0.30121040  0.32631385  1.0
  Ni  Ni1171  1  0.06080545  0.63454373  0.32631385  1.0
  Ni  Ni1172  1  0.06080545  0.96787707  0.32631385  1.0
  Ni  Ni1173  1  0.39413878  0.30121040  0.32631385  1.0
  Ni  Ni1174  1  0.39413878  0.63454373  0.32631385  1.0
  Ni  Ni1175  1  0.39413878  0.96787707  0.32631385  1.0
  Ni  Ni1176  1  0.72747212  0.30121040  0.32631385  1.0
  Ni  Ni1177  1  0.72747212  0.63454373  0.32631385  1.0
  Ni  Ni1178  1  0.72747212  0.96787707  0.32631385  1.0
  Ni  Ni1179  1  0.19413878  0.06787707  0.22631385  1.0
  Ni  Ni1180  1  0.19413878  0.40121040  0.22631385  1.0
  Ni  Ni1181  1  0.19413878  0.73454373  0.22631385  1.0
  Ni  Ni1182  1  0.52747212  0.06787707  0.22631385  1.0
  Ni  Ni1183  1  0.52747212  0.40121040  0.22631385  1.0
  Ni  Ni1184  1  0.52747212  0.73454373  0.22631385  1.0
  Ni  Ni1185  1  0.86080545  0.06787707  0.22631385  1.0
  Ni  Ni1186  1  0.86080545  0.40121040  0.22631385  1.0
  Ni  Ni1187  1  0.86080545  0.73454373  0.22631385  1.0
  Ni  Ni1188  1  0.15209918  0.25556353  0.20529405  1.0
  Ni  Ni1189  1  0.15209918  0.58889687  0.20529405  1.0
  Ni  Ni1190  1  0.15209918  0.92223020  0.20529405  1.0
  Ni  Ni1191  1  0.48543252  0.25556353  0.20529405  1.0
  Ni  Ni1192  1  0.48543252  0.58889687  0.20529405  1.0
  Ni  Ni1193  1  0.48543252  0.92223020  0.20529405  1.0
  Ni  Ni1194  1  0.81876585  0.25556353  0.20529405  1.0
  Ni  Ni1195  1  0.81876585  0.58889687  0.20529405  1.0
  Ni  Ni1196  1  0.81876585  0.92223020  0.20529405  1.0
  Ni  Ni1197  1  0.01876585  0.15556353  0.30529405  1.0
  Ni  Ni1198  1  0.01876585  0.48889687  0.30529405  1.0
  Ni  Ni1199  1  0.01876585  0.82223020  0.30529405  1.0
  Ni  Ni1200  1  0.35209918  0.15556353  0.30529405  1.0
  Ni  Ni1201  1  0.35209918  0.48889687  0.30529405  1.0
  Ni  Ni1202  1  0.35209918  0.82223020  0.30529405  1.0
  Ni  Ni1203  1  0.68543252  0.15556353  0.30529405  1.0
  Ni  Ni1204  1  0.68543252  0.48889687  0.30529405  1.0
  Ni  Ni1205  1  0.68543252  0.82223020  0.30529405  1.0
  Ni  Ni1206  1  0.04652465  0.14168413  0.39057745  1.0
  Ni  Ni1207  1  0.04652465  0.47501747  0.39057745  1.0
  Ni  Ni1208  1  0.04652465  0.80835080  0.39057745  1.0
  Ni  Ni1209  1  0.37985798  0.14168413  0.39057745  1.0
  Ni  Ni1210  1  0.37985798  0.47501747  0.39057745  1.0
  Ni  Ni1211  1  0.37985798  0.80835080  0.39057745  1.0
  Ni  Ni1212  1  0.71319132  0.14168413  0.39057745  1.0
  Ni  Ni1213  1  0.71319132  0.47501747  0.39057745  1.0
  Ni  Ni1214  1  0.71319132  0.80835080  0.39057745  1.0
  Ni  Ni1215  1  0.17985798  0.24168413  0.29057745  1.0
  Ni  Ni1216  1  0.17985798  0.57501747  0.29057745  1.0
  Ni  Ni1217  1  0.17985798  0.90835080  0.29057745  1.0
  Ni  Ni1218  1  0.51319132  0.24168413  0.29057745  1.0
  Ni  Ni1219  1  0.51319132  0.57501747  0.29057745  1.0
  Ni  Ni1220  1  0.51319132  0.90835080  0.29057745  1.0
  Ni  Ni1221  1  0.84652465  0.24168413  0.29057745  1.0
  Ni  Ni1222  1  0.84652465  0.57501747  0.29057745  1.0
  Ni  Ni1223  1  0.84652465  0.90835080  0.29057745  1.0
