# generated using pymatgen
data_Hf8Ni21
_symmetry_space_group_name_H-M   'P 1'
_cell_length_a   50.15501597
_cell_length_b   53.54262189
_cell_length_c   55.89848187
_cell_angle_alpha   107.63333328
_cell_angle_beta   132.07681865
_cell_angle_gamma   33.69754457
_symmetry_Int_Tables_number   1
_chemical_formula_structural   Hf8Ni21
_chemical_formula_sum   'Hf432 Ni1134'
_cell_volume   48585.90820761
_cell_formula_units_Z   54
loop_
 _symmetry_equiv_pos_site_id
 _symmetry_equiv_pos_as_xyz
  1  'x, y, z'
loop_
 _atom_site_type_symbol
 _atom_site_label
 _atom_site_symmetry_multiplicity
 _atom_site_fract_x
 _atom_site_fract_y
 _atom_site_fract_z
 _atom_site_occupancy
  Hf  Hf0  1  0.30357633  0.15526267  0.11607025  1.0
  Hf  Hf1  1  0.30357633  0.48859600  0.11607025  1.0
  Hf  Hf2  1  0.30357633  0.82192933  0.11607025  1.0
  Hf  Hf3  1  0.63690967  0.15526267  0.11607025  1.0
  Hf  Hf4  1  0.63690967  0.48859600  0.11607025  1.0
  Hf  Hf5  1  0.63690967  0.82192933  0.11607025  1.0
  Hf  Hf6  1  0.97024300  0.15526267  0.11607025  1.0
  Hf  Hf7  1  0.97024300  0.48859600  0.11607025  1.0
  Hf  Hf8  1  0.97024300  0.82192933  0.11607025  1.0
  Hf  Hf9  1  0.13690967  0.15526267  0.04464168  1.0
  Hf  Hf10  1  0.13690967  0.48859600  0.04464168  1.0
  Hf  Hf11  1  0.13690967  0.82192933  0.04464168  1.0
  Hf  Hf12  1  0.47024300  0.15526267  0.04464168  1.0
  Hf  Hf13  1  0.47024300  0.48859600  0.04464168  1.0
  Hf  Hf14  1  0.47024300  0.82192933  0.04464168  1.0
  Hf  Hf15  1  0.80357633  0.15526267  0.04464168  1.0
  Hf  Hf16  1  0.80357633  0.48859600  0.04464168  1.0
  Hf  Hf17  1  0.80357633  0.82192933  0.04464168  1.0
  Hf  Hf18  1  0.19642367  0.17807067  0.08815311  1.0
  Hf  Hf19  1  0.19642367  0.51140400  0.08815311  1.0
  Hf  Hf20  1  0.19642367  0.84473733  0.08815311  1.0
  Hf  Hf21  1  0.52975700  0.17807067  0.08815311  1.0
  Hf  Hf22  1  0.52975700  0.51140400  0.08815311  1.0
  Hf  Hf23  1  0.52975700  0.84473733  0.08815311  1.0
  Hf  Hf24  1  0.86309033  0.17807067  0.08815311  1.0
  Hf  Hf25  1  0.86309033  0.51140400  0.08815311  1.0
  Hf  Hf26  1  0.86309033  0.84473733  0.08815311  1.0
  Hf  Hf27  1  0.02975700  0.17807067  0.01672454  1.0
  Hf  Hf28  1  0.02975700  0.51140400  0.01672454  1.0
  Hf  Hf29  1  0.02975700  0.84473733  0.01672454  1.0
  Hf  Hf30  1  0.36309033  0.17807067  0.01672454  1.0
  Hf  Hf31  1  0.36309033  0.51140400  0.01672454  1.0
  Hf  Hf32  1  0.36309033  0.84473733  0.01672454  1.0
  Hf  Hf33  1  0.69642367  0.17807067  0.01672454  1.0
  Hf  Hf34  1  0.69642367  0.51140400  0.01672454  1.0
  Hf  Hf35  1  0.69642367  0.84473733  0.01672454  1.0
  Hf  Hf36  1  0.17969900  0.24843633  0.13817854  1.0
  Hf  Hf37  1  0.17969900  0.58176967  0.13817854  1.0
  Hf  Hf38  1  0.17969900  0.91510300  0.13817854  1.0
  Hf  Hf39  1  0.51303233  0.24843633  0.13817854  1.0
  Hf  Hf40  1  0.51303233  0.58176967  0.13817854  1.0
  Hf  Hf41  1  0.51303233  0.91510300  0.13817854  1.0
  Hf  Hf42  1  0.84636567  0.24843633  0.13817854  1.0
  Hf  Hf43  1  0.84636567  0.58176967  0.13817854  1.0
  Hf  Hf44  1  0.84636567  0.91510300  0.13817854  1.0
  Hf  Hf45  1  0.01303233  0.24843633  0.06674996  1.0
  Hf  Hf46  1  0.01303233  0.58176967  0.06674996  1.0
  Hf  Hf47  1  0.01303233  0.91510300  0.06674996  1.0
  Hf  Hf48  1  0.34636567  0.24843633  0.06674996  1.0
  Hf  Hf49  1  0.34636567  0.58176967  0.06674996  1.0
  Hf  Hf50  1  0.34636567  0.91510300  0.06674996  1.0
  Hf  Hf51  1  0.67969900  0.24843633  0.06674996  1.0
  Hf  Hf52  1  0.67969900  0.58176967  0.06674996  1.0
  Hf  Hf53  1  0.67969900  0.91510300  0.06674996  1.0
  Hf  Hf54  1  0.32030100  0.08489700  0.06604482  1.0
  Hf  Hf55  1  0.32030100  0.41823033  0.06604482  1.0
  Hf  Hf56  1  0.32030100  0.75156367  0.06604482  1.0
  Hf  Hf57  1  0.65363433  0.08489700  0.06604482  1.0
  Hf  Hf58  1  0.65363433  0.41823033  0.06604482  1.0
  Hf  Hf59  1  0.65363433  0.75156367  0.06604482  1.0
  Hf  Hf60  1  0.98696767  0.08489700  0.06604482  1.0
  Hf  Hf61  1  0.98696767  0.41823033  0.06604482  1.0
  Hf  Hf62  1  0.98696767  0.75156367  0.06604482  1.0
  Hf  Hf63  1  0.15363433  0.08489700  0.13747339  1.0
  Hf  Hf64  1  0.15363433  0.41823033  0.13747339  1.0
  Hf  Hf65  1  0.15363433  0.75156367  0.13747339  1.0
  Hf  Hf66  1  0.48696767  0.08489700  0.13747339  1.0
  Hf  Hf67  1  0.48696767  0.41823033  0.13747339  1.0
  Hf  Hf68  1  0.48696767  0.75156367  0.13747339  1.0
  Hf  Hf69  1  0.82030100  0.08489700  0.13747339  1.0
  Hf  Hf70  1  0.82030100  0.41823033  0.13747339  1.0
  Hf  Hf71  1  0.82030100  0.75156367  0.13747339  1.0
  Hf  Hf72  1  0.09319517  0.06184167  0.09252632  1.0
  Hf  Hf73  1  0.09319517  0.39517500  0.09252632  1.0
  Hf  Hf74  1  0.09319517  0.72850833  0.09252632  1.0
  Hf  Hf75  1  0.42652850  0.06184167  0.09252632  1.0
  Hf  Hf76  1  0.42652850  0.39517500  0.09252632  1.0
  Hf  Hf77  1  0.42652850  0.72850833  0.09252632  1.0
  Hf  Hf78  1  0.75986183  0.06184167  0.09252632  1.0
  Hf  Hf79  1  0.75986183  0.39517500  0.09252632  1.0
  Hf  Hf80  1  0.75986183  0.72850833  0.09252632  1.0
  Hf  Hf81  1  0.25986183  0.06184167  0.02109775  1.0
  Hf  Hf82  1  0.25986183  0.39517500  0.02109775  1.0
  Hf  Hf83  1  0.25986183  0.72850833  0.02109775  1.0
  Hf  Hf84  1  0.59319517  0.06184167  0.02109775  1.0
  Hf  Hf85  1  0.59319517  0.39517500  0.02109775  1.0
  Hf  Hf86  1  0.59319517  0.72850833  0.02109775  1.0
  Hf  Hf87  1  0.92652850  0.06184167  0.02109775  1.0
  Hf  Hf88  1  0.92652850  0.39517500  0.02109775  1.0
  Hf  Hf89  1  0.92652850  0.72850833  0.02109775  1.0
  Hf  Hf90  1  0.07347150  0.27149167  0.11169704  1.0
  Hf  Hf91  1  0.07347150  0.60482500  0.11169704  1.0
  Hf  Hf92  1  0.07347150  0.93815833  0.11169704  1.0
  Hf  Hf93  1  0.40680483  0.27149167  0.11169704  1.0
  Hf  Hf94  1  0.40680483  0.60482500  0.11169704  1.0
  Hf  Hf95  1  0.40680483  0.93815833  0.11169704  1.0
  Hf  Hf96  1  0.74013817  0.27149167  0.11169704  1.0
  Hf  Hf97  1  0.74013817  0.60482500  0.11169704  1.0
  Hf  Hf98  1  0.74013817  0.93815833  0.11169704  1.0
  Hf  Hf99  1  0.24013817  0.27149167  0.04026846  1.0
  Hf  Hf100  1  0.24013817  0.60482500  0.04026846  1.0
  Hf  Hf101  1  0.24013817  0.93815833  0.04026846  1.0
  Hf  Hf102  1  0.57347150  0.27149167  0.04026846  1.0
  Hf  Hf103  1  0.57347150  0.60482500  0.04026846  1.0
  Hf  Hf104  1  0.57347150  0.93815833  0.04026846  1.0
  Hf  Hf105  1  0.90680483  0.27149167  0.04026846  1.0
  Hf  Hf106  1  0.90680483  0.60482500  0.04026846  1.0
  Hf  Hf107  1  0.90680483  0.93815833  0.04026846  1.0
  Hf  Hf108  1  0.16112433  0.29757433  0.07291225  1.0
  Hf  Hf109  1  0.16112433  0.63090767  0.07291225  1.0
  Hf  Hf110  1  0.16112433  0.96424100  0.07291225  1.0
  Hf  Hf111  1  0.49445767  0.29757433  0.07291225  1.0
  Hf  Hf112  1  0.49445767  0.63090767  0.07291225  1.0
  Hf  Hf113  1  0.49445767  0.96424100  0.07291225  1.0
  Hf  Hf114  1  0.82779100  0.29757433  0.07291225  1.0
  Hf  Hf115  1  0.82779100  0.63090767  0.07291225  1.0
  Hf  Hf116  1  0.82779100  0.96424100  0.07291225  1.0
  Hf  Hf117  1  0.32779100  0.29757433  0.00148368  1.0
  Hf  Hf118  1  0.32779100  0.63090767  0.00148368  1.0
  Hf  Hf119  1  0.32779100  0.96424100  0.00148368  1.0
  Hf  Hf120  1  0.66112433  0.29757433  0.00148368  1.0
  Hf  Hf121  1  0.66112433  0.63090767  0.00148368  1.0
  Hf  Hf122  1  0.66112433  0.96424100  0.00148368  1.0
  Hf  Hf123  1  0.99445767  0.29757433  0.00148368  1.0
  Hf  Hf124  1  0.99445767  0.63090767  0.00148368  1.0
  Hf  Hf125  1  0.99445767  0.96424100  0.00148368  1.0
  Hf  Hf126  1  0.00554233  0.03575900  0.13131111  1.0
  Hf  Hf127  1  0.00554233  0.36909233  0.13131111  1.0
  Hf  Hf128  1  0.00554233  0.70242567  0.13131111  1.0
  Hf  Hf129  1  0.33887567  0.03575900  0.13131111  1.0
  Hf  Hf130  1  0.33887567  0.36909233  0.13131111  1.0
  Hf  Hf131  1  0.33887567  0.70242567  0.13131111  1.0
  Hf  Hf132  1  0.67220900  0.03575900  0.13131111  1.0
  Hf  Hf133  1  0.67220900  0.36909233  0.13131111  1.0
  Hf  Hf134  1  0.67220900  0.70242567  0.13131111  1.0
  Hf  Hf135  1  0.17220900  0.03575900  0.05988254  1.0
  Hf  Hf136  1  0.17220900  0.36909233  0.05988254  1.0
  Hf  Hf137  1  0.17220900  0.70242567  0.05988254  1.0
  Hf  Hf138  1  0.50554233  0.03575900  0.05988254  1.0
  Hf  Hf139  1  0.50554233  0.36909233  0.05988254  1.0
  Hf  Hf140  1  0.50554233  0.70242567  0.05988254  1.0
  Hf  Hf141  1  0.83887567  0.03575900  0.05988254  1.0
  Hf  Hf142  1  0.83887567  0.36909233  0.05988254  1.0
  Hf  Hf143  1  0.83887567  0.70242567  0.05988254  1.0
  Ni  Ni144  1  0.16666667  0.16666667  0.13782596  1.0
  Ni  Ni145  1  0.16666667  0.50000000  0.13782596  1.0
  Ni  Ni146  1  0.16666667  0.83333333  0.13782596  1.0
  Ni  Ni147  1  0.50000000  0.16666667  0.13782596  1.0
  Ni  Ni148  1  0.50000000  0.50000000  0.13782596  1.0
  Ni  Ni149  1  0.50000000  0.83333333  0.13782596  1.0
  Ni  Ni150  1  0.83333333  0.16666667  0.13782596  1.0
  Ni  Ni151  1  0.83333333  0.50000000  0.13782596  1.0
  Ni  Ni152  1  0.83333333  0.83333333  0.13782596  1.0
  Ni  Ni153  1  0.00000000  0.16666667  0.06639739  1.0
  Ni  Ni154  1  0.00000000  0.50000000  0.06639739  1.0
  Ni  Ni155  1  0.00000000  0.83333333  0.06639739  1.0
  Ni  Ni156  1  0.33333333  0.16666667  0.06639739  1.0
  Ni  Ni157  1  0.33333333  0.50000000  0.06639739  1.0
  Ni  Ni158  1  0.33333333  0.83333333  0.06639739  1.0
  Ni  Ni159  1  0.66666667  0.16666667  0.06639739  1.0
  Ni  Ni160  1  0.66666667  0.50000000  0.06639739  1.0
  Ni  Ni161  1  0.66666667  0.83333333  0.06639739  1.0
  Ni  Ni162  1  0.33306600  0.08598600  0.12092882  1.0
  Ni  Ni163  1  0.33306600  0.41931933  0.12092882  1.0
  Ni  Ni164  1  0.33306600  0.75265267  0.12092882  1.0
  Ni  Ni165  1  0.66639933  0.08598600  0.12092882  1.0
  Ni  Ni166  1  0.66639933  0.41931933  0.12092882  1.0
  Ni  Ni167  1  0.66639933  0.75265267  0.12092882  1.0
  Ni  Ni168  1  0.99973267  0.08598600  0.12092882  1.0
  Ni  Ni169  1  0.99973267  0.41931933  0.12092882  1.0
  Ni  Ni170  1  0.99973267  0.75265267  0.12092882  1.0
  Ni  Ni171  1  0.16639933  0.08598600  0.04950025  1.0
  Ni  Ni172  1  0.16639933  0.41931933  0.04950025  1.0
  Ni  Ni173  1  0.16639933  0.75265267  0.04950025  1.0
  Ni  Ni174  1  0.49973267  0.08598600  0.04950025  1.0
  Ni  Ni175  1  0.49973267  0.41931933  0.04950025  1.0
  Ni  Ni176  1  0.49973267  0.75265267  0.04950025  1.0
  Ni  Ni177  1  0.83306600  0.08598600  0.04950025  1.0
  Ni  Ni178  1  0.83306600  0.41931933  0.04950025  1.0
  Ni  Ni179  1  0.83306600  0.75265267  0.04950025  1.0
  Ni  Ni180  1  0.16693400  0.24734733  0.08329454  1.0
  Ni  Ni181  1  0.16693400  0.58068067  0.08329454  1.0
  Ni  Ni182  1  0.16693400  0.91401400  0.08329454  1.0
  Ni  Ni183  1  0.50026733  0.24734733  0.08329454  1.0
  Ni  Ni184  1  0.50026733  0.58068067  0.08329454  1.0
  Ni  Ni185  1  0.50026733  0.91401400  0.08329454  1.0
  Ni  Ni186  1  0.83360067  0.24734733  0.08329454  1.0
  Ni  Ni187  1  0.83360067  0.58068067  0.08329454  1.0
  Ni  Ni188  1  0.83360067  0.91401400  0.08329454  1.0
  Ni  Ni189  1  0.00026733  0.24734733  0.01186596  1.0
  Ni  Ni190  1  0.00026733  0.58068067  0.01186596  1.0
  Ni  Ni191  1  0.00026733  0.91401400  0.01186596  1.0
  Ni  Ni192  1  0.33360067  0.24734733  0.01186596  1.0
  Ni  Ni193  1  0.33360067  0.58068067  0.01186596  1.0
  Ni  Ni194  1  0.33360067  0.91401400  0.01186596  1.0
  Ni  Ni195  1  0.66693400  0.24734733  0.01186596  1.0
  Ni  Ni196  1  0.66693400  0.58068067  0.01186596  1.0
  Ni  Ni197  1  0.66693400  0.91401400  0.01186596  1.0
  Ni  Ni198  1  0.26525600  0.21822533  0.07762054  1.0
  Ni  Ni199  1  0.26525600  0.55155867  0.07762054  1.0
  Ni  Ni200  1  0.26525600  0.88489200  0.07762054  1.0
  Ni  Ni201  1  0.59858933  0.21822533  0.07762054  1.0
  Ni  Ni202  1  0.59858933  0.55155867  0.07762054  1.0
  Ni  Ni203  1  0.59858933  0.88489200  0.07762054  1.0
  Ni  Ni204  1  0.93192267  0.21822533  0.07762054  1.0
  Ni  Ni205  1  0.93192267  0.55155867  0.07762054  1.0
  Ni  Ni206  1  0.93192267  0.88489200  0.07762054  1.0
  Ni  Ni207  1  0.09858933  0.21822533  0.00619196  1.0
  Ni  Ni208  1  0.09858933  0.55155867  0.00619196  1.0
  Ni  Ni209  1  0.09858933  0.88489200  0.00619196  1.0
  Ni  Ni210  1  0.43192267  0.21822533  0.00619196  1.0
  Ni  Ni211  1  0.43192267  0.55155867  0.00619196  1.0
  Ni  Ni212  1  0.43192267  0.88489200  0.00619196  1.0
  Ni  Ni213  1  0.76525600  0.21822533  0.00619196  1.0
  Ni  Ni214  1  0.76525600  0.55155867  0.00619196  1.0
  Ni  Ni215  1  0.76525600  0.88489200  0.00619196  1.0
  Ni  Ni216  1  0.23474400  0.11510800  0.12660282  1.0
  Ni  Ni217  1  0.23474400  0.44844133  0.12660282  1.0
  Ni  Ni218  1  0.23474400  0.78177467  0.12660282  1.0
  Ni  Ni219  1  0.56807733  0.11510800  0.12660282  1.0
  Ni  Ni220  1  0.56807733  0.44844133  0.12660282  1.0
  Ni  Ni221  1  0.56807733  0.78177467  0.12660282  1.0
  Ni  Ni222  1  0.90141067  0.11510800  0.12660282  1.0
  Ni  Ni223  1  0.90141067  0.44844133  0.12660282  1.0
  Ni  Ni224  1  0.90141067  0.78177467  0.12660282  1.0
  Ni  Ni225  1  0.06807733  0.11510800  0.05517425  1.0
  Ni  Ni226  1  0.06807733  0.44844133  0.05517425  1.0
  Ni  Ni227  1  0.06807733  0.78177467  0.05517425  1.0
  Ni  Ni228  1  0.40141067  0.11510800  0.05517425  1.0
  Ni  Ni229  1  0.40141067  0.44844133  0.05517425  1.0
  Ni  Ni230  1  0.40141067  0.78177467  0.05517425  1.0
  Ni  Ni231  1  0.73474400  0.11510800  0.05517425  1.0
  Ni  Ni232  1  0.73474400  0.44844133  0.05517425  1.0
  Ni  Ni233  1  0.73474400  0.78177467  0.05517425  1.0
  Ni  Ni234  1  0.12985800  0.31950600  0.01425311  1.0
  Ni  Ni235  1  0.12985800  0.65283933  0.01425311  1.0
  Ni  Ni236  1  0.12985800  0.98617267  0.01425311  1.0
  Ni  Ni237  1  0.46319133  0.31950600  0.01425311  1.0
  Ni  Ni238  1  0.46319133  0.65283933  0.01425311  1.0
  Ni  Ni239  1  0.46319133  0.98617267  0.01425311  1.0
  Ni  Ni240  1  0.79652467  0.31950600  0.01425311  1.0
  Ni  Ni241  1  0.79652467  0.65283933  0.01425311  1.0
  Ni  Ni242  1  0.79652467  0.98617267  0.01425311  1.0
  Ni  Ni243  1  0.29652467  0.31950600  0.08568168  1.0
  Ni  Ni244  1  0.29652467  0.65283933  0.08568168  1.0
  Ni  Ni245  1  0.29652467  0.98617267  0.08568168  1.0
  Ni  Ni246  1  0.62985800  0.31950600  0.08568168  1.0
  Ni  Ni247  1  0.62985800  0.65283933  0.08568168  1.0
  Ni  Ni248  1  0.62985800  0.98617267  0.08568168  1.0
  Ni  Ni249  1  0.96319133  0.31950600  0.08568168  1.0
  Ni  Ni250  1  0.96319133  0.65283933  0.08568168  1.0
  Ni  Ni251  1  0.96319133  0.98617267  0.08568168  1.0
  Ni  Ni252  1  0.03680867  0.01382733  0.04711311  1.0
  Ni  Ni253  1  0.03680867  0.34716067  0.04711311  1.0
  Ni  Ni254  1  0.03680867  0.68049400  0.04711311  1.0
  Ni  Ni255  1  0.37014200  0.01382733  0.04711311  1.0
  Ni  Ni256  1  0.37014200  0.34716067  0.04711311  1.0
  Ni  Ni257  1  0.37014200  0.68049400  0.04711311  1.0
  Ni  Ni258  1  0.70347533  0.01382733  0.04711311  1.0
  Ni  Ni259  1  0.70347533  0.34716067  0.04711311  1.0
  Ni  Ni260  1  0.70347533  0.68049400  0.04711311  1.0
  Ni  Ni261  1  0.20347533  0.01382733  0.11854168  1.0
  Ni  Ni262  1  0.20347533  0.34716067  0.11854168  1.0
  Ni  Ni263  1  0.20347533  0.68049400  0.11854168  1.0
  Ni  Ni264  1  0.53680867  0.01382733  0.11854168  1.0
  Ni  Ni265  1  0.53680867  0.34716067  0.11854168  1.0
  Ni  Ni266  1  0.53680867  0.68049400  0.11854168  1.0
  Ni  Ni267  1  0.87014200  0.01382733  0.11854168  1.0
  Ni  Ni268  1  0.87014200  0.34716067  0.11854168  1.0
  Ni  Ni269  1  0.87014200  0.68049400  0.11854168  1.0
  Ni  Ni270  1  0.09156167  0.05237900  0.13579325  1.0
  Ni  Ni271  1  0.09156167  0.38571233  0.13579325  1.0
  Ni  Ni272  1  0.09156167  0.71904567  0.13579325  1.0
  Ni  Ni273  1  0.42489500  0.05237900  0.13579325  1.0
  Ni  Ni274  1  0.42489500  0.38571233  0.13579325  1.0
  Ni  Ni275  1  0.42489500  0.71904567  0.13579325  1.0
  Ni  Ni276  1  0.75822833  0.05237900  0.13579325  1.0
  Ni  Ni277  1  0.75822833  0.38571233  0.13579325  1.0
  Ni  Ni278  1  0.75822833  0.71904567  0.13579325  1.0
  Ni  Ni279  1  0.25822833  0.05237900  0.06436468  1.0
  Ni  Ni280  1  0.25822833  0.38571233  0.06436468  1.0
  Ni  Ni281  1  0.25822833  0.71904567  0.06436468  1.0
  Ni  Ni282  1  0.59156167  0.05237900  0.06436468  1.0
  Ni  Ni283  1  0.59156167  0.38571233  0.06436468  1.0
  Ni  Ni284  1  0.59156167  0.71904567  0.06436468  1.0
  Ni  Ni285  1  0.92489500  0.05237900  0.06436468  1.0
  Ni  Ni286  1  0.92489500  0.38571233  0.06436468  1.0
  Ni  Ni287  1  0.92489500  0.71904567  0.06436468  1.0
  Ni  Ni288  1  0.06987767  0.28329867  0.01722925  1.0
  Ni  Ni289  1  0.06987767  0.61663200  0.01722925  1.0
  Ni  Ni290  1  0.06987767  0.94996533  0.01722925  1.0
  Ni  Ni291  1  0.40321100  0.28329867  0.01722925  1.0
  Ni  Ni292  1  0.40321100  0.61663200  0.01722925  1.0
  Ni  Ni293  1  0.40321100  0.94996533  0.01722925  1.0
  Ni  Ni294  1  0.73654433  0.28329867  0.01722925  1.0
  Ni  Ni295  1  0.73654433  0.61663200  0.01722925  1.0
  Ni  Ni296  1  0.73654433  0.94996533  0.01722925  1.0
  Ni  Ni297  1  0.23654433  0.28329867  0.08865782  1.0
  Ni  Ni298  1  0.23654433  0.61663200  0.08865782  1.0
  Ni  Ni299  1  0.23654433  0.94996533  0.08865782  1.0
  Ni  Ni300  1  0.56987767  0.28329867  0.08865782  1.0
  Ni  Ni301  1  0.56987767  0.61663200  0.08865782  1.0
  Ni  Ni302  1  0.56987767  0.94996533  0.08865782  1.0
  Ni  Ni303  1  0.90321100  0.28329867  0.08865782  1.0
  Ni  Ni304  1  0.90321100  0.61663200  0.08865782  1.0
  Ni  Ni305  1  0.90321100  0.94996533  0.08865782  1.0
  Ni  Ni306  1  0.09678900  0.05003467  0.04413696  1.0
  Ni  Ni307  1  0.09678900  0.38336800  0.04413696  1.0
  Ni  Ni308  1  0.09678900  0.71670133  0.04413696  1.0
  Ni  Ni309  1  0.43012233  0.05003467  0.04413696  1.0
  Ni  Ni310  1  0.43012233  0.38336800  0.04413696  1.0
  Ni  Ni311  1  0.43012233  0.71670133  0.04413696  1.0
  Ni  Ni312  1  0.76345567  0.05003467  0.04413696  1.0
  Ni  Ni313  1  0.76345567  0.38336800  0.04413696  1.0
  Ni  Ni314  1  0.76345567  0.71670133  0.04413696  1.0
  Ni  Ni315  1  0.26345567  0.05003467  0.11556554  1.0
  Ni  Ni316  1  0.26345567  0.38336800  0.11556554  1.0
  Ni  Ni317  1  0.26345567  0.71670133  0.11556554  1.0
  Ni  Ni318  1  0.59678900  0.05003467  0.11556554  1.0
  Ni  Ni319  1  0.59678900  0.38336800  0.11556554  1.0
  Ni  Ni320  1  0.59678900  0.71670133  0.11556554  1.0
  Ni  Ni321  1  0.93012233  0.05003467  0.11556554  1.0
  Ni  Ni322  1  0.93012233  0.38336800  0.11556554  1.0
  Ni  Ni323  1  0.93012233  0.71670133  0.11556554  1.0
  Ni  Ni324  1  0.15509517  0.25878833  0.03198789  1.0
  Ni  Ni325  1  0.15509517  0.59212167  0.03198789  1.0
  Ni  Ni326  1  0.15509517  0.92545500  0.03198789  1.0
  Ni  Ni327  1  0.48842850  0.25878833  0.03198789  1.0
  Ni  Ni328  1  0.48842850  0.59212167  0.03198789  1.0
  Ni  Ni329  1  0.48842850  0.92545500  0.03198789  1.0
  Ni  Ni330  1  0.82176183  0.25878833  0.03198789  1.0
  Ni  Ni331  1  0.82176183  0.59212167  0.03198789  1.0
  Ni  Ni332  1  0.82176183  0.92545500  0.03198789  1.0
  Ni  Ni333  1  0.32176183  0.25878833  0.10341646  1.0
  Ni  Ni334  1  0.32176183  0.59212167  0.10341646  1.0
  Ni  Ni335  1  0.32176183  0.92545500  0.10341646  1.0
  Ni  Ni336  1  0.65509517  0.25878833  0.10341646  1.0
  Ni  Ni337  1  0.65509517  0.59212167  0.10341646  1.0
  Ni  Ni338  1  0.65509517  0.92545500  0.10341646  1.0
  Ni  Ni339  1  0.98842850  0.25878833  0.10341646  1.0
  Ni  Ni340  1  0.98842850  0.59212167  0.10341646  1.0
  Ni  Ni341  1  0.98842850  0.92545500  0.10341646  1.0
  Ni  Ni342  1  0.01157150  0.07454500  0.02937832  1.0
  Ni  Ni343  1  0.01157150  0.40787833  0.02937832  1.0
  Ni  Ni344  1  0.01157150  0.74121167  0.02937832  1.0
  Ni  Ni345  1  0.34490483  0.07454500  0.02937832  1.0
  Ni  Ni346  1  0.34490483  0.40787833  0.02937832  1.0
  Ni  Ni347  1  0.34490483  0.74121167  0.02937832  1.0
  Ni  Ni348  1  0.67823817  0.07454500  0.02937832  1.0
  Ni  Ni349  1  0.67823817  0.40787833  0.02937832  1.0
  Ni  Ni350  1  0.67823817  0.74121167  0.02937832  1.0
  Ni  Ni351  1  0.17823817  0.07454500  0.10080689  1.0
  Ni  Ni352  1  0.17823817  0.40787833  0.10080689  1.0
  Ni  Ni353  1  0.17823817  0.74121167  0.10080689  1.0
  Ni  Ni354  1  0.51157150  0.07454500  0.10080689  1.0
  Ni  Ni355  1  0.51157150  0.40787833  0.10080689  1.0
  Ni  Ni356  1  0.51157150  0.74121167  0.10080689  1.0
  Ni  Ni357  1  0.84490483  0.07454500  0.10080689  1.0
  Ni  Ni358  1  0.84490483  0.40787833  0.10080689  1.0
  Ni  Ni359  1  0.84490483  0.74121167  0.10080689  1.0
  Ni  Ni360  1  0.20363500  0.18290500  0.04756982  1.0
  Ni  Ni361  1  0.20363500  0.51623833  0.04756982  1.0
  Ni  Ni362  1  0.20363500  0.84957167  0.04756982  1.0
  Ni  Ni363  1  0.53696833  0.18290500  0.04756982  1.0
  Ni  Ni364  1  0.53696833  0.51623833  0.04756982  1.0
  Ni  Ni365  1  0.53696833  0.84957167  0.04756982  1.0
  Ni  Ni366  1  0.87030167  0.18290500  0.04756982  1.0
  Ni  Ni367  1  0.87030167  0.51623833  0.04756982  1.0
  Ni  Ni368  1  0.87030167  0.84957167  0.04756982  1.0
  Ni  Ni369  1  0.03696833  0.18290500  0.11899839  1.0
  Ni  Ni370  1  0.03696833  0.51623833  0.11899839  1.0
  Ni  Ni371  1  0.03696833  0.84957167  0.11899839  1.0
  Ni  Ni372  1  0.37030167  0.18290500  0.11899839  1.0
  Ni  Ni373  1  0.37030167  0.51623833  0.11899839  1.0
  Ni  Ni374  1  0.37030167  0.84957167  0.11899839  1.0
  Ni  Ni375  1  0.70363500  0.18290500  0.11899839  1.0
  Ni  Ni376  1  0.70363500  0.51623833  0.11899839  1.0
  Ni  Ni377  1  0.70363500  0.84957167  0.11899839  1.0
  Ni  Ni378  1  0.29636500  0.15042833  0.01379639  1.0
  Ni  Ni379  1  0.29636500  0.48376167  0.01379639  1.0
  Ni  Ni380  1  0.29636500  0.81709500  0.01379639  1.0
  Ni  Ni381  1  0.62969833  0.15042833  0.01379639  1.0
  Ni  Ni382  1  0.62969833  0.48376167  0.01379639  1.0
  Ni  Ni383  1  0.62969833  0.81709500  0.01379639  1.0
  Ni  Ni384  1  0.96303167  0.15042833  0.01379639  1.0
  Ni  Ni385  1  0.96303167  0.48376167  0.01379639  1.0
  Ni  Ni386  1  0.96303167  0.81709500  0.01379639  1.0
  Ni  Ni387  1  0.12969833  0.15042833  0.08522496  1.0
  Ni  Ni388  1  0.12969833  0.48376167  0.08522496  1.0
  Ni  Ni389  1  0.12969833  0.81709500  0.08522496  1.0
  Ni  Ni390  1  0.46303167  0.15042833  0.08522496  1.0
  Ni  Ni391  1  0.46303167  0.48376167  0.08522496  1.0
  Ni  Ni392  1  0.46303167  0.81709500  0.08522496  1.0
  Ni  Ni393  1  0.79636500  0.15042833  0.08522496  1.0
  Ni  Ni394  1  0.79636500  0.48376167  0.08522496  1.0
  Ni  Ni395  1  0.79636500  0.81709500  0.08522496  1.0
  Ni  Ni396  1  0.23406283  0.11571100  0.05836775  1.0
  Ni  Ni397  1  0.23406283  0.44904433  0.05836775  1.0
  Ni  Ni398  1  0.23406283  0.78237767  0.05836775  1.0
  Ni  Ni399  1  0.56739617  0.11571100  0.05836775  1.0
  Ni  Ni400  1  0.56739617  0.44904433  0.05836775  1.0
  Ni  Ni401  1  0.56739617  0.78237767  0.05836775  1.0
  Ni  Ni402  1  0.90072950  0.11571100  0.05836775  1.0
  Ni  Ni403  1  0.90072950  0.44904433  0.05836775  1.0
  Ni  Ni404  1  0.90072950  0.78237767  0.05836775  1.0
  Ni  Ni405  1  0.06739617  0.11571100  0.12979632  1.0
  Ni  Ni406  1  0.06739617  0.44904433  0.12979632  1.0
  Ni  Ni407  1  0.06739617  0.78237767  0.12979632  1.0
  Ni  Ni408  1  0.40072950  0.11571100  0.12979632  1.0
  Ni  Ni409  1  0.40072950  0.44904433  0.12979632  1.0
  Ni  Ni410  1  0.40072950  0.78237767  0.12979632  1.0
  Ni  Ni411  1  0.73406283  0.11571100  0.12979632  1.0
  Ni  Ni412  1  0.73406283  0.44904433  0.12979632  1.0
  Ni  Ni413  1  0.73406283  0.78237767  0.12979632  1.0
  Ni  Ni414  1  0.26593717  0.21762233  0.00299846  1.0
  Ni  Ni415  1  0.26593717  0.55095567  0.00299846  1.0
  Ni  Ni416  1  0.26593717  0.88428900  0.00299846  1.0
  Ni  Ni417  1  0.59927050  0.21762233  0.00299846  1.0
  Ni  Ni418  1  0.59927050  0.55095567  0.00299846  1.0
  Ni  Ni419  1  0.59927050  0.88428900  0.00299846  1.0
  Ni  Ni420  1  0.93260383  0.21762233  0.00299846  1.0
  Ni  Ni421  1  0.93260383  0.55095567  0.00299846  1.0
  Ni  Ni422  1  0.93260383  0.88428900  0.00299846  1.0
  Ni  Ni423  1  0.09927050  0.21762233  0.07442704  1.0
  Ni  Ni424  1  0.09927050  0.55095567  0.07442704  1.0
  Ni  Ni425  1  0.09927050  0.88428900  0.07442704  1.0
  Ni  Ni426  1  0.43260383  0.21762233  0.07442704  1.0
  Ni  Ni427  1  0.43260383  0.55095567  0.07442704  1.0
  Ni  Ni428  1  0.43260383  0.88428900  0.07442704  1.0
  Ni  Ni429  1  0.76593717  0.21762233  0.07442704  1.0
  Ni  Ni430  1  0.76593717  0.55095567  0.07442704  1.0
  Ni  Ni431  1  0.76593717  0.88428900  0.07442704  1.0
  Ni  Ni432  1  0.03825283  0.00955900  0.09841404  1.0
  Ni  Ni433  1  0.03825283  0.34289233  0.09841404  1.0
  Ni  Ni434  1  0.03825283  0.67622567  0.09841404  1.0
  Ni  Ni435  1  0.37158617  0.00955900  0.09841404  1.0
  Ni  Ni436  1  0.37158617  0.34289233  0.09841404  1.0
  Ni  Ni437  1  0.37158617  0.67622567  0.09841404  1.0
  Ni  Ni438  1  0.70491950  0.00955900  0.09841404  1.0
  Ni  Ni439  1  0.70491950  0.34289233  0.09841404  1.0
  Ni  Ni440  1  0.70491950  0.67622567  0.09841404  1.0
  Ni  Ni441  1  0.20491950  0.00955900  0.02698546  1.0
  Ni  Ni442  1  0.20491950  0.34289233  0.02698546  1.0
  Ni  Ni443  1  0.20491950  0.67622567  0.02698546  1.0
  Ni  Ni444  1  0.53825283  0.00955900  0.02698546  1.0
  Ni  Ni445  1  0.53825283  0.34289233  0.02698546  1.0
  Ni  Ni446  1  0.53825283  0.67622567  0.02698546  1.0
  Ni  Ni447  1  0.87158617  0.00955900  0.02698546  1.0
  Ni  Ni448  1  0.87158617  0.34289233  0.02698546  1.0
  Ni  Ni449  1  0.87158617  0.67622567  0.02698546  1.0
  Ni  Ni450  1  0.12841383  0.32377433  0.10580932  1.0
  Ni  Ni451  1  0.12841383  0.65710767  0.10580932  1.0
  Ni  Ni452  1  0.12841383  0.99044100  0.10580932  1.0
  Ni  Ni453  1  0.46174717  0.32377433  0.10580932  1.0
  Ni  Ni454  1  0.46174717  0.65710767  0.10580932  1.0
  Ni  Ni455  1  0.46174717  0.99044100  0.10580932  1.0
  Ni  Ni456  1  0.79508050  0.32377433  0.10580932  1.0
  Ni  Ni457  1  0.79508050  0.65710767  0.10580932  1.0
  Ni  Ni458  1  0.79508050  0.99044100  0.10580932  1.0
  Ni  Ni459  1  0.29508050  0.32377433  0.03438075  1.0
  Ni  Ni460  1  0.29508050  0.65710767  0.03438075  1.0
  Ni  Ni461  1  0.29508050  0.99044100  0.03438075  1.0
  Ni  Ni462  1  0.62841383  0.32377433  0.03438075  1.0
  Ni  Ni463  1  0.62841383  0.65710767  0.03438075  1.0
  Ni  Ni464  1  0.62841383  0.99044100  0.03438075  1.0
  Ni  Ni465  1  0.96174717  0.32377433  0.03438075  1.0
  Ni  Ni466  1  0.96174717  0.65710767  0.03438075  1.0
  Ni  Ni467  1  0.96174717  0.99044100  0.03438075  1.0
  Ni  Ni468  1  0.20706717  0.17901800  0.14098989  1.0
  Ni  Ni469  1  0.20706717  0.51235133  0.14098989  1.0
  Ni  Ni470  1  0.20706717  0.84568467  0.14098989  1.0
  Ni  Ni471  1  0.54040050  0.17901800  0.14098989  1.0
  Ni  Ni472  1  0.54040050  0.51235133  0.14098989  1.0
  Ni  Ni473  1  0.54040050  0.84568467  0.14098989  1.0
  Ni  Ni474  1  0.87373383  0.17901800  0.14098989  1.0
  Ni  Ni475  1  0.87373383  0.51235133  0.14098989  1.0
  Ni  Ni476  1  0.87373383  0.84568467  0.14098989  1.0
  Ni  Ni477  1  0.04040050  0.17901800  0.06956132  1.0
  Ni  Ni478  1  0.04040050  0.51235133  0.06956132  1.0
  Ni  Ni479  1  0.04040050  0.84568467  0.06956132  1.0
  Ni  Ni480  1  0.37373383  0.17901800  0.06956132  1.0
  Ni  Ni481  1  0.37373383  0.51235133  0.06956132  1.0
  Ni  Ni482  1  0.37373383  0.84568467  0.06956132  1.0
  Ni  Ni483  1  0.70706717  0.17901800  0.06956132  1.0
  Ni  Ni484  1  0.70706717  0.51235133  0.06956132  1.0
  Ni  Ni485  1  0.70706717  0.84568467  0.06956132  1.0
  Ni  Ni486  1  0.29293283  0.15431533  0.06323346  1.0
  Ni  Ni487  1  0.29293283  0.48764867  0.06323346  1.0
  Ni  Ni488  1  0.29293283  0.82098200  0.06323346  1.0
  Ni  Ni489  1  0.62626617  0.15431533  0.06323346  1.0
  Ni  Ni490  1  0.62626617  0.48764867  0.06323346  1.0
  Ni  Ni491  1  0.62626617  0.82098200  0.06323346  1.0
  Ni  Ni492  1  0.95959950  0.15431533  0.06323346  1.0
  Ni  Ni493  1  0.95959950  0.48764867  0.06323346  1.0
  Ni  Ni494  1  0.95959950  0.82098200  0.06323346  1.0
  Ni  Ni495  1  0.12626617  0.15431533  0.13466204  1.0
  Ni  Ni496  1  0.12626617  0.48764867  0.13466204  1.0
  Ni  Ni497  1  0.12626617  0.82098200  0.13466204  1.0
  Ni  Ni498  1  0.45959950  0.15431533  0.13466204  1.0
  Ni  Ni499  1  0.45959950  0.48764867  0.13466204  1.0
  Ni  Ni500  1  0.45959950  0.82098200  0.13466204  1.0
  Ni  Ni501  1  0.79293283  0.15431533  0.13466204  1.0
  Ni  Ni502  1  0.79293283  0.48764867  0.13466204  1.0
  Ni  Ni503  1  0.79293283  0.82098200  0.13466204  1.0
  Ni  Ni504  1  0.07510500  0.28095433  0.06843011  1.0
  Ni  Ni505  1  0.07510500  0.61428767  0.06843011  1.0
  Ni  Ni506  1  0.07510500  0.94762100  0.06843011  1.0
  Ni  Ni507  1  0.40843833  0.28095433  0.06843011  1.0
  Ni  Ni508  1  0.40843833  0.61428767  0.06843011  1.0
  Ni  Ni509  1  0.40843833  0.94762100  0.06843011  1.0
  Ni  Ni510  1  0.74177167  0.28095433  0.06843011  1.0
  Ni  Ni511  1  0.74177167  0.61428767  0.06843011  1.0
  Ni  Ni512  1  0.74177167  0.94762100  0.06843011  1.0
  Ni  Ni513  1  0.24177167  0.28095433  0.13985868  1.0
  Ni  Ni514  1  0.24177167  0.61428767  0.13985868  1.0
  Ni  Ni515  1  0.24177167  0.94762100  0.13985868  1.0
  Ni  Ni516  1  0.57510500  0.28095433  0.13985868  1.0
  Ni  Ni517  1  0.57510500  0.61428767  0.13985868  1.0
  Ni  Ni518  1  0.57510500  0.94762100  0.13985868  1.0
  Ni  Ni519  1  0.90843833  0.28095433  0.13985868  1.0
  Ni  Ni520  1  0.90843833  0.61428767  0.13985868  1.0
  Ni  Ni521  1  0.90843833  0.94762100  0.13985868  1.0
  Hf  Hf522  1  0.30357633  0.15526267  0.25892739  1.0
  Hf  Hf523  1  0.30357633  0.48859600  0.25892739  1.0
  Hf  Hf524  1  0.30357633  0.82192933  0.25892739  1.0
  Hf  Hf525  1  0.63690967  0.15526267  0.25892739  1.0
  Hf  Hf526  1  0.63690967  0.48859600  0.25892739  1.0
  Hf  Hf527  1  0.63690967  0.82192933  0.25892739  1.0
  Hf  Hf528  1  0.97024300  0.15526267  0.25892739  1.0
  Hf  Hf529  1  0.97024300  0.48859600  0.25892739  1.0
  Hf  Hf530  1  0.97024300  0.82192933  0.25892739  1.0
  Hf  Hf531  1  0.13690967  0.15526267  0.18749882  1.0
  Hf  Hf532  1  0.13690967  0.48859600  0.18749882  1.0
  Hf  Hf533  1  0.13690967  0.82192933  0.18749882  1.0
  Hf  Hf534  1  0.47024300  0.15526267  0.18749882  1.0
  Hf  Hf535  1  0.47024300  0.48859600  0.18749882  1.0
  Hf  Hf536  1  0.47024300  0.82192933  0.18749882  1.0
  Hf  Hf537  1  0.80357633  0.15526267  0.18749882  1.0
  Hf  Hf538  1  0.80357633  0.48859600  0.18749882  1.0
  Hf  Hf539  1  0.80357633  0.82192933  0.18749882  1.0
  Hf  Hf540  1  0.19642367  0.17807067  0.23101025  1.0
  Hf  Hf541  1  0.19642367  0.51140400  0.23101025  1.0
  Hf  Hf542  1  0.19642367  0.84473733  0.23101025  1.0
  Hf  Hf543  1  0.52975700  0.17807067  0.23101025  1.0
  Hf  Hf544  1  0.52975700  0.51140400  0.23101025  1.0
  Hf  Hf545  1  0.52975700  0.84473733  0.23101025  1.0
  Hf  Hf546  1  0.86309033  0.17807067  0.23101025  1.0
  Hf  Hf547  1  0.86309033  0.51140400  0.23101025  1.0
  Hf  Hf548  1  0.86309033  0.84473733  0.23101025  1.0
  Hf  Hf549  1  0.02975700  0.17807067  0.15958168  1.0
  Hf  Hf550  1  0.02975700  0.51140400  0.15958168  1.0
  Hf  Hf551  1  0.02975700  0.84473733  0.15958168  1.0
  Hf  Hf552  1  0.36309033  0.17807067  0.15958168  1.0
  Hf  Hf553  1  0.36309033  0.51140400  0.15958168  1.0
  Hf  Hf554  1  0.36309033  0.84473733  0.15958168  1.0
  Hf  Hf555  1  0.69642367  0.17807067  0.15958168  1.0
  Hf  Hf556  1  0.69642367  0.51140400  0.15958168  1.0
  Hf  Hf557  1  0.69642367  0.84473733  0.15958168  1.0
  Hf  Hf558  1  0.17969900  0.24843633  0.28103568  1.0
  Hf  Hf559  1  0.17969900  0.58176967  0.28103568  1.0
  Hf  Hf560  1  0.17969900  0.91510300  0.28103568  1.0
  Hf  Hf561  1  0.51303233  0.24843633  0.28103568  1.0
  Hf  Hf562  1  0.51303233  0.58176967  0.28103568  1.0
  Hf  Hf563  1  0.51303233  0.91510300  0.28103568  1.0
  Hf  Hf564  1  0.84636567  0.24843633  0.28103568  1.0
  Hf  Hf565  1  0.84636567  0.58176967  0.28103568  1.0
  Hf  Hf566  1  0.84636567  0.91510300  0.28103568  1.0
  Hf  Hf567  1  0.01303233  0.24843633  0.20960711  1.0
  Hf  Hf568  1  0.01303233  0.58176967  0.20960711  1.0
  Hf  Hf569  1  0.01303233  0.91510300  0.20960711  1.0
  Hf  Hf570  1  0.34636567  0.24843633  0.20960711  1.0
  Hf  Hf571  1  0.34636567  0.58176967  0.20960711  1.0
  Hf  Hf572  1  0.34636567  0.91510300  0.20960711  1.0
  Hf  Hf573  1  0.67969900  0.24843633  0.20960711  1.0
  Hf  Hf574  1  0.67969900  0.58176967  0.20960711  1.0
  Hf  Hf575  1  0.67969900  0.91510300  0.20960711  1.0
  Hf  Hf576  1  0.32030100  0.08489700  0.20890196  1.0
  Hf  Hf577  1  0.32030100  0.41823033  0.20890196  1.0
  Hf  Hf578  1  0.32030100  0.75156367  0.20890196  1.0
  Hf  Hf579  1  0.65363433  0.08489700  0.20890196  1.0
  Hf  Hf580  1  0.65363433  0.41823033  0.20890196  1.0
  Hf  Hf581  1  0.65363433  0.75156367  0.20890196  1.0
  Hf  Hf582  1  0.98696767  0.08489700  0.20890196  1.0
  Hf  Hf583  1  0.98696767  0.41823033  0.20890196  1.0
  Hf  Hf584  1  0.98696767  0.75156367  0.20890196  1.0
  Hf  Hf585  1  0.15363433  0.08489700  0.28033054  1.0
  Hf  Hf586  1  0.15363433  0.41823033  0.28033054  1.0
  Hf  Hf587  1  0.15363433  0.75156367  0.28033054  1.0
  Hf  Hf588  1  0.48696767  0.08489700  0.28033054  1.0
  Hf  Hf589  1  0.48696767  0.41823033  0.28033054  1.0
  Hf  Hf590  1  0.48696767  0.75156367  0.28033054  1.0
  Hf  Hf591  1  0.82030100  0.08489700  0.28033054  1.0
  Hf  Hf592  1  0.82030100  0.41823033  0.28033054  1.0
  Hf  Hf593  1  0.82030100  0.75156367  0.28033054  1.0
  Hf  Hf594  1  0.09319517  0.06184167  0.23538346  1.0
  Hf  Hf595  1  0.09319517  0.39517500  0.23538346  1.0
  Hf  Hf596  1  0.09319517  0.72850833  0.23538346  1.0
  Hf  Hf597  1  0.42652850  0.06184167  0.23538346  1.0
  Hf  Hf598  1  0.42652850  0.39517500  0.23538346  1.0
  Hf  Hf599  1  0.42652850  0.72850833  0.23538346  1.0
  Hf  Hf600  1  0.75986183  0.06184167  0.23538346  1.0
  Hf  Hf601  1  0.75986183  0.39517500  0.23538346  1.0
  Hf  Hf602  1  0.75986183  0.72850833  0.23538346  1.0
  Hf  Hf603  1  0.25986183  0.06184167  0.16395489  1.0
  Hf  Hf604  1  0.25986183  0.39517500  0.16395489  1.0
  Hf  Hf605  1  0.25986183  0.72850833  0.16395489  1.0
  Hf  Hf606  1  0.59319517  0.06184167  0.16395489  1.0
  Hf  Hf607  1  0.59319517  0.39517500  0.16395489  1.0
  Hf  Hf608  1  0.59319517  0.72850833  0.16395489  1.0
  Hf  Hf609  1  0.92652850  0.06184167  0.16395489  1.0
  Hf  Hf610  1  0.92652850  0.39517500  0.16395489  1.0
  Hf  Hf611  1  0.92652850  0.72850833  0.16395489  1.0
  Hf  Hf612  1  0.07347150  0.27149167  0.25455418  1.0
  Hf  Hf613  1  0.07347150  0.60482500  0.25455418  1.0
  Hf  Hf614  1  0.07347150  0.93815833  0.25455418  1.0
  Hf  Hf615  1  0.40680483  0.27149167  0.25455418  1.0
  Hf  Hf616  1  0.40680483  0.60482500  0.25455418  1.0
  Hf  Hf617  1  0.40680483  0.93815833  0.25455418  1.0
  Hf  Hf618  1  0.74013817  0.27149167  0.25455418  1.0
  Hf  Hf619  1  0.74013817  0.60482500  0.25455418  1.0
  Hf  Hf620  1  0.74013817  0.93815833  0.25455418  1.0
  Hf  Hf621  1  0.24013817  0.27149167  0.18312561  1.0
  Hf  Hf622  1  0.24013817  0.60482500  0.18312561  1.0
  Hf  Hf623  1  0.24013817  0.93815833  0.18312561  1.0
  Hf  Hf624  1  0.57347150  0.27149167  0.18312561  1.0
  Hf  Hf625  1  0.57347150  0.60482500  0.18312561  1.0
  Hf  Hf626  1  0.57347150  0.93815833  0.18312561  1.0
  Hf  Hf627  1  0.90680483  0.27149167  0.18312561  1.0
  Hf  Hf628  1  0.90680483  0.60482500  0.18312561  1.0
  Hf  Hf629  1  0.90680483  0.93815833  0.18312561  1.0
  Hf  Hf630  1  0.16112433  0.29757433  0.21576939  1.0
  Hf  Hf631  1  0.16112433  0.63090767  0.21576939  1.0
  Hf  Hf632  1  0.16112433  0.96424100  0.21576939  1.0
  Hf  Hf633  1  0.49445767  0.29757433  0.21576939  1.0
  Hf  Hf634  1  0.49445767  0.63090767  0.21576939  1.0
  Hf  Hf635  1  0.49445767  0.96424100  0.21576939  1.0
  Hf  Hf636  1  0.82779100  0.29757433  0.21576939  1.0
  Hf  Hf637  1  0.82779100  0.63090767  0.21576939  1.0
  Hf  Hf638  1  0.82779100  0.96424100  0.21576939  1.0
  Hf  Hf639  1  0.32779100  0.29757433  0.14434082  1.0
  Hf  Hf640  1  0.32779100  0.63090767  0.14434082  1.0
  Hf  Hf641  1  0.32779100  0.96424100  0.14434082  1.0
  Hf  Hf642  1  0.66112433  0.29757433  0.14434082  1.0
  Hf  Hf643  1  0.66112433  0.63090767  0.14434082  1.0
  Hf  Hf644  1  0.66112433  0.96424100  0.14434082  1.0
  Hf  Hf645  1  0.99445767  0.29757433  0.14434082  1.0
  Hf  Hf646  1  0.99445767  0.63090767  0.14434082  1.0
  Hf  Hf647  1  0.99445767  0.96424100  0.14434082  1.0
  Hf  Hf648  1  0.00554233  0.03575900  0.27416825  1.0
  Hf  Hf649  1  0.00554233  0.36909233  0.27416825  1.0
  Hf  Hf650  1  0.00554233  0.70242567  0.27416825  1.0
  Hf  Hf651  1  0.33887567  0.03575900  0.27416825  1.0
  Hf  Hf652  1  0.33887567  0.36909233  0.27416825  1.0
  Hf  Hf653  1  0.33887567  0.70242567  0.27416825  1.0
  Hf  Hf654  1  0.67220900  0.03575900  0.27416825  1.0
  Hf  Hf655  1  0.67220900  0.36909233  0.27416825  1.0
  Hf  Hf656  1  0.67220900  0.70242567  0.27416825  1.0
  Hf  Hf657  1  0.17220900  0.03575900  0.20273968  1.0
  Hf  Hf658  1  0.17220900  0.36909233  0.20273968  1.0
  Hf  Hf659  1  0.17220900  0.70242567  0.20273968  1.0
  Hf  Hf660  1  0.50554233  0.03575900  0.20273968  1.0
  Hf  Hf661  1  0.50554233  0.36909233  0.20273968  1.0
  Hf  Hf662  1  0.50554233  0.70242567  0.20273968  1.0
  Hf  Hf663  1  0.83887567  0.03575900  0.20273968  1.0
  Hf  Hf664  1  0.83887567  0.36909233  0.20273968  1.0
  Hf  Hf665  1  0.83887567  0.70242567  0.20273968  1.0
  Ni  Ni666  1  0.16666667  0.16666667  0.28068311  1.0
  Ni  Ni667  1  0.16666667  0.50000000  0.28068311  1.0
  Ni  Ni668  1  0.16666667  0.83333333  0.28068311  1.0
  Ni  Ni669  1  0.50000000  0.16666667  0.28068311  1.0
  Ni  Ni670  1  0.50000000  0.50000000  0.28068311  1.0
  Ni  Ni671  1  0.50000000  0.83333333  0.28068311  1.0
  Ni  Ni672  1  0.83333333  0.16666667  0.28068311  1.0
  Ni  Ni673  1  0.83333333  0.50000000  0.28068311  1.0
  Ni  Ni674  1  0.83333333  0.83333333  0.28068311  1.0
  Ni  Ni675  1  0.00000000  0.16666667  0.20925454  1.0
  Ni  Ni676  1  0.00000000  0.50000000  0.20925454  1.0
  Ni  Ni677  1  0.00000000  0.83333333  0.20925454  1.0
  Ni  Ni678  1  0.33333333  0.16666667  0.20925454  1.0
  Ni  Ni679  1  0.33333333  0.50000000  0.20925454  1.0
  Ni  Ni680  1  0.33333333  0.83333333  0.20925454  1.0
  Ni  Ni681  1  0.66666667  0.16666667  0.20925454  1.0
  Ni  Ni682  1  0.66666667  0.50000000  0.20925454  1.0
  Ni  Ni683  1  0.66666667  0.83333333  0.20925454  1.0
  Ni  Ni684  1  0.33306600  0.08598600  0.26378596  1.0
  Ni  Ni685  1  0.33306600  0.41931933  0.26378596  1.0
  Ni  Ni686  1  0.33306600  0.75265267  0.26378596  1.0
  Ni  Ni687  1  0.66639933  0.08598600  0.26378596  1.0
  Ni  Ni688  1  0.66639933  0.41931933  0.26378596  1.0
  Ni  Ni689  1  0.66639933  0.75265267  0.26378596  1.0
  Ni  Ni690  1  0.99973267  0.08598600  0.26378596  1.0
  Ni  Ni691  1  0.99973267  0.41931933  0.26378596  1.0
  Ni  Ni692  1  0.99973267  0.75265267  0.26378596  1.0
  Ni  Ni693  1  0.16639933  0.08598600  0.19235739  1.0
  Ni  Ni694  1  0.16639933  0.41931933  0.19235739  1.0
  Ni  Ni695  1  0.16639933  0.75265267  0.19235739  1.0
  Ni  Ni696  1  0.49973267  0.08598600  0.19235739  1.0
  Ni  Ni697  1  0.49973267  0.41931933  0.19235739  1.0
  Ni  Ni698  1  0.49973267  0.75265267  0.19235739  1.0
  Ni  Ni699  1  0.83306600  0.08598600  0.19235739  1.0
  Ni  Ni700  1  0.83306600  0.41931933  0.19235739  1.0
  Ni  Ni701  1  0.83306600  0.75265267  0.19235739  1.0
  Ni  Ni702  1  0.16693400  0.24734733  0.22615168  1.0
  Ni  Ni703  1  0.16693400  0.58068067  0.22615168  1.0
  Ni  Ni704  1  0.16693400  0.91401400  0.22615168  1.0
  Ni  Ni705  1  0.50026733  0.24734733  0.22615168  1.0
  Ni  Ni706  1  0.50026733  0.58068067  0.22615168  1.0
  Ni  Ni707  1  0.50026733  0.91401400  0.22615168  1.0
  Ni  Ni708  1  0.83360067  0.24734733  0.22615168  1.0
  Ni  Ni709  1  0.83360067  0.58068067  0.22615168  1.0
  Ni  Ni710  1  0.83360067  0.91401400  0.22615168  1.0
  Ni  Ni711  1  0.00026733  0.24734733  0.15472311  1.0
  Ni  Ni712  1  0.00026733  0.58068067  0.15472311  1.0
  Ni  Ni713  1  0.00026733  0.91401400  0.15472311  1.0
  Ni  Ni714  1  0.33360067  0.24734733  0.15472311  1.0
  Ni  Ni715  1  0.33360067  0.58068067  0.15472311  1.0
  Ni  Ni716  1  0.33360067  0.91401400  0.15472311  1.0
  Ni  Ni717  1  0.66693400  0.24734733  0.15472311  1.0
  Ni  Ni718  1  0.66693400  0.58068067  0.15472311  1.0
  Ni  Ni719  1  0.66693400  0.91401400  0.15472311  1.0
  Ni  Ni720  1  0.26525600  0.21822533  0.22047768  1.0
  Ni  Ni721  1  0.26525600  0.55155867  0.22047768  1.0
  Ni  Ni722  1  0.26525600  0.88489200  0.22047768  1.0
  Ni  Ni723  1  0.59858933  0.21822533  0.22047768  1.0
  Ni  Ni724  1  0.59858933  0.55155867  0.22047768  1.0
  Ni  Ni725  1  0.59858933  0.88489200  0.22047768  1.0
  Ni  Ni726  1  0.93192267  0.21822533  0.22047768  1.0
  Ni  Ni727  1  0.93192267  0.55155867  0.22047768  1.0
  Ni  Ni728  1  0.93192267  0.88489200  0.22047768  1.0
  Ni  Ni729  1  0.09858933  0.21822533  0.14904911  1.0
  Ni  Ni730  1  0.09858933  0.55155867  0.14904911  1.0
  Ni  Ni731  1  0.09858933  0.88489200  0.14904911  1.0
  Ni  Ni732  1  0.43192267  0.21822533  0.14904911  1.0
  Ni  Ni733  1  0.43192267  0.55155867  0.14904911  1.0
  Ni  Ni734  1  0.43192267  0.88489200  0.14904911  1.0
  Ni  Ni735  1  0.76525600  0.21822533  0.14904911  1.0
  Ni  Ni736  1  0.76525600  0.55155867  0.14904911  1.0
  Ni  Ni737  1  0.76525600  0.88489200  0.14904911  1.0
  Ni  Ni738  1  0.23474400  0.11510800  0.26945996  1.0
  Ni  Ni739  1  0.23474400  0.44844133  0.26945996  1.0
  Ni  Ni740  1  0.23474400  0.78177467  0.26945996  1.0
  Ni  Ni741  1  0.56807733  0.11510800  0.26945996  1.0
  Ni  Ni742  1  0.56807733  0.44844133  0.26945996  1.0
  Ni  Ni743  1  0.56807733  0.78177467  0.26945996  1.0
  Ni  Ni744  1  0.90141067  0.11510800  0.26945996  1.0
  Ni  Ni745  1  0.90141067  0.44844133  0.26945996  1.0
  Ni  Ni746  1  0.90141067  0.78177467  0.26945996  1.0
  Ni  Ni747  1  0.06807733  0.11510800  0.19803139  1.0
  Ni  Ni748  1  0.06807733  0.44844133  0.19803139  1.0
  Ni  Ni749  1  0.06807733  0.78177467  0.19803139  1.0
  Ni  Ni750  1  0.40141067  0.11510800  0.19803139  1.0
  Ni  Ni751  1  0.40141067  0.44844133  0.19803139  1.0
  Ni  Ni752  1  0.40141067  0.78177467  0.19803139  1.0
  Ni  Ni753  1  0.73474400  0.11510800  0.19803139  1.0
  Ni  Ni754  1  0.73474400  0.44844133  0.19803139  1.0
  Ni  Ni755  1  0.73474400  0.78177467  0.19803139  1.0
  Ni  Ni756  1  0.12985800  0.31950600  0.15711025  1.0
  Ni  Ni757  1  0.12985800  0.65283933  0.15711025  1.0
  Ni  Ni758  1  0.12985800  0.98617267  0.15711025  1.0
  Ni  Ni759  1  0.46319133  0.31950600  0.15711025  1.0
  Ni  Ni760  1  0.46319133  0.65283933  0.15711025  1.0
  Ni  Ni761  1  0.46319133  0.98617267  0.15711025  1.0
  Ni  Ni762  1  0.79652467  0.31950600  0.15711025  1.0
  Ni  Ni763  1  0.79652467  0.65283933  0.15711025  1.0
  Ni  Ni764  1  0.79652467  0.98617267  0.15711025  1.0
  Ni  Ni765  1  0.29652467  0.31950600  0.22853882  1.0
  Ni  Ni766  1  0.29652467  0.65283933  0.22853882  1.0
  Ni  Ni767  1  0.29652467  0.98617267  0.22853882  1.0
  Ni  Ni768  1  0.62985800  0.31950600  0.22853882  1.0
  Ni  Ni769  1  0.62985800  0.65283933  0.22853882  1.0
  Ni  Ni770  1  0.62985800  0.98617267  0.22853882  1.0
  Ni  Ni771  1  0.96319133  0.31950600  0.22853882  1.0
  Ni  Ni772  1  0.96319133  0.65283933  0.22853882  1.0
  Ni  Ni773  1  0.96319133  0.98617267  0.22853882  1.0
  Ni  Ni774  1  0.03680867  0.01382733  0.18997025  1.0
  Ni  Ni775  1  0.03680867  0.34716067  0.18997025  1.0
  Ni  Ni776  1  0.03680867  0.68049400  0.18997025  1.0
  Ni  Ni777  1  0.37014200  0.01382733  0.18997025  1.0
  Ni  Ni778  1  0.37014200  0.34716067  0.18997025  1.0
  Ni  Ni779  1  0.37014200  0.68049400  0.18997025  1.0
  Ni  Ni780  1  0.70347533  0.01382733  0.18997025  1.0
  Ni  Ni781  1  0.70347533  0.34716067  0.18997025  1.0
  Ni  Ni782  1  0.70347533  0.68049400  0.18997025  1.0
  Ni  Ni783  1  0.20347533  0.01382733  0.26139882  1.0
  Ni  Ni784  1  0.20347533  0.34716067  0.26139882  1.0
  Ni  Ni785  1  0.20347533  0.68049400  0.26139882  1.0
  Ni  Ni786  1  0.53680867  0.01382733  0.26139882  1.0
  Ni  Ni787  1  0.53680867  0.34716067  0.26139882  1.0
  Ni  Ni788  1  0.53680867  0.68049400  0.26139882  1.0
  Ni  Ni789  1  0.87014200  0.01382733  0.26139882  1.0
  Ni  Ni790  1  0.87014200  0.34716067  0.26139882  1.0
  Ni  Ni791  1  0.87014200  0.68049400  0.26139882  1.0
  Ni  Ni792  1  0.09156167  0.05237900  0.27865039  1.0
  Ni  Ni793  1  0.09156167  0.38571233  0.27865039  1.0
  Ni  Ni794  1  0.09156167  0.71904567  0.27865039  1.0
  Ni  Ni795  1  0.42489500  0.05237900  0.27865039  1.0
  Ni  Ni796  1  0.42489500  0.38571233  0.27865039  1.0
  Ni  Ni797  1  0.42489500  0.71904567  0.27865039  1.0
  Ni  Ni798  1  0.75822833  0.05237900  0.27865039  1.0
  Ni  Ni799  1  0.75822833  0.38571233  0.27865039  1.0
  Ni  Ni800  1  0.75822833  0.71904567  0.27865039  1.0
  Ni  Ni801  1  0.25822833  0.05237900  0.20722182  1.0
  Ni  Ni802  1  0.25822833  0.38571233  0.20722182  1.0
  Ni  Ni803  1  0.25822833  0.71904567  0.20722182  1.0
  Ni  Ni804  1  0.59156167  0.05237900  0.20722182  1.0
  Ni  Ni805  1  0.59156167  0.38571233  0.20722182  1.0
  Ni  Ni806  1  0.59156167  0.71904567  0.20722182  1.0
  Ni  Ni807  1  0.92489500  0.05237900  0.20722182  1.0
  Ni  Ni808  1  0.92489500  0.38571233  0.20722182  1.0
  Ni  Ni809  1  0.92489500  0.71904567  0.20722182  1.0
  Ni  Ni810  1  0.06987767  0.28329867  0.16008639  1.0
  Ni  Ni811  1  0.06987767  0.61663200  0.16008639  1.0
  Ni  Ni812  1  0.06987767  0.94996533  0.16008639  1.0
  Ni  Ni813  1  0.40321100  0.28329867  0.16008639  1.0
  Ni  Ni814  1  0.40321100  0.61663200  0.16008639  1.0
  Ni  Ni815  1  0.40321100  0.94996533  0.16008639  1.0
  Ni  Ni816  1  0.73654433  0.28329867  0.16008639  1.0
  Ni  Ni817  1  0.73654433  0.61663200  0.16008639  1.0
  Ni  Ni818  1  0.73654433  0.94996533  0.16008639  1.0
  Ni  Ni819  1  0.23654433  0.28329867  0.23151496  1.0
  Ni  Ni820  1  0.23654433  0.61663200  0.23151496  1.0
  Ni  Ni821  1  0.23654433  0.94996533  0.23151496  1.0
  Ni  Ni822  1  0.56987767  0.28329867  0.23151496  1.0
  Ni  Ni823  1  0.56987767  0.61663200  0.23151496  1.0
  Ni  Ni824  1  0.56987767  0.94996533  0.23151496  1.0
  Ni  Ni825  1  0.90321100  0.28329867  0.23151496  1.0
  Ni  Ni826  1  0.90321100  0.61663200  0.23151496  1.0
  Ni  Ni827  1  0.90321100  0.94996533  0.23151496  1.0
  Ni  Ni828  1  0.09678900  0.05003467  0.18699411  1.0
  Ni  Ni829  1  0.09678900  0.38336800  0.18699411  1.0
  Ni  Ni830  1  0.09678900  0.71670133  0.18699411  1.0
  Ni  Ni831  1  0.43012233  0.05003467  0.18699411  1.0
  Ni  Ni832  1  0.43012233  0.38336800  0.18699411  1.0
  Ni  Ni833  1  0.43012233  0.71670133  0.18699411  1.0
  Ni  Ni834  1  0.76345567  0.05003467  0.18699411  1.0
  Ni  Ni835  1  0.76345567  0.38336800  0.18699411  1.0
  Ni  Ni836  1  0.76345567  0.71670133  0.18699411  1.0
  Ni  Ni837  1  0.26345567  0.05003467  0.25842268  1.0
  Ni  Ni838  1  0.26345567  0.38336800  0.25842268  1.0
  Ni  Ni839  1  0.26345567  0.71670133  0.25842268  1.0
  Ni  Ni840  1  0.59678900  0.05003467  0.25842268  1.0
  Ni  Ni841  1  0.59678900  0.38336800  0.25842268  1.0
  Ni  Ni842  1  0.59678900  0.71670133  0.25842268  1.0
  Ni  Ni843  1  0.93012233  0.05003467  0.25842268  1.0
  Ni  Ni844  1  0.93012233  0.38336800  0.25842268  1.0
  Ni  Ni845  1  0.93012233  0.71670133  0.25842268  1.0
  Ni  Ni846  1  0.15509517  0.25878833  0.17484504  1.0
  Ni  Ni847  1  0.15509517  0.59212167  0.17484504  1.0
  Ni  Ni848  1  0.15509517  0.92545500  0.17484504  1.0
  Ni  Ni849  1  0.48842850  0.25878833  0.17484504  1.0
  Ni  Ni850  1  0.48842850  0.59212167  0.17484504  1.0
  Ni  Ni851  1  0.48842850  0.92545500  0.17484504  1.0
  Ni  Ni852  1  0.82176183  0.25878833  0.17484504  1.0
  Ni  Ni853  1  0.82176183  0.59212167  0.17484504  1.0
  Ni  Ni854  1  0.82176183  0.92545500  0.17484504  1.0
  Ni  Ni855  1  0.32176183  0.25878833  0.24627361  1.0
  Ni  Ni856  1  0.32176183  0.59212167  0.24627361  1.0
  Ni  Ni857  1  0.32176183  0.92545500  0.24627361  1.0
  Ni  Ni858  1  0.65509517  0.25878833  0.24627361  1.0
  Ni  Ni859  1  0.65509517  0.59212167  0.24627361  1.0
  Ni  Ni860  1  0.65509517  0.92545500  0.24627361  1.0
  Ni  Ni861  1  0.98842850  0.25878833  0.24627361  1.0
  Ni  Ni862  1  0.98842850  0.59212167  0.24627361  1.0
  Ni  Ni863  1  0.98842850  0.92545500  0.24627361  1.0
  Ni  Ni864  1  0.01157150  0.07454500  0.17223546  1.0
  Ni  Ni865  1  0.01157150  0.40787833  0.17223546  1.0
  Ni  Ni866  1  0.01157150  0.74121167  0.17223546  1.0
  Ni  Ni867  1  0.34490483  0.07454500  0.17223546  1.0
  Ni  Ni868  1  0.34490483  0.40787833  0.17223546  1.0
  Ni  Ni869  1  0.34490483  0.74121167  0.17223546  1.0
  Ni  Ni870  1  0.67823817  0.07454500  0.17223546  1.0
  Ni  Ni871  1  0.67823817  0.40787833  0.17223546  1.0
  Ni  Ni872  1  0.67823817  0.74121167  0.17223546  1.0
  Ni  Ni873  1  0.17823817  0.07454500  0.24366404  1.0
  Ni  Ni874  1  0.17823817  0.40787833  0.24366404  1.0
  Ni  Ni875  1  0.17823817  0.74121167  0.24366404  1.0
  Ni  Ni876  1  0.51157150  0.07454500  0.24366404  1.0
  Ni  Ni877  1  0.51157150  0.40787833  0.24366404  1.0
  Ni  Ni878  1  0.51157150  0.74121167  0.24366404  1.0
  Ni  Ni879  1  0.84490483  0.07454500  0.24366404  1.0
  Ni  Ni880  1  0.84490483  0.40787833  0.24366404  1.0
  Ni  Ni881  1  0.84490483  0.74121167  0.24366404  1.0
  Ni  Ni882  1  0.20363500  0.18290500  0.19042696  1.0
  Ni  Ni883  1  0.20363500  0.51623833  0.19042696  1.0
  Ni  Ni884  1  0.20363500  0.84957167  0.19042696  1.0
  Ni  Ni885  1  0.53696833  0.18290500  0.19042696  1.0
  Ni  Ni886  1  0.53696833  0.51623833  0.19042696  1.0
  Ni  Ni887  1  0.53696833  0.84957167  0.19042696  1.0
  Ni  Ni888  1  0.87030167  0.18290500  0.19042696  1.0
  Ni  Ni889  1  0.87030167  0.51623833  0.19042696  1.0
  Ni  Ni890  1  0.87030167  0.84957167  0.19042696  1.0
  Ni  Ni891  1  0.03696833  0.18290500  0.26185554  1.0
  Ni  Ni892  1  0.03696833  0.51623833  0.26185554  1.0
  Ni  Ni893  1  0.03696833  0.84957167  0.26185554  1.0
  Ni  Ni894  1  0.37030167  0.18290500  0.26185554  1.0
  Ni  Ni895  1  0.37030167  0.51623833  0.26185554  1.0
  Ni  Ni896  1  0.37030167  0.84957167  0.26185554  1.0
  Ni  Ni897  1  0.70363500  0.18290500  0.26185554  1.0
  Ni  Ni898  1  0.70363500  0.51623833  0.26185554  1.0
  Ni  Ni899  1  0.70363500  0.84957167  0.26185554  1.0
  Ni  Ni900  1  0.29636500  0.15042833  0.15665354  1.0
  Ni  Ni901  1  0.29636500  0.48376167  0.15665354  1.0
  Ni  Ni902  1  0.29636500  0.81709500  0.15665354  1.0
  Ni  Ni903  1  0.62969833  0.15042833  0.15665354  1.0
  Ni  Ni904  1  0.62969833  0.48376167  0.15665354  1.0
  Ni  Ni905  1  0.62969833  0.81709500  0.15665354  1.0
  Ni  Ni906  1  0.96303167  0.15042833  0.15665354  1.0
  Ni  Ni907  1  0.96303167  0.48376167  0.15665354  1.0
  Ni  Ni908  1  0.96303167  0.81709500  0.15665354  1.0
  Ni  Ni909  1  0.12969833  0.15042833  0.22808211  1.0
  Ni  Ni910  1  0.12969833  0.48376167  0.22808211  1.0
  Ni  Ni911  1  0.12969833  0.81709500  0.22808211  1.0
  Ni  Ni912  1  0.46303167  0.15042833  0.22808211  1.0
  Ni  Ni913  1  0.46303167  0.48376167  0.22808211  1.0
  Ni  Ni914  1  0.46303167  0.81709500  0.22808211  1.0
  Ni  Ni915  1  0.79636500  0.15042833  0.22808211  1.0
  Ni  Ni916  1  0.79636500  0.48376167  0.22808211  1.0
  Ni  Ni917  1  0.79636500  0.81709500  0.22808211  1.0
  Ni  Ni918  1  0.23406283  0.11571100  0.20122489  1.0
  Ni  Ni919  1  0.23406283  0.44904433  0.20122489  1.0
  Ni  Ni920  1  0.23406283  0.78237767  0.20122489  1.0
  Ni  Ni921  1  0.56739617  0.11571100  0.20122489  1.0
  Ni  Ni922  1  0.56739617  0.44904433  0.20122489  1.0
  Ni  Ni923  1  0.56739617  0.78237767  0.20122489  1.0
  Ni  Ni924  1  0.90072950  0.11571100  0.20122489  1.0
  Ni  Ni925  1  0.90072950  0.44904433  0.20122489  1.0
  Ni  Ni926  1  0.90072950  0.78237767  0.20122489  1.0
  Ni  Ni927  1  0.06739617  0.11571100  0.27265346  1.0
  Ni  Ni928  1  0.06739617  0.44904433  0.27265346  1.0
  Ni  Ni929  1  0.06739617  0.78237767  0.27265346  1.0
  Ni  Ni930  1  0.40072950  0.11571100  0.27265346  1.0
  Ni  Ni931  1  0.40072950  0.44904433  0.27265346  1.0
  Ni  Ni932  1  0.40072950  0.78237767  0.27265346  1.0
  Ni  Ni933  1  0.73406283  0.11571100  0.27265346  1.0
  Ni  Ni934  1  0.73406283  0.44904433  0.27265346  1.0
  Ni  Ni935  1  0.73406283  0.78237767  0.27265346  1.0
  Ni  Ni936  1  0.26593717  0.21762233  0.14585561  1.0
  Ni  Ni937  1  0.26593717  0.55095567  0.14585561  1.0
  Ni  Ni938  1  0.26593717  0.88428900  0.14585561  1.0
  Ni  Ni939  1  0.59927050  0.21762233  0.14585561  1.0
  Ni  Ni940  1  0.59927050  0.55095567  0.14585561  1.0
  Ni  Ni941  1  0.59927050  0.88428900  0.14585561  1.0
  Ni  Ni942  1  0.93260383  0.21762233  0.14585561  1.0
  Ni  Ni943  1  0.93260383  0.55095567  0.14585561  1.0
  Ni  Ni944  1  0.93260383  0.88428900  0.14585561  1.0
  Ni  Ni945  1  0.09927050  0.21762233  0.21728418  1.0
  Ni  Ni946  1  0.09927050  0.55095567  0.21728418  1.0
  Ni  Ni947  1  0.09927050  0.88428900  0.21728418  1.0
  Ni  Ni948  1  0.43260383  0.21762233  0.21728418  1.0
  Ni  Ni949  1  0.43260383  0.55095567  0.21728418  1.0
  Ni  Ni950  1  0.43260383  0.88428900  0.21728418  1.0
  Ni  Ni951  1  0.76593717  0.21762233  0.21728418  1.0
  Ni  Ni952  1  0.76593717  0.55095567  0.21728418  1.0
  Ni  Ni953  1  0.76593717  0.88428900  0.21728418  1.0
  Ni  Ni954  1  0.03825283  0.00955900  0.24127118  1.0
  Ni  Ni955  1  0.03825283  0.34289233  0.24127118  1.0
  Ni  Ni956  1  0.03825283  0.67622567  0.24127118  1.0
  Ni  Ni957  1  0.37158617  0.00955900  0.24127118  1.0
  Ni  Ni958  1  0.37158617  0.34289233  0.24127118  1.0
  Ni  Ni959  1  0.37158617  0.67622567  0.24127118  1.0
  Ni  Ni960  1  0.70491950  0.00955900  0.24127118  1.0
  Ni  Ni961  1  0.70491950  0.34289233  0.24127118  1.0
  Ni  Ni962  1  0.70491950  0.67622567  0.24127118  1.0
  Ni  Ni963  1  0.20491950  0.00955900  0.16984261  1.0
  Ni  Ni964  1  0.20491950  0.34289233  0.16984261  1.0
  Ni  Ni965  1  0.20491950  0.67622567  0.16984261  1.0
  Ni  Ni966  1  0.53825283  0.00955900  0.16984261  1.0
  Ni  Ni967  1  0.53825283  0.34289233  0.16984261  1.0
  Ni  Ni968  1  0.53825283  0.67622567  0.16984261  1.0
  Ni  Ni969  1  0.87158617  0.00955900  0.16984261  1.0
  Ni  Ni970  1  0.87158617  0.34289233  0.16984261  1.0
  Ni  Ni971  1  0.87158617  0.67622567  0.16984261  1.0
  Ni  Ni972  1  0.12841383  0.32377433  0.24866646  1.0
  Ni  Ni973  1  0.12841383  0.65710767  0.24866646  1.0
  Ni  Ni974  1  0.12841383  0.99044100  0.24866646  1.0
  Ni  Ni975  1  0.46174717  0.32377433  0.24866646  1.0
  Ni  Ni976  1  0.46174717  0.65710767  0.24866646  1.0
  Ni  Ni977  1  0.46174717  0.99044100  0.24866646  1.0
  Ni  Ni978  1  0.79508050  0.32377433  0.24866646  1.0
  Ni  Ni979  1  0.79508050  0.65710767  0.24866646  1.0
  Ni  Ni980  1  0.79508050  0.99044100  0.24866646  1.0
  Ni  Ni981  1  0.29508050  0.32377433  0.17723789  1.0
  Ni  Ni982  1  0.29508050  0.65710767  0.17723789  1.0
  Ni  Ni983  1  0.29508050  0.99044100  0.17723789  1.0
  Ni  Ni984  1  0.62841383  0.32377433  0.17723789  1.0
  Ni  Ni985  1  0.62841383  0.65710767  0.17723789  1.0
  Ni  Ni986  1  0.62841383  0.99044100  0.17723789  1.0
  Ni  Ni987  1  0.96174717  0.32377433  0.17723789  1.0
  Ni  Ni988  1  0.96174717  0.65710767  0.17723789  1.0
  Ni  Ni989  1  0.96174717  0.99044100  0.17723789  1.0
  Ni  Ni990  1  0.20706717  0.17901800  0.28384704  1.0
  Ni  Ni991  1  0.20706717  0.51235133  0.28384704  1.0
  Ni  Ni992  1  0.20706717  0.84568467  0.28384704  1.0
  Ni  Ni993  1  0.54040050  0.17901800  0.28384704  1.0
  Ni  Ni994  1  0.54040050  0.51235133  0.28384704  1.0
  Ni  Ni995  1  0.54040050  0.84568467  0.28384704  1.0
  Ni  Ni996  1  0.87373383  0.17901800  0.28384704  1.0
  Ni  Ni997  1  0.87373383  0.51235133  0.28384704  1.0
  Ni  Ni998  1  0.87373383  0.84568467  0.28384704  1.0
  Ni  Ni999  1  0.04040050  0.17901800  0.21241846  1.0
  Ni  Ni1000  1  0.04040050  0.51235133  0.21241846  1.0
  Ni  Ni1001  1  0.04040050  0.84568467  0.21241846  1.0
  Ni  Ni1002  1  0.37373383  0.17901800  0.21241846  1.0
  Ni  Ni1003  1  0.37373383  0.51235133  0.21241846  1.0
  Ni  Ni1004  1  0.37373383  0.84568467  0.21241846  1.0
  Ni  Ni1005  1  0.70706717  0.17901800  0.21241846  1.0
  Ni  Ni1006  1  0.70706717  0.51235133  0.21241846  1.0
  Ni  Ni1007  1  0.70706717  0.84568467  0.21241846  1.0
  Ni  Ni1008  1  0.29293283  0.15431533  0.20609061  1.0
  Ni  Ni1009  1  0.29293283  0.48764867  0.20609061  1.0
  Ni  Ni1010  1  0.29293283  0.82098200  0.20609061  1.0
  Ni  Ni1011  1  0.62626617  0.15431533  0.20609061  1.0
  Ni  Ni1012  1  0.62626617  0.48764867  0.20609061  1.0
  Ni  Ni1013  1  0.62626617  0.82098200  0.20609061  1.0
  Ni  Ni1014  1  0.95959950  0.15431533  0.20609061  1.0
  Ni  Ni1015  1  0.95959950  0.48764867  0.20609061  1.0
  Ni  Ni1016  1  0.95959950  0.82098200  0.20609061  1.0
  Ni  Ni1017  1  0.12626617  0.15431533  0.27751918  1.0
  Ni  Ni1018  1  0.12626617  0.48764867  0.27751918  1.0
  Ni  Ni1019  1  0.12626617  0.82098200  0.27751918  1.0
  Ni  Ni1020  1  0.45959950  0.15431533  0.27751918  1.0
  Ni  Ni1021  1  0.45959950  0.48764867  0.27751918  1.0
  Ni  Ni1022  1  0.45959950  0.82098200  0.27751918  1.0
  Ni  Ni1023  1  0.79293283  0.15431533  0.27751918  1.0
  Ni  Ni1024  1  0.79293283  0.48764867  0.27751918  1.0
  Ni  Ni1025  1  0.79293283  0.82098200  0.27751918  1.0
  Ni  Ni1026  1  0.07510500  0.28095433  0.21128725  1.0
  Ni  Ni1027  1  0.07510500  0.61428767  0.21128725  1.0
  Ni  Ni1028  1  0.07510500  0.94762100  0.21128725  1.0
  Ni  Ni1029  1  0.40843833  0.28095433  0.21128725  1.0
  Ni  Ni1030  1  0.40843833  0.61428767  0.21128725  1.0
  Ni  Ni1031  1  0.40843833  0.94762100  0.21128725  1.0
  Ni  Ni1032  1  0.74177167  0.28095433  0.21128725  1.0
  Ni  Ni1033  1  0.74177167  0.61428767  0.21128725  1.0
  Ni  Ni1034  1  0.74177167  0.94762100  0.21128725  1.0
  Ni  Ni1035  1  0.24177167  0.28095433  0.28271582  1.0
  Ni  Ni1036  1  0.24177167  0.61428767  0.28271582  1.0
  Ni  Ni1037  1  0.24177167  0.94762100  0.28271582  1.0
  Ni  Ni1038  1  0.57510500  0.28095433  0.28271582  1.0
  Ni  Ni1039  1  0.57510500  0.61428767  0.28271582  1.0
  Ni  Ni1040  1  0.57510500  0.94762100  0.28271582  1.0
  Ni  Ni1041  1  0.90843833  0.28095433  0.28271582  1.0
  Ni  Ni1042  1  0.90843833  0.61428767  0.28271582  1.0
  Ni  Ni1043  1  0.90843833  0.94762100  0.28271582  1.0
  Hf  Hf1044  1  0.30357633  0.15526267  0.40178454  1.0
  Hf  Hf1045  1  0.30357633  0.48859600  0.40178454  1.0
  Hf  Hf1046  1  0.30357633  0.82192933  0.40178454  1.0
  Hf  Hf1047  1  0.63690967  0.15526267  0.40178454  1.0
  Hf  Hf1048  1  0.63690967  0.48859600  0.40178454  1.0
  Hf  Hf1049  1  0.63690967  0.82192933  0.40178454  1.0
  Hf  Hf1050  1  0.97024300  0.15526267  0.40178454  1.0
  Hf  Hf1051  1  0.97024300  0.48859600  0.40178454  1.0
  Hf  Hf1052  1  0.97024300  0.82192933  0.40178454  1.0
  Hf  Hf1053  1  0.13690967  0.15526267  0.33035596  1.0
  Hf  Hf1054  1  0.13690967  0.48859600  0.33035596  1.0
  Hf  Hf1055  1  0.13690967  0.82192933  0.33035596  1.0
  Hf  Hf1056  1  0.47024300  0.15526267  0.33035596  1.0
  Hf  Hf1057  1  0.47024300  0.48859600  0.33035596  1.0
  Hf  Hf1058  1  0.47024300  0.82192933  0.33035596  1.0
  Hf  Hf1059  1  0.80357633  0.15526267  0.33035596  1.0
  Hf  Hf1060  1  0.80357633  0.48859600  0.33035596  1.0
  Hf  Hf1061  1  0.80357633  0.82192933  0.33035596  1.0
  Hf  Hf1062  1  0.19642367  0.17807067  0.37386739  1.0
  Hf  Hf1063  1  0.19642367  0.51140400  0.37386739  1.0
  Hf  Hf1064  1  0.19642367  0.84473733  0.37386739  1.0
  Hf  Hf1065  1  0.52975700  0.17807067  0.37386739  1.0
  Hf  Hf1066  1  0.52975700  0.51140400  0.37386739  1.0
  Hf  Hf1067  1  0.52975700  0.84473733  0.37386739  1.0
  Hf  Hf1068  1  0.86309033  0.17807067  0.37386739  1.0
  Hf  Hf1069  1  0.86309033  0.51140400  0.37386739  1.0
  Hf  Hf1070  1  0.86309033  0.84473733  0.37386739  1.0
  Hf  Hf1071  1  0.02975700  0.17807067  0.30243882  1.0
  Hf  Hf1072  1  0.02975700  0.51140400  0.30243882  1.0
  Hf  Hf1073  1  0.02975700  0.84473733  0.30243882  1.0
  Hf  Hf1074  1  0.36309033  0.17807067  0.30243882  1.0
  Hf  Hf1075  1  0.36309033  0.51140400  0.30243882  1.0
  Hf  Hf1076  1  0.36309033  0.84473733  0.30243882  1.0
  Hf  Hf1077  1  0.69642367  0.17807067  0.30243882  1.0
  Hf  Hf1078  1  0.69642367  0.51140400  0.30243882  1.0
  Hf  Hf1079  1  0.69642367  0.84473733  0.30243882  1.0
  Hf  Hf1080  1  0.17969900  0.24843633  0.42389282  1.0
  Hf  Hf1081  1  0.17969900  0.58176967  0.42389282  1.0
  Hf  Hf1082  1  0.17969900  0.91510300  0.42389282  1.0
  Hf  Hf1083  1  0.51303233  0.24843633  0.42389282  1.0
  Hf  Hf1084  1  0.51303233  0.58176967  0.42389282  1.0
  Hf  Hf1085  1  0.51303233  0.91510300  0.42389282  1.0
  Hf  Hf1086  1  0.84636567  0.24843633  0.42389282  1.0
  Hf  Hf1087  1  0.84636567  0.58176967  0.42389282  1.0
  Hf  Hf1088  1  0.84636567  0.91510300  0.42389282  1.0
  Hf  Hf1089  1  0.01303233  0.24843633  0.35246425  1.0
  Hf  Hf1090  1  0.01303233  0.58176967  0.35246425  1.0
  Hf  Hf1091  1  0.01303233  0.91510300  0.35246425  1.0
  Hf  Hf1092  1  0.34636567  0.24843633  0.35246425  1.0
  Hf  Hf1093  1  0.34636567  0.58176967  0.35246425  1.0
  Hf  Hf1094  1  0.34636567  0.91510300  0.35246425  1.0
  Hf  Hf1095  1  0.67969900  0.24843633  0.35246425  1.0
  Hf  Hf1096  1  0.67969900  0.58176967  0.35246425  1.0
  Hf  Hf1097  1  0.67969900  0.91510300  0.35246425  1.0
  Hf  Hf1098  1  0.32030100  0.08489700  0.35175911  1.0
  Hf  Hf1099  1  0.32030100  0.41823033  0.35175911  1.0
  Hf  Hf1100  1  0.32030100  0.75156367  0.35175911  1.0
  Hf  Hf1101  1  0.65363433  0.08489700  0.35175911  1.0
  Hf  Hf1102  1  0.65363433  0.41823033  0.35175911  1.0
  Hf  Hf1103  1  0.65363433  0.75156367  0.35175911  1.0
  Hf  Hf1104  1  0.98696767  0.08489700  0.35175911  1.0
  Hf  Hf1105  1  0.98696767  0.41823033  0.35175911  1.0
  Hf  Hf1106  1  0.98696767  0.75156367  0.35175911  1.0
  Hf  Hf1107  1  0.15363433  0.08489700  0.42318768  1.0
  Hf  Hf1108  1  0.15363433  0.41823033  0.42318768  1.0
  Hf  Hf1109  1  0.15363433  0.75156367  0.42318768  1.0
  Hf  Hf1110  1  0.48696767  0.08489700  0.42318768  1.0
  Hf  Hf1111  1  0.48696767  0.41823033  0.42318768  1.0
  Hf  Hf1112  1  0.48696767  0.75156367  0.42318768  1.0
  Hf  Hf1113  1  0.82030100  0.08489700  0.42318768  1.0
  Hf  Hf1114  1  0.82030100  0.41823033  0.42318768  1.0
  Hf  Hf1115  1  0.82030100  0.75156367  0.42318768  1.0
  Hf  Hf1116  1  0.09319517  0.06184167  0.37824061  1.0
  Hf  Hf1117  1  0.09319517  0.39517500  0.37824061  1.0
  Hf  Hf1118  1  0.09319517  0.72850833  0.37824061  1.0
  Hf  Hf1119  1  0.42652850  0.06184167  0.37824061  1.0
  Hf  Hf1120  1  0.42652850  0.39517500  0.37824061  1.0
  Hf  Hf1121  1  0.42652850  0.72850833  0.37824061  1.0
  Hf  Hf1122  1  0.75986183  0.06184167  0.37824061  1.0
  Hf  Hf1123  1  0.75986183  0.39517500  0.37824061  1.0
  Hf  Hf1124  1  0.75986183  0.72850833  0.37824061  1.0
  Hf  Hf1125  1  0.25986183  0.06184167  0.30681204  1.0
  Hf  Hf1126  1  0.25986183  0.39517500  0.30681204  1.0
  Hf  Hf1127  1  0.25986183  0.72850833  0.30681204  1.0
  Hf  Hf1128  1  0.59319517  0.06184167  0.30681204  1.0
  Hf  Hf1129  1  0.59319517  0.39517500  0.30681204  1.0
  Hf  Hf1130  1  0.59319517  0.72850833  0.30681204  1.0
  Hf  Hf1131  1  0.92652850  0.06184167  0.30681204  1.0
  Hf  Hf1132  1  0.92652850  0.39517500  0.30681204  1.0
  Hf  Hf1133  1  0.92652850  0.72850833  0.30681204  1.0
  Hf  Hf1134  1  0.07347150  0.27149167  0.39741132  1.0
  Hf  Hf1135  1  0.07347150  0.60482500  0.39741132  1.0
  Hf  Hf1136  1  0.07347150  0.93815833  0.39741132  1.0
  Hf  Hf1137  1  0.40680483  0.27149167  0.39741132  1.0
  Hf  Hf1138  1  0.40680483  0.60482500  0.39741132  1.0
  Hf  Hf1139  1  0.40680483  0.93815833  0.39741132  1.0
  Hf  Hf1140  1  0.74013817  0.27149167  0.39741132  1.0
  Hf  Hf1141  1  0.74013817  0.60482500  0.39741132  1.0
  Hf  Hf1142  1  0.74013817  0.93815833  0.39741132  1.0
  Hf  Hf1143  1  0.24013817  0.27149167  0.32598275  1.0
  Hf  Hf1144  1  0.24013817  0.60482500  0.32598275  1.0
  Hf  Hf1145  1  0.24013817  0.93815833  0.32598275  1.0
  Hf  Hf1146  1  0.57347150  0.27149167  0.32598275  1.0
  Hf  Hf1147  1  0.57347150  0.60482500  0.32598275  1.0
  Hf  Hf1148  1  0.57347150  0.93815833  0.32598275  1.0
  Hf  Hf1149  1  0.90680483  0.27149167  0.32598275  1.0
  Hf  Hf1150  1  0.90680483  0.60482500  0.32598275  1.0
  Hf  Hf1151  1  0.90680483  0.93815833  0.32598275  1.0
  Hf  Hf1152  1  0.16112433  0.29757433  0.35862654  1.0
  Hf  Hf1153  1  0.16112433  0.63090767  0.35862654  1.0
  Hf  Hf1154  1  0.16112433  0.96424100  0.35862654  1.0
  Hf  Hf1155  1  0.49445767  0.29757433  0.35862654  1.0
  Hf  Hf1156  1  0.49445767  0.63090767  0.35862654  1.0
  Hf  Hf1157  1  0.49445767  0.96424100  0.35862654  1.0
  Hf  Hf1158  1  0.82779100  0.29757433  0.35862654  1.0
  Hf  Hf1159  1  0.82779100  0.63090767  0.35862654  1.0
  Hf  Hf1160  1  0.82779100  0.96424100  0.35862654  1.0
  Hf  Hf1161  1  0.32779100  0.29757433  0.28719796  1.0
  Hf  Hf1162  1  0.32779100  0.63090767  0.28719796  1.0
  Hf  Hf1163  1  0.32779100  0.96424100  0.28719796  1.0
  Hf  Hf1164  1  0.66112433  0.29757433  0.28719796  1.0
  Hf  Hf1165  1  0.66112433  0.63090767  0.28719796  1.0
  Hf  Hf1166  1  0.66112433  0.96424100  0.28719796  1.0
  Hf  Hf1167  1  0.99445767  0.29757433  0.28719796  1.0
  Hf  Hf1168  1  0.99445767  0.63090767  0.28719796  1.0
  Hf  Hf1169  1  0.99445767  0.96424100  0.28719796  1.0
  Hf  Hf1170  1  0.00554233  0.03575900  0.41702539  1.0
  Hf  Hf1171  1  0.00554233  0.36909233  0.41702539  1.0
  Hf  Hf1172  1  0.00554233  0.70242567  0.41702539  1.0
  Hf  Hf1173  1  0.33887567  0.03575900  0.41702539  1.0
  Hf  Hf1174  1  0.33887567  0.36909233  0.41702539  1.0
  Hf  Hf1175  1  0.33887567  0.70242567  0.41702539  1.0
  Hf  Hf1176  1  0.67220900  0.03575900  0.41702539  1.0
  Hf  Hf1177  1  0.67220900  0.36909233  0.41702539  1.0
  Hf  Hf1178  1  0.67220900  0.70242567  0.41702539  1.0
  Hf  Hf1179  1  0.17220900  0.03575900  0.34559682  1.0
  Hf  Hf1180  1  0.17220900  0.36909233  0.34559682  1.0
  Hf  Hf1181  1  0.17220900  0.70242567  0.34559682  1.0
  Hf  Hf1182  1  0.50554233  0.03575900  0.34559682  1.0
  Hf  Hf1183  1  0.50554233  0.36909233  0.34559682  1.0
  Hf  Hf1184  1  0.50554233  0.70242567  0.34559682  1.0
  Hf  Hf1185  1  0.83887567  0.03575900  0.34559682  1.0
  Hf  Hf1186  1  0.83887567  0.36909233  0.34559682  1.0
  Hf  Hf1187  1  0.83887567  0.70242567  0.34559682  1.0
  Ni  Ni1188  1  0.16666667  0.16666667  0.42354025  1.0
  Ni  Ni1189  1  0.16666667  0.50000000  0.42354025  1.0
  Ni  Ni1190  1  0.16666667  0.83333333  0.42354025  1.0
  Ni  Ni1191  1  0.50000000  0.16666667  0.42354025  1.0
  Ni  Ni1192  1  0.50000000  0.50000000  0.42354025  1.0
  Ni  Ni1193  1  0.50000000  0.83333333  0.42354025  1.0
  Ni  Ni1194  1  0.83333333  0.16666667  0.42354025  1.0
  Ni  Ni1195  1  0.83333333  0.50000000  0.42354025  1.0
  Ni  Ni1196  1  0.83333333  0.83333333  0.42354025  1.0
  Ni  Ni1197  1  0.00000000  0.16666667  0.35211168  1.0
  Ni  Ni1198  1  0.00000000  0.50000000  0.35211168  1.0
  Ni  Ni1199  1  0.00000000  0.83333333  0.35211168  1.0
  Ni  Ni1200  1  0.33333333  0.16666667  0.35211168  1.0
  Ni  Ni1201  1  0.33333333  0.50000000  0.35211168  1.0
  Ni  Ni1202  1  0.33333333  0.83333333  0.35211168  1.0
  Ni  Ni1203  1  0.66666667  0.16666667  0.35211168  1.0
  Ni  Ni1204  1  0.66666667  0.50000000  0.35211168  1.0
  Ni  Ni1205  1  0.66666667  0.83333333  0.35211168  1.0
  Ni  Ni1206  1  0.33306600  0.08598600  0.40664311  1.0
  Ni  Ni1207  1  0.33306600  0.41931933  0.40664311  1.0
  Ni  Ni1208  1  0.33306600  0.75265267  0.40664311  1.0
  Ni  Ni1209  1  0.66639933  0.08598600  0.40664311  1.0
  Ni  Ni1210  1  0.66639933  0.41931933  0.40664311  1.0
  Ni  Ni1211  1  0.66639933  0.75265267  0.40664311  1.0
  Ni  Ni1212  1  0.99973267  0.08598600  0.40664311  1.0
  Ni  Ni1213  1  0.99973267  0.41931933  0.40664311  1.0
  Ni  Ni1214  1  0.99973267  0.75265267  0.40664311  1.0
  Ni  Ni1215  1  0.16639933  0.08598600  0.33521454  1.0
  Ni  Ni1216  1  0.16639933  0.41931933  0.33521454  1.0
  Ni  Ni1217  1  0.16639933  0.75265267  0.33521454  1.0
  Ni  Ni1218  1  0.49973267  0.08598600  0.33521454  1.0
  Ni  Ni1219  1  0.49973267  0.41931933  0.33521454  1.0
  Ni  Ni1220  1  0.49973267  0.75265267  0.33521454  1.0
  Ni  Ni1221  1  0.83306600  0.08598600  0.33521454  1.0
  Ni  Ni1222  1  0.83306600  0.41931933  0.33521454  1.0
  Ni  Ni1223  1  0.83306600  0.75265267  0.33521454  1.0
  Ni  Ni1224  1  0.16693400  0.24734733  0.36900882  1.0
  Ni  Ni1225  1  0.16693400  0.58068067  0.36900882  1.0
  Ni  Ni1226  1  0.16693400  0.91401400  0.36900882  1.0
  Ni  Ni1227  1  0.50026733  0.24734733  0.36900882  1.0
  Ni  Ni1228  1  0.50026733  0.58068067  0.36900882  1.0
  Ni  Ni1229  1  0.50026733  0.91401400  0.36900882  1.0
  Ni  Ni1230  1  0.83360067  0.24734733  0.36900882  1.0
  Ni  Ni1231  1  0.83360067  0.58068067  0.36900882  1.0
  Ni  Ni1232  1  0.83360067  0.91401400  0.36900882  1.0
  Ni  Ni1233  1  0.00026733  0.24734733  0.29758025  1.0
  Ni  Ni1234  1  0.00026733  0.58068067  0.29758025  1.0
  Ni  Ni1235  1  0.00026733  0.91401400  0.29758025  1.0
  Ni  Ni1236  1  0.33360067  0.24734733  0.29758025  1.0
  Ni  Ni1237  1  0.33360067  0.58068067  0.29758025  1.0
  Ni  Ni1238  1  0.33360067  0.91401400  0.29758025  1.0
  Ni  Ni1239  1  0.66693400  0.24734733  0.29758025  1.0
  Ni  Ni1240  1  0.66693400  0.58068067  0.29758025  1.0
  Ni  Ni1241  1  0.66693400  0.91401400  0.29758025  1.0
  Ni  Ni1242  1  0.26525600  0.21822533  0.36333482  1.0
  Ni  Ni1243  1  0.26525600  0.55155867  0.36333482  1.0
  Ni  Ni1244  1  0.26525600  0.88489200  0.36333482  1.0
  Ni  Ni1245  1  0.59858933  0.21822533  0.36333482  1.0
  Ni  Ni1246  1  0.59858933  0.55155867  0.36333482  1.0
  Ni  Ni1247  1  0.59858933  0.88489200  0.36333482  1.0
  Ni  Ni1248  1  0.93192267  0.21822533  0.36333482  1.0
  Ni  Ni1249  1  0.93192267  0.55155867  0.36333482  1.0
  Ni  Ni1250  1  0.93192267  0.88489200  0.36333482  1.0
  Ni  Ni1251  1  0.09858933  0.21822533  0.29190625  1.0
  Ni  Ni1252  1  0.09858933  0.55155867  0.29190625  1.0
  Ni  Ni1253  1  0.09858933  0.88489200  0.29190625  1.0
  Ni  Ni1254  1  0.43192267  0.21822533  0.29190625  1.0
  Ni  Ni1255  1  0.43192267  0.55155867  0.29190625  1.0
  Ni  Ni1256  1  0.43192267  0.88489200  0.29190625  1.0
  Ni  Ni1257  1  0.76525600  0.21822533  0.29190625  1.0
  Ni  Ni1258  1  0.76525600  0.55155867  0.29190625  1.0
  Ni  Ni1259  1  0.76525600  0.88489200  0.29190625  1.0
  Ni  Ni1260  1  0.23474400  0.11510800  0.41231711  1.0
  Ni  Ni1261  1  0.23474400  0.44844133  0.41231711  1.0
  Ni  Ni1262  1  0.23474400  0.78177467  0.41231711  1.0
  Ni  Ni1263  1  0.56807733  0.11510800  0.41231711  1.0
  Ni  Ni1264  1  0.56807733  0.44844133  0.41231711  1.0
  Ni  Ni1265  1  0.56807733  0.78177467  0.41231711  1.0
  Ni  Ni1266  1  0.90141067  0.11510800  0.41231711  1.0
  Ni  Ni1267  1  0.90141067  0.44844133  0.41231711  1.0
  Ni  Ni1268  1  0.90141067  0.78177467  0.41231711  1.0
  Ni  Ni1269  1  0.06807733  0.11510800  0.34088854  1.0
  Ni  Ni1270  1  0.06807733  0.44844133  0.34088854  1.0
  Ni  Ni1271  1  0.06807733  0.78177467  0.34088854  1.0
  Ni  Ni1272  1  0.40141067  0.11510800  0.34088854  1.0
  Ni  Ni1273  1  0.40141067  0.44844133  0.34088854  1.0
  Ni  Ni1274  1  0.40141067  0.78177467  0.34088854  1.0
  Ni  Ni1275  1  0.73474400  0.11510800  0.34088854  1.0
  Ni  Ni1276  1  0.73474400  0.44844133  0.34088854  1.0
  Ni  Ni1277  1  0.73474400  0.78177467  0.34088854  1.0
  Ni  Ni1278  1  0.12985800  0.31950600  0.29996739  1.0
  Ni  Ni1279  1  0.12985800  0.65283933  0.29996739  1.0
  Ni  Ni1280  1  0.12985800  0.98617267  0.29996739  1.0
  Ni  Ni1281  1  0.46319133  0.31950600  0.29996739  1.0
  Ni  Ni1282  1  0.46319133  0.65283933  0.29996739  1.0
  Ni  Ni1283  1  0.46319133  0.98617267  0.29996739  1.0
  Ni  Ni1284  1  0.79652467  0.31950600  0.29996739  1.0
  Ni  Ni1285  1  0.79652467  0.65283933  0.29996739  1.0
  Ni  Ni1286  1  0.79652467  0.98617267  0.29996739  1.0
  Ni  Ni1287  1  0.29652467  0.31950600  0.37139596  1.0
  Ni  Ni1288  1  0.29652467  0.65283933  0.37139596  1.0
  Ni  Ni1289  1  0.29652467  0.98617267  0.37139596  1.0
  Ni  Ni1290  1  0.62985800  0.31950600  0.37139596  1.0
  Ni  Ni1291  1  0.62985800  0.65283933  0.37139596  1.0
  Ni  Ni1292  1  0.62985800  0.98617267  0.37139596  1.0
  Ni  Ni1293  1  0.96319133  0.31950600  0.37139596  1.0
  Ni  Ni1294  1  0.96319133  0.65283933  0.37139596  1.0
  Ni  Ni1295  1  0.96319133  0.98617267  0.37139596  1.0
  Ni  Ni1296  1  0.03680867  0.01382733  0.33282739  1.0
  Ni  Ni1297  1  0.03680867  0.34716067  0.33282739  1.0
  Ni  Ni1298  1  0.03680867  0.68049400  0.33282739  1.0
  Ni  Ni1299  1  0.37014200  0.01382733  0.33282739  1.0
  Ni  Ni1300  1  0.37014200  0.34716067  0.33282739  1.0
  Ni  Ni1301  1  0.37014200  0.68049400  0.33282739  1.0
  Ni  Ni1302  1  0.70347533  0.01382733  0.33282739  1.0
  Ni  Ni1303  1  0.70347533  0.34716067  0.33282739  1.0
  Ni  Ni1304  1  0.70347533  0.68049400  0.33282739  1.0
  Ni  Ni1305  1  0.20347533  0.01382733  0.40425596  1.0
  Ni  Ni1306  1  0.20347533  0.34716067  0.40425596  1.0
  Ni  Ni1307  1  0.20347533  0.68049400  0.40425596  1.0
  Ni  Ni1308  1  0.53680867  0.01382733  0.40425596  1.0
  Ni  Ni1309  1  0.53680867  0.34716067  0.40425596  1.0
  Ni  Ni1310  1  0.53680867  0.68049400  0.40425596  1.0
  Ni  Ni1311  1  0.87014200  0.01382733  0.40425596  1.0
  Ni  Ni1312  1  0.87014200  0.34716067  0.40425596  1.0
  Ni  Ni1313  1  0.87014200  0.68049400  0.40425596  1.0
  Ni  Ni1314  1  0.09156167  0.05237900  0.42150754  1.0
  Ni  Ni1315  1  0.09156167  0.38571233  0.42150754  1.0
  Ni  Ni1316  1  0.09156167  0.71904567  0.42150754  1.0
  Ni  Ni1317  1  0.42489500  0.05237900  0.42150754  1.0
  Ni  Ni1318  1  0.42489500  0.38571233  0.42150754  1.0
  Ni  Ni1319  1  0.42489500  0.71904567  0.42150754  1.0
  Ni  Ni1320  1  0.75822833  0.05237900  0.42150754  1.0
  Ni  Ni1321  1  0.75822833  0.38571233  0.42150754  1.0
  Ni  Ni1322  1  0.75822833  0.71904567  0.42150754  1.0
  Ni  Ni1323  1  0.25822833  0.05237900  0.35007896  1.0
  Ni  Ni1324  1  0.25822833  0.38571233  0.35007896  1.0
  Ni  Ni1325  1  0.25822833  0.71904567  0.35007896  1.0
  Ni  Ni1326  1  0.59156167  0.05237900  0.35007896  1.0
  Ni  Ni1327  1  0.59156167  0.38571233  0.35007896  1.0
  Ni  Ni1328  1  0.59156167  0.71904567  0.35007896  1.0
  Ni  Ni1329  1  0.92489500  0.05237900  0.35007896  1.0
  Ni  Ni1330  1  0.92489500  0.38571233  0.35007896  1.0
  Ni  Ni1331  1  0.92489500  0.71904567  0.35007896  1.0
  Ni  Ni1332  1  0.06987767  0.28329867  0.30294354  1.0
  Ni  Ni1333  1  0.06987767  0.61663200  0.30294354  1.0
  Ni  Ni1334  1  0.06987767  0.94996533  0.30294354  1.0
  Ni  Ni1335  1  0.40321100  0.28329867  0.30294354  1.0
  Ni  Ni1336  1  0.40321100  0.61663200  0.30294354  1.0
  Ni  Ni1337  1  0.40321100  0.94996533  0.30294354  1.0
  Ni  Ni1338  1  0.73654433  0.28329867  0.30294354  1.0
  Ni  Ni1339  1  0.73654433  0.61663200  0.30294354  1.0
  Ni  Ni1340  1  0.73654433  0.94996533  0.30294354  1.0
  Ni  Ni1341  1  0.23654433  0.28329867  0.37437211  1.0
  Ni  Ni1342  1  0.23654433  0.61663200  0.37437211  1.0
  Ni  Ni1343  1  0.23654433  0.94996533  0.37437211  1.0
  Ni  Ni1344  1  0.56987767  0.28329867  0.37437211  1.0
  Ni  Ni1345  1  0.56987767  0.61663200  0.37437211  1.0
  Ni  Ni1346  1  0.56987767  0.94996533  0.37437211  1.0
  Ni  Ni1347  1  0.90321100  0.28329867  0.37437211  1.0
  Ni  Ni1348  1  0.90321100  0.61663200  0.37437211  1.0
  Ni  Ni1349  1  0.90321100  0.94996533  0.37437211  1.0
  Ni  Ni1350  1  0.09678900  0.05003467  0.32985125  1.0
  Ni  Ni1351  1  0.09678900  0.38336800  0.32985125  1.0
  Ni  Ni1352  1  0.09678900  0.71670133  0.32985125  1.0
  Ni  Ni1353  1  0.43012233  0.05003467  0.32985125  1.0
  Ni  Ni1354  1  0.43012233  0.38336800  0.32985125  1.0
  Ni  Ni1355  1  0.43012233  0.71670133  0.32985125  1.0
  Ni  Ni1356  1  0.76345567  0.05003467  0.32985125  1.0
  Ni  Ni1357  1  0.76345567  0.38336800  0.32985125  1.0
  Ni  Ni1358  1  0.76345567  0.71670133  0.32985125  1.0
  Ni  Ni1359  1  0.26345567  0.05003467  0.40127982  1.0
  Ni  Ni1360  1  0.26345567  0.38336800  0.40127982  1.0
  Ni  Ni1361  1  0.26345567  0.71670133  0.40127982  1.0
  Ni  Ni1362  1  0.59678900  0.05003467  0.40127982  1.0
  Ni  Ni1363  1  0.59678900  0.38336800  0.40127982  1.0
  Ni  Ni1364  1  0.59678900  0.71670133  0.40127982  1.0
  Ni  Ni1365  1  0.93012233  0.05003467  0.40127982  1.0
  Ni  Ni1366  1  0.93012233  0.38336800  0.40127982  1.0
  Ni  Ni1367  1  0.93012233  0.71670133  0.40127982  1.0
  Ni  Ni1368  1  0.15509517  0.25878833  0.31770218  1.0
  Ni  Ni1369  1  0.15509517  0.59212167  0.31770218  1.0
  Ni  Ni1370  1  0.15509517  0.92545500  0.31770218  1.0
  Ni  Ni1371  1  0.48842850  0.25878833  0.31770218  1.0
  Ni  Ni1372  1  0.48842850  0.59212167  0.31770218  1.0
  Ni  Ni1373  1  0.48842850  0.92545500  0.31770218  1.0
  Ni  Ni1374  1  0.82176183  0.25878833  0.31770218  1.0
  Ni  Ni1375  1  0.82176183  0.59212167  0.31770218  1.0
  Ni  Ni1376  1  0.82176183  0.92545500  0.31770218  1.0
  Ni  Ni1377  1  0.32176183  0.25878833  0.38913075  1.0
  Ni  Ni1378  1  0.32176183  0.59212167  0.38913075  1.0
  Ni  Ni1379  1  0.32176183  0.92545500  0.38913075  1.0
  Ni  Ni1380  1  0.65509517  0.25878833  0.38913075  1.0
  Ni  Ni1381  1  0.65509517  0.59212167  0.38913075  1.0
  Ni  Ni1382  1  0.65509517  0.92545500  0.38913075  1.0
  Ni  Ni1383  1  0.98842850  0.25878833  0.38913075  1.0
  Ni  Ni1384  1  0.98842850  0.59212167  0.38913075  1.0
  Ni  Ni1385  1  0.98842850  0.92545500  0.38913075  1.0
  Ni  Ni1386  1  0.01157150  0.07454500  0.31509261  1.0
  Ni  Ni1387  1  0.01157150  0.40787833  0.31509261  1.0
  Ni  Ni1388  1  0.01157150  0.74121167  0.31509261  1.0
  Ni  Ni1389  1  0.34490483  0.07454500  0.31509261  1.0
  Ni  Ni1390  1  0.34490483  0.40787833  0.31509261  1.0
  Ni  Ni1391  1  0.34490483  0.74121167  0.31509261  1.0
  Ni  Ni1392  1  0.67823817  0.07454500  0.31509261  1.0
  Ni  Ni1393  1  0.67823817  0.40787833  0.31509261  1.0
  Ni  Ni1394  1  0.67823817  0.74121167  0.31509261  1.0
  Ni  Ni1395  1  0.17823817  0.07454500  0.38652118  1.0
  Ni  Ni1396  1  0.17823817  0.40787833  0.38652118  1.0
  Ni  Ni1397  1  0.17823817  0.74121167  0.38652118  1.0
  Ni  Ni1398  1  0.51157150  0.07454500  0.38652118  1.0
  Ni  Ni1399  1  0.51157150  0.40787833  0.38652118  1.0
  Ni  Ni1400  1  0.51157150  0.74121167  0.38652118  1.0
  Ni  Ni1401  1  0.84490483  0.07454500  0.38652118  1.0
  Ni  Ni1402  1  0.84490483  0.40787833  0.38652118  1.0
  Ni  Ni1403  1  0.84490483  0.74121167  0.38652118  1.0
  Ni  Ni1404  1  0.20363500  0.18290500  0.33328411  1.0
  Ni  Ni1405  1  0.20363500  0.51623833  0.33328411  1.0
  Ni  Ni1406  1  0.20363500  0.84957167  0.33328411  1.0
  Ni  Ni1407  1  0.53696833  0.18290500  0.33328411  1.0
  Ni  Ni1408  1  0.53696833  0.51623833  0.33328411  1.0
  Ni  Ni1409  1  0.53696833  0.84957167  0.33328411  1.0
  Ni  Ni1410  1  0.87030167  0.18290500  0.33328411  1.0
  Ni  Ni1411  1  0.87030167  0.51623833  0.33328411  1.0
  Ni  Ni1412  1  0.87030167  0.84957167  0.33328411  1.0
  Ni  Ni1413  1  0.03696833  0.18290500  0.40471268  1.0
  Ni  Ni1414  1  0.03696833  0.51623833  0.40471268  1.0
  Ni  Ni1415  1  0.03696833  0.84957167  0.40471268  1.0
  Ni  Ni1416  1  0.37030167  0.18290500  0.40471268  1.0
  Ni  Ni1417  1  0.37030167  0.51623833  0.40471268  1.0
  Ni  Ni1418  1  0.37030167  0.84957167  0.40471268  1.0
  Ni  Ni1419  1  0.70363500  0.18290500  0.40471268  1.0
  Ni  Ni1420  1  0.70363500  0.51623833  0.40471268  1.0
  Ni  Ni1421  1  0.70363500  0.84957167  0.40471268  1.0
  Ni  Ni1422  1  0.29636500  0.15042833  0.29951068  1.0
  Ni  Ni1423  1  0.29636500  0.48376167  0.29951068  1.0
  Ni  Ni1424  1  0.29636500  0.81709500  0.29951068  1.0
  Ni  Ni1425  1  0.62969833  0.15042833  0.29951068  1.0
  Ni  Ni1426  1  0.62969833  0.48376167  0.29951068  1.0
  Ni  Ni1427  1  0.62969833  0.81709500  0.29951068  1.0
  Ni  Ni1428  1  0.96303167  0.15042833  0.29951068  1.0
  Ni  Ni1429  1  0.96303167  0.48376167  0.29951068  1.0
  Ni  Ni1430  1  0.96303167  0.81709500  0.29951068  1.0
  Ni  Ni1431  1  0.12969833  0.15042833  0.37093925  1.0
  Ni  Ni1432  1  0.12969833  0.48376167  0.37093925  1.0
  Ni  Ni1433  1  0.12969833  0.81709500  0.37093925  1.0
  Ni  Ni1434  1  0.46303167  0.15042833  0.37093925  1.0
  Ni  Ni1435  1  0.46303167  0.48376167  0.37093925  1.0
  Ni  Ni1436  1  0.46303167  0.81709500  0.37093925  1.0
  Ni  Ni1437  1  0.79636500  0.15042833  0.37093925  1.0
  Ni  Ni1438  1  0.79636500  0.48376167  0.37093925  1.0
  Ni  Ni1439  1  0.79636500  0.81709500  0.37093925  1.0
  Ni  Ni1440  1  0.23406283  0.11571100  0.34408204  1.0
  Ni  Ni1441  1  0.23406283  0.44904433  0.34408204  1.0
  Ni  Ni1442  1  0.23406283  0.78237767  0.34408204  1.0
  Ni  Ni1443  1  0.56739617  0.11571100  0.34408204  1.0
  Ni  Ni1444  1  0.56739617  0.44904433  0.34408204  1.0
  Ni  Ni1445  1  0.56739617  0.78237767  0.34408204  1.0
  Ni  Ni1446  1  0.90072950  0.11571100  0.34408204  1.0
  Ni  Ni1447  1  0.90072950  0.44904433  0.34408204  1.0
  Ni  Ni1448  1  0.90072950  0.78237767  0.34408204  1.0
  Ni  Ni1449  1  0.06739617  0.11571100  0.41551061  1.0
  Ni  Ni1450  1  0.06739617  0.44904433  0.41551061  1.0
  Ni  Ni1451  1  0.06739617  0.78237767  0.41551061  1.0
  Ni  Ni1452  1  0.40072950  0.11571100  0.41551061  1.0
  Ni  Ni1453  1  0.40072950  0.44904433  0.41551061  1.0
  Ni  Ni1454  1  0.40072950  0.78237767  0.41551061  1.0
  Ni  Ni1455  1  0.73406283  0.11571100  0.41551061  1.0
  Ni  Ni1456  1  0.73406283  0.44904433  0.41551061  1.0
  Ni  Ni1457  1  0.73406283  0.78237767  0.41551061  1.0
  Ni  Ni1458  1  0.26593717  0.21762233  0.28871275  1.0
  Ni  Ni1459  1  0.26593717  0.55095567  0.28871275  1.0
  Ni  Ni1460  1  0.26593717  0.88428900  0.28871275  1.0
  Ni  Ni1461  1  0.59927050  0.21762233  0.28871275  1.0
  Ni  Ni1462  1  0.59927050  0.55095567  0.28871275  1.0
  Ni  Ni1463  1  0.59927050  0.88428900  0.28871275  1.0
  Ni  Ni1464  1  0.93260383  0.21762233  0.28871275  1.0
  Ni  Ni1465  1  0.93260383  0.55095567  0.28871275  1.0
  Ni  Ni1466  1  0.93260383  0.88428900  0.28871275  1.0
  Ni  Ni1467  1  0.09927050  0.21762233  0.36014132  1.0
  Ni  Ni1468  1  0.09927050  0.55095567  0.36014132  1.0
  Ni  Ni1469  1  0.09927050  0.88428900  0.36014132  1.0
  Ni  Ni1470  1  0.43260383  0.21762233  0.36014132  1.0
  Ni  Ni1471  1  0.43260383  0.55095567  0.36014132  1.0
  Ni  Ni1472  1  0.43260383  0.88428900  0.36014132  1.0
  Ni  Ni1473  1  0.76593717  0.21762233  0.36014132  1.0
  Ni  Ni1474  1  0.76593717  0.55095567  0.36014132  1.0
  Ni  Ni1475  1  0.76593717  0.88428900  0.36014132  1.0
  Ni  Ni1476  1  0.03825283  0.00955900  0.38412832  1.0
  Ni  Ni1477  1  0.03825283  0.34289233  0.38412832  1.0
  Ni  Ni1478  1  0.03825283  0.67622567  0.38412832  1.0
  Ni  Ni1479  1  0.37158617  0.00955900  0.38412832  1.0
  Ni  Ni1480  1  0.37158617  0.34289233  0.38412832  1.0
  Ni  Ni1481  1  0.37158617  0.67622567  0.38412832  1.0
  Ni  Ni1482  1  0.70491950  0.00955900  0.38412832  1.0
  Ni  Ni1483  1  0.70491950  0.34289233  0.38412832  1.0
  Ni  Ni1484  1  0.70491950  0.67622567  0.38412832  1.0
  Ni  Ni1485  1  0.20491950  0.00955900  0.31269975  1.0
  Ni  Ni1486  1  0.20491950  0.34289233  0.31269975  1.0
  Ni  Ni1487  1  0.20491950  0.67622567  0.31269975  1.0
  Ni  Ni1488  1  0.53825283  0.00955900  0.31269975  1.0
  Ni  Ni1489  1  0.53825283  0.34289233  0.31269975  1.0
  Ni  Ni1490  1  0.53825283  0.67622567  0.31269975  1.0
  Ni  Ni1491  1  0.87158617  0.00955900  0.31269975  1.0
  Ni  Ni1492  1  0.87158617  0.34289233  0.31269975  1.0
  Ni  Ni1493  1  0.87158617  0.67622567  0.31269975  1.0
  Ni  Ni1494  1  0.12841383  0.32377433  0.39152361  1.0
  Ni  Ni1495  1  0.12841383  0.65710767  0.39152361  1.0
  Ni  Ni1496  1  0.12841383  0.99044100  0.39152361  1.0
  Ni  Ni1497  1  0.46174717  0.32377433  0.39152361  1.0
  Ni  Ni1498  1  0.46174717  0.65710767  0.39152361  1.0
  Ni  Ni1499  1  0.46174717  0.99044100  0.39152361  1.0
  Ni  Ni1500  1  0.79508050  0.32377433  0.39152361  1.0
  Ni  Ni1501  1  0.79508050  0.65710767  0.39152361  1.0
  Ni  Ni1502  1  0.79508050  0.99044100  0.39152361  1.0
  Ni  Ni1503  1  0.29508050  0.32377433  0.32009504  1.0
  Ni  Ni1504  1  0.29508050  0.65710767  0.32009504  1.0
  Ni  Ni1505  1  0.29508050  0.99044100  0.32009504  1.0
  Ni  Ni1506  1  0.62841383  0.32377433  0.32009504  1.0
  Ni  Ni1507  1  0.62841383  0.65710767  0.32009504  1.0
  Ni  Ni1508  1  0.62841383  0.99044100  0.32009504  1.0
  Ni  Ni1509  1  0.96174717  0.32377433  0.32009504  1.0
  Ni  Ni1510  1  0.96174717  0.65710767  0.32009504  1.0
  Ni  Ni1511  1  0.96174717  0.99044100  0.32009504  1.0
  Ni  Ni1512  1  0.20706717  0.17901800  0.42670418  1.0
  Ni  Ni1513  1  0.20706717  0.51235133  0.42670418  1.0
  Ni  Ni1514  1  0.20706717  0.84568467  0.42670418  1.0
  Ni  Ni1515  1  0.54040050  0.17901800  0.42670418  1.0
  Ni  Ni1516  1  0.54040050  0.51235133  0.42670418  1.0
  Ni  Ni1517  1  0.54040050  0.84568467  0.42670418  1.0
  Ni  Ni1518  1  0.87373383  0.17901800  0.42670418  1.0
  Ni  Ni1519  1  0.87373383  0.51235133  0.42670418  1.0
  Ni  Ni1520  1  0.87373383  0.84568467  0.42670418  1.0
  Ni  Ni1521  1  0.04040050  0.17901800  0.35527561  1.0
  Ni  Ni1522  1  0.04040050  0.51235133  0.35527561  1.0
  Ni  Ni1523  1  0.04040050  0.84568467  0.35527561  1.0
  Ni  Ni1524  1  0.37373383  0.17901800  0.35527561  1.0
  Ni  Ni1525  1  0.37373383  0.51235133  0.35527561  1.0
  Ni  Ni1526  1  0.37373383  0.84568467  0.35527561  1.0
  Ni  Ni1527  1  0.70706717  0.17901800  0.35527561  1.0
  Ni  Ni1528  1  0.70706717  0.51235133  0.35527561  1.0
  Ni  Ni1529  1  0.70706717  0.84568467  0.35527561  1.0
  Ni  Ni1530  1  0.29293283  0.15431533  0.34894775  1.0
  Ni  Ni1531  1  0.29293283  0.48764867  0.34894775  1.0
  Ni  Ni1532  1  0.29293283  0.82098200  0.34894775  1.0
  Ni  Ni1533  1  0.62626617  0.15431533  0.34894775  1.0
  Ni  Ni1534  1  0.62626617  0.48764867  0.34894775  1.0
  Ni  Ni1535  1  0.62626617  0.82098200  0.34894775  1.0
  Ni  Ni1536  1  0.95959950  0.15431533  0.34894775  1.0
  Ni  Ni1537  1  0.95959950  0.48764867  0.34894775  1.0
  Ni  Ni1538  1  0.95959950  0.82098200  0.34894775  1.0
  Ni  Ni1539  1  0.12626617  0.15431533  0.42037632  1.0
  Ni  Ni1540  1  0.12626617  0.48764867  0.42037632  1.0
  Ni  Ni1541  1  0.12626617  0.82098200  0.42037632  1.0
  Ni  Ni1542  1  0.45959950  0.15431533  0.42037632  1.0
  Ni  Ni1543  1  0.45959950  0.48764867  0.42037632  1.0
  Ni  Ni1544  1  0.45959950  0.82098200  0.42037632  1.0
  Ni  Ni1545  1  0.79293283  0.15431533  0.42037632  1.0
  Ni  Ni1546  1  0.79293283  0.48764867  0.42037632  1.0
  Ni  Ni1547  1  0.79293283  0.82098200  0.42037632  1.0
  Ni  Ni1548  1  0.07510500  0.28095433  0.35414439  1.0
  Ni  Ni1549  1  0.07510500  0.61428767  0.35414439  1.0
  Ni  Ni1550  1  0.07510500  0.94762100  0.35414439  1.0
  Ni  Ni1551  1  0.40843833  0.28095433  0.35414439  1.0
  Ni  Ni1552  1  0.40843833  0.61428767  0.35414439  1.0
  Ni  Ni1553  1  0.40843833  0.94762100  0.35414439  1.0
  Ni  Ni1554  1  0.74177167  0.28095433  0.35414439  1.0
  Ni  Ni1555  1  0.74177167  0.61428767  0.35414439  1.0
  Ni  Ni1556  1  0.74177167  0.94762100  0.35414439  1.0
  Ni  Ni1557  1  0.24177167  0.28095433  0.42557296  1.0
  Ni  Ni1558  1  0.24177167  0.61428767  0.42557296  1.0
  Ni  Ni1559  1  0.24177167  0.94762100  0.42557296  1.0
  Ni  Ni1560  1  0.57510500  0.28095433  0.42557296  1.0
  Ni  Ni1561  1  0.57510500  0.61428767  0.42557296  1.0
  Ni  Ni1562  1  0.57510500  0.94762100  0.42557296  1.0
  Ni  Ni1563  1  0.90843833  0.28095433  0.42557296  1.0
  Ni  Ni1564  1  0.90843833  0.61428767  0.42557296  1.0
  Ni  Ni1565  1  0.90843833  0.94762100  0.42557296  1.0
