# generated using pymatgen
data_Hf8Ni21
_symmetry_space_group_name_H-M   'P 1'
_cell_length_a   23.95649223
_cell_length_b   37.29504971
_cell_length_c   44.86852300
_cell_angle_alpha   39.53978692
_cell_angle_beta   75.46243674
_cell_angle_gamma   72.21356783
_symmetry_Int_Tables_number   1
_chemical_formula_structural   Hf8Ni21
_chemical_formula_sum   'Hf216 Ni567'
_cell_volume   24292.95410381
_cell_formula_units_Z   27
loop_
 _symmetry_equiv_pos_site_id
 _symmetry_equiv_pos_as_xyz
  1  'x, y, z'
loop_
 _atom_site_type_symbol
 _atom_site_label
 _atom_site_symmetry_multiplicity
 _atom_site_fract_x
 _atom_site_fract_y
 _atom_site_fract_z
 _atom_site_occupancy
  Hf  Hf0  1  0.02100633  0.15526267  0.04103514  1.0
  Hf  Hf1  1  0.02100633  0.48859600  0.04103514  1.0
  Hf  Hf2  1  0.02100633  0.82192933  0.04103514  1.0
  Hf  Hf3  1  0.35433967  0.15526267  0.04103514  1.0
  Hf  Hf4  1  0.35433967  0.48859600  0.04103514  1.0
  Hf  Hf5  1  0.35433967  0.82192933  0.04103514  1.0
  Hf  Hf6  1  0.68767300  0.15526267  0.04103514  1.0
  Hf  Hf7  1  0.68767300  0.48859600  0.04103514  1.0
  Hf  Hf8  1  0.68767300  0.82192933  0.04103514  1.0
  Hf  Hf9  1  0.31232700  0.17807067  0.10182200  1.0
  Hf  Hf10  1  0.31232700  0.51140400  0.10182200  1.0
  Hf  Hf11  1  0.31232700  0.84473733  0.10182200  1.0
  Hf  Hf12  1  0.64566033  0.17807067  0.10182200  1.0
  Hf  Hf13  1  0.64566033  0.51140400  0.10182200  1.0
  Hf  Hf14  1  0.64566033  0.84473733  0.10182200  1.0
  Hf  Hf15  1  0.97899367  0.17807067  0.10182200  1.0
  Hf  Hf16  1  0.97899367  0.51140400  0.10182200  1.0
  Hf  Hf17  1  0.97899367  0.84473733  0.10182200  1.0
  Hf  Hf18  1  0.17887633  0.24843633  0.11764329  1.0
  Hf  Hf19  1  0.17887633  0.58176967  0.11764329  1.0
  Hf  Hf20  1  0.17887633  0.91510300  0.11764329  1.0
  Hf  Hf21  1  0.51220967  0.24843633  0.11764329  1.0
  Hf  Hf22  1  0.51220967  0.58176967  0.11764329  1.0
  Hf  Hf23  1  0.51220967  0.91510300  0.11764329  1.0
  Hf  Hf24  1  0.84554300  0.24843633  0.11764329  1.0
  Hf  Hf25  1  0.84554300  0.58176967  0.11764329  1.0
  Hf  Hf26  1  0.84554300  0.91510300  0.11764329  1.0
  Hf  Hf27  1  0.15445700  0.08489700  0.02521386  1.0
  Hf  Hf28  1  0.15445700  0.41823033  0.02521386  1.0
  Hf  Hf29  1  0.15445700  0.75156367  0.02521386  1.0
  Hf  Hf30  1  0.48779033  0.08489700  0.02521386  1.0
  Hf  Hf31  1  0.48779033  0.41823033  0.02521386  1.0
  Hf  Hf32  1  0.48779033  0.75156367  0.02521386  1.0
  Hf  Hf33  1  0.82112367  0.08489700  0.02521386  1.0
  Hf  Hf34  1  0.82112367  0.41823033  0.02521386  1.0
  Hf  Hf35  1  0.82112367  0.75156367  0.02521386  1.0
  Hf  Hf36  1  0.19889433  0.06184167  0.10638514  1.0
  Hf  Hf37  1  0.19889433  0.39517500  0.10638514  1.0
  Hf  Hf38  1  0.19889433  0.72850833  0.10638514  1.0
  Hf  Hf39  1  0.53222767  0.06184167  0.10638514  1.0
  Hf  Hf40  1  0.53222767  0.39517500  0.10638514  1.0
  Hf  Hf41  1  0.53222767  0.72850833  0.10638514  1.0
  Hf  Hf42  1  0.86556100  0.06184167  0.10638514  1.0
  Hf  Hf43  1  0.86556100  0.39517500  0.10638514  1.0
  Hf  Hf44  1  0.86556100  0.72850833  0.10638514  1.0
  Hf  Hf45  1  0.13443900  0.27149167  0.03647200  1.0
  Hf  Hf46  1  0.13443900  0.60482500  0.03647200  1.0
  Hf  Hf47  1  0.13443900  0.93815833  0.03647200  1.0
  Hf  Hf48  1  0.46777233  0.27149167  0.03647200  1.0
  Hf  Hf49  1  0.46777233  0.60482500  0.03647200  1.0
  Hf  Hf50  1  0.46777233  0.93815833  0.03647200  1.0
  Hf  Hf51  1  0.80110567  0.27149167  0.03647200  1.0
  Hf  Hf52  1  0.80110567  0.60482500  0.03647200  1.0
  Hf  Hf53  1  0.80110567  0.93815833  0.03647200  1.0
  Hf  Hf54  1  0.31258967  0.29757433  0.12278129  1.0
  Hf  Hf55  1  0.31258967  0.63090767  0.12278129  1.0
  Hf  Hf56  1  0.31258967  0.96424100  0.12278129  1.0
  Hf  Hf57  1  0.64592300  0.29757433  0.12278129  1.0
  Hf  Hf58  1  0.64592300  0.63090767  0.12278129  1.0
  Hf  Hf59  1  0.64592300  0.96424100  0.12278129  1.0
  Hf  Hf60  1  0.97925633  0.29757433  0.12278129  1.0
  Hf  Hf61  1  0.97925633  0.63090767  0.12278129  1.0
  Hf  Hf62  1  0.97925633  0.96424100  0.12278129  1.0
  Hf  Hf63  1  0.02074367  0.03575900  0.02007586  1.0
  Hf  Hf64  1  0.02074367  0.36909233  0.02007586  1.0
  Hf  Hf65  1  0.02074367  0.70242567  0.02007586  1.0
  Hf  Hf66  1  0.35407700  0.03575900  0.02007586  1.0
  Hf  Hf67  1  0.35407700  0.36909233  0.02007586  1.0
  Hf  Hf68  1  0.35407700  0.70242567  0.02007586  1.0
  Hf  Hf69  1  0.68741033  0.03575900  0.02007586  1.0
  Hf  Hf70  1  0.68741033  0.36909233  0.02007586  1.0
  Hf  Hf71  1  0.68741033  0.70242567  0.02007586  1.0
  Ni  Ni72  1  0.16666667  0.16666667  0.07142857  1.0
  Ni  Ni73  1  0.16666667  0.50000000  0.07142857  1.0
  Ni  Ni74  1  0.16666667  0.83333333  0.07142857  1.0
  Ni  Ni75  1  0.50000000  0.16666667  0.07142857  1.0
  Ni  Ni76  1  0.50000000  0.50000000  0.07142857  1.0
  Ni  Ni77  1  0.50000000  0.83333333  0.07142857  1.0
  Ni  Ni78  1  0.83333333  0.16666667  0.07142857  1.0
  Ni  Ni79  1  0.83333333  0.50000000  0.07142857  1.0
  Ni  Ni80  1  0.83333333  0.83333333  0.07142857  1.0
  Ni  Ni81  1  0.03915933  0.08598600  0.03662200  1.0
  Ni  Ni82  1  0.03915933  0.41931933  0.03662200  1.0
  Ni  Ni83  1  0.03915933  0.75265267  0.03662200  1.0
  Ni  Ni84  1  0.37249267  0.08598600  0.03662200  1.0
  Ni  Ni85  1  0.37249267  0.41931933  0.03662200  1.0
  Ni  Ni86  1  0.37249267  0.75265267  0.03662200  1.0
  Ni  Ni87  1  0.70582600  0.08598600  0.03662200  1.0
  Ni  Ni88  1  0.70582600  0.41931933  0.03662200  1.0
  Ni  Ni89  1  0.70582600  0.75265267  0.03662200  1.0
  Ni  Ni90  1  0.29417400  0.24734733  0.10623514  1.0
  Ni  Ni91  1  0.29417400  0.58068067  0.10623514  1.0
  Ni  Ni92  1  0.29417400  0.91401400  0.10623514  1.0
  Ni  Ni93  1  0.62750733  0.24734733  0.10623514  1.0
  Ni  Ni94  1  0.62750733  0.58068067  0.10623514  1.0
  Ni  Ni95  1  0.62750733  0.91401400  0.10623514  1.0
  Ni  Ni96  1  0.96084067  0.24734733  0.10623514  1.0
  Ni  Ni97  1  0.96084067  0.58068067  0.10623514  1.0
  Ni  Ni98  1  0.96084067  0.91401400  0.10623514  1.0
  Ni  Ni99  1  0.07240200  0.21822533  0.03517314  1.0
  Ni  Ni100  1  0.07240200  0.55155867  0.03517314  1.0
  Ni  Ni101  1  0.07240200  0.88489200  0.03517314  1.0
  Ni  Ni102  1  0.40573533  0.21822533  0.03517314  1.0
  Ni  Ni103  1  0.40573533  0.55155867  0.03517314  1.0
  Ni  Ni104  1  0.40573533  0.88489200  0.03517314  1.0
  Ni  Ni105  1  0.73906867  0.21822533  0.03517314  1.0
  Ni  Ni106  1  0.73906867  0.55155867  0.03517314  1.0
  Ni  Ni107  1  0.73906867  0.88489200  0.03517314  1.0
  Ni  Ni108  1  0.26093133  0.11510800  0.10768400  1.0
  Ni  Ni109  1  0.26093133  0.44844133  0.10768400  1.0
  Ni  Ni110  1  0.26093133  0.78177467  0.10768400  1.0
  Ni  Ni111  1  0.59426467  0.11510800  0.10768400  1.0
  Ni  Ni112  1  0.59426467  0.44844133  0.10768400  1.0
  Ni  Ni113  1  0.59426467  0.78177467  0.10768400  1.0
  Ni  Ni114  1  0.92759800  0.11510800  0.10768400  1.0
  Ni  Ni115  1  0.92759800  0.44844133  0.10768400  1.0
  Ni  Ni116  1  0.92759800  0.78177467  0.10768400  1.0
  Ni  Ni117  1  0.08486133  0.31950600  0.10538086  1.0
  Ni  Ni118  1  0.08486133  0.65283933  0.10538086  1.0
  Ni  Ni119  1  0.08486133  0.98617267  0.10538086  1.0
  Ni  Ni120  1  0.41819467  0.31950600  0.10538086  1.0
  Ni  Ni121  1  0.41819467  0.65283933  0.10538086  1.0
  Ni  Ni122  1  0.41819467  0.98617267  0.10538086  1.0
  Ni  Ni123  1  0.75152800  0.31950600  0.10538086  1.0
  Ni  Ni124  1  0.75152800  0.65283933  0.10538086  1.0
  Ni  Ni125  1  0.75152800  0.98617267  0.10538086  1.0
  Ni  Ni126  1  0.24847200  0.01382733  0.03747629  1.0
  Ni  Ni127  1  0.24847200  0.34716067  0.03747629  1.0
  Ni  Ni128  1  0.24847200  0.68049400  0.03747629  1.0
  Ni  Ni129  1  0.58180533  0.01382733  0.03747629  1.0
  Ni  Ni130  1  0.58180533  0.34716067  0.03747629  1.0
  Ni  Ni131  1  0.58180533  0.68049400  0.03747629  1.0
  Ni  Ni132  1  0.91513867  0.01382733  0.03747629  1.0
  Ni  Ni133  1  0.91513867  0.34716067  0.03747629  1.0
  Ni  Ni134  1  0.91513867  0.68049400  0.03747629  1.0
  Ni  Ni135  1  0.09630467  0.05237900  0.10092957  1.0
  Ni  Ni136  1  0.09630467  0.38571233  0.10092957  1.0
  Ni  Ni137  1  0.09630467  0.71904567  0.10092957  1.0
  Ni  Ni138  1  0.42963800  0.05237900  0.10092957  1.0
  Ni  Ni139  1  0.42963800  0.38571233  0.10092957  1.0
  Ni  Ni140  1  0.42963800  0.71904567  0.10092957  1.0
  Ni  Ni141  1  0.76297133  0.05237900  0.10092957  1.0
  Ni  Ni142  1  0.76297133  0.38571233  0.10092957  1.0
  Ni  Ni143  1  0.76297133  0.71904567  0.10092957  1.0
  Ni  Ni144  1  0.01793667  0.28329867  0.03845171  1.0
  Ni  Ni145  1  0.01793667  0.61663200  0.03845171  1.0
  Ni  Ni146  1  0.01793667  0.94996533  0.03845171  1.0
  Ni  Ni147  1  0.35127000  0.28329867  0.03845171  1.0
  Ni  Ni148  1  0.35127000  0.61663200  0.03845171  1.0
  Ni  Ni149  1  0.35127000  0.94996533  0.03845171  1.0
  Ni  Ni150  1  0.68460333  0.28329867  0.03845171  1.0
  Ni  Ni151  1  0.68460333  0.61663200  0.03845171  1.0
  Ni  Ni152  1  0.68460333  0.94996533  0.03845171  1.0
  Ni  Ni153  1  0.31539667  0.05003467  0.10440543  1.0
  Ni  Ni154  1  0.31539667  0.38336800  0.10440543  1.0
  Ni  Ni155  1  0.31539667  0.71670133  0.10440543  1.0
  Ni  Ni156  1  0.64873000  0.05003467  0.10440543  1.0
  Ni  Ni157  1  0.64873000  0.38336800  0.10440543  1.0
  Ni  Ni158  1  0.64873000  0.71670133  0.10440543  1.0
  Ni  Ni159  1  0.98206333  0.05003467  0.10440543  1.0
  Ni  Ni160  1  0.98206333  0.38336800  0.10440543  1.0
  Ni  Ni161  1  0.98206333  0.71670133  0.10440543  1.0
  Ni  Ni162  1  0.06871733  0.25878833  0.10099086  1.0
  Ni  Ni163  1  0.06871733  0.59212167  0.10099086  1.0
  Ni  Ni164  1  0.06871733  0.92545500  0.10099086  1.0
  Ni  Ni165  1  0.40205067  0.25878833  0.10099086  1.0
  Ni  Ni166  1  0.40205067  0.59212167  0.10099086  1.0
  Ni  Ni167  1  0.40205067  0.92545500  0.10099086  1.0
  Ni  Ni168  1  0.73538400  0.25878833  0.10099086  1.0
  Ni  Ni169  1  0.73538400  0.59212167  0.10099086  1.0
  Ni  Ni170  1  0.73538400  0.92545500  0.10099086  1.0
  Ni  Ni171  1  0.26461600  0.07454500  0.04186629  1.0
  Ni  Ni172  1  0.26461600  0.40787833  0.04186629  1.0
  Ni  Ni173  1  0.26461600  0.74121167  0.04186629  1.0
  Ni  Ni174  1  0.59794933  0.07454500  0.04186629  1.0
  Ni  Ni175  1  0.59794933  0.40787833  0.04186629  1.0
  Ni  Ni176  1  0.59794933  0.74121167  0.04186629  1.0
  Ni  Ni177  1  0.93128267  0.07454500  0.04186629  1.0
  Ni  Ni178  1  0.93128267  0.40787833  0.04186629  1.0
  Ni  Ni179  1  0.93128267  0.74121167  0.04186629  1.0
  Ni  Ni180  1  0.08089933  0.18290500  0.11007500  1.0
  Ni  Ni181  1  0.08089933  0.51623833  0.11007500  1.0
  Ni  Ni182  1  0.08089933  0.84957167  0.11007500  1.0
  Ni  Ni183  1  0.41423267  0.18290500  0.11007500  1.0
  Ni  Ni184  1  0.41423267  0.51623833  0.11007500  1.0
  Ni  Ni185  1  0.41423267  0.84957167  0.11007500  1.0
  Ni  Ni186  1  0.74756600  0.18290500  0.11007500  1.0
  Ni  Ni187  1  0.74756600  0.51623833  0.11007500  1.0
  Ni  Ni188  1  0.74756600  0.84957167  0.11007500  1.0
  Ni  Ni189  1  0.25243400  0.15042833  0.03278214  1.0
  Ni  Ni190  1  0.25243400  0.48376167  0.03278214  1.0
  Ni  Ni191  1  0.25243400  0.81709500  0.03278214  1.0
  Ni  Ni192  1  0.58576733  0.15042833  0.03278214  1.0
  Ni  Ni193  1  0.58576733  0.48376167  0.03278214  1.0
  Ni  Ni194  1  0.58576733  0.81709500  0.03278214  1.0
  Ni  Ni195  1  0.91910067  0.15042833  0.03278214  1.0
  Ni  Ni196  1  0.91910067  0.48376167  0.03278214  1.0
  Ni  Ni197  1  0.91910067  0.81709500  0.03278214  1.0
  Ni  Ni198  1  0.08613200  0.11571100  0.10735857  1.0
  Ni  Ni199  1  0.08613200  0.44904433  0.10735857  1.0
  Ni  Ni200  1  0.08613200  0.78237767  0.10735857  1.0
  Ni  Ni201  1  0.41946533  0.11571100  0.10735857  1.0
  Ni  Ni202  1  0.41946533  0.44904433  0.10735857  1.0
  Ni  Ni203  1  0.41946533  0.78237767  0.10735857  1.0
  Ni  Ni204  1  0.75279867  0.11571100  0.10735857  1.0
  Ni  Ni205  1  0.75279867  0.44904433  0.10735857  1.0
  Ni  Ni206  1  0.75279867  0.78237767  0.10735857  1.0
  Ni  Ni207  1  0.24720133  0.21762233  0.03549857  1.0
  Ni  Ni208  1  0.24720133  0.55095567  0.03549857  1.0
  Ni  Ni209  1  0.24720133  0.88428900  0.03549857  1.0
  Ni  Ni210  1  0.58053467  0.21762233  0.03549857  1.0
  Ni  Ni211  1  0.58053467  0.55095567  0.03549857  1.0
  Ni  Ni212  1  0.58053467  0.88428900  0.03549857  1.0
  Ni  Ni213  1  0.91386800  0.21762233  0.03549857  1.0
  Ni  Ni214  1  0.91386800  0.55095567  0.03549857  1.0
  Ni  Ni215  1  0.91386800  0.88428900  0.03549857  1.0
  Ni  Ni216  1  0.13021400  0.00955900  0.03688486  1.0
  Ni  Ni217  1  0.13021400  0.34289233  0.03688486  1.0
  Ni  Ni218  1  0.13021400  0.67622567  0.03688486  1.0
  Ni  Ni219  1  0.46354733  0.00955900  0.03688486  1.0
  Ni  Ni220  1  0.46354733  0.34289233  0.03688486  1.0
  Ni  Ni221  1  0.46354733  0.67622567  0.03688486  1.0
  Ni  Ni222  1  0.79688067  0.00955900  0.03688486  1.0
  Ni  Ni223  1  0.79688067  0.34289233  0.03688486  1.0
  Ni  Ni224  1  0.79688067  0.67622567  0.03688486  1.0
  Ni  Ni225  1  0.20311933  0.32377433  0.10597229  1.0
  Ni  Ni226  1  0.20311933  0.65710767  0.10597229  1.0
  Ni  Ni227  1  0.20311933  0.99044100  0.10597229  1.0
  Ni  Ni228  1  0.53645267  0.32377433  0.10597229  1.0
  Ni  Ni229  1  0.53645267  0.65710767  0.10597229  1.0
  Ni  Ni230  1  0.53645267  0.99044100  0.10597229  1.0
  Ni  Ni231  1  0.86978600  0.32377433  0.10597229  1.0
  Ni  Ni232  1  0.86978600  0.65710767  0.10597229  1.0
  Ni  Ni233  1  0.86978600  0.99044100  0.10597229  1.0
  Ni  Ni234  1  0.19968467  0.17901800  0.11135100  1.0
  Ni  Ni235  1  0.19968467  0.51235133  0.11135100  1.0
  Ni  Ni236  1  0.19968467  0.84568467  0.11135100  1.0
  Ni  Ni237  1  0.53301800  0.17901800  0.11135100  1.0
  Ni  Ni238  1  0.53301800  0.51235133  0.11135100  1.0
  Ni  Ni239  1  0.53301800  0.84568467  0.11135100  1.0
  Ni  Ni240  1  0.86635133  0.17901800  0.11135100  1.0
  Ni  Ni241  1  0.86635133  0.51235133  0.11135100  1.0
  Ni  Ni242  1  0.86635133  0.84568467  0.11135100  1.0
  Ni  Ni243  1  0.13364867  0.15431533  0.03150614  1.0
  Ni  Ni244  1  0.13364867  0.48764867  0.03150614  1.0
  Ni  Ni245  1  0.13364867  0.82098200  0.03150614  1.0
  Ni  Ni246  1  0.46698200  0.15431533  0.03150614  1.0
  Ni  Ni247  1  0.46698200  0.48764867  0.03150614  1.0
  Ni  Ni248  1  0.46698200  0.82098200  0.03150614  1.0
  Ni  Ni249  1  0.80031533  0.15431533  0.03150614  1.0
  Ni  Ni250  1  0.80031533  0.48764867  0.03150614  1.0
  Ni  Ni251  1  0.80031533  0.82098200  0.03150614  1.0
  Ni  Ni252  1  0.23702867  0.28095433  0.04192757  1.0
  Ni  Ni253  1  0.23702867  0.61428767  0.04192757  1.0
  Ni  Ni254  1  0.23702867  0.94762100  0.04192757  1.0
  Ni  Ni255  1  0.57036200  0.28095433  0.04192757  1.0
  Ni  Ni256  1  0.57036200  0.61428767  0.04192757  1.0
  Ni  Ni257  1  0.57036200  0.94762100  0.04192757  1.0
  Ni  Ni258  1  0.90369533  0.28095433  0.04192757  1.0
  Ni  Ni259  1  0.90369533  0.61428767  0.04192757  1.0
  Ni  Ni260  1  0.90369533  0.94762100  0.04192757  1.0
  Hf  Hf261  1  0.02100633  0.15526267  0.18389229  1.0
  Hf  Hf262  1  0.02100633  0.48859600  0.18389229  1.0
  Hf  Hf263  1  0.02100633  0.82192933  0.18389229  1.0
  Hf  Hf264  1  0.35433967  0.15526267  0.18389229  1.0
  Hf  Hf265  1  0.35433967  0.48859600  0.18389229  1.0
  Hf  Hf266  1  0.35433967  0.82192933  0.18389229  1.0
  Hf  Hf267  1  0.68767300  0.15526267  0.18389229  1.0
  Hf  Hf268  1  0.68767300  0.48859600  0.18389229  1.0
  Hf  Hf269  1  0.68767300  0.82192933  0.18389229  1.0
  Hf  Hf270  1  0.31232700  0.17807067  0.24467914  1.0
  Hf  Hf271  1  0.31232700  0.51140400  0.24467914  1.0
  Hf  Hf272  1  0.31232700  0.84473733  0.24467914  1.0
  Hf  Hf273  1  0.64566033  0.17807067  0.24467914  1.0
  Hf  Hf274  1  0.64566033  0.51140400  0.24467914  1.0
  Hf  Hf275  1  0.64566033  0.84473733  0.24467914  1.0
  Hf  Hf276  1  0.97899367  0.17807067  0.24467914  1.0
  Hf  Hf277  1  0.97899367  0.51140400  0.24467914  1.0
  Hf  Hf278  1  0.97899367  0.84473733  0.24467914  1.0
  Hf  Hf279  1  0.17887633  0.24843633  0.26050043  1.0
  Hf  Hf280  1  0.17887633  0.58176967  0.26050043  1.0
  Hf  Hf281  1  0.17887633  0.91510300  0.26050043  1.0
  Hf  Hf282  1  0.51220967  0.24843633  0.26050043  1.0
  Hf  Hf283  1  0.51220967  0.58176967  0.26050043  1.0
  Hf  Hf284  1  0.51220967  0.91510300  0.26050043  1.0
  Hf  Hf285  1  0.84554300  0.24843633  0.26050043  1.0
  Hf  Hf286  1  0.84554300  0.58176967  0.26050043  1.0
  Hf  Hf287  1  0.84554300  0.91510300  0.26050043  1.0
  Hf  Hf288  1  0.15445700  0.08489700  0.16807100  1.0
  Hf  Hf289  1  0.15445700  0.41823033  0.16807100  1.0
  Hf  Hf290  1  0.15445700  0.75156367  0.16807100  1.0
  Hf  Hf291  1  0.48779033  0.08489700  0.16807100  1.0
  Hf  Hf292  1  0.48779033  0.41823033  0.16807100  1.0
  Hf  Hf293  1  0.48779033  0.75156367  0.16807100  1.0
  Hf  Hf294  1  0.82112367  0.08489700  0.16807100  1.0
  Hf  Hf295  1  0.82112367  0.41823033  0.16807100  1.0
  Hf  Hf296  1  0.82112367  0.75156367  0.16807100  1.0
  Hf  Hf297  1  0.19889433  0.06184167  0.24924229  1.0
  Hf  Hf298  1  0.19889433  0.39517500  0.24924229  1.0
  Hf  Hf299  1  0.19889433  0.72850833  0.24924229  1.0
  Hf  Hf300  1  0.53222767  0.06184167  0.24924229  1.0
  Hf  Hf301  1  0.53222767  0.39517500  0.24924229  1.0
  Hf  Hf302  1  0.53222767  0.72850833  0.24924229  1.0
  Hf  Hf303  1  0.86556100  0.06184167  0.24924229  1.0
  Hf  Hf304  1  0.86556100  0.39517500  0.24924229  1.0
  Hf  Hf305  1  0.86556100  0.72850833  0.24924229  1.0
  Hf  Hf306  1  0.13443900  0.27149167  0.17932914  1.0
  Hf  Hf307  1  0.13443900  0.60482500  0.17932914  1.0
  Hf  Hf308  1  0.13443900  0.93815833  0.17932914  1.0
  Hf  Hf309  1  0.46777233  0.27149167  0.17932914  1.0
  Hf  Hf310  1  0.46777233  0.60482500  0.17932914  1.0
  Hf  Hf311  1  0.46777233  0.93815833  0.17932914  1.0
  Hf  Hf312  1  0.80110567  0.27149167  0.17932914  1.0
  Hf  Hf313  1  0.80110567  0.60482500  0.17932914  1.0
  Hf  Hf314  1  0.80110567  0.93815833  0.17932914  1.0
  Hf  Hf315  1  0.31258967  0.29757433  0.26563843  1.0
  Hf  Hf316  1  0.31258967  0.63090767  0.26563843  1.0
  Hf  Hf317  1  0.31258967  0.96424100  0.26563843  1.0
  Hf  Hf318  1  0.64592300  0.29757433  0.26563843  1.0
  Hf  Hf319  1  0.64592300  0.63090767  0.26563843  1.0
  Hf  Hf320  1  0.64592300  0.96424100  0.26563843  1.0
  Hf  Hf321  1  0.97925633  0.29757433  0.26563843  1.0
  Hf  Hf322  1  0.97925633  0.63090767  0.26563843  1.0
  Hf  Hf323  1  0.97925633  0.96424100  0.26563843  1.0
  Hf  Hf324  1  0.02074367  0.03575900  0.16293300  1.0
  Hf  Hf325  1  0.02074367  0.36909233  0.16293300  1.0
  Hf  Hf326  1  0.02074367  0.70242567  0.16293300  1.0
  Hf  Hf327  1  0.35407700  0.03575900  0.16293300  1.0
  Hf  Hf328  1  0.35407700  0.36909233  0.16293300  1.0
  Hf  Hf329  1  0.35407700  0.70242567  0.16293300  1.0
  Hf  Hf330  1  0.68741033  0.03575900  0.16293300  1.0
  Hf  Hf331  1  0.68741033  0.36909233  0.16293300  1.0
  Hf  Hf332  1  0.68741033  0.70242567  0.16293300  1.0
  Ni  Ni333  1  0.16666667  0.16666667  0.21428571  1.0
  Ni  Ni334  1  0.16666667  0.50000000  0.21428571  1.0
  Ni  Ni335  1  0.16666667  0.83333333  0.21428571  1.0
  Ni  Ni336  1  0.50000000  0.16666667  0.21428571  1.0
  Ni  Ni337  1  0.50000000  0.50000000  0.21428571  1.0
  Ni  Ni338  1  0.50000000  0.83333333  0.21428571  1.0
  Ni  Ni339  1  0.83333333  0.16666667  0.21428571  1.0
  Ni  Ni340  1  0.83333333  0.50000000  0.21428571  1.0
  Ni  Ni341  1  0.83333333  0.83333333  0.21428571  1.0
  Ni  Ni342  1  0.03915933  0.08598600  0.17947914  1.0
  Ni  Ni343  1  0.03915933  0.41931933  0.17947914  1.0
  Ni  Ni344  1  0.03915933  0.75265267  0.17947914  1.0
  Ni  Ni345  1  0.37249267  0.08598600  0.17947914  1.0
  Ni  Ni346  1  0.37249267  0.41931933  0.17947914  1.0
  Ni  Ni347  1  0.37249267  0.75265267  0.17947914  1.0
  Ni  Ni348  1  0.70582600  0.08598600  0.17947914  1.0
  Ni  Ni349  1  0.70582600  0.41931933  0.17947914  1.0
  Ni  Ni350  1  0.70582600  0.75265267  0.17947914  1.0
  Ni  Ni351  1  0.29417400  0.24734733  0.24909229  1.0
  Ni  Ni352  1  0.29417400  0.58068067  0.24909229  1.0
  Ni  Ni353  1  0.29417400  0.91401400  0.24909229  1.0
  Ni  Ni354  1  0.62750733  0.24734733  0.24909229  1.0
  Ni  Ni355  1  0.62750733  0.58068067  0.24909229  1.0
  Ni  Ni356  1  0.62750733  0.91401400  0.24909229  1.0
  Ni  Ni357  1  0.96084067  0.24734733  0.24909229  1.0
  Ni  Ni358  1  0.96084067  0.58068067  0.24909229  1.0
  Ni  Ni359  1  0.96084067  0.91401400  0.24909229  1.0
  Ni  Ni360  1  0.07240200  0.21822533  0.17803029  1.0
  Ni  Ni361  1  0.07240200  0.55155867  0.17803029  1.0
  Ni  Ni362  1  0.07240200  0.88489200  0.17803029  1.0
  Ni  Ni363  1  0.40573533  0.21822533  0.17803029  1.0
  Ni  Ni364  1  0.40573533  0.55155867  0.17803029  1.0
  Ni  Ni365  1  0.40573533  0.88489200  0.17803029  1.0
  Ni  Ni366  1  0.73906867  0.21822533  0.17803029  1.0
  Ni  Ni367  1  0.73906867  0.55155867  0.17803029  1.0
  Ni  Ni368  1  0.73906867  0.88489200  0.17803029  1.0
  Ni  Ni369  1  0.26093133  0.11510800  0.25054114  1.0
  Ni  Ni370  1  0.26093133  0.44844133  0.25054114  1.0
  Ni  Ni371  1  0.26093133  0.78177467  0.25054114  1.0
  Ni  Ni372  1  0.59426467  0.11510800  0.25054114  1.0
  Ni  Ni373  1  0.59426467  0.44844133  0.25054114  1.0
  Ni  Ni374  1  0.59426467  0.78177467  0.25054114  1.0
  Ni  Ni375  1  0.92759800  0.11510800  0.25054114  1.0
  Ni  Ni376  1  0.92759800  0.44844133  0.25054114  1.0
  Ni  Ni377  1  0.92759800  0.78177467  0.25054114  1.0
  Ni  Ni378  1  0.08486133  0.31950600  0.24823800  1.0
  Ni  Ni379  1  0.08486133  0.65283933  0.24823800  1.0
  Ni  Ni380  1  0.08486133  0.98617267  0.24823800  1.0
  Ni  Ni381  1  0.41819467  0.31950600  0.24823800  1.0
  Ni  Ni382  1  0.41819467  0.65283933  0.24823800  1.0
  Ni  Ni383  1  0.41819467  0.98617267  0.24823800  1.0
  Ni  Ni384  1  0.75152800  0.31950600  0.24823800  1.0
  Ni  Ni385  1  0.75152800  0.65283933  0.24823800  1.0
  Ni  Ni386  1  0.75152800  0.98617267  0.24823800  1.0
  Ni  Ni387  1  0.24847200  0.01382733  0.18033343  1.0
  Ni  Ni388  1  0.24847200  0.34716067  0.18033343  1.0
  Ni  Ni389  1  0.24847200  0.68049400  0.18033343  1.0
  Ni  Ni390  1  0.58180533  0.01382733  0.18033343  1.0
  Ni  Ni391  1  0.58180533  0.34716067  0.18033343  1.0
  Ni  Ni392  1  0.58180533  0.68049400  0.18033343  1.0
  Ni  Ni393  1  0.91513867  0.01382733  0.18033343  1.0
  Ni  Ni394  1  0.91513867  0.34716067  0.18033343  1.0
  Ni  Ni395  1  0.91513867  0.68049400  0.18033343  1.0
  Ni  Ni396  1  0.09630467  0.05237900  0.24378671  1.0
  Ni  Ni397  1  0.09630467  0.38571233  0.24378671  1.0
  Ni  Ni398  1  0.09630467  0.71904567  0.24378671  1.0
  Ni  Ni399  1  0.42963800  0.05237900  0.24378671  1.0
  Ni  Ni400  1  0.42963800  0.38571233  0.24378671  1.0
  Ni  Ni401  1  0.42963800  0.71904567  0.24378671  1.0
  Ni  Ni402  1  0.76297133  0.05237900  0.24378671  1.0
  Ni  Ni403  1  0.76297133  0.38571233  0.24378671  1.0
  Ni  Ni404  1  0.76297133  0.71904567  0.24378671  1.0
  Ni  Ni405  1  0.01793667  0.28329867  0.18130886  1.0
  Ni  Ni406  1  0.01793667  0.61663200  0.18130886  1.0
  Ni  Ni407  1  0.01793667  0.94996533  0.18130886  1.0
  Ni  Ni408  1  0.35127000  0.28329867  0.18130886  1.0
  Ni  Ni409  1  0.35127000  0.61663200  0.18130886  1.0
  Ni  Ni410  1  0.35127000  0.94996533  0.18130886  1.0
  Ni  Ni411  1  0.68460333  0.28329867  0.18130886  1.0
  Ni  Ni412  1  0.68460333  0.61663200  0.18130886  1.0
  Ni  Ni413  1  0.68460333  0.94996533  0.18130886  1.0
  Ni  Ni414  1  0.31539667  0.05003467  0.24726257  1.0
  Ni  Ni415  1  0.31539667  0.38336800  0.24726257  1.0
  Ni  Ni416  1  0.31539667  0.71670133  0.24726257  1.0
  Ni  Ni417  1  0.64873000  0.05003467  0.24726257  1.0
  Ni  Ni418  1  0.64873000  0.38336800  0.24726257  1.0
  Ni  Ni419  1  0.64873000  0.71670133  0.24726257  1.0
  Ni  Ni420  1  0.98206333  0.05003467  0.24726257  1.0
  Ni  Ni421  1  0.98206333  0.38336800  0.24726257  1.0
  Ni  Ni422  1  0.98206333  0.71670133  0.24726257  1.0
  Ni  Ni423  1  0.06871733  0.25878833  0.24384800  1.0
  Ni  Ni424  1  0.06871733  0.59212167  0.24384800  1.0
  Ni  Ni425  1  0.06871733  0.92545500  0.24384800  1.0
  Ni  Ni426  1  0.40205067  0.25878833  0.24384800  1.0
  Ni  Ni427  1  0.40205067  0.59212167  0.24384800  1.0
  Ni  Ni428  1  0.40205067  0.92545500  0.24384800  1.0
  Ni  Ni429  1  0.73538400  0.25878833  0.24384800  1.0
  Ni  Ni430  1  0.73538400  0.59212167  0.24384800  1.0
  Ni  Ni431  1  0.73538400  0.92545500  0.24384800  1.0
  Ni  Ni432  1  0.26461600  0.07454500  0.18472343  1.0
  Ni  Ni433  1  0.26461600  0.40787833  0.18472343  1.0
  Ni  Ni434  1  0.26461600  0.74121167  0.18472343  1.0
  Ni  Ni435  1  0.59794933  0.07454500  0.18472343  1.0
  Ni  Ni436  1  0.59794933  0.40787833  0.18472343  1.0
  Ni  Ni437  1  0.59794933  0.74121167  0.18472343  1.0
  Ni  Ni438  1  0.93128267  0.07454500  0.18472343  1.0
  Ni  Ni439  1  0.93128267  0.40787833  0.18472343  1.0
  Ni  Ni440  1  0.93128267  0.74121167  0.18472343  1.0
  Ni  Ni441  1  0.08089933  0.18290500  0.25293214  1.0
  Ni  Ni442  1  0.08089933  0.51623833  0.25293214  1.0
  Ni  Ni443  1  0.08089933  0.84957167  0.25293214  1.0
  Ni  Ni444  1  0.41423267  0.18290500  0.25293214  1.0
  Ni  Ni445  1  0.41423267  0.51623833  0.25293214  1.0
  Ni  Ni446  1  0.41423267  0.84957167  0.25293214  1.0
  Ni  Ni447  1  0.74756600  0.18290500  0.25293214  1.0
  Ni  Ni448  1  0.74756600  0.51623833  0.25293214  1.0
  Ni  Ni449  1  0.74756600  0.84957167  0.25293214  1.0
  Ni  Ni450  1  0.25243400  0.15042833  0.17563929  1.0
  Ni  Ni451  1  0.25243400  0.48376167  0.17563929  1.0
  Ni  Ni452  1  0.25243400  0.81709500  0.17563929  1.0
  Ni  Ni453  1  0.58576733  0.15042833  0.17563929  1.0
  Ni  Ni454  1  0.58576733  0.48376167  0.17563929  1.0
  Ni  Ni455  1  0.58576733  0.81709500  0.17563929  1.0
  Ni  Ni456  1  0.91910067  0.15042833  0.17563929  1.0
  Ni  Ni457  1  0.91910067  0.48376167  0.17563929  1.0
  Ni  Ni458  1  0.91910067  0.81709500  0.17563929  1.0
  Ni  Ni459  1  0.08613200  0.11571100  0.25021571  1.0
  Ni  Ni460  1  0.08613200  0.44904433  0.25021571  1.0
  Ni  Ni461  1  0.08613200  0.78237767  0.25021571  1.0
  Ni  Ni462  1  0.41946533  0.11571100  0.25021571  1.0
  Ni  Ni463  1  0.41946533  0.44904433  0.25021571  1.0
  Ni  Ni464  1  0.41946533  0.78237767  0.25021571  1.0
  Ni  Ni465  1  0.75279867  0.11571100  0.25021571  1.0
  Ni  Ni466  1  0.75279867  0.44904433  0.25021571  1.0
  Ni  Ni467  1  0.75279867  0.78237767  0.25021571  1.0
  Ni  Ni468  1  0.24720133  0.21762233  0.17835571  1.0
  Ni  Ni469  1  0.24720133  0.55095567  0.17835571  1.0
  Ni  Ni470  1  0.24720133  0.88428900  0.17835571  1.0
  Ni  Ni471  1  0.58053467  0.21762233  0.17835571  1.0
  Ni  Ni472  1  0.58053467  0.55095567  0.17835571  1.0
  Ni  Ni473  1  0.58053467  0.88428900  0.17835571  1.0
  Ni  Ni474  1  0.91386800  0.21762233  0.17835571  1.0
  Ni  Ni475  1  0.91386800  0.55095567  0.17835571  1.0
  Ni  Ni476  1  0.91386800  0.88428900  0.17835571  1.0
  Ni  Ni477  1  0.13021400  0.00955900  0.17974200  1.0
  Ni  Ni478  1  0.13021400  0.34289233  0.17974200  1.0
  Ni  Ni479  1  0.13021400  0.67622567  0.17974200  1.0
  Ni  Ni480  1  0.46354733  0.00955900  0.17974200  1.0
  Ni  Ni481  1  0.46354733  0.34289233  0.17974200  1.0
  Ni  Ni482  1  0.46354733  0.67622567  0.17974200  1.0
  Ni  Ni483  1  0.79688067  0.00955900  0.17974200  1.0
  Ni  Ni484  1  0.79688067  0.34289233  0.17974200  1.0
  Ni  Ni485  1  0.79688067  0.67622567  0.17974200  1.0
  Ni  Ni486  1  0.20311933  0.32377433  0.24882943  1.0
  Ni  Ni487  1  0.20311933  0.65710767  0.24882943  1.0
  Ni  Ni488  1  0.20311933  0.99044100  0.24882943  1.0
  Ni  Ni489  1  0.53645267  0.32377433  0.24882943  1.0
  Ni  Ni490  1  0.53645267  0.65710767  0.24882943  1.0
  Ni  Ni491  1  0.53645267  0.99044100  0.24882943  1.0
  Ni  Ni492  1  0.86978600  0.32377433  0.24882943  1.0
  Ni  Ni493  1  0.86978600  0.65710767  0.24882943  1.0
  Ni  Ni494  1  0.86978600  0.99044100  0.24882943  1.0
  Ni  Ni495  1  0.19968467  0.17901800  0.25420814  1.0
  Ni  Ni496  1  0.19968467  0.51235133  0.25420814  1.0
  Ni  Ni497  1  0.19968467  0.84568467  0.25420814  1.0
  Ni  Ni498  1  0.53301800  0.17901800  0.25420814  1.0
  Ni  Ni499  1  0.53301800  0.51235133  0.25420814  1.0
  Ni  Ni500  1  0.53301800  0.84568467  0.25420814  1.0
  Ni  Ni501  1  0.86635133  0.17901800  0.25420814  1.0
  Ni  Ni502  1  0.86635133  0.51235133  0.25420814  1.0
  Ni  Ni503  1  0.86635133  0.84568467  0.25420814  1.0
  Ni  Ni504  1  0.13364867  0.15431533  0.17436329  1.0
  Ni  Ni505  1  0.13364867  0.48764867  0.17436329  1.0
  Ni  Ni506  1  0.13364867  0.82098200  0.17436329  1.0
  Ni  Ni507  1  0.46698200  0.15431533  0.17436329  1.0
  Ni  Ni508  1  0.46698200  0.48764867  0.17436329  1.0
  Ni  Ni509  1  0.46698200  0.82098200  0.17436329  1.0
  Ni  Ni510  1  0.80031533  0.15431533  0.17436329  1.0
  Ni  Ni511  1  0.80031533  0.48764867  0.17436329  1.0
  Ni  Ni512  1  0.80031533  0.82098200  0.17436329  1.0
  Ni  Ni513  1  0.23702867  0.28095433  0.18478471  1.0
  Ni  Ni514  1  0.23702867  0.61428767  0.18478471  1.0
  Ni  Ni515  1  0.23702867  0.94762100  0.18478471  1.0
  Ni  Ni516  1  0.57036200  0.28095433  0.18478471  1.0
  Ni  Ni517  1  0.57036200  0.61428767  0.18478471  1.0
  Ni  Ni518  1  0.57036200  0.94762100  0.18478471  1.0
  Ni  Ni519  1  0.90369533  0.28095433  0.18478471  1.0
  Ni  Ni520  1  0.90369533  0.61428767  0.18478471  1.0
  Ni  Ni521  1  0.90369533  0.94762100  0.18478471  1.0
  Hf  Hf522  1  0.02100633  0.15526267  0.32674943  1.0
  Hf  Hf523  1  0.02100633  0.48859600  0.32674943  1.0
  Hf  Hf524  1  0.02100633  0.82192933  0.32674943  1.0
  Hf  Hf525  1  0.35433967  0.15526267  0.32674943  1.0
  Hf  Hf526  1  0.35433967  0.48859600  0.32674943  1.0
  Hf  Hf527  1  0.35433967  0.82192933  0.32674943  1.0
  Hf  Hf528  1  0.68767300  0.15526267  0.32674943  1.0
  Hf  Hf529  1  0.68767300  0.48859600  0.32674943  1.0
  Hf  Hf530  1  0.68767300  0.82192933  0.32674943  1.0
  Hf  Hf531  1  0.31232700  0.17807067  0.38753629  1.0
  Hf  Hf532  1  0.31232700  0.51140400  0.38753629  1.0
  Hf  Hf533  1  0.31232700  0.84473733  0.38753629  1.0
  Hf  Hf534  1  0.64566033  0.17807067  0.38753629  1.0
  Hf  Hf535  1  0.64566033  0.51140400  0.38753629  1.0
  Hf  Hf536  1  0.64566033  0.84473733  0.38753629  1.0
  Hf  Hf537  1  0.97899367  0.17807067  0.38753629  1.0
  Hf  Hf538  1  0.97899367  0.51140400  0.38753629  1.0
  Hf  Hf539  1  0.97899367  0.84473733  0.38753629  1.0
  Hf  Hf540  1  0.17887633  0.24843633  0.40335757  1.0
  Hf  Hf541  1  0.17887633  0.58176967  0.40335757  1.0
  Hf  Hf542  1  0.17887633  0.91510300  0.40335757  1.0
  Hf  Hf543  1  0.51220967  0.24843633  0.40335757  1.0
  Hf  Hf544  1  0.51220967  0.58176967  0.40335757  1.0
  Hf  Hf545  1  0.51220967  0.91510300  0.40335757  1.0
  Hf  Hf546  1  0.84554300  0.24843633  0.40335757  1.0
  Hf  Hf547  1  0.84554300  0.58176967  0.40335757  1.0
  Hf  Hf548  1  0.84554300  0.91510300  0.40335757  1.0
  Hf  Hf549  1  0.15445700  0.08489700  0.31092814  1.0
  Hf  Hf550  1  0.15445700  0.41823033  0.31092814  1.0
  Hf  Hf551  1  0.15445700  0.75156367  0.31092814  1.0
  Hf  Hf552  1  0.48779033  0.08489700  0.31092814  1.0
  Hf  Hf553  1  0.48779033  0.41823033  0.31092814  1.0
  Hf  Hf554  1  0.48779033  0.75156367  0.31092814  1.0
  Hf  Hf555  1  0.82112367  0.08489700  0.31092814  1.0
  Hf  Hf556  1  0.82112367  0.41823033  0.31092814  1.0
  Hf  Hf557  1  0.82112367  0.75156367  0.31092814  1.0
  Hf  Hf558  1  0.19889433  0.06184167  0.39209943  1.0
  Hf  Hf559  1  0.19889433  0.39517500  0.39209943  1.0
  Hf  Hf560  1  0.19889433  0.72850833  0.39209943  1.0
  Hf  Hf561  1  0.53222767  0.06184167  0.39209943  1.0
  Hf  Hf562  1  0.53222767  0.39517500  0.39209943  1.0
  Hf  Hf563  1  0.53222767  0.72850833  0.39209943  1.0
  Hf  Hf564  1  0.86556100  0.06184167  0.39209943  1.0
  Hf  Hf565  1  0.86556100  0.39517500  0.39209943  1.0
  Hf  Hf566  1  0.86556100  0.72850833  0.39209943  1.0
  Hf  Hf567  1  0.13443900  0.27149167  0.32218629  1.0
  Hf  Hf568  1  0.13443900  0.60482500  0.32218629  1.0
  Hf  Hf569  1  0.13443900  0.93815833  0.32218629  1.0
  Hf  Hf570  1  0.46777233  0.27149167  0.32218629  1.0
  Hf  Hf571  1  0.46777233  0.60482500  0.32218629  1.0
  Hf  Hf572  1  0.46777233  0.93815833  0.32218629  1.0
  Hf  Hf573  1  0.80110567  0.27149167  0.32218629  1.0
  Hf  Hf574  1  0.80110567  0.60482500  0.32218629  1.0
  Hf  Hf575  1  0.80110567  0.93815833  0.32218629  1.0
  Hf  Hf576  1  0.31258967  0.29757433  0.40849557  1.0
  Hf  Hf577  1  0.31258967  0.63090767  0.40849557  1.0
  Hf  Hf578  1  0.31258967  0.96424100  0.40849557  1.0
  Hf  Hf579  1  0.64592300  0.29757433  0.40849557  1.0
  Hf  Hf580  1  0.64592300  0.63090767  0.40849557  1.0
  Hf  Hf581  1  0.64592300  0.96424100  0.40849557  1.0
  Hf  Hf582  1  0.97925633  0.29757433  0.40849557  1.0
  Hf  Hf583  1  0.97925633  0.63090767  0.40849557  1.0
  Hf  Hf584  1  0.97925633  0.96424100  0.40849557  1.0
  Hf  Hf585  1  0.02074367  0.03575900  0.30579014  1.0
  Hf  Hf586  1  0.02074367  0.36909233  0.30579014  1.0
  Hf  Hf587  1  0.02074367  0.70242567  0.30579014  1.0
  Hf  Hf588  1  0.35407700  0.03575900  0.30579014  1.0
  Hf  Hf589  1  0.35407700  0.36909233  0.30579014  1.0
  Hf  Hf590  1  0.35407700  0.70242567  0.30579014  1.0
  Hf  Hf591  1  0.68741033  0.03575900  0.30579014  1.0
  Hf  Hf592  1  0.68741033  0.36909233  0.30579014  1.0
  Hf  Hf593  1  0.68741033  0.70242567  0.30579014  1.0
  Ni  Ni594  1  0.16666667  0.16666667  0.35714286  1.0
  Ni  Ni595  1  0.16666667  0.50000000  0.35714286  1.0
  Ni  Ni596  1  0.16666667  0.83333333  0.35714286  1.0
  Ni  Ni597  1  0.50000000  0.16666667  0.35714286  1.0
  Ni  Ni598  1  0.50000000  0.50000000  0.35714286  1.0
  Ni  Ni599  1  0.50000000  0.83333333  0.35714286  1.0
  Ni  Ni600  1  0.83333333  0.16666667  0.35714286  1.0
  Ni  Ni601  1  0.83333333  0.50000000  0.35714286  1.0
  Ni  Ni602  1  0.83333333  0.83333333  0.35714286  1.0
  Ni  Ni603  1  0.03915933  0.08598600  0.32233629  1.0
  Ni  Ni604  1  0.03915933  0.41931933  0.32233629  1.0
  Ni  Ni605  1  0.03915933  0.75265267  0.32233629  1.0
  Ni  Ni606  1  0.37249267  0.08598600  0.32233629  1.0
  Ni  Ni607  1  0.37249267  0.41931933  0.32233629  1.0
  Ni  Ni608  1  0.37249267  0.75265267  0.32233629  1.0
  Ni  Ni609  1  0.70582600  0.08598600  0.32233629  1.0
  Ni  Ni610  1  0.70582600  0.41931933  0.32233629  1.0
  Ni  Ni611  1  0.70582600  0.75265267  0.32233629  1.0
  Ni  Ni612  1  0.29417400  0.24734733  0.39194943  1.0
  Ni  Ni613  1  0.29417400  0.58068067  0.39194943  1.0
  Ni  Ni614  1  0.29417400  0.91401400  0.39194943  1.0
  Ni  Ni615  1  0.62750733  0.24734733  0.39194943  1.0
  Ni  Ni616  1  0.62750733  0.58068067  0.39194943  1.0
  Ni  Ni617  1  0.62750733  0.91401400  0.39194943  1.0
  Ni  Ni618  1  0.96084067  0.24734733  0.39194943  1.0
  Ni  Ni619  1  0.96084067  0.58068067  0.39194943  1.0
  Ni  Ni620  1  0.96084067  0.91401400  0.39194943  1.0
  Ni  Ni621  1  0.07240200  0.21822533  0.32088743  1.0
  Ni  Ni622  1  0.07240200  0.55155867  0.32088743  1.0
  Ni  Ni623  1  0.07240200  0.88489200  0.32088743  1.0
  Ni  Ni624  1  0.40573533  0.21822533  0.32088743  1.0
  Ni  Ni625  1  0.40573533  0.55155867  0.32088743  1.0
  Ni  Ni626  1  0.40573533  0.88489200  0.32088743  1.0
  Ni  Ni627  1  0.73906867  0.21822533  0.32088743  1.0
  Ni  Ni628  1  0.73906867  0.55155867  0.32088743  1.0
  Ni  Ni629  1  0.73906867  0.88489200  0.32088743  1.0
  Ni  Ni630  1  0.26093133  0.11510800  0.39339829  1.0
  Ni  Ni631  1  0.26093133  0.44844133  0.39339829  1.0
  Ni  Ni632  1  0.26093133  0.78177467  0.39339829  1.0
  Ni  Ni633  1  0.59426467  0.11510800  0.39339829  1.0
  Ni  Ni634  1  0.59426467  0.44844133  0.39339829  1.0
  Ni  Ni635  1  0.59426467  0.78177467  0.39339829  1.0
  Ni  Ni636  1  0.92759800  0.11510800  0.39339829  1.0
  Ni  Ni637  1  0.92759800  0.44844133  0.39339829  1.0
  Ni  Ni638  1  0.92759800  0.78177467  0.39339829  1.0
  Ni  Ni639  1  0.08486133  0.31950600  0.39109514  1.0
  Ni  Ni640  1  0.08486133  0.65283933  0.39109514  1.0
  Ni  Ni641  1  0.08486133  0.98617267  0.39109514  1.0
  Ni  Ni642  1  0.41819467  0.31950600  0.39109514  1.0
  Ni  Ni643  1  0.41819467  0.65283933  0.39109514  1.0
  Ni  Ni644  1  0.41819467  0.98617267  0.39109514  1.0
  Ni  Ni645  1  0.75152800  0.31950600  0.39109514  1.0
  Ni  Ni646  1  0.75152800  0.65283933  0.39109514  1.0
  Ni  Ni647  1  0.75152800  0.98617267  0.39109514  1.0
  Ni  Ni648  1  0.24847200  0.01382733  0.32319057  1.0
  Ni  Ni649  1  0.24847200  0.34716067  0.32319057  1.0
  Ni  Ni650  1  0.24847200  0.68049400  0.32319057  1.0
  Ni  Ni651  1  0.58180533  0.01382733  0.32319057  1.0
  Ni  Ni652  1  0.58180533  0.34716067  0.32319057  1.0
  Ni  Ni653  1  0.58180533  0.68049400  0.32319057  1.0
  Ni  Ni654  1  0.91513867  0.01382733  0.32319057  1.0
  Ni  Ni655  1  0.91513867  0.34716067  0.32319057  1.0
  Ni  Ni656  1  0.91513867  0.68049400  0.32319057  1.0
  Ni  Ni657  1  0.09630467  0.05237900  0.38664386  1.0
  Ni  Ni658  1  0.09630467  0.38571233  0.38664386  1.0
  Ni  Ni659  1  0.09630467  0.71904567  0.38664386  1.0
  Ni  Ni660  1  0.42963800  0.05237900  0.38664386  1.0
  Ni  Ni661  1  0.42963800  0.38571233  0.38664386  1.0
  Ni  Ni662  1  0.42963800  0.71904567  0.38664386  1.0
  Ni  Ni663  1  0.76297133  0.05237900  0.38664386  1.0
  Ni  Ni664  1  0.76297133  0.38571233  0.38664386  1.0
  Ni  Ni665  1  0.76297133  0.71904567  0.38664386  1.0
  Ni  Ni666  1  0.01793667  0.28329867  0.32416600  1.0
  Ni  Ni667  1  0.01793667  0.61663200  0.32416600  1.0
  Ni  Ni668  1  0.01793667  0.94996533  0.32416600  1.0
  Ni  Ni669  1  0.35127000  0.28329867  0.32416600  1.0
  Ni  Ni670  1  0.35127000  0.61663200  0.32416600  1.0
  Ni  Ni671  1  0.35127000  0.94996533  0.32416600  1.0
  Ni  Ni672  1  0.68460333  0.28329867  0.32416600  1.0
  Ni  Ni673  1  0.68460333  0.61663200  0.32416600  1.0
  Ni  Ni674  1  0.68460333  0.94996533  0.32416600  1.0
  Ni  Ni675  1  0.31539667  0.05003467  0.39011971  1.0
  Ni  Ni676  1  0.31539667  0.38336800  0.39011971  1.0
  Ni  Ni677  1  0.31539667  0.71670133  0.39011971  1.0
  Ni  Ni678  1  0.64873000  0.05003467  0.39011971  1.0
  Ni  Ni679  1  0.64873000  0.38336800  0.39011971  1.0
  Ni  Ni680  1  0.64873000  0.71670133  0.39011971  1.0
  Ni  Ni681  1  0.98206333  0.05003467  0.39011971  1.0
  Ni  Ni682  1  0.98206333  0.38336800  0.39011971  1.0
  Ni  Ni683  1  0.98206333  0.71670133  0.39011971  1.0
  Ni  Ni684  1  0.06871733  0.25878833  0.38670514  1.0
  Ni  Ni685  1  0.06871733  0.59212167  0.38670514  1.0
  Ni  Ni686  1  0.06871733  0.92545500  0.38670514  1.0
  Ni  Ni687  1  0.40205067  0.25878833  0.38670514  1.0
  Ni  Ni688  1  0.40205067  0.59212167  0.38670514  1.0
  Ni  Ni689  1  0.40205067  0.92545500  0.38670514  1.0
  Ni  Ni690  1  0.73538400  0.25878833  0.38670514  1.0
  Ni  Ni691  1  0.73538400  0.59212167  0.38670514  1.0
  Ni  Ni692  1  0.73538400  0.92545500  0.38670514  1.0
  Ni  Ni693  1  0.26461600  0.07454500  0.32758057  1.0
  Ni  Ni694  1  0.26461600  0.40787833  0.32758057  1.0
  Ni  Ni695  1  0.26461600  0.74121167  0.32758057  1.0
  Ni  Ni696  1  0.59794933  0.07454500  0.32758057  1.0
  Ni  Ni697  1  0.59794933  0.40787833  0.32758057  1.0
  Ni  Ni698  1  0.59794933  0.74121167  0.32758057  1.0
  Ni  Ni699  1  0.93128267  0.07454500  0.32758057  1.0
  Ni  Ni700  1  0.93128267  0.40787833  0.32758057  1.0
  Ni  Ni701  1  0.93128267  0.74121167  0.32758057  1.0
  Ni  Ni702  1  0.08089933  0.18290500  0.39578929  1.0
  Ni  Ni703  1  0.08089933  0.51623833  0.39578929  1.0
  Ni  Ni704  1  0.08089933  0.84957167  0.39578929  1.0
  Ni  Ni705  1  0.41423267  0.18290500  0.39578929  1.0
  Ni  Ni706  1  0.41423267  0.51623833  0.39578929  1.0
  Ni  Ni707  1  0.41423267  0.84957167  0.39578929  1.0
  Ni  Ni708  1  0.74756600  0.18290500  0.39578929  1.0
  Ni  Ni709  1  0.74756600  0.51623833  0.39578929  1.0
  Ni  Ni710  1  0.74756600  0.84957167  0.39578929  1.0
  Ni  Ni711  1  0.25243400  0.15042833  0.31849643  1.0
  Ni  Ni712  1  0.25243400  0.48376167  0.31849643  1.0
  Ni  Ni713  1  0.25243400  0.81709500  0.31849643  1.0
  Ni  Ni714  1  0.58576733  0.15042833  0.31849643  1.0
  Ni  Ni715  1  0.58576733  0.48376167  0.31849643  1.0
  Ni  Ni716  1  0.58576733  0.81709500  0.31849643  1.0
  Ni  Ni717  1  0.91910067  0.15042833  0.31849643  1.0
  Ni  Ni718  1  0.91910067  0.48376167  0.31849643  1.0
  Ni  Ni719  1  0.91910067  0.81709500  0.31849643  1.0
  Ni  Ni720  1  0.08613200  0.11571100  0.39307286  1.0
  Ni  Ni721  1  0.08613200  0.44904433  0.39307286  1.0
  Ni  Ni722  1  0.08613200  0.78237767  0.39307286  1.0
  Ni  Ni723  1  0.41946533  0.11571100  0.39307286  1.0
  Ni  Ni724  1  0.41946533  0.44904433  0.39307286  1.0
  Ni  Ni725  1  0.41946533  0.78237767  0.39307286  1.0
  Ni  Ni726  1  0.75279867  0.11571100  0.39307286  1.0
  Ni  Ni727  1  0.75279867  0.44904433  0.39307286  1.0
  Ni  Ni728  1  0.75279867  0.78237767  0.39307286  1.0
  Ni  Ni729  1  0.24720133  0.21762233  0.32121286  1.0
  Ni  Ni730  1  0.24720133  0.55095567  0.32121286  1.0
  Ni  Ni731  1  0.24720133  0.88428900  0.32121286  1.0
  Ni  Ni732  1  0.58053467  0.21762233  0.32121286  1.0
  Ni  Ni733  1  0.58053467  0.55095567  0.32121286  1.0
  Ni  Ni734  1  0.58053467  0.88428900  0.32121286  1.0
  Ni  Ni735  1  0.91386800  0.21762233  0.32121286  1.0
  Ni  Ni736  1  0.91386800  0.55095567  0.32121286  1.0
  Ni  Ni737  1  0.91386800  0.88428900  0.32121286  1.0
  Ni  Ni738  1  0.13021400  0.00955900  0.32259914  1.0
  Ni  Ni739  1  0.13021400  0.34289233  0.32259914  1.0
  Ni  Ni740  1  0.13021400  0.67622567  0.32259914  1.0
  Ni  Ni741  1  0.46354733  0.00955900  0.32259914  1.0
  Ni  Ni742  1  0.46354733  0.34289233  0.32259914  1.0
  Ni  Ni743  1  0.46354733  0.67622567  0.32259914  1.0
  Ni  Ni744  1  0.79688067  0.00955900  0.32259914  1.0
  Ni  Ni745  1  0.79688067  0.34289233  0.32259914  1.0
  Ni  Ni746  1  0.79688067  0.67622567  0.32259914  1.0
  Ni  Ni747  1  0.20311933  0.32377433  0.39168657  1.0
  Ni  Ni748  1  0.20311933  0.65710767  0.39168657  1.0
  Ni  Ni749  1  0.20311933  0.99044100  0.39168657  1.0
  Ni  Ni750  1  0.53645267  0.32377433  0.39168657  1.0
  Ni  Ni751  1  0.53645267  0.65710767  0.39168657  1.0
  Ni  Ni752  1  0.53645267  0.99044100  0.39168657  1.0
  Ni  Ni753  1  0.86978600  0.32377433  0.39168657  1.0
  Ni  Ni754  1  0.86978600  0.65710767  0.39168657  1.0
  Ni  Ni755  1  0.86978600  0.99044100  0.39168657  1.0
  Ni  Ni756  1  0.19968467  0.17901800  0.39706529  1.0
  Ni  Ni757  1  0.19968467  0.51235133  0.39706529  1.0
  Ni  Ni758  1  0.19968467  0.84568467  0.39706529  1.0
  Ni  Ni759  1  0.53301800  0.17901800  0.39706529  1.0
  Ni  Ni760  1  0.53301800  0.51235133  0.39706529  1.0
  Ni  Ni761  1  0.53301800  0.84568467  0.39706529  1.0
  Ni  Ni762  1  0.86635133  0.17901800  0.39706529  1.0
  Ni  Ni763  1  0.86635133  0.51235133  0.39706529  1.0
  Ni  Ni764  1  0.86635133  0.84568467  0.39706529  1.0
  Ni  Ni765  1  0.13364867  0.15431533  0.31722043  1.0
  Ni  Ni766  1  0.13364867  0.48764867  0.31722043  1.0
  Ni  Ni767  1  0.13364867  0.82098200  0.31722043  1.0
  Ni  Ni768  1  0.46698200  0.15431533  0.31722043  1.0
  Ni  Ni769  1  0.46698200  0.48764867  0.31722043  1.0
  Ni  Ni770  1  0.46698200  0.82098200  0.31722043  1.0
  Ni  Ni771  1  0.80031533  0.15431533  0.31722043  1.0
  Ni  Ni772  1  0.80031533  0.48764867  0.31722043  1.0
  Ni  Ni773  1  0.80031533  0.82098200  0.31722043  1.0
  Ni  Ni774  1  0.23702867  0.28095433  0.32764186  1.0
  Ni  Ni775  1  0.23702867  0.61428767  0.32764186  1.0
  Ni  Ni776  1  0.23702867  0.94762100  0.32764186  1.0
  Ni  Ni777  1  0.57036200  0.28095433  0.32764186  1.0
  Ni  Ni778  1  0.57036200  0.61428767  0.32764186  1.0
  Ni  Ni779  1  0.57036200  0.94762100  0.32764186  1.0
  Ni  Ni780  1  0.90369533  0.28095433  0.32764186  1.0
  Ni  Ni781  1  0.90369533  0.61428767  0.32764186  1.0
  Ni  Ni782  1  0.90369533  0.94762100  0.32764186  1.0
