# generated using pymatgen
data_Hf8Ni21
_symmetry_space_group_name_H-M   'P 1'
_cell_length_a   23.95649223
_cell_length_b   61.00168313
_cell_length_c   44.86852300
_cell_angle_alpha   51.11638331
_cell_angle_beta   75.46243674
_cell_angle_gamma   72.87914913
_symmetry_Int_Tables_number   1
_chemical_formula_structural   Hf8Ni21
_chemical_formula_sum   'Hf432 Ni1134'
_cell_volume   48585.90820761
_cell_formula_units_Z   54
loop_
 _symmetry_equiv_pos_site_id
 _symmetry_equiv_pos_as_xyz
  1  'x, y, z'
loop_
 _atom_site_type_symbol
 _atom_site_label
 _atom_site_symmetry_multiplicity
 _atom_site_fract_x
 _atom_site_fract_y
 _atom_site_fract_z
 _atom_site_occupancy
  Hf  Hf0  1  0.02100633  0.07763133  0.06943971  1.0
  Hf  Hf1  1  0.02100633  0.41096467  0.06943971  1.0
  Hf  Hf2  1  0.02100633  0.74429800  0.06943971  1.0
  Hf  Hf3  1  0.35433967  0.07763133  0.06943971  1.0
  Hf  Hf4  1  0.35433967  0.41096467  0.06943971  1.0
  Hf  Hf5  1  0.35433967  0.74429800  0.06943971  1.0
  Hf  Hf6  1  0.68767300  0.07763133  0.06943971  1.0
  Hf  Hf7  1  0.68767300  0.41096467  0.06943971  1.0
  Hf  Hf8  1  0.68767300  0.74429800  0.06943971  1.0
  Hf  Hf9  1  0.02100633  0.24429800  0.14086829  1.0
  Hf  Hf10  1  0.02100633  0.57763133  0.14086829  1.0
  Hf  Hf11  1  0.02100633  0.91096467  0.14086829  1.0
  Hf  Hf12  1  0.35433967  0.24429800  0.14086829  1.0
  Hf  Hf13  1  0.35433967  0.57763133  0.14086829  1.0
  Hf  Hf14  1  0.35433967  0.91096467  0.14086829  1.0
  Hf  Hf15  1  0.68767300  0.24429800  0.14086829  1.0
  Hf  Hf16  1  0.68767300  0.57763133  0.14086829  1.0
  Hf  Hf17  1  0.68767300  0.91096467  0.14086829  1.0
  Hf  Hf18  1  0.31232700  0.08903533  0.13511400  1.0
  Hf  Hf19  1  0.31232700  0.42236867  0.13511400  1.0
  Hf  Hf20  1  0.31232700  0.75570200  0.13511400  1.0
  Hf  Hf21  1  0.64566033  0.08903533  0.13511400  1.0
  Hf  Hf22  1  0.64566033  0.42236867  0.13511400  1.0
  Hf  Hf23  1  0.64566033  0.75570200  0.13511400  1.0
  Hf  Hf24  1  0.97899367  0.08903533  0.13511400  1.0
  Hf  Hf25  1  0.97899367  0.42236867  0.13511400  1.0
  Hf  Hf26  1  0.97899367  0.75570200  0.13511400  1.0
  Hf  Hf27  1  0.31232700  0.25570200  0.06368543  1.0
  Hf  Hf28  1  0.31232700  0.58903533  0.06368543  1.0
  Hf  Hf29  1  0.31232700  0.92236867  0.06368543  1.0
  Hf  Hf30  1  0.64566033  0.25570200  0.06368543  1.0
  Hf  Hf31  1  0.64566033  0.58903533  0.06368543  1.0
  Hf  Hf32  1  0.64566033  0.92236867  0.06368543  1.0
  Hf  Hf33  1  0.97899367  0.25570200  0.06368543  1.0
  Hf  Hf34  1  0.97899367  0.58903533  0.06368543  1.0
  Hf  Hf35  1  0.97899367  0.92236867  0.06368543  1.0
  Hf  Hf36  1  0.17887633  0.12421817  0.02315650  1.0
  Hf  Hf37  1  0.17887633  0.45755150  0.02315650  1.0
  Hf  Hf38  1  0.17887633  0.79088483  0.02315650  1.0
  Hf  Hf39  1  0.51220967  0.12421817  0.02315650  1.0
  Hf  Hf40  1  0.51220967  0.45755150  0.02315650  1.0
  Hf  Hf41  1  0.51220967  0.79088483  0.02315650  1.0
  Hf  Hf42  1  0.84554300  0.12421817  0.02315650  1.0
  Hf  Hf43  1  0.84554300  0.45755150  0.02315650  1.0
  Hf  Hf44  1  0.84554300  0.79088483  0.02315650  1.0
  Hf  Hf45  1  0.17887633  0.29088483  0.09458507  1.0
  Hf  Hf46  1  0.17887633  0.62421817  0.09458507  1.0
  Hf  Hf47  1  0.17887633  0.95755150  0.09458507  1.0
  Hf  Hf48  1  0.51220967  0.29088483  0.09458507  1.0
  Hf  Hf49  1  0.51220967  0.62421817  0.09458507  1.0
  Hf  Hf50  1  0.51220967  0.95755150  0.09458507  1.0
  Hf  Hf51  1  0.84554300  0.29088483  0.09458507  1.0
  Hf  Hf52  1  0.84554300  0.62421817  0.09458507  1.0
  Hf  Hf53  1  0.84554300  0.95755150  0.09458507  1.0
  Hf  Hf54  1  0.15445700  0.04244850  0.03854007  1.0
  Hf  Hf55  1  0.15445700  0.37578183  0.03854007  1.0
  Hf  Hf56  1  0.15445700  0.70911517  0.03854007  1.0
  Hf  Hf57  1  0.48779033  0.04244850  0.03854007  1.0
  Hf  Hf58  1  0.48779033  0.37578183  0.03854007  1.0
  Hf  Hf59  1  0.48779033  0.70911517  0.03854007  1.0
  Hf  Hf60  1  0.82112367  0.04244850  0.03854007  1.0
  Hf  Hf61  1  0.82112367  0.37578183  0.03854007  1.0
  Hf  Hf62  1  0.82112367  0.70911517  0.03854007  1.0
  Hf  Hf63  1  0.15445700  0.20911517  0.10996864  1.0
  Hf  Hf64  1  0.15445700  0.54244850  0.10996864  1.0
  Hf  Hf65  1  0.15445700  0.87578183  0.10996864  1.0
  Hf  Hf66  1  0.48779033  0.20911517  0.10996864  1.0
  Hf  Hf67  1  0.48779033  0.54244850  0.10996864  1.0
  Hf  Hf68  1  0.48779033  0.87578183  0.10996864  1.0
  Hf  Hf69  1  0.82112367  0.20911517  0.10996864  1.0
  Hf  Hf70  1  0.82112367  0.54244850  0.10996864  1.0
  Hf  Hf71  1  0.82112367  0.87578183  0.10996864  1.0
  Hf  Hf72  1  0.19889433  0.03092083  0.11477093  1.0
  Hf  Hf73  1  0.19889433  0.36425417  0.11477093  1.0
  Hf  Hf74  1  0.19889433  0.69758750  0.11477093  1.0
  Hf  Hf75  1  0.53222767  0.03092083  0.11477093  1.0
  Hf  Hf76  1  0.53222767  0.36425417  0.11477093  1.0
  Hf  Hf77  1  0.53222767  0.69758750  0.11477093  1.0
  Hf  Hf78  1  0.86556100  0.03092083  0.11477093  1.0
  Hf  Hf79  1  0.86556100  0.36425417  0.11477093  1.0
  Hf  Hf80  1  0.86556100  0.69758750  0.11477093  1.0
  Hf  Hf81  1  0.19889433  0.19758750  0.04334236  1.0
  Hf  Hf82  1  0.19889433  0.53092083  0.04334236  1.0
  Hf  Hf83  1  0.19889433  0.86425417  0.04334236  1.0
  Hf  Hf84  1  0.53222767  0.19758750  0.04334236  1.0
  Hf  Hf85  1  0.53222767  0.53092083  0.04334236  1.0
  Hf  Hf86  1  0.53222767  0.86425417  0.04334236  1.0
  Hf  Hf87  1  0.86556100  0.19758750  0.04334236  1.0
  Hf  Hf88  1  0.86556100  0.53092083  0.04334236  1.0
  Hf  Hf89  1  0.86556100  0.86425417  0.04334236  1.0
  Hf  Hf90  1  0.13443900  0.13574583  0.08978279  1.0
  Hf  Hf91  1  0.13443900  0.46907917  0.08978279  1.0
  Hf  Hf92  1  0.13443900  0.80241250  0.08978279  1.0
  Hf  Hf93  1  0.46777233  0.13574583  0.08978279  1.0
  Hf  Hf94  1  0.46777233  0.46907917  0.08978279  1.0
  Hf  Hf95  1  0.46777233  0.80241250  0.08978279  1.0
  Hf  Hf96  1  0.80110567  0.13574583  0.08978279  1.0
  Hf  Hf97  1  0.80110567  0.46907917  0.08978279  1.0
  Hf  Hf98  1  0.80110567  0.80241250  0.08978279  1.0
  Hf  Hf99  1  0.13443900  0.30241250  0.01835421  1.0
  Hf  Hf100  1  0.13443900  0.63574583  0.01835421  1.0
  Hf  Hf101  1  0.13443900  0.96907917  0.01835421  1.0
  Hf  Hf102  1  0.46777233  0.30241250  0.01835421  1.0
  Hf  Hf103  1  0.46777233  0.63574583  0.01835421  1.0
  Hf  Hf104  1  0.46777233  0.96907917  0.01835421  1.0
  Hf  Hf105  1  0.80110567  0.30241250  0.01835421  1.0
  Hf  Hf106  1  0.80110567  0.63574583  0.01835421  1.0
  Hf  Hf107  1  0.80110567  0.96907917  0.01835421  1.0
  Hf  Hf108  1  0.31258967  0.14878717  0.03882407  1.0
  Hf  Hf109  1  0.31258967  0.48212050  0.03882407  1.0
  Hf  Hf110  1  0.31258967  0.81545383  0.03882407  1.0
  Hf  Hf111  1  0.64592300  0.14878717  0.03882407  1.0
  Hf  Hf112  1  0.64592300  0.48212050  0.03882407  1.0
  Hf  Hf113  1  0.64592300  0.81545383  0.03882407  1.0
  Hf  Hf114  1  0.97925633  0.14878717  0.03882407  1.0
  Hf  Hf115  1  0.97925633  0.48212050  0.03882407  1.0
  Hf  Hf116  1  0.97925633  0.81545383  0.03882407  1.0
  Hf  Hf117  1  0.31258967  0.31545383  0.11025264  1.0
  Hf  Hf118  1  0.31258967  0.64878717  0.11025264  1.0
  Hf  Hf119  1  0.31258967  0.98212050  0.11025264  1.0
  Hf  Hf120  1  0.64592300  0.31545383  0.11025264  1.0
  Hf  Hf121  1  0.64592300  0.64878717  0.11025264  1.0
  Hf  Hf122  1  0.64592300  0.98212050  0.11025264  1.0
  Hf  Hf123  1  0.97925633  0.31545383  0.11025264  1.0
  Hf  Hf124  1  0.97925633  0.64878717  0.11025264  1.0
  Hf  Hf125  1  0.97925633  0.98212050  0.11025264  1.0
  Hf  Hf126  1  0.02074367  0.01787950  0.02287250  1.0
  Hf  Hf127  1  0.02074367  0.35121283  0.02287250  1.0
  Hf  Hf128  1  0.02074367  0.68454617  0.02287250  1.0
  Hf  Hf129  1  0.35407700  0.01787950  0.02287250  1.0
  Hf  Hf130  1  0.35407700  0.35121283  0.02287250  1.0
  Hf  Hf131  1  0.35407700  0.68454617  0.02287250  1.0
  Hf  Hf132  1  0.68741033  0.01787950  0.02287250  1.0
  Hf  Hf133  1  0.68741033  0.35121283  0.02287250  1.0
  Hf  Hf134  1  0.68741033  0.68454617  0.02287250  1.0
  Hf  Hf135  1  0.02074367  0.18454617  0.09430107  1.0
  Hf  Hf136  1  0.02074367  0.51787950  0.09430107  1.0
  Hf  Hf137  1  0.02074367  0.85121283  0.09430107  1.0
  Hf  Hf138  1  0.35407700  0.18454617  0.09430107  1.0
  Hf  Hf139  1  0.35407700  0.51787950  0.09430107  1.0
  Hf  Hf140  1  0.35407700  0.85121283  0.09430107  1.0
  Hf  Hf141  1  0.68741033  0.18454617  0.09430107  1.0
  Hf  Hf142  1  0.68741033  0.51787950  0.09430107  1.0
  Hf  Hf143  1  0.68741033  0.85121283  0.09430107  1.0
  Ni  Ni144  1  0.16666667  0.08333333  0.10227686  1.0
  Ni  Ni145  1  0.16666667  0.41666667  0.10227686  1.0
  Ni  Ni146  1  0.16666667  0.75000000  0.10227686  1.0
  Ni  Ni147  1  0.50000000  0.08333333  0.10227686  1.0
  Ni  Ni148  1  0.50000000  0.41666667  0.10227686  1.0
  Ni  Ni149  1  0.50000000  0.75000000  0.10227686  1.0
  Ni  Ni150  1  0.83333333  0.08333333  0.10227686  1.0
  Ni  Ni151  1  0.83333333  0.41666667  0.10227686  1.0
  Ni  Ni152  1  0.83333333  0.75000000  0.10227686  1.0
  Ni  Ni153  1  0.16666667  0.25000000  0.03084829  1.0
  Ni  Ni154  1  0.16666667  0.58333333  0.03084829  1.0
  Ni  Ni155  1  0.16666667  0.91666667  0.03084829  1.0
  Ni  Ni156  1  0.50000000  0.25000000  0.03084829  1.0
  Ni  Ni157  1  0.50000000  0.58333333  0.03084829  1.0
  Ni  Ni158  1  0.50000000  0.91666667  0.03084829  1.0
  Ni  Ni159  1  0.83333333  0.25000000  0.03084829  1.0
  Ni  Ni160  1  0.83333333  0.58333333  0.03084829  1.0
  Ni  Ni161  1  0.83333333  0.91666667  0.03084829  1.0
  Ni  Ni162  1  0.03915933  0.04299300  0.05018157  1.0
  Ni  Ni163  1  0.03915933  0.37632633  0.05018157  1.0
  Ni  Ni164  1  0.03915933  0.70965967  0.05018157  1.0
  Ni  Ni165  1  0.37249267  0.04299300  0.05018157  1.0
  Ni  Ni166  1  0.37249267  0.37632633  0.05018157  1.0
  Ni  Ni167  1  0.37249267  0.70965967  0.05018157  1.0
  Ni  Ni168  1  0.70582600  0.04299300  0.05018157  1.0
  Ni  Ni169  1  0.70582600  0.37632633  0.05018157  1.0
  Ni  Ni170  1  0.70582600  0.70965967  0.05018157  1.0
  Ni  Ni171  1  0.03915933  0.20965967  0.12161014  1.0
  Ni  Ni172  1  0.03915933  0.54299300  0.12161014  1.0
  Ni  Ni173  1  0.03915933  0.87632633  0.12161014  1.0
  Ni  Ni174  1  0.37249267  0.20965967  0.12161014  1.0
  Ni  Ni175  1  0.37249267  0.54299300  0.12161014  1.0
  Ni  Ni176  1  0.37249267  0.87632633  0.12161014  1.0
  Ni  Ni177  1  0.70582600  0.20965967  0.12161014  1.0
  Ni  Ni178  1  0.70582600  0.54299300  0.12161014  1.0
  Ni  Ni179  1  0.70582600  0.87632633  0.12161014  1.0
  Ni  Ni180  1  0.29417400  0.12367367  0.01151500  1.0
  Ni  Ni181  1  0.29417400  0.45700700  0.01151500  1.0
  Ni  Ni182  1  0.29417400  0.79034033  0.01151500  1.0
  Ni  Ni183  1  0.62750733  0.12367367  0.01151500  1.0
  Ni  Ni184  1  0.62750733  0.45700700  0.01151500  1.0
  Ni  Ni185  1  0.62750733  0.79034033  0.01151500  1.0
  Ni  Ni186  1  0.96084067  0.12367367  0.01151500  1.0
  Ni  Ni187  1  0.96084067  0.45700700  0.01151500  1.0
  Ni  Ni188  1  0.96084067  0.79034033  0.01151500  1.0
  Ni  Ni189  1  0.29417400  0.29034033  0.08294357  1.0
  Ni  Ni190  1  0.29417400  0.62367367  0.08294357  1.0
  Ni  Ni191  1  0.29417400  0.95700700  0.08294357  1.0
  Ni  Ni192  1  0.62750733  0.29034033  0.08294357  1.0
  Ni  Ni193  1  0.62750733  0.62367367  0.08294357  1.0
  Ni  Ni194  1  0.62750733  0.95700700  0.08294357  1.0
  Ni  Ni195  1  0.96084067  0.29034033  0.08294357  1.0
  Ni  Ni196  1  0.96084067  0.62367367  0.08294357  1.0
  Ni  Ni197  1  0.96084067  0.95700700  0.08294357  1.0
  Ni  Ni198  1  0.07240200  0.10911267  0.07706971  1.0
  Ni  Ni199  1  0.07240200  0.44244600  0.07706971  1.0
  Ni  Ni200  1  0.07240200  0.77577933  0.07706971  1.0
  Ni  Ni201  1  0.40573533  0.10911267  0.07706971  1.0
  Ni  Ni202  1  0.40573533  0.44244600  0.07706971  1.0
  Ni  Ni203  1  0.40573533  0.77577933  0.07706971  1.0
  Ni  Ni204  1  0.73906867  0.10911267  0.07706971  1.0
  Ni  Ni205  1  0.73906867  0.44244600  0.07706971  1.0
  Ni  Ni206  1  0.73906867  0.77577933  0.07706971  1.0
  Ni  Ni207  1  0.07240200  0.27577933  0.00564114  1.0
  Ni  Ni208  1  0.07240200  0.60911267  0.00564114  1.0
  Ni  Ni209  1  0.07240200  0.94244600  0.00564114  1.0
  Ni  Ni210  1  0.40573533  0.27577933  0.00564114  1.0
  Ni  Ni211  1  0.40573533  0.60911267  0.00564114  1.0
  Ni  Ni212  1  0.40573533  0.94244600  0.00564114  1.0
  Ni  Ni213  1  0.73906867  0.27577933  0.00564114  1.0
  Ni  Ni214  1  0.73906867  0.60911267  0.00564114  1.0
  Ni  Ni215  1  0.73906867  0.94244600  0.00564114  1.0
  Ni  Ni216  1  0.26093133  0.05755400  0.12748400  1.0
  Ni  Ni217  1  0.26093133  0.39088733  0.12748400  1.0
  Ni  Ni218  1  0.26093133  0.72422067  0.12748400  1.0
  Ni  Ni219  1  0.59426467  0.05755400  0.12748400  1.0
  Ni  Ni220  1  0.59426467  0.39088733  0.12748400  1.0
  Ni  Ni221  1  0.59426467  0.72422067  0.12748400  1.0
  Ni  Ni222  1  0.92759800  0.05755400  0.12748400  1.0
  Ni  Ni223  1  0.92759800  0.39088733  0.12748400  1.0
  Ni  Ni224  1  0.92759800  0.72422067  0.12748400  1.0
  Ni  Ni225  1  0.26093133  0.22422067  0.05605543  1.0
  Ni  Ni226  1  0.26093133  0.55755400  0.05605543  1.0
  Ni  Ni227  1  0.26093133  0.89088733  0.05605543  1.0
  Ni  Ni228  1  0.59426467  0.22422067  0.05605543  1.0
  Ni  Ni229  1  0.59426467  0.55755400  0.05605543  1.0
  Ni  Ni230  1  0.59426467  0.89088733  0.05605543  1.0
  Ni  Ni231  1  0.92759800  0.22422067  0.05605543  1.0
  Ni  Ni232  1  0.92759800  0.55755400  0.05605543  1.0
  Ni  Ni233  1  0.92759800  0.89088733  0.05605543  1.0
  Ni  Ni234  1  0.08486133  0.15975300  0.02612329  1.0
  Ni  Ni235  1  0.08486133  0.49308633  0.02612329  1.0
  Ni  Ni236  1  0.08486133  0.82641967  0.02612329  1.0
  Ni  Ni237  1  0.41819467  0.15975300  0.02612329  1.0
  Ni  Ni238  1  0.41819467  0.49308633  0.02612329  1.0
  Ni  Ni239  1  0.41819467  0.82641967  0.02612329  1.0
  Ni  Ni240  1  0.75152800  0.15975300  0.02612329  1.0
  Ni  Ni241  1  0.75152800  0.49308633  0.02612329  1.0
  Ni  Ni242  1  0.75152800  0.82641967  0.02612329  1.0
  Ni  Ni243  1  0.08486133  0.32641967  0.09755186  1.0
  Ni  Ni244  1  0.08486133  0.65975300  0.09755186  1.0
  Ni  Ni245  1  0.08486133  0.99308633  0.09755186  1.0
  Ni  Ni246  1  0.41819467  0.32641967  0.09755186  1.0
  Ni  Ni247  1  0.41819467  0.65975300  0.09755186  1.0
  Ni  Ni248  1  0.41819467  0.99308633  0.09755186  1.0
  Ni  Ni249  1  0.75152800  0.32641967  0.09755186  1.0
  Ni  Ni250  1  0.75152800  0.65975300  0.09755186  1.0
  Ni  Ni251  1  0.75152800  0.99308633  0.09755186  1.0
  Ni  Ni252  1  0.24847200  0.00691367  0.03557329  1.0
  Ni  Ni253  1  0.24847200  0.34024700  0.03557329  1.0
  Ni  Ni254  1  0.24847200  0.67358033  0.03557329  1.0
  Ni  Ni255  1  0.58180533  0.00691367  0.03557329  1.0
  Ni  Ni256  1  0.58180533  0.34024700  0.03557329  1.0
  Ni  Ni257  1  0.58180533  0.67358033  0.03557329  1.0
  Ni  Ni258  1  0.91513867  0.00691367  0.03557329  1.0
  Ni  Ni259  1  0.91513867  0.34024700  0.03557329  1.0
  Ni  Ni260  1  0.91513867  0.67358033  0.03557329  1.0
  Ni  Ni261  1  0.24847200  0.17358033  0.10700186  1.0
  Ni  Ni262  1  0.24847200  0.50691367  0.10700186  1.0
  Ni  Ni263  1  0.24847200  0.84024700  0.10700186  1.0
  Ni  Ni264  1  0.58180533  0.17358033  0.10700186  1.0
  Ni  Ni265  1  0.58180533  0.50691367  0.10700186  1.0
  Ni  Ni266  1  0.58180533  0.84024700  0.10700186  1.0
  Ni  Ni267  1  0.91513867  0.17358033  0.10700186  1.0
  Ni  Ni268  1  0.91513867  0.50691367  0.10700186  1.0
  Ni  Ni269  1  0.91513867  0.84024700  0.10700186  1.0
  Ni  Ni270  1  0.09630467  0.02618950  0.10728764  1.0
  Ni  Ni271  1  0.09630467  0.35952283  0.10728764  1.0
  Ni  Ni272  1  0.09630467  0.69285617  0.10728764  1.0
  Ni  Ni273  1  0.42963800  0.02618950  0.10728764  1.0
  Ni  Ni274  1  0.42963800  0.35952283  0.10728764  1.0
  Ni  Ni275  1  0.42963800  0.69285617  0.10728764  1.0
  Ni  Ni276  1  0.76297133  0.02618950  0.10728764  1.0
  Ni  Ni277  1  0.76297133  0.35952283  0.10728764  1.0
  Ni  Ni278  1  0.76297133  0.69285617  0.10728764  1.0
  Ni  Ni279  1  0.09630467  0.19285617  0.03585907  1.0
  Ni  Ni280  1  0.09630467  0.52618950  0.03585907  1.0
  Ni  Ni281  1  0.09630467  0.85952283  0.03585907  1.0
  Ni  Ni282  1  0.42963800  0.19285617  0.03585907  1.0
  Ni  Ni283  1  0.42963800  0.52618950  0.03585907  1.0
  Ni  Ni284  1  0.42963800  0.85952283  0.03585907  1.0
  Ni  Ni285  1  0.76297133  0.19285617  0.03585907  1.0
  Ni  Ni286  1  0.76297133  0.52618950  0.03585907  1.0
  Ni  Ni287  1  0.76297133  0.85952283  0.03585907  1.0
  Ni  Ni288  1  0.01793667  0.14164933  0.09429257  1.0
  Ni  Ni289  1  0.01793667  0.47498267  0.09429257  1.0
  Ni  Ni290  1  0.01793667  0.80831600  0.09429257  1.0
  Ni  Ni291  1  0.35127000  0.14164933  0.09429257  1.0
  Ni  Ni292  1  0.35127000  0.47498267  0.09429257  1.0
  Ni  Ni293  1  0.35127000  0.80831600  0.09429257  1.0
  Ni  Ni294  1  0.68460333  0.14164933  0.09429257  1.0
  Ni  Ni295  1  0.68460333  0.47498267  0.09429257  1.0
  Ni  Ni296  1  0.68460333  0.80831600  0.09429257  1.0
  Ni  Ni297  1  0.01793667  0.30831600  0.02286400  1.0
  Ni  Ni298  1  0.01793667  0.64164933  0.02286400  1.0
  Ni  Ni299  1  0.01793667  0.97498267  0.02286400  1.0
  Ni  Ni300  1  0.35127000  0.30831600  0.02286400  1.0
  Ni  Ni301  1  0.35127000  0.64164933  0.02286400  1.0
  Ni  Ni302  1  0.35127000  0.97498267  0.02286400  1.0
  Ni  Ni303  1  0.68460333  0.30831600  0.02286400  1.0
  Ni  Ni304  1  0.68460333  0.64164933  0.02286400  1.0
  Ni  Ni305  1  0.68460333  0.97498267  0.02286400  1.0
  Ni  Ni306  1  0.31539667  0.02501733  0.11026114  1.0
  Ni  Ni307  1  0.31539667  0.35835067  0.11026114  1.0
  Ni  Ni308  1  0.31539667  0.69168400  0.11026114  1.0
  Ni  Ni309  1  0.64873000  0.02501733  0.11026114  1.0
  Ni  Ni310  1  0.64873000  0.35835067  0.11026114  1.0
  Ni  Ni311  1  0.64873000  0.69168400  0.11026114  1.0
  Ni  Ni312  1  0.98206333  0.02501733  0.11026114  1.0
  Ni  Ni313  1  0.98206333  0.35835067  0.11026114  1.0
  Ni  Ni314  1  0.98206333  0.69168400  0.11026114  1.0
  Ni  Ni315  1  0.31539667  0.19168400  0.03883257  1.0
  Ni  Ni316  1  0.31539667  0.52501733  0.03883257  1.0
  Ni  Ni317  1  0.31539667  0.85835067  0.03883257  1.0
  Ni  Ni318  1  0.64873000  0.19168400  0.03883257  1.0
  Ni  Ni319  1  0.64873000  0.52501733  0.03883257  1.0
  Ni  Ni320  1  0.64873000  0.85835067  0.03883257  1.0
  Ni  Ni321  1  0.98206333  0.19168400  0.03883257  1.0
  Ni  Ni322  1  0.98206333  0.52501733  0.03883257  1.0
  Ni  Ni323  1  0.98206333  0.85835067  0.03883257  1.0
  Ni  Ni324  1  0.06871733  0.12939417  0.00872236  1.0
  Ni  Ni325  1  0.06871733  0.46272750  0.00872236  1.0
  Ni  Ni326  1  0.06871733  0.79606083  0.00872236  1.0
  Ni  Ni327  1  0.40205067  0.12939417  0.00872236  1.0
  Ni  Ni328  1  0.40205067  0.46272750  0.00872236  1.0
  Ni  Ni329  1  0.40205067  0.79606083  0.00872236  1.0
  Ni  Ni330  1  0.73538400  0.12939417  0.00872236  1.0
  Ni  Ni331  1  0.73538400  0.46272750  0.00872236  1.0
  Ni  Ni332  1  0.73538400  0.79606083  0.00872236  1.0
  Ni  Ni333  1  0.06871733  0.29606083  0.08015093  1.0
  Ni  Ni334  1  0.06871733  0.62939417  0.08015093  1.0
  Ni  Ni335  1  0.06871733  0.96272750  0.08015093  1.0
  Ni  Ni336  1  0.40205067  0.29606083  0.08015093  1.0
  Ni  Ni337  1  0.40205067  0.62939417  0.08015093  1.0
  Ni  Ni338  1  0.40205067  0.96272750  0.08015093  1.0
  Ni  Ni339  1  0.73538400  0.29606083  0.08015093  1.0
  Ni  Ni340  1  0.73538400  0.62939417  0.08015093  1.0
  Ni  Ni341  1  0.73538400  0.96272750  0.08015093  1.0
  Ni  Ni342  1  0.26461600  0.03727250  0.05297421  1.0
  Ni  Ni343  1  0.26461600  0.37060583  0.05297421  1.0
  Ni  Ni344  1  0.26461600  0.70393917  0.05297421  1.0
  Ni  Ni345  1  0.59794933  0.03727250  0.05297421  1.0
  Ni  Ni346  1  0.59794933  0.37060583  0.05297421  1.0
  Ni  Ni347  1  0.59794933  0.70393917  0.05297421  1.0
  Ni  Ni348  1  0.93128267  0.03727250  0.05297421  1.0
  Ni  Ni349  1  0.93128267  0.37060583  0.05297421  1.0
  Ni  Ni350  1  0.93128267  0.70393917  0.05297421  1.0
  Ni  Ni351  1  0.26461600  0.20393917  0.12440279  1.0
  Ni  Ni352  1  0.26461600  0.53727250  0.12440279  1.0
  Ni  Ni353  1  0.26461600  0.87060583  0.12440279  1.0
  Ni  Ni354  1  0.59794933  0.20393917  0.12440279  1.0
  Ni  Ni355  1  0.59794933  0.53727250  0.12440279  1.0
  Ni  Ni356  1  0.59794933  0.87060583  0.12440279  1.0
  Ni  Ni357  1  0.93128267  0.20393917  0.12440279  1.0
  Ni  Ni358  1  0.93128267  0.53727250  0.12440279  1.0
  Ni  Ni359  1  0.93128267  0.87060583  0.12440279  1.0
  Ni  Ni360  1  0.08089933  0.09145250  0.00154579  1.0
  Ni  Ni361  1  0.08089933  0.42478583  0.00154579  1.0
  Ni  Ni362  1  0.08089933  0.75811917  0.00154579  1.0
  Ni  Ni363  1  0.41423267  0.09145250  0.00154579  1.0
  Ni  Ni364  1  0.41423267  0.42478583  0.00154579  1.0
  Ni  Ni365  1  0.41423267  0.75811917  0.00154579  1.0
  Ni  Ni366  1  0.74756600  0.09145250  0.00154579  1.0
  Ni  Ni367  1  0.74756600  0.42478583  0.00154579  1.0
  Ni  Ni368  1  0.74756600  0.75811917  0.00154579  1.0
  Ni  Ni369  1  0.08089933  0.25811917  0.07297436  1.0
  Ni  Ni370  1  0.08089933  0.59145250  0.07297436  1.0
  Ni  Ni371  1  0.08089933  0.92478583  0.07297436  1.0
  Ni  Ni372  1  0.41423267  0.25811917  0.07297436  1.0
  Ni  Ni373  1  0.41423267  0.59145250  0.07297436  1.0
  Ni  Ni374  1  0.41423267  0.92478583  0.07297436  1.0
  Ni  Ni375  1  0.74756600  0.25811917  0.07297436  1.0
  Ni  Ni376  1  0.74756600  0.59145250  0.07297436  1.0
  Ni  Ni377  1  0.74756600  0.92478583  0.07297436  1.0
  Ni  Ni378  1  0.25243400  0.07521417  0.06015079  1.0
  Ni  Ni379  1  0.25243400  0.40854750  0.06015079  1.0
  Ni  Ni380  1  0.25243400  0.74188083  0.06015079  1.0
  Ni  Ni381  1  0.58576733  0.07521417  0.06015079  1.0
  Ni  Ni382  1  0.58576733  0.40854750  0.06015079  1.0
  Ni  Ni383  1  0.58576733  0.74188083  0.06015079  1.0
  Ni  Ni384  1  0.91910067  0.07521417  0.06015079  1.0
  Ni  Ni385  1  0.91910067  0.40854750  0.06015079  1.0
  Ni  Ni386  1  0.91910067  0.74188083  0.06015079  1.0
  Ni  Ni387  1  0.25243400  0.24188083  0.13157936  1.0
  Ni  Ni388  1  0.25243400  0.57521417  0.13157936  1.0
  Ni  Ni389  1  0.25243400  0.90854750  0.13157936  1.0
  Ni  Ni390  1  0.58576733  0.24188083  0.13157936  1.0
  Ni  Ni391  1  0.58576733  0.57521417  0.13157936  1.0
  Ni  Ni392  1  0.58576733  0.90854750  0.13157936  1.0
  Ni  Ni393  1  0.91910067  0.24188083  0.13157936  1.0
  Ni  Ni394  1  0.91910067  0.57521417  0.13157936  1.0
  Ni  Ni395  1  0.91910067  0.90854750  0.13157936  1.0
  Ni  Ni396  1  0.08613200  0.05785550  0.12728779  1.0
  Ni  Ni397  1  0.08613200  0.39118883  0.12728779  1.0
  Ni  Ni398  1  0.08613200  0.72452217  0.12728779  1.0
  Ni  Ni399  1  0.41946533  0.05785550  0.12728779  1.0
  Ni  Ni400  1  0.41946533  0.39118883  0.12728779  1.0
  Ni  Ni401  1  0.41946533  0.72452217  0.12728779  1.0
  Ni  Ni402  1  0.75279867  0.05785550  0.12728779  1.0
  Ni  Ni403  1  0.75279867  0.39118883  0.12728779  1.0
  Ni  Ni404  1  0.75279867  0.72452217  0.12728779  1.0
  Ni  Ni405  1  0.08613200  0.22452217  0.05585921  1.0
  Ni  Ni406  1  0.08613200  0.55785550  0.05585921  1.0
  Ni  Ni407  1  0.08613200  0.89118883  0.05585921  1.0
  Ni  Ni408  1  0.41946533  0.22452217  0.05585921  1.0
  Ni  Ni409  1  0.41946533  0.55785550  0.05585921  1.0
  Ni  Ni410  1  0.41946533  0.89118883  0.05585921  1.0
  Ni  Ni411  1  0.75279867  0.22452217  0.05585921  1.0
  Ni  Ni412  1  0.75279867  0.55785550  0.05585921  1.0
  Ni  Ni413  1  0.75279867  0.89118883  0.05585921  1.0
  Ni  Ni414  1  0.24720133  0.10881117  0.07726593  1.0
  Ni  Ni415  1  0.24720133  0.44214450  0.07726593  1.0
  Ni  Ni416  1  0.24720133  0.77547783  0.07726593  1.0
  Ni  Ni417  1  0.58053467  0.10881117  0.07726593  1.0
  Ni  Ni418  1  0.58053467  0.44214450  0.07726593  1.0
  Ni  Ni419  1  0.58053467  0.77547783  0.07726593  1.0
  Ni  Ni420  1  0.91386800  0.10881117  0.07726593  1.0
  Ni  Ni421  1  0.91386800  0.44214450  0.07726593  1.0
  Ni  Ni422  1  0.91386800  0.77547783  0.07726593  1.0
  Ni  Ni423  1  0.24720133  0.27547783  0.00583736  1.0
  Ni  Ni424  1  0.24720133  0.60881117  0.00583736  1.0
  Ni  Ni425  1  0.24720133  0.94214450  0.00583736  1.0
  Ni  Ni426  1  0.58053467  0.27547783  0.00583736  1.0
  Ni  Ni427  1  0.58053467  0.60881117  0.00583736  1.0
  Ni  Ni428  1  0.58053467  0.94214450  0.00583736  1.0
  Ni  Ni429  1  0.91386800  0.27547783  0.00583736  1.0
  Ni  Ni430  1  0.91386800  0.60881117  0.00583736  1.0
  Ni  Ni431  1  0.91386800  0.94214450  0.00583736  1.0
  Ni  Ni432  1  0.13021400  0.00477950  0.03406721  1.0
  Ni  Ni433  1  0.13021400  0.33811283  0.03406721  1.0
  Ni  Ni434  1  0.13021400  0.67144617  0.03406721  1.0
  Ni  Ni435  1  0.46354733  0.00477950  0.03406721  1.0
  Ni  Ni436  1  0.46354733  0.33811283  0.03406721  1.0
  Ni  Ni437  1  0.46354733  0.67144617  0.03406721  1.0
  Ni  Ni438  1  0.79688067  0.00477950  0.03406721  1.0
  Ni  Ni439  1  0.79688067  0.33811283  0.03406721  1.0
  Ni  Ni440  1  0.79688067  0.67144617  0.03406721  1.0
  Ni  Ni441  1  0.13021400  0.17144617  0.10549579  1.0
  Ni  Ni442  1  0.13021400  0.50477950  0.10549579  1.0
  Ni  Ni443  1  0.13021400  0.83811283  0.10549579  1.0
  Ni  Ni444  1  0.46354733  0.17144617  0.10549579  1.0
  Ni  Ni445  1  0.46354733  0.50477950  0.10549579  1.0
  Ni  Ni446  1  0.46354733  0.83811283  0.10549579  1.0
  Ni  Ni447  1  0.79688067  0.17144617  0.10549579  1.0
  Ni  Ni448  1  0.79688067  0.50477950  0.10549579  1.0
  Ni  Ni449  1  0.79688067  0.83811283  0.10549579  1.0
  Ni  Ni450  1  0.20311933  0.16188717  0.02762936  1.0
  Ni  Ni451  1  0.20311933  0.49522050  0.02762936  1.0
  Ni  Ni452  1  0.20311933  0.82855383  0.02762936  1.0
  Ni  Ni453  1  0.53645267  0.16188717  0.02762936  1.0
  Ni  Ni454  1  0.53645267  0.49522050  0.02762936  1.0
  Ni  Ni455  1  0.53645267  0.82855383  0.02762936  1.0
  Ni  Ni456  1  0.86978600  0.16188717  0.02762936  1.0
  Ni  Ni457  1  0.86978600  0.49522050  0.02762936  1.0
  Ni  Ni458  1  0.86978600  0.82855383  0.02762936  1.0
  Ni  Ni459  1  0.20311933  0.32855383  0.09905793  1.0
  Ni  Ni460  1  0.20311933  0.66188717  0.09905793  1.0
  Ni  Ni461  1  0.20311933  0.99522050  0.09905793  1.0
  Ni  Ni462  1  0.53645267  0.32855383  0.09905793  1.0
  Ni  Ni463  1  0.53645267  0.66188717  0.09905793  1.0
  Ni  Ni464  1  0.53645267  0.99522050  0.09905793  1.0
  Ni  Ni465  1  0.86978600  0.32855383  0.09905793  1.0
  Ni  Ni466  1  0.86978600  0.66188717  0.09905793  1.0
  Ni  Ni467  1  0.86978600  0.99522050  0.09905793  1.0
  Ni  Ni468  1  0.19968467  0.08950900  0.00198886  1.0
  Ni  Ni469  1  0.19968467  0.42284233  0.00198886  1.0
  Ni  Ni470  1  0.19968467  0.75617567  0.00198886  1.0
  Ni  Ni471  1  0.53301800  0.08950900  0.00198886  1.0
  Ni  Ni472  1  0.53301800  0.42284233  0.00198886  1.0
  Ni  Ni473  1  0.53301800  0.75617567  0.00198886  1.0
  Ni  Ni474  1  0.86635133  0.08950900  0.00198886  1.0
  Ni  Ni475  1  0.86635133  0.42284233  0.00198886  1.0
  Ni  Ni476  1  0.86635133  0.75617567  0.00198886  1.0
  Ni  Ni477  1  0.19968467  0.25617567  0.07341743  1.0
  Ni  Ni478  1  0.19968467  0.58950900  0.07341743  1.0
  Ni  Ni479  1  0.19968467  0.92284233  0.07341743  1.0
  Ni  Ni480  1  0.53301800  0.25617567  0.07341743  1.0
  Ni  Ni481  1  0.53301800  0.58950900  0.07341743  1.0
  Ni  Ni482  1  0.53301800  0.92284233  0.07341743  1.0
  Ni  Ni483  1  0.86635133  0.25617567  0.07341743  1.0
  Ni  Ni484  1  0.86635133  0.58950900  0.07341743  1.0
  Ni  Ni485  1  0.86635133  0.92284233  0.07341743  1.0
  Ni  Ni486  1  0.13364867  0.07715767  0.05970771  1.0
  Ni  Ni487  1  0.13364867  0.41049100  0.05970771  1.0
  Ni  Ni488  1  0.13364867  0.74382433  0.05970771  1.0
  Ni  Ni489  1  0.46698200  0.07715767  0.05970771  1.0
  Ni  Ni490  1  0.46698200  0.41049100  0.05970771  1.0
  Ni  Ni491  1  0.46698200  0.74382433  0.05970771  1.0
  Ni  Ni492  1  0.80031533  0.07715767  0.05970771  1.0
  Ni  Ni493  1  0.80031533  0.41049100  0.05970771  1.0
  Ni  Ni494  1  0.80031533  0.74382433  0.05970771  1.0
  Ni  Ni495  1  0.13364867  0.24382433  0.13113629  1.0
  Ni  Ni496  1  0.13364867  0.57715767  0.13113629  1.0
  Ni  Ni497  1  0.13364867  0.91049100  0.13113629  1.0
  Ni  Ni498  1  0.46698200  0.24382433  0.13113629  1.0
  Ni  Ni499  1  0.46698200  0.57715767  0.13113629  1.0
  Ni  Ni500  1  0.46698200  0.91049100  0.13113629  1.0
  Ni  Ni501  1  0.80031533  0.24382433  0.13113629  1.0
  Ni  Ni502  1  0.80031533  0.57715767  0.13113629  1.0
  Ni  Ni503  1  0.80031533  0.91049100  0.13113629  1.0
  Ni  Ni504  1  0.23702867  0.14047717  0.09726607  1.0
  Ni  Ni505  1  0.23702867  0.47381050  0.09726607  1.0
  Ni  Ni506  1  0.23702867  0.80714383  0.09726607  1.0
  Ni  Ni507  1  0.57036200  0.14047717  0.09726607  1.0
  Ni  Ni508  1  0.57036200  0.47381050  0.09726607  1.0
  Ni  Ni509  1  0.57036200  0.80714383  0.09726607  1.0
  Ni  Ni510  1  0.90369533  0.14047717  0.09726607  1.0
  Ni  Ni511  1  0.90369533  0.47381050  0.09726607  1.0
  Ni  Ni512  1  0.90369533  0.80714383  0.09726607  1.0
  Ni  Ni513  1  0.23702867  0.30714383  0.02583750  1.0
  Ni  Ni514  1  0.23702867  0.64047717  0.02583750  1.0
  Ni  Ni515  1  0.23702867  0.97381050  0.02583750  1.0
  Ni  Ni516  1  0.57036200  0.30714383  0.02583750  1.0
  Ni  Ni517  1  0.57036200  0.64047717  0.02583750  1.0
  Ni  Ni518  1  0.57036200  0.97381050  0.02583750  1.0
  Ni  Ni519  1  0.90369533  0.30714383  0.02583750  1.0
  Ni  Ni520  1  0.90369533  0.64047717  0.02583750  1.0
  Ni  Ni521  1  0.90369533  0.97381050  0.02583750  1.0
  Hf  Hf522  1  0.02100633  0.07763133  0.21229686  1.0
  Hf  Hf523  1  0.02100633  0.41096467  0.21229686  1.0
  Hf  Hf524  1  0.02100633  0.74429800  0.21229686  1.0
  Hf  Hf525  1  0.35433967  0.07763133  0.21229686  1.0
  Hf  Hf526  1  0.35433967  0.41096467  0.21229686  1.0
  Hf  Hf527  1  0.35433967  0.74429800  0.21229686  1.0
  Hf  Hf528  1  0.68767300  0.07763133  0.21229686  1.0
  Hf  Hf529  1  0.68767300  0.41096467  0.21229686  1.0
  Hf  Hf530  1  0.68767300  0.74429800  0.21229686  1.0
  Hf  Hf531  1  0.02100633  0.24429800  0.28372543  1.0
  Hf  Hf532  1  0.02100633  0.57763133  0.28372543  1.0
  Hf  Hf533  1  0.02100633  0.91096467  0.28372543  1.0
  Hf  Hf534  1  0.35433967  0.24429800  0.28372543  1.0
  Hf  Hf535  1  0.35433967  0.57763133  0.28372543  1.0
  Hf  Hf536  1  0.35433967  0.91096467  0.28372543  1.0
  Hf  Hf537  1  0.68767300  0.24429800  0.28372543  1.0
  Hf  Hf538  1  0.68767300  0.57763133  0.28372543  1.0
  Hf  Hf539  1  0.68767300  0.91096467  0.28372543  1.0
  Hf  Hf540  1  0.31232700  0.08903533  0.27797114  1.0
  Hf  Hf541  1  0.31232700  0.42236867  0.27797114  1.0
  Hf  Hf542  1  0.31232700  0.75570200  0.27797114  1.0
  Hf  Hf543  1  0.64566033  0.08903533  0.27797114  1.0
  Hf  Hf544  1  0.64566033  0.42236867  0.27797114  1.0
  Hf  Hf545  1  0.64566033  0.75570200  0.27797114  1.0
  Hf  Hf546  1  0.97899367  0.08903533  0.27797114  1.0
  Hf  Hf547  1  0.97899367  0.42236867  0.27797114  1.0
  Hf  Hf548  1  0.97899367  0.75570200  0.27797114  1.0
  Hf  Hf549  1  0.31232700  0.25570200  0.20654257  1.0
  Hf  Hf550  1  0.31232700  0.58903533  0.20654257  1.0
  Hf  Hf551  1  0.31232700  0.92236867  0.20654257  1.0
  Hf  Hf552  1  0.64566033  0.25570200  0.20654257  1.0
  Hf  Hf553  1  0.64566033  0.58903533  0.20654257  1.0
  Hf  Hf554  1  0.64566033  0.92236867  0.20654257  1.0
  Hf  Hf555  1  0.97899367  0.25570200  0.20654257  1.0
  Hf  Hf556  1  0.97899367  0.58903533  0.20654257  1.0
  Hf  Hf557  1  0.97899367  0.92236867  0.20654257  1.0
  Hf  Hf558  1  0.17887633  0.12421817  0.16601364  1.0
  Hf  Hf559  1  0.17887633  0.45755150  0.16601364  1.0
  Hf  Hf560  1  0.17887633  0.79088483  0.16601364  1.0
  Hf  Hf561  1  0.51220967  0.12421817  0.16601364  1.0
  Hf  Hf562  1  0.51220967  0.45755150  0.16601364  1.0
  Hf  Hf563  1  0.51220967  0.79088483  0.16601364  1.0
  Hf  Hf564  1  0.84554300  0.12421817  0.16601364  1.0
  Hf  Hf565  1  0.84554300  0.45755150  0.16601364  1.0
  Hf  Hf566  1  0.84554300  0.79088483  0.16601364  1.0
  Hf  Hf567  1  0.17887633  0.29088483  0.23744221  1.0
  Hf  Hf568  1  0.17887633  0.62421817  0.23744221  1.0
  Hf  Hf569  1  0.17887633  0.95755150  0.23744221  1.0
  Hf  Hf570  1  0.51220967  0.29088483  0.23744221  1.0
  Hf  Hf571  1  0.51220967  0.62421817  0.23744221  1.0
  Hf  Hf572  1  0.51220967  0.95755150  0.23744221  1.0
  Hf  Hf573  1  0.84554300  0.29088483  0.23744221  1.0
  Hf  Hf574  1  0.84554300  0.62421817  0.23744221  1.0
  Hf  Hf575  1  0.84554300  0.95755150  0.23744221  1.0
  Hf  Hf576  1  0.15445700  0.04244850  0.18139721  1.0
  Hf  Hf577  1  0.15445700  0.37578183  0.18139721  1.0
  Hf  Hf578  1  0.15445700  0.70911517  0.18139721  1.0
  Hf  Hf579  1  0.48779033  0.04244850  0.18139721  1.0
  Hf  Hf580  1  0.48779033  0.37578183  0.18139721  1.0
  Hf  Hf581  1  0.48779033  0.70911517  0.18139721  1.0
  Hf  Hf582  1  0.82112367  0.04244850  0.18139721  1.0
  Hf  Hf583  1  0.82112367  0.37578183  0.18139721  1.0
  Hf  Hf584  1  0.82112367  0.70911517  0.18139721  1.0
  Hf  Hf585  1  0.15445700  0.20911517  0.25282579  1.0
  Hf  Hf586  1  0.15445700  0.54244850  0.25282579  1.0
  Hf  Hf587  1  0.15445700  0.87578183  0.25282579  1.0
  Hf  Hf588  1  0.48779033  0.20911517  0.25282579  1.0
  Hf  Hf589  1  0.48779033  0.54244850  0.25282579  1.0
  Hf  Hf590  1  0.48779033  0.87578183  0.25282579  1.0
  Hf  Hf591  1  0.82112367  0.20911517  0.25282579  1.0
  Hf  Hf592  1  0.82112367  0.54244850  0.25282579  1.0
  Hf  Hf593  1  0.82112367  0.87578183  0.25282579  1.0
  Hf  Hf594  1  0.19889433  0.03092083  0.25762807  1.0
  Hf  Hf595  1  0.19889433  0.36425417  0.25762807  1.0
  Hf  Hf596  1  0.19889433  0.69758750  0.25762807  1.0
  Hf  Hf597  1  0.53222767  0.03092083  0.25762807  1.0
  Hf  Hf598  1  0.53222767  0.36425417  0.25762807  1.0
  Hf  Hf599  1  0.53222767  0.69758750  0.25762807  1.0
  Hf  Hf600  1  0.86556100  0.03092083  0.25762807  1.0
  Hf  Hf601  1  0.86556100  0.36425417  0.25762807  1.0
  Hf  Hf602  1  0.86556100  0.69758750  0.25762807  1.0
  Hf  Hf603  1  0.19889433  0.19758750  0.18619950  1.0
  Hf  Hf604  1  0.19889433  0.53092083  0.18619950  1.0
  Hf  Hf605  1  0.19889433  0.86425417  0.18619950  1.0
  Hf  Hf606  1  0.53222767  0.19758750  0.18619950  1.0
  Hf  Hf607  1  0.53222767  0.53092083  0.18619950  1.0
  Hf  Hf608  1  0.53222767  0.86425417  0.18619950  1.0
  Hf  Hf609  1  0.86556100  0.19758750  0.18619950  1.0
  Hf  Hf610  1  0.86556100  0.53092083  0.18619950  1.0
  Hf  Hf611  1  0.86556100  0.86425417  0.18619950  1.0
  Hf  Hf612  1  0.13443900  0.13574583  0.23263993  1.0
  Hf  Hf613  1  0.13443900  0.46907917  0.23263993  1.0
  Hf  Hf614  1  0.13443900  0.80241250  0.23263993  1.0
  Hf  Hf615  1  0.46777233  0.13574583  0.23263993  1.0
  Hf  Hf616  1  0.46777233  0.46907917  0.23263993  1.0
  Hf  Hf617  1  0.46777233  0.80241250  0.23263993  1.0
  Hf  Hf618  1  0.80110567  0.13574583  0.23263993  1.0
  Hf  Hf619  1  0.80110567  0.46907917  0.23263993  1.0
  Hf  Hf620  1  0.80110567  0.80241250  0.23263993  1.0
  Hf  Hf621  1  0.13443900  0.30241250  0.16121136  1.0
  Hf  Hf622  1  0.13443900  0.63574583  0.16121136  1.0
  Hf  Hf623  1  0.13443900  0.96907917  0.16121136  1.0
  Hf  Hf624  1  0.46777233  0.30241250  0.16121136  1.0
  Hf  Hf625  1  0.46777233  0.63574583  0.16121136  1.0
  Hf  Hf626  1  0.46777233  0.96907917  0.16121136  1.0
  Hf  Hf627  1  0.80110567  0.30241250  0.16121136  1.0
  Hf  Hf628  1  0.80110567  0.63574583  0.16121136  1.0
  Hf  Hf629  1  0.80110567  0.96907917  0.16121136  1.0
  Hf  Hf630  1  0.31258967  0.14878717  0.18168121  1.0
  Hf  Hf631  1  0.31258967  0.48212050  0.18168121  1.0
  Hf  Hf632  1  0.31258967  0.81545383  0.18168121  1.0
  Hf  Hf633  1  0.64592300  0.14878717  0.18168121  1.0
  Hf  Hf634  1  0.64592300  0.48212050  0.18168121  1.0
  Hf  Hf635  1  0.64592300  0.81545383  0.18168121  1.0
  Hf  Hf636  1  0.97925633  0.14878717  0.18168121  1.0
  Hf  Hf637  1  0.97925633  0.48212050  0.18168121  1.0
  Hf  Hf638  1  0.97925633  0.81545383  0.18168121  1.0
  Hf  Hf639  1  0.31258967  0.31545383  0.25310979  1.0
  Hf  Hf640  1  0.31258967  0.64878717  0.25310979  1.0
  Hf  Hf641  1  0.31258967  0.98212050  0.25310979  1.0
  Hf  Hf642  1  0.64592300  0.31545383  0.25310979  1.0
  Hf  Hf643  1  0.64592300  0.64878717  0.25310979  1.0
  Hf  Hf644  1  0.64592300  0.98212050  0.25310979  1.0
  Hf  Hf645  1  0.97925633  0.31545383  0.25310979  1.0
  Hf  Hf646  1  0.97925633  0.64878717  0.25310979  1.0
  Hf  Hf647  1  0.97925633  0.98212050  0.25310979  1.0
  Hf  Hf648  1  0.02074367  0.01787950  0.16572964  1.0
  Hf  Hf649  1  0.02074367  0.35121283  0.16572964  1.0
  Hf  Hf650  1  0.02074367  0.68454617  0.16572964  1.0
  Hf  Hf651  1  0.35407700  0.01787950  0.16572964  1.0
  Hf  Hf652  1  0.35407700  0.35121283  0.16572964  1.0
  Hf  Hf653  1  0.35407700  0.68454617  0.16572964  1.0
  Hf  Hf654  1  0.68741033  0.01787950  0.16572964  1.0
  Hf  Hf655  1  0.68741033  0.35121283  0.16572964  1.0
  Hf  Hf656  1  0.68741033  0.68454617  0.16572964  1.0
  Hf  Hf657  1  0.02074367  0.18454617  0.23715821  1.0
  Hf  Hf658  1  0.02074367  0.51787950  0.23715821  1.0
  Hf  Hf659  1  0.02074367  0.85121283  0.23715821  1.0
  Hf  Hf660  1  0.35407700  0.18454617  0.23715821  1.0
  Hf  Hf661  1  0.35407700  0.51787950  0.23715821  1.0
  Hf  Hf662  1  0.35407700  0.85121283  0.23715821  1.0
  Hf  Hf663  1  0.68741033  0.18454617  0.23715821  1.0
  Hf  Hf664  1  0.68741033  0.51787950  0.23715821  1.0
  Hf  Hf665  1  0.68741033  0.85121283  0.23715821  1.0
  Ni  Ni666  1  0.16666667  0.08333333  0.24513400  1.0
  Ni  Ni667  1  0.16666667  0.41666667  0.24513400  1.0
  Ni  Ni668  1  0.16666667  0.75000000  0.24513400  1.0
  Ni  Ni669  1  0.50000000  0.08333333  0.24513400  1.0
  Ni  Ni670  1  0.50000000  0.41666667  0.24513400  1.0
  Ni  Ni671  1  0.50000000  0.75000000  0.24513400  1.0
  Ni  Ni672  1  0.83333333  0.08333333  0.24513400  1.0
  Ni  Ni673  1  0.83333333  0.41666667  0.24513400  1.0
  Ni  Ni674  1  0.83333333  0.75000000  0.24513400  1.0
  Ni  Ni675  1  0.16666667  0.25000000  0.17370543  1.0
  Ni  Ni676  1  0.16666667  0.58333333  0.17370543  1.0
  Ni  Ni677  1  0.16666667  0.91666667  0.17370543  1.0
  Ni  Ni678  1  0.50000000  0.25000000  0.17370543  1.0
  Ni  Ni679  1  0.50000000  0.58333333  0.17370543  1.0
  Ni  Ni680  1  0.50000000  0.91666667  0.17370543  1.0
  Ni  Ni681  1  0.83333333  0.25000000  0.17370543  1.0
  Ni  Ni682  1  0.83333333  0.58333333  0.17370543  1.0
  Ni  Ni683  1  0.83333333  0.91666667  0.17370543  1.0
  Ni  Ni684  1  0.03915933  0.04299300  0.19303871  1.0
  Ni  Ni685  1  0.03915933  0.37632633  0.19303871  1.0
  Ni  Ni686  1  0.03915933  0.70965967  0.19303871  1.0
  Ni  Ni687  1  0.37249267  0.04299300  0.19303871  1.0
  Ni  Ni688  1  0.37249267  0.37632633  0.19303871  1.0
  Ni  Ni689  1  0.37249267  0.70965967  0.19303871  1.0
  Ni  Ni690  1  0.70582600  0.04299300  0.19303871  1.0
  Ni  Ni691  1  0.70582600  0.37632633  0.19303871  1.0
  Ni  Ni692  1  0.70582600  0.70965967  0.19303871  1.0
  Ni  Ni693  1  0.03915933  0.20965967  0.26446729  1.0
  Ni  Ni694  1  0.03915933  0.54299300  0.26446729  1.0
  Ni  Ni695  1  0.03915933  0.87632633  0.26446729  1.0
  Ni  Ni696  1  0.37249267  0.20965967  0.26446729  1.0
  Ni  Ni697  1  0.37249267  0.54299300  0.26446729  1.0
  Ni  Ni698  1  0.37249267  0.87632633  0.26446729  1.0
  Ni  Ni699  1  0.70582600  0.20965967  0.26446729  1.0
  Ni  Ni700  1  0.70582600  0.54299300  0.26446729  1.0
  Ni  Ni701  1  0.70582600  0.87632633  0.26446729  1.0
  Ni  Ni702  1  0.29417400  0.12367367  0.15437214  1.0
  Ni  Ni703  1  0.29417400  0.45700700  0.15437214  1.0
  Ni  Ni704  1  0.29417400  0.79034033  0.15437214  1.0
  Ni  Ni705  1  0.62750733  0.12367367  0.15437214  1.0
  Ni  Ni706  1  0.62750733  0.45700700  0.15437214  1.0
  Ni  Ni707  1  0.62750733  0.79034033  0.15437214  1.0
  Ni  Ni708  1  0.96084067  0.12367367  0.15437214  1.0
  Ni  Ni709  1  0.96084067  0.45700700  0.15437214  1.0
  Ni  Ni710  1  0.96084067  0.79034033  0.15437214  1.0
  Ni  Ni711  1  0.29417400  0.29034033  0.22580071  1.0
  Ni  Ni712  1  0.29417400  0.62367367  0.22580071  1.0
  Ni  Ni713  1  0.29417400  0.95700700  0.22580071  1.0
  Ni  Ni714  1  0.62750733  0.29034033  0.22580071  1.0
  Ni  Ni715  1  0.62750733  0.62367367  0.22580071  1.0
  Ni  Ni716  1  0.62750733  0.95700700  0.22580071  1.0
  Ni  Ni717  1  0.96084067  0.29034033  0.22580071  1.0
  Ni  Ni718  1  0.96084067  0.62367367  0.22580071  1.0
  Ni  Ni719  1  0.96084067  0.95700700  0.22580071  1.0
  Ni  Ni720  1  0.07240200  0.10911267  0.21992686  1.0
  Ni  Ni721  1  0.07240200  0.44244600  0.21992686  1.0
  Ni  Ni722  1  0.07240200  0.77577933  0.21992686  1.0
  Ni  Ni723  1  0.40573533  0.10911267  0.21992686  1.0
  Ni  Ni724  1  0.40573533  0.44244600  0.21992686  1.0
  Ni  Ni725  1  0.40573533  0.77577933  0.21992686  1.0
  Ni  Ni726  1  0.73906867  0.10911267  0.21992686  1.0
  Ni  Ni727  1  0.73906867  0.44244600  0.21992686  1.0
  Ni  Ni728  1  0.73906867  0.77577933  0.21992686  1.0
  Ni  Ni729  1  0.07240200  0.27577933  0.14849829  1.0
  Ni  Ni730  1  0.07240200  0.60911267  0.14849829  1.0
  Ni  Ni731  1  0.07240200  0.94244600  0.14849829  1.0
  Ni  Ni732  1  0.40573533  0.27577933  0.14849829  1.0
  Ni  Ni733  1  0.40573533  0.60911267  0.14849829  1.0
  Ni  Ni734  1  0.40573533  0.94244600  0.14849829  1.0
  Ni  Ni735  1  0.73906867  0.27577933  0.14849829  1.0
  Ni  Ni736  1  0.73906867  0.60911267  0.14849829  1.0
  Ni  Ni737  1  0.73906867  0.94244600  0.14849829  1.0
  Ni  Ni738  1  0.26093133  0.05755400  0.27034114  1.0
  Ni  Ni739  1  0.26093133  0.39088733  0.27034114  1.0
  Ni  Ni740  1  0.26093133  0.72422067  0.27034114  1.0
  Ni  Ni741  1  0.59426467  0.05755400  0.27034114  1.0
  Ni  Ni742  1  0.59426467  0.39088733  0.27034114  1.0
  Ni  Ni743  1  0.59426467  0.72422067  0.27034114  1.0
  Ni  Ni744  1  0.92759800  0.05755400  0.27034114  1.0
  Ni  Ni745  1  0.92759800  0.39088733  0.27034114  1.0
  Ni  Ni746  1  0.92759800  0.72422067  0.27034114  1.0
  Ni  Ni747  1  0.26093133  0.22422067  0.19891257  1.0
  Ni  Ni748  1  0.26093133  0.55755400  0.19891257  1.0
  Ni  Ni749  1  0.26093133  0.89088733  0.19891257  1.0
  Ni  Ni750  1  0.59426467  0.22422067  0.19891257  1.0
  Ni  Ni751  1  0.59426467  0.55755400  0.19891257  1.0
  Ni  Ni752  1  0.59426467  0.89088733  0.19891257  1.0
  Ni  Ni753  1  0.92759800  0.22422067  0.19891257  1.0
  Ni  Ni754  1  0.92759800  0.55755400  0.19891257  1.0
  Ni  Ni755  1  0.92759800  0.89088733  0.19891257  1.0
  Ni  Ni756  1  0.08486133  0.15975300  0.16898043  1.0
  Ni  Ni757  1  0.08486133  0.49308633  0.16898043  1.0
  Ni  Ni758  1  0.08486133  0.82641967  0.16898043  1.0
  Ni  Ni759  1  0.41819467  0.15975300  0.16898043  1.0
  Ni  Ni760  1  0.41819467  0.49308633  0.16898043  1.0
  Ni  Ni761  1  0.41819467  0.82641967  0.16898043  1.0
  Ni  Ni762  1  0.75152800  0.15975300  0.16898043  1.0
  Ni  Ni763  1  0.75152800  0.49308633  0.16898043  1.0
  Ni  Ni764  1  0.75152800  0.82641967  0.16898043  1.0
  Ni  Ni765  1  0.08486133  0.32641967  0.24040900  1.0
  Ni  Ni766  1  0.08486133  0.65975300  0.24040900  1.0
  Ni  Ni767  1  0.08486133  0.99308633  0.24040900  1.0
  Ni  Ni768  1  0.41819467  0.32641967  0.24040900  1.0
  Ni  Ni769  1  0.41819467  0.65975300  0.24040900  1.0
  Ni  Ni770  1  0.41819467  0.99308633  0.24040900  1.0
  Ni  Ni771  1  0.75152800  0.32641967  0.24040900  1.0
  Ni  Ni772  1  0.75152800  0.65975300  0.24040900  1.0
  Ni  Ni773  1  0.75152800  0.99308633  0.24040900  1.0
  Ni  Ni774  1  0.24847200  0.00691367  0.17843043  1.0
  Ni  Ni775  1  0.24847200  0.34024700  0.17843043  1.0
  Ni  Ni776  1  0.24847200  0.67358033  0.17843043  1.0
  Ni  Ni777  1  0.58180533  0.00691367  0.17843043  1.0
  Ni  Ni778  1  0.58180533  0.34024700  0.17843043  1.0
  Ni  Ni779  1  0.58180533  0.67358033  0.17843043  1.0
  Ni  Ni780  1  0.91513867  0.00691367  0.17843043  1.0
  Ni  Ni781  1  0.91513867  0.34024700  0.17843043  1.0
  Ni  Ni782  1  0.91513867  0.67358033  0.17843043  1.0
  Ni  Ni783  1  0.24847200  0.17358033  0.24985900  1.0
  Ni  Ni784  1  0.24847200  0.50691367  0.24985900  1.0
  Ni  Ni785  1  0.24847200  0.84024700  0.24985900  1.0
  Ni  Ni786  1  0.58180533  0.17358033  0.24985900  1.0
  Ni  Ni787  1  0.58180533  0.50691367  0.24985900  1.0
  Ni  Ni788  1  0.58180533  0.84024700  0.24985900  1.0
  Ni  Ni789  1  0.91513867  0.17358033  0.24985900  1.0
  Ni  Ni790  1  0.91513867  0.50691367  0.24985900  1.0
  Ni  Ni791  1  0.91513867  0.84024700  0.24985900  1.0
  Ni  Ni792  1  0.09630467  0.02618950  0.25014479  1.0
  Ni  Ni793  1  0.09630467  0.35952283  0.25014479  1.0
  Ni  Ni794  1  0.09630467  0.69285617  0.25014479  1.0
  Ni  Ni795  1  0.42963800  0.02618950  0.25014479  1.0
  Ni  Ni796  1  0.42963800  0.35952283  0.25014479  1.0
  Ni  Ni797  1  0.42963800  0.69285617  0.25014479  1.0
  Ni  Ni798  1  0.76297133  0.02618950  0.25014479  1.0
  Ni  Ni799  1  0.76297133  0.35952283  0.25014479  1.0
  Ni  Ni800  1  0.76297133  0.69285617  0.25014479  1.0
  Ni  Ni801  1  0.09630467  0.19285617  0.17871621  1.0
  Ni  Ni802  1  0.09630467  0.52618950  0.17871621  1.0
  Ni  Ni803  1  0.09630467  0.85952283  0.17871621  1.0
  Ni  Ni804  1  0.42963800  0.19285617  0.17871621  1.0
  Ni  Ni805  1  0.42963800  0.52618950  0.17871621  1.0
  Ni  Ni806  1  0.42963800  0.85952283  0.17871621  1.0
  Ni  Ni807  1  0.76297133  0.19285617  0.17871621  1.0
  Ni  Ni808  1  0.76297133  0.52618950  0.17871621  1.0
  Ni  Ni809  1  0.76297133  0.85952283  0.17871621  1.0
  Ni  Ni810  1  0.01793667  0.14164933  0.23714971  1.0
  Ni  Ni811  1  0.01793667  0.47498267  0.23714971  1.0
  Ni  Ni812  1  0.01793667  0.80831600  0.23714971  1.0
  Ni  Ni813  1  0.35127000  0.14164933  0.23714971  1.0
  Ni  Ni814  1  0.35127000  0.47498267  0.23714971  1.0
  Ni  Ni815  1  0.35127000  0.80831600  0.23714971  1.0
  Ni  Ni816  1  0.68460333  0.14164933  0.23714971  1.0
  Ni  Ni817  1  0.68460333  0.47498267  0.23714971  1.0
  Ni  Ni818  1  0.68460333  0.80831600  0.23714971  1.0
  Ni  Ni819  1  0.01793667  0.30831600  0.16572114  1.0
  Ni  Ni820  1  0.01793667  0.64164933  0.16572114  1.0
  Ni  Ni821  1  0.01793667  0.97498267  0.16572114  1.0
  Ni  Ni822  1  0.35127000  0.30831600  0.16572114  1.0
  Ni  Ni823  1  0.35127000  0.64164933  0.16572114  1.0
  Ni  Ni824  1  0.35127000  0.97498267  0.16572114  1.0
  Ni  Ni825  1  0.68460333  0.30831600  0.16572114  1.0
  Ni  Ni826  1  0.68460333  0.64164933  0.16572114  1.0
  Ni  Ni827  1  0.68460333  0.97498267  0.16572114  1.0
  Ni  Ni828  1  0.31539667  0.02501733  0.25311829  1.0
  Ni  Ni829  1  0.31539667  0.35835067  0.25311829  1.0
  Ni  Ni830  1  0.31539667  0.69168400  0.25311829  1.0
  Ni  Ni831  1  0.64873000  0.02501733  0.25311829  1.0
  Ni  Ni832  1  0.64873000  0.35835067  0.25311829  1.0
  Ni  Ni833  1  0.64873000  0.69168400  0.25311829  1.0
  Ni  Ni834  1  0.98206333  0.02501733  0.25311829  1.0
  Ni  Ni835  1  0.98206333  0.35835067  0.25311829  1.0
  Ni  Ni836  1  0.98206333  0.69168400  0.25311829  1.0
  Ni  Ni837  1  0.31539667  0.19168400  0.18168971  1.0
  Ni  Ni838  1  0.31539667  0.52501733  0.18168971  1.0
  Ni  Ni839  1  0.31539667  0.85835067  0.18168971  1.0
  Ni  Ni840  1  0.64873000  0.19168400  0.18168971  1.0
  Ni  Ni841  1  0.64873000  0.52501733  0.18168971  1.0
  Ni  Ni842  1  0.64873000  0.85835067  0.18168971  1.0
  Ni  Ni843  1  0.98206333  0.19168400  0.18168971  1.0
  Ni  Ni844  1  0.98206333  0.52501733  0.18168971  1.0
  Ni  Ni845  1  0.98206333  0.85835067  0.18168971  1.0
  Ni  Ni846  1  0.06871733  0.12939417  0.15157950  1.0
  Ni  Ni847  1  0.06871733  0.46272750  0.15157950  1.0
  Ni  Ni848  1  0.06871733  0.79606083  0.15157950  1.0
  Ni  Ni849  1  0.40205067  0.12939417  0.15157950  1.0
  Ni  Ni850  1  0.40205067  0.46272750  0.15157950  1.0
  Ni  Ni851  1  0.40205067  0.79606083  0.15157950  1.0
  Ni  Ni852  1  0.73538400  0.12939417  0.15157950  1.0
  Ni  Ni853  1  0.73538400  0.46272750  0.15157950  1.0
  Ni  Ni854  1  0.73538400  0.79606083  0.15157950  1.0
  Ni  Ni855  1  0.06871733  0.29606083  0.22300807  1.0
  Ni  Ni856  1  0.06871733  0.62939417  0.22300807  1.0
  Ni  Ni857  1  0.06871733  0.96272750  0.22300807  1.0
  Ni  Ni858  1  0.40205067  0.29606083  0.22300807  1.0
  Ni  Ni859  1  0.40205067  0.62939417  0.22300807  1.0
  Ni  Ni860  1  0.40205067  0.96272750  0.22300807  1.0
  Ni  Ni861  1  0.73538400  0.29606083  0.22300807  1.0
  Ni  Ni862  1  0.73538400  0.62939417  0.22300807  1.0
  Ni  Ni863  1  0.73538400  0.96272750  0.22300807  1.0
  Ni  Ni864  1  0.26461600  0.03727250  0.19583136  1.0
  Ni  Ni865  1  0.26461600  0.37060583  0.19583136  1.0
  Ni  Ni866  1  0.26461600  0.70393917  0.19583136  1.0
  Ni  Ni867  1  0.59794933  0.03727250  0.19583136  1.0
  Ni  Ni868  1  0.59794933  0.37060583  0.19583136  1.0
  Ni  Ni869  1  0.59794933  0.70393917  0.19583136  1.0
  Ni  Ni870  1  0.93128267  0.03727250  0.19583136  1.0
  Ni  Ni871  1  0.93128267  0.37060583  0.19583136  1.0
  Ni  Ni872  1  0.93128267  0.70393917  0.19583136  1.0
  Ni  Ni873  1  0.26461600  0.20393917  0.26725993  1.0
  Ni  Ni874  1  0.26461600  0.53727250  0.26725993  1.0
  Ni  Ni875  1  0.26461600  0.87060583  0.26725993  1.0
  Ni  Ni876  1  0.59794933  0.20393917  0.26725993  1.0
  Ni  Ni877  1  0.59794933  0.53727250  0.26725993  1.0
  Ni  Ni878  1  0.59794933  0.87060583  0.26725993  1.0
  Ni  Ni879  1  0.93128267  0.20393917  0.26725993  1.0
  Ni  Ni880  1  0.93128267  0.53727250  0.26725993  1.0
  Ni  Ni881  1  0.93128267  0.87060583  0.26725993  1.0
  Ni  Ni882  1  0.08089933  0.09145250  0.14440293  1.0
  Ni  Ni883  1  0.08089933  0.42478583  0.14440293  1.0
  Ni  Ni884  1  0.08089933  0.75811917  0.14440293  1.0
  Ni  Ni885  1  0.41423267  0.09145250  0.14440293  1.0
  Ni  Ni886  1  0.41423267  0.42478583  0.14440293  1.0
  Ni  Ni887  1  0.41423267  0.75811917  0.14440293  1.0
  Ni  Ni888  1  0.74756600  0.09145250  0.14440293  1.0
  Ni  Ni889  1  0.74756600  0.42478583  0.14440293  1.0
  Ni  Ni890  1  0.74756600  0.75811917  0.14440293  1.0
  Ni  Ni891  1  0.08089933  0.25811917  0.21583150  1.0
  Ni  Ni892  1  0.08089933  0.59145250  0.21583150  1.0
  Ni  Ni893  1  0.08089933  0.92478583  0.21583150  1.0
  Ni  Ni894  1  0.41423267  0.25811917  0.21583150  1.0
  Ni  Ni895  1  0.41423267  0.59145250  0.21583150  1.0
  Ni  Ni896  1  0.41423267  0.92478583  0.21583150  1.0
  Ni  Ni897  1  0.74756600  0.25811917  0.21583150  1.0
  Ni  Ni898  1  0.74756600  0.59145250  0.21583150  1.0
  Ni  Ni899  1  0.74756600  0.92478583  0.21583150  1.0
  Ni  Ni900  1  0.25243400  0.07521417  0.20300793  1.0
  Ni  Ni901  1  0.25243400  0.40854750  0.20300793  1.0
  Ni  Ni902  1  0.25243400  0.74188083  0.20300793  1.0
  Ni  Ni903  1  0.58576733  0.07521417  0.20300793  1.0
  Ni  Ni904  1  0.58576733  0.40854750  0.20300793  1.0
  Ni  Ni905  1  0.58576733  0.74188083  0.20300793  1.0
  Ni  Ni906  1  0.91910067  0.07521417  0.20300793  1.0
  Ni  Ni907  1  0.91910067  0.40854750  0.20300793  1.0
  Ni  Ni908  1  0.91910067  0.74188083  0.20300793  1.0
  Ni  Ni909  1  0.25243400  0.24188083  0.27443650  1.0
  Ni  Ni910  1  0.25243400  0.57521417  0.27443650  1.0
  Ni  Ni911  1  0.25243400  0.90854750  0.27443650  1.0
  Ni  Ni912  1  0.58576733  0.24188083  0.27443650  1.0
  Ni  Ni913  1  0.58576733  0.57521417  0.27443650  1.0
  Ni  Ni914  1  0.58576733  0.90854750  0.27443650  1.0
  Ni  Ni915  1  0.91910067  0.24188083  0.27443650  1.0
  Ni  Ni916  1  0.91910067  0.57521417  0.27443650  1.0
  Ni  Ni917  1  0.91910067  0.90854750  0.27443650  1.0
  Ni  Ni918  1  0.08613200  0.05785550  0.27014493  1.0
  Ni  Ni919  1  0.08613200  0.39118883  0.27014493  1.0
  Ni  Ni920  1  0.08613200  0.72452217  0.27014493  1.0
  Ni  Ni921  1  0.41946533  0.05785550  0.27014493  1.0
  Ni  Ni922  1  0.41946533  0.39118883  0.27014493  1.0
  Ni  Ni923  1  0.41946533  0.72452217  0.27014493  1.0
  Ni  Ni924  1  0.75279867  0.05785550  0.27014493  1.0
  Ni  Ni925  1  0.75279867  0.39118883  0.27014493  1.0
  Ni  Ni926  1  0.75279867  0.72452217  0.27014493  1.0
  Ni  Ni927  1  0.08613200  0.22452217  0.19871636  1.0
  Ni  Ni928  1  0.08613200  0.55785550  0.19871636  1.0
  Ni  Ni929  1  0.08613200  0.89118883  0.19871636  1.0
  Ni  Ni930  1  0.41946533  0.22452217  0.19871636  1.0
  Ni  Ni931  1  0.41946533  0.55785550  0.19871636  1.0
  Ni  Ni932  1  0.41946533  0.89118883  0.19871636  1.0
  Ni  Ni933  1  0.75279867  0.22452217  0.19871636  1.0
  Ni  Ni934  1  0.75279867  0.55785550  0.19871636  1.0
  Ni  Ni935  1  0.75279867  0.89118883  0.19871636  1.0
  Ni  Ni936  1  0.24720133  0.10881117  0.22012307  1.0
  Ni  Ni937  1  0.24720133  0.44214450  0.22012307  1.0
  Ni  Ni938  1  0.24720133  0.77547783  0.22012307  1.0
  Ni  Ni939  1  0.58053467  0.10881117  0.22012307  1.0
  Ni  Ni940  1  0.58053467  0.44214450  0.22012307  1.0
  Ni  Ni941  1  0.58053467  0.77547783  0.22012307  1.0
  Ni  Ni942  1  0.91386800  0.10881117  0.22012307  1.0
  Ni  Ni943  1  0.91386800  0.44214450  0.22012307  1.0
  Ni  Ni944  1  0.91386800  0.77547783  0.22012307  1.0
  Ni  Ni945  1  0.24720133  0.27547783  0.14869450  1.0
  Ni  Ni946  1  0.24720133  0.60881117  0.14869450  1.0
  Ni  Ni947  1  0.24720133  0.94214450  0.14869450  1.0
  Ni  Ni948  1  0.58053467  0.27547783  0.14869450  1.0
  Ni  Ni949  1  0.58053467  0.60881117  0.14869450  1.0
  Ni  Ni950  1  0.58053467  0.94214450  0.14869450  1.0
  Ni  Ni951  1  0.91386800  0.27547783  0.14869450  1.0
  Ni  Ni952  1  0.91386800  0.60881117  0.14869450  1.0
  Ni  Ni953  1  0.91386800  0.94214450  0.14869450  1.0
  Ni  Ni954  1  0.13021400  0.00477950  0.17692436  1.0
  Ni  Ni955  1  0.13021400  0.33811283  0.17692436  1.0
  Ni  Ni956  1  0.13021400  0.67144617  0.17692436  1.0
  Ni  Ni957  1  0.46354733  0.00477950  0.17692436  1.0
  Ni  Ni958  1  0.46354733  0.33811283  0.17692436  1.0
  Ni  Ni959  1  0.46354733  0.67144617  0.17692436  1.0
  Ni  Ni960  1  0.79688067  0.00477950  0.17692436  1.0
  Ni  Ni961  1  0.79688067  0.33811283  0.17692436  1.0
  Ni  Ni962  1  0.79688067  0.67144617  0.17692436  1.0
  Ni  Ni963  1  0.13021400  0.17144617  0.24835293  1.0
  Ni  Ni964  1  0.13021400  0.50477950  0.24835293  1.0
  Ni  Ni965  1  0.13021400  0.83811283  0.24835293  1.0
  Ni  Ni966  1  0.46354733  0.17144617  0.24835293  1.0
  Ni  Ni967  1  0.46354733  0.50477950  0.24835293  1.0
  Ni  Ni968  1  0.46354733  0.83811283  0.24835293  1.0
  Ni  Ni969  1  0.79688067  0.17144617  0.24835293  1.0
  Ni  Ni970  1  0.79688067  0.50477950  0.24835293  1.0
  Ni  Ni971  1  0.79688067  0.83811283  0.24835293  1.0
  Ni  Ni972  1  0.20311933  0.16188717  0.17048650  1.0
  Ni  Ni973  1  0.20311933  0.49522050  0.17048650  1.0
  Ni  Ni974  1  0.20311933  0.82855383  0.17048650  1.0
  Ni  Ni975  1  0.53645267  0.16188717  0.17048650  1.0
  Ni  Ni976  1  0.53645267  0.49522050  0.17048650  1.0
  Ni  Ni977  1  0.53645267  0.82855383  0.17048650  1.0
  Ni  Ni978  1  0.86978600  0.16188717  0.17048650  1.0
  Ni  Ni979  1  0.86978600  0.49522050  0.17048650  1.0
  Ni  Ni980  1  0.86978600  0.82855383  0.17048650  1.0
  Ni  Ni981  1  0.20311933  0.32855383  0.24191507  1.0
  Ni  Ni982  1  0.20311933  0.66188717  0.24191507  1.0
  Ni  Ni983  1  0.20311933  0.99522050  0.24191507  1.0
  Ni  Ni984  1  0.53645267  0.32855383  0.24191507  1.0
  Ni  Ni985  1  0.53645267  0.66188717  0.24191507  1.0
  Ni  Ni986  1  0.53645267  0.99522050  0.24191507  1.0
  Ni  Ni987  1  0.86978600  0.32855383  0.24191507  1.0
  Ni  Ni988  1  0.86978600  0.66188717  0.24191507  1.0
  Ni  Ni989  1  0.86978600  0.99522050  0.24191507  1.0
  Ni  Ni990  1  0.19968467  0.08950900  0.14484600  1.0
  Ni  Ni991  1  0.19968467  0.42284233  0.14484600  1.0
  Ni  Ni992  1  0.19968467  0.75617567  0.14484600  1.0
  Ni  Ni993  1  0.53301800  0.08950900  0.14484600  1.0
  Ni  Ni994  1  0.53301800  0.42284233  0.14484600  1.0
  Ni  Ni995  1  0.53301800  0.75617567  0.14484600  1.0
  Ni  Ni996  1  0.86635133  0.08950900  0.14484600  1.0
  Ni  Ni997  1  0.86635133  0.42284233  0.14484600  1.0
  Ni  Ni998  1  0.86635133  0.75617567  0.14484600  1.0
  Ni  Ni999  1  0.19968467  0.25617567  0.21627457  1.0
  Ni  Ni1000  1  0.19968467  0.58950900  0.21627457  1.0
  Ni  Ni1001  1  0.19968467  0.92284233  0.21627457  1.0
  Ni  Ni1002  1  0.53301800  0.25617567  0.21627457  1.0
  Ni  Ni1003  1  0.53301800  0.58950900  0.21627457  1.0
  Ni  Ni1004  1  0.53301800  0.92284233  0.21627457  1.0
  Ni  Ni1005  1  0.86635133  0.25617567  0.21627457  1.0
  Ni  Ni1006  1  0.86635133  0.58950900  0.21627457  1.0
  Ni  Ni1007  1  0.86635133  0.92284233  0.21627457  1.0
  Ni  Ni1008  1  0.13364867  0.07715767  0.20256486  1.0
  Ni  Ni1009  1  0.13364867  0.41049100  0.20256486  1.0
  Ni  Ni1010  1  0.13364867  0.74382433  0.20256486  1.0
  Ni  Ni1011  1  0.46698200  0.07715767  0.20256486  1.0
  Ni  Ni1012  1  0.46698200  0.41049100  0.20256486  1.0
  Ni  Ni1013  1  0.46698200  0.74382433  0.20256486  1.0
  Ni  Ni1014  1  0.80031533  0.07715767  0.20256486  1.0
  Ni  Ni1015  1  0.80031533  0.41049100  0.20256486  1.0
  Ni  Ni1016  1  0.80031533  0.74382433  0.20256486  1.0
  Ni  Ni1017  1  0.13364867  0.24382433  0.27399343  1.0
  Ni  Ni1018  1  0.13364867  0.57715767  0.27399343  1.0
  Ni  Ni1019  1  0.13364867  0.91049100  0.27399343  1.0
  Ni  Ni1020  1  0.46698200  0.24382433  0.27399343  1.0
  Ni  Ni1021  1  0.46698200  0.57715767  0.27399343  1.0
  Ni  Ni1022  1  0.46698200  0.91049100  0.27399343  1.0
  Ni  Ni1023  1  0.80031533  0.24382433  0.27399343  1.0
  Ni  Ni1024  1  0.80031533  0.57715767  0.27399343  1.0
  Ni  Ni1025  1  0.80031533  0.91049100  0.27399343  1.0
  Ni  Ni1026  1  0.23702867  0.14047717  0.24012321  1.0
  Ni  Ni1027  1  0.23702867  0.47381050  0.24012321  1.0
  Ni  Ni1028  1  0.23702867  0.80714383  0.24012321  1.0
  Ni  Ni1029  1  0.57036200  0.14047717  0.24012321  1.0
  Ni  Ni1030  1  0.57036200  0.47381050  0.24012321  1.0
  Ni  Ni1031  1  0.57036200  0.80714383  0.24012321  1.0
  Ni  Ni1032  1  0.90369533  0.14047717  0.24012321  1.0
  Ni  Ni1033  1  0.90369533  0.47381050  0.24012321  1.0
  Ni  Ni1034  1  0.90369533  0.80714383  0.24012321  1.0
  Ni  Ni1035  1  0.23702867  0.30714383  0.16869464  1.0
  Ni  Ni1036  1  0.23702867  0.64047717  0.16869464  1.0
  Ni  Ni1037  1  0.23702867  0.97381050  0.16869464  1.0
  Ni  Ni1038  1  0.57036200  0.30714383  0.16869464  1.0
  Ni  Ni1039  1  0.57036200  0.64047717  0.16869464  1.0
  Ni  Ni1040  1  0.57036200  0.97381050  0.16869464  1.0
  Ni  Ni1041  1  0.90369533  0.30714383  0.16869464  1.0
  Ni  Ni1042  1  0.90369533  0.64047717  0.16869464  1.0
  Ni  Ni1043  1  0.90369533  0.97381050  0.16869464  1.0
  Hf  Hf1044  1  0.02100633  0.07763133  0.35515400  1.0
  Hf  Hf1045  1  0.02100633  0.41096467  0.35515400  1.0
  Hf  Hf1046  1  0.02100633  0.74429800  0.35515400  1.0
  Hf  Hf1047  1  0.35433967  0.07763133  0.35515400  1.0
  Hf  Hf1048  1  0.35433967  0.41096467  0.35515400  1.0
  Hf  Hf1049  1  0.35433967  0.74429800  0.35515400  1.0
  Hf  Hf1050  1  0.68767300  0.07763133  0.35515400  1.0
  Hf  Hf1051  1  0.68767300  0.41096467  0.35515400  1.0
  Hf  Hf1052  1  0.68767300  0.74429800  0.35515400  1.0
  Hf  Hf1053  1  0.02100633  0.24429800  0.42658257  1.0
  Hf  Hf1054  1  0.02100633  0.57763133  0.42658257  1.0
  Hf  Hf1055  1  0.02100633  0.91096467  0.42658257  1.0
  Hf  Hf1056  1  0.35433967  0.24429800  0.42658257  1.0
  Hf  Hf1057  1  0.35433967  0.57763133  0.42658257  1.0
  Hf  Hf1058  1  0.35433967  0.91096467  0.42658257  1.0
  Hf  Hf1059  1  0.68767300  0.24429800  0.42658257  1.0
  Hf  Hf1060  1  0.68767300  0.57763133  0.42658257  1.0
  Hf  Hf1061  1  0.68767300  0.91096467  0.42658257  1.0
  Hf  Hf1062  1  0.31232700  0.08903533  0.42082829  1.0
  Hf  Hf1063  1  0.31232700  0.42236867  0.42082829  1.0
  Hf  Hf1064  1  0.31232700  0.75570200  0.42082829  1.0
  Hf  Hf1065  1  0.64566033  0.08903533  0.42082829  1.0
  Hf  Hf1066  1  0.64566033  0.42236867  0.42082829  1.0
  Hf  Hf1067  1  0.64566033  0.75570200  0.42082829  1.0
  Hf  Hf1068  1  0.97899367  0.08903533  0.42082829  1.0
  Hf  Hf1069  1  0.97899367  0.42236867  0.42082829  1.0
  Hf  Hf1070  1  0.97899367  0.75570200  0.42082829  1.0
  Hf  Hf1071  1  0.31232700  0.25570200  0.34939971  1.0
  Hf  Hf1072  1  0.31232700  0.58903533  0.34939971  1.0
  Hf  Hf1073  1  0.31232700  0.92236867  0.34939971  1.0
  Hf  Hf1074  1  0.64566033  0.25570200  0.34939971  1.0
  Hf  Hf1075  1  0.64566033  0.58903533  0.34939971  1.0
  Hf  Hf1076  1  0.64566033  0.92236867  0.34939971  1.0
  Hf  Hf1077  1  0.97899367  0.25570200  0.34939971  1.0
  Hf  Hf1078  1  0.97899367  0.58903533  0.34939971  1.0
  Hf  Hf1079  1  0.97899367  0.92236867  0.34939971  1.0
  Hf  Hf1080  1  0.17887633  0.12421817  0.30887079  1.0
  Hf  Hf1081  1  0.17887633  0.45755150  0.30887079  1.0
  Hf  Hf1082  1  0.17887633  0.79088483  0.30887079  1.0
  Hf  Hf1083  1  0.51220967  0.12421817  0.30887079  1.0
  Hf  Hf1084  1  0.51220967  0.45755150  0.30887079  1.0
  Hf  Hf1085  1  0.51220967  0.79088483  0.30887079  1.0
  Hf  Hf1086  1  0.84554300  0.12421817  0.30887079  1.0
  Hf  Hf1087  1  0.84554300  0.45755150  0.30887079  1.0
  Hf  Hf1088  1  0.84554300  0.79088483  0.30887079  1.0
  Hf  Hf1089  1  0.17887633  0.29088483  0.38029936  1.0
  Hf  Hf1090  1  0.17887633  0.62421817  0.38029936  1.0
  Hf  Hf1091  1  0.17887633  0.95755150  0.38029936  1.0
  Hf  Hf1092  1  0.51220967  0.29088483  0.38029936  1.0
  Hf  Hf1093  1  0.51220967  0.62421817  0.38029936  1.0
  Hf  Hf1094  1  0.51220967  0.95755150  0.38029936  1.0
  Hf  Hf1095  1  0.84554300  0.29088483  0.38029936  1.0
  Hf  Hf1096  1  0.84554300  0.62421817  0.38029936  1.0
  Hf  Hf1097  1  0.84554300  0.95755150  0.38029936  1.0
  Hf  Hf1098  1  0.15445700  0.04244850  0.32425436  1.0
  Hf  Hf1099  1  0.15445700  0.37578183  0.32425436  1.0
  Hf  Hf1100  1  0.15445700  0.70911517  0.32425436  1.0
  Hf  Hf1101  1  0.48779033  0.04244850  0.32425436  1.0
  Hf  Hf1102  1  0.48779033  0.37578183  0.32425436  1.0
  Hf  Hf1103  1  0.48779033  0.70911517  0.32425436  1.0
  Hf  Hf1104  1  0.82112367  0.04244850  0.32425436  1.0
  Hf  Hf1105  1  0.82112367  0.37578183  0.32425436  1.0
  Hf  Hf1106  1  0.82112367  0.70911517  0.32425436  1.0
  Hf  Hf1107  1  0.15445700  0.20911517  0.39568293  1.0
  Hf  Hf1108  1  0.15445700  0.54244850  0.39568293  1.0
  Hf  Hf1109  1  0.15445700  0.87578183  0.39568293  1.0
  Hf  Hf1110  1  0.48779033  0.20911517  0.39568293  1.0
  Hf  Hf1111  1  0.48779033  0.54244850  0.39568293  1.0
  Hf  Hf1112  1  0.48779033  0.87578183  0.39568293  1.0
  Hf  Hf1113  1  0.82112367  0.20911517  0.39568293  1.0
  Hf  Hf1114  1  0.82112367  0.54244850  0.39568293  1.0
  Hf  Hf1115  1  0.82112367  0.87578183  0.39568293  1.0
  Hf  Hf1116  1  0.19889433  0.03092083  0.40048521  1.0
  Hf  Hf1117  1  0.19889433  0.36425417  0.40048521  1.0
  Hf  Hf1118  1  0.19889433  0.69758750  0.40048521  1.0
  Hf  Hf1119  1  0.53222767  0.03092083  0.40048521  1.0
  Hf  Hf1120  1  0.53222767  0.36425417  0.40048521  1.0
  Hf  Hf1121  1  0.53222767  0.69758750  0.40048521  1.0
  Hf  Hf1122  1  0.86556100  0.03092083  0.40048521  1.0
  Hf  Hf1123  1  0.86556100  0.36425417  0.40048521  1.0
  Hf  Hf1124  1  0.86556100  0.69758750  0.40048521  1.0
  Hf  Hf1125  1  0.19889433  0.19758750  0.32905664  1.0
  Hf  Hf1126  1  0.19889433  0.53092083  0.32905664  1.0
  Hf  Hf1127  1  0.19889433  0.86425417  0.32905664  1.0
  Hf  Hf1128  1  0.53222767  0.19758750  0.32905664  1.0
  Hf  Hf1129  1  0.53222767  0.53092083  0.32905664  1.0
  Hf  Hf1130  1  0.53222767  0.86425417  0.32905664  1.0
  Hf  Hf1131  1  0.86556100  0.19758750  0.32905664  1.0
  Hf  Hf1132  1  0.86556100  0.53092083  0.32905664  1.0
  Hf  Hf1133  1  0.86556100  0.86425417  0.32905664  1.0
  Hf  Hf1134  1  0.13443900  0.13574583  0.37549707  1.0
  Hf  Hf1135  1  0.13443900  0.46907917  0.37549707  1.0
  Hf  Hf1136  1  0.13443900  0.80241250  0.37549707  1.0
  Hf  Hf1137  1  0.46777233  0.13574583  0.37549707  1.0
  Hf  Hf1138  1  0.46777233  0.46907917  0.37549707  1.0
  Hf  Hf1139  1  0.46777233  0.80241250  0.37549707  1.0
  Hf  Hf1140  1  0.80110567  0.13574583  0.37549707  1.0
  Hf  Hf1141  1  0.80110567  0.46907917  0.37549707  1.0
  Hf  Hf1142  1  0.80110567  0.80241250  0.37549707  1.0
  Hf  Hf1143  1  0.13443900  0.30241250  0.30406850  1.0
  Hf  Hf1144  1  0.13443900  0.63574583  0.30406850  1.0
  Hf  Hf1145  1  0.13443900  0.96907917  0.30406850  1.0
  Hf  Hf1146  1  0.46777233  0.30241250  0.30406850  1.0
  Hf  Hf1147  1  0.46777233  0.63574583  0.30406850  1.0
  Hf  Hf1148  1  0.46777233  0.96907917  0.30406850  1.0
  Hf  Hf1149  1  0.80110567  0.30241250  0.30406850  1.0
  Hf  Hf1150  1  0.80110567  0.63574583  0.30406850  1.0
  Hf  Hf1151  1  0.80110567  0.96907917  0.30406850  1.0
  Hf  Hf1152  1  0.31258967  0.14878717  0.32453836  1.0
  Hf  Hf1153  1  0.31258967  0.48212050  0.32453836  1.0
  Hf  Hf1154  1  0.31258967  0.81545383  0.32453836  1.0
  Hf  Hf1155  1  0.64592300  0.14878717  0.32453836  1.0
  Hf  Hf1156  1  0.64592300  0.48212050  0.32453836  1.0
  Hf  Hf1157  1  0.64592300  0.81545383  0.32453836  1.0
  Hf  Hf1158  1  0.97925633  0.14878717  0.32453836  1.0
  Hf  Hf1159  1  0.97925633  0.48212050  0.32453836  1.0
  Hf  Hf1160  1  0.97925633  0.81545383  0.32453836  1.0
  Hf  Hf1161  1  0.31258967  0.31545383  0.39596693  1.0
  Hf  Hf1162  1  0.31258967  0.64878717  0.39596693  1.0
  Hf  Hf1163  1  0.31258967  0.98212050  0.39596693  1.0
  Hf  Hf1164  1  0.64592300  0.31545383  0.39596693  1.0
  Hf  Hf1165  1  0.64592300  0.64878717  0.39596693  1.0
  Hf  Hf1166  1  0.64592300  0.98212050  0.39596693  1.0
  Hf  Hf1167  1  0.97925633  0.31545383  0.39596693  1.0
  Hf  Hf1168  1  0.97925633  0.64878717  0.39596693  1.0
  Hf  Hf1169  1  0.97925633  0.98212050  0.39596693  1.0
  Hf  Hf1170  1  0.02074367  0.01787950  0.30858679  1.0
  Hf  Hf1171  1  0.02074367  0.35121283  0.30858679  1.0
  Hf  Hf1172  1  0.02074367  0.68454617  0.30858679  1.0
  Hf  Hf1173  1  0.35407700  0.01787950  0.30858679  1.0
  Hf  Hf1174  1  0.35407700  0.35121283  0.30858679  1.0
  Hf  Hf1175  1  0.35407700  0.68454617  0.30858679  1.0
  Hf  Hf1176  1  0.68741033  0.01787950  0.30858679  1.0
  Hf  Hf1177  1  0.68741033  0.35121283  0.30858679  1.0
  Hf  Hf1178  1  0.68741033  0.68454617  0.30858679  1.0
  Hf  Hf1179  1  0.02074367  0.18454617  0.38001536  1.0
  Hf  Hf1180  1  0.02074367  0.51787950  0.38001536  1.0
  Hf  Hf1181  1  0.02074367  0.85121283  0.38001536  1.0
  Hf  Hf1182  1  0.35407700  0.18454617  0.38001536  1.0
  Hf  Hf1183  1  0.35407700  0.51787950  0.38001536  1.0
  Hf  Hf1184  1  0.35407700  0.85121283  0.38001536  1.0
  Hf  Hf1185  1  0.68741033  0.18454617  0.38001536  1.0
  Hf  Hf1186  1  0.68741033  0.51787950  0.38001536  1.0
  Hf  Hf1187  1  0.68741033  0.85121283  0.38001536  1.0
  Ni  Ni1188  1  0.16666667  0.08333333  0.38799114  1.0
  Ni  Ni1189  1  0.16666667  0.41666667  0.38799114  1.0
  Ni  Ni1190  1  0.16666667  0.75000000  0.38799114  1.0
  Ni  Ni1191  1  0.50000000  0.08333333  0.38799114  1.0
  Ni  Ni1192  1  0.50000000  0.41666667  0.38799114  1.0
  Ni  Ni1193  1  0.50000000  0.75000000  0.38799114  1.0
  Ni  Ni1194  1  0.83333333  0.08333333  0.38799114  1.0
  Ni  Ni1195  1  0.83333333  0.41666667  0.38799114  1.0
  Ni  Ni1196  1  0.83333333  0.75000000  0.38799114  1.0
  Ni  Ni1197  1  0.16666667  0.25000000  0.31656257  1.0
  Ni  Ni1198  1  0.16666667  0.58333333  0.31656257  1.0
  Ni  Ni1199  1  0.16666667  0.91666667  0.31656257  1.0
  Ni  Ni1200  1  0.50000000  0.25000000  0.31656257  1.0
  Ni  Ni1201  1  0.50000000  0.58333333  0.31656257  1.0
  Ni  Ni1202  1  0.50000000  0.91666667  0.31656257  1.0
  Ni  Ni1203  1  0.83333333  0.25000000  0.31656257  1.0
  Ni  Ni1204  1  0.83333333  0.58333333  0.31656257  1.0
  Ni  Ni1205  1  0.83333333  0.91666667  0.31656257  1.0
  Ni  Ni1206  1  0.03915933  0.04299300  0.33589586  1.0
  Ni  Ni1207  1  0.03915933  0.37632633  0.33589586  1.0
  Ni  Ni1208  1  0.03915933  0.70965967  0.33589586  1.0
  Ni  Ni1209  1  0.37249267  0.04299300  0.33589586  1.0
  Ni  Ni1210  1  0.37249267  0.37632633  0.33589586  1.0
  Ni  Ni1211  1  0.37249267  0.70965967  0.33589586  1.0
  Ni  Ni1212  1  0.70582600  0.04299300  0.33589586  1.0
  Ni  Ni1213  1  0.70582600  0.37632633  0.33589586  1.0
  Ni  Ni1214  1  0.70582600  0.70965967  0.33589586  1.0
  Ni  Ni1215  1  0.03915933  0.20965967  0.40732443  1.0
  Ni  Ni1216  1  0.03915933  0.54299300  0.40732443  1.0
  Ni  Ni1217  1  0.03915933  0.87632633  0.40732443  1.0
  Ni  Ni1218  1  0.37249267  0.20965967  0.40732443  1.0
  Ni  Ni1219  1  0.37249267  0.54299300  0.40732443  1.0
  Ni  Ni1220  1  0.37249267  0.87632633  0.40732443  1.0
  Ni  Ni1221  1  0.70582600  0.20965967  0.40732443  1.0
  Ni  Ni1222  1  0.70582600  0.54299300  0.40732443  1.0
  Ni  Ni1223  1  0.70582600  0.87632633  0.40732443  1.0
  Ni  Ni1224  1  0.29417400  0.12367367  0.29722929  1.0
  Ni  Ni1225  1  0.29417400  0.45700700  0.29722929  1.0
  Ni  Ni1226  1  0.29417400  0.79034033  0.29722929  1.0
  Ni  Ni1227  1  0.62750733  0.12367367  0.29722929  1.0
  Ni  Ni1228  1  0.62750733  0.45700700  0.29722929  1.0
  Ni  Ni1229  1  0.62750733  0.79034033  0.29722929  1.0
  Ni  Ni1230  1  0.96084067  0.12367367  0.29722929  1.0
  Ni  Ni1231  1  0.96084067  0.45700700  0.29722929  1.0
  Ni  Ni1232  1  0.96084067  0.79034033  0.29722929  1.0
  Ni  Ni1233  1  0.29417400  0.29034033  0.36865786  1.0
  Ni  Ni1234  1  0.29417400  0.62367367  0.36865786  1.0
  Ni  Ni1235  1  0.29417400  0.95700700  0.36865786  1.0
  Ni  Ni1236  1  0.62750733  0.29034033  0.36865786  1.0
  Ni  Ni1237  1  0.62750733  0.62367367  0.36865786  1.0
  Ni  Ni1238  1  0.62750733  0.95700700  0.36865786  1.0
  Ni  Ni1239  1  0.96084067  0.29034033  0.36865786  1.0
  Ni  Ni1240  1  0.96084067  0.62367367  0.36865786  1.0
  Ni  Ni1241  1  0.96084067  0.95700700  0.36865786  1.0
  Ni  Ni1242  1  0.07240200  0.10911267  0.36278400  1.0
  Ni  Ni1243  1  0.07240200  0.44244600  0.36278400  1.0
  Ni  Ni1244  1  0.07240200  0.77577933  0.36278400  1.0
  Ni  Ni1245  1  0.40573533  0.10911267  0.36278400  1.0
  Ni  Ni1246  1  0.40573533  0.44244600  0.36278400  1.0
  Ni  Ni1247  1  0.40573533  0.77577933  0.36278400  1.0
  Ni  Ni1248  1  0.73906867  0.10911267  0.36278400  1.0
  Ni  Ni1249  1  0.73906867  0.44244600  0.36278400  1.0
  Ni  Ni1250  1  0.73906867  0.77577933  0.36278400  1.0
  Ni  Ni1251  1  0.07240200  0.27577933  0.29135543  1.0
  Ni  Ni1252  1  0.07240200  0.60911267  0.29135543  1.0
  Ni  Ni1253  1  0.07240200  0.94244600  0.29135543  1.0
  Ni  Ni1254  1  0.40573533  0.27577933  0.29135543  1.0
  Ni  Ni1255  1  0.40573533  0.60911267  0.29135543  1.0
  Ni  Ni1256  1  0.40573533  0.94244600  0.29135543  1.0
  Ni  Ni1257  1  0.73906867  0.27577933  0.29135543  1.0
  Ni  Ni1258  1  0.73906867  0.60911267  0.29135543  1.0
  Ni  Ni1259  1  0.73906867  0.94244600  0.29135543  1.0
  Ni  Ni1260  1  0.26093133  0.05755400  0.41319829  1.0
  Ni  Ni1261  1  0.26093133  0.39088733  0.41319829  1.0
  Ni  Ni1262  1  0.26093133  0.72422067  0.41319829  1.0
  Ni  Ni1263  1  0.59426467  0.05755400  0.41319829  1.0
  Ni  Ni1264  1  0.59426467  0.39088733  0.41319829  1.0
  Ni  Ni1265  1  0.59426467  0.72422067  0.41319829  1.0
  Ni  Ni1266  1  0.92759800  0.05755400  0.41319829  1.0
  Ni  Ni1267  1  0.92759800  0.39088733  0.41319829  1.0
  Ni  Ni1268  1  0.92759800  0.72422067  0.41319829  1.0
  Ni  Ni1269  1  0.26093133  0.22422067  0.34176971  1.0
  Ni  Ni1270  1  0.26093133  0.55755400  0.34176971  1.0
  Ni  Ni1271  1  0.26093133  0.89088733  0.34176971  1.0
  Ni  Ni1272  1  0.59426467  0.22422067  0.34176971  1.0
  Ni  Ni1273  1  0.59426467  0.55755400  0.34176971  1.0
  Ni  Ni1274  1  0.59426467  0.89088733  0.34176971  1.0
  Ni  Ni1275  1  0.92759800  0.22422067  0.34176971  1.0
  Ni  Ni1276  1  0.92759800  0.55755400  0.34176971  1.0
  Ni  Ni1277  1  0.92759800  0.89088733  0.34176971  1.0
  Ni  Ni1278  1  0.08486133  0.15975300  0.31183757  1.0
  Ni  Ni1279  1  0.08486133  0.49308633  0.31183757  1.0
  Ni  Ni1280  1  0.08486133  0.82641967  0.31183757  1.0
  Ni  Ni1281  1  0.41819467  0.15975300  0.31183757  1.0
  Ni  Ni1282  1  0.41819467  0.49308633  0.31183757  1.0
  Ni  Ni1283  1  0.41819467  0.82641967  0.31183757  1.0
  Ni  Ni1284  1  0.75152800  0.15975300  0.31183757  1.0
  Ni  Ni1285  1  0.75152800  0.49308633  0.31183757  1.0
  Ni  Ni1286  1  0.75152800  0.82641967  0.31183757  1.0
  Ni  Ni1287  1  0.08486133  0.32641967  0.38326614  1.0
  Ni  Ni1288  1  0.08486133  0.65975300  0.38326614  1.0
  Ni  Ni1289  1  0.08486133  0.99308633  0.38326614  1.0
  Ni  Ni1290  1  0.41819467  0.32641967  0.38326614  1.0
  Ni  Ni1291  1  0.41819467  0.65975300  0.38326614  1.0
  Ni  Ni1292  1  0.41819467  0.99308633  0.38326614  1.0
  Ni  Ni1293  1  0.75152800  0.32641967  0.38326614  1.0
  Ni  Ni1294  1  0.75152800  0.65975300  0.38326614  1.0
  Ni  Ni1295  1  0.75152800  0.99308633  0.38326614  1.0
  Ni  Ni1296  1  0.24847200  0.00691367  0.32128757  1.0
  Ni  Ni1297  1  0.24847200  0.34024700  0.32128757  1.0
  Ni  Ni1298  1  0.24847200  0.67358033  0.32128757  1.0
  Ni  Ni1299  1  0.58180533  0.00691367  0.32128757  1.0
  Ni  Ni1300  1  0.58180533  0.34024700  0.32128757  1.0
  Ni  Ni1301  1  0.58180533  0.67358033  0.32128757  1.0
  Ni  Ni1302  1  0.91513867  0.00691367  0.32128757  1.0
  Ni  Ni1303  1  0.91513867  0.34024700  0.32128757  1.0
  Ni  Ni1304  1  0.91513867  0.67358033  0.32128757  1.0
  Ni  Ni1305  1  0.24847200  0.17358033  0.39271614  1.0
  Ni  Ni1306  1  0.24847200  0.50691367  0.39271614  1.0
  Ni  Ni1307  1  0.24847200  0.84024700  0.39271614  1.0
  Ni  Ni1308  1  0.58180533  0.17358033  0.39271614  1.0
  Ni  Ni1309  1  0.58180533  0.50691367  0.39271614  1.0
  Ni  Ni1310  1  0.58180533  0.84024700  0.39271614  1.0
  Ni  Ni1311  1  0.91513867  0.17358033  0.39271614  1.0
  Ni  Ni1312  1  0.91513867  0.50691367  0.39271614  1.0
  Ni  Ni1313  1  0.91513867  0.84024700  0.39271614  1.0
  Ni  Ni1314  1  0.09630467  0.02618950  0.39300193  1.0
  Ni  Ni1315  1  0.09630467  0.35952283  0.39300193  1.0
  Ni  Ni1316  1  0.09630467  0.69285617  0.39300193  1.0
  Ni  Ni1317  1  0.42963800  0.02618950  0.39300193  1.0
  Ni  Ni1318  1  0.42963800  0.35952283  0.39300193  1.0
  Ni  Ni1319  1  0.42963800  0.69285617  0.39300193  1.0
  Ni  Ni1320  1  0.76297133  0.02618950  0.39300193  1.0
  Ni  Ni1321  1  0.76297133  0.35952283  0.39300193  1.0
  Ni  Ni1322  1  0.76297133  0.69285617  0.39300193  1.0
  Ni  Ni1323  1  0.09630467  0.19285617  0.32157336  1.0
  Ni  Ni1324  1  0.09630467  0.52618950  0.32157336  1.0
  Ni  Ni1325  1  0.09630467  0.85952283  0.32157336  1.0
  Ni  Ni1326  1  0.42963800  0.19285617  0.32157336  1.0
  Ni  Ni1327  1  0.42963800  0.52618950  0.32157336  1.0
  Ni  Ni1328  1  0.42963800  0.85952283  0.32157336  1.0
  Ni  Ni1329  1  0.76297133  0.19285617  0.32157336  1.0
  Ni  Ni1330  1  0.76297133  0.52618950  0.32157336  1.0
  Ni  Ni1331  1  0.76297133  0.85952283  0.32157336  1.0
  Ni  Ni1332  1  0.01793667  0.14164933  0.38000686  1.0
  Ni  Ni1333  1  0.01793667  0.47498267  0.38000686  1.0
  Ni  Ni1334  1  0.01793667  0.80831600  0.38000686  1.0
  Ni  Ni1335  1  0.35127000  0.14164933  0.38000686  1.0
  Ni  Ni1336  1  0.35127000  0.47498267  0.38000686  1.0
  Ni  Ni1337  1  0.35127000  0.80831600  0.38000686  1.0
  Ni  Ni1338  1  0.68460333  0.14164933  0.38000686  1.0
  Ni  Ni1339  1  0.68460333  0.47498267  0.38000686  1.0
  Ni  Ni1340  1  0.68460333  0.80831600  0.38000686  1.0
  Ni  Ni1341  1  0.01793667  0.30831600  0.30857829  1.0
  Ni  Ni1342  1  0.01793667  0.64164933  0.30857829  1.0
  Ni  Ni1343  1  0.01793667  0.97498267  0.30857829  1.0
  Ni  Ni1344  1  0.35127000  0.30831600  0.30857829  1.0
  Ni  Ni1345  1  0.35127000  0.64164933  0.30857829  1.0
  Ni  Ni1346  1  0.35127000  0.97498267  0.30857829  1.0
  Ni  Ni1347  1  0.68460333  0.30831600  0.30857829  1.0
  Ni  Ni1348  1  0.68460333  0.64164933  0.30857829  1.0
  Ni  Ni1349  1  0.68460333  0.97498267  0.30857829  1.0
  Ni  Ni1350  1  0.31539667  0.02501733  0.39597543  1.0
  Ni  Ni1351  1  0.31539667  0.35835067  0.39597543  1.0
  Ni  Ni1352  1  0.31539667  0.69168400  0.39597543  1.0
  Ni  Ni1353  1  0.64873000  0.02501733  0.39597543  1.0
  Ni  Ni1354  1  0.64873000  0.35835067  0.39597543  1.0
  Ni  Ni1355  1  0.64873000  0.69168400  0.39597543  1.0
  Ni  Ni1356  1  0.98206333  0.02501733  0.39597543  1.0
  Ni  Ni1357  1  0.98206333  0.35835067  0.39597543  1.0
  Ni  Ni1358  1  0.98206333  0.69168400  0.39597543  1.0
  Ni  Ni1359  1  0.31539667  0.19168400  0.32454686  1.0
  Ni  Ni1360  1  0.31539667  0.52501733  0.32454686  1.0
  Ni  Ni1361  1  0.31539667  0.85835067  0.32454686  1.0
  Ni  Ni1362  1  0.64873000  0.19168400  0.32454686  1.0
  Ni  Ni1363  1  0.64873000  0.52501733  0.32454686  1.0
  Ni  Ni1364  1  0.64873000  0.85835067  0.32454686  1.0
  Ni  Ni1365  1  0.98206333  0.19168400  0.32454686  1.0
  Ni  Ni1366  1  0.98206333  0.52501733  0.32454686  1.0
  Ni  Ni1367  1  0.98206333  0.85835067  0.32454686  1.0
  Ni  Ni1368  1  0.06871733  0.12939417  0.29443664  1.0
  Ni  Ni1369  1  0.06871733  0.46272750  0.29443664  1.0
  Ni  Ni1370  1  0.06871733  0.79606083  0.29443664  1.0
  Ni  Ni1371  1  0.40205067  0.12939417  0.29443664  1.0
  Ni  Ni1372  1  0.40205067  0.46272750  0.29443664  1.0
  Ni  Ni1373  1  0.40205067  0.79606083  0.29443664  1.0
  Ni  Ni1374  1  0.73538400  0.12939417  0.29443664  1.0
  Ni  Ni1375  1  0.73538400  0.46272750  0.29443664  1.0
  Ni  Ni1376  1  0.73538400  0.79606083  0.29443664  1.0
  Ni  Ni1377  1  0.06871733  0.29606083  0.36586521  1.0
  Ni  Ni1378  1  0.06871733  0.62939417  0.36586521  1.0
  Ni  Ni1379  1  0.06871733  0.96272750  0.36586521  1.0
  Ni  Ni1380  1  0.40205067  0.29606083  0.36586521  1.0
  Ni  Ni1381  1  0.40205067  0.62939417  0.36586521  1.0
  Ni  Ni1382  1  0.40205067  0.96272750  0.36586521  1.0
  Ni  Ni1383  1  0.73538400  0.29606083  0.36586521  1.0
  Ni  Ni1384  1  0.73538400  0.62939417  0.36586521  1.0
  Ni  Ni1385  1  0.73538400  0.96272750  0.36586521  1.0
  Ni  Ni1386  1  0.26461600  0.03727250  0.33868850  1.0
  Ni  Ni1387  1  0.26461600  0.37060583  0.33868850  1.0
  Ni  Ni1388  1  0.26461600  0.70393917  0.33868850  1.0
  Ni  Ni1389  1  0.59794933  0.03727250  0.33868850  1.0
  Ni  Ni1390  1  0.59794933  0.37060583  0.33868850  1.0
  Ni  Ni1391  1  0.59794933  0.70393917  0.33868850  1.0
  Ni  Ni1392  1  0.93128267  0.03727250  0.33868850  1.0
  Ni  Ni1393  1  0.93128267  0.37060583  0.33868850  1.0
  Ni  Ni1394  1  0.93128267  0.70393917  0.33868850  1.0
  Ni  Ni1395  1  0.26461600  0.20393917  0.41011707  1.0
  Ni  Ni1396  1  0.26461600  0.53727250  0.41011707  1.0
  Ni  Ni1397  1  0.26461600  0.87060583  0.41011707  1.0
  Ni  Ni1398  1  0.59794933  0.20393917  0.41011707  1.0
  Ni  Ni1399  1  0.59794933  0.53727250  0.41011707  1.0
  Ni  Ni1400  1  0.59794933  0.87060583  0.41011707  1.0
  Ni  Ni1401  1  0.93128267  0.20393917  0.41011707  1.0
  Ni  Ni1402  1  0.93128267  0.53727250  0.41011707  1.0
  Ni  Ni1403  1  0.93128267  0.87060583  0.41011707  1.0
  Ni  Ni1404  1  0.08089933  0.09145250  0.28726007  1.0
  Ni  Ni1405  1  0.08089933  0.42478583  0.28726007  1.0
  Ni  Ni1406  1  0.08089933  0.75811917  0.28726007  1.0
  Ni  Ni1407  1  0.41423267  0.09145250  0.28726007  1.0
  Ni  Ni1408  1  0.41423267  0.42478583  0.28726007  1.0
  Ni  Ni1409  1  0.41423267  0.75811917  0.28726007  1.0
  Ni  Ni1410  1  0.74756600  0.09145250  0.28726007  1.0
  Ni  Ni1411  1  0.74756600  0.42478583  0.28726007  1.0
  Ni  Ni1412  1  0.74756600  0.75811917  0.28726007  1.0
  Ni  Ni1413  1  0.08089933  0.25811917  0.35868864  1.0
  Ni  Ni1414  1  0.08089933  0.59145250  0.35868864  1.0
  Ni  Ni1415  1  0.08089933  0.92478583  0.35868864  1.0
  Ni  Ni1416  1  0.41423267  0.25811917  0.35868864  1.0
  Ni  Ni1417  1  0.41423267  0.59145250  0.35868864  1.0
  Ni  Ni1418  1  0.41423267  0.92478583  0.35868864  1.0
  Ni  Ni1419  1  0.74756600  0.25811917  0.35868864  1.0
  Ni  Ni1420  1  0.74756600  0.59145250  0.35868864  1.0
  Ni  Ni1421  1  0.74756600  0.92478583  0.35868864  1.0
  Ni  Ni1422  1  0.25243400  0.07521417  0.34586507  1.0
  Ni  Ni1423  1  0.25243400  0.40854750  0.34586507  1.0
  Ni  Ni1424  1  0.25243400  0.74188083  0.34586507  1.0
  Ni  Ni1425  1  0.58576733  0.07521417  0.34586507  1.0
  Ni  Ni1426  1  0.58576733  0.40854750  0.34586507  1.0
  Ni  Ni1427  1  0.58576733  0.74188083  0.34586507  1.0
  Ni  Ni1428  1  0.91910067  0.07521417  0.34586507  1.0
  Ni  Ni1429  1  0.91910067  0.40854750  0.34586507  1.0
  Ni  Ni1430  1  0.91910067  0.74188083  0.34586507  1.0
  Ni  Ni1431  1  0.25243400  0.24188083  0.41729364  1.0
  Ni  Ni1432  1  0.25243400  0.57521417  0.41729364  1.0
  Ni  Ni1433  1  0.25243400  0.90854750  0.41729364  1.0
  Ni  Ni1434  1  0.58576733  0.24188083  0.41729364  1.0
  Ni  Ni1435  1  0.58576733  0.57521417  0.41729364  1.0
  Ni  Ni1436  1  0.58576733  0.90854750  0.41729364  1.0
  Ni  Ni1437  1  0.91910067  0.24188083  0.41729364  1.0
  Ni  Ni1438  1  0.91910067  0.57521417  0.41729364  1.0
  Ni  Ni1439  1  0.91910067  0.90854750  0.41729364  1.0
  Ni  Ni1440  1  0.08613200  0.05785550  0.41300207  1.0
  Ni  Ni1441  1  0.08613200  0.39118883  0.41300207  1.0
  Ni  Ni1442  1  0.08613200  0.72452217  0.41300207  1.0
  Ni  Ni1443  1  0.41946533  0.05785550  0.41300207  1.0
  Ni  Ni1444  1  0.41946533  0.39118883  0.41300207  1.0
  Ni  Ni1445  1  0.41946533  0.72452217  0.41300207  1.0
  Ni  Ni1446  1  0.75279867  0.05785550  0.41300207  1.0
  Ni  Ni1447  1  0.75279867  0.39118883  0.41300207  1.0
  Ni  Ni1448  1  0.75279867  0.72452217  0.41300207  1.0
  Ni  Ni1449  1  0.08613200  0.22452217  0.34157350  1.0
  Ni  Ni1450  1  0.08613200  0.55785550  0.34157350  1.0
  Ni  Ni1451  1  0.08613200  0.89118883  0.34157350  1.0
  Ni  Ni1452  1  0.41946533  0.22452217  0.34157350  1.0
  Ni  Ni1453  1  0.41946533  0.55785550  0.34157350  1.0
  Ni  Ni1454  1  0.41946533  0.89118883  0.34157350  1.0
  Ni  Ni1455  1  0.75279867  0.22452217  0.34157350  1.0
  Ni  Ni1456  1  0.75279867  0.55785550  0.34157350  1.0
  Ni  Ni1457  1  0.75279867  0.89118883  0.34157350  1.0
  Ni  Ni1458  1  0.24720133  0.10881117  0.36298021  1.0
  Ni  Ni1459  1  0.24720133  0.44214450  0.36298021  1.0
  Ni  Ni1460  1  0.24720133  0.77547783  0.36298021  1.0
  Ni  Ni1461  1  0.58053467  0.10881117  0.36298021  1.0
  Ni  Ni1462  1  0.58053467  0.44214450  0.36298021  1.0
  Ni  Ni1463  1  0.58053467  0.77547783  0.36298021  1.0
  Ni  Ni1464  1  0.91386800  0.10881117  0.36298021  1.0
  Ni  Ni1465  1  0.91386800  0.44214450  0.36298021  1.0
  Ni  Ni1466  1  0.91386800  0.77547783  0.36298021  1.0
  Ni  Ni1467  1  0.24720133  0.27547783  0.29155164  1.0
  Ni  Ni1468  1  0.24720133  0.60881117  0.29155164  1.0
  Ni  Ni1469  1  0.24720133  0.94214450  0.29155164  1.0
  Ni  Ni1470  1  0.58053467  0.27547783  0.29155164  1.0
  Ni  Ni1471  1  0.58053467  0.60881117  0.29155164  1.0
  Ni  Ni1472  1  0.58053467  0.94214450  0.29155164  1.0
  Ni  Ni1473  1  0.91386800  0.27547783  0.29155164  1.0
  Ni  Ni1474  1  0.91386800  0.60881117  0.29155164  1.0
  Ni  Ni1475  1  0.91386800  0.94214450  0.29155164  1.0
  Ni  Ni1476  1  0.13021400  0.00477950  0.31978150  1.0
  Ni  Ni1477  1  0.13021400  0.33811283  0.31978150  1.0
  Ni  Ni1478  1  0.13021400  0.67144617  0.31978150  1.0
  Ni  Ni1479  1  0.46354733  0.00477950  0.31978150  1.0
  Ni  Ni1480  1  0.46354733  0.33811283  0.31978150  1.0
  Ni  Ni1481  1  0.46354733  0.67144617  0.31978150  1.0
  Ni  Ni1482  1  0.79688067  0.00477950  0.31978150  1.0
  Ni  Ni1483  1  0.79688067  0.33811283  0.31978150  1.0
  Ni  Ni1484  1  0.79688067  0.67144617  0.31978150  1.0
  Ni  Ni1485  1  0.13021400  0.17144617  0.39121007  1.0
  Ni  Ni1486  1  0.13021400  0.50477950  0.39121007  1.0
  Ni  Ni1487  1  0.13021400  0.83811283  0.39121007  1.0
  Ni  Ni1488  1  0.46354733  0.17144617  0.39121007  1.0
  Ni  Ni1489  1  0.46354733  0.50477950  0.39121007  1.0
  Ni  Ni1490  1  0.46354733  0.83811283  0.39121007  1.0
  Ni  Ni1491  1  0.79688067  0.17144617  0.39121007  1.0
  Ni  Ni1492  1  0.79688067  0.50477950  0.39121007  1.0
  Ni  Ni1493  1  0.79688067  0.83811283  0.39121007  1.0
  Ni  Ni1494  1  0.20311933  0.16188717  0.31334364  1.0
  Ni  Ni1495  1  0.20311933  0.49522050  0.31334364  1.0
  Ni  Ni1496  1  0.20311933  0.82855383  0.31334364  1.0
  Ni  Ni1497  1  0.53645267  0.16188717  0.31334364  1.0
  Ni  Ni1498  1  0.53645267  0.49522050  0.31334364  1.0
  Ni  Ni1499  1  0.53645267  0.82855383  0.31334364  1.0
  Ni  Ni1500  1  0.86978600  0.16188717  0.31334364  1.0
  Ni  Ni1501  1  0.86978600  0.49522050  0.31334364  1.0
  Ni  Ni1502  1  0.86978600  0.82855383  0.31334364  1.0
  Ni  Ni1503  1  0.20311933  0.32855383  0.38477221  1.0
  Ni  Ni1504  1  0.20311933  0.66188717  0.38477221  1.0
  Ni  Ni1505  1  0.20311933  0.99522050  0.38477221  1.0
  Ni  Ni1506  1  0.53645267  0.32855383  0.38477221  1.0
  Ni  Ni1507  1  0.53645267  0.66188717  0.38477221  1.0
  Ni  Ni1508  1  0.53645267  0.99522050  0.38477221  1.0
  Ni  Ni1509  1  0.86978600  0.32855383  0.38477221  1.0
  Ni  Ni1510  1  0.86978600  0.66188717  0.38477221  1.0
  Ni  Ni1511  1  0.86978600  0.99522050  0.38477221  1.0
  Ni  Ni1512  1  0.19968467  0.08950900  0.28770314  1.0
  Ni  Ni1513  1  0.19968467  0.42284233  0.28770314  1.0
  Ni  Ni1514  1  0.19968467  0.75617567  0.28770314  1.0
  Ni  Ni1515  1  0.53301800  0.08950900  0.28770314  1.0
  Ni  Ni1516  1  0.53301800  0.42284233  0.28770314  1.0
  Ni  Ni1517  1  0.53301800  0.75617567  0.28770314  1.0
  Ni  Ni1518  1  0.86635133  0.08950900  0.28770314  1.0
  Ni  Ni1519  1  0.86635133  0.42284233  0.28770314  1.0
  Ni  Ni1520  1  0.86635133  0.75617567  0.28770314  1.0
  Ni  Ni1521  1  0.19968467  0.25617567  0.35913171  1.0
  Ni  Ni1522  1  0.19968467  0.58950900  0.35913171  1.0
  Ni  Ni1523  1  0.19968467  0.92284233  0.35913171  1.0
  Ni  Ni1524  1  0.53301800  0.25617567  0.35913171  1.0
  Ni  Ni1525  1  0.53301800  0.58950900  0.35913171  1.0
  Ni  Ni1526  1  0.53301800  0.92284233  0.35913171  1.0
  Ni  Ni1527  1  0.86635133  0.25617567  0.35913171  1.0
  Ni  Ni1528  1  0.86635133  0.58950900  0.35913171  1.0
  Ni  Ni1529  1  0.86635133  0.92284233  0.35913171  1.0
  Ni  Ni1530  1  0.13364867  0.07715767  0.34542200  1.0
  Ni  Ni1531  1  0.13364867  0.41049100  0.34542200  1.0
  Ni  Ni1532  1  0.13364867  0.74382433  0.34542200  1.0
  Ni  Ni1533  1  0.46698200  0.07715767  0.34542200  1.0
  Ni  Ni1534  1  0.46698200  0.41049100  0.34542200  1.0
  Ni  Ni1535  1  0.46698200  0.74382433  0.34542200  1.0
  Ni  Ni1536  1  0.80031533  0.07715767  0.34542200  1.0
  Ni  Ni1537  1  0.80031533  0.41049100  0.34542200  1.0
  Ni  Ni1538  1  0.80031533  0.74382433  0.34542200  1.0
  Ni  Ni1539  1  0.13364867  0.24382433  0.41685057  1.0
  Ni  Ni1540  1  0.13364867  0.57715767  0.41685057  1.0
  Ni  Ni1541  1  0.13364867  0.91049100  0.41685057  1.0
  Ni  Ni1542  1  0.46698200  0.24382433  0.41685057  1.0
  Ni  Ni1543  1  0.46698200  0.57715767  0.41685057  1.0
  Ni  Ni1544  1  0.46698200  0.91049100  0.41685057  1.0
  Ni  Ni1545  1  0.80031533  0.24382433  0.41685057  1.0
  Ni  Ni1546  1  0.80031533  0.57715767  0.41685057  1.0
  Ni  Ni1547  1  0.80031533  0.91049100  0.41685057  1.0
  Ni  Ni1548  1  0.23702867  0.14047717  0.38298036  1.0
  Ni  Ni1549  1  0.23702867  0.47381050  0.38298036  1.0
  Ni  Ni1550  1  0.23702867  0.80714383  0.38298036  1.0
  Ni  Ni1551  1  0.57036200  0.14047717  0.38298036  1.0
  Ni  Ni1552  1  0.57036200  0.47381050  0.38298036  1.0
  Ni  Ni1553  1  0.57036200  0.80714383  0.38298036  1.0
  Ni  Ni1554  1  0.90369533  0.14047717  0.38298036  1.0
  Ni  Ni1555  1  0.90369533  0.47381050  0.38298036  1.0
  Ni  Ni1556  1  0.90369533  0.80714383  0.38298036  1.0
  Ni  Ni1557  1  0.23702867  0.30714383  0.31155179  1.0
  Ni  Ni1558  1  0.23702867  0.64047717  0.31155179  1.0
  Ni  Ni1559  1  0.23702867  0.97381050  0.31155179  1.0
  Ni  Ni1560  1  0.57036200  0.30714383  0.31155179  1.0
  Ni  Ni1561  1  0.57036200  0.64047717  0.31155179  1.0
  Ni  Ni1562  1  0.57036200  0.97381050  0.31155179  1.0
  Ni  Ni1563  1  0.90369533  0.30714383  0.31155179  1.0
  Ni  Ni1564  1  0.90369533  0.64047717  0.31155179  1.0
  Ni  Ni1565  1  0.90369533  0.97381050  0.31155179  1.0
