# generated using pymatgen
data_Hf8Ni21
_symmetry_space_group_name_H-M   'P 1'
_cell_length_a   30.23076923
_cell_length_b   36.26256634
_cell_length_c   32.04894500
_cell_angle_alpha   95.83088304
_cell_angle_beta   96.68368969
_cell_angle_gamma   90.67916333
_symmetry_Int_Tables_number   1
_chemical_formula_structural   Hf8Ni21
_chemical_formula_sum   'Hf288 Ni756'
_cell_volume   34704.22014829
_cell_formula_units_Z   36
loop_
 _symmetry_equiv_pos_site_id
 _symmetry_equiv_pos_as_xyz
  1  'x, y, z'
loop_
 _atom_site_type_symbol
 _atom_site_label
 _atom_site_symmetry_multiplicity
 _atom_site_fract_x
 _atom_site_fract_y
 _atom_site_fract_z
 _atom_site_occupancy
  Hf  Hf0  1  0.26620517  0.08813450  0.19328130  1.0
  Hf  Hf1  1  0.26620517  0.42146783  0.19328130  1.0
  Hf  Hf2  1  0.26620517  0.75480117  0.19328130  1.0
  Hf  Hf3  1  0.59953850  0.08813450  0.19328130  1.0
  Hf  Hf4  1  0.59953850  0.42146783  0.19328130  1.0
  Hf  Hf5  1  0.59953850  0.75480117  0.19328130  1.0
  Hf  Hf6  1  0.93287183  0.08813450  0.19328130  1.0
  Hf  Hf7  1  0.93287183  0.42146783  0.19328130  1.0
  Hf  Hf8  1  0.93287183  0.75480117  0.19328130  1.0
  Hf  Hf9  1  0.09953850  0.25480117  0.09328130  1.0
  Hf  Hf10  1  0.09953850  0.58813450  0.09328130  1.0
  Hf  Hf11  1  0.09953850  0.92146783  0.09328130  1.0
  Hf  Hf12  1  0.43287183  0.25480117  0.09328130  1.0
  Hf  Hf13  1  0.43287183  0.58813450  0.09328130  1.0
  Hf  Hf14  1  0.43287183  0.92146783  0.09328130  1.0
  Hf  Hf15  1  0.76620517  0.25480117  0.09328130  1.0
  Hf  Hf16  1  0.76620517  0.58813450  0.09328130  1.0
  Hf  Hf17  1  0.76620517  0.92146783  0.09328130  1.0
  Hf  Hf18  1  0.06712817  0.24519883  0.18630630  1.0
  Hf  Hf19  1  0.06712817  0.57853217  0.18630630  1.0
  Hf  Hf20  1  0.06712817  0.91186550  0.18630630  1.0
  Hf  Hf21  1  0.40046150  0.24519883  0.18630630  1.0
  Hf  Hf22  1  0.40046150  0.57853217  0.18630630  1.0
  Hf  Hf23  1  0.40046150  0.91186550  0.18630630  1.0
  Hf  Hf24  1  0.73379483  0.24519883  0.18630630  1.0
  Hf  Hf25  1  0.73379483  0.57853217  0.18630630  1.0
  Hf  Hf26  1  0.73379483  0.91186550  0.18630630  1.0
  Hf  Hf27  1  0.23379483  0.07853217  0.08630630  1.0
  Hf  Hf28  1  0.23379483  0.41186550  0.08630630  1.0
  Hf  Hf29  1  0.23379483  0.74519883  0.08630630  1.0
  Hf  Hf30  1  0.56712817  0.07853217  0.08630630  1.0
  Hf  Hf31  1  0.56712817  0.41186550  0.08630630  1.0
  Hf  Hf32  1  0.56712817  0.74519883  0.08630630  1.0
  Hf  Hf33  1  0.90046150  0.07853217  0.08630630  1.0
  Hf  Hf34  1  0.90046150  0.41186550  0.08630630  1.0
  Hf  Hf35  1  0.90046150  0.74519883  0.08630630  1.0
  Hf  Hf36  1  0.29855333  0.21365633  0.03175000  1.0
  Hf  Hf37  1  0.29855333  0.54698967  0.03175000  1.0
  Hf  Hf38  1  0.29855333  0.88032300  0.03175000  1.0
  Hf  Hf39  1  0.63188667  0.21365633  0.03175000  1.0
  Hf  Hf40  1  0.63188667  0.54698967  0.03175000  1.0
  Hf  Hf41  1  0.63188667  0.88032300  0.03175000  1.0
  Hf  Hf42  1  0.96522000  0.21365633  0.03175000  1.0
  Hf  Hf43  1  0.96522000  0.54698967  0.03175000  1.0
  Hf  Hf44  1  0.96522000  0.88032300  0.03175000  1.0
  Hf  Hf45  1  0.13188667  0.04698967  0.13175000  1.0
  Hf  Hf46  1  0.13188667  0.38032300  0.13175000  1.0
  Hf  Hf47  1  0.13188667  0.71365633  0.13175000  1.0
  Hf  Hf48  1  0.46522000  0.04698967  0.13175000  1.0
  Hf  Hf49  1  0.46522000  0.38032300  0.13175000  1.0
  Hf  Hf50  1  0.46522000  0.71365633  0.13175000  1.0
  Hf  Hf51  1  0.79855333  0.04698967  0.13175000  1.0
  Hf  Hf52  1  0.79855333  0.38032300  0.13175000  1.0
  Hf  Hf53  1  0.79855333  0.71365633  0.13175000  1.0
  Hf  Hf54  1  0.03478000  0.11967700  0.14783760  1.0
  Hf  Hf55  1  0.03478000  0.45301033  0.14783760  1.0
  Hf  Hf56  1  0.03478000  0.78634367  0.14783760  1.0
  Hf  Hf57  1  0.36811333  0.11967700  0.14783760  1.0
  Hf  Hf58  1  0.36811333  0.45301033  0.14783760  1.0
  Hf  Hf59  1  0.36811333  0.78634367  0.14783760  1.0
  Hf  Hf60  1  0.70144667  0.11967700  0.14783760  1.0
  Hf  Hf61  1  0.70144667  0.45301033  0.14783760  1.0
  Hf  Hf62  1  0.70144667  0.78634367  0.14783760  1.0
  Hf  Hf63  1  0.20144667  0.28634367  0.04783760  1.0
  Hf  Hf64  1  0.20144667  0.61967700  0.04783760  1.0
  Hf  Hf65  1  0.20144667  0.95301033  0.04783760  1.0
  Hf  Hf66  1  0.53478000  0.28634367  0.04783760  1.0
  Hf  Hf67  1  0.53478000  0.61967700  0.04783760  1.0
  Hf  Hf68  1  0.53478000  0.95301033  0.04783760  1.0
  Hf  Hf69  1  0.86811333  0.28634367  0.04783760  1.0
  Hf  Hf70  1  0.86811333  0.61967700  0.04783760  1.0
  Hf  Hf71  1  0.86811333  0.95301033  0.04783760  1.0
  Hf  Hf72  1  0.06852633  0.13036800  0.05405880  1.0
  Hf  Hf73  1  0.06852633  0.46370133  0.05405880  1.0
  Hf  Hf74  1  0.06852633  0.79703467  0.05405880  1.0
  Hf  Hf75  1  0.40185967  0.13036800  0.05405880  1.0
  Hf  Hf76  1  0.40185967  0.46370133  0.05405880  1.0
  Hf  Hf77  1  0.40185967  0.79703467  0.05405880  1.0
  Hf  Hf78  1  0.73519300  0.13036800  0.05405880  1.0
  Hf  Hf79  1  0.73519300  0.46370133  0.05405880  1.0
  Hf  Hf80  1  0.73519300  0.79703467  0.05405880  1.0
  Hf  Hf81  1  0.23519300  0.29703467  0.15405880  1.0
  Hf  Hf82  1  0.23519300  0.63036800  0.15405880  1.0
  Hf  Hf83  1  0.23519300  0.96370133  0.15405880  1.0
  Hf  Hf84  1  0.56852633  0.29703467  0.15405880  1.0
  Hf  Hf85  1  0.56852633  0.63036800  0.15405880  1.0
  Hf  Hf86  1  0.56852633  0.96370133  0.15405880  1.0
  Hf  Hf87  1  0.90185967  0.29703467  0.15405880  1.0
  Hf  Hf88  1  0.90185967  0.63036800  0.15405880  1.0
  Hf  Hf89  1  0.90185967  0.96370133  0.15405880  1.0
  Hf  Hf90  1  0.26480700  0.20296533  0.12552880  1.0
  Hf  Hf91  1  0.26480700  0.53629867  0.12552880  1.0
  Hf  Hf92  1  0.26480700  0.86963200  0.12552880  1.0
  Hf  Hf93  1  0.59814033  0.20296533  0.12552880  1.0
  Hf  Hf94  1  0.59814033  0.53629867  0.12552880  1.0
  Hf  Hf95  1  0.59814033  0.86963200  0.12552880  1.0
  Hf  Hf96  1  0.93147367  0.20296533  0.12552880  1.0
  Hf  Hf97  1  0.93147367  0.53629867  0.12552880  1.0
  Hf  Hf98  1  0.93147367  0.86963200  0.12552880  1.0
  Hf  Hf99  1  0.09814033  0.03629867  0.02552880  1.0
  Hf  Hf100  1  0.09814033  0.36963200  0.02552880  1.0
  Hf  Hf101  1  0.09814033  0.70296533  0.02552880  1.0
  Hf  Hf102  1  0.43147367  0.03629867  0.02552880  1.0
  Hf  Hf103  1  0.43147367  0.36963200  0.02552880  1.0
  Hf  Hf104  1  0.43147367  0.70296533  0.02552880  1.0
  Hf  Hf105  1  0.76480700  0.03629867  0.02552880  1.0
  Hf  Hf106  1  0.76480700  0.36963200  0.02552880  1.0
  Hf  Hf107  1  0.76480700  0.70296533  0.02552880  1.0
  Hf  Hf108  1  0.00750767  0.30508200  0.12328140  1.0
  Hf  Hf109  1  0.00750767  0.63841533  0.12328140  1.0
  Hf  Hf110  1  0.00750767  0.97174867  0.12328140  1.0
  Hf  Hf111  1  0.34084100  0.30508200  0.12328140  1.0
  Hf  Hf112  1  0.34084100  0.63841533  0.12328140  1.0
  Hf  Hf113  1  0.34084100  0.97174867  0.12328140  1.0
  Hf  Hf114  1  0.67417433  0.30508200  0.12328140  1.0
  Hf  Hf115  1  0.67417433  0.63841533  0.12328140  1.0
  Hf  Hf116  1  0.67417433  0.97174867  0.12328140  1.0
  Hf  Hf117  1  0.17417433  0.13841533  0.02328140  1.0
  Hf  Hf118  1  0.17417433  0.47174867  0.02328140  1.0
  Hf  Hf119  1  0.17417433  0.80508200  0.02328140  1.0
  Hf  Hf120  1  0.50750767  0.13841533  0.02328140  1.0
  Hf  Hf121  1  0.50750767  0.47174867  0.02328140  1.0
  Hf  Hf122  1  0.50750767  0.80508200  0.02328140  1.0
  Hf  Hf123  1  0.84084100  0.13841533  0.02328140  1.0
  Hf  Hf124  1  0.84084100  0.47174867  0.02328140  1.0
  Hf  Hf125  1  0.84084100  0.80508200  0.02328140  1.0
  Hf  Hf126  1  0.32582567  0.02825133  0.05630620  1.0
  Hf  Hf127  1  0.32582567  0.36158467  0.05630620  1.0
  Hf  Hf128  1  0.32582567  0.69491800  0.05630620  1.0
  Hf  Hf129  1  0.65915900  0.02825133  0.05630620  1.0
  Hf  Hf130  1  0.65915900  0.36158467  0.05630620  1.0
  Hf  Hf131  1  0.65915900  0.69491800  0.05630620  1.0
  Hf  Hf132  1  0.99249233  0.02825133  0.05630620  1.0
  Hf  Hf133  1  0.99249233  0.36158467  0.05630620  1.0
  Hf  Hf134  1  0.99249233  0.69491800  0.05630620  1.0
  Hf  Hf135  1  0.15915900  0.19491800  0.15630620  1.0
  Hf  Hf136  1  0.15915900  0.52825133  0.15630620  1.0
  Hf  Hf137  1  0.15915900  0.86158467  0.15630620  1.0
  Hf  Hf138  1  0.49249233  0.19491800  0.15630620  1.0
  Hf  Hf139  1  0.49249233  0.52825133  0.15630620  1.0
  Hf  Hf140  1  0.49249233  0.86158467  0.15630620  1.0
  Hf  Hf141  1  0.82582567  0.19491800  0.15630620  1.0
  Hf  Hf142  1  0.82582567  0.52825133  0.15630620  1.0
  Hf  Hf143  1  0.82582567  0.86158467  0.15630620  1.0
  Hf  Hf144  1  0.26620517  0.08813450  0.39328130  1.0
  Hf  Hf145  1  0.26620517  0.42146783  0.39328130  1.0
  Hf  Hf146  1  0.26620517  0.75480117  0.39328130  1.0
  Hf  Hf147  1  0.59953850  0.08813450  0.39328130  1.0
  Hf  Hf148  1  0.59953850  0.42146783  0.39328130  1.0
  Hf  Hf149  1  0.59953850  0.75480117  0.39328130  1.0
  Hf  Hf150  1  0.93287183  0.08813450  0.39328130  1.0
  Hf  Hf151  1  0.93287183  0.42146783  0.39328130  1.0
  Hf  Hf152  1  0.93287183  0.75480117  0.39328130  1.0
  Hf  Hf153  1  0.09953850  0.25480117  0.29328130  1.0
  Hf  Hf154  1  0.09953850  0.58813450  0.29328130  1.0
  Hf  Hf155  1  0.09953850  0.92146783  0.29328130  1.0
  Hf  Hf156  1  0.43287183  0.25480117  0.29328130  1.0
  Hf  Hf157  1  0.43287183  0.58813450  0.29328130  1.0
  Hf  Hf158  1  0.43287183  0.92146783  0.29328130  1.0
  Hf  Hf159  1  0.76620517  0.25480117  0.29328130  1.0
  Hf  Hf160  1  0.76620517  0.58813450  0.29328130  1.0
  Hf  Hf161  1  0.76620517  0.92146783  0.29328130  1.0
  Hf  Hf162  1  0.06712817  0.24519883  0.38630630  1.0
  Hf  Hf163  1  0.06712817  0.57853217  0.38630630  1.0
  Hf  Hf164  1  0.06712817  0.91186550  0.38630630  1.0
  Hf  Hf165  1  0.40046150  0.24519883  0.38630630  1.0
  Hf  Hf166  1  0.40046150  0.57853217  0.38630630  1.0
  Hf  Hf167  1  0.40046150  0.91186550  0.38630630  1.0
  Hf  Hf168  1  0.73379483  0.24519883  0.38630630  1.0
  Hf  Hf169  1  0.73379483  0.57853217  0.38630630  1.0
  Hf  Hf170  1  0.73379483  0.91186550  0.38630630  1.0
  Hf  Hf171  1  0.23379483  0.07853217  0.28630630  1.0
  Hf  Hf172  1  0.23379483  0.41186550  0.28630630  1.0
  Hf  Hf173  1  0.23379483  0.74519883  0.28630630  1.0
  Hf  Hf174  1  0.56712817  0.07853217  0.28630630  1.0
  Hf  Hf175  1  0.56712817  0.41186550  0.28630630  1.0
  Hf  Hf176  1  0.56712817  0.74519883  0.28630630  1.0
  Hf  Hf177  1  0.90046150  0.07853217  0.28630630  1.0
  Hf  Hf178  1  0.90046150  0.41186550  0.28630630  1.0
  Hf  Hf179  1  0.90046150  0.74519883  0.28630630  1.0
  Hf  Hf180  1  0.29855333  0.21365633  0.23175000  1.0
  Hf  Hf181  1  0.29855333  0.54698967  0.23175000  1.0
  Hf  Hf182  1  0.29855333  0.88032300  0.23175000  1.0
  Hf  Hf183  1  0.63188667  0.21365633  0.23175000  1.0
  Hf  Hf184  1  0.63188667  0.54698967  0.23175000  1.0
  Hf  Hf185  1  0.63188667  0.88032300  0.23175000  1.0
  Hf  Hf186  1  0.96522000  0.21365633  0.23175000  1.0
  Hf  Hf187  1  0.96522000  0.54698967  0.23175000  1.0
  Hf  Hf188  1  0.96522000  0.88032300  0.23175000  1.0
  Hf  Hf189  1  0.13188667  0.04698967  0.33175000  1.0
  Hf  Hf190  1  0.13188667  0.38032300  0.33175000  1.0
  Hf  Hf191  1  0.13188667  0.71365633  0.33175000  1.0
  Hf  Hf192  1  0.46522000  0.04698967  0.33175000  1.0
  Hf  Hf193  1  0.46522000  0.38032300  0.33175000  1.0
  Hf  Hf194  1  0.46522000  0.71365633  0.33175000  1.0
  Hf  Hf195  1  0.79855333  0.04698967  0.33175000  1.0
  Hf  Hf196  1  0.79855333  0.38032300  0.33175000  1.0
  Hf  Hf197  1  0.79855333  0.71365633  0.33175000  1.0
  Hf  Hf198  1  0.03478000  0.11967700  0.34783760  1.0
  Hf  Hf199  1  0.03478000  0.45301033  0.34783760  1.0
  Hf  Hf200  1  0.03478000  0.78634367  0.34783760  1.0
  Hf  Hf201  1  0.36811333  0.11967700  0.34783760  1.0
  Hf  Hf202  1  0.36811333  0.45301033  0.34783760  1.0
  Hf  Hf203  1  0.36811333  0.78634367  0.34783760  1.0
  Hf  Hf204  1  0.70144667  0.11967700  0.34783760  1.0
  Hf  Hf205  1  0.70144667  0.45301033  0.34783760  1.0
  Hf  Hf206  1  0.70144667  0.78634367  0.34783760  1.0
  Hf  Hf207  1  0.20144667  0.28634367  0.24783760  1.0
  Hf  Hf208  1  0.20144667  0.61967700  0.24783760  1.0
  Hf  Hf209  1  0.20144667  0.95301033  0.24783760  1.0
  Hf  Hf210  1  0.53478000  0.28634367  0.24783760  1.0
  Hf  Hf211  1  0.53478000  0.61967700  0.24783760  1.0
  Hf  Hf212  1  0.53478000  0.95301033  0.24783760  1.0
  Hf  Hf213  1  0.86811333  0.28634367  0.24783760  1.0
  Hf  Hf214  1  0.86811333  0.61967700  0.24783760  1.0
  Hf  Hf215  1  0.86811333  0.95301033  0.24783760  1.0
  Hf  Hf216  1  0.06852633  0.13036800  0.25405880  1.0
  Hf  Hf217  1  0.06852633  0.46370133  0.25405880  1.0
  Hf  Hf218  1  0.06852633  0.79703467  0.25405880  1.0
  Hf  Hf219  1  0.40185967  0.13036800  0.25405880  1.0
  Hf  Hf220  1  0.40185967  0.46370133  0.25405880  1.0
  Hf  Hf221  1  0.40185967  0.79703467  0.25405880  1.0
  Hf  Hf222  1  0.73519300  0.13036800  0.25405880  1.0
  Hf  Hf223  1  0.73519300  0.46370133  0.25405880  1.0
  Hf  Hf224  1  0.73519300  0.79703467  0.25405880  1.0
  Hf  Hf225  1  0.23519300  0.29703467  0.35405880  1.0
  Hf  Hf226  1  0.23519300  0.63036800  0.35405880  1.0
  Hf  Hf227  1  0.23519300  0.96370133  0.35405880  1.0
  Hf  Hf228  1  0.56852633  0.29703467  0.35405880  1.0
  Hf  Hf229  1  0.56852633  0.63036800  0.35405880  1.0
  Hf  Hf230  1  0.56852633  0.96370133  0.35405880  1.0
  Hf  Hf231  1  0.90185967  0.29703467  0.35405880  1.0
  Hf  Hf232  1  0.90185967  0.63036800  0.35405880  1.0
  Hf  Hf233  1  0.90185967  0.96370133  0.35405880  1.0
  Hf  Hf234  1  0.26480700  0.20296533  0.32552880  1.0
  Hf  Hf235  1  0.26480700  0.53629867  0.32552880  1.0
  Hf  Hf236  1  0.26480700  0.86963200  0.32552880  1.0
  Hf  Hf237  1  0.59814033  0.20296533  0.32552880  1.0
  Hf  Hf238  1  0.59814033  0.53629867  0.32552880  1.0
  Hf  Hf239  1  0.59814033  0.86963200  0.32552880  1.0
  Hf  Hf240  1  0.93147367  0.20296533  0.32552880  1.0
  Hf  Hf241  1  0.93147367  0.53629867  0.32552880  1.0
  Hf  Hf242  1  0.93147367  0.86963200  0.32552880  1.0
  Hf  Hf243  1  0.09814033  0.03629867  0.22552880  1.0
  Hf  Hf244  1  0.09814033  0.36963200  0.22552880  1.0
  Hf  Hf245  1  0.09814033  0.70296533  0.22552880  1.0
  Hf  Hf246  1  0.43147367  0.03629867  0.22552880  1.0
  Hf  Hf247  1  0.43147367  0.36963200  0.22552880  1.0
  Hf  Hf248  1  0.43147367  0.70296533  0.22552880  1.0
  Hf  Hf249  1  0.76480700  0.03629867  0.22552880  1.0
  Hf  Hf250  1  0.76480700  0.36963200  0.22552880  1.0
  Hf  Hf251  1  0.76480700  0.70296533  0.22552880  1.0
  Hf  Hf252  1  0.00750767  0.30508200  0.32328140  1.0
  Hf  Hf253  1  0.00750767  0.63841533  0.32328140  1.0
  Hf  Hf254  1  0.00750767  0.97174867  0.32328140  1.0
  Hf  Hf255  1  0.34084100  0.30508200  0.32328140  1.0
  Hf  Hf256  1  0.34084100  0.63841533  0.32328140  1.0
  Hf  Hf257  1  0.34084100  0.97174867  0.32328140  1.0
  Hf  Hf258  1  0.67417433  0.30508200  0.32328140  1.0
  Hf  Hf259  1  0.67417433  0.63841533  0.32328140  1.0
  Hf  Hf260  1  0.67417433  0.97174867  0.32328140  1.0
  Hf  Hf261  1  0.17417433  0.13841533  0.22328140  1.0
  Hf  Hf262  1  0.17417433  0.47174867  0.22328140  1.0
  Hf  Hf263  1  0.17417433  0.80508200  0.22328140  1.0
  Hf  Hf264  1  0.50750767  0.13841533  0.22328140  1.0
  Hf  Hf265  1  0.50750767  0.47174867  0.22328140  1.0
  Hf  Hf266  1  0.50750767  0.80508200  0.22328140  1.0
  Hf  Hf267  1  0.84084100  0.13841533  0.22328140  1.0
  Hf  Hf268  1  0.84084100  0.47174867  0.22328140  1.0
  Hf  Hf269  1  0.84084100  0.80508200  0.22328140  1.0
  Hf  Hf270  1  0.32582567  0.02825133  0.25630620  1.0
  Hf  Hf271  1  0.32582567  0.36158467  0.25630620  1.0
  Hf  Hf272  1  0.32582567  0.69491800  0.25630620  1.0
  Hf  Hf273  1  0.65915900  0.02825133  0.25630620  1.0
  Hf  Hf274  1  0.65915900  0.36158467  0.25630620  1.0
  Hf  Hf275  1  0.65915900  0.69491800  0.25630620  1.0
  Hf  Hf276  1  0.99249233  0.02825133  0.25630620  1.0
  Hf  Hf277  1  0.99249233  0.36158467  0.25630620  1.0
  Hf  Hf278  1  0.99249233  0.69491800  0.25630620  1.0
  Hf  Hf279  1  0.15915900  0.19491800  0.35630620  1.0
  Hf  Hf280  1  0.15915900  0.52825133  0.35630620  1.0
  Hf  Hf281  1  0.15915900  0.86158467  0.35630620  1.0
  Hf  Hf282  1  0.49249233  0.19491800  0.35630620  1.0
  Hf  Hf283  1  0.49249233  0.52825133  0.35630620  1.0
  Hf  Hf284  1  0.49249233  0.86158467  0.35630620  1.0
  Hf  Hf285  1  0.82582567  0.19491800  0.35630620  1.0
  Hf  Hf286  1  0.82582567  0.52825133  0.35630620  1.0
  Hf  Hf287  1  0.82582567  0.86158467  0.35630620  1.0
  Ni  Ni288  1  0.33333333  0.16666667  0.08979380  1.0
  Ni  Ni289  1  0.33333333  0.50000000  0.08979380  1.0
  Ni  Ni290  1  0.33333333  0.83333333  0.08979380  1.0
  Ni  Ni291  1  0.66666667  0.16666667  0.08979380  1.0
  Ni  Ni292  1  0.66666667  0.50000000  0.08979380  1.0
  Ni  Ni293  1  0.66666667  0.83333333  0.08979380  1.0
  Ni  Ni294  1  1.00000000  0.16666667  0.08979380  1.0
  Ni  Ni295  1  1.00000000  0.50000000  0.08979380  1.0
  Ni  Ni296  1  1.00000000  0.83333333  0.08979380  1.0
  Ni  Ni297  1  0.16666667  0.33333333  0.18979380  1.0
  Ni  Ni298  1  0.16666667  0.66666667  0.18979380  1.0
  Ni  Ni299  1  0.16666667  0.00000000  0.18979380  1.0
  Ni  Ni300  1  0.50000000  0.33333333  0.18979380  1.0
  Ni  Ni301  1  0.50000000  0.66666667  0.18979380  1.0
  Ni  Ni302  1  0.50000000  0.00000000  0.18979380  1.0
  Ni  Ni303  1  0.83333333  0.33333333  0.18979380  1.0
  Ni  Ni304  1  0.83333333  0.66666667  0.18979380  1.0
  Ni  Ni305  1  0.83333333  0.00000000  0.18979380  1.0
  Ni  Ni306  1  0.30992000  0.06257267  0.13019980  1.0
  Ni  Ni307  1  0.30992000  0.39590600  0.13019980  1.0
  Ni  Ni308  1  0.30992000  0.72923933  0.13019980  1.0
  Ni  Ni309  1  0.64325333  0.06257267  0.13019980  1.0
  Ni  Ni310  1  0.64325333  0.39590600  0.13019980  1.0
  Ni  Ni311  1  0.64325333  0.72923933  0.13019980  1.0
  Ni  Ni312  1  0.97658667  0.06257267  0.13019980  1.0
  Ni  Ni313  1  0.97658667  0.39590600  0.13019980  1.0
  Ni  Ni314  1  0.97658667  0.72923933  0.13019980  1.0
  Ni  Ni315  1  0.14325333  0.22923933  0.03019980  1.0
  Ni  Ni316  1  0.14325333  0.56257267  0.03019980  1.0
  Ni  Ni317  1  0.14325333  0.89590600  0.03019980  1.0
  Ni  Ni318  1  0.47658667  0.22923933  0.03019980  1.0
  Ni  Ni319  1  0.47658667  0.56257267  0.03019980  1.0
  Ni  Ni320  1  0.47658667  0.89590600  0.03019980  1.0
  Ni  Ni321  1  0.80992000  0.22923933  0.03019980  1.0
  Ni  Ni322  1  0.80992000  0.56257267  0.03019980  1.0
  Ni  Ni323  1  0.80992000  0.89590600  0.03019980  1.0
  Ni  Ni324  1  0.02341333  0.27076067  0.04938780  1.0
  Ni  Ni325  1  0.02341333  0.60409400  0.04938780  1.0
  Ni  Ni326  1  0.02341333  0.93742733  0.04938780  1.0
  Ni  Ni327  1  0.35674667  0.27076067  0.04938780  1.0
  Ni  Ni328  1  0.35674667  0.60409400  0.04938780  1.0
  Ni  Ni329  1  0.35674667  0.93742733  0.04938780  1.0
  Ni  Ni330  1  0.69008000  0.27076067  0.04938780  1.0
  Ni  Ni331  1  0.69008000  0.60409400  0.04938780  1.0
  Ni  Ni332  1  0.69008000  0.93742733  0.04938780  1.0
  Ni  Ni333  1  0.19008000  0.10409400  0.14938780  1.0
  Ni  Ni334  1  0.19008000  0.43742733  0.14938780  1.0
  Ni  Ni335  1  0.19008000  0.77076067  0.14938780  1.0
  Ni  Ni336  1  0.52341333  0.10409400  0.14938780  1.0
  Ni  Ni337  1  0.52341333  0.43742733  0.14938780  1.0
  Ni  Ni338  1  0.52341333  0.77076067  0.14938780  1.0
  Ni  Ni339  1  0.85674667  0.10409400  0.14938780  1.0
  Ni  Ni340  1  0.85674667  0.43742733  0.14938780  1.0
  Ni  Ni341  1  0.85674667  0.77076067  0.14938780  1.0
  Ni  Ni342  1  0.26042167  0.14531367  0.05715960  1.0
  Ni  Ni343  1  0.26042167  0.47864700  0.05715960  1.0
  Ni  Ni344  1  0.26042167  0.81198033  0.05715960  1.0
  Ni  Ni345  1  0.59375500  0.14531367  0.05715960  1.0
  Ni  Ni346  1  0.59375500  0.47864700  0.05715960  1.0
  Ni  Ni347  1  0.59375500  0.81198033  0.05715960  1.0
  Ni  Ni348  1  0.92708833  0.14531367  0.05715960  1.0
  Ni  Ni349  1  0.92708833  0.47864700  0.05715960  1.0
  Ni  Ni350  1  0.92708833  0.81198033  0.05715960  1.0
  Ni  Ni351  1  0.09375500  0.31198033  0.15715960  1.0
  Ni  Ni352  1  0.09375500  0.64531367  0.15715960  1.0
  Ni  Ni353  1  0.09375500  0.97864700  0.15715960  1.0
  Ni  Ni354  1  0.42708833  0.31198033  0.15715960  1.0
  Ni  Ni355  1  0.42708833  0.64531367  0.15715960  1.0
  Ni  Ni356  1  0.42708833  0.97864700  0.15715960  1.0
  Ni  Ni357  1  0.76042167  0.31198033  0.15715960  1.0
  Ni  Ni358  1  0.76042167  0.64531367  0.15715960  1.0
  Ni  Ni359  1  0.76042167  0.97864700  0.15715960  1.0
  Ni  Ni360  1  0.07291167  0.18801967  0.12242800  1.0
  Ni  Ni361  1  0.07291167  0.52135300  0.12242800  1.0
  Ni  Ni362  1  0.07291167  0.85468633  0.12242800  1.0
  Ni  Ni363  1  0.40624500  0.18801967  0.12242800  1.0
  Ni  Ni364  1  0.40624500  0.52135300  0.12242800  1.0
  Ni  Ni365  1  0.40624500  0.85468633  0.12242800  1.0
  Ni  Ni366  1  0.73957833  0.18801967  0.12242800  1.0
  Ni  Ni367  1  0.73957833  0.52135300  0.12242800  1.0
  Ni  Ni368  1  0.73957833  0.85468633  0.12242800  1.0
  Ni  Ni369  1  0.23957833  0.02135300  0.02242800  1.0
  Ni  Ni370  1  0.23957833  0.35468633  0.02242800  1.0
  Ni  Ni371  1  0.23957833  0.68801967  0.02242800  1.0
  Ni  Ni372  1  0.57291167  0.02135300  0.02242800  1.0
  Ni  Ni373  1  0.57291167  0.35468633  0.02242800  1.0
  Ni  Ni374  1  0.57291167  0.68801967  0.02242800  1.0
  Ni  Ni375  1  0.90624500  0.02135300  0.02242800  1.0
  Ni  Ni376  1  0.90624500  0.35468633  0.02242800  1.0
  Ni  Ni377  1  0.90624500  0.68801967  0.02242800  1.0
  Ni  Ni378  1  0.21601100  0.20218367  0.05034080  1.0
  Ni  Ni379  1  0.21601100  0.53551700  0.05034080  1.0
  Ni  Ni380  1  0.21601100  0.86885033  0.05034080  1.0
  Ni  Ni381  1  0.54934433  0.20218367  0.05034080  1.0
  Ni  Ni382  1  0.54934433  0.53551700  0.05034080  1.0
  Ni  Ni383  1  0.54934433  0.86885033  0.05034080  1.0
  Ni  Ni384  1  0.88267767  0.20218367  0.05034080  1.0
  Ni  Ni385  1  0.88267767  0.53551700  0.05034080  1.0
  Ni  Ni386  1  0.88267767  0.86885033  0.05034080  1.0
  Ni  Ni387  1  0.04934433  0.03551700  0.15034080  1.0
  Ni  Ni388  1  0.04934433  0.36885033  0.15034080  1.0
  Ni  Ni389  1  0.04934433  0.70218367  0.15034080  1.0
  Ni  Ni390  1  0.38267767  0.03551700  0.15034080  1.0
  Ni  Ni391  1  0.38267767  0.36885033  0.15034080  1.0
  Ni  Ni392  1  0.38267767  0.70218367  0.15034080  1.0
  Ni  Ni393  1  0.71601100  0.03551700  0.15034080  1.0
  Ni  Ni394  1  0.71601100  0.36885033  0.15034080  1.0
  Ni  Ni395  1  0.71601100  0.70218367  0.15034080  1.0
  Ni  Ni396  1  0.11732233  0.13114967  0.12924680  1.0
  Ni  Ni397  1  0.11732233  0.46448300  0.12924680  1.0
  Ni  Ni398  1  0.11732233  0.79781633  0.12924680  1.0
  Ni  Ni399  1  0.45065567  0.13114967  0.12924680  1.0
  Ni  Ni400  1  0.45065567  0.46448300  0.12924680  1.0
  Ni  Ni401  1  0.45065567  0.79781633  0.12924680  1.0
  Ni  Ni402  1  0.78398900  0.13114967  0.12924680  1.0
  Ni  Ni403  1  0.78398900  0.46448300  0.12924680  1.0
  Ni  Ni404  1  0.78398900  0.79781633  0.12924680  1.0
  Ni  Ni405  1  0.28398900  0.29781633  0.02924680  1.0
  Ni  Ni406  1  0.28398900  0.63114967  0.02924680  1.0
  Ni  Ni407  1  0.28398900  0.96448300  0.02924680  1.0
  Ni  Ni408  1  0.61732233  0.29781633  0.02924680  1.0
  Ni  Ni409  1  0.61732233  0.63114967  0.02924680  1.0
  Ni  Ni410  1  0.61732233  0.96448300  0.02924680  1.0
  Ni  Ni411  1  0.95065567  0.29781633  0.02924680  1.0
  Ni  Ni412  1  0.95065567  0.63114967  0.02924680  1.0
  Ni  Ni413  1  0.95065567  0.96448300  0.02924680  1.0
  Ni  Ni414  1  0.02196283  0.07434183  0.00712770  1.0
  Ni  Ni415  1  0.02196283  0.40767517  0.00712770  1.0
  Ni  Ni416  1  0.02196283  0.74100850  0.00712770  1.0
  Ni  Ni417  1  0.35529617  0.07434183  0.00712770  1.0
  Ni  Ni418  1  0.35529617  0.40767517  0.00712770  1.0
  Ni  Ni419  1  0.35529617  0.74100850  0.00712770  1.0
  Ni  Ni420  1  0.68862950  0.07434183  0.00712770  1.0
  Ni  Ni421  1  0.68862950  0.40767517  0.00712770  1.0
  Ni  Ni422  1  0.68862950  0.74100850  0.00712770  1.0
  Ni  Ni423  1  0.18862950  0.24100850  0.10712770  1.0
  Ni  Ni424  1  0.18862950  0.57434183  0.10712770  1.0
  Ni  Ni425  1  0.18862950  0.90767517  0.10712770  1.0
  Ni  Ni426  1  0.52196283  0.24100850  0.10712770  1.0
  Ni  Ni427  1  0.52196283  0.57434183  0.10712770  1.0
  Ni  Ni428  1  0.52196283  0.90767517  0.10712770  1.0
  Ni  Ni429  1  0.85529617  0.24100850  0.10712770  1.0
  Ni  Ni430  1  0.85529617  0.57434183  0.10712770  1.0
  Ni  Ni431  1  0.85529617  0.90767517  0.10712770  1.0
  Ni  Ni432  1  0.20065233  0.15061767  0.10397600  1.0
  Ni  Ni433  1  0.20065233  0.48395100  0.10397600  1.0
  Ni  Ni434  1  0.20065233  0.81728433  0.10397600  1.0
  Ni  Ni435  1  0.53398567  0.15061767  0.10397600  1.0
  Ni  Ni436  1  0.53398567  0.48395100  0.10397600  1.0
  Ni  Ni437  1  0.53398567  0.81728433  0.10397600  1.0
  Ni  Ni438  1  0.86731900  0.15061767  0.10397600  1.0
  Ni  Ni439  1  0.86731900  0.48395100  0.10397600  1.0
  Ni  Ni440  1  0.86731900  0.81728433  0.10397600  1.0
  Ni  Ni441  1  0.03398567  0.31728433  0.00397600  1.0
  Ni  Ni442  1  0.03398567  0.65061767  0.00397600  1.0
  Ni  Ni443  1  0.03398567  0.98395100  0.00397600  1.0
  Ni  Ni444  1  0.36731900  0.31728433  0.00397600  1.0
  Ni  Ni445  1  0.36731900  0.65061767  0.00397600  1.0
  Ni  Ni446  1  0.36731900  0.98395100  0.00397600  1.0
  Ni  Ni447  1  0.70065233  0.31728433  0.00397600  1.0
  Ni  Ni448  1  0.70065233  0.65061767  0.00397600  1.0
  Ni  Ni449  1  0.70065233  0.98395100  0.00397600  1.0
  Ni  Ni450  1  0.13268100  0.18271567  0.07561160  1.0
  Ni  Ni451  1  0.13268100  0.51604900  0.07561160  1.0
  Ni  Ni452  1  0.13268100  0.84938233  0.07561160  1.0
  Ni  Ni453  1  0.46601433  0.18271567  0.07561160  1.0
  Ni  Ni454  1  0.46601433  0.51604900  0.07561160  1.0
  Ni  Ni455  1  0.46601433  0.84938233  0.07561160  1.0
  Ni  Ni456  1  0.79934767  0.18271567  0.07561160  1.0
  Ni  Ni457  1  0.79934767  0.51604900  0.07561160  1.0
  Ni  Ni458  1  0.79934767  0.84938233  0.07561160  1.0
  Ni  Ni459  1  0.29934767  0.01604900  0.17561160  1.0
  Ni  Ni460  1  0.29934767  0.34938233  0.17561160  1.0
  Ni  Ni461  1  0.29934767  0.68271567  0.17561160  1.0
  Ni  Ni462  1  0.63268100  0.01604900  0.17561160  1.0
  Ni  Ni463  1  0.63268100  0.34938233  0.17561160  1.0
  Ni  Ni464  1  0.63268100  0.68271567  0.17561160  1.0
  Ni  Ni465  1  0.96601433  0.01604900  0.17561160  1.0
  Ni  Ni466  1  0.96601433  0.34938233  0.17561160  1.0
  Ni  Ni467  1  0.96601433  0.68271567  0.17561160  1.0
  Ni  Ni468  1  0.23829783  0.16375283  0.18470570  1.0
  Ni  Ni469  1  0.23829783  0.49708617  0.18470570  1.0
  Ni  Ni470  1  0.23829783  0.83041950  0.18470570  1.0
  Ni  Ni471  1  0.57163117  0.16375283  0.18470570  1.0
  Ni  Ni472  1  0.57163117  0.49708617  0.18470570  1.0
  Ni  Ni473  1  0.57163117  0.83041950  0.18470570  1.0
  Ni  Ni474  1  0.90496450  0.16375283  0.18470570  1.0
  Ni  Ni475  1  0.90496450  0.49708617  0.18470570  1.0
  Ni  Ni476  1  0.90496450  0.83041950  0.18470570  1.0
  Ni  Ni477  1  0.07163117  0.33041950  0.08470570  1.0
  Ni  Ni478  1  0.07163117  0.66375283  0.08470570  1.0
  Ni  Ni479  1  0.07163117  0.99708617  0.08470570  1.0
  Ni  Ni480  1  0.40496450  0.33041950  0.08470570  1.0
  Ni  Ni481  1  0.40496450  0.66375283  0.08470570  1.0
  Ni  Ni482  1  0.40496450  0.99708617  0.08470570  1.0
  Ni  Ni483  1  0.73829783  0.33041950  0.08470570  1.0
  Ni  Ni484  1  0.73829783  0.66375283  0.08470570  1.0
  Ni  Ni485  1  0.73829783  0.99708617  0.08470570  1.0
  Ni  Ni486  1  0.09503550  0.16958050  0.19488190  1.0
  Ni  Ni487  1  0.09503550  0.50291383  0.19488190  1.0
  Ni  Ni488  1  0.09503550  0.83624717  0.19488190  1.0
  Ni  Ni489  1  0.42836883  0.16958050  0.19488190  1.0
  Ni  Ni490  1  0.42836883  0.50291383  0.19488190  1.0
  Ni  Ni491  1  0.42836883  0.83624717  0.19488190  1.0
  Ni  Ni492  1  0.76170217  0.16958050  0.19488190  1.0
  Ni  Ni493  1  0.76170217  0.50291383  0.19488190  1.0
  Ni  Ni494  1  0.76170217  0.83624717  0.19488190  1.0
  Ni  Ni495  1  0.26170217  0.00291383  0.09488190  1.0
  Ni  Ni496  1  0.26170217  0.33624717  0.09488190  1.0
  Ni  Ni497  1  0.26170217  0.66958050  0.09488190  1.0
  Ni  Ni498  1  0.59503550  0.00291383  0.09488190  1.0
  Ni  Ni499  1  0.59503550  0.33624717  0.09488190  1.0
  Ni  Ni500  1  0.59503550  0.66958050  0.09488190  1.0
  Ni  Ni501  1  0.92836883  0.00291383  0.09488190  1.0
  Ni  Ni502  1  0.92836883  0.33624717  0.09488190  1.0
  Ni  Ni503  1  0.92836883  0.66958050  0.09488190  1.0
  Ni  Ni504  1  0.28233050  0.13190217  0.13278310  1.0
  Ni  Ni505  1  0.28233050  0.46523550  0.13278310  1.0
  Ni  Ni506  1  0.28233050  0.79856883  0.13278310  1.0
  Ni  Ni507  1  0.61566383  0.13190217  0.13278310  1.0
  Ni  Ni508  1  0.61566383  0.46523550  0.13278310  1.0
  Ni  Ni509  1  0.61566383  0.79856883  0.13278310  1.0
  Ni  Ni510  1  0.94899717  0.13190217  0.13278310  1.0
  Ni  Ni511  1  0.94899717  0.46523550  0.13278310  1.0
  Ni  Ni512  1  0.94899717  0.79856883  0.13278310  1.0
  Ni  Ni513  1  0.11566383  0.29856883  0.03278310  1.0
  Ni  Ni514  1  0.11566383  0.63190217  0.03278310  1.0
  Ni  Ni515  1  0.11566383  0.96523550  0.03278310  1.0
  Ni  Ni516  1  0.44899717  0.29856883  0.03278310  1.0
  Ni  Ni517  1  0.44899717  0.63190217  0.03278310  1.0
  Ni  Ni518  1  0.44899717  0.96523550  0.03278310  1.0
  Ni  Ni519  1  0.78233050  0.29856883  0.03278310  1.0
  Ni  Ni520  1  0.78233050  0.63190217  0.03278310  1.0
  Ni  Ni521  1  0.78233050  0.96523550  0.03278310  1.0
  Ni  Ni522  1  0.05100283  0.20143117  0.04680450  1.0
  Ni  Ni523  1  0.05100283  0.53476450  0.04680450  1.0
  Ni  Ni524  1  0.05100283  0.86809783  0.04680450  1.0
  Ni  Ni525  1  0.38433617  0.20143117  0.04680450  1.0
  Ni  Ni526  1  0.38433617  0.53476450  0.04680450  1.0
  Ni  Ni527  1  0.38433617  0.86809783  0.04680450  1.0
  Ni  Ni528  1  0.71766950  0.20143117  0.04680450  1.0
  Ni  Ni529  1  0.71766950  0.53476450  0.04680450  1.0
  Ni  Ni530  1  0.71766950  0.86809783  0.04680450  1.0
  Ni  Ni531  1  0.21766950  0.03476450  0.14680450  1.0
  Ni  Ni532  1  0.21766950  0.36809783  0.14680450  1.0
  Ni  Ni533  1  0.21766950  0.70143117  0.14680450  1.0
  Ni  Ni534  1  0.55100283  0.03476450  0.14680450  1.0
  Ni  Ni535  1  0.55100283  0.36809783  0.14680450  1.0
  Ni  Ni536  1  0.55100283  0.70143117  0.14680450  1.0
  Ni  Ni537  1  0.88433617  0.03476450  0.14680450  1.0
  Ni  Ni538  1  0.88433617  0.36809783  0.14680450  1.0
  Ni  Ni539  1  0.88433617  0.70143117  0.14680450  1.0
  Ni  Ni540  1  0.31854383  0.10092150  0.07007530  1.0
  Ni  Ni541  1  0.31854383  0.43425483  0.07007530  1.0
  Ni  Ni542  1  0.31854383  0.76758817  0.07007530  1.0
  Ni  Ni543  1  0.65187717  0.10092150  0.07007530  1.0
  Ni  Ni544  1  0.65187717  0.43425483  0.07007530  1.0
  Ni  Ni545  1  0.65187717  0.76758817  0.07007530  1.0
  Ni  Ni546  1  0.98521050  0.10092150  0.07007530  1.0
  Ni  Ni547  1  0.98521050  0.43425483  0.07007530  1.0
  Ni  Ni548  1  0.98521050  0.76758817  0.07007530  1.0
  Ni  Ni549  1  0.15187717  0.26758817  0.17007530  1.0
  Ni  Ni550  1  0.15187717  0.60092150  0.17007530  1.0
  Ni  Ni551  1  0.15187717  0.93425483  0.17007530  1.0
  Ni  Ni552  1  0.48521050  0.26758817  0.17007530  1.0
  Ni  Ni553  1  0.48521050  0.60092150  0.17007530  1.0
  Ni  Ni554  1  0.48521050  0.93425483  0.17007530  1.0
  Ni  Ni555  1  0.81854383  0.26758817  0.17007530  1.0
  Ni  Ni556  1  0.81854383  0.60092150  0.17007530  1.0
  Ni  Ni557  1  0.81854383  0.93425483  0.17007530  1.0
  Ni  Ni558  1  0.01478950  0.23241183  0.10951230  1.0
  Ni  Ni559  1  0.01478950  0.56574517  0.10951230  1.0
  Ni  Ni560  1  0.01478950  0.89907850  0.10951230  1.0
  Ni  Ni561  1  0.34812283  0.23241183  0.10951230  1.0
  Ni  Ni562  1  0.34812283  0.56574517  0.10951230  1.0
  Ni  Ni563  1  0.34812283  0.89907850  0.10951230  1.0
  Ni  Ni564  1  0.68145617  0.23241183  0.10951230  1.0
  Ni  Ni565  1  0.68145617  0.56574517  0.10951230  1.0
  Ni  Ni566  1  0.68145617  0.89907850  0.10951230  1.0
  Ni  Ni567  1  0.18145617  0.06574517  0.00951230  1.0
  Ni  Ni568  1  0.18145617  0.39907850  0.00951230  1.0
  Ni  Ni569  1  0.18145617  0.73241183  0.00951230  1.0
  Ni  Ni570  1  0.51478950  0.06574517  0.00951230  1.0
  Ni  Ni571  1  0.51478950  0.39907850  0.00951230  1.0
  Ni  Ni572  1  0.51478950  0.73241183  0.00951230  1.0
  Ni  Ni573  1  0.84812283  0.06574517  0.00951230  1.0
  Ni  Ni574  1  0.84812283  0.39907850  0.00951230  1.0
  Ni  Ni575  1  0.84812283  0.73241183  0.00951230  1.0
  Ni  Ni576  1  0.06032750  0.06988650  0.08909990  1.0
  Ni  Ni577  1  0.06032750  0.40321983  0.08909990  1.0
  Ni  Ni578  1  0.06032750  0.73655317  0.08909990  1.0
  Ni  Ni579  1  0.39366083  0.06988650  0.08909990  1.0
  Ni  Ni580  1  0.39366083  0.40321983  0.08909990  1.0
  Ni  Ni581  1  0.39366083  0.73655317  0.08909990  1.0
  Ni  Ni582  1  0.72699417  0.06988650  0.08909990  1.0
  Ni  Ni583  1  0.72699417  0.40321983  0.08909990  1.0
  Ni  Ni584  1  0.72699417  0.73655317  0.08909990  1.0
  Ni  Ni585  1  0.22699417  0.23655317  0.18909990  1.0
  Ni  Ni586  1  0.22699417  0.56988650  0.18909990  1.0
  Ni  Ni587  1  0.22699417  0.90321983  0.18909990  1.0
  Ni  Ni588  1  0.56032750  0.23655317  0.18909990  1.0
  Ni  Ni589  1  0.56032750  0.56988650  0.18909990  1.0
  Ni  Ni590  1  0.56032750  0.90321983  0.18909990  1.0
  Ni  Ni591  1  0.89366083  0.23655317  0.18909990  1.0
  Ni  Ni592  1  0.89366083  0.56988650  0.18909990  1.0
  Ni  Ni593  1  0.89366083  0.90321983  0.18909990  1.0
  Ni  Ni594  1  0.27300583  0.26344683  0.09048770  1.0
  Ni  Ni595  1  0.27300583  0.59678017  0.09048770  1.0
  Ni  Ni596  1  0.27300583  0.93011350  0.09048770  1.0
  Ni  Ni597  1  0.60633917  0.26344683  0.09048770  1.0
  Ni  Ni598  1  0.60633917  0.59678017  0.09048770  1.0
  Ni  Ni599  1  0.60633917  0.93011350  0.09048770  1.0
  Ni  Ni600  1  0.93967250  0.26344683  0.09048770  1.0
  Ni  Ni601  1  0.93967250  0.59678017  0.09048770  1.0
  Ni  Ni602  1  0.93967250  0.93011350  0.09048770  1.0
  Ni  Ni603  1  0.10633917  0.09678017  0.19048770  1.0
  Ni  Ni604  1  0.10633917  0.43011350  0.19048770  1.0
  Ni  Ni605  1  0.10633917  0.76344683  0.19048770  1.0
  Ni  Ni606  1  0.43967250  0.09678017  0.19048770  1.0
  Ni  Ni607  1  0.43967250  0.43011350  0.19048770  1.0
  Ni  Ni608  1  0.43967250  0.76344683  0.19048770  1.0
  Ni  Ni609  1  0.77300583  0.09678017  0.19048770  1.0
  Ni  Ni610  1  0.77300583  0.43011350  0.19048770  1.0
  Ni  Ni611  1  0.77300583  0.76344683  0.19048770  1.0
  Ni  Ni612  1  0.01033333  0.18935133  0.16670680  1.0
  Ni  Ni613  1  0.01033333  0.52268467  0.16670680  1.0
  Ni  Ni614  1  0.01033333  0.85601800  0.16670680  1.0
  Ni  Ni615  1  0.34366667  0.18935133  0.16670680  1.0
  Ni  Ni616  1  0.34366667  0.52268467  0.16670680  1.0
  Ni  Ni617  1  0.34366667  0.85601800  0.16670680  1.0
  Ni  Ni618  1  0.67700000  0.18935133  0.16670680  1.0
  Ni  Ni619  1  0.67700000  0.52268467  0.16670680  1.0
  Ni  Ni620  1  0.67700000  0.85601800  0.16670680  1.0
  Ni  Ni621  1  0.17700000  0.02268467  0.06670680  1.0
  Ni  Ni622  1  0.17700000  0.35601800  0.06670680  1.0
  Ni  Ni623  1  0.17700000  0.68935133  0.06670680  1.0
  Ni  Ni624  1  0.51033333  0.02268467  0.06670680  1.0
  Ni  Ni625  1  0.51033333  0.35601800  0.06670680  1.0
  Ni  Ni626  1  0.51033333  0.68935133  0.06670680  1.0
  Ni  Ni627  1  0.84366667  0.02268467  0.06670680  1.0
  Ni  Ni628  1  0.84366667  0.35601800  0.06670680  1.0
  Ni  Ni629  1  0.84366667  0.68935133  0.06670680  1.0
  Ni  Ni630  1  0.32300000  0.14398200  0.01288080  1.0
  Ni  Ni631  1  0.32300000  0.47731533  0.01288080  1.0
  Ni  Ni632  1  0.32300000  0.81064867  0.01288080  1.0
  Ni  Ni633  1  0.65633333  0.14398200  0.01288080  1.0
  Ni  Ni634  1  0.65633333  0.47731533  0.01288080  1.0
  Ni  Ni635  1  0.65633333  0.81064867  0.01288080  1.0
  Ni  Ni636  1  0.98966667  0.14398200  0.01288080  1.0
  Ni  Ni637  1  0.98966667  0.47731533  0.01288080  1.0
  Ni  Ni638  1  0.98966667  0.81064867  0.01288080  1.0
  Ni  Ni639  1  0.15633333  0.31064867  0.11288080  1.0
  Ni  Ni640  1  0.15633333  0.64398200  0.11288080  1.0
  Ni  Ni641  1  0.15633333  0.97731533  0.11288080  1.0
  Ni  Ni642  1  0.48966667  0.31064867  0.11288080  1.0
  Ni  Ni643  1  0.48966667  0.64398200  0.11288080  1.0
  Ni  Ni644  1  0.48966667  0.97731533  0.11288080  1.0
  Ni  Ni645  1  0.82300000  0.31064867  0.11288080  1.0
  Ni  Ni646  1  0.82300000  0.64398200  0.11288080  1.0
  Ni  Ni647  1  0.82300000  0.97731533  0.11288080  1.0
  Ni  Ni648  1  0.31137050  0.25899150  0.17245990  1.0
  Ni  Ni649  1  0.31137050  0.59232483  0.17245990  1.0
  Ni  Ni650  1  0.31137050  0.92565817  0.17245990  1.0
  Ni  Ni651  1  0.64470383  0.25899150  0.17245990  1.0
  Ni  Ni652  1  0.64470383  0.59232483  0.17245990  1.0
  Ni  Ni653  1  0.64470383  0.92565817  0.17245990  1.0
  Ni  Ni654  1  0.97803717  0.25899150  0.17245990  1.0
  Ni  Ni655  1  0.97803717  0.59232483  0.17245990  1.0
  Ni  Ni656  1  0.97803717  0.92565817  0.17245990  1.0
  Ni  Ni657  1  0.14470383  0.09232483  0.07245990  1.0
  Ni  Ni658  1  0.14470383  0.42565817  0.07245990  1.0
  Ni  Ni659  1  0.14470383  0.75899150  0.07245990  1.0
  Ni  Ni660  1  0.47803717  0.09232483  0.07245990  1.0
  Ni  Ni661  1  0.47803717  0.42565817  0.07245990  1.0
  Ni  Ni662  1  0.47803717  0.75899150  0.07245990  1.0
  Ni  Ni663  1  0.81137050  0.09232483  0.07245990  1.0
  Ni  Ni664  1  0.81137050  0.42565817  0.07245990  1.0
  Ni  Ni665  1  0.81137050  0.75899150  0.07245990  1.0
  Ni  Ni666  1  0.33333333  0.16666667  0.28979380  1.0
  Ni  Ni667  1  0.33333333  0.50000000  0.28979380  1.0
  Ni  Ni668  1  0.33333333  0.83333333  0.28979380  1.0
  Ni  Ni669  1  0.66666667  0.16666667  0.28979380  1.0
  Ni  Ni670  1  0.66666667  0.50000000  0.28979380  1.0
  Ni  Ni671  1  0.66666667  0.83333333  0.28979380  1.0
  Ni  Ni672  1  1.00000000  0.16666667  0.28979380  1.0
  Ni  Ni673  1  1.00000000  0.50000000  0.28979380  1.0
  Ni  Ni674  1  1.00000000  0.83333333  0.28979380  1.0
  Ni  Ni675  1  0.16666667  0.00000000  0.38979380  1.0
  Ni  Ni676  1  0.16666667  0.33333333  0.38979380  1.0
  Ni  Ni677  1  0.16666667  0.66666667  0.38979380  1.0
  Ni  Ni678  1  0.50000000  0.00000000  0.38979380  1.0
  Ni  Ni679  1  0.50000000  0.33333333  0.38979380  1.0
  Ni  Ni680  1  0.50000000  0.66666667  0.38979380  1.0
  Ni  Ni681  1  0.83333333  0.00000000  0.38979380  1.0
  Ni  Ni682  1  0.83333333  0.33333333  0.38979380  1.0
  Ni  Ni683  1  0.83333333  0.66666667  0.38979380  1.0
  Ni  Ni684  1  0.30992000  0.06257267  0.33019980  1.0
  Ni  Ni685  1  0.30992000  0.39590600  0.33019980  1.0
  Ni  Ni686  1  0.30992000  0.72923933  0.33019980  1.0
  Ni  Ni687  1  0.64325333  0.06257267  0.33019980  1.0
  Ni  Ni688  1  0.64325333  0.39590600  0.33019980  1.0
  Ni  Ni689  1  0.64325333  0.72923933  0.33019980  1.0
  Ni  Ni690  1  0.97658667  0.06257267  0.33019980  1.0
  Ni  Ni691  1  0.97658667  0.39590600  0.33019980  1.0
  Ni  Ni692  1  0.97658667  0.72923933  0.33019980  1.0
  Ni  Ni693  1  0.14325333  0.22923933  0.23019980  1.0
  Ni  Ni694  1  0.14325333  0.56257267  0.23019980  1.0
  Ni  Ni695  1  0.14325333  0.89590600  0.23019980  1.0
  Ni  Ni696  1  0.47658667  0.22923933  0.23019980  1.0
  Ni  Ni697  1  0.47658667  0.56257267  0.23019980  1.0
  Ni  Ni698  1  0.47658667  0.89590600  0.23019980  1.0
  Ni  Ni699  1  0.80992000  0.22923933  0.23019980  1.0
  Ni  Ni700  1  0.80992000  0.56257267  0.23019980  1.0
  Ni  Ni701  1  0.80992000  0.89590600  0.23019980  1.0
  Ni  Ni702  1  0.02341333  0.27076067  0.24938780  1.0
  Ni  Ni703  1  0.02341333  0.60409400  0.24938780  1.0
  Ni  Ni704  1  0.02341333  0.93742733  0.24938780  1.0
  Ni  Ni705  1  0.35674667  0.27076067  0.24938780  1.0
  Ni  Ni706  1  0.35674667  0.60409400  0.24938780  1.0
  Ni  Ni707  1  0.35674667  0.93742733  0.24938780  1.0
  Ni  Ni708  1  0.69008000  0.27076067  0.24938780  1.0
  Ni  Ni709  1  0.69008000  0.60409400  0.24938780  1.0
  Ni  Ni710  1  0.69008000  0.93742733  0.24938780  1.0
  Ni  Ni711  1  0.19008000  0.10409400  0.34938780  1.0
  Ni  Ni712  1  0.19008000  0.43742733  0.34938780  1.0
  Ni  Ni713  1  0.19008000  0.77076067  0.34938780  1.0
  Ni  Ni714  1  0.52341333  0.10409400  0.34938780  1.0
  Ni  Ni715  1  0.52341333  0.43742733  0.34938780  1.0
  Ni  Ni716  1  0.52341333  0.77076067  0.34938780  1.0
  Ni  Ni717  1  0.85674667  0.10409400  0.34938780  1.0
  Ni  Ni718  1  0.85674667  0.43742733  0.34938780  1.0
  Ni  Ni719  1  0.85674667  0.77076067  0.34938780  1.0
  Ni  Ni720  1  0.26042167  0.14531367  0.25715960  1.0
  Ni  Ni721  1  0.26042167  0.47864700  0.25715960  1.0
  Ni  Ni722  1  0.26042167  0.81198033  0.25715960  1.0
  Ni  Ni723  1  0.59375500  0.14531367  0.25715960  1.0
  Ni  Ni724  1  0.59375500  0.47864700  0.25715960  1.0
  Ni  Ni725  1  0.59375500  0.81198033  0.25715960  1.0
  Ni  Ni726  1  0.92708833  0.14531367  0.25715960  1.0
  Ni  Ni727  1  0.92708833  0.47864700  0.25715960  1.0
  Ni  Ni728  1  0.92708833  0.81198033  0.25715960  1.0
  Ni  Ni729  1  0.09375500  0.31198033  0.35715960  1.0
  Ni  Ni730  1  0.09375500  0.64531367  0.35715960  1.0
  Ni  Ni731  1  0.09375500  0.97864700  0.35715960  1.0
  Ni  Ni732  1  0.42708833  0.31198033  0.35715960  1.0
  Ni  Ni733  1  0.42708833  0.64531367  0.35715960  1.0
  Ni  Ni734  1  0.42708833  0.97864700  0.35715960  1.0
  Ni  Ni735  1  0.76042167  0.31198033  0.35715960  1.0
  Ni  Ni736  1  0.76042167  0.64531367  0.35715960  1.0
  Ni  Ni737  1  0.76042167  0.97864700  0.35715960  1.0
  Ni  Ni738  1  0.07291167  0.18801967  0.32242800  1.0
  Ni  Ni739  1  0.07291167  0.52135300  0.32242800  1.0
  Ni  Ni740  1  0.07291167  0.85468633  0.32242800  1.0
  Ni  Ni741  1  0.40624500  0.18801967  0.32242800  1.0
  Ni  Ni742  1  0.40624500  0.52135300  0.32242800  1.0
  Ni  Ni743  1  0.40624500  0.85468633  0.32242800  1.0
  Ni  Ni744  1  0.73957833  0.18801967  0.32242800  1.0
  Ni  Ni745  1  0.73957833  0.52135300  0.32242800  1.0
  Ni  Ni746  1  0.73957833  0.85468633  0.32242800  1.0
  Ni  Ni747  1  0.23957833  0.02135300  0.22242800  1.0
  Ni  Ni748  1  0.23957833  0.35468633  0.22242800  1.0
  Ni  Ni749  1  0.23957833  0.68801967  0.22242800  1.0
  Ni  Ni750  1  0.57291167  0.02135300  0.22242800  1.0
  Ni  Ni751  1  0.57291167  0.35468633  0.22242800  1.0
  Ni  Ni752  1  0.57291167  0.68801967  0.22242800  1.0
  Ni  Ni753  1  0.90624500  0.02135300  0.22242800  1.0
  Ni  Ni754  1  0.90624500  0.35468633  0.22242800  1.0
  Ni  Ni755  1  0.90624500  0.68801967  0.22242800  1.0
  Ni  Ni756  1  0.21601100  0.20218367  0.25034080  1.0
  Ni  Ni757  1  0.21601100  0.53551700  0.25034080  1.0
  Ni  Ni758  1  0.21601100  0.86885033  0.25034080  1.0
  Ni  Ni759  1  0.54934433  0.20218367  0.25034080  1.0
  Ni  Ni760  1  0.54934433  0.53551700  0.25034080  1.0
  Ni  Ni761  1  0.54934433  0.86885033  0.25034080  1.0
  Ni  Ni762  1  0.88267767  0.20218367  0.25034080  1.0
  Ni  Ni763  1  0.88267767  0.53551700  0.25034080  1.0
  Ni  Ni764  1  0.88267767  0.86885033  0.25034080  1.0
  Ni  Ni765  1  0.04934433  0.03551700  0.35034080  1.0
  Ni  Ni766  1  0.04934433  0.36885033  0.35034080  1.0
  Ni  Ni767  1  0.04934433  0.70218367  0.35034080  1.0
  Ni  Ni768  1  0.38267767  0.03551700  0.35034080  1.0
  Ni  Ni769  1  0.38267767  0.36885033  0.35034080  1.0
  Ni  Ni770  1  0.38267767  0.70218367  0.35034080  1.0
  Ni  Ni771  1  0.71601100  0.03551700  0.35034080  1.0
  Ni  Ni772  1  0.71601100  0.36885033  0.35034080  1.0
  Ni  Ni773  1  0.71601100  0.70218367  0.35034080  1.0
  Ni  Ni774  1  0.11732233  0.13114967  0.32924680  1.0
  Ni  Ni775  1  0.11732233  0.46448300  0.32924680  1.0
  Ni  Ni776  1  0.11732233  0.79781633  0.32924680  1.0
  Ni  Ni777  1  0.45065567  0.13114967  0.32924680  1.0
  Ni  Ni778  1  0.45065567  0.46448300  0.32924680  1.0
  Ni  Ni779  1  0.45065567  0.79781633  0.32924680  1.0
  Ni  Ni780  1  0.78398900  0.13114967  0.32924680  1.0
  Ni  Ni781  1  0.78398900  0.46448300  0.32924680  1.0
  Ni  Ni782  1  0.78398900  0.79781633  0.32924680  1.0
  Ni  Ni783  1  0.28398900  0.29781633  0.22924680  1.0
  Ni  Ni784  1  0.28398900  0.63114967  0.22924680  1.0
  Ni  Ni785  1  0.28398900  0.96448300  0.22924680  1.0
  Ni  Ni786  1  0.61732233  0.29781633  0.22924680  1.0
  Ni  Ni787  1  0.61732233  0.63114967  0.22924680  1.0
  Ni  Ni788  1  0.61732233  0.96448300  0.22924680  1.0
  Ni  Ni789  1  0.95065567  0.29781633  0.22924680  1.0
  Ni  Ni790  1  0.95065567  0.63114967  0.22924680  1.0
  Ni  Ni791  1  0.95065567  0.96448300  0.22924680  1.0
  Ni  Ni792  1  0.02196283  0.07434183  0.20712770  1.0
  Ni  Ni793  1  0.02196283  0.40767517  0.20712770  1.0
  Ni  Ni794  1  0.02196283  0.74100850  0.20712770  1.0
  Ni  Ni795  1  0.35529617  0.07434183  0.20712770  1.0
  Ni  Ni796  1  0.35529617  0.40767517  0.20712770  1.0
  Ni  Ni797  1  0.35529617  0.74100850  0.20712770  1.0
  Ni  Ni798  1  0.68862950  0.07434183  0.20712770  1.0
  Ni  Ni799  1  0.68862950  0.40767517  0.20712770  1.0
  Ni  Ni800  1  0.68862950  0.74100850  0.20712770  1.0
  Ni  Ni801  1  0.18862950  0.24100850  0.30712770  1.0
  Ni  Ni802  1  0.18862950  0.57434183  0.30712770  1.0
  Ni  Ni803  1  0.18862950  0.90767517  0.30712770  1.0
  Ni  Ni804  1  0.52196283  0.24100850  0.30712770  1.0
  Ni  Ni805  1  0.52196283  0.57434183  0.30712770  1.0
  Ni  Ni806  1  0.52196283  0.90767517  0.30712770  1.0
  Ni  Ni807  1  0.85529617  0.24100850  0.30712770  1.0
  Ni  Ni808  1  0.85529617  0.57434183  0.30712770  1.0
  Ni  Ni809  1  0.85529617  0.90767517  0.30712770  1.0
  Ni  Ni810  1  0.20065233  0.15061767  0.30397600  1.0
  Ni  Ni811  1  0.20065233  0.48395100  0.30397600  1.0
  Ni  Ni812  1  0.20065233  0.81728433  0.30397600  1.0
  Ni  Ni813  1  0.53398567  0.15061767  0.30397600  1.0
  Ni  Ni814  1  0.53398567  0.48395100  0.30397600  1.0
  Ni  Ni815  1  0.53398567  0.81728433  0.30397600  1.0
  Ni  Ni816  1  0.86731900  0.15061767  0.30397600  1.0
  Ni  Ni817  1  0.86731900  0.48395100  0.30397600  1.0
  Ni  Ni818  1  0.86731900  0.81728433  0.30397600  1.0
  Ni  Ni819  1  0.03398567  0.31728433  0.20397600  1.0
  Ni  Ni820  1  0.03398567  0.65061767  0.20397600  1.0
  Ni  Ni821  1  0.03398567  0.98395100  0.20397600  1.0
  Ni  Ni822  1  0.36731900  0.31728433  0.20397600  1.0
  Ni  Ni823  1  0.36731900  0.65061767  0.20397600  1.0
  Ni  Ni824  1  0.36731900  0.98395100  0.20397600  1.0
  Ni  Ni825  1  0.70065233  0.31728433  0.20397600  1.0
  Ni  Ni826  1  0.70065233  0.65061767  0.20397600  1.0
  Ni  Ni827  1  0.70065233  0.98395100  0.20397600  1.0
  Ni  Ni828  1  0.13268100  0.18271567  0.27561160  1.0
  Ni  Ni829  1  0.13268100  0.51604900  0.27561160  1.0
  Ni  Ni830  1  0.13268100  0.84938233  0.27561160  1.0
  Ni  Ni831  1  0.46601433  0.18271567  0.27561160  1.0
  Ni  Ni832  1  0.46601433  0.51604900  0.27561160  1.0
  Ni  Ni833  1  0.46601433  0.84938233  0.27561160  1.0
  Ni  Ni834  1  0.79934767  0.18271567  0.27561160  1.0
  Ni  Ni835  1  0.79934767  0.51604900  0.27561160  1.0
  Ni  Ni836  1  0.79934767  0.84938233  0.27561160  1.0
  Ni  Ni837  1  0.29934767  0.01604900  0.37561160  1.0
  Ni  Ni838  1  0.29934767  0.34938233  0.37561160  1.0
  Ni  Ni839  1  0.29934767  0.68271567  0.37561160  1.0
  Ni  Ni840  1  0.63268100  0.01604900  0.37561160  1.0
  Ni  Ni841  1  0.63268100  0.34938233  0.37561160  1.0
  Ni  Ni842  1  0.63268100  0.68271567  0.37561160  1.0
  Ni  Ni843  1  0.96601433  0.01604900  0.37561160  1.0
  Ni  Ni844  1  0.96601433  0.34938233  0.37561160  1.0
  Ni  Ni845  1  0.96601433  0.68271567  0.37561160  1.0
  Ni  Ni846  1  0.23829783  0.16375283  0.38470570  1.0
  Ni  Ni847  1  0.23829783  0.49708617  0.38470570  1.0
  Ni  Ni848  1  0.23829783  0.83041950  0.38470570  1.0
  Ni  Ni849  1  0.57163117  0.16375283  0.38470570  1.0
  Ni  Ni850  1  0.57163117  0.49708617  0.38470570  1.0
  Ni  Ni851  1  0.57163117  0.83041950  0.38470570  1.0
  Ni  Ni852  1  0.90496450  0.16375283  0.38470570  1.0
  Ni  Ni853  1  0.90496450  0.49708617  0.38470570  1.0
  Ni  Ni854  1  0.90496450  0.83041950  0.38470570  1.0
  Ni  Ni855  1  0.07163117  0.33041950  0.28470570  1.0
  Ni  Ni856  1  0.07163117  0.66375283  0.28470570  1.0
  Ni  Ni857  1  0.07163117  0.99708617  0.28470570  1.0
  Ni  Ni858  1  0.40496450  0.33041950  0.28470570  1.0
  Ni  Ni859  1  0.40496450  0.66375283  0.28470570  1.0
  Ni  Ni860  1  0.40496450  0.99708617  0.28470570  1.0
  Ni  Ni861  1  0.73829783  0.33041950  0.28470570  1.0
  Ni  Ni862  1  0.73829783  0.66375283  0.28470570  1.0
  Ni  Ni863  1  0.73829783  0.99708617  0.28470570  1.0
  Ni  Ni864  1  0.09503550  0.16958050  0.39488190  1.0
  Ni  Ni865  1  0.09503550  0.50291383  0.39488190  1.0
  Ni  Ni866  1  0.09503550  0.83624717  0.39488190  1.0
  Ni  Ni867  1  0.42836883  0.16958050  0.39488190  1.0
  Ni  Ni868  1  0.42836883  0.50291383  0.39488190  1.0
  Ni  Ni869  1  0.42836883  0.83624717  0.39488190  1.0
  Ni  Ni870  1  0.76170217  0.16958050  0.39488190  1.0
  Ni  Ni871  1  0.76170217  0.50291383  0.39488190  1.0
  Ni  Ni872  1  0.76170217  0.83624717  0.39488190  1.0
  Ni  Ni873  1  0.26170217  0.00291383  0.29488190  1.0
  Ni  Ni874  1  0.26170217  0.33624717  0.29488190  1.0
  Ni  Ni875  1  0.26170217  0.66958050  0.29488190  1.0
  Ni  Ni876  1  0.59503550  0.00291383  0.29488190  1.0
  Ni  Ni877  1  0.59503550  0.33624717  0.29488190  1.0
  Ni  Ni878  1  0.59503550  0.66958050  0.29488190  1.0
  Ni  Ni879  1  0.92836883  0.00291383  0.29488190  1.0
  Ni  Ni880  1  0.92836883  0.33624717  0.29488190  1.0
  Ni  Ni881  1  0.92836883  0.66958050  0.29488190  1.0
  Ni  Ni882  1  0.28233050  0.13190217  0.33278310  1.0
  Ni  Ni883  1  0.28233050  0.46523550  0.33278310  1.0
  Ni  Ni884  1  0.28233050  0.79856883  0.33278310  1.0
  Ni  Ni885  1  0.61566383  0.13190217  0.33278310  1.0
  Ni  Ni886  1  0.61566383  0.46523550  0.33278310  1.0
  Ni  Ni887  1  0.61566383  0.79856883  0.33278310  1.0
  Ni  Ni888  1  0.94899717  0.13190217  0.33278310  1.0
  Ni  Ni889  1  0.94899717  0.46523550  0.33278310  1.0
  Ni  Ni890  1  0.94899717  0.79856883  0.33278310  1.0
  Ni  Ni891  1  0.11566383  0.29856883  0.23278310  1.0
  Ni  Ni892  1  0.11566383  0.63190217  0.23278310  1.0
  Ni  Ni893  1  0.11566383  0.96523550  0.23278310  1.0
  Ni  Ni894  1  0.44899717  0.29856883  0.23278310  1.0
  Ni  Ni895  1  0.44899717  0.63190217  0.23278310  1.0
  Ni  Ni896  1  0.44899717  0.96523550  0.23278310  1.0
  Ni  Ni897  1  0.78233050  0.29856883  0.23278310  1.0
  Ni  Ni898  1  0.78233050  0.63190217  0.23278310  1.0
  Ni  Ni899  1  0.78233050  0.96523550  0.23278310  1.0
  Ni  Ni900  1  0.05100283  0.20143117  0.24680450  1.0
  Ni  Ni901  1  0.05100283  0.53476450  0.24680450  1.0
  Ni  Ni902  1  0.05100283  0.86809783  0.24680450  1.0
  Ni  Ni903  1  0.38433617  0.20143117  0.24680450  1.0
  Ni  Ni904  1  0.38433617  0.53476450  0.24680450  1.0
  Ni  Ni905  1  0.38433617  0.86809783  0.24680450  1.0
  Ni  Ni906  1  0.71766950  0.20143117  0.24680450  1.0
  Ni  Ni907  1  0.71766950  0.53476450  0.24680450  1.0
  Ni  Ni908  1  0.71766950  0.86809783  0.24680450  1.0
  Ni  Ni909  1  0.21766950  0.03476450  0.34680450  1.0
  Ni  Ni910  1  0.21766950  0.36809783  0.34680450  1.0
  Ni  Ni911  1  0.21766950  0.70143117  0.34680450  1.0
  Ni  Ni912  1  0.55100283  0.03476450  0.34680450  1.0
  Ni  Ni913  1  0.55100283  0.36809783  0.34680450  1.0
  Ni  Ni914  1  0.55100283  0.70143117  0.34680450  1.0
  Ni  Ni915  1  0.88433617  0.03476450  0.34680450  1.0
  Ni  Ni916  1  0.88433617  0.36809783  0.34680450  1.0
  Ni  Ni917  1  0.88433617  0.70143117  0.34680450  1.0
  Ni  Ni918  1  0.31854383  0.10092150  0.27007530  1.0
  Ni  Ni919  1  0.31854383  0.43425483  0.27007530  1.0
  Ni  Ni920  1  0.31854383  0.76758817  0.27007530  1.0
  Ni  Ni921  1  0.65187717  0.10092150  0.27007530  1.0
  Ni  Ni922  1  0.65187717  0.43425483  0.27007530  1.0
  Ni  Ni923  1  0.65187717  0.76758817  0.27007530  1.0
  Ni  Ni924  1  0.98521050  0.10092150  0.27007530  1.0
  Ni  Ni925  1  0.98521050  0.43425483  0.27007530  1.0
  Ni  Ni926  1  0.98521050  0.76758817  0.27007530  1.0
  Ni  Ni927  1  0.15187717  0.26758817  0.37007530  1.0
  Ni  Ni928  1  0.15187717  0.60092150  0.37007530  1.0
  Ni  Ni929  1  0.15187717  0.93425483  0.37007530  1.0
  Ni  Ni930  1  0.48521050  0.26758817  0.37007530  1.0
  Ni  Ni931  1  0.48521050  0.60092150  0.37007530  1.0
  Ni  Ni932  1  0.48521050  0.93425483  0.37007530  1.0
  Ni  Ni933  1  0.81854383  0.26758817  0.37007530  1.0
  Ni  Ni934  1  0.81854383  0.60092150  0.37007530  1.0
  Ni  Ni935  1  0.81854383  0.93425483  0.37007530  1.0
  Ni  Ni936  1  0.01478950  0.23241183  0.30951230  1.0
  Ni  Ni937  1  0.01478950  0.56574517  0.30951230  1.0
  Ni  Ni938  1  0.01478950  0.89907850  0.30951230  1.0
  Ni  Ni939  1  0.34812283  0.23241183  0.30951230  1.0
  Ni  Ni940  1  0.34812283  0.56574517  0.30951230  1.0
  Ni  Ni941  1  0.34812283  0.89907850  0.30951230  1.0
  Ni  Ni942  1  0.68145617  0.23241183  0.30951230  1.0
  Ni  Ni943  1  0.68145617  0.56574517  0.30951230  1.0
  Ni  Ni944  1  0.68145617  0.89907850  0.30951230  1.0
  Ni  Ni945  1  0.18145617  0.06574517  0.20951230  1.0
  Ni  Ni946  1  0.18145617  0.39907850  0.20951230  1.0
  Ni  Ni947  1  0.18145617  0.73241183  0.20951230  1.0
  Ni  Ni948  1  0.51478950  0.06574517  0.20951230  1.0
  Ni  Ni949  1  0.51478950  0.39907850  0.20951230  1.0
  Ni  Ni950  1  0.51478950  0.73241183  0.20951230  1.0
  Ni  Ni951  1  0.84812283  0.06574517  0.20951230  1.0
  Ni  Ni952  1  0.84812283  0.39907850  0.20951230  1.0
  Ni  Ni953  1  0.84812283  0.73241183  0.20951230  1.0
  Ni  Ni954  1  0.06032750  0.06988650  0.28909990  1.0
  Ni  Ni955  1  0.06032750  0.40321983  0.28909990  1.0
  Ni  Ni956  1  0.06032750  0.73655317  0.28909990  1.0
  Ni  Ni957  1  0.39366083  0.06988650  0.28909990  1.0
  Ni  Ni958  1  0.39366083  0.40321983  0.28909990  1.0
  Ni  Ni959  1  0.39366083  0.73655317  0.28909990  1.0
  Ni  Ni960  1  0.72699417  0.06988650  0.28909990  1.0
  Ni  Ni961  1  0.72699417  0.40321983  0.28909990  1.0
  Ni  Ni962  1  0.72699417  0.73655317  0.28909990  1.0
  Ni  Ni963  1  0.22699417  0.23655317  0.38909990  1.0
  Ni  Ni964  1  0.22699417  0.56988650  0.38909990  1.0
  Ni  Ni965  1  0.22699417  0.90321983  0.38909990  1.0
  Ni  Ni966  1  0.56032750  0.23655317  0.38909990  1.0
  Ni  Ni967  1  0.56032750  0.56988650  0.38909990  1.0
  Ni  Ni968  1  0.56032750  0.90321983  0.38909990  1.0
  Ni  Ni969  1  0.89366083  0.23655317  0.38909990  1.0
  Ni  Ni970  1  0.89366083  0.56988650  0.38909990  1.0
  Ni  Ni971  1  0.89366083  0.90321983  0.38909990  1.0
  Ni  Ni972  1  0.27300583  0.26344683  0.29048770  1.0
  Ni  Ni973  1  0.27300583  0.59678017  0.29048770  1.0
  Ni  Ni974  1  0.27300583  0.93011350  0.29048770  1.0
  Ni  Ni975  1  0.60633917  0.26344683  0.29048770  1.0
  Ni  Ni976  1  0.60633917  0.59678017  0.29048770  1.0
  Ni  Ni977  1  0.60633917  0.93011350  0.29048770  1.0
  Ni  Ni978  1  0.93967250  0.26344683  0.29048770  1.0
  Ni  Ni979  1  0.93967250  0.59678017  0.29048770  1.0
  Ni  Ni980  1  0.93967250  0.93011350  0.29048770  1.0
  Ni  Ni981  1  0.10633917  0.09678017  0.39048770  1.0
  Ni  Ni982  1  0.10633917  0.43011350  0.39048770  1.0
  Ni  Ni983  1  0.10633917  0.76344683  0.39048770  1.0
  Ni  Ni984  1  0.43967250  0.09678017  0.39048770  1.0
  Ni  Ni985  1  0.43967250  0.43011350  0.39048770  1.0
  Ni  Ni986  1  0.43967250  0.76344683  0.39048770  1.0
  Ni  Ni987  1  0.77300583  0.09678017  0.39048770  1.0
  Ni  Ni988  1  0.77300583  0.43011350  0.39048770  1.0
  Ni  Ni989  1  0.77300583  0.76344683  0.39048770  1.0
  Ni  Ni990  1  0.01033333  0.18935133  0.36670680  1.0
  Ni  Ni991  1  0.01033333  0.52268467  0.36670680  1.0
  Ni  Ni992  1  0.01033333  0.85601800  0.36670680  1.0
  Ni  Ni993  1  0.34366667  0.18935133  0.36670680  1.0
  Ni  Ni994  1  0.34366667  0.52268467  0.36670680  1.0
  Ni  Ni995  1  0.34366667  0.85601800  0.36670680  1.0
  Ni  Ni996  1  0.67700000  0.18935133  0.36670680  1.0
  Ni  Ni997  1  0.67700000  0.52268467  0.36670680  1.0
  Ni  Ni998  1  0.67700000  0.85601800  0.36670680  1.0
  Ni  Ni999  1  0.17700000  0.02268467  0.26670680  1.0
  Ni  Ni1000  1  0.17700000  0.35601800  0.26670680  1.0
  Ni  Ni1001  1  0.17700000  0.68935133  0.26670680  1.0
  Ni  Ni1002  1  0.51033333  0.02268467  0.26670680  1.0
  Ni  Ni1003  1  0.51033333  0.35601800  0.26670680  1.0
  Ni  Ni1004  1  0.51033333  0.68935133  0.26670680  1.0
  Ni  Ni1005  1  0.84366667  0.02268467  0.26670680  1.0
  Ni  Ni1006  1  0.84366667  0.35601800  0.26670680  1.0
  Ni  Ni1007  1  0.84366667  0.68935133  0.26670680  1.0
  Ni  Ni1008  1  0.32300000  0.14398200  0.21288080  1.0
  Ni  Ni1009  1  0.32300000  0.47731533  0.21288080  1.0
  Ni  Ni1010  1  0.32300000  0.81064867  0.21288080  1.0
  Ni  Ni1011  1  0.65633333  0.14398200  0.21288080  1.0
  Ni  Ni1012  1  0.65633333  0.47731533  0.21288080  1.0
  Ni  Ni1013  1  0.65633333  0.81064867  0.21288080  1.0
  Ni  Ni1014  1  0.98966667  0.14398200  0.21288080  1.0
  Ni  Ni1015  1  0.98966667  0.47731533  0.21288080  1.0
  Ni  Ni1016  1  0.98966667  0.81064867  0.21288080  1.0
  Ni  Ni1017  1  0.15633333  0.31064867  0.31288080  1.0
  Ni  Ni1018  1  0.15633333  0.64398200  0.31288080  1.0
  Ni  Ni1019  1  0.15633333  0.97731533  0.31288080  1.0
  Ni  Ni1020  1  0.48966667  0.31064867  0.31288080  1.0
  Ni  Ni1021  1  0.48966667  0.64398200  0.31288080  1.0
  Ni  Ni1022  1  0.48966667  0.97731533  0.31288080  1.0
  Ni  Ni1023  1  0.82300000  0.31064867  0.31288080  1.0
  Ni  Ni1024  1  0.82300000  0.64398200  0.31288080  1.0
  Ni  Ni1025  1  0.82300000  0.97731533  0.31288080  1.0
  Ni  Ni1026  1  0.31137050  0.25899150  0.37245990  1.0
  Ni  Ni1027  1  0.31137050  0.59232483  0.37245990  1.0
  Ni  Ni1028  1  0.31137050  0.92565817  0.37245990  1.0
  Ni  Ni1029  1  0.64470383  0.25899150  0.37245990  1.0
  Ni  Ni1030  1  0.64470383  0.59232483  0.37245990  1.0
  Ni  Ni1031  1  0.64470383  0.92565817  0.37245990  1.0
  Ni  Ni1032  1  0.97803717  0.25899150  0.37245990  1.0
  Ni  Ni1033  1  0.97803717  0.59232483  0.37245990  1.0
  Ni  Ni1034  1  0.97803717  0.92565817  0.37245990  1.0
  Ni  Ni1035  1  0.14470383  0.09232483  0.27245990  1.0
  Ni  Ni1036  1  0.14470383  0.42565817  0.27245990  1.0
  Ni  Ni1037  1  0.14470383  0.75899150  0.27245990  1.0
  Ni  Ni1038  1  0.47803717  0.09232483  0.27245990  1.0
  Ni  Ni1039  1  0.47803717  0.42565817  0.27245990  1.0
  Ni  Ni1040  1  0.47803717  0.75899150  0.27245990  1.0
  Ni  Ni1041  1  0.81137050  0.09232483  0.27245990  1.0
  Ni  Ni1042  1  0.81137050  0.42565817  0.27245990  1.0
  Ni  Ni1043  1  0.81137050  0.75899150  0.27245990  1.0
