# generated using pymatgen
data_Hf8Ni21
_symmetry_space_group_name_H-M   'P 1'
_cell_length_a   37.66941705
_cell_length_b   39.28180324
_cell_length_c   34.03109309
_cell_angle_alpha   92.99770608
_cell_angle_beta   92.31822116
_cell_angle_gamma   75.13626091
_symmetry_Int_Tables_number   1
_chemical_formula_structural   Hf8Ni21
_chemical_formula_sum   'Hf432 Ni1134'
_cell_volume   48585.90820761
_cell_formula_units_Z   54
loop_
 _symmetry_equiv_pos_site_id
 _symmetry_equiv_pos_as_xyz
  1  'x, y, z'
loop_
 _atom_site_type_symbol
 _atom_site_label
 _atom_site_symmetry_multiplicity
 _atom_site_fract_x
 _atom_site_fract_y
 _atom_site_fract_z
 _atom_site_occupancy
  Hf  Hf0  1  0.18832681  0.12292632  0.13318246  1.0
  Hf  Hf1  1  0.18832681  0.45625965  0.13318246  1.0
  Hf  Hf2  1  0.18832681  0.78959299  0.13318246  1.0
  Hf  Hf3  1  0.52166014  0.12292632  0.13318246  1.0
  Hf  Hf4  1  0.52166014  0.45625965  0.13318246  1.0
  Hf  Hf5  1  0.52166014  0.78959299  0.13318246  1.0
  Hf  Hf6  1  0.85499348  0.12292632  0.13318246  1.0
  Hf  Hf7  1  0.85499348  0.45625965  0.13318246  1.0
  Hf  Hf8  1  0.85499348  0.78959299  0.13318246  1.0
  Hf  Hf9  1  0.30737443  0.26578346  0.06175389  1.0
  Hf  Hf10  1  0.30737443  0.59911680  0.06175389  1.0
  Hf  Hf11  1  0.30737443  0.93245013  0.06175389  1.0
  Hf  Hf12  1  0.64070776  0.26578346  0.06175389  1.0
  Hf  Hf13  1  0.64070776  0.59911680  0.06175389  1.0
  Hf  Hf14  1  0.64070776  0.93245013  0.06175389  1.0
  Hf  Hf15  1  0.97404110  0.26578346  0.06175389  1.0
  Hf  Hf16  1  0.97404110  0.59911680  0.06175389  1.0
  Hf  Hf17  1  0.97404110  0.93245013  0.06175389  1.0
  Hf  Hf18  1  0.23718305  0.25649527  0.00508232  1.0
  Hf  Hf19  1  0.23718305  0.58982861  0.00508232  1.0
  Hf  Hf20  1  0.23718305  0.92316194  0.00508232  1.0
  Hf  Hf21  1  0.57051638  0.25649527  0.00508232  1.0
  Hf  Hf22  1  0.57051638  0.58982861  0.00508232  1.0
  Hf  Hf23  1  0.57051638  0.92316194  0.00508232  1.0
  Hf  Hf24  1  0.90384971  0.25649527  0.00508232  1.0
  Hf  Hf25  1  0.90384971  0.58982861  0.00508232  1.0
  Hf  Hf26  1  0.90384971  0.92316194  0.00508232  1.0
  Hf  Hf27  1  0.11813543  0.11363813  0.07651089  1.0
  Hf  Hf28  1  0.11813543  0.44697146  0.07651089  1.0
  Hf  Hf29  1  0.11813543  0.78030480  0.07651089  1.0
  Hf  Hf30  1  0.45146876  0.11363813  0.07651089  1.0
  Hf  Hf31  1  0.45146876  0.44697146  0.07651089  1.0
  Hf  Hf32  1  0.45146876  0.78030480  0.07651089  1.0
  Hf  Hf33  1  0.78480210  0.11363813  0.07651089  1.0
  Hf  Hf34  1  0.78480210  0.44697146  0.07651089  1.0
  Hf  Hf35  1  0.78480210  0.78030480  0.07651089  1.0
  Hf  Hf36  1  0.13373950  0.28727008  0.00277925  1.0
  Hf  Hf37  1  0.13373950  0.62060342  0.00277925  1.0
  Hf  Hf38  1  0.13373950  0.95393675  0.00277925  1.0
  Hf  Hf39  1  0.46707283  0.28727008  0.00277925  1.0
  Hf  Hf40  1  0.46707283  0.62060342  0.00277925  1.0
  Hf  Hf41  1  0.46707283  0.95393675  0.00277925  1.0
  Hf  Hf42  1  0.80040617  0.28727008  0.00277925  1.0
  Hf  Hf43  1  0.80040617  0.62060342  0.00277925  1.0
  Hf  Hf44  1  0.80040617  0.95393675  0.00277925  1.0
  Hf  Hf45  1  0.01469188  0.14441294  0.07420782  1.0
  Hf  Hf46  1  0.01469188  0.47774627  0.07420782  1.0
  Hf  Hf47  1  0.01469188  0.81107961  0.07420782  1.0
  Hf  Hf48  1  0.34802521  0.14441294  0.07420782  1.0
  Hf  Hf49  1  0.34802521  0.47774627  0.07420782  1.0
  Hf  Hf50  1  0.34802521  0.81107961  0.07420782  1.0
  Hf  Hf51  1  0.68135855  0.14441294  0.07420782  1.0
  Hf  Hf52  1  0.68135855  0.47774627  0.07420782  1.0
  Hf  Hf53  1  0.68135855  0.81107961  0.07420782  1.0
  Hf  Hf54  1  0.29177036  0.09215151  0.13548554  1.0
  Hf  Hf55  1  0.29177036  0.42548485  0.13548554  1.0
  Hf  Hf56  1  0.29177036  0.75881818  0.13548554  1.0
  Hf  Hf57  1  0.62510369  0.09215151  0.13548554  1.0
  Hf  Hf58  1  0.62510369  0.42548485  0.13548554  1.0
  Hf  Hf59  1  0.62510369  0.75881818  0.13548554  1.0
  Hf  Hf60  1  0.95843702  0.09215151  0.13548554  1.0
  Hf  Hf61  1  0.95843702  0.42548485  0.13548554  1.0
  Hf  Hf62  1  0.95843702  0.75881818  0.13548554  1.0
  Hf  Hf63  1  0.07748464  0.23500865  0.06405696  1.0
  Hf  Hf64  1  0.07748464  0.56834199  0.06405696  1.0
  Hf  Hf65  1  0.07748464  0.90167532  0.06405696  1.0
  Hf  Hf66  1  0.41081798  0.23500865  0.06405696  1.0
  Hf  Hf67  1  0.41081798  0.56834199  0.06405696  1.0
  Hf  Hf68  1  0.41081798  0.90167532  0.06405696  1.0
  Hf  Hf69  1  0.74415131  0.23500865  0.06405696  1.0
  Hf  Hf70  1  0.74415131  0.56834199  0.06405696  1.0
  Hf  Hf71  1  0.74415131  0.90167532  0.06405696  1.0
  Hf  Hf72  1  0.26834793  0.05287613  0.04973239  1.0
  Hf  Hf73  1  0.26834793  0.38620946  0.04973239  1.0
  Hf  Hf74  1  0.26834793  0.71954280  0.04973239  1.0
  Hf  Hf75  1  0.60168126  0.05287613  0.04973239  1.0
  Hf  Hf76  1  0.60168126  0.38620946  0.04973239  1.0
  Hf  Hf77  1  0.60168126  0.71954280  0.04973239  1.0
  Hf  Hf78  1  0.93501460  0.05287613  0.04973239  1.0
  Hf  Hf79  1  0.93501460  0.38620946  0.04973239  1.0
  Hf  Hf80  1  0.93501460  0.71954280  0.04973239  1.0
  Hf  Hf81  1  0.14930031  0.24335232  0.12116096  1.0
  Hf  Hf82  1  0.14930031  0.57668565  0.12116096  1.0
  Hf  Hf83  1  0.14930031  0.91001899  0.12116096  1.0
  Hf  Hf84  1  0.48263364  0.24335232  0.12116096  1.0
  Hf  Hf85  1  0.48263364  0.57668565  0.12116096  1.0
  Hf  Hf86  1  0.48263364  0.91001899  0.12116096  1.0
  Hf  Hf87  1  0.81596698  0.24335232  0.12116096  1.0
  Hf  Hf88  1  0.81596698  0.57668565  0.12116096  1.0
  Hf  Hf89  1  0.81596698  0.91001899  0.12116096  1.0
  Hf  Hf90  1  0.15716193  0.32654546  0.08853239  1.0
  Hf  Hf91  1  0.15716193  0.65987880  0.08853239  1.0
  Hf  Hf92  1  0.15716193  0.99321213  0.08853239  1.0
  Hf  Hf93  1  0.49049526  0.32654546  0.08853239  1.0
  Hf  Hf94  1  0.49049526  0.65987880  0.08853239  1.0
  Hf  Hf95  1  0.49049526  0.99321213  0.08853239  1.0
  Hf  Hf96  1  0.82382860  0.32654546  0.08853239  1.0
  Hf  Hf97  1  0.82382860  0.65987880  0.08853239  1.0
  Hf  Hf98  1  0.82382860  0.99321213  0.08853239  1.0
  Hf  Hf99  1  0.27620955  0.13606927  0.01710382  1.0
  Hf  Hf100  1  0.27620955  0.46940261  0.01710382  1.0
  Hf  Hf101  1  0.27620955  0.80273594  0.01710382  1.0
  Hf  Hf102  1  0.60954288  0.13606927  0.01710382  1.0
  Hf  Hf103  1  0.60954288  0.46940261  0.01710382  1.0
  Hf  Hf104  1  0.60954288  0.80273594  0.01710382  1.0
  Hf  Hf105  1  0.94287621  0.13606927  0.01710382  1.0
  Hf  Hf106  1  0.94287621  0.46940261  0.01710382  1.0
  Hf  Hf107  1  0.94287621  0.80273594  0.01710382  1.0
  Hf  Hf108  1  0.24171831  0.22868999  0.10131596  1.0
  Hf  Hf109  1  0.24171831  0.56202332  0.10131596  1.0
  Hf  Hf110  1  0.24171831  0.89535665  0.10131596  1.0
  Hf  Hf111  1  0.57505164  0.22868999  0.10131596  1.0
  Hf  Hf112  1  0.57505164  0.56202332  0.10131596  1.0
  Hf  Hf113  1  0.57505164  0.89535665  0.10131596  1.0
  Hf  Hf114  1  0.90838498  0.22868999  0.10131596  1.0
  Hf  Hf115  1  0.90838498  0.56202332  0.10131596  1.0
  Hf  Hf116  1  0.90838498  0.89535665  0.10131596  1.0
  Hf  Hf117  1  0.02743260  0.03821380  0.02988739  1.0
  Hf  Hf118  1  0.02743260  0.37154713  0.02988739  1.0
  Hf  Hf119  1  0.02743260  0.70488046  0.02988739  1.0
  Hf  Hf120  1  0.36076593  0.03821380  0.02988739  1.0
  Hf  Hf121  1  0.36076593  0.37154713  0.02988739  1.0
  Hf  Hf122  1  0.36076593  0.70488046  0.02988739  1.0
  Hf  Hf123  1  0.69409926  0.03821380  0.02988739  1.0
  Hf  Hf124  1  0.69409926  0.37154713  0.02988739  1.0
  Hf  Hf125  1  0.69409926  0.70488046  0.02988739  1.0
  Hf  Hf126  1  0.18379155  0.15073161  0.03694882  1.0
  Hf  Hf127  1  0.18379155  0.48406494  0.03694882  1.0
  Hf  Hf128  1  0.18379155  0.81739827  0.03694882  1.0
  Hf  Hf129  1  0.51712488  0.15073161  0.03694882  1.0
  Hf  Hf130  1  0.51712488  0.48406494  0.03694882  1.0
  Hf  Hf131  1  0.51712488  0.81739827  0.03694882  1.0
  Hf  Hf132  1  0.85045821  0.15073161  0.03694882  1.0
  Hf  Hf133  1  0.85045821  0.48406494  0.03694882  1.0
  Hf  Hf134  1  0.85045821  0.81739827  0.03694882  1.0
  Hf  Hf135  1  0.06474393  0.00787446  0.10837739  1.0
  Hf  Hf136  1  0.06474393  0.34120780  0.10837739  1.0
  Hf  Hf137  1  0.06474393  0.67454113  0.10837739  1.0
  Hf  Hf138  1  0.39807726  0.00787446  0.10837739  1.0
  Hf  Hf139  1  0.39807726  0.34120780  0.10837739  1.0
  Hf  Hf140  1  0.39807726  0.67454113  0.10837739  1.0
  Hf  Hf141  1  0.73141060  0.00787446  0.10837739  1.0
  Hf  Hf142  1  0.73141060  0.34120780  0.10837739  1.0
  Hf  Hf143  1  0.73141060  0.67454113  0.10837739  1.0
  Hf  Hf144  1  0.28356490  0.17054537  0.27603961  1.0
  Hf  Hf145  1  0.28356490  0.50387870  0.27603961  1.0
  Hf  Hf146  1  0.28356490  0.83721204  0.27603961  1.0
  Hf  Hf147  1  0.61689824  0.17054537  0.27603961  1.0
  Hf  Hf148  1  0.61689824  0.50387870  0.27603961  1.0
  Hf  Hf149  1  0.61689824  0.83721204  0.27603961  1.0
  Hf  Hf150  1  0.95023157  0.17054537  0.27603961  1.0
  Hf  Hf151  1  0.95023157  0.50387870  0.27603961  1.0
  Hf  Hf152  1  0.95023157  0.83721204  0.27603961  1.0
  Hf  Hf153  1  0.06927919  0.31340251  0.20461104  1.0
  Hf  Hf154  1  0.06927919  0.64673585  0.20461104  1.0
  Hf  Hf155  1  0.06927919  0.98006918  0.20461104  1.0
  Hf  Hf156  1  0.40261252  0.31340251  0.20461104  1.0
  Hf  Hf157  1  0.40261252  0.64673585  0.20461104  1.0
  Hf  Hf158  1  0.40261252  0.98006918  0.20461104  1.0
  Hf  Hf159  1  0.73594586  0.31340251  0.20461104  1.0
  Hf  Hf160  1  0.73594586  0.64673585  0.20461104  1.0
  Hf  Hf161  1  0.73594586  0.98006918  0.20461104  1.0
  Hf  Hf162  1  0.33242114  0.30411432  0.14793946  1.0
  Hf  Hf163  1  0.33242114  0.63744765  0.14793946  1.0
  Hf  Hf164  1  0.33242114  0.97078099  0.14793946  1.0
  Hf  Hf165  1  0.66575448  0.30411432  0.14793946  1.0
  Hf  Hf166  1  0.66575448  0.63744765  0.14793946  1.0
  Hf  Hf167  1  0.66575448  0.97078099  0.14793946  1.0
  Hf  Hf168  1  0.99908781  0.30411432  0.14793946  1.0
  Hf  Hf169  1  0.99908781  0.63744765  0.14793946  1.0
  Hf  Hf170  1  0.99908781  0.97078099  0.14793946  1.0
  Hf  Hf171  1  0.21337352  0.16125718  0.21936804  1.0
  Hf  Hf172  1  0.21337352  0.49459051  0.21936804  1.0
  Hf  Hf173  1  0.21337352  0.82792385  0.21936804  1.0
  Hf  Hf174  1  0.54670686  0.16125718  0.21936804  1.0
  Hf  Hf175  1  0.54670686  0.49459051  0.21936804  1.0
  Hf  Hf176  1  0.54670686  0.82792385  0.21936804  1.0
  Hf  Hf177  1  0.88004019  0.16125718  0.21936804  1.0
  Hf  Hf178  1  0.88004019  0.49459051  0.21936804  1.0
  Hf  Hf179  1  0.88004019  0.82792385  0.21936804  1.0
  Hf  Hf180  1  0.22897760  0.00155580  0.14563639  1.0
  Hf  Hf181  1  0.22897760  0.33488913  0.14563639  1.0
  Hf  Hf182  1  0.22897760  0.66822246  0.14563639  1.0
  Hf  Hf183  1  0.56231093  0.00155580  0.14563639  1.0
  Hf  Hf184  1  0.56231093  0.33488913  0.14563639  1.0
  Hf  Hf185  1  0.56231093  0.66822246  0.14563639  1.0
  Hf  Hf186  1  0.89564426  0.00155580  0.14563639  1.0
  Hf  Hf187  1  0.89564426  0.33488913  0.14563639  1.0
  Hf  Hf188  1  0.89564426  0.66822246  0.14563639  1.0
  Hf  Hf189  1  0.10992998  0.19203199  0.21706496  1.0
  Hf  Hf190  1  0.10992998  0.52536532  0.21706496  1.0
  Hf  Hf191  1  0.10992998  0.85869865  0.21706496  1.0
  Hf  Hf192  1  0.44326331  0.19203199  0.21706496  1.0
  Hf  Hf193  1  0.44326331  0.52536532  0.21706496  1.0
  Hf  Hf194  1  0.44326331  0.85869865  0.21706496  1.0
  Hf  Hf195  1  0.77659664  0.19203199  0.21706496  1.0
  Hf  Hf196  1  0.77659664  0.52536532  0.21706496  1.0
  Hf  Hf197  1  0.77659664  0.85869865  0.21706496  1.0
  Hf  Hf198  1  0.05367512  0.13977056  0.27834268  1.0
  Hf  Hf199  1  0.05367512  0.47310389  0.27834268  1.0
  Hf  Hf200  1  0.05367512  0.80643723  0.27834268  1.0
  Hf  Hf201  1  0.38700845  0.13977056  0.27834268  1.0
  Hf  Hf202  1  0.38700845  0.47310389  0.27834268  1.0
  Hf  Hf203  1  0.38700845  0.80643723  0.27834268  1.0
  Hf  Hf204  1  0.72034179  0.13977056  0.27834268  1.0
  Hf  Hf205  1  0.72034179  0.47310389  0.27834268  1.0
  Hf  Hf206  1  0.72034179  0.80643723  0.27834268  1.0
  Hf  Hf207  1  0.17272274  0.28262770  0.20691411  1.0
  Hf  Hf208  1  0.17272274  0.61596104  0.20691411  1.0
  Hf  Hf209  1  0.17272274  0.94929437  0.20691411  1.0
  Hf  Hf210  1  0.50605607  0.28262770  0.20691411  1.0
  Hf  Hf211  1  0.50605607  0.61596104  0.20691411  1.0
  Hf  Hf212  1  0.50605607  0.94929437  0.20691411  1.0
  Hf  Hf213  1  0.83938940  0.28262770  0.20691411  1.0
  Hf  Hf214  1  0.83938940  0.61596104  0.20691411  1.0
  Hf  Hf215  1  0.83938940  0.94929437  0.20691411  1.0
  Hf  Hf216  1  0.03025269  0.10049518  0.19258954  1.0
  Hf  Hf217  1  0.03025269  0.43382851  0.19258954  1.0
  Hf  Hf218  1  0.03025269  0.76716185  0.19258954  1.0
  Hf  Hf219  1  0.36358602  0.10049518  0.19258954  1.0
  Hf  Hf220  1  0.36358602  0.43382851  0.19258954  1.0
  Hf  Hf221  1  0.36358602  0.76716185  0.19258954  1.0
  Hf  Hf222  1  0.69691936  0.10049518  0.19258954  1.0
  Hf  Hf223  1  0.69691936  0.43382851  0.19258954  1.0
  Hf  Hf224  1  0.69691936  0.76716185  0.19258954  1.0
  Hf  Hf225  1  0.24453840  0.29097137  0.26401811  1.0
  Hf  Hf226  1  0.24453840  0.62430470  0.26401811  1.0
  Hf  Hf227  1  0.24453840  0.95763804  0.26401811  1.0
  Hf  Hf228  1  0.57787174  0.29097137  0.26401811  1.0
  Hf  Hf229  1  0.57787174  0.62430470  0.26401811  1.0
  Hf  Hf230  1  0.57787174  0.95763804  0.26401811  1.0
  Hf  Hf231  1  0.91120507  0.29097137  0.26401811  1.0
  Hf  Hf232  1  0.91120507  0.62430470  0.26401811  1.0
  Hf  Hf233  1  0.91120507  0.95763804  0.26401811  1.0
  Hf  Hf234  1  0.25240002  0.04083118  0.23138954  1.0
  Hf  Hf235  1  0.25240002  0.37416451  0.23138954  1.0
  Hf  Hf236  1  0.25240002  0.70749785  0.23138954  1.0
  Hf  Hf237  1  0.58573336  0.04083118  0.23138954  1.0
  Hf  Hf238  1  0.58573336  0.37416451  0.23138954  1.0
  Hf  Hf239  1  0.58573336  0.70749785  0.23138954  1.0
  Hf  Hf240  1  0.91906669  0.04083118  0.23138954  1.0
  Hf  Hf241  1  0.91906669  0.37416451  0.23138954  1.0
  Hf  Hf242  1  0.91906669  0.70749785  0.23138954  1.0
  Hf  Hf243  1  0.03811431  0.18368832  0.15996096  1.0
  Hf  Hf244  1  0.03811431  0.51702165  0.15996096  1.0
  Hf  Hf245  1  0.03811431  0.85035499  0.15996096  1.0
  Hf  Hf246  1  0.37144764  0.18368832  0.15996096  1.0
  Hf  Hf247  1  0.37144764  0.51702165  0.15996096  1.0
  Hf  Hf248  1  0.37144764  0.85035499  0.15996096  1.0
  Hf  Hf249  1  0.70478098  0.18368832  0.15996096  1.0
  Hf  Hf250  1  0.70478098  0.51702165  0.15996096  1.0
  Hf  Hf251  1  0.70478098  0.85035499  0.15996096  1.0
  Hf  Hf252  1  0.00362307  0.27630904  0.24417311  1.0
  Hf  Hf253  1  0.00362307  0.60964237  0.24417311  1.0
  Hf  Hf254  1  0.00362307  0.94297570  0.24417311  1.0
  Hf  Hf255  1  0.33695640  0.27630904  0.24417311  1.0
  Hf  Hf256  1  0.33695640  0.60964237  0.24417311  1.0
  Hf  Hf257  1  0.33695640  0.94297570  0.24417311  1.0
  Hf  Hf258  1  0.67028974  0.27630904  0.24417311  1.0
  Hf  Hf259  1  0.67028974  0.60964237  0.24417311  1.0
  Hf  Hf260  1  0.67028974  0.94297570  0.24417311  1.0
  Hf  Hf261  1  0.12267069  0.08583285  0.17274454  1.0
  Hf  Hf262  1  0.12267069  0.41916618  0.17274454  1.0
  Hf  Hf263  1  0.12267069  0.75249951  0.17274454  1.0
  Hf  Hf264  1  0.45600402  0.08583285  0.17274454  1.0
  Hf  Hf265  1  0.45600402  0.41916618  0.17274454  1.0
  Hf  Hf266  1  0.45600402  0.75249951  0.17274454  1.0
  Hf  Hf267  1  0.78933736  0.08583285  0.17274454  1.0
  Hf  Hf268  1  0.78933736  0.41916618  0.17274454  1.0
  Hf  Hf269  1  0.78933736  0.75249951  0.17274454  1.0
  Hf  Hf270  1  0.27902964  0.19835065  0.17980596  1.0
  Hf  Hf271  1  0.27902964  0.53168399  0.17980596  1.0
  Hf  Hf272  1  0.27902964  0.86501732  0.17980596  1.0
  Hf  Hf273  1  0.61236298  0.19835065  0.17980596  1.0
  Hf  Hf274  1  0.61236298  0.53168399  0.17980596  1.0
  Hf  Hf275  1  0.61236298  0.86501732  0.17980596  1.0
  Hf  Hf276  1  0.94569631  0.19835065  0.17980596  1.0
  Hf  Hf277  1  0.94569631  0.53168399  0.17980596  1.0
  Hf  Hf278  1  0.94569631  0.86501732  0.17980596  1.0
  Hf  Hf279  1  0.15998202  0.05549351  0.25123454  1.0
  Hf  Hf280  1  0.15998202  0.38882685  0.25123454  1.0
  Hf  Hf281  1  0.15998202  0.72216018  0.25123454  1.0
  Hf  Hf282  1  0.49331536  0.05549351  0.25123454  1.0
  Hf  Hf283  1  0.49331536  0.38882685  0.25123454  1.0
  Hf  Hf284  1  0.49331536  0.72216018  0.25123454  1.0
  Hf  Hf285  1  0.82664869  0.05549351  0.25123454  1.0
  Hf  Hf286  1  0.82664869  0.38882685  0.25123454  1.0
  Hf  Hf287  1  0.82664869  0.72216018  0.25123454  1.0
  Hf  Hf288  1  0.04546967  0.21816442  0.41889675  1.0
  Hf  Hf289  1  0.04546967  0.55149775  0.41889675  1.0
  Hf  Hf290  1  0.04546967  0.88483108  0.41889675  1.0
  Hf  Hf291  1  0.37880300  0.21816442  0.41889675  1.0
  Hf  Hf292  1  0.37880300  0.55149775  0.41889675  1.0
  Hf  Hf293  1  0.37880300  0.88483108  0.41889675  1.0
  Hf  Hf294  1  0.71213633  0.21816442  0.41889675  1.0
  Hf  Hf295  1  0.71213633  0.55149775  0.41889675  1.0
  Hf  Hf296  1  0.71213633  0.88483108  0.41889675  1.0
  Hf  Hf297  1  0.16451729  0.02768823  0.34746818  1.0
  Hf  Hf298  1  0.16451729  0.36102156  0.34746818  1.0
  Hf  Hf299  1  0.16451729  0.69435489  0.34746818  1.0
  Hf  Hf300  1  0.49785062  0.02768823  0.34746818  1.0
  Hf  Hf301  1  0.49785062  0.36102156  0.34746818  1.0
  Hf  Hf302  1  0.49785062  0.69435489  0.34746818  1.0
  Hf  Hf303  1  0.83118395  0.02768823  0.34746818  1.0
  Hf  Hf304  1  0.83118395  0.36102156  0.34746818  1.0
  Hf  Hf305  1  0.83118395  0.69435489  0.34746818  1.0
  Hf  Hf306  1  0.09432590  0.01840004  0.29079661  1.0
  Hf  Hf307  1  0.09432590  0.35173337  0.29079661  1.0
  Hf  Hf308  1  0.09432590  0.68506670  0.29079661  1.0
  Hf  Hf309  1  0.42765924  0.01840004  0.29079661  1.0
  Hf  Hf310  1  0.42765924  0.35173337  0.29079661  1.0
  Hf  Hf311  1  0.42765924  0.68506670  0.29079661  1.0
  Hf  Hf312  1  0.76099257  0.01840004  0.29079661  1.0
  Hf  Hf313  1  0.76099257  0.35173337  0.29079661  1.0
  Hf  Hf314  1  0.76099257  0.68506670  0.29079661  1.0
  Hf  Hf315  1  0.30861162  0.20887623  0.36222518  1.0
  Hf  Hf316  1  0.30861162  0.54220956  0.36222518  1.0
  Hf  Hf317  1  0.30861162  0.87554289  0.36222518  1.0
  Hf  Hf318  1  0.64194495  0.20887623  0.36222518  1.0
  Hf  Hf319  1  0.64194495  0.54220956  0.36222518  1.0
  Hf  Hf320  1  0.64194495  0.87554289  0.36222518  1.0
  Hf  Hf321  1  0.97527829  0.20887623  0.36222518  1.0
  Hf  Hf322  1  0.97527829  0.54220956  0.36222518  1.0
  Hf  Hf323  1  0.97527829  0.87554289  0.36222518  1.0
  Hf  Hf324  1  0.32421569  0.04917485  0.28849354  1.0
  Hf  Hf325  1  0.32421569  0.38250818  0.28849354  1.0
  Hf  Hf326  1  0.32421569  0.71584151  0.28849354  1.0
  Hf  Hf327  1  0.65754902  0.04917485  0.28849354  1.0
  Hf  Hf328  1  0.65754902  0.38250818  0.28849354  1.0
  Hf  Hf329  1  0.65754902  0.71584151  0.28849354  1.0
  Hf  Hf330  1  0.99088236  0.04917485  0.28849354  1.0
  Hf  Hf331  1  0.99088236  0.38250818  0.28849354  1.0
  Hf  Hf332  1  0.99088236  0.71584151  0.28849354  1.0
  Hf  Hf333  1  0.20516807  0.23965104  0.35992211  1.0
  Hf  Hf334  1  0.20516807  0.57298437  0.35992211  1.0
  Hf  Hf335  1  0.20516807  0.90631770  0.35992211  1.0
  Hf  Hf336  1  0.53850140  0.23965104  0.35992211  1.0
  Hf  Hf337  1  0.53850140  0.57298437  0.35992211  1.0
  Hf  Hf338  1  0.53850140  0.90631770  0.35992211  1.0
  Hf  Hf339  1  0.87183474  0.23965104  0.35992211  1.0
  Hf  Hf340  1  0.87183474  0.57298437  0.35992211  1.0
  Hf  Hf341  1  0.87183474  0.90631770  0.35992211  1.0
  Hf  Hf342  1  0.14891321  0.18738961  0.42119982  1.0
  Hf  Hf343  1  0.14891321  0.52072294  0.42119982  1.0
  Hf  Hf344  1  0.14891321  0.85405627  0.42119982  1.0
  Hf  Hf345  1  0.48224655  0.18738961  0.42119982  1.0
  Hf  Hf346  1  0.48224655  0.52072294  0.42119982  1.0
  Hf  Hf347  1  0.48224655  0.85405627  0.42119982  1.0
  Hf  Hf348  1  0.81557988  0.18738961  0.42119982  1.0
  Hf  Hf349  1  0.81557988  0.52072294  0.42119982  1.0
  Hf  Hf350  1  0.81557988  0.85405627  0.42119982  1.0
  Hf  Hf351  1  0.26796083  0.33024675  0.34977125  1.0
  Hf  Hf352  1  0.26796083  0.66358008  0.34977125  1.0
  Hf  Hf353  1  0.26796083  0.99691342  0.34977125  1.0
  Hf  Hf354  1  0.60129417  0.33024675  0.34977125  1.0
  Hf  Hf355  1  0.60129417  0.66358008  0.34977125  1.0
  Hf  Hf356  1  0.60129417  0.99691342  0.34977125  1.0
  Hf  Hf357  1  0.93462750  0.33024675  0.34977125  1.0
  Hf  Hf358  1  0.93462750  0.66358008  0.34977125  1.0
  Hf  Hf359  1  0.93462750  0.99691342  0.34977125  1.0
  Hf  Hf360  1  0.12549079  0.14811423  0.33544668  1.0
  Hf  Hf361  1  0.12549079  0.48144756  0.33544668  1.0
  Hf  Hf362  1  0.12549079  0.81478089  0.33544668  1.0
  Hf  Hf363  1  0.45882412  0.14811423  0.33544668  1.0
  Hf  Hf364  1  0.45882412  0.48144756  0.33544668  1.0
  Hf  Hf365  1  0.45882412  0.81478089  0.33544668  1.0
  Hf  Hf366  1  0.79215745  0.14811423  0.33544668  1.0
  Hf  Hf367  1  0.79215745  0.48144756  0.33544668  1.0
  Hf  Hf368  1  0.79215745  0.81478089  0.33544668  1.0
  Hf  Hf369  1  0.00644317  0.00525708  0.40687525  1.0
  Hf  Hf370  1  0.00644317  0.33859042  0.40687525  1.0
  Hf  Hf371  1  0.00644317  0.67192375  0.40687525  1.0
  Hf  Hf372  1  0.33977650  0.00525708  0.40687525  1.0
  Hf  Hf373  1  0.33977650  0.33859042  0.40687525  1.0
  Hf  Hf374  1  0.33977650  0.67192375  0.40687525  1.0
  Hf  Hf375  1  0.67310983  0.00525708  0.40687525  1.0
  Hf  Hf376  1  0.67310983  0.33859042  0.40687525  1.0
  Hf  Hf377  1  0.67310983  0.67192375  0.40687525  1.0
  Hf  Hf378  1  0.01430479  0.08845023  0.37424668  1.0
  Hf  Hf379  1  0.01430479  0.42178356  0.37424668  1.0
  Hf  Hf380  1  0.01430479  0.75511689  0.37424668  1.0
  Hf  Hf381  1  0.34763812  0.08845023  0.37424668  1.0
  Hf  Hf382  1  0.34763812  0.42178356  0.37424668  1.0
  Hf  Hf383  1  0.34763812  0.75511689  0.37424668  1.0
  Hf  Hf384  1  0.68097145  0.08845023  0.37424668  1.0
  Hf  Hf385  1  0.68097145  0.42178356  0.37424668  1.0
  Hf  Hf386  1  0.68097145  0.75511689  0.37424668  1.0
  Hf  Hf387  1  0.13335240  0.23130737  0.30281811  1.0
  Hf  Hf388  1  0.13335240  0.56464070  0.30281811  1.0
  Hf  Hf389  1  0.13335240  0.89797404  0.30281811  1.0
  Hf  Hf390  1  0.46668574  0.23130737  0.30281811  1.0
  Hf  Hf391  1  0.46668574  0.56464070  0.30281811  1.0
  Hf  Hf392  1  0.46668574  0.89797404  0.30281811  1.0
  Hf  Hf393  1  0.80001907  0.23130737  0.30281811  1.0
  Hf  Hf394  1  0.80001907  0.56464070  0.30281811  1.0
  Hf  Hf395  1  0.80001907  0.89797404  0.30281811  1.0
  Hf  Hf396  1  0.09886117  0.32392808  0.38703025  1.0
  Hf  Hf397  1  0.09886117  0.65726142  0.38703025  1.0
  Hf  Hf398  1  0.09886117  0.99059475  0.38703025  1.0
  Hf  Hf399  1  0.43219450  0.32392808  0.38703025  1.0
  Hf  Hf400  1  0.43219450  0.65726142  0.38703025  1.0
  Hf  Hf401  1  0.43219450  0.99059475  0.38703025  1.0
  Hf  Hf402  1  0.76552783  0.32392808  0.38703025  1.0
  Hf  Hf403  1  0.76552783  0.65726142  0.38703025  1.0
  Hf  Hf404  1  0.76552783  0.99059475  0.38703025  1.0
  Hf  Hf405  1  0.21790879  0.13345189  0.31560168  1.0
  Hf  Hf406  1  0.21790879  0.46678523  0.31560168  1.0
  Hf  Hf407  1  0.21790879  0.80011856  0.31560168  1.0
  Hf  Hf408  1  0.55124212  0.13345189  0.31560168  1.0
  Hf  Hf409  1  0.55124212  0.46678523  0.31560168  1.0
  Hf  Hf410  1  0.55124212  0.80011856  0.31560168  1.0
  Hf  Hf411  1  0.88457545  0.13345189  0.31560168  1.0
  Hf  Hf412  1  0.88457545  0.46678523  0.31560168  1.0
  Hf  Hf413  1  0.88457545  0.80011856  0.31560168  1.0
  Hf  Hf414  1  0.04093440  0.24596970  0.32266311  1.0
  Hf  Hf415  1  0.04093440  0.57930304  0.32266311  1.0
  Hf  Hf416  1  0.04093440  0.91263637  0.32266311  1.0
  Hf  Hf417  1  0.37426774  0.24596970  0.32266311  1.0
  Hf  Hf418  1  0.37426774  0.57930304  0.32266311  1.0
  Hf  Hf419  1  0.37426774  0.91263637  0.32266311  1.0
  Hf  Hf420  1  0.70760107  0.24596970  0.32266311  1.0
  Hf  Hf421  1  0.70760107  0.57930304  0.32266311  1.0
  Hf  Hf422  1  0.70760107  0.91263637  0.32266311  1.0
  Hf  Hf423  1  0.25522012  0.10311256  0.39409168  1.0
  Hf  Hf424  1  0.25522012  0.43644589  0.39409168  1.0
  Hf  Hf425  1  0.25522012  0.76977923  0.39409168  1.0
  Hf  Hf426  1  0.58855345  0.10311256  0.39409168  1.0
  Hf  Hf427  1  0.58855345  0.43644589  0.39409168  1.0
  Hf  Hf428  1  0.58855345  0.76977923  0.39409168  1.0
  Hf  Hf429  1  0.92188679  0.10311256  0.39409168  1.0
  Hf  Hf430  1  0.92188679  0.43644589  0.39409168  1.0
  Hf  Hf431  1  0.92188679  0.76977923  0.39409168  1.0
  Ni  Ni432  1  0.21275493  0.02304413  0.06913239  1.0
  Ni  Ni433  1  0.21275493  0.35637746  0.06913239  1.0
  Ni  Ni434  1  0.21275493  0.68971080  0.06913239  1.0
  Ni  Ni435  1  0.54608826  0.02304413  0.06913239  1.0
  Ni  Ni436  1  0.54608826  0.35637746  0.06913239  1.0
  Ni  Ni437  1  0.54608826  0.68971080  0.06913239  1.0
  Ni  Ni438  1  0.87942160  0.02304413  0.06913239  1.0
  Ni  Ni439  1  0.87942160  0.35637746  0.06913239  1.0
  Ni  Ni440  1  0.87942160  0.68971080  0.06913239  1.0
  Ni  Ni441  1  0.09370731  0.21352032  0.14056096  1.0
  Ni  Ni442  1  0.09370731  0.54685365  0.14056096  1.0
  Ni  Ni443  1  0.09370731  0.88018699  0.14056096  1.0
  Ni  Ni444  1  0.42704064  0.21352032  0.14056096  1.0
  Ni  Ni445  1  0.42704064  0.54685365  0.14056096  1.0
  Ni  Ni446  1  0.42704064  0.88018699  0.14056096  1.0
  Ni  Ni447  1  0.76037398  0.21352032  0.14056096  1.0
  Ni  Ni448  1  0.76037398  0.54685365  0.14056096  1.0
  Ni  Ni449  1  0.76037398  0.88018699  0.14056096  1.0
  Ni  Ni450  1  0.14704902  0.10599185  0.00569354  1.0
  Ni  Ni451  1  0.14704902  0.43932518  0.00569354  1.0
  Ni  Ni452  1  0.14704902  0.77265851  0.00569354  1.0
  Ni  Ni453  1  0.48038236  0.10599185  0.00569354  1.0
  Ni  Ni454  1  0.48038236  0.43932518  0.00569354  1.0
  Ni  Ni455  1  0.48038236  0.77265851  0.00569354  1.0
  Ni  Ni456  1  0.81371569  0.10599185  0.00569354  1.0
  Ni  Ni457  1  0.81371569  0.43932518  0.00569354  1.0
  Ni  Ni458  1  0.81371569  0.77265851  0.00569354  1.0
  Ni  Ni459  1  0.02800140  0.29646804  0.07712211  1.0
  Ni  Ni460  1  0.02800140  0.62980137  0.07712211  1.0
  Ni  Ni461  1  0.02800140  0.96313470  0.07712211  1.0
  Ni  Ni462  1  0.36133474  0.29646804  0.07712211  1.0
  Ni  Ni463  1  0.36133474  0.62980137  0.07712211  1.0
  Ni  Ni464  1  0.36133474  0.96313470  0.07712211  1.0
  Ni  Ni465  1  0.69466807  0.29646804  0.07712211  1.0
  Ni  Ni466  1  0.69466807  0.62980137  0.07712211  1.0
  Ni  Ni467  1  0.69466807  0.96313470  0.07712211  1.0
  Ni  Ni468  1  0.27846083  0.27342975  0.13257125  1.0
  Ni  Ni469  1  0.27846083  0.60676308  0.13257125  1.0
  Ni  Ni470  1  0.27846083  0.94009642  0.13257125  1.0
  Ni  Ni471  1  0.61179417  0.27342975  0.13257125  1.0
  Ni  Ni472  1  0.61179417  0.60676308  0.13257125  1.0
  Ni  Ni473  1  0.61179417  0.94009642  0.13257125  1.0
  Ni  Ni474  1  0.94512750  0.27342975  0.13257125  1.0
  Ni  Ni475  1  0.94512750  0.60676308  0.13257125  1.0
  Ni  Ni476  1  0.94512750  0.94009642  0.13257125  1.0
  Ni  Ni477  1  0.06417512  0.08295356  0.06114268  1.0
  Ni  Ni478  1  0.06417512  0.41628689  0.06114268  1.0
  Ni  Ni479  1  0.06417512  0.74962023  0.06114268  1.0
  Ni  Ni480  1  0.39750845  0.08295356  0.06114268  1.0
  Ni  Ni481  1  0.39750845  0.41628689  0.06114268  1.0
  Ni  Ni482  1  0.39750845  0.74962023  0.06114268  1.0
  Ni  Ni483  1  0.73084179  0.08295356  0.06114268  1.0
  Ni  Ni484  1  0.73084179  0.41628689  0.06114268  1.0
  Ni  Ni485  1  0.73084179  0.74962023  0.06114268  1.0
  Ni  Ni486  1  0.17011440  0.05953270  0.11453911  1.0
  Ni  Ni487  1  0.17011440  0.39286604  0.11453911  1.0
  Ni  Ni488  1  0.17011440  0.72619937  0.11453911  1.0
  Ni  Ni489  1  0.50344774  0.05953270  0.11453911  1.0
  Ni  Ni490  1  0.50344774  0.39286604  0.11453911  1.0
  Ni  Ni491  1  0.50344774  0.72619937  0.11453911  1.0
  Ni  Ni492  1  0.83678107  0.05953270  0.11453911  1.0
  Ni  Ni493  1  0.83678107  0.39286604  0.11453911  1.0
  Ni  Ni494  1  0.83678107  0.72619937  0.11453911  1.0
  Ni  Ni495  1  0.28916202  0.20238985  0.04311054  1.0
  Ni  Ni496  1  0.28916202  0.53572318  0.04311054  1.0
  Ni  Ni497  1  0.28916202  0.86905651  0.04311054  1.0
  Ni  Ni498  1  0.62249536  0.20238985  0.04311054  1.0
  Ni  Ni499  1  0.62249536  0.53572318  0.04311054  1.0
  Ni  Ni500  1  0.62249536  0.86905651  0.04311054  1.0
  Ni  Ni501  1  0.95582869  0.20238985  0.04311054  1.0
  Ni  Ni502  1  0.95582869  0.53572318  0.04311054  1.0
  Ni  Ni503  1  0.95582869  0.86905651  0.04311054  1.0
  Ni  Ni504  1  0.25539545  0.31988889  0.02372568  1.0
  Ni  Ni505  1  0.25539545  0.65322223  0.02372568  1.0
  Ni  Ni506  1  0.25539545  0.98655556  0.02372568  1.0
  Ni  Ni507  1  0.58872879  0.31988889  0.02372568  1.0
  Ni  Ni508  1  0.58872879  0.65322223  0.02372568  1.0
  Ni  Ni509  1  0.58872879  0.98655556  0.02372568  1.0
  Ni  Ni510  1  0.92206212  0.31988889  0.02372568  1.0
  Ni  Ni511  1  0.92206212  0.65322223  0.02372568  1.0
  Ni  Ni512  1  0.92206212  0.98655556  0.02372568  1.0
  Ni  Ni513  1  0.13634783  0.17703175  0.09515425  1.0
  Ni  Ni514  1  0.13634783  0.51036508  0.09515425  1.0
  Ni  Ni515  1  0.13634783  0.84369842  0.09515425  1.0
  Ni  Ni516  1  0.46968117  0.17703175  0.09515425  1.0
  Ni  Ni517  1  0.46968117  0.51036508  0.09515425  1.0
  Ni  Ni518  1  0.46968117  0.84369842  0.09515425  1.0
  Ni  Ni519  1  0.80301450  0.17703175  0.09515425  1.0
  Ni  Ni520  1  0.80301450  0.51036508  0.09515425  1.0
  Ni  Ni521  1  0.80301450  0.84369842  0.09515425  1.0
  Ni  Ni522  1  0.06265002  0.30446918  0.01995854  1.0
  Ni  Ni523  1  0.06265002  0.63780251  0.01995854  1.0
  Ni  Ni524  1  0.06265002  0.97113585  0.01995854  1.0
  Ni  Ni525  1  0.39598336  0.30446918  0.01995854  1.0
  Ni  Ni526  1  0.39598336  0.63780251  0.01995854  1.0
  Ni  Ni527  1  0.39598336  0.97113585  0.01995854  1.0
  Ni  Ni528  1  0.72931669  0.30446918  0.01995854  1.0
  Ni  Ni529  1  0.72931669  0.63780251  0.01995854  1.0
  Ni  Ni530  1  0.72931669  0.97113585  0.01995854  1.0
  Ni  Ni531  1  0.27693574  0.16161204  0.09138711  1.0
  Ni  Ni532  1  0.27693574  0.49494537  0.09138711  1.0
  Ni  Ni533  1  0.27693574  0.82827870  0.09138711  1.0
  Ni  Ni534  1  0.61026907  0.16161204  0.09138711  1.0
  Ni  Ni535  1  0.61026907  0.49494537  0.09138711  1.0
  Ni  Ni536  1  0.61026907  0.82827870  0.09138711  1.0
  Ni  Ni537  1  0.94360240  0.16161204  0.09138711  1.0
  Ni  Ni538  1  0.94360240  0.49494537  0.09138711  1.0
  Ni  Ni539  1  0.94360240  0.82827870  0.09138711  1.0
  Ni  Ni540  1  0.02952650  0.07495242  0.11830625  1.0
  Ni  Ni541  1  0.02952650  0.40828575  0.11830625  1.0
  Ni  Ni542  1  0.02952650  0.74161908  0.11830625  1.0
  Ni  Ni543  1  0.36285983  0.07495242  0.11830625  1.0
  Ni  Ni544  1  0.36285983  0.40828575  0.11830625  1.0
  Ni  Ni545  1  0.36285983  0.74161908  0.11830625  1.0
  Ni  Ni546  1  0.69619317  0.07495242  0.11830625  1.0
  Ni  Ni547  1  0.69619317  0.40828575  0.11830625  1.0
  Ni  Ni548  1  0.69619317  0.74161908  0.11830625  1.0
  Ni  Ni549  1  0.14857412  0.21780956  0.04687768  1.0
  Ni  Ni550  1  0.14857412  0.55114289  0.04687768  1.0
  Ni  Ni551  1  0.14857412  0.88447623  0.04687768  1.0
  Ni  Ni552  1  0.48190745  0.21780956  0.04687768  1.0
  Ni  Ni553  1  0.48190745  0.55114289  0.04687768  1.0
  Ni  Ni554  1  0.48190745  0.88447623  0.04687768  1.0
  Ni  Ni555  1  0.81524079  0.21780956  0.04687768  1.0
  Ni  Ni556  1  0.81524079  0.55114289  0.04687768  1.0
  Ni  Ni557  1  0.81524079  0.88447623  0.04687768  1.0
  Ni  Ni558  1  0.24142895  0.11872456  0.07919918  1.0
  Ni  Ni559  1  0.24142895  0.45205789  0.07919918  1.0
  Ni  Ni560  1  0.24142895  0.78539123  0.07919918  1.0
  Ni  Ni561  1  0.57476229  0.11872456  0.07919918  1.0
  Ni  Ni562  1  0.57476229  0.45205789  0.07919918  1.0
  Ni  Ni563  1  0.57476229  0.78539123  0.07919918  1.0
  Ni  Ni564  1  0.90809562  0.11872456  0.07919918  1.0
  Ni  Ni565  1  0.90809562  0.45205789  0.07919918  1.0
  Ni  Ni566  1  0.90809562  0.78539123  0.07919918  1.0
  Ni  Ni567  1  0.02714324  0.26158170  0.00777061  1.0
  Ni  Ni568  1  0.02714324  0.59491504  0.00777061  1.0
  Ni  Ni569  1  0.02714324  0.92824837  0.00777061  1.0
  Ni  Ni570  1  0.36047657  0.26158170  0.00777061  1.0
  Ni  Ni571  1  0.36047657  0.59491504  0.00777061  1.0
  Ni  Ni572  1  0.36047657  0.92824837  0.00777061  1.0
  Ni  Ni573  1  0.69380990  0.26158170  0.00777061  1.0
  Ni  Ni574  1  0.69380990  0.59491504  0.00777061  1.0
  Ni  Ni575  1  0.69380990  0.92824837  0.00777061  1.0
  Ni  Ni576  1  0.10664393  0.05237813  0.10898739  1.0
  Ni  Ni577  1  0.10664393  0.38571146  0.10898739  1.0
  Ni  Ni578  1  0.10664393  0.71904480  0.10898739  1.0
  Ni  Ni579  1  0.43997726  0.05237813  0.10898739  1.0
  Ni  Ni580  1  0.43997726  0.38571146  0.10898739  1.0
  Ni  Ni581  1  0.43997726  0.71904480  0.10898739  1.0
  Ni  Ni582  1  0.77331060  0.05237813  0.10898739  1.0
  Ni  Ni583  1  0.77331060  0.38571146  0.10898739  1.0
  Ni  Ni584  1  0.77331060  0.71904480  0.10898739  1.0
  Ni  Ni585  1  0.22569155  0.19523527  0.03755882  1.0
  Ni  Ni586  1  0.22569155  0.52856861  0.03755882  1.0
  Ni  Ni587  1  0.22569155  0.86190194  0.03755882  1.0
  Ni  Ni588  1  0.55902488  0.19523527  0.03755882  1.0
  Ni  Ni589  1  0.55902488  0.52856861  0.03755882  1.0
  Ni  Ni590  1  0.55902488  0.86190194  0.03755882  1.0
  Ni  Ni591  1  0.89235821  0.19523527  0.03755882  1.0
  Ni  Ni592  1  0.89235821  0.52856861  0.03755882  1.0
  Ni  Ni593  1  0.89235821  0.86190194  0.03755882  1.0
  Ni  Ni594  1  0.31886593  0.32704346  0.02927739  1.0
  Ni  Ni595  1  0.31886593  0.66037680  0.02927739  1.0
  Ni  Ni596  1  0.31886593  0.99371013  0.02927739  1.0
  Ni  Ni597  1  0.65219926  0.32704346  0.02927739  1.0
  Ni  Ni598  1  0.65219926  0.66037680  0.02927739  1.0
  Ni  Ni599  1  0.65219926  0.99371013  0.02927739  1.0
  Ni  Ni600  1  0.98553260  0.32704346  0.02927739  1.0
  Ni  Ni601  1  0.98553260  0.66037680  0.02927739  1.0
  Ni  Ni602  1  0.98553260  0.99371013  0.02927739  1.0
  Ni  Ni603  1  0.19981831  0.18418632  0.10070596  1.0
  Ni  Ni604  1  0.19981831  0.51751965  0.10070596  1.0
  Ni  Ni605  1  0.19981831  0.85085299  0.10070596  1.0
  Ni  Ni606  1  0.53315164  0.18418632  0.10070596  1.0
  Ni  Ni607  1  0.53315164  0.51751965  0.10070596  1.0
  Ni  Ni608  1  0.53315164  0.85085299  0.10070596  1.0
  Ni  Ni609  1  0.86648498  0.18418632  0.10070596  1.0
  Ni  Ni610  1  0.86648498  0.51751965  0.10070596  1.0
  Ni  Ni611  1  0.86648498  0.85085299  0.10070596  1.0
  Ni  Ni612  1  0.09884376  0.01652013  0.04081889  1.0
  Ni  Ni613  1  0.09884376  0.34985346  0.04081889  1.0
  Ni  Ni614  1  0.09884376  0.68318680  0.04081889  1.0
  Ni  Ni615  1  0.43217710  0.01652013  0.04081889  1.0
  Ni  Ni616  1  0.43217710  0.34985346  0.04081889  1.0
  Ni  Ni617  1  0.43217710  0.68318680  0.04081889  1.0
  Ni  Ni618  1  0.76551043  0.01652013  0.04081889  1.0
  Ni  Ni619  1  0.76551043  0.34985346  0.04081889  1.0
  Ni  Ni620  1  0.76551043  0.68318680  0.04081889  1.0
  Ni  Ni621  1  0.31312948  0.20699632  0.11224746  1.0
  Ni  Ni622  1  0.31312948  0.54032965  0.11224746  1.0
  Ni  Ni623  1  0.31312948  0.87366299  0.11224746  1.0
  Ni  Ni624  1  0.64646281  0.20699632  0.11224746  1.0
  Ni  Ni625  1  0.64646281  0.54032965  0.11224746  1.0
  Ni  Ni626  1  0.64646281  0.87366299  0.11224746  1.0
  Ni  Ni627  1  0.97979614  0.20699632  0.11224746  1.0
  Ni  Ni628  1  0.97979614  0.54032965  0.11224746  1.0
  Ni  Ni629  1  0.97979614  0.87366299  0.11224746  1.0
  Ni  Ni630  1  0.32666610  0.02956813  0.09744589  1.0
  Ni  Ni631  1  0.32666610  0.36290146  0.09744589  1.0
  Ni  Ni632  1  0.32666610  0.69623480  0.09744589  1.0
  Ni  Ni633  1  0.65999943  0.02956813  0.09744589  1.0
  Ni  Ni634  1  0.65999943  0.36290146  0.09744589  1.0
  Ni  Ni635  1  0.65999943  0.69623480  0.09744589  1.0
  Ni  Ni636  1  0.99333276  0.02956813  0.09744589  1.0
  Ni  Ni637  1  0.99333276  0.36290146  0.09744589  1.0
  Ni  Ni638  1  0.99333276  0.69623480  0.09744589  1.0
  Ni  Ni639  1  0.11238038  0.17242527  0.02601732  1.0
  Ni  Ni640  1  0.11238038  0.50575861  0.02601732  1.0
  Ni  Ni641  1  0.11238038  0.83909194  0.02601732  1.0
  Ni  Ni642  1  0.44571371  0.17242527  0.02601732  1.0
  Ni  Ni643  1  0.44571371  0.50575861  0.02601732  1.0
  Ni  Ni644  1  0.44571371  0.83909194  0.02601732  1.0
  Ni  Ni645  1  0.77904705  0.17242527  0.02601732  1.0
  Ni  Ni646  1  0.77904705  0.50575861  0.02601732  1.0
  Ni  Ni647  1  0.77904705  0.83909194  0.02601732  1.0
  Ni  Ni648  1  0.14592052  0.04989285  0.04538504  1.0
  Ni  Ni649  1  0.14592052  0.38322618  0.04538504  1.0
  Ni  Ni650  1  0.14592052  0.71655951  0.04538504  1.0
  Ni  Ni651  1  0.47925386  0.04989285  0.04538504  1.0
  Ni  Ni652  1  0.47925386  0.38322618  0.04538504  1.0
  Ni  Ni653  1  0.47925386  0.71655951  0.04538504  1.0
  Ni  Ni654  1  0.81258719  0.04989285  0.04538504  1.0
  Ni  Ni655  1  0.81258719  0.38322618  0.04538504  1.0
  Ni  Ni656  1  0.81258719  0.71655951  0.04538504  1.0
  Ni  Ni657  1  0.02687290  0.24036904  0.11681361  1.0
  Ni  Ni658  1  0.02687290  0.57370237  0.11681361  1.0
  Ni  Ni659  1  0.02687290  0.90703570  0.11681361  1.0
  Ni  Ni660  1  0.36020624  0.24036904  0.11681361  1.0
  Ni  Ni661  1  0.36020624  0.57370237  0.11681361  1.0
  Ni  Ni662  1  0.36020624  0.90703570  0.11681361  1.0
  Ni  Ni663  1  0.69353957  0.24036904  0.11681361  1.0
  Ni  Ni664  1  0.69353957  0.57370237  0.11681361  1.0
  Ni  Ni665  1  0.69353957  0.90703570  0.11681361  1.0
  Ni  Ni666  1  0.27958933  0.32952875  0.09287975  1.0
  Ni  Ni667  1  0.27958933  0.66286208  0.09287975  1.0
  Ni  Ni668  1  0.27958933  0.99619542  0.09287975  1.0
  Ni  Ni669  1  0.61292267  0.32952875  0.09287975  1.0
  Ni  Ni670  1  0.61292267  0.66286208  0.09287975  1.0
  Ni  Ni671  1  0.61292267  0.99619542  0.09287975  1.0
  Ni  Ni672  1  0.94625600  0.32952875  0.09287975  1.0
  Ni  Ni673  1  0.94625600  0.66286208  0.09287975  1.0
  Ni  Ni674  1  0.94625600  0.99619542  0.09287975  1.0
  Ni  Ni675  1  0.06530362  0.13905256  0.02145118  1.0
  Ni  Ni676  1  0.06530362  0.47238589  0.02145118  1.0
  Ni  Ni677  1  0.06530362  0.80571923  0.02145118  1.0
  Ni  Ni678  1  0.39863695  0.13905256  0.02145118  1.0
  Ni  Ni679  1  0.39863695  0.47238589  0.02145118  1.0
  Ni  Ni680  1  0.39863695  0.80571923  0.02145118  1.0
  Ni  Ni681  1  0.73197029  0.13905256  0.02145118  1.0
  Ni  Ni682  1  0.73197029  0.47238589  0.02145118  1.0
  Ni  Ni683  1  0.73197029  0.80571923  0.02145118  1.0
  Ni  Ni684  1  0.19279643  0.08620480  0.06137889  1.0
  Ni  Ni685  1  0.19279643  0.41953813  0.06137889  1.0
  Ni  Ni686  1  0.19279643  0.75287146  0.06137889  1.0
  Ni  Ni687  1  0.52612976  0.08620480  0.06137889  1.0
  Ni  Ni688  1  0.52612976  0.41953813  0.06137889  1.0
  Ni  Ni689  1  0.52612976  0.75287146  0.06137889  1.0
  Ni  Ni690  1  0.85946310  0.08620480  0.06137889  1.0
  Ni  Ni691  1  0.85946310  0.41953813  0.06137889  1.0
  Ni  Ni692  1  0.85946310  0.75287146  0.06137889  1.0
  Ni  Ni693  1  0.07374881  0.27668099  0.13280746  1.0
  Ni  Ni694  1  0.07374881  0.61001432  0.13280746  1.0
  Ni  Ni695  1  0.07374881  0.94334765  0.13280746  1.0
  Ni  Ni696  1  0.40708214  0.27668099  0.13280746  1.0
  Ni  Ni697  1  0.40708214  0.61001432  0.13280746  1.0
  Ni  Ni698  1  0.40708214  0.94334765  0.13280746  1.0
  Ni  Ni699  1  0.74041548  0.27668099  0.13280746  1.0
  Ni  Ni700  1  0.74041548  0.61001432  0.13280746  1.0
  Ni  Ni701  1  0.74041548  0.94334765  0.13280746  1.0
  Ni  Ni702  1  0.23271343  0.29321680  0.07688589  1.0
  Ni  Ni703  1  0.23271343  0.62655013  0.07688589  1.0
  Ni  Ni704  1  0.23271343  0.95988346  0.07688589  1.0
  Ni  Ni705  1  0.56604676  0.29321680  0.07688589  1.0
  Ni  Ni706  1  0.56604676  0.62655013  0.07688589  1.0
  Ni  Ni707  1  0.56604676  0.95988346  0.07688589  1.0
  Ni  Ni708  1  0.89938010  0.29321680  0.07688589  1.0
  Ni  Ni709  1  0.89938010  0.62655013  0.07688589  1.0
  Ni  Ni710  1  0.89938010  0.95988346  0.07688589  1.0
  Ni  Ni711  1  0.01842771  0.10274061  0.00545732  1.0
  Ni  Ni712  1  0.01842771  0.43607394  0.00545732  1.0
  Ni  Ni713  1  0.01842771  0.76940727  0.00545732  1.0
  Ni  Ni714  1  0.35176105  0.10274061  0.00545732  1.0
  Ni  Ni715  1  0.35176105  0.43607394  0.00545732  1.0
  Ni  Ni716  1  0.35176105  0.76940727  0.00545732  1.0
  Ni  Ni717  1  0.68509438  0.10274061  0.00545732  1.0
  Ni  Ni718  1  0.68509438  0.43607394  0.00545732  1.0
  Ni  Ni719  1  0.68509438  0.76940727  0.00545732  1.0
  Ni  Ni720  1  0.22852495  0.09754556  0.00229618  1.0
  Ni  Ni721  1  0.22852495  0.43087889  0.00229618  1.0
  Ni  Ni722  1  0.22852495  0.76421223  0.00229618  1.0
  Ni  Ni723  1  0.56185829  0.09754556  0.00229618  1.0
  Ni  Ni724  1  0.56185829  0.43087889  0.00229618  1.0
  Ni  Ni725  1  0.56185829  0.76421223  0.00229618  1.0
  Ni  Ni726  1  0.89519162  0.09754556  0.00229618  1.0
  Ni  Ni727  1  0.89519162  0.43087889  0.00229618  1.0
  Ni  Ni728  1  0.89519162  0.76421223  0.00229618  1.0
  Ni  Ni729  1  0.10947733  0.28802175  0.07372475  1.0
  Ni  Ni730  1  0.10947733  0.62135508  0.07372475  1.0
  Ni  Ni731  1  0.10947733  0.95468842  0.07372475  1.0
  Ni  Ni732  1  0.44281067  0.28802175  0.07372475  1.0
  Ni  Ni733  1  0.44281067  0.62135508  0.07372475  1.0
  Ni  Ni734  1  0.44281067  0.95468842  0.07372475  1.0
  Ni  Ni735  1  0.77614400  0.28802175  0.07372475  1.0
  Ni  Ni736  1  0.77614400  0.62135508  0.07372475  1.0
  Ni  Ni737  1  0.77614400  0.95468842  0.07372475  1.0
  Ni  Ni738  1  0.19698490  0.28187604  0.13596861  1.0
  Ni  Ni739  1  0.19698490  0.61520937  0.13596861  1.0
  Ni  Ni740  1  0.19698490  0.94854270  0.13596861  1.0
  Ni  Ni741  1  0.53031824  0.28187604  0.13596861  1.0
  Ni  Ni742  1  0.53031824  0.61520937  0.13596861  1.0
  Ni  Ni743  1  0.53031824  0.94854270  0.13596861  1.0
  Ni  Ni744  1  0.86365157  0.28187604  0.13596861  1.0
  Ni  Ni745  1  0.86365157  0.61520937  0.13596861  1.0
  Ni  Ni746  1  0.86365157  0.94854270  0.13596861  1.0
  Ni  Ni747  1  0.31603252  0.09139985  0.06454004  1.0
  Ni  Ni748  1  0.31603252  0.42473318  0.06454004  1.0
  Ni  Ni749  1  0.31603252  0.75806651  0.06454004  1.0
  Ni  Ni750  1  0.64936586  0.09139985  0.06454004  1.0
  Ni  Ni751  1  0.64936586  0.42473318  0.06454004  1.0
  Ni  Ni752  1  0.64936586  0.75806651  0.06454004  1.0
  Ni  Ni753  1  0.98269919  0.09139985  0.06454004  1.0
  Ni  Ni754  1  0.98269919  0.42473318  0.06454004  1.0
  Ni  Ni755  1  0.98269919  0.75806651  0.06454004  1.0
  Ni  Ni756  1  0.18999198  0.31714465  0.01948796  1.0
  Ni  Ni757  1  0.18999198  0.65047799  0.01948796  1.0
  Ni  Ni758  1  0.18999198  0.98381132  0.01948796  1.0
  Ni  Ni759  1  0.52332531  0.31714465  0.01948796  1.0
  Ni  Ni760  1  0.52332531  0.65047799  0.01948796  1.0
  Ni  Ni761  1  0.52332531  0.98381132  0.01948796  1.0
  Ni  Ni762  1  0.85665864  0.31714465  0.01948796  1.0
  Ni  Ni763  1  0.85665864  0.65047799  0.01948796  1.0
  Ni  Ni764  1  0.85665864  0.98381132  0.01948796  1.0
  Ni  Ni765  1  0.07094436  0.17428751  0.09091654  1.0
  Ni  Ni766  1  0.07094436  0.50762085  0.09091654  1.0
  Ni  Ni767  1  0.07094436  0.84095418  0.09091654  1.0
  Ni  Ni768  1  0.40427769  0.17428751  0.09091654  1.0
  Ni  Ni769  1  0.40427769  0.50762085  0.09091654  1.0
  Ni  Ni770  1  0.40427769  0.84095418  0.09091654  1.0
  Ni  Ni771  1  0.73761102  0.17428751  0.09091654  1.0
  Ni  Ni772  1  0.73761102  0.50762085  0.09091654  1.0
  Ni  Ni773  1  0.73761102  0.84095418  0.09091654  1.0
  Ni  Ni774  1  0.23551788  0.06227694  0.11877682  1.0
  Ni  Ni775  1  0.23551788  0.39561027  0.11877682  1.0
  Ni  Ni776  1  0.23551788  0.72894361  0.11877682  1.0
  Ni  Ni777  1  0.56885121  0.06227694  0.11877682  1.0
  Ni  Ni778  1  0.56885121  0.39561027  0.11877682  1.0
  Ni  Ni779  1  0.56885121  0.72894361  0.11877682  1.0
  Ni  Ni780  1  0.90218455  0.06227694  0.11877682  1.0
  Ni  Ni781  1  0.90218455  0.39561027  0.11877682  1.0
  Ni  Ni782  1  0.90218455  0.72894361  0.11877682  1.0
  Ni  Ni783  1  0.02123217  0.20513408  0.04734825  1.0
  Ni  Ni784  1  0.02123217  0.53846742  0.04734825  1.0
  Ni  Ni785  1  0.02123217  0.87180075  0.04734825  1.0
  Ni  Ni786  1  0.35456550  0.20513408  0.04734825  1.0
  Ni  Ni787  1  0.35456550  0.53846742  0.04734825  1.0
  Ni  Ni788  1  0.35456550  0.87180075  0.04734825  1.0
  Ni  Ni789  1  0.68789883  0.20513408  0.04734825  1.0
  Ni  Ni790  1  0.68789883  0.53846742  0.04734825  1.0
  Ni  Ni791  1  0.68789883  0.87180075  0.04734825  1.0
  Ni  Ni792  1  0.18408090  0.26069704  0.05906561  1.0
  Ni  Ni793  1  0.18408090  0.59403037  0.05906561  1.0
  Ni  Ni794  1  0.18408090  0.92736370  0.05906561  1.0
  Ni  Ni795  1  0.51741424  0.26069704  0.05906561  1.0
  Ni  Ni796  1  0.51741424  0.59403037  0.05906561  1.0
  Ni  Ni797  1  0.51741424  0.92736370  0.05906561  1.0
  Ni  Ni798  1  0.85074757  0.26069704  0.05906561  1.0
  Ni  Ni799  1  0.85074757  0.59403037  0.05906561  1.0
  Ni  Ni800  1  0.85074757  0.92736370  0.05906561  1.0
  Ni  Ni801  1  0.06503329  0.11783989  0.13049418  1.0
  Ni  Ni802  1  0.06503329  0.45117323  0.13049418  1.0
  Ni  Ni803  1  0.06503329  0.78450656  0.13049418  1.0
  Ni  Ni804  1  0.39836662  0.11783989  0.13049418  1.0
  Ni  Ni805  1  0.39836662  0.45117323  0.13049418  1.0
  Ni  Ni806  1  0.39836662  0.78450656  0.13049418  1.0
  Ni  Ni807  1  0.73169995  0.11783989  0.13049418  1.0
  Ni  Ni808  1  0.73169995  0.45117323  0.13049418  1.0
  Ni  Ni809  1  0.73169995  0.78450656  0.13049418  1.0
  Ni  Ni810  1  0.30799302  0.07066318  0.21198954  1.0
  Ni  Ni811  1  0.30799302  0.40399651  0.21198954  1.0
  Ni  Ni812  1  0.30799302  0.73732985  0.21198954  1.0
  Ni  Ni813  1  0.64132636  0.07066318  0.21198954  1.0
  Ni  Ni814  1  0.64132636  0.40399651  0.21198954  1.0
  Ni  Ni815  1  0.64132636  0.73732985  0.21198954  1.0
  Ni  Ni816  1  0.97465969  0.07066318  0.21198954  1.0
  Ni  Ni817  1  0.97465969  0.40399651  0.21198954  1.0
  Ni  Ni818  1  0.97465969  0.73732985  0.21198954  1.0
  Ni  Ni819  1  0.18894540  0.26113937  0.28341811  1.0
  Ni  Ni820  1  0.18894540  0.59447270  0.28341811  1.0
  Ni  Ni821  1  0.18894540  0.92780604  0.28341811  1.0
  Ni  Ni822  1  0.52227874  0.26113937  0.28341811  1.0
  Ni  Ni823  1  0.52227874  0.59447270  0.28341811  1.0
  Ni  Ni824  1  0.52227874  0.92780604  0.28341811  1.0
  Ni  Ni825  1  0.85561207  0.26113937  0.28341811  1.0
  Ni  Ni826  1  0.85561207  0.59447270  0.28341811  1.0
  Ni  Ni827  1  0.85561207  0.92780604  0.28341811  1.0
  Ni  Ni828  1  0.24228712  0.15361089  0.14855068  1.0
  Ni  Ni829  1  0.24228712  0.48694423  0.14855068  1.0
  Ni  Ni830  1  0.24228712  0.82027756  0.14855068  1.0
  Ni  Ni831  1  0.57562045  0.15361089  0.14855068  1.0
  Ni  Ni832  1  0.57562045  0.48694423  0.14855068  1.0
  Ni  Ni833  1  0.57562045  0.82027756  0.14855068  1.0
  Ni  Ni834  1  0.90895379  0.15361089  0.14855068  1.0
  Ni  Ni835  1  0.90895379  0.48694423  0.14855068  1.0
  Ni  Ni836  1  0.90895379  0.82027756  0.14855068  1.0
  Ni  Ni837  1  0.12323950  0.01075375  0.21997925  1.0
  Ni  Ni838  1  0.12323950  0.34408708  0.21997925  1.0
  Ni  Ni839  1  0.12323950  0.67742042  0.21997925  1.0
  Ni  Ni840  1  0.45657283  0.01075375  0.21997925  1.0
  Ni  Ni841  1  0.45657283  0.34408708  0.21997925  1.0
  Ni  Ni842  1  0.45657283  0.67742042  0.21997925  1.0
  Ni  Ni843  1  0.78990617  0.01075375  0.21997925  1.0
  Ni  Ni844  1  0.78990617  0.34408708  0.21997925  1.0
  Ni  Ni845  1  0.78990617  0.67742042  0.21997925  1.0
  Ni  Ni846  1  0.04036560  0.32104880  0.27542839  1.0
  Ni  Ni847  1  0.04036560  0.65438213  0.27542839  1.0
  Ni  Ni848  1  0.04036560  0.98771546  0.27542839  1.0
  Ni  Ni849  1  0.37369893  0.32104880  0.27542839  1.0
  Ni  Ni850  1  0.37369893  0.65438213  0.27542839  1.0
  Ni  Ni851  1  0.37369893  0.98771546  0.27542839  1.0
  Ni  Ni852  1  0.70703226  0.32104880  0.27542839  1.0
  Ni  Ni853  1  0.70703226  0.65438213  0.27542839  1.0
  Ni  Ni854  1  0.70703226  0.98771546  0.27542839  1.0
  Ni  Ni855  1  0.15941321  0.13057261  0.20399982  1.0
  Ni  Ni856  1  0.15941321  0.46390594  0.20399982  1.0
  Ni  Ni857  1  0.15941321  0.79723927  0.20399982  1.0
  Ni  Ni858  1  0.49274655  0.13057261  0.20399982  1.0
  Ni  Ni859  1  0.49274655  0.46390594  0.20399982  1.0
  Ni  Ni860  1  0.49274655  0.79723927  0.20399982  1.0
  Ni  Ni861  1  0.82607988  0.13057261  0.20399982  1.0
  Ni  Ni862  1  0.82607988  0.46390594  0.20399982  1.0
  Ni  Ni863  1  0.82607988  0.79723927  0.20399982  1.0
  Ni  Ni864  1  0.26535250  0.10715175  0.25739625  1.0
  Ni  Ni865  1  0.26535250  0.44048508  0.25739625  1.0
  Ni  Ni866  1  0.26535250  0.77381842  0.25739625  1.0
  Ni  Ni867  1  0.59868583  0.10715175  0.25739625  1.0
  Ni  Ni868  1  0.59868583  0.44048508  0.25739625  1.0
  Ni  Ni869  1  0.59868583  0.77381842  0.25739625  1.0
  Ni  Ni870  1  0.93201917  0.10715175  0.25739625  1.0
  Ni  Ni871  1  0.93201917  0.44048508  0.25739625  1.0
  Ni  Ni872  1  0.93201917  0.77381842  0.25739625  1.0
  Ni  Ni873  1  0.05106679  0.25000889  0.18596768  1.0
  Ni  Ni874  1  0.05106679  0.58334223  0.18596768  1.0
  Ni  Ni875  1  0.05106679  0.91667556  0.18596768  1.0
  Ni  Ni876  1  0.38440012  0.25000889  0.18596768  1.0
  Ni  Ni877  1  0.38440012  0.58334223  0.18596768  1.0
  Ni  Ni878  1  0.38440012  0.91667556  0.18596768  1.0
  Ni  Ni879  1  0.71773345  0.25000889  0.18596768  1.0
  Ni  Ni880  1  0.71773345  0.58334223  0.18596768  1.0
  Ni  Ni881  1  0.71773345  0.91667556  0.18596768  1.0
  Ni  Ni882  1  0.01730021  0.03417461  0.16658282  1.0
  Ni  Ni883  1  0.01730021  0.36750794  0.16658282  1.0
  Ni  Ni884  1  0.01730021  0.70084127  0.16658282  1.0
  Ni  Ni885  1  0.35063355  0.03417461  0.16658282  1.0
  Ni  Ni886  1  0.35063355  0.36750794  0.16658282  1.0
  Ni  Ni887  1  0.35063355  0.70084127  0.16658282  1.0
  Ni  Ni888  1  0.68396688  0.03417461  0.16658282  1.0
  Ni  Ni889  1  0.68396688  0.36750794  0.16658282  1.0
  Ni  Ni890  1  0.68396688  0.70084127  0.16658282  1.0
  Ni  Ni891  1  0.23158593  0.22465080  0.23801139  1.0
  Ni  Ni892  1  0.23158593  0.55798413  0.23801139  1.0
  Ni  Ni893  1  0.23158593  0.89131746  0.23801139  1.0
  Ni  Ni894  1  0.56491926  0.22465080  0.23801139  1.0
  Ni  Ni895  1  0.56491926  0.55798413  0.23801139  1.0
  Ni  Ni896  1  0.56491926  0.89131746  0.23801139  1.0
  Ni  Ni897  1  0.89825260  0.22465080  0.23801139  1.0
  Ni  Ni898  1  0.89825260  0.55798413  0.23801139  1.0
  Ni  Ni899  1  0.89825260  0.89131746  0.23801139  1.0
  Ni  Ni900  1  0.15788812  0.01875489  0.16281568  1.0
  Ni  Ni901  1  0.15788812  0.35208823  0.16281568  1.0
  Ni  Ni902  1  0.15788812  0.68542156  0.16281568  1.0
  Ni  Ni903  1  0.49122145  0.01875489  0.16281568  1.0
  Ni  Ni904  1  0.49122145  0.35208823  0.16281568  1.0
  Ni  Ni905  1  0.49122145  0.68542156  0.16281568  1.0
  Ni  Ni906  1  0.82455479  0.01875489  0.16281568  1.0
  Ni  Ni907  1  0.82455479  0.35208823  0.16281568  1.0
  Ni  Ni908  1  0.82455479  0.68542156  0.16281568  1.0
  Ni  Ni909  1  0.03884050  0.20923108  0.23424425  1.0
  Ni  Ni910  1  0.03884050  0.54256442  0.23424425  1.0
  Ni  Ni911  1  0.03884050  0.87589775  0.23424425  1.0
  Ni  Ni912  1  0.37217383  0.20923108  0.23424425  1.0
  Ni  Ni913  1  0.37217383  0.54256442  0.23424425  1.0
  Ni  Ni914  1  0.37217383  0.87589775  0.23424425  1.0
  Ni  Ni915  1  0.70550717  0.20923108  0.23424425  1.0
  Ni  Ni916  1  0.70550717  0.54256442  0.23424425  1.0
  Ni  Ni917  1  0.70550717  0.87589775  0.23424425  1.0
  Ni  Ni918  1  0.12476460  0.12257146  0.26116339  1.0
  Ni  Ni919  1  0.12476460  0.45590480  0.26116339  1.0
  Ni  Ni920  1  0.12476460  0.78923813  0.26116339  1.0
  Ni  Ni921  1  0.45809793  0.12257146  0.26116339  1.0
  Ni  Ni922  1  0.45809793  0.45590480  0.26116339  1.0
  Ni  Ni923  1  0.45809793  0.78923813  0.26116339  1.0
  Ni  Ni924  1  0.79143126  0.12257146  0.26116339  1.0
  Ni  Ni925  1  0.79143126  0.45590480  0.26116339  1.0
  Ni  Ni926  1  0.79143126  0.78923813  0.26116339  1.0
  Ni  Ni927  1  0.24381221  0.26542861  0.18973482  1.0
  Ni  Ni928  1  0.24381221  0.59876194  0.18973482  1.0
  Ni  Ni929  1  0.24381221  0.93209527  0.18973482  1.0
  Ni  Ni930  1  0.57714555  0.26542861  0.18973482  1.0
  Ni  Ni931  1  0.57714555  0.59876194  0.18973482  1.0
  Ni  Ni932  1  0.57714555  0.93209527  0.18973482  1.0
  Ni  Ni933  1  0.91047888  0.26542861  0.18973482  1.0
  Ni  Ni934  1  0.91047888  0.59876194  0.18973482  1.0
  Ni  Ni935  1  0.91047888  0.93209527  0.18973482  1.0
  Ni  Ni936  1  0.00333371  0.16634361  0.22205632  1.0
  Ni  Ni937  1  0.00333371  0.49967694  0.22205632  1.0
  Ni  Ni938  1  0.00333371  0.83301027  0.22205632  1.0
  Ni  Ni939  1  0.33666705  0.16634361  0.22205632  1.0
  Ni  Ni940  1  0.33666705  0.49967694  0.22205632  1.0
  Ni  Ni941  1  0.33666705  0.83301027  0.22205632  1.0
  Ni  Ni942  1  0.67000038  0.16634361  0.22205632  1.0
  Ni  Ni943  1  0.67000038  0.49967694  0.22205632  1.0
  Ni  Ni944  1  0.67000038  0.83301027  0.22205632  1.0
  Ni  Ni945  1  0.12238133  0.30920075  0.15062775  1.0
  Ni  Ni946  1  0.12238133  0.64253408  0.15062775  1.0
  Ni  Ni947  1  0.12238133  0.97586742  0.15062775  1.0
  Ni  Ni948  1  0.45571467  0.30920075  0.15062775  1.0
  Ni  Ni949  1  0.45571467  0.64253408  0.15062775  1.0
  Ni  Ni950  1  0.45571467  0.97586742  0.15062775  1.0
  Ni  Ni951  1  0.78904800  0.30920075  0.15062775  1.0
  Ni  Ni952  1  0.78904800  0.64253408  0.15062775  1.0
  Ni  Ni953  1  0.78904800  0.97586742  0.15062775  1.0
  Ni  Ni954  1  0.20188202  0.09999718  0.25184454  1.0
  Ni  Ni955  1  0.20188202  0.43333051  0.25184454  1.0
  Ni  Ni956  1  0.20188202  0.76666385  0.25184454  1.0
  Ni  Ni957  1  0.53521536  0.09999718  0.25184454  1.0
  Ni  Ni958  1  0.53521536  0.43333051  0.25184454  1.0
  Ni  Ni959  1  0.53521536  0.76666385  0.25184454  1.0
  Ni  Ni960  1  0.86854869  0.09999718  0.25184454  1.0
  Ni  Ni961  1  0.86854869  0.43333051  0.25184454  1.0
  Ni  Ni962  1  0.86854869  0.76666385  0.25184454  1.0
  Ni  Ni963  1  0.32092964  0.24285432  0.18041596  1.0
  Ni  Ni964  1  0.32092964  0.57618765  0.18041596  1.0
  Ni  Ni965  1  0.32092964  0.90952099  0.18041596  1.0
  Ni  Ni966  1  0.65426298  0.24285432  0.18041596  1.0
  Ni  Ni967  1  0.65426298  0.57618765  0.18041596  1.0
  Ni  Ni968  1  0.65426298  0.90952099  0.18041596  1.0
  Ni  Ni969  1  0.98759631  0.24285432  0.18041596  1.0
  Ni  Ni970  1  0.98759631  0.57618765  0.18041596  1.0
  Ni  Ni971  1  0.98759631  0.90952099  0.18041596  1.0
  Ni  Ni972  1  0.08077069  0.04132918  0.17213454  1.0
  Ni  Ni973  1  0.08077069  0.37466251  0.17213454  1.0
  Ni  Ni974  1  0.08077069  0.70799585  0.17213454  1.0
  Ni  Ni975  1  0.41410402  0.04132918  0.17213454  1.0
  Ni  Ni976  1  0.41410402  0.37466251  0.17213454  1.0
  Ni  Ni977  1  0.41410402  0.70799585  0.17213454  1.0
  Ni  Ni978  1  0.74743736  0.04132918  0.17213454  1.0
  Ni  Ni979  1  0.74743736  0.37466251  0.17213454  1.0
  Ni  Ni980  1  0.74743736  0.70799585  0.17213454  1.0
  Ni  Ni981  1  0.29505640  0.23180537  0.24356311  1.0
  Ni  Ni982  1  0.29505640  0.56513870  0.24356311  1.0
  Ni  Ni983  1  0.29505640  0.89847204  0.24356311  1.0
  Ni  Ni984  1  0.62838974  0.23180537  0.24356311  1.0
  Ni  Ni985  1  0.62838974  0.56513870  0.24356311  1.0
  Ni  Ni986  1  0.62838974  0.89847204  0.24356311  1.0
  Ni  Ni987  1  0.96172307  0.23180537  0.24356311  1.0
  Ni  Ni988  1  0.96172307  0.56513870  0.24356311  1.0
  Ni  Ni989  1  0.96172307  0.89847204  0.24356311  1.0
  Ni  Ni990  1  0.19408186  0.06413918  0.18367604  1.0
  Ni  Ni991  1  0.19408186  0.39747251  0.18367604  1.0
  Ni  Ni992  1  0.19408186  0.73080585  0.18367604  1.0
  Ni  Ni993  1  0.52741519  0.06413918  0.18367604  1.0
  Ni  Ni994  1  0.52741519  0.39747251  0.18367604  1.0
  Ni  Ni995  1  0.52741519  0.73080585  0.18367604  1.0
  Ni  Ni996  1  0.86074852  0.06413918  0.18367604  1.0
  Ni  Ni997  1  0.86074852  0.39747251  0.18367604  1.0
  Ni  Ni998  1  0.86074852  0.73080585  0.18367604  1.0
  Ni  Ni999  1  0.07503424  0.25461537  0.25510461  1.0
  Ni  Ni1000  1  0.07503424  0.58794870  0.25510461  1.0
  Ni  Ni1001  1  0.07503424  0.92128204  0.25510461  1.0
  Ni  Ni1002  1  0.40836757  0.25461537  0.25510461  1.0
  Ni  Ni1003  1  0.40836757  0.58794870  0.25510461  1.0
  Ni  Ni1004  1  0.40836757  0.92128204  0.25510461  1.0
  Ni  Ni1005  1  0.74170090  0.25461537  0.25510461  1.0
  Ni  Ni1006  1  0.74170090  0.58794870  0.25510461  1.0
  Ni  Ni1007  1  0.74170090  0.92128204  0.25510461  1.0
  Ni  Ni1008  1  0.08857086  0.07718718  0.24030304  1.0
  Ni  Ni1009  1  0.08857086  0.41052051  0.24030304  1.0
  Ni  Ni1010  1  0.08857086  0.74385385  0.24030304  1.0
  Ni  Ni1011  1  0.42190419  0.07718718  0.24030304  1.0
  Ni  Ni1012  1  0.42190419  0.41052051  0.24030304  1.0
  Ni  Ni1013  1  0.42190419  0.74385385  0.24030304  1.0
  Ni  Ni1014  1  0.75523752  0.07718718  0.24030304  1.0
  Ni  Ni1015  1  0.75523752  0.41052051  0.24030304  1.0
  Ni  Ni1016  1  0.75523752  0.74385385  0.24030304  1.0
  Ni  Ni1017  1  0.20761848  0.22004432  0.16887446  1.0
  Ni  Ni1018  1  0.20761848  0.55337765  0.16887446  1.0
  Ni  Ni1019  1  0.20761848  0.88671099  0.16887446  1.0
  Ni  Ni1020  1  0.54095181  0.22004432  0.16887446  1.0
  Ni  Ni1021  1  0.54095181  0.55337765  0.16887446  1.0
  Ni  Ni1022  1  0.54095181  0.88671099  0.16887446  1.0
  Ni  Ni1023  1  0.87428514  0.22004432  0.16887446  1.0
  Ni  Ni1024  1  0.87428514  0.55337765  0.16887446  1.0
  Ni  Ni1025  1  0.87428514  0.88671099  0.16887446  1.0
  Ni  Ni1026  1  0.24115862  0.09751189  0.18824218  1.0
  Ni  Ni1027  1  0.24115862  0.43084523  0.18824218  1.0
  Ni  Ni1028  1  0.24115862  0.76417856  0.18824218  1.0
  Ni  Ni1029  1  0.57449195  0.09751189  0.18824218  1.0
  Ni  Ni1030  1  0.57449195  0.43084523  0.18824218  1.0
  Ni  Ni1031  1  0.57449195  0.76417856  0.18824218  1.0
  Ni  Ni1032  1  0.90782529  0.09751189  0.18824218  1.0
  Ni  Ni1033  1  0.90782529  0.43084523  0.18824218  1.0
  Ni  Ni1034  1  0.90782529  0.76417856  0.18824218  1.0
  Ni  Ni1035  1  0.12211100  0.28798808  0.25967075  1.0
  Ni  Ni1036  1  0.12211100  0.62132142  0.25967075  1.0
  Ni  Ni1037  1  0.12211100  0.95465475  0.25967075  1.0
  Ni  Ni1038  1  0.45544433  0.28798808  0.25967075  1.0
  Ni  Ni1039  1  0.45544433  0.62132142  0.25967075  1.0
  Ni  Ni1040  1  0.45544433  0.95465475  0.25967075  1.0
  Ni  Ni1041  1  0.78877767  0.28798808  0.25967075  1.0
  Ni  Ni1042  1  0.78877767  0.62132142  0.25967075  1.0
  Ni  Ni1043  1  0.78877767  0.95465475  0.25967075  1.0
  Ni  Ni1044  1  0.04149410  0.04381446  0.23573689  1.0
  Ni  Ni1045  1  0.04149410  0.37714780  0.23573689  1.0
  Ni  Ni1046  1  0.04149410  0.71048113  0.23573689  1.0
  Ni  Ni1047  1  0.37482743  0.04381446  0.23573689  1.0
  Ni  Ni1048  1  0.37482743  0.37714780  0.23573689  1.0
  Ni  Ni1049  1  0.37482743  0.71048113  0.23573689  1.0
  Ni  Ni1050  1  0.70816076  0.04381446  0.23573689  1.0
  Ni  Ni1051  1  0.70816076  0.37714780  0.23573689  1.0
  Ni  Ni1052  1  0.70816076  0.71048113  0.23573689  1.0
  Ni  Ni1053  1  0.16054171  0.18667161  0.16430832  1.0
  Ni  Ni1054  1  0.16054171  0.52000494  0.16430832  1.0
  Ni  Ni1055  1  0.16054171  0.85333827  0.16430832  1.0
  Ni  Ni1056  1  0.49387505  0.18667161  0.16430832  1.0
  Ni  Ni1057  1  0.49387505  0.52000494  0.16430832  1.0
  Ni  Ni1058  1  0.49387505  0.85333827  0.16430832  1.0
  Ni  Ni1059  1  0.82720838  0.18667161  0.16430832  1.0
  Ni  Ni1060  1  0.82720838  0.52000494  0.16430832  1.0
  Ni  Ni1061  1  0.82720838  0.85333827  0.16430832  1.0
  Ni  Ni1062  1  0.28803452  0.13382385  0.20423604  1.0
  Ni  Ni1063  1  0.28803452  0.46715718  0.20423604  1.0
  Ni  Ni1064  1  0.28803452  0.80049051  0.20423604  1.0
  Ni  Ni1065  1  0.62136786  0.13382385  0.20423604  1.0
  Ni  Ni1066  1  0.62136786  0.46715718  0.20423604  1.0
  Ni  Ni1067  1  0.62136786  0.80049051  0.20423604  1.0
  Ni  Ni1068  1  0.95470119  0.13382385  0.20423604  1.0
  Ni  Ni1069  1  0.95470119  0.46715718  0.20423604  1.0
  Ni  Ni1070  1  0.95470119  0.80049051  0.20423604  1.0
  Ni  Ni1071  1  0.16898690  0.32430004  0.27566461  1.0
  Ni  Ni1072  1  0.16898690  0.65763337  0.27566461  1.0
  Ni  Ni1073  1  0.16898690  0.99096670  0.27566461  1.0
  Ni  Ni1074  1  0.50232024  0.32430004  0.27566461  1.0
  Ni  Ni1075  1  0.50232024  0.65763337  0.27566461  1.0
  Ni  Ni1076  1  0.50232024  0.99096670  0.27566461  1.0
  Ni  Ni1077  1  0.83565357  0.32430004  0.27566461  1.0
  Ni  Ni1078  1  0.83565357  0.65763337  0.27566461  1.0
  Ni  Ni1079  1  0.83565357  0.99096670  0.27566461  1.0
  Ni  Ni1080  1  0.32795152  0.00750251  0.21974304  1.0
  Ni  Ni1081  1  0.32795152  0.34083585  0.21974304  1.0
  Ni  Ni1082  1  0.32795152  0.67416918  0.21974304  1.0
  Ni  Ni1083  1  0.66128486  0.00750251  0.21974304  1.0
  Ni  Ni1084  1  0.66128486  0.34083585  0.21974304  1.0
  Ni  Ni1085  1  0.66128486  0.67416918  0.21974304  1.0
  Ni  Ni1086  1  0.99461819  0.00750251  0.21974304  1.0
  Ni  Ni1087  1  0.99461819  0.34083585  0.21974304  1.0
  Ni  Ni1088  1  0.99461819  0.67416918  0.21974304  1.0
  Ni  Ni1089  1  0.11366581  0.15035965  0.14831446  1.0
  Ni  Ni1090  1  0.11366581  0.48369299  0.14831446  1.0
  Ni  Ni1091  1  0.11366581  0.81702632  0.14831446  1.0
  Ni  Ni1092  1  0.44699914  0.15035965  0.14831446  1.0
  Ni  Ni1093  1  0.44699914  0.48369299  0.14831446  1.0
  Ni  Ni1094  1  0.44699914  0.81702632  0.14831446  1.0
  Ni  Ni1095  1  0.78033248  0.15035965  0.14831446  1.0
  Ni  Ni1096  1  0.78033248  0.48369299  0.14831446  1.0
  Ni  Ni1097  1  0.78033248  0.81702632  0.14831446  1.0
  Ni  Ni1098  1  0.32376305  0.14516461  0.14515332  1.0
  Ni  Ni1099  1  0.32376305  0.47849794  0.14515332  1.0
  Ni  Ni1100  1  0.32376305  0.81183127  0.14515332  1.0
  Ni  Ni1101  1  0.65709638  0.14516461  0.14515332  1.0
  Ni  Ni1102  1  0.65709638  0.47849794  0.14515332  1.0
  Ni  Ni1103  1  0.65709638  0.81183127  0.14515332  1.0
  Ni  Ni1104  1  0.99042971  0.14516461  0.14515332  1.0
  Ni  Ni1105  1  0.99042971  0.47849794  0.14515332  1.0
  Ni  Ni1106  1  0.99042971  0.81183127  0.14515332  1.0
  Ni  Ni1107  1  0.20471543  0.00230746  0.21658189  1.0
  Ni  Ni1108  1  0.20471543  0.33564080  0.21658189  1.0
  Ni  Ni1109  1  0.20471543  0.66897413  0.21658189  1.0
  Ni  Ni1110  1  0.53804876  0.00230746  0.21658189  1.0
  Ni  Ni1111  1  0.53804876  0.33564080  0.21658189  1.0
  Ni  Ni1112  1  0.53804876  0.66897413  0.21658189  1.0
  Ni  Ni1113  1  0.87138210  0.00230746  0.21658189  1.0
  Ni  Ni1114  1  0.87138210  0.33564080  0.21658189  1.0
  Ni  Ni1115  1  0.87138210  0.66897413  0.21658189  1.0
  Ni  Ni1116  1  0.29222300  0.32949508  0.27882575  1.0
  Ni  Ni1117  1  0.29222300  0.66282842  0.27882575  1.0
  Ni  Ni1118  1  0.29222300  0.99616175  0.27882575  1.0
  Ni  Ni1119  1  0.62555633  0.32949508  0.27882575  1.0
  Ni  Ni1120  1  0.62555633  0.66282842  0.27882575  1.0
  Ni  Ni1121  1  0.62555633  0.99616175  0.27882575  1.0
  Ni  Ni1122  1  0.95888967  0.32949508  0.27882575  1.0
  Ni  Ni1123  1  0.95888967  0.66282842  0.27882575  1.0
  Ni  Ni1124  1  0.95888967  0.99616175  0.27882575  1.0
  Ni  Ni1125  1  0.07793729  0.13901889  0.20739718  1.0
  Ni  Ni1126  1  0.07793729  0.47235223  0.20739718  1.0
  Ni  Ni1127  1  0.07793729  0.80568556  0.20739718  1.0
  Ni  Ni1128  1  0.41127062  0.13901889  0.20739718  1.0
  Ni  Ni1129  1  0.41127062  0.47235223  0.20739718  1.0
  Ni  Ni1130  1  0.41127062  0.80568556  0.20739718  1.0
  Ni  Ni1131  1  0.74460395  0.13901889  0.20739718  1.0
  Ni  Ni1132  1  0.74460395  0.47235223  0.20739718  1.0
  Ni  Ni1133  1  0.74460395  0.80568556  0.20739718  1.0
  Ni  Ni1134  1  0.28523007  0.03143037  0.16234511  1.0
  Ni  Ni1135  1  0.28523007  0.36476370  0.16234511  1.0
  Ni  Ni1136  1  0.28523007  0.69809704  0.16234511  1.0
  Ni  Ni1137  1  0.61856340  0.03143037  0.16234511  1.0
  Ni  Ni1138  1  0.61856340  0.36476370  0.16234511  1.0
  Ni  Ni1139  1  0.61856340  0.69809704  0.16234511  1.0
  Ni  Ni1140  1  0.95189674  0.03143037  0.16234511  1.0
  Ni  Ni1141  1  0.95189674  0.36476370  0.16234511  1.0
  Ni  Ni1142  1  0.95189674  0.69809704  0.16234511  1.0
  Ni  Ni1143  1  0.16618245  0.22190656  0.23377368  1.0
  Ni  Ni1144  1  0.16618245  0.55523989  0.23377368  1.0
  Ni  Ni1145  1  0.16618245  0.88857323  0.23377368  1.0
  Ni  Ni1146  1  0.49951579  0.22190656  0.23377368  1.0
  Ni  Ni1147  1  0.49951579  0.55523989  0.23377368  1.0
  Ni  Ni1148  1  0.49951579  0.88857323  0.23377368  1.0
  Ni  Ni1149  1  0.83284912  0.22190656  0.23377368  1.0
  Ni  Ni1150  1  0.83284912  0.55523989  0.23377368  1.0
  Ni  Ni1151  1  0.83284912  0.88857323  0.23377368  1.0
  Ni  Ni1152  1  0.33075598  0.10989599  0.26163396  1.0
  Ni  Ni1153  1  0.33075598  0.44322932  0.26163396  1.0
  Ni  Ni1154  1  0.33075598  0.77656265  0.26163396  1.0
  Ni  Ni1155  1  0.66408931  0.10989599  0.26163396  1.0
  Ni  Ni1156  1  0.66408931  0.44322932  0.26163396  1.0
  Ni  Ni1157  1  0.66408931  0.77656265  0.26163396  1.0
  Ni  Ni1158  1  0.99742264  0.10989599  0.26163396  1.0
  Ni  Ni1159  1  0.99742264  0.44322932  0.26163396  1.0
  Ni  Ni1160  1  0.99742264  0.77656265  0.26163396  1.0
  Ni  Ni1161  1  0.11647026  0.25275313  0.19020539  1.0
  Ni  Ni1162  1  0.11647026  0.58608646  0.19020539  1.0
  Ni  Ni1163  1  0.11647026  0.91941980  0.19020539  1.0
  Ni  Ni1164  1  0.44980360  0.25275313  0.19020539  1.0
  Ni  Ni1165  1  0.44980360  0.58608646  0.19020539  1.0
  Ni  Ni1166  1  0.44980360  0.91941980  0.19020539  1.0
  Ni  Ni1167  1  0.78313693  0.25275313  0.19020539  1.0
  Ni  Ni1168  1  0.78313693  0.58608646  0.19020539  1.0
  Ni  Ni1169  1  0.78313693  0.91941980  0.19020539  1.0
  Ni  Ni1170  1  0.27931900  0.30831608  0.20192275  1.0
  Ni  Ni1171  1  0.27931900  0.64164942  0.20192275  1.0
  Ni  Ni1172  1  0.27931900  0.97498275  0.20192275  1.0
  Ni  Ni1173  1  0.61265233  0.30831608  0.20192275  1.0
  Ni  Ni1174  1  0.61265233  0.64164942  0.20192275  1.0
  Ni  Ni1175  1  0.61265233  0.97498275  0.20192275  1.0
  Ni  Ni1176  1  0.94598567  0.30831608  0.20192275  1.0
  Ni  Ni1177  1  0.94598567  0.64164942  0.20192275  1.0
  Ni  Ni1178  1  0.94598567  0.97498275  0.20192275  1.0
  Ni  Ni1179  1  0.16027138  0.16545894  0.27335132  1.0
  Ni  Ni1180  1  0.16027138  0.49879227  0.27335132  1.0
  Ni  Ni1181  1  0.16027138  0.83212561  0.27335132  1.0
  Ni  Ni1182  1  0.49360471  0.16545894  0.27335132  1.0
  Ni  Ni1183  1  0.49360471  0.49879227  0.27335132  1.0
  Ni  Ni1184  1  0.49360471  0.83212561  0.27335132  1.0
  Ni  Ni1185  1  0.82693805  0.16545894  0.27335132  1.0
  Ni  Ni1186  1  0.82693805  0.49879227  0.27335132  1.0
  Ni  Ni1187  1  0.82693805  0.83212561  0.27335132  1.0
  Ni  Ni1188  1  0.06989779  0.11828223  0.35484668  1.0
  Ni  Ni1189  1  0.06989779  0.45161556  0.35484668  1.0
  Ni  Ni1190  1  0.06989779  0.78494889  0.35484668  1.0
  Ni  Ni1191  1  0.40323112  0.11828223  0.35484668  1.0
  Ni  Ni1192  1  0.40323112  0.45161556  0.35484668  1.0
  Ni  Ni1193  1  0.40323112  0.78494889  0.35484668  1.0
  Ni  Ni1194  1  0.73656445  0.11828223  0.35484668  1.0
  Ni  Ni1195  1  0.73656445  0.45161556  0.35484668  1.0
  Ni  Ni1196  1  0.73656445  0.78494889  0.35484668  1.0
  Ni  Ni1197  1  0.28418350  0.30875842  0.42627525  1.0
  Ni  Ni1198  1  0.28418350  0.64209175  0.42627525  1.0
  Ni  Ni1199  1  0.28418350  0.97542508  0.42627525  1.0
  Ni  Ni1200  1  0.61751683  0.30875842  0.42627525  1.0
  Ni  Ni1201  1  0.61751683  0.64209175  0.42627525  1.0
  Ni  Ni1202  1  0.61751683  0.97542508  0.42627525  1.0
  Ni  Ni1203  1  0.95085017  0.30875842  0.42627525  1.0
  Ni  Ni1204  1  0.95085017  0.64209175  0.42627525  1.0
  Ni  Ni1205  1  0.95085017  0.97542508  0.42627525  1.0
  Ni  Ni1206  1  0.00419188  0.20122994  0.29140782  1.0
  Ni  Ni1207  1  0.00419188  0.53456327  0.29140782  1.0
  Ni  Ni1208  1  0.00419188  0.86789661  0.29140782  1.0
  Ni  Ni1209  1  0.33752521  0.20122994  0.29140782  1.0
  Ni  Ni1210  1  0.33752521  0.53456327  0.29140782  1.0
  Ni  Ni1211  1  0.33752521  0.86789661  0.29140782  1.0
  Ni  Ni1212  1  0.67085855  0.20122994  0.29140782  1.0
  Ni  Ni1213  1  0.67085855  0.53456327  0.29140782  1.0
  Ni  Ni1214  1  0.67085855  0.86789661  0.29140782  1.0
  Ni  Ni1215  1  0.21847760  0.05837280  0.36283639  1.0
  Ni  Ni1216  1  0.21847760  0.39170613  0.36283639  1.0
  Ni  Ni1217  1  0.21847760  0.72503946  0.36283639  1.0
  Ni  Ni1218  1  0.55181093  0.05837280  0.36283639  1.0
  Ni  Ni1219  1  0.55181093  0.39170613  0.36283639  1.0
  Ni  Ni1220  1  0.55181093  0.72503946  0.36283639  1.0
  Ni  Ni1221  1  0.88514426  0.05837280  0.36283639  1.0
  Ni  Ni1222  1  0.88514426  0.39170613  0.36283639  1.0
  Ni  Ni1223  1  0.88514426  0.72503946  0.36283639  1.0
  Ni  Ni1224  1  0.13560369  0.03533451  0.41828554  1.0
  Ni  Ni1225  1  0.13560369  0.36866785  0.41828554  1.0
  Ni  Ni1226  1  0.13560369  0.70200118  0.41828554  1.0
  Ni  Ni1227  1  0.46893702  0.03533451  0.41828554  1.0
  Ni  Ni1228  1  0.46893702  0.36866785  0.41828554  1.0
  Ni  Ni1229  1  0.46893702  0.70200118  0.41828554  1.0
  Ni  Ni1230  1  0.80227036  0.03533451  0.41828554  1.0
  Ni  Ni1231  1  0.80227036  0.36866785  0.41828554  1.0
  Ni  Ni1232  1  0.80227036  0.70200118  0.41828554  1.0
  Ni  Ni1233  1  0.25465131  0.17819165  0.34685696  1.0
  Ni  Ni1234  1  0.25465131  0.51152499  0.34685696  1.0
  Ni  Ni1235  1  0.25465131  0.84485832  0.34685696  1.0
  Ni  Ni1236  1  0.58798464  0.17819165  0.34685696  1.0
  Ni  Ni1237  1  0.58798464  0.51152499  0.34685696  1.0
  Ni  Ni1238  1  0.58798464  0.84485832  0.34685696  1.0
  Ni  Ni1239  1  0.92131798  0.17819165  0.34685696  1.0
  Ni  Ni1240  1  0.92131798  0.51152499  0.34685696  1.0
  Ni  Ni1241  1  0.92131798  0.84485832  0.34685696  1.0
  Ni  Ni1242  1  0.02725726  0.15477080  0.40025339  1.0
  Ni  Ni1243  1  0.02725726  0.48810413  0.40025339  1.0
  Ni  Ni1244  1  0.02725726  0.82143746  0.40025339  1.0
  Ni  Ni1245  1  0.36059060  0.15477080  0.40025339  1.0
  Ni  Ni1246  1  0.36059060  0.48810413  0.40025339  1.0
  Ni  Ni1247  1  0.36059060  0.82143746  0.40025339  1.0
  Ni  Ni1248  1  0.69392393  0.15477080  0.40025339  1.0
  Ni  Ni1249  1  0.69392393  0.48810413  0.40025339  1.0
  Ni  Ni1250  1  0.69392393  0.82143746  0.40025339  1.0
  Ni  Ni1251  1  0.14630488  0.29762794  0.32882482  1.0
  Ni  Ni1252  1  0.14630488  0.63096127  0.32882482  1.0
  Ni  Ni1253  1  0.14630488  0.96429461  0.32882482  1.0
  Ni  Ni1254  1  0.47963821  0.29762794  0.32882482  1.0
  Ni  Ni1255  1  0.47963821  0.63096127  0.32882482  1.0
  Ni  Ni1256  1  0.47963821  0.96429461  0.32882482  1.0
  Ni  Ni1257  1  0.81297155  0.29762794  0.32882482  1.0
  Ni  Ni1258  1  0.81297155  0.63096127  0.32882482  1.0
  Ni  Ni1259  1  0.81297155  0.96429461  0.32882482  1.0
  Ni  Ni1260  1  0.11253831  0.08179365  0.30943996  1.0
  Ni  Ni1261  1  0.11253831  0.41512699  0.30943996  1.0
  Ni  Ni1262  1  0.11253831  0.74846032  0.30943996  1.0
  Ni  Ni1263  1  0.44587164  0.08179365  0.30943996  1.0
  Ni  Ni1264  1  0.44587164  0.41512699  0.30943996  1.0
  Ni  Ni1265  1  0.44587164  0.74846032  0.30943996  1.0
  Ni  Ni1266  1  0.77920498  0.08179365  0.30943996  1.0
  Ni  Ni1267  1  0.77920498  0.41512699  0.30943996  1.0
  Ni  Ni1268  1  0.77920498  0.74846032  0.30943996  1.0
  Ni  Ni1269  1  0.32682402  0.27226985  0.38086854  1.0
  Ni  Ni1270  1  0.32682402  0.60560318  0.38086854  1.0
  Ni  Ni1271  1  0.32682402  0.93893651  0.38086854  1.0
  Ni  Ni1272  1  0.66015736  0.27226985  0.38086854  1.0
  Ni  Ni1273  1  0.66015736  0.60560318  0.38086854  1.0
  Ni  Ni1274  1  0.66015736  0.93893651  0.38086854  1.0
  Ni  Ni1275  1  0.99349069  0.27226985  0.38086854  1.0
  Ni  Ni1276  1  0.99349069  0.60560318  0.38086854  1.0
  Ni  Ni1277  1  0.99349069  0.93893651  0.38086854  1.0
  Ni  Ni1278  1  0.25312621  0.06637394  0.30567282  1.0
  Ni  Ni1279  1  0.25312621  0.39970727  0.30567282  1.0
  Ni  Ni1280  1  0.25312621  0.73304061  0.30567282  1.0
  Ni  Ni1281  1  0.58645955  0.06637394  0.30567282  1.0
  Ni  Ni1282  1  0.58645955  0.39970727  0.30567282  1.0
  Ni  Ni1283  1  0.58645955  0.73304061  0.30567282  1.0
  Ni  Ni1284  1  0.91979288  0.06637394  0.30567282  1.0
  Ni  Ni1285  1  0.91979288  0.39970727  0.30567282  1.0
  Ni  Ni1286  1  0.91979288  0.73304061  0.30567282  1.0
  Ni  Ni1287  1  0.13407860  0.25685013  0.37710139  1.0
  Ni  Ni1288  1  0.13407860  0.59018346  0.37710139  1.0
  Ni  Ni1289  1  0.13407860  0.92351680  0.37710139  1.0
  Ni  Ni1290  1  0.46741193  0.25685013  0.37710139  1.0
  Ni  Ni1291  1  0.46741193  0.59018346  0.37710139  1.0
  Ni  Ni1292  1  0.46741193  0.92351680  0.37710139  1.0
  Ni  Ni1293  1  0.80074526  0.25685013  0.37710139  1.0
  Ni  Ni1294  1  0.80074526  0.59018346  0.37710139  1.0
  Ni  Ni1295  1  0.80074526  0.92351680  0.37710139  1.0
  Ni  Ni1296  1  0.22000269  0.17019051  0.40402054  1.0
  Ni  Ni1297  1  0.22000269  0.50352385  0.40402054  1.0
  Ni  Ni1298  1  0.22000269  0.83685718  0.40402054  1.0
  Ni  Ni1299  1  0.55333602  0.17019051  0.40402054  1.0
  Ni  Ni1300  1  0.55333602  0.50352385  0.40402054  1.0
  Ni  Ni1301  1  0.55333602  0.83685718  0.40402054  1.0
  Ni  Ni1302  1  0.88666936  0.17019051  0.40402054  1.0
  Ni  Ni1303  1  0.88666936  0.50352385  0.40402054  1.0
  Ni  Ni1304  1  0.88666936  0.83685718  0.40402054  1.0
  Ni  Ni1305  1  0.00571698  0.31304765  0.33259196  1.0
  Ni  Ni1306  1  0.00571698  0.64638099  0.33259196  1.0
  Ni  Ni1307  1  0.00571698  0.97971432  0.33259196  1.0
  Ni  Ni1308  1  0.33905031  0.31304765  0.33259196  1.0
  Ni  Ni1309  1  0.33905031  0.64638099  0.33259196  1.0
  Ni  Ni1310  1  0.33905031  0.97971432  0.33259196  1.0
  Ni  Ni1311  1  0.67238364  0.31304765  0.33259196  1.0
  Ni  Ni1312  1  0.67238364  0.64638099  0.33259196  1.0
  Ni  Ni1313  1  0.67238364  0.97971432  0.33259196  1.0
  Ni  Ni1314  1  0.09857181  0.21396265  0.36491346  1.0
  Ni  Ni1315  1  0.09857181  0.54729599  0.36491346  1.0
  Ni  Ni1316  1  0.09857181  0.88062932  0.36491346  1.0
  Ni  Ni1317  1  0.43190514  0.21396265  0.36491346  1.0
  Ni  Ni1318  1  0.43190514  0.54729599  0.36491346  1.0
  Ni  Ni1319  1  0.43190514  0.88062932  0.36491346  1.0
  Ni  Ni1320  1  0.76523848  0.21396265  0.36491346  1.0
  Ni  Ni1321  1  0.76523848  0.54729599  0.36491346  1.0
  Ni  Ni1322  1  0.76523848  0.88062932  0.36491346  1.0
  Ni  Ni1323  1  0.21761943  0.02348646  0.29348489  1.0
  Ni  Ni1324  1  0.21761943  0.35681980  0.29348489  1.0
  Ni  Ni1325  1  0.21761943  0.69015313  0.29348489  1.0
  Ni  Ni1326  1  0.55095276  0.02348646  0.29348489  1.0
  Ni  Ni1327  1  0.55095276  0.35681980  0.29348489  1.0
  Ni  Ni1328  1  0.55095276  0.69015313  0.29348489  1.0
  Ni  Ni1329  1  0.88428610  0.02348646  0.29348489  1.0
  Ni  Ni1330  1  0.88428610  0.35681980  0.29348489  1.0
  Ni  Ni1331  1  0.88428610  0.69015313  0.29348489  1.0
  Ni  Ni1332  1  0.29712012  0.14761623  0.39470168  1.0
  Ni  Ni1333  1  0.29712012  0.48094956  0.39470168  1.0
  Ni  Ni1334  1  0.29712012  0.81428289  0.39470168  1.0
  Ni  Ni1335  1  0.63045345  0.14761623  0.39470168  1.0
  Ni  Ni1336  1  0.63045345  0.48094956  0.39470168  1.0
  Ni  Ni1337  1  0.63045345  0.81428289  0.39470168  1.0
  Ni  Ni1338  1  0.96378679  0.14761623  0.39470168  1.0
  Ni  Ni1339  1  0.96378679  0.48094956  0.39470168  1.0
  Ni  Ni1340  1  0.96378679  0.81428289  0.39470168  1.0
  Ni  Ni1341  1  0.08283440  0.29047337  0.32327311  1.0
  Ni  Ni1342  1  0.08283440  0.62380670  0.32327311  1.0
  Ni  Ni1343  1  0.08283440  0.95714004  0.32327311  1.0
  Ni  Ni1344  1  0.41616774  0.29047337  0.32327311  1.0
  Ni  Ni1345  1  0.41616774  0.62380670  0.32327311  1.0
  Ni  Ni1346  1  0.41616774  0.95714004  0.32327311  1.0
  Ni  Ni1347  1  0.74950107  0.29047337  0.32327311  1.0
  Ni  Ni1348  1  0.74950107  0.62380670  0.32327311  1.0
  Ni  Ni1349  1  0.74950107  0.95714004  0.32327311  1.0
  Ni  Ni1350  1  0.17600879  0.08894823  0.31499168  1.0
  Ni  Ni1351  1  0.17600879  0.42228156  0.31499168  1.0
  Ni  Ni1352  1  0.17600879  0.75561489  0.31499168  1.0
  Ni  Ni1353  1  0.50934212  0.08894823  0.31499168  1.0
  Ni  Ni1354  1  0.50934212  0.42228156  0.31499168  1.0
  Ni  Ni1355  1  0.50934212  0.75561489  0.31499168  1.0
  Ni  Ni1356  1  0.84267545  0.08894823  0.31499168  1.0
  Ni  Ni1357  1  0.84267545  0.42228156  0.31499168  1.0
  Ni  Ni1358  1  0.84267545  0.75561489  0.31499168  1.0
  Ni  Ni1359  1  0.05696117  0.27942442  0.38642025  1.0
  Ni  Ni1360  1  0.05696117  0.61275775  0.38642025  1.0
  Ni  Ni1361  1  0.05696117  0.94609108  0.38642025  1.0
  Ni  Ni1362  1  0.39029450  0.27942442  0.38642025  1.0
  Ni  Ni1363  1  0.39029450  0.61275775  0.38642025  1.0
  Ni  Ni1364  1  0.39029450  0.94609108  0.38642025  1.0
  Ni  Ni1365  1  0.72362783  0.27942442  0.38642025  1.0
  Ni  Ni1366  1  0.72362783  0.61275775  0.38642025  1.0
  Ni  Ni1367  1  0.72362783  0.94609108  0.38642025  1.0
  Ni  Ni1368  1  0.28931995  0.11175823  0.32653318  1.0
  Ni  Ni1369  1  0.28931995  0.44509156  0.32653318  1.0
  Ni  Ni1370  1  0.28931995  0.77842489  0.32653318  1.0
  Ni  Ni1371  1  0.62265329  0.11175823  0.32653318  1.0
  Ni  Ni1372  1  0.62265329  0.44509156  0.32653318  1.0
  Ni  Ni1373  1  0.62265329  0.77842489  0.32653318  1.0
  Ni  Ni1374  1  0.95598662  0.11175823  0.32653318  1.0
  Ni  Ni1375  1  0.95598662  0.44509156  0.32653318  1.0
  Ni  Ni1376  1  0.95598662  0.77842489  0.32653318  1.0
  Ni  Ni1377  1  0.17027233  0.30223442  0.39796175  1.0
  Ni  Ni1378  1  0.17027233  0.63556775  0.39796175  1.0
  Ni  Ni1379  1  0.17027233  0.96890108  0.39796175  1.0
  Ni  Ni1380  1  0.50360567  0.30223442  0.39796175  1.0
  Ni  Ni1381  1  0.50360567  0.63556775  0.39796175  1.0
  Ni  Ni1382  1  0.50360567  0.96890108  0.39796175  1.0
  Ni  Ni1383  1  0.83693900  0.30223442  0.39796175  1.0
  Ni  Ni1384  1  0.83693900  0.63556775  0.39796175  1.0
  Ni  Ni1385  1  0.83693900  0.96890108  0.39796175  1.0
  Ni  Ni1386  1  0.18380895  0.12480623  0.38316018  1.0
  Ni  Ni1387  1  0.18380895  0.45813956  0.38316018  1.0
  Ni  Ni1388  1  0.18380895  0.79147289  0.38316018  1.0
  Ni  Ni1389  1  0.51714229  0.12480623  0.38316018  1.0
  Ni  Ni1390  1  0.51714229  0.45813956  0.38316018  1.0
  Ni  Ni1391  1  0.51714229  0.79147289  0.38316018  1.0
  Ni  Ni1392  1  0.85047562  0.12480623  0.38316018  1.0
  Ni  Ni1393  1  0.85047562  0.45813956  0.38316018  1.0
  Ni  Ni1394  1  0.85047562  0.79147289  0.38316018  1.0
  Ni  Ni1395  1  0.30285657  0.26766337  0.31173161  1.0
  Ni  Ni1396  1  0.30285657  0.60099670  0.31173161  1.0
  Ni  Ni1397  1  0.30285657  0.93433004  0.31173161  1.0
  Ni  Ni1398  1  0.63618990  0.26766337  0.31173161  1.0
  Ni  Ni1399  1  0.63618990  0.60099670  0.31173161  1.0
  Ni  Ni1400  1  0.63618990  0.93433004  0.31173161  1.0
  Ni  Ni1401  1  0.96952324  0.26766337  0.31173161  1.0
  Ni  Ni1402  1  0.96952324  0.60099670  0.31173161  1.0
  Ni  Ni1403  1  0.96952324  0.93433004  0.31173161  1.0
  Ni  Ni1404  1  0.00306338  0.14513094  0.33109932  1.0
  Ni  Ni1405  1  0.00306338  0.47846427  0.33109932  1.0
  Ni  Ni1406  1  0.00306338  0.81179761  0.33109932  1.0
  Ni  Ni1407  1  0.33639671  0.14513094  0.33109932  1.0
  Ni  Ni1408  1  0.33639671  0.47846427  0.33109932  1.0
  Ni  Ni1409  1  0.33639671  0.81179761  0.33109932  1.0
  Ni  Ni1410  1  0.66973005  0.14513094  0.33109932  1.0
  Ni  Ni1411  1  0.66973005  0.47846427  0.33109932  1.0
  Ni  Ni1412  1  0.66973005  0.81179761  0.33109932  1.0
  Ni  Ni1413  1  0.21734910  0.00227380  0.40252789  1.0
  Ni  Ni1414  1  0.21734910  0.33560713  0.40252789  1.0
  Ni  Ni1415  1  0.21734910  0.66894046  0.40252789  1.0
  Ni  Ni1416  1  0.55068243  0.00227380  0.40252789  1.0
  Ni  Ni1417  1  0.55068243  0.33560713  0.40252789  1.0
  Ni  Ni1418  1  0.55068243  0.66894046  0.40252789  1.0
  Ni  Ni1419  1  0.88401576  0.00227380  0.40252789  1.0
  Ni  Ni1420  1  0.88401576  0.33560713  0.40252789  1.0
  Ni  Ni1421  1  0.88401576  0.66894046  0.40252789  1.0
  Ni  Ni1422  1  0.13673219  0.09143351  0.37859404  1.0
  Ni  Ni1423  1  0.13673219  0.42476685  0.37859404  1.0
  Ni  Ni1424  1  0.13673219  0.75810018  0.37859404  1.0
  Ni  Ni1425  1  0.47006552  0.09143351  0.37859404  1.0
  Ni  Ni1426  1  0.47006552  0.42476685  0.37859404  1.0
  Ni  Ni1427  1  0.47006552  0.75810018  0.37859404  1.0
  Ni  Ni1428  1  0.80339886  0.09143351  0.37859404  1.0
  Ni  Ni1429  1  0.80339886  0.42476685  0.37859404  1.0
  Ni  Ni1430  1  0.80339886  0.75810018  0.37859404  1.0
  Ni  Ni1431  1  0.25577981  0.23429065  0.30716546  1.0
  Ni  Ni1432  1  0.25577981  0.56762399  0.30716546  1.0
  Ni  Ni1433  1  0.25577981  0.90095732  0.30716546  1.0
  Ni  Ni1434  1  0.58911314  0.23429065  0.30716546  1.0
  Ni  Ni1435  1  0.58911314  0.56762399  0.30716546  1.0
  Ni  Ni1436  1  0.58911314  0.90095732  0.30716546  1.0
  Ni  Ni1437  1  0.92244648  0.23429065  0.30716546  1.0
  Ni  Ni1438  1  0.92244648  0.56762399  0.30716546  1.0
  Ni  Ni1439  1  0.92244648  0.90095732  0.30716546  1.0
  Ni  Ni1440  1  0.04993929  0.18144289  0.34709318  1.0
  Ni  Ni1441  1  0.04993929  0.51477623  0.34709318  1.0
  Ni  Ni1442  1  0.04993929  0.84810956  0.34709318  1.0
  Ni  Ni1443  1  0.38327262  0.18144289  0.34709318  1.0
  Ni  Ni1444  1  0.38327262  0.51477623  0.34709318  1.0
  Ni  Ni1445  1  0.38327262  0.84810956  0.34709318  1.0
  Ni  Ni1446  1  0.71660595  0.18144289  0.34709318  1.0
  Ni  Ni1447  1  0.71660595  0.51477623  0.34709318  1.0
  Ni  Ni1448  1  0.71660595  0.84810956  0.34709318  1.0
  Ni  Ni1449  1  0.26422500  0.03858575  0.41852175  1.0
  Ni  Ni1450  1  0.26422500  0.37191908  0.41852175  1.0
  Ni  Ni1451  1  0.26422500  0.70525242  0.41852175  1.0
  Ni  Ni1452  1  0.59755833  0.03858575  0.41852175  1.0
  Ni  Ni1453  1  0.59755833  0.37191908  0.41852175  1.0
  Ni  Ni1454  1  0.59755833  0.70525242  0.41852175  1.0
  Ni  Ni1455  1  0.93089167  0.03858575  0.41852175  1.0
  Ni  Ni1456  1  0.93089167  0.37191908  0.41852175  1.0
  Ni  Ni1457  1  0.93089167  0.70525242  0.41852175  1.0
  Ni  Ni1458  1  0.08985629  0.05512156  0.36260018  1.0
  Ni  Ni1459  1  0.08985629  0.38845489  0.36260018  1.0
  Ni  Ni1460  1  0.08985629  0.72178823  0.36260018  1.0
  Ni  Ni1461  1  0.42318962  0.05512156  0.36260018  1.0
  Ni  Ni1462  1  0.42318962  0.38845489  0.36260018  1.0
  Ni  Ni1463  1  0.42318962  0.72178823  0.36260018  1.0
  Ni  Ni1464  1  0.75652295  0.05512156  0.36260018  1.0
  Ni  Ni1465  1  0.75652295  0.38845489  0.36260018  1.0
  Ni  Ni1466  1  0.75652295  0.72178823  0.36260018  1.0
  Ni  Ni1467  1  0.20890390  0.19797870  0.29117161  1.0
  Ni  Ni1468  1  0.20890390  0.53131204  0.29117161  1.0
  Ni  Ni1469  1  0.20890390  0.86464537  0.29117161  1.0
  Ni  Ni1470  1  0.54223724  0.19797870  0.29117161  1.0
  Ni  Ni1471  1  0.54223724  0.53131204  0.29117161  1.0
  Ni  Ni1472  1  0.54223724  0.86464537  0.29117161  1.0
  Ni  Ni1473  1  0.87557057  0.19797870  0.29117161  1.0
  Ni  Ni1474  1  0.87557057  0.53131204  0.29117161  1.0
  Ni  Ni1475  1  0.87557057  0.86464537  0.29117161  1.0
  Ni  Ni1476  1  0.08566781  0.19278365  0.28801046  1.0
  Ni  Ni1477  1  0.08566781  0.52611699  0.28801046  1.0
  Ni  Ni1478  1  0.08566781  0.85945032  0.28801046  1.0
  Ni  Ni1479  1  0.41900114  0.19278365  0.28801046  1.0
  Ni  Ni1480  1  0.41900114  0.52611699  0.28801046  1.0
  Ni  Ni1481  1  0.41900114  0.85945032  0.28801046  1.0
  Ni  Ni1482  1  0.75233448  0.19278365  0.28801046  1.0
  Ni  Ni1483  1  0.75233448  0.52611699  0.28801046  1.0
  Ni  Ni1484  1  0.75233448  0.85945032  0.28801046  1.0
  Ni  Ni1485  1  0.29995352  0.04992651  0.35943904  1.0
  Ni  Ni1486  1  0.29995352  0.38325985  0.35943904  1.0
  Ni  Ni1487  1  0.29995352  0.71659318  0.35943904  1.0
  Ni  Ni1488  1  0.63328686  0.04992651  0.35943904  1.0
  Ni  Ni1489  1  0.63328686  0.38325985  0.35943904  1.0
  Ni  Ni1490  1  0.63328686  0.71659318  0.35943904  1.0
  Ni  Ni1491  1  0.96662019  0.04992651  0.35943904  1.0
  Ni  Ni1492  1  0.96662019  0.38325985  0.35943904  1.0
  Ni  Ni1493  1  0.96662019  0.71659318  0.35943904  1.0
  Ni  Ni1494  1  0.05412776  0.04378080  0.42168289  1.0
  Ni  Ni1495  1  0.05412776  0.37711413  0.42168289  1.0
  Ni  Ni1496  1  0.05412776  0.71044746  0.42168289  1.0
  Ni  Ni1497  1  0.38746110  0.04378080  0.42168289  1.0
  Ni  Ni1498  1  0.38746110  0.37711413  0.42168289  1.0
  Ni  Ni1499  1  0.38746110  0.71044746  0.42168289  1.0
  Ni  Ni1500  1  0.72079443  0.04378080  0.42168289  1.0
  Ni  Ni1501  1  0.72079443  0.37711413  0.42168289  1.0
  Ni  Ni1502  1  0.72079443  0.71044746  0.42168289  1.0
  Ni  Ni1503  1  0.17317538  0.18663794  0.35025432  1.0
  Ni  Ni1504  1  0.17317538  0.51997127  0.35025432  1.0
  Ni  Ni1505  1  0.17317538  0.85330461  0.35025432  1.0
  Ni  Ni1506  1  0.50650871  0.18663794  0.35025432  1.0
  Ni  Ni1507  1  0.50650871  0.51997127  0.35025432  1.0
  Ni  Ni1508  1  0.50650871  0.85330461  0.35025432  1.0
  Ni  Ni1509  1  0.83984205  0.18663794  0.35025432  1.0
  Ni  Ni1510  1  0.83984205  0.51997127  0.35025432  1.0
  Ni  Ni1511  1  0.83984205  0.85330461  0.35025432  1.0
  Ni  Ni1512  1  0.04713483  0.07904942  0.30520225  1.0
  Ni  Ni1513  1  0.04713483  0.41238275  0.30520225  1.0
  Ni  Ni1514  1  0.04713483  0.74571608  0.30520225  1.0
  Ni  Ni1515  1  0.38046817  0.07904942  0.30520225  1.0
  Ni  Ni1516  1  0.38046817  0.41238275  0.30520225  1.0
  Ni  Ni1517  1  0.38046817  0.74571608  0.30520225  1.0
  Ni  Ni1518  1  0.71380150  0.07904942  0.30520225  1.0
  Ni  Ni1519  1  0.71380150  0.41238275  0.30520225  1.0
  Ni  Ni1520  1  0.71380150  0.74571608  0.30520225  1.0
  Ni  Ni1521  1  0.26142055  0.26952561  0.37663082  1.0
  Ni  Ni1522  1  0.26142055  0.60285894  0.37663082  1.0
  Ni  Ni1523  1  0.26142055  0.93619227  0.37663082  1.0
  Ni  Ni1524  1  0.59475388  0.26952561  0.37663082  1.0
  Ni  Ni1525  1  0.59475388  0.60285894  0.37663082  1.0
  Ni  Ni1526  1  0.59475388  0.93619227  0.37663082  1.0
  Ni  Ni1527  1  0.92808721  0.26952561  0.37663082  1.0
  Ni  Ni1528  1  0.92808721  0.60285894  0.37663082  1.0
  Ni  Ni1529  1  0.92808721  0.93619227  0.37663082  1.0
  Ni  Ni1530  1  0.09266074  0.15751504  0.40449111  1.0
  Ni  Ni1531  1  0.09266074  0.49084837  0.40449111  1.0
  Ni  Ni1532  1  0.09266074  0.82418170  0.40449111  1.0
  Ni  Ni1533  1  0.42599407  0.15751504  0.40449111  1.0
  Ni  Ni1534  1  0.42599407  0.49084837  0.40449111  1.0
  Ni  Ni1535  1  0.42599407  0.82418170  0.40449111  1.0
  Ni  Ni1536  1  0.75932740  0.15751504  0.40449111  1.0
  Ni  Ni1537  1  0.75932740  0.49084837  0.40449111  1.0
  Ni  Ni1538  1  0.75932740  0.82418170  0.40449111  1.0
  Ni  Ni1539  1  0.21170836  0.30037218  0.33306254  1.0
  Ni  Ni1540  1  0.21170836  0.63370551  0.33306254  1.0
  Ni  Ni1541  1  0.21170836  0.96703885  0.33306254  1.0
  Ni  Ni1542  1  0.54504169  0.30037218  0.33306254  1.0
  Ni  Ni1543  1  0.54504169  0.63370551  0.33306254  1.0
  Ni  Ni1544  1  0.54504169  0.96703885  0.33306254  1.0
  Ni  Ni1545  1  0.87837502  0.30037218  0.33306254  1.0
  Ni  Ni1546  1  0.87837502  0.63370551  0.33306254  1.0
  Ni  Ni1547  1  0.87837502  0.96703885  0.33306254  1.0
  Ni  Ni1548  1  0.04122376  0.02260180  0.34477989  1.0
  Ni  Ni1549  1  0.04122376  0.35593513  0.34477989  1.0
  Ni  Ni1550  1  0.04122376  0.68926846  0.34477989  1.0
  Ni  Ni1551  1  0.37455710  0.02260180  0.34477989  1.0
  Ni  Ni1552  1  0.37455710  0.35593513  0.34477989  1.0
  Ni  Ni1553  1  0.37455710  0.68926846  0.34477989  1.0
  Ni  Ni1554  1  0.70789043  0.02260180  0.34477989  1.0
  Ni  Ni1555  1  0.70789043  0.35593513  0.34477989  1.0
  Ni  Ni1556  1  0.70789043  0.68926846  0.34477989  1.0
  Ni  Ni1557  1  0.25550948  0.21307799  0.41620846  1.0
  Ni  Ni1558  1  0.25550948  0.54641132  0.41620846  1.0
  Ni  Ni1559  1  0.25550948  0.87974465  0.41620846  1.0
  Ni  Ni1560  1  0.58884281  0.21307799  0.41620846  1.0
  Ni  Ni1561  1  0.58884281  0.54641132  0.41620846  1.0
  Ni  Ni1562  1  0.58884281  0.87974465  0.41620846  1.0
  Ni  Ni1563  1  0.92217614  0.21307799  0.41620846  1.0
  Ni  Ni1564  1  0.92217614  0.54641132  0.41620846  1.0
  Ni  Ni1565  1  0.92217614  0.87974465  0.41620846  1.0
