# generated using pymatgen
data_Hf8Ni21
_symmetry_space_group_name_H-M   'P 1'
_cell_length_a   23.95649223
_cell_length_b   37.42283416
_cell_length_c   34.11265564
_cell_angle_alpha   72.49553016
_cell_angle_beta   75.13001413
_cell_angle_gamma   94.73329951
_symmetry_Int_Tables_number   1
_chemical_formula_structural   Hf8Ni21
_chemical_formula_sum   'Hf288 Ni756'
_cell_volume   27763.37611864
_cell_formula_units_Z   36
loop_
 _symmetry_equiv_pos_site_id
 _symmetry_equiv_pos_as_xyz
  1  'x, y, z'
loop_
 _atom_site_type_symbol
 _atom_site_label
 _atom_site_symmetry_multiplicity
 _atom_site_fract_x
 _atom_site_fract_y
 _atom_site_fract_z
 _atom_site_occupancy
  Hf  Hf0  1  0.02100633  0.04116100  0.08332431  1.0
  Hf  Hf1  1  0.02100633  0.37449433  0.08332431  1.0
  Hf  Hf2  1  0.02100633  0.70782767  0.08332431  1.0
  Hf  Hf3  1  0.35433967  0.04116100  0.08332431  1.0
  Hf  Hf4  1  0.35433967  0.37449433  0.08332431  1.0
  Hf  Hf5  1  0.35433967  0.70782767  0.08332431  1.0
  Hf  Hf6  1  0.68767300  0.04116100  0.08332431  1.0
  Hf  Hf7  1  0.68767300  0.37449433  0.08332431  1.0
  Hf  Hf8  1  0.68767300  0.70782767  0.08332431  1.0
  Hf  Hf9  1  0.02100633  0.20782767  0.20832431  1.0
  Hf  Hf10  1  0.02100633  0.54116100  0.20832431  1.0
  Hf  Hf11  1  0.02100633  0.87449433  0.20832431  1.0
  Hf  Hf12  1  0.35433967  0.20782767  0.20832431  1.0
  Hf  Hf13  1  0.35433967  0.54116100  0.20832431  1.0
  Hf  Hf14  1  0.35433967  0.87449433  0.20832431  1.0
  Hf  Hf15  1  0.68767300  0.20782767  0.20832431  1.0
  Hf  Hf16  1  0.68767300  0.54116100  0.20832431  1.0
  Hf  Hf17  1  0.68767300  0.87449433  0.20832431  1.0
  Hf  Hf18  1  0.31232700  0.12550567  0.03717181  1.0
  Hf  Hf19  1  0.31232700  0.45883900  0.03717181  1.0
  Hf  Hf20  1  0.31232700  0.79217233  0.03717181  1.0
  Hf  Hf21  1  0.64566033  0.12550567  0.03717181  1.0
  Hf  Hf22  1  0.64566033  0.45883900  0.03717181  1.0
  Hf  Hf23  1  0.64566033  0.79217233  0.03717181  1.0
  Hf  Hf24  1  0.97899367  0.12550567  0.03717181  1.0
  Hf  Hf25  1  0.97899367  0.45883900  0.03717181  1.0
  Hf  Hf26  1  0.97899367  0.79217233  0.03717181  1.0
  Hf  Hf27  1  0.31232700  0.29217233  0.16217181  1.0
  Hf  Hf28  1  0.31232700  0.62550567  0.16217181  1.0
  Hf  Hf29  1  0.31232700  0.95883900  0.16217181  1.0
  Hf  Hf30  1  0.64566033  0.29217233  0.16217181  1.0
  Hf  Hf31  1  0.64566033  0.62550567  0.16217181  1.0
  Hf  Hf32  1  0.64566033  0.95883900  0.16217181  1.0
  Hf  Hf33  1  0.97899367  0.29217233  0.16217181  1.0
  Hf  Hf34  1  0.97899367  0.62550567  0.16217181  1.0
  Hf  Hf35  1  0.97899367  0.95883900  0.16217181  1.0
  Hf  Hf36  1  0.17887633  0.07186467  0.13017681  1.0
  Hf  Hf37  1  0.17887633  0.40519800  0.13017681  1.0
  Hf  Hf38  1  0.17887633  0.73853133  0.13017681  1.0
  Hf  Hf39  1  0.51220967  0.07186467  0.13017681  1.0
  Hf  Hf40  1  0.51220967  0.40519800  0.13017681  1.0
  Hf  Hf41  1  0.51220967  0.73853133  0.13017681  1.0
  Hf  Hf42  1  0.84554300  0.07186467  0.13017681  1.0
  Hf  Hf43  1  0.84554300  0.40519800  0.13017681  1.0
  Hf  Hf44  1  0.84554300  0.73853133  0.13017681  1.0
  Hf  Hf45  1  0.17887633  0.23853133  0.00517681  1.0
  Hf  Hf46  1  0.17887633  0.57186467  0.00517681  1.0
  Hf  Hf47  1  0.17887633  0.90519800  0.00517681  1.0
  Hf  Hf48  1  0.51220967  0.23853133  0.00517681  1.0
  Hf  Hf49  1  0.51220967  0.57186467  0.00517681  1.0
  Hf  Hf50  1  0.51220967  0.90519800  0.00517681  1.0
  Hf  Hf51  1  0.84554300  0.23853133  0.00517681  1.0
  Hf  Hf52  1  0.84554300  0.57186467  0.00517681  1.0
  Hf  Hf53  1  0.84554300  0.90519800  0.00517681  1.0
  Hf  Hf54  1  0.15445700  0.09480200  0.24031931  1.0
  Hf  Hf55  1  0.15445700  0.42813533  0.24031931  1.0
  Hf  Hf56  1  0.15445700  0.76146867  0.24031931  1.0
  Hf  Hf57  1  0.48779033  0.09480200  0.24031931  1.0
  Hf  Hf58  1  0.48779033  0.42813533  0.24031931  1.0
  Hf  Hf59  1  0.48779033  0.76146867  0.24031931  1.0
  Hf  Hf60  1  0.82112367  0.09480200  0.24031931  1.0
  Hf  Hf61  1  0.82112367  0.42813533  0.24031931  1.0
  Hf  Hf62  1  0.82112367  0.76146867  0.24031931  1.0
  Hf  Hf63  1  0.15445700  0.26146867  0.11531931  1.0
  Hf  Hf64  1  0.15445700  0.59480200  0.11531931  1.0
  Hf  Hf65  1  0.15445700  0.92813533  0.11531931  1.0
  Hf  Hf66  1  0.48779033  0.26146867  0.11531931  1.0
  Hf  Hf67  1  0.48779033  0.59480200  0.11531931  1.0
  Hf  Hf68  1  0.48779033  0.92813533  0.11531931  1.0
  Hf  Hf69  1  0.82112367  0.26146867  0.11531931  1.0
  Hf  Hf70  1  0.82112367  0.59480200  0.11531931  1.0
  Hf  Hf71  1  0.82112367  0.92813533  0.11531931  1.0
  Hf  Hf72  1  0.19889433  0.01162983  0.03540694  1.0
  Hf  Hf73  1  0.19889433  0.34496317  0.03540694  1.0
  Hf  Hf74  1  0.19889433  0.67829650  0.03540694  1.0
  Hf  Hf75  1  0.53222767  0.01162983  0.03540694  1.0
  Hf  Hf76  1  0.53222767  0.34496317  0.03540694  1.0
  Hf  Hf77  1  0.53222767  0.67829650  0.03540694  1.0
  Hf  Hf78  1  0.86556100  0.01162983  0.03540694  1.0
  Hf  Hf79  1  0.86556100  0.34496317  0.03540694  1.0
  Hf  Hf80  1  0.86556100  0.67829650  0.03540694  1.0
  Hf  Hf81  1  0.19889433  0.17829650  0.16040694  1.0
  Hf  Hf82  1  0.19889433  0.51162983  0.16040694  1.0
  Hf  Hf83  1  0.19889433  0.84496317  0.16040694  1.0
  Hf  Hf84  1  0.53222767  0.17829650  0.16040694  1.0
  Hf  Hf85  1  0.53222767  0.51162983  0.16040694  1.0
  Hf  Hf86  1  0.53222767  0.84496317  0.16040694  1.0
  Hf  Hf87  1  0.86556100  0.17829650  0.16040694  1.0
  Hf  Hf88  1  0.86556100  0.51162983  0.16040694  1.0
  Hf  Hf89  1  0.86556100  0.84496317  0.16040694  1.0
  Hf  Hf90  1  0.13443900  0.15503683  0.08508919  1.0
  Hf  Hf91  1  0.13443900  0.48837017  0.08508919  1.0
  Hf  Hf92  1  0.13443900  0.82170350  0.08508919  1.0
  Hf  Hf93  1  0.46777233  0.15503683  0.08508919  1.0
  Hf  Hf94  1  0.46777233  0.48837017  0.08508919  1.0
  Hf  Hf95  1  0.46777233  0.82170350  0.08508919  1.0
  Hf  Hf96  1  0.80110567  0.15503683  0.08508919  1.0
  Hf  Hf97  1  0.80110567  0.48837017  0.08508919  1.0
  Hf  Hf98  1  0.80110567  0.82170350  0.08508919  1.0
  Hf  Hf99  1  0.13443900  0.32170350  0.21008919  1.0
  Hf  Hf100  1  0.13443900  0.65503683  0.21008919  1.0
  Hf  Hf101  1  0.13443900  0.98837017  0.21008919  1.0
  Hf  Hf102  1  0.46777233  0.32170350  0.21008919  1.0
  Hf  Hf103  1  0.46777233  0.65503683  0.21008919  1.0
  Hf  Hf104  1  0.46777233  0.98837017  0.21008919  1.0
  Hf  Hf105  1  0.80110567  0.32170350  0.21008919  1.0
  Hf  Hf106  1  0.80110567  0.65503683  0.21008919  1.0
  Hf  Hf107  1  0.80110567  0.98837017  0.21008919  1.0
  Hf  Hf108  1  0.31258967  0.04130133  0.18995281  1.0
  Hf  Hf109  1  0.31258967  0.37463467  0.18995281  1.0
  Hf  Hf110  1  0.31258967  0.70796800  0.18995281  1.0
  Hf  Hf111  1  0.64592300  0.04130133  0.18995281  1.0
  Hf  Hf112  1  0.64592300  0.37463467  0.18995281  1.0
  Hf  Hf113  1  0.64592300  0.70796800  0.18995281  1.0
  Hf  Hf114  1  0.97925633  0.04130133  0.18995281  1.0
  Hf  Hf115  1  0.97925633  0.37463467  0.18995281  1.0
  Hf  Hf116  1  0.97925633  0.70796800  0.18995281  1.0
  Hf  Hf117  1  0.31258967  0.20796800  0.06495281  1.0
  Hf  Hf118  1  0.31258967  0.54130133  0.06495281  1.0
  Hf  Hf119  1  0.31258967  0.87463467  0.06495281  1.0
  Hf  Hf120  1  0.64592300  0.20796800  0.06495281  1.0
  Hf  Hf121  1  0.64592300  0.54130133  0.06495281  1.0
  Hf  Hf122  1  0.64592300  0.87463467  0.06495281  1.0
  Hf  Hf123  1  0.97925633  0.20796800  0.06495281  1.0
  Hf  Hf124  1  0.97925633  0.54130133  0.06495281  1.0
  Hf  Hf125  1  0.97925633  0.87463467  0.06495281  1.0
  Hf  Hf126  1  0.02074367  0.12536533  0.18054331  1.0
  Hf  Hf127  1  0.02074367  0.45869867  0.18054331  1.0
  Hf  Hf128  1  0.02074367  0.79203200  0.18054331  1.0
  Hf  Hf129  1  0.35407700  0.12536533  0.18054331  1.0
  Hf  Hf130  1  0.35407700  0.45869867  0.18054331  1.0
  Hf  Hf131  1  0.35407700  0.79203200  0.18054331  1.0
  Hf  Hf132  1  0.68741033  0.12536533  0.18054331  1.0
  Hf  Hf133  1  0.68741033  0.45869867  0.18054331  1.0
  Hf  Hf134  1  0.68741033  0.79203200  0.18054331  1.0
  Hf  Hf135  1  0.02074367  0.29203200  0.05554331  1.0
  Hf  Hf136  1  0.02074367  0.62536533  0.05554331  1.0
  Hf  Hf137  1  0.02074367  0.95869867  0.05554331  1.0
  Hf  Hf138  1  0.35407700  0.29203200  0.05554331  1.0
  Hf  Hf139  1  0.35407700  0.62536533  0.05554331  1.0
  Hf  Hf140  1  0.35407700  0.95869867  0.05554331  1.0
  Hf  Hf141  1  0.68741033  0.29203200  0.05554331  1.0
  Hf  Hf142  1  0.68741033  0.62536533  0.05554331  1.0
  Hf  Hf143  1  0.68741033  0.95869867  0.05554331  1.0
  Ni  Ni144  1  0.16666667  0.16666667  0.24774806  1.0
  Ni  Ni145  1  0.16666667  0.50000000  0.24774806  1.0
  Ni  Ni146  1  0.16666667  0.83333333  0.24774806  1.0
  Ni  Ni147  1  0.50000000  0.16666667  0.24774806  1.0
  Ni  Ni148  1  0.50000000  0.50000000  0.24774806  1.0
  Ni  Ni149  1  0.50000000  0.83333333  0.24774806  1.0
  Ni  Ni150  1  0.83333333  0.16666667  0.24774806  1.0
  Ni  Ni151  1  0.83333333  0.50000000  0.24774806  1.0
  Ni  Ni152  1  0.83333333  0.83333333  0.24774806  1.0
  Ni  Ni153  1  0.16666667  0.00000000  0.12274806  1.0
  Ni  Ni154  1  0.16666667  0.33333333  0.12274806  1.0
  Ni  Ni155  1  0.16666667  0.66666667  0.12274806  1.0
  Ni  Ni156  1  0.50000000  0.00000000  0.12274806  1.0
  Ni  Ni157  1  0.50000000  0.33333333  0.12274806  1.0
  Ni  Ni158  1  0.50000000  0.66666667  0.12274806  1.0
  Ni  Ni159  1  0.83333333  0.00000000  0.12274806  1.0
  Ni  Ni160  1  0.83333333  0.33333333  0.12274806  1.0
  Ni  Ni161  1  0.83333333  0.66666667  0.12274806  1.0
  Ni  Ni162  1  0.03915933  0.08094800  0.00152656  1.0
  Ni  Ni163  1  0.03915933  0.41428133  0.00152656  1.0
  Ni  Ni164  1  0.03915933  0.74761467  0.00152656  1.0
  Ni  Ni165  1  0.37249267  0.08094800  0.00152656  1.0
  Ni  Ni166  1  0.37249267  0.41428133  0.00152656  1.0
  Ni  Ni167  1  0.37249267  0.74761467  0.00152656  1.0
  Ni  Ni168  1  0.70582600  0.08094800  0.00152656  1.0
  Ni  Ni169  1  0.70582600  0.41428133  0.00152656  1.0
  Ni  Ni170  1  0.70582600  0.74761467  0.00152656  1.0
  Ni  Ni171  1  0.03915933  0.24761467  0.12652656  1.0
  Ni  Ni172  1  0.03915933  0.58094800  0.12652656  1.0
  Ni  Ni173  1  0.03915933  0.91428133  0.12652656  1.0
  Ni  Ni174  1  0.37249267  0.24761467  0.12652656  1.0
  Ni  Ni175  1  0.37249267  0.58094800  0.12652656  1.0
  Ni  Ni176  1  0.37249267  0.91428133  0.12652656  1.0
  Ni  Ni177  1  0.70582600  0.24761467  0.12652656  1.0
  Ni  Ni178  1  0.70582600  0.58094800  0.12652656  1.0
  Ni  Ni179  1  0.70582600  0.91428133  0.12652656  1.0
  Ni  Ni180  1  0.29417400  0.08571867  0.11896956  1.0
  Ni  Ni181  1  0.29417400  0.41905200  0.11896956  1.0
  Ni  Ni182  1  0.29417400  0.75238533  0.11896956  1.0
  Ni  Ni183  1  0.62750733  0.08571867  0.11896956  1.0
  Ni  Ni184  1  0.62750733  0.41905200  0.11896956  1.0
  Ni  Ni185  1  0.62750733  0.75238533  0.11896956  1.0
  Ni  Ni186  1  0.96084067  0.08571867  0.11896956  1.0
  Ni  Ni187  1  0.96084067  0.41905200  0.11896956  1.0
  Ni  Ni188  1  0.96084067  0.75238533  0.11896956  1.0
  Ni  Ni189  1  0.29417400  0.25238533  0.24396956  1.0
  Ni  Ni190  1  0.29417400  0.58571867  0.24396956  1.0
  Ni  Ni191  1  0.29417400  0.91905200  0.24396956  1.0
  Ni  Ni192  1  0.62750733  0.25238533  0.24396956  1.0
  Ni  Ni193  1  0.62750733  0.58571867  0.24396956  1.0
  Ni  Ni194  1  0.62750733  0.91905200  0.24396956  1.0
  Ni  Ni195  1  0.96084067  0.25238533  0.24396956  1.0
  Ni  Ni196  1  0.96084067  0.58571867  0.24396956  1.0
  Ni  Ni197  1  0.96084067  0.91905200  0.24396956  1.0
  Ni  Ni198  1  0.07240200  0.01651867  0.14902806  1.0
  Ni  Ni199  1  0.07240200  0.34985200  0.14902806  1.0
  Ni  Ni200  1  0.07240200  0.68318533  0.14902806  1.0
  Ni  Ni201  1  0.40573533  0.01651867  0.14902806  1.0
  Ni  Ni202  1  0.40573533  0.34985200  0.14902806  1.0
  Ni  Ni203  1  0.40573533  0.68318533  0.14902806  1.0
  Ni  Ni204  1  0.73906867  0.01651867  0.14902806  1.0
  Ni  Ni205  1  0.73906867  0.34985200  0.14902806  1.0
  Ni  Ni206  1  0.73906867  0.68318533  0.14902806  1.0
  Ni  Ni207  1  0.07240200  0.18318533  0.02402806  1.0
  Ni  Ni208  1  0.07240200  0.51651867  0.02402806  1.0
  Ni  Ni209  1  0.07240200  0.84985200  0.02402806  1.0
  Ni  Ni210  1  0.40573533  0.18318533  0.02402806  1.0
  Ni  Ni211  1  0.40573533  0.51651867  0.02402806  1.0
  Ni  Ni212  1  0.40573533  0.84985200  0.02402806  1.0
  Ni  Ni213  1  0.73906867  0.18318533  0.02402806  1.0
  Ni  Ni214  1  0.73906867  0.51651867  0.02402806  1.0
  Ni  Ni215  1  0.73906867  0.84985200  0.02402806  1.0
  Ni  Ni216  1  0.26093133  0.15014800  0.22146806  1.0
  Ni  Ni217  1  0.26093133  0.48348133  0.22146806  1.0
  Ni  Ni218  1  0.26093133  0.81681467  0.22146806  1.0
  Ni  Ni219  1  0.59426467  0.15014800  0.22146806  1.0
  Ni  Ni220  1  0.59426467  0.48348133  0.22146806  1.0
  Ni  Ni221  1  0.59426467  0.81681467  0.22146806  1.0
  Ni  Ni222  1  0.92759800  0.15014800  0.22146806  1.0
  Ni  Ni223  1  0.92759800  0.48348133  0.22146806  1.0
  Ni  Ni224  1  0.92759800  0.81681467  0.22146806  1.0
  Ni  Ni225  1  0.26093133  0.31681467  0.09646806  1.0
  Ni  Ni226  1  0.26093133  0.65014800  0.09646806  1.0
  Ni  Ni227  1  0.26093133  0.98348133  0.09646806  1.0
  Ni  Ni228  1  0.59426467  0.31681467  0.09646806  1.0
  Ni  Ni229  1  0.59426467  0.65014800  0.09646806  1.0
  Ni  Ni230  1  0.59426467  0.98348133  0.09646806  1.0
  Ni  Ni231  1  0.92759800  0.31681467  0.09646806  1.0
  Ni  Ni232  1  0.92759800  0.65014800  0.09646806  1.0
  Ni  Ni233  1  0.92759800  0.98348133  0.09646806  1.0
  Ni  Ni234  1  0.08486133  0.05063600  0.19940056  1.0
  Ni  Ni235  1  0.08486133  0.38396933  0.19940056  1.0
  Ni  Ni236  1  0.08486133  0.71730267  0.19940056  1.0
  Ni  Ni237  1  0.41819467  0.05063600  0.19940056  1.0
  Ni  Ni238  1  0.41819467  0.38396933  0.19940056  1.0
  Ni  Ni239  1  0.41819467  0.71730267  0.19940056  1.0
  Ni  Ni240  1  0.75152800  0.05063600  0.19940056  1.0
  Ni  Ni241  1  0.75152800  0.38396933  0.19940056  1.0
  Ni  Ni242  1  0.75152800  0.71730267  0.19940056  1.0
  Ni  Ni243  1  0.08486133  0.21730267  0.07440056  1.0
  Ni  Ni244  1  0.08486133  0.55063600  0.07440056  1.0
  Ni  Ni245  1  0.08486133  0.88396933  0.07440056  1.0
  Ni  Ni246  1  0.41819467  0.21730267  0.07440056  1.0
  Ni  Ni247  1  0.41819467  0.55063600  0.07440056  1.0
  Ni  Ni248  1  0.41819467  0.88396933  0.07440056  1.0
  Ni  Ni249  1  0.75152800  0.21730267  0.07440056  1.0
  Ni  Ni250  1  0.75152800  0.55063600  0.07440056  1.0
  Ni  Ni251  1  0.75152800  0.88396933  0.07440056  1.0
  Ni  Ni252  1  0.24847200  0.11603067  0.17109556  1.0
  Ni  Ni253  1  0.24847200  0.44936400  0.17109556  1.0
  Ni  Ni254  1  0.24847200  0.78269733  0.17109556  1.0
  Ni  Ni255  1  0.58180533  0.11603067  0.17109556  1.0
  Ni  Ni256  1  0.58180533  0.44936400  0.17109556  1.0
  Ni  Ni257  1  0.58180533  0.78269733  0.17109556  1.0
  Ni  Ni258  1  0.91513867  0.11603067  0.17109556  1.0
  Ni  Ni259  1  0.91513867  0.44936400  0.17109556  1.0
  Ni  Ni260  1  0.91513867  0.78269733  0.17109556  1.0
  Ni  Ni261  1  0.24847200  0.28269733  0.04609556  1.0
  Ni  Ni262  1  0.24847200  0.61603067  0.04609556  1.0
  Ni  Ni263  1  0.24847200  0.94936400  0.04609556  1.0
  Ni  Ni264  1  0.58180533  0.28269733  0.04609556  1.0
  Ni  Ni265  1  0.58180533  0.61603067  0.04609556  1.0
  Ni  Ni266  1  0.58180533  0.94936400  0.04609556  1.0
  Ni  Ni267  1  0.91513867  0.28269733  0.04609556  1.0
  Ni  Ni268  1  0.91513867  0.61603067  0.04609556  1.0
  Ni  Ni269  1  0.91513867  0.94936400  0.04609556  1.0
  Ni  Ni270  1  0.09630467  0.02272600  0.01998781  1.0
  Ni  Ni271  1  0.09630467  0.35605933  0.01998781  1.0
  Ni  Ni272  1  0.09630467  0.68939267  0.01998781  1.0
  Ni  Ni273  1  0.42963800  0.02272600  0.01998781  1.0
  Ni  Ni274  1  0.42963800  0.35605933  0.01998781  1.0
  Ni  Ni275  1  0.42963800  0.68939267  0.01998781  1.0
  Ni  Ni276  1  0.76297133  0.02272600  0.01998781  1.0
  Ni  Ni277  1  0.76297133  0.35605933  0.01998781  1.0
  Ni  Ni278  1  0.76297133  0.68939267  0.01998781  1.0
  Ni  Ni279  1  0.09630467  0.18939267  0.14498781  1.0
  Ni  Ni280  1  0.09630467  0.52272600  0.14498781  1.0
  Ni  Ni281  1  0.09630467  0.85605933  0.14498781  1.0
  Ni  Ni282  1  0.42963800  0.18939267  0.14498781  1.0
  Ni  Ni283  1  0.42963800  0.52272600  0.14498781  1.0
  Ni  Ni284  1  0.42963800  0.85605933  0.14498781  1.0
  Ni  Ni285  1  0.76297133  0.18939267  0.14498781  1.0
  Ni  Ni286  1  0.76297133  0.52272600  0.14498781  1.0
  Ni  Ni287  1  0.76297133  0.85605933  0.14498781  1.0
  Ni  Ni288  1  0.01793667  0.14682367  0.10010431  1.0
  Ni  Ni289  1  0.01793667  0.48015700  0.10010431  1.0
  Ni  Ni290  1  0.01793667  0.81349033  0.10010431  1.0
  Ni  Ni291  1  0.35127000  0.14682367  0.10010431  1.0
  Ni  Ni292  1  0.35127000  0.48015700  0.10010431  1.0
  Ni  Ni293  1  0.35127000  0.81349033  0.10010431  1.0
  Ni  Ni294  1  0.68460333  0.14682367  0.10010431  1.0
  Ni  Ni295  1  0.68460333  0.48015700  0.10010431  1.0
  Ni  Ni296  1  0.68460333  0.81349033  0.10010431  1.0
  Ni  Ni297  1  0.01793667  0.31349033  0.22510431  1.0
  Ni  Ni298  1  0.01793667  0.64682367  0.22510431  1.0
  Ni  Ni299  1  0.01793667  0.98015700  0.22510431  1.0
  Ni  Ni300  1  0.35127000  0.31349033  0.22510431  1.0
  Ni  Ni301  1  0.35127000  0.64682367  0.22510431  1.0
  Ni  Ni302  1  0.35127000  0.98015700  0.22510431  1.0
  Ni  Ni303  1  0.68460333  0.31349033  0.22510431  1.0
  Ni  Ni304  1  0.68460333  0.64682367  0.22510431  1.0
  Ni  Ni305  1  0.68460333  0.98015700  0.22510431  1.0
  Ni  Ni306  1  0.31539667  0.01984300  0.02039181  1.0
  Ni  Ni307  1  0.31539667  0.35317633  0.02039181  1.0
  Ni  Ni308  1  0.31539667  0.68650967  0.02039181  1.0
  Ni  Ni309  1  0.64873000  0.01984300  0.02039181  1.0
  Ni  Ni310  1  0.64873000  0.35317633  0.02039181  1.0
  Ni  Ni311  1  0.64873000  0.68650967  0.02039181  1.0
  Ni  Ni312  1  0.98206333  0.01984300  0.02039181  1.0
  Ni  Ni313  1  0.98206333  0.35317633  0.02039181  1.0
  Ni  Ni314  1  0.98206333  0.68650967  0.02039181  1.0
  Ni  Ni315  1  0.31539667  0.18650967  0.14539181  1.0
  Ni  Ni316  1  0.31539667  0.51984300  0.14539181  1.0
  Ni  Ni317  1  0.31539667  0.85317633  0.14539181  1.0
  Ni  Ni318  1  0.64873000  0.18650967  0.14539181  1.0
  Ni  Ni319  1  0.64873000  0.51984300  0.14539181  1.0
  Ni  Ni320  1  0.64873000  0.85317633  0.14539181  1.0
  Ni  Ni321  1  0.98206333  0.18650967  0.14539181  1.0
  Ni  Ni322  1  0.98206333  0.51984300  0.14539181  1.0
  Ni  Ni323  1  0.98206333  0.85317633  0.14539181  1.0
  Ni  Ni324  1  0.06871733  0.08611650  0.12725194  1.0
  Ni  Ni325  1  0.06871733  0.41944983  0.12725194  1.0
  Ni  Ni326  1  0.06871733  0.75278317  0.12725194  1.0
  Ni  Ni327  1  0.40205067  0.08611650  0.12725194  1.0
  Ni  Ni328  1  0.40205067  0.41944983  0.12725194  1.0
  Ni  Ni329  1  0.40205067  0.75278317  0.12725194  1.0
  Ni  Ni330  1  0.73538400  0.08611650  0.12725194  1.0
  Ni  Ni331  1  0.73538400  0.41944983  0.12725194  1.0
  Ni  Ni332  1  0.73538400  0.75278317  0.12725194  1.0
  Ni  Ni333  1  0.06871733  0.25278317  0.00225194  1.0
  Ni  Ni334  1  0.06871733  0.58611650  0.00225194  1.0
  Ni  Ni335  1  0.06871733  0.91944983  0.00225194  1.0
  Ni  Ni336  1  0.40205067  0.25278317  0.00225194  1.0
  Ni  Ni337  1  0.40205067  0.58611650  0.00225194  1.0
  Ni  Ni338  1  0.40205067  0.91944983  0.00225194  1.0
  Ni  Ni339  1  0.73538400  0.25278317  0.00225194  1.0
  Ni  Ni340  1  0.73538400  0.58611650  0.00225194  1.0
  Ni  Ni341  1  0.73538400  0.91944983  0.00225194  1.0
  Ni  Ni342  1  0.26461600  0.08055017  0.24324419  1.0
  Ni  Ni343  1  0.26461600  0.41388350  0.24324419  1.0
  Ni  Ni344  1  0.26461600  0.74721683  0.24324419  1.0
  Ni  Ni345  1  0.59794933  0.08055017  0.24324419  1.0
  Ni  Ni346  1  0.59794933  0.41388350  0.24324419  1.0
  Ni  Ni347  1  0.59794933  0.74721683  0.24324419  1.0
  Ni  Ni348  1  0.93128267  0.08055017  0.24324419  1.0
  Ni  Ni349  1  0.93128267  0.41388350  0.24324419  1.0
  Ni  Ni350  1  0.93128267  0.74721683  0.24324419  1.0
  Ni  Ni351  1  0.26461600  0.24721683  0.11824419  1.0
  Ni  Ni352  1  0.26461600  0.58055017  0.11824419  1.0
  Ni  Ni353  1  0.26461600  0.91388350  0.11824419  1.0
  Ni  Ni354  1  0.59794933  0.24721683  0.11824419  1.0
  Ni  Ni355  1  0.59794933  0.58055017  0.11824419  1.0
  Ni  Ni356  1  0.59794933  0.91388350  0.11824419  1.0
  Ni  Ni357  1  0.93128267  0.24721683  0.11824419  1.0
  Ni  Ni358  1  0.93128267  0.58055017  0.11824419  1.0
  Ni  Ni359  1  0.93128267  0.91388350  0.11824419  1.0
  Ni  Ni360  1  0.08089933  0.11346000  0.04983181  1.0
  Ni  Ni361  1  0.08089933  0.44679333  0.04983181  1.0
  Ni  Ni362  1  0.08089933  0.78012667  0.04983181  1.0
  Ni  Ni363  1  0.41423267  0.11346000  0.04983181  1.0
  Ni  Ni364  1  0.41423267  0.44679333  0.04983181  1.0
  Ni  Ni365  1  0.41423267  0.78012667  0.04983181  1.0
  Ni  Ni366  1  0.74756600  0.11346000  0.04983181  1.0
  Ni  Ni367  1  0.74756600  0.44679333  0.04983181  1.0
  Ni  Ni368  1  0.74756600  0.78012667  0.04983181  1.0
  Ni  Ni369  1  0.08089933  0.28012667  0.17483181  1.0
  Ni  Ni370  1  0.08089933  0.61346000  0.17483181  1.0
  Ni  Ni371  1  0.08089933  0.94679333  0.17483181  1.0
  Ni  Ni372  1  0.41423267  0.28012667  0.17483181  1.0
  Ni  Ni373  1  0.41423267  0.61346000  0.17483181  1.0
  Ni  Ni374  1  0.41423267  0.94679333  0.17483181  1.0
  Ni  Ni375  1  0.74756600  0.28012667  0.17483181  1.0
  Ni  Ni376  1  0.74756600  0.61346000  0.17483181  1.0
  Ni  Ni377  1  0.74756600  0.94679333  0.17483181  1.0
  Ni  Ni378  1  0.25243400  0.05320667  0.07066431  1.0
  Ni  Ni379  1  0.25243400  0.38654000  0.07066431  1.0
  Ni  Ni380  1  0.25243400  0.71987333  0.07066431  1.0
  Ni  Ni381  1  0.58576733  0.05320667  0.07066431  1.0
  Ni  Ni382  1  0.58576733  0.38654000  0.07066431  1.0
  Ni  Ni383  1  0.58576733  0.71987333  0.07066431  1.0
  Ni  Ni384  1  0.91910067  0.05320667  0.07066431  1.0
  Ni  Ni385  1  0.91910067  0.38654000  0.07066431  1.0
  Ni  Ni386  1  0.91910067  0.71987333  0.07066431  1.0
  Ni  Ni387  1  0.25243400  0.21987333  0.19566431  1.0
  Ni  Ni388  1  0.25243400  0.55320667  0.19566431  1.0
  Ni  Ni389  1  0.25243400  0.88654000  0.19566431  1.0
  Ni  Ni390  1  0.58576733  0.21987333  0.19566431  1.0
  Ni  Ni391  1  0.58576733  0.55320667  0.19566431  1.0
  Ni  Ni392  1  0.58576733  0.88654000  0.19566431  1.0
  Ni  Ni393  1  0.91910067  0.21987333  0.19566431  1.0
  Ni  Ni394  1  0.91910067  0.55320667  0.19566431  1.0
  Ni  Ni395  1  0.91910067  0.88654000  0.19566431  1.0
  Ni  Ni396  1  0.08613200  0.15022617  0.22186169  1.0
  Ni  Ni397  1  0.08613200  0.48355950  0.22186169  1.0
  Ni  Ni398  1  0.08613200  0.81689283  0.22186169  1.0
  Ni  Ni399  1  0.41946533  0.15022617  0.22186169  1.0
  Ni  Ni400  1  0.41946533  0.48355950  0.22186169  1.0
  Ni  Ni401  1  0.41946533  0.81689283  0.22186169  1.0
  Ni  Ni402  1  0.75279867  0.15022617  0.22186169  1.0
  Ni  Ni403  1  0.75279867  0.48355950  0.22186169  1.0
  Ni  Ni404  1  0.75279867  0.81689283  0.22186169  1.0
  Ni  Ni405  1  0.08613200  0.31689283  0.09686169  1.0
  Ni  Ni406  1  0.08613200  0.65022617  0.09686169  1.0
  Ni  Ni407  1  0.08613200  0.98355950  0.09686169  1.0
  Ni  Ni408  1  0.41946533  0.31689283  0.09686169  1.0
  Ni  Ni409  1  0.41946533  0.65022617  0.09686169  1.0
  Ni  Ni410  1  0.41946533  0.98355950  0.09686169  1.0
  Ni  Ni411  1  0.75279867  0.31689283  0.09686169  1.0
  Ni  Ni412  1  0.75279867  0.65022617  0.09686169  1.0
  Ni  Ni413  1  0.75279867  0.98355950  0.09686169  1.0
  Ni  Ni414  1  0.24720133  0.01644050  0.14863444  1.0
  Ni  Ni415  1  0.24720133  0.34977383  0.14863444  1.0
  Ni  Ni416  1  0.24720133  0.68310717  0.14863444  1.0
  Ni  Ni417  1  0.58053467  0.01644050  0.14863444  1.0
  Ni  Ni418  1  0.58053467  0.34977383  0.14863444  1.0
  Ni  Ni419  1  0.58053467  0.68310717  0.14863444  1.0
  Ni  Ni420  1  0.91386800  0.01644050  0.14863444  1.0
  Ni  Ni421  1  0.91386800  0.34977383  0.14863444  1.0
  Ni  Ni422  1  0.91386800  0.68310717  0.14863444  1.0
  Ni  Ni423  1  0.24720133  0.18310717  0.02363444  1.0
  Ni  Ni424  1  0.24720133  0.51644050  0.02363444  1.0
  Ni  Ni425  1  0.24720133  0.84977383  0.02363444  1.0
  Ni  Ni426  1  0.58053467  0.18310717  0.02363444  1.0
  Ni  Ni427  1  0.58053467  0.51644050  0.02363444  1.0
  Ni  Ni428  1  0.58053467  0.84977383  0.02363444  1.0
  Ni  Ni429  1  0.91386800  0.18310717  0.02363444  1.0
  Ni  Ni430  1  0.91386800  0.51644050  0.02363444  1.0
  Ni  Ni431  1  0.91386800  0.84977383  0.02363444  1.0
  Ni  Ni432  1  0.13021400  0.11885483  0.16577619  1.0
  Ni  Ni433  1  0.13021400  0.45218817  0.16577619  1.0
  Ni  Ni434  1  0.13021400  0.78552150  0.16577619  1.0
  Ni  Ni435  1  0.46354733  0.11885483  0.16577619  1.0
  Ni  Ni436  1  0.46354733  0.45218817  0.16577619  1.0
  Ni  Ni437  1  0.46354733  0.78552150  0.16577619  1.0
  Ni  Ni438  1  0.79688067  0.11885483  0.16577619  1.0
  Ni  Ni439  1  0.79688067  0.45218817  0.16577619  1.0
  Ni  Ni440  1  0.79688067  0.78552150  0.16577619  1.0
  Ni  Ni441  1  0.13021400  0.28552150  0.04077619  1.0
  Ni  Ni442  1  0.13021400  0.61885483  0.04077619  1.0
  Ni  Ni443  1  0.13021400  0.95218817  0.04077619  1.0
  Ni  Ni444  1  0.46354733  0.28552150  0.04077619  1.0
  Ni  Ni445  1  0.46354733  0.61885483  0.04077619  1.0
  Ni  Ni446  1  0.46354733  0.95218817  0.04077619  1.0
  Ni  Ni447  1  0.79688067  0.28552150  0.04077619  1.0
  Ni  Ni448  1  0.79688067  0.61885483  0.04077619  1.0
  Ni  Ni449  1  0.79688067  0.95218817  0.04077619  1.0
  Ni  Ni450  1  0.20311933  0.04781183  0.20471994  1.0
  Ni  Ni451  1  0.20311933  0.38114517  0.20471994  1.0
  Ni  Ni452  1  0.20311933  0.71447850  0.20471994  1.0
  Ni  Ni453  1  0.53645267  0.04781183  0.20471994  1.0
  Ni  Ni454  1  0.53645267  0.38114517  0.20471994  1.0
  Ni  Ni455  1  0.53645267  0.71447850  0.20471994  1.0
  Ni  Ni456  1  0.86978600  0.04781183  0.20471994  1.0
  Ni  Ni457  1  0.86978600  0.38114517  0.20471994  1.0
  Ni  Ni458  1  0.86978600  0.71447850  0.20471994  1.0
  Ni  Ni459  1  0.20311933  0.21447850  0.07971994  1.0
  Ni  Ni460  1  0.20311933  0.54781183  0.07971994  1.0
  Ni  Ni461  1  0.20311933  0.88114517  0.07971994  1.0
  Ni  Ni462  1  0.53645267  0.21447850  0.07971994  1.0
  Ni  Ni463  1  0.53645267  0.54781183  0.07971994  1.0
  Ni  Ni464  1  0.53645267  0.88114517  0.07971994  1.0
  Ni  Ni465  1  0.86978600  0.21447850  0.07971994  1.0
  Ni  Ni466  1  0.86978600  0.54781183  0.07971994  1.0
  Ni  Ni467  1  0.86978600  0.88114517  0.07971994  1.0
  Ni  Ni468  1  0.19968467  0.11391483  0.04657544  1.0
  Ni  Ni469  1  0.19968467  0.44724817  0.04657544  1.0
  Ni  Ni470  1  0.19968467  0.78058150  0.04657544  1.0
  Ni  Ni471  1  0.53301800  0.11391483  0.04657544  1.0
  Ni  Ni472  1  0.53301800  0.44724817  0.04657544  1.0
  Ni  Ni473  1  0.53301800  0.78058150  0.04657544  1.0
  Ni  Ni474  1  0.86635133  0.11391483  0.04657544  1.0
  Ni  Ni475  1  0.86635133  0.44724817  0.04657544  1.0
  Ni  Ni476  1  0.86635133  0.78058150  0.04657544  1.0
  Ni  Ni477  1  0.19968467  0.28058150  0.17157544  1.0
  Ni  Ni478  1  0.19968467  0.61391483  0.17157544  1.0
  Ni  Ni479  1  0.19968467  0.94724817  0.17157544  1.0
  Ni  Ni480  1  0.53301800  0.28058150  0.17157544  1.0
  Ni  Ni481  1  0.53301800  0.61391483  0.17157544  1.0
  Ni  Ni482  1  0.53301800  0.94724817  0.17157544  1.0
  Ni  Ni483  1  0.86635133  0.28058150  0.17157544  1.0
  Ni  Ni484  1  0.86635133  0.61391483  0.17157544  1.0
  Ni  Ni485  1  0.86635133  0.94724817  0.17157544  1.0
  Ni  Ni486  1  0.13364867  0.05275183  0.07392069  1.0
  Ni  Ni487  1  0.13364867  0.38608517  0.07392069  1.0
  Ni  Ni488  1  0.13364867  0.71941850  0.07392069  1.0
  Ni  Ni489  1  0.46698200  0.05275183  0.07392069  1.0
  Ni  Ni490  1  0.46698200  0.38608517  0.07392069  1.0
  Ni  Ni491  1  0.46698200  0.71941850  0.07392069  1.0
  Ni  Ni492  1  0.80031533  0.05275183  0.07392069  1.0
  Ni  Ni493  1  0.80031533  0.38608517  0.07392069  1.0
  Ni  Ni494  1  0.80031533  0.71941850  0.07392069  1.0
  Ni  Ni495  1  0.13364867  0.21941850  0.19892069  1.0
  Ni  Ni496  1  0.13364867  0.55275183  0.19892069  1.0
  Ni  Ni497  1  0.13364867  0.88608517  0.19892069  1.0
  Ni  Ni498  1  0.46698200  0.21941850  0.19892069  1.0
  Ni  Ni499  1  0.46698200  0.55275183  0.19892069  1.0
  Ni  Ni500  1  0.46698200  0.88608517  0.19892069  1.0
  Ni  Ni501  1  0.80031533  0.21941850  0.19892069  1.0
  Ni  Ni502  1  0.80031533  0.55275183  0.19892069  1.0
  Ni  Ni503  1  0.80031533  0.88608517  0.19892069  1.0
  Ni  Ni504  1  0.23702867  0.14394067  0.10050831  1.0
  Ni  Ni505  1  0.23702867  0.47727400  0.10050831  1.0
  Ni  Ni506  1  0.23702867  0.81060733  0.10050831  1.0
  Ni  Ni507  1  0.57036200  0.14394067  0.10050831  1.0
  Ni  Ni508  1  0.57036200  0.47727400  0.10050831  1.0
  Ni  Ni509  1  0.57036200  0.81060733  0.10050831  1.0
  Ni  Ni510  1  0.90369533  0.14394067  0.10050831  1.0
  Ni  Ni511  1  0.90369533  0.47727400  0.10050831  1.0
  Ni  Ni512  1  0.90369533  0.81060733  0.10050831  1.0
  Ni  Ni513  1  0.23702867  0.31060733  0.22550831  1.0
  Ni  Ni514  1  0.23702867  0.64394067  0.22550831  1.0
  Ni  Ni515  1  0.23702867  0.97727400  0.22550831  1.0
  Ni  Ni516  1  0.57036200  0.31060733  0.22550831  1.0
  Ni  Ni517  1  0.57036200  0.64394067  0.22550831  1.0
  Ni  Ni518  1  0.57036200  0.97727400  0.22550831  1.0
  Ni  Ni519  1  0.90369533  0.31060733  0.22550831  1.0
  Ni  Ni520  1  0.90369533  0.64394067  0.22550831  1.0
  Ni  Ni521  1  0.90369533  0.97727400  0.22550831  1.0
  Hf  Hf522  1  0.02100633  0.04116100  0.33332431  1.0
  Hf  Hf523  1  0.02100633  0.37449433  0.33332431  1.0
  Hf  Hf524  1  0.02100633  0.70782767  0.33332431  1.0
  Hf  Hf525  1  0.35433967  0.04116100  0.33332431  1.0
  Hf  Hf526  1  0.35433967  0.37449433  0.33332431  1.0
  Hf  Hf527  1  0.35433967  0.70782767  0.33332431  1.0
  Hf  Hf528  1  0.68767300  0.04116100  0.33332431  1.0
  Hf  Hf529  1  0.68767300  0.37449433  0.33332431  1.0
  Hf  Hf530  1  0.68767300  0.70782767  0.33332431  1.0
  Hf  Hf531  1  0.02100633  0.20782767  0.45832431  1.0
  Hf  Hf532  1  0.02100633  0.54116100  0.45832431  1.0
  Hf  Hf533  1  0.02100633  0.87449433  0.45832431  1.0
  Hf  Hf534  1  0.35433967  0.20782767  0.45832431  1.0
  Hf  Hf535  1  0.35433967  0.54116100  0.45832431  1.0
  Hf  Hf536  1  0.35433967  0.87449433  0.45832431  1.0
  Hf  Hf537  1  0.68767300  0.20782767  0.45832431  1.0
  Hf  Hf538  1  0.68767300  0.54116100  0.45832431  1.0
  Hf  Hf539  1  0.68767300  0.87449433  0.45832431  1.0
  Hf  Hf540  1  0.31232700  0.12550567  0.28717181  1.0
  Hf  Hf541  1  0.31232700  0.45883900  0.28717181  1.0
  Hf  Hf542  1  0.31232700  0.79217233  0.28717181  1.0
  Hf  Hf543  1  0.64566033  0.12550567  0.28717181  1.0
  Hf  Hf544  1  0.64566033  0.45883900  0.28717181  1.0
  Hf  Hf545  1  0.64566033  0.79217233  0.28717181  1.0
  Hf  Hf546  1  0.97899367  0.12550567  0.28717181  1.0
  Hf  Hf547  1  0.97899367  0.45883900  0.28717181  1.0
  Hf  Hf548  1  0.97899367  0.79217233  0.28717181  1.0
  Hf  Hf549  1  0.31232700  0.29217233  0.41217181  1.0
  Hf  Hf550  1  0.31232700  0.62550567  0.41217181  1.0
  Hf  Hf551  1  0.31232700  0.95883900  0.41217181  1.0
  Hf  Hf552  1  0.64566033  0.29217233  0.41217181  1.0
  Hf  Hf553  1  0.64566033  0.62550567  0.41217181  1.0
  Hf  Hf554  1  0.64566033  0.95883900  0.41217181  1.0
  Hf  Hf555  1  0.97899367  0.29217233  0.41217181  1.0
  Hf  Hf556  1  0.97899367  0.62550567  0.41217181  1.0
  Hf  Hf557  1  0.97899367  0.95883900  0.41217181  1.0
  Hf  Hf558  1  0.17887633  0.07186467  0.38017681  1.0
  Hf  Hf559  1  0.17887633  0.40519800  0.38017681  1.0
  Hf  Hf560  1  0.17887633  0.73853133  0.38017681  1.0
  Hf  Hf561  1  0.51220967  0.07186467  0.38017681  1.0
  Hf  Hf562  1  0.51220967  0.40519800  0.38017681  1.0
  Hf  Hf563  1  0.51220967  0.73853133  0.38017681  1.0
  Hf  Hf564  1  0.84554300  0.07186467  0.38017681  1.0
  Hf  Hf565  1  0.84554300  0.40519800  0.38017681  1.0
  Hf  Hf566  1  0.84554300  0.73853133  0.38017681  1.0
  Hf  Hf567  1  0.17887633  0.23853133  0.25517681  1.0
  Hf  Hf568  1  0.17887633  0.57186467  0.25517681  1.0
  Hf  Hf569  1  0.17887633  0.90519800  0.25517681  1.0
  Hf  Hf570  1  0.51220967  0.23853133  0.25517681  1.0
  Hf  Hf571  1  0.51220967  0.57186467  0.25517681  1.0
  Hf  Hf572  1  0.51220967  0.90519800  0.25517681  1.0
  Hf  Hf573  1  0.84554300  0.23853133  0.25517681  1.0
  Hf  Hf574  1  0.84554300  0.57186467  0.25517681  1.0
  Hf  Hf575  1  0.84554300  0.90519800  0.25517681  1.0
  Hf  Hf576  1  0.15445700  0.09480200  0.49031931  1.0
  Hf  Hf577  1  0.15445700  0.42813533  0.49031931  1.0
  Hf  Hf578  1  0.15445700  0.76146867  0.49031931  1.0
  Hf  Hf579  1  0.48779033  0.09480200  0.49031931  1.0
  Hf  Hf580  1  0.48779033  0.42813533  0.49031931  1.0
  Hf  Hf581  1  0.48779033  0.76146867  0.49031931  1.0
  Hf  Hf582  1  0.82112367  0.09480200  0.49031931  1.0
  Hf  Hf583  1  0.82112367  0.42813533  0.49031931  1.0
  Hf  Hf584  1  0.82112367  0.76146867  0.49031931  1.0
  Hf  Hf585  1  0.15445700  0.26146867  0.36531931  1.0
  Hf  Hf586  1  0.15445700  0.59480200  0.36531931  1.0
  Hf  Hf587  1  0.15445700  0.92813533  0.36531931  1.0
  Hf  Hf588  1  0.48779033  0.26146867  0.36531931  1.0
  Hf  Hf589  1  0.48779033  0.59480200  0.36531931  1.0
  Hf  Hf590  1  0.48779033  0.92813533  0.36531931  1.0
  Hf  Hf591  1  0.82112367  0.26146867  0.36531931  1.0
  Hf  Hf592  1  0.82112367  0.59480200  0.36531931  1.0
  Hf  Hf593  1  0.82112367  0.92813533  0.36531931  1.0
  Hf  Hf594  1  0.19889433  0.01162983  0.28540694  1.0
  Hf  Hf595  1  0.19889433  0.34496317  0.28540694  1.0
  Hf  Hf596  1  0.19889433  0.67829650  0.28540694  1.0
  Hf  Hf597  1  0.53222767  0.01162983  0.28540694  1.0
  Hf  Hf598  1  0.53222767  0.34496317  0.28540694  1.0
  Hf  Hf599  1  0.53222767  0.67829650  0.28540694  1.0
  Hf  Hf600  1  0.86556100  0.01162983  0.28540694  1.0
  Hf  Hf601  1  0.86556100  0.34496317  0.28540694  1.0
  Hf  Hf602  1  0.86556100  0.67829650  0.28540694  1.0
  Hf  Hf603  1  0.19889433  0.17829650  0.41040694  1.0
  Hf  Hf604  1  0.19889433  0.51162983  0.41040694  1.0
  Hf  Hf605  1  0.19889433  0.84496317  0.41040694  1.0
  Hf  Hf606  1  0.53222767  0.17829650  0.41040694  1.0
  Hf  Hf607  1  0.53222767  0.51162983  0.41040694  1.0
  Hf  Hf608  1  0.53222767  0.84496317  0.41040694  1.0
  Hf  Hf609  1  0.86556100  0.17829650  0.41040694  1.0
  Hf  Hf610  1  0.86556100  0.51162983  0.41040694  1.0
  Hf  Hf611  1  0.86556100  0.84496317  0.41040694  1.0
  Hf  Hf612  1  0.13443900  0.15503683  0.33508919  1.0
  Hf  Hf613  1  0.13443900  0.48837017  0.33508919  1.0
  Hf  Hf614  1  0.13443900  0.82170350  0.33508919  1.0
  Hf  Hf615  1  0.46777233  0.15503683  0.33508919  1.0
  Hf  Hf616  1  0.46777233  0.48837017  0.33508919  1.0
  Hf  Hf617  1  0.46777233  0.82170350  0.33508919  1.0
  Hf  Hf618  1  0.80110567  0.15503683  0.33508919  1.0
  Hf  Hf619  1  0.80110567  0.48837017  0.33508919  1.0
  Hf  Hf620  1  0.80110567  0.82170350  0.33508919  1.0
  Hf  Hf621  1  0.13443900  0.32170350  0.46008919  1.0
  Hf  Hf622  1  0.13443900  0.65503683  0.46008919  1.0
  Hf  Hf623  1  0.13443900  0.98837017  0.46008919  1.0
  Hf  Hf624  1  0.46777233  0.32170350  0.46008919  1.0
  Hf  Hf625  1  0.46777233  0.65503683  0.46008919  1.0
  Hf  Hf626  1  0.46777233  0.98837017  0.46008919  1.0
  Hf  Hf627  1  0.80110567  0.32170350  0.46008919  1.0
  Hf  Hf628  1  0.80110567  0.65503683  0.46008919  1.0
  Hf  Hf629  1  0.80110567  0.98837017  0.46008919  1.0
  Hf  Hf630  1  0.31258967  0.04130133  0.43995281  1.0
  Hf  Hf631  1  0.31258967  0.37463467  0.43995281  1.0
  Hf  Hf632  1  0.31258967  0.70796800  0.43995281  1.0
  Hf  Hf633  1  0.64592300  0.04130133  0.43995281  1.0
  Hf  Hf634  1  0.64592300  0.37463467  0.43995281  1.0
  Hf  Hf635  1  0.64592300  0.70796800  0.43995281  1.0
  Hf  Hf636  1  0.97925633  0.04130133  0.43995281  1.0
  Hf  Hf637  1  0.97925633  0.37463467  0.43995281  1.0
  Hf  Hf638  1  0.97925633  0.70796800  0.43995281  1.0
  Hf  Hf639  1  0.31258967  0.20796800  0.31495281  1.0
  Hf  Hf640  1  0.31258967  0.54130133  0.31495281  1.0
  Hf  Hf641  1  0.31258967  0.87463467  0.31495281  1.0
  Hf  Hf642  1  0.64592300  0.20796800  0.31495281  1.0
  Hf  Hf643  1  0.64592300  0.54130133  0.31495281  1.0
  Hf  Hf644  1  0.64592300  0.87463467  0.31495281  1.0
  Hf  Hf645  1  0.97925633  0.20796800  0.31495281  1.0
  Hf  Hf646  1  0.97925633  0.54130133  0.31495281  1.0
  Hf  Hf647  1  0.97925633  0.87463467  0.31495281  1.0
  Hf  Hf648  1  0.02074367  0.12536533  0.43054331  1.0
  Hf  Hf649  1  0.02074367  0.45869867  0.43054331  1.0
  Hf  Hf650  1  0.02074367  0.79203200  0.43054331  1.0
  Hf  Hf651  1  0.35407700  0.12536533  0.43054331  1.0
  Hf  Hf652  1  0.35407700  0.45869867  0.43054331  1.0
  Hf  Hf653  1  0.35407700  0.79203200  0.43054331  1.0
  Hf  Hf654  1  0.68741033  0.12536533  0.43054331  1.0
  Hf  Hf655  1  0.68741033  0.45869867  0.43054331  1.0
  Hf  Hf656  1  0.68741033  0.79203200  0.43054331  1.0
  Hf  Hf657  1  0.02074367  0.29203200  0.30554331  1.0
  Hf  Hf658  1  0.02074367  0.62536533  0.30554331  1.0
  Hf  Hf659  1  0.02074367  0.95869867  0.30554331  1.0
  Hf  Hf660  1  0.35407700  0.29203200  0.30554331  1.0
  Hf  Hf661  1  0.35407700  0.62536533  0.30554331  1.0
  Hf  Hf662  1  0.35407700  0.95869867  0.30554331  1.0
  Hf  Hf663  1  0.68741033  0.29203200  0.30554331  1.0
  Hf  Hf664  1  0.68741033  0.62536533  0.30554331  1.0
  Hf  Hf665  1  0.68741033  0.95869867  0.30554331  1.0
  Ni  Ni666  1  0.16666667  0.16666667  0.49774806  1.0
  Ni  Ni667  1  0.16666667  0.50000000  0.49774806  1.0
  Ni  Ni668  1  0.16666667  0.83333333  0.49774806  1.0
  Ni  Ni669  1  0.50000000  0.16666667  0.49774806  1.0
  Ni  Ni670  1  0.50000000  0.50000000  0.49774806  1.0
  Ni  Ni671  1  0.50000000  0.83333333  0.49774806  1.0
  Ni  Ni672  1  0.83333333  0.16666667  0.49774806  1.0
  Ni  Ni673  1  0.83333333  0.50000000  0.49774806  1.0
  Ni  Ni674  1  0.83333333  0.83333333  0.49774806  1.0
  Ni  Ni675  1  0.16666667  0.00000000  0.37274806  1.0
  Ni  Ni676  1  0.16666667  0.33333333  0.37274806  1.0
  Ni  Ni677  1  0.16666667  0.66666667  0.37274806  1.0
  Ni  Ni678  1  0.50000000  0.00000000  0.37274806  1.0
  Ni  Ni679  1  0.50000000  0.33333333  0.37274806  1.0
  Ni  Ni680  1  0.50000000  0.66666667  0.37274806  1.0
  Ni  Ni681  1  0.83333333  0.00000000  0.37274806  1.0
  Ni  Ni682  1  0.83333333  0.33333333  0.37274806  1.0
  Ni  Ni683  1  0.83333333  0.66666667  0.37274806  1.0
  Ni  Ni684  1  0.03915933  0.08094800  0.25152656  1.0
  Ni  Ni685  1  0.03915933  0.41428133  0.25152656  1.0
  Ni  Ni686  1  0.03915933  0.74761467  0.25152656  1.0
  Ni  Ni687  1  0.37249267  0.08094800  0.25152656  1.0
  Ni  Ni688  1  0.37249267  0.41428133  0.25152656  1.0
  Ni  Ni689  1  0.37249267  0.74761467  0.25152656  1.0
  Ni  Ni690  1  0.70582600  0.08094800  0.25152656  1.0
  Ni  Ni691  1  0.70582600  0.41428133  0.25152656  1.0
  Ni  Ni692  1  0.70582600  0.74761467  0.25152656  1.0
  Ni  Ni693  1  0.03915933  0.24761467  0.37652656  1.0
  Ni  Ni694  1  0.03915933  0.58094800  0.37652656  1.0
  Ni  Ni695  1  0.03915933  0.91428133  0.37652656  1.0
  Ni  Ni696  1  0.37249267  0.24761467  0.37652656  1.0
  Ni  Ni697  1  0.37249267  0.58094800  0.37652656  1.0
  Ni  Ni698  1  0.37249267  0.91428133  0.37652656  1.0
  Ni  Ni699  1  0.70582600  0.24761467  0.37652656  1.0
  Ni  Ni700  1  0.70582600  0.58094800  0.37652656  1.0
  Ni  Ni701  1  0.70582600  0.91428133  0.37652656  1.0
  Ni  Ni702  1  0.29417400  0.08571867  0.36896956  1.0
  Ni  Ni703  1  0.29417400  0.41905200  0.36896956  1.0
  Ni  Ni704  1  0.29417400  0.75238533  0.36896956  1.0
  Ni  Ni705  1  0.62750733  0.08571867  0.36896956  1.0
  Ni  Ni706  1  0.62750733  0.41905200  0.36896956  1.0
  Ni  Ni707  1  0.62750733  0.75238533  0.36896956  1.0
  Ni  Ni708  1  0.96084067  0.08571867  0.36896956  1.0
  Ni  Ni709  1  0.96084067  0.41905200  0.36896956  1.0
  Ni  Ni710  1  0.96084067  0.75238533  0.36896956  1.0
  Ni  Ni711  1  0.29417400  0.25238533  0.49396956  1.0
  Ni  Ni712  1  0.29417400  0.58571867  0.49396956  1.0
  Ni  Ni713  1  0.29417400  0.91905200  0.49396956  1.0
  Ni  Ni714  1  0.62750733  0.25238533  0.49396956  1.0
  Ni  Ni715  1  0.62750733  0.58571867  0.49396956  1.0
  Ni  Ni716  1  0.62750733  0.91905200  0.49396956  1.0
  Ni  Ni717  1  0.96084067  0.25238533  0.49396956  1.0
  Ni  Ni718  1  0.96084067  0.58571867  0.49396956  1.0
  Ni  Ni719  1  0.96084067  0.91905200  0.49396956  1.0
  Ni  Ni720  1  0.07240200  0.01651867  0.39902806  1.0
  Ni  Ni721  1  0.07240200  0.34985200  0.39902806  1.0
  Ni  Ni722  1  0.07240200  0.68318533  0.39902806  1.0
  Ni  Ni723  1  0.40573533  0.01651867  0.39902806  1.0
  Ni  Ni724  1  0.40573533  0.34985200  0.39902806  1.0
  Ni  Ni725  1  0.40573533  0.68318533  0.39902806  1.0
  Ni  Ni726  1  0.73906867  0.01651867  0.39902806  1.0
  Ni  Ni727  1  0.73906867  0.34985200  0.39902806  1.0
  Ni  Ni728  1  0.73906867  0.68318533  0.39902806  1.0
  Ni  Ni729  1  0.07240200  0.18318533  0.27402806  1.0
  Ni  Ni730  1  0.07240200  0.51651867  0.27402806  1.0
  Ni  Ni731  1  0.07240200  0.84985200  0.27402806  1.0
  Ni  Ni732  1  0.40573533  0.18318533  0.27402806  1.0
  Ni  Ni733  1  0.40573533  0.51651867  0.27402806  1.0
  Ni  Ni734  1  0.40573533  0.84985200  0.27402806  1.0
  Ni  Ni735  1  0.73906867  0.18318533  0.27402806  1.0
  Ni  Ni736  1  0.73906867  0.51651867  0.27402806  1.0
  Ni  Ni737  1  0.73906867  0.84985200  0.27402806  1.0
  Ni  Ni738  1  0.26093133  0.15014800  0.47146806  1.0
  Ni  Ni739  1  0.26093133  0.48348133  0.47146806  1.0
  Ni  Ni740  1  0.26093133  0.81681467  0.47146806  1.0
  Ni  Ni741  1  0.59426467  0.15014800  0.47146806  1.0
  Ni  Ni742  1  0.59426467  0.48348133  0.47146806  1.0
  Ni  Ni743  1  0.59426467  0.81681467  0.47146806  1.0
  Ni  Ni744  1  0.92759800  0.15014800  0.47146806  1.0
  Ni  Ni745  1  0.92759800  0.48348133  0.47146806  1.0
  Ni  Ni746  1  0.92759800  0.81681467  0.47146806  1.0
  Ni  Ni747  1  0.26093133  0.31681467  0.34646806  1.0
  Ni  Ni748  1  0.26093133  0.65014800  0.34646806  1.0
  Ni  Ni749  1  0.26093133  0.98348133  0.34646806  1.0
  Ni  Ni750  1  0.59426467  0.31681467  0.34646806  1.0
  Ni  Ni751  1  0.59426467  0.65014800  0.34646806  1.0
  Ni  Ni752  1  0.59426467  0.98348133  0.34646806  1.0
  Ni  Ni753  1  0.92759800  0.31681467  0.34646806  1.0
  Ni  Ni754  1  0.92759800  0.65014800  0.34646806  1.0
  Ni  Ni755  1  0.92759800  0.98348133  0.34646806  1.0
  Ni  Ni756  1  0.08486133  0.05063600  0.44940056  1.0
  Ni  Ni757  1  0.08486133  0.38396933  0.44940056  1.0
  Ni  Ni758  1  0.08486133  0.71730267  0.44940056  1.0
  Ni  Ni759  1  0.41819467  0.05063600  0.44940056  1.0
  Ni  Ni760  1  0.41819467  0.38396933  0.44940056  1.0
  Ni  Ni761  1  0.41819467  0.71730267  0.44940056  1.0
  Ni  Ni762  1  0.75152800  0.05063600  0.44940056  1.0
  Ni  Ni763  1  0.75152800  0.38396933  0.44940056  1.0
  Ni  Ni764  1  0.75152800  0.71730267  0.44940056  1.0
  Ni  Ni765  1  0.08486133  0.21730267  0.32440056  1.0
  Ni  Ni766  1  0.08486133  0.55063600  0.32440056  1.0
  Ni  Ni767  1  0.08486133  0.88396933  0.32440056  1.0
  Ni  Ni768  1  0.41819467  0.21730267  0.32440056  1.0
  Ni  Ni769  1  0.41819467  0.55063600  0.32440056  1.0
  Ni  Ni770  1  0.41819467  0.88396933  0.32440056  1.0
  Ni  Ni771  1  0.75152800  0.21730267  0.32440056  1.0
  Ni  Ni772  1  0.75152800  0.55063600  0.32440056  1.0
  Ni  Ni773  1  0.75152800  0.88396933  0.32440056  1.0
  Ni  Ni774  1  0.24847200  0.11603067  0.42109556  1.0
  Ni  Ni775  1  0.24847200  0.44936400  0.42109556  1.0
  Ni  Ni776  1  0.24847200  0.78269733  0.42109556  1.0
  Ni  Ni777  1  0.58180533  0.11603067  0.42109556  1.0
  Ni  Ni778  1  0.58180533  0.44936400  0.42109556  1.0
  Ni  Ni779  1  0.58180533  0.78269733  0.42109556  1.0
  Ni  Ni780  1  0.91513867  0.11603067  0.42109556  1.0
  Ni  Ni781  1  0.91513867  0.44936400  0.42109556  1.0
  Ni  Ni782  1  0.91513867  0.78269733  0.42109556  1.0
  Ni  Ni783  1  0.24847200  0.28269733  0.29609556  1.0
  Ni  Ni784  1  0.24847200  0.61603067  0.29609556  1.0
  Ni  Ni785  1  0.24847200  0.94936400  0.29609556  1.0
  Ni  Ni786  1  0.58180533  0.28269733  0.29609556  1.0
  Ni  Ni787  1  0.58180533  0.61603067  0.29609556  1.0
  Ni  Ni788  1  0.58180533  0.94936400  0.29609556  1.0
  Ni  Ni789  1  0.91513867  0.28269733  0.29609556  1.0
  Ni  Ni790  1  0.91513867  0.61603067  0.29609556  1.0
  Ni  Ni791  1  0.91513867  0.94936400  0.29609556  1.0
  Ni  Ni792  1  0.09630467  0.02272600  0.26998781  1.0
  Ni  Ni793  1  0.09630467  0.35605933  0.26998781  1.0
  Ni  Ni794  1  0.09630467  0.68939267  0.26998781  1.0
  Ni  Ni795  1  0.42963800  0.02272600  0.26998781  1.0
  Ni  Ni796  1  0.42963800  0.35605933  0.26998781  1.0
  Ni  Ni797  1  0.42963800  0.68939267  0.26998781  1.0
  Ni  Ni798  1  0.76297133  0.02272600  0.26998781  1.0
  Ni  Ni799  1  0.76297133  0.35605933  0.26998781  1.0
  Ni  Ni800  1  0.76297133  0.68939267  0.26998781  1.0
  Ni  Ni801  1  0.09630467  0.18939267  0.39498781  1.0
  Ni  Ni802  1  0.09630467  0.52272600  0.39498781  1.0
  Ni  Ni803  1  0.09630467  0.85605933  0.39498781  1.0
  Ni  Ni804  1  0.42963800  0.18939267  0.39498781  1.0
  Ni  Ni805  1  0.42963800  0.52272600  0.39498781  1.0
  Ni  Ni806  1  0.42963800  0.85605933  0.39498781  1.0
  Ni  Ni807  1  0.76297133  0.18939267  0.39498781  1.0
  Ni  Ni808  1  0.76297133  0.52272600  0.39498781  1.0
  Ni  Ni809  1  0.76297133  0.85605933  0.39498781  1.0
  Ni  Ni810  1  0.01793667  0.14682367  0.35010431  1.0
  Ni  Ni811  1  0.01793667  0.48015700  0.35010431  1.0
  Ni  Ni812  1  0.01793667  0.81349033  0.35010431  1.0
  Ni  Ni813  1  0.35127000  0.14682367  0.35010431  1.0
  Ni  Ni814  1  0.35127000  0.48015700  0.35010431  1.0
  Ni  Ni815  1  0.35127000  0.81349033  0.35010431  1.0
  Ni  Ni816  1  0.68460333  0.14682367  0.35010431  1.0
  Ni  Ni817  1  0.68460333  0.48015700  0.35010431  1.0
  Ni  Ni818  1  0.68460333  0.81349033  0.35010431  1.0
  Ni  Ni819  1  0.01793667  0.31349033  0.47510431  1.0
  Ni  Ni820  1  0.01793667  0.64682367  0.47510431  1.0
  Ni  Ni821  1  0.01793667  0.98015700  0.47510431  1.0
  Ni  Ni822  1  0.35127000  0.31349033  0.47510431  1.0
  Ni  Ni823  1  0.35127000  0.64682367  0.47510431  1.0
  Ni  Ni824  1  0.35127000  0.98015700  0.47510431  1.0
  Ni  Ni825  1  0.68460333  0.31349033  0.47510431  1.0
  Ni  Ni826  1  0.68460333  0.64682367  0.47510431  1.0
  Ni  Ni827  1  0.68460333  0.98015700  0.47510431  1.0
  Ni  Ni828  1  0.31539667  0.01984300  0.27039181  1.0
  Ni  Ni829  1  0.31539667  0.35317633  0.27039181  1.0
  Ni  Ni830  1  0.31539667  0.68650967  0.27039181  1.0
  Ni  Ni831  1  0.64873000  0.01984300  0.27039181  1.0
  Ni  Ni832  1  0.64873000  0.35317633  0.27039181  1.0
  Ni  Ni833  1  0.64873000  0.68650967  0.27039181  1.0
  Ni  Ni834  1  0.98206333  0.01984300  0.27039181  1.0
  Ni  Ni835  1  0.98206333  0.35317633  0.27039181  1.0
  Ni  Ni836  1  0.98206333  0.68650967  0.27039181  1.0
  Ni  Ni837  1  0.31539667  0.18650967  0.39539181  1.0
  Ni  Ni838  1  0.31539667  0.51984300  0.39539181  1.0
  Ni  Ni839  1  0.31539667  0.85317633  0.39539181  1.0
  Ni  Ni840  1  0.64873000  0.18650967  0.39539181  1.0
  Ni  Ni841  1  0.64873000  0.51984300  0.39539181  1.0
  Ni  Ni842  1  0.64873000  0.85317633  0.39539181  1.0
  Ni  Ni843  1  0.98206333  0.18650967  0.39539181  1.0
  Ni  Ni844  1  0.98206333  0.51984300  0.39539181  1.0
  Ni  Ni845  1  0.98206333  0.85317633  0.39539181  1.0
  Ni  Ni846  1  0.06871733  0.08611650  0.37725194  1.0
  Ni  Ni847  1  0.06871733  0.41944983  0.37725194  1.0
  Ni  Ni848  1  0.06871733  0.75278317  0.37725194  1.0
  Ni  Ni849  1  0.40205067  0.08611650  0.37725194  1.0
  Ni  Ni850  1  0.40205067  0.41944983  0.37725194  1.0
  Ni  Ni851  1  0.40205067  0.75278317  0.37725194  1.0
  Ni  Ni852  1  0.73538400  0.08611650  0.37725194  1.0
  Ni  Ni853  1  0.73538400  0.41944983  0.37725194  1.0
  Ni  Ni854  1  0.73538400  0.75278317  0.37725194  1.0
  Ni  Ni855  1  0.06871733  0.25278317  0.25225194  1.0
  Ni  Ni856  1  0.06871733  0.58611650  0.25225194  1.0
  Ni  Ni857  1  0.06871733  0.91944983  0.25225194  1.0
  Ni  Ni858  1  0.40205067  0.25278317  0.25225194  1.0
  Ni  Ni859  1  0.40205067  0.58611650  0.25225194  1.0
  Ni  Ni860  1  0.40205067  0.91944983  0.25225194  1.0
  Ni  Ni861  1  0.73538400  0.25278317  0.25225194  1.0
  Ni  Ni862  1  0.73538400  0.58611650  0.25225194  1.0
  Ni  Ni863  1  0.73538400  0.91944983  0.25225194  1.0
  Ni  Ni864  1  0.26461600  0.08055017  0.49324419  1.0
  Ni  Ni865  1  0.26461600  0.41388350  0.49324419  1.0
  Ni  Ni866  1  0.26461600  0.74721683  0.49324419  1.0
  Ni  Ni867  1  0.59794933  0.08055017  0.49324419  1.0
  Ni  Ni868  1  0.59794933  0.41388350  0.49324419  1.0
  Ni  Ni869  1  0.59794933  0.74721683  0.49324419  1.0
  Ni  Ni870  1  0.93128267  0.08055017  0.49324419  1.0
  Ni  Ni871  1  0.93128267  0.41388350  0.49324419  1.0
  Ni  Ni872  1  0.93128267  0.74721683  0.49324419  1.0
  Ni  Ni873  1  0.26461600  0.24721683  0.36824419  1.0
  Ni  Ni874  1  0.26461600  0.58055017  0.36824419  1.0
  Ni  Ni875  1  0.26461600  0.91388350  0.36824419  1.0
  Ni  Ni876  1  0.59794933  0.24721683  0.36824419  1.0
  Ni  Ni877  1  0.59794933  0.58055017  0.36824419  1.0
  Ni  Ni878  1  0.59794933  0.91388350  0.36824419  1.0
  Ni  Ni879  1  0.93128267  0.24721683  0.36824419  1.0
  Ni  Ni880  1  0.93128267  0.58055017  0.36824419  1.0
  Ni  Ni881  1  0.93128267  0.91388350  0.36824419  1.0
  Ni  Ni882  1  0.08089933  0.11346000  0.29983181  1.0
  Ni  Ni883  1  0.08089933  0.44679333  0.29983181  1.0
  Ni  Ni884  1  0.08089933  0.78012667  0.29983181  1.0
  Ni  Ni885  1  0.41423267  0.11346000  0.29983181  1.0
  Ni  Ni886  1  0.41423267  0.44679333  0.29983181  1.0
  Ni  Ni887  1  0.41423267  0.78012667  0.29983181  1.0
  Ni  Ni888  1  0.74756600  0.11346000  0.29983181  1.0
  Ni  Ni889  1  0.74756600  0.44679333  0.29983181  1.0
  Ni  Ni890  1  0.74756600  0.78012667  0.29983181  1.0
  Ni  Ni891  1  0.08089933  0.28012667  0.42483181  1.0
  Ni  Ni892  1  0.08089933  0.61346000  0.42483181  1.0
  Ni  Ni893  1  0.08089933  0.94679333  0.42483181  1.0
  Ni  Ni894  1  0.41423267  0.28012667  0.42483181  1.0
  Ni  Ni895  1  0.41423267  0.61346000  0.42483181  1.0
  Ni  Ni896  1  0.41423267  0.94679333  0.42483181  1.0
  Ni  Ni897  1  0.74756600  0.28012667  0.42483181  1.0
  Ni  Ni898  1  0.74756600  0.61346000  0.42483181  1.0
  Ni  Ni899  1  0.74756600  0.94679333  0.42483181  1.0
  Ni  Ni900  1  0.25243400  0.05320667  0.32066431  1.0
  Ni  Ni901  1  0.25243400  0.38654000  0.32066431  1.0
  Ni  Ni902  1  0.25243400  0.71987333  0.32066431  1.0
  Ni  Ni903  1  0.58576733  0.05320667  0.32066431  1.0
  Ni  Ni904  1  0.58576733  0.38654000  0.32066431  1.0
  Ni  Ni905  1  0.58576733  0.71987333  0.32066431  1.0
  Ni  Ni906  1  0.91910067  0.05320667  0.32066431  1.0
  Ni  Ni907  1  0.91910067  0.38654000  0.32066431  1.0
  Ni  Ni908  1  0.91910067  0.71987333  0.32066431  1.0
  Ni  Ni909  1  0.25243400  0.21987333  0.44566431  1.0
  Ni  Ni910  1  0.25243400  0.55320667  0.44566431  1.0
  Ni  Ni911  1  0.25243400  0.88654000  0.44566431  1.0
  Ni  Ni912  1  0.58576733  0.21987333  0.44566431  1.0
  Ni  Ni913  1  0.58576733  0.55320667  0.44566431  1.0
  Ni  Ni914  1  0.58576733  0.88654000  0.44566431  1.0
  Ni  Ni915  1  0.91910067  0.21987333  0.44566431  1.0
  Ni  Ni916  1  0.91910067  0.55320667  0.44566431  1.0
  Ni  Ni917  1  0.91910067  0.88654000  0.44566431  1.0
  Ni  Ni918  1  0.08613200  0.15022617  0.47186169  1.0
  Ni  Ni919  1  0.08613200  0.48355950  0.47186169  1.0
  Ni  Ni920  1  0.08613200  0.81689283  0.47186169  1.0
  Ni  Ni921  1  0.41946533  0.15022617  0.47186169  1.0
  Ni  Ni922  1  0.41946533  0.48355950  0.47186169  1.0
  Ni  Ni923  1  0.41946533  0.81689283  0.47186169  1.0
  Ni  Ni924  1  0.75279867  0.15022617  0.47186169  1.0
  Ni  Ni925  1  0.75279867  0.48355950  0.47186169  1.0
  Ni  Ni926  1  0.75279867  0.81689283  0.47186169  1.0
  Ni  Ni927  1  0.08613200  0.31689283  0.34686169  1.0
  Ni  Ni928  1  0.08613200  0.65022617  0.34686169  1.0
  Ni  Ni929  1  0.08613200  0.98355950  0.34686169  1.0
  Ni  Ni930  1  0.41946533  0.31689283  0.34686169  1.0
  Ni  Ni931  1  0.41946533  0.65022617  0.34686169  1.0
  Ni  Ni932  1  0.41946533  0.98355950  0.34686169  1.0
  Ni  Ni933  1  0.75279867  0.31689283  0.34686169  1.0
  Ni  Ni934  1  0.75279867  0.65022617  0.34686169  1.0
  Ni  Ni935  1  0.75279867  0.98355950  0.34686169  1.0
  Ni  Ni936  1  0.24720133  0.01644050  0.39863444  1.0
  Ni  Ni937  1  0.24720133  0.34977383  0.39863444  1.0
  Ni  Ni938  1  0.24720133  0.68310717  0.39863444  1.0
  Ni  Ni939  1  0.58053467  0.01644050  0.39863444  1.0
  Ni  Ni940  1  0.58053467  0.34977383  0.39863444  1.0
  Ni  Ni941  1  0.58053467  0.68310717  0.39863444  1.0
  Ni  Ni942  1  0.91386800  0.01644050  0.39863444  1.0
  Ni  Ni943  1  0.91386800  0.34977383  0.39863444  1.0
  Ni  Ni944  1  0.91386800  0.68310717  0.39863444  1.0
  Ni  Ni945  1  0.24720133  0.18310717  0.27363444  1.0
  Ni  Ni946  1  0.24720133  0.51644050  0.27363444  1.0
  Ni  Ni947  1  0.24720133  0.84977383  0.27363444  1.0
  Ni  Ni948  1  0.58053467  0.18310717  0.27363444  1.0
  Ni  Ni949  1  0.58053467  0.51644050  0.27363444  1.0
  Ni  Ni950  1  0.58053467  0.84977383  0.27363444  1.0
  Ni  Ni951  1  0.91386800  0.18310717  0.27363444  1.0
  Ni  Ni952  1  0.91386800  0.51644050  0.27363444  1.0
  Ni  Ni953  1  0.91386800  0.84977383  0.27363444  1.0
  Ni  Ni954  1  0.13021400  0.11885483  0.41577619  1.0
  Ni  Ni955  1  0.13021400  0.45218817  0.41577619  1.0
  Ni  Ni956  1  0.13021400  0.78552150  0.41577619  1.0
  Ni  Ni957  1  0.46354733  0.11885483  0.41577619  1.0
  Ni  Ni958  1  0.46354733  0.45218817  0.41577619  1.0
  Ni  Ni959  1  0.46354733  0.78552150  0.41577619  1.0
  Ni  Ni960  1  0.79688067  0.11885483  0.41577619  1.0
  Ni  Ni961  1  0.79688067  0.45218817  0.41577619  1.0
  Ni  Ni962  1  0.79688067  0.78552150  0.41577619  1.0
  Ni  Ni963  1  0.13021400  0.28552150  0.29077619  1.0
  Ni  Ni964  1  0.13021400  0.61885483  0.29077619  1.0
  Ni  Ni965  1  0.13021400  0.95218817  0.29077619  1.0
  Ni  Ni966  1  0.46354733  0.28552150  0.29077619  1.0
  Ni  Ni967  1  0.46354733  0.61885483  0.29077619  1.0
  Ni  Ni968  1  0.46354733  0.95218817  0.29077619  1.0
  Ni  Ni969  1  0.79688067  0.28552150  0.29077619  1.0
  Ni  Ni970  1  0.79688067  0.61885483  0.29077619  1.0
  Ni  Ni971  1  0.79688067  0.95218817  0.29077619  1.0
  Ni  Ni972  1  0.20311933  0.04781183  0.45471994  1.0
  Ni  Ni973  1  0.20311933  0.38114517  0.45471994  1.0
  Ni  Ni974  1  0.20311933  0.71447850  0.45471994  1.0
  Ni  Ni975  1  0.53645267  0.04781183  0.45471994  1.0
  Ni  Ni976  1  0.53645267  0.38114517  0.45471994  1.0
  Ni  Ni977  1  0.53645267  0.71447850  0.45471994  1.0
  Ni  Ni978  1  0.86978600  0.04781183  0.45471994  1.0
  Ni  Ni979  1  0.86978600  0.38114517  0.45471994  1.0
  Ni  Ni980  1  0.86978600  0.71447850  0.45471994  1.0
  Ni  Ni981  1  0.20311933  0.21447850  0.32971994  1.0
  Ni  Ni982  1  0.20311933  0.54781183  0.32971994  1.0
  Ni  Ni983  1  0.20311933  0.88114517  0.32971994  1.0
  Ni  Ni984  1  0.53645267  0.21447850  0.32971994  1.0
  Ni  Ni985  1  0.53645267  0.54781183  0.32971994  1.0
  Ni  Ni986  1  0.53645267  0.88114517  0.32971994  1.0
  Ni  Ni987  1  0.86978600  0.21447850  0.32971994  1.0
  Ni  Ni988  1  0.86978600  0.54781183  0.32971994  1.0
  Ni  Ni989  1  0.86978600  0.88114517  0.32971994  1.0
  Ni  Ni990  1  0.19968467  0.11391483  0.29657544  1.0
  Ni  Ni991  1  0.19968467  0.44724817  0.29657544  1.0
  Ni  Ni992  1  0.19968467  0.78058150  0.29657544  1.0
  Ni  Ni993  1  0.53301800  0.11391483  0.29657544  1.0
  Ni  Ni994  1  0.53301800  0.44724817  0.29657544  1.0
  Ni  Ni995  1  0.53301800  0.78058150  0.29657544  1.0
  Ni  Ni996  1  0.86635133  0.11391483  0.29657544  1.0
  Ni  Ni997  1  0.86635133  0.44724817  0.29657544  1.0
  Ni  Ni998  1  0.86635133  0.78058150  0.29657544  1.0
  Ni  Ni999  1  0.19968467  0.28058150  0.42157544  1.0
  Ni  Ni1000  1  0.19968467  0.61391483  0.42157544  1.0
  Ni  Ni1001  1  0.19968467  0.94724817  0.42157544  1.0
  Ni  Ni1002  1  0.53301800  0.28058150  0.42157544  1.0
  Ni  Ni1003  1  0.53301800  0.61391483  0.42157544  1.0
  Ni  Ni1004  1  0.53301800  0.94724817  0.42157544  1.0
  Ni  Ni1005  1  0.86635133  0.28058150  0.42157544  1.0
  Ni  Ni1006  1  0.86635133  0.61391483  0.42157544  1.0
  Ni  Ni1007  1  0.86635133  0.94724817  0.42157544  1.0
  Ni  Ni1008  1  0.13364867  0.05275183  0.32392069  1.0
  Ni  Ni1009  1  0.13364867  0.38608517  0.32392069  1.0
  Ni  Ni1010  1  0.13364867  0.71941850  0.32392069  1.0
  Ni  Ni1011  1  0.46698200  0.05275183  0.32392069  1.0
  Ni  Ni1012  1  0.46698200  0.38608517  0.32392069  1.0
  Ni  Ni1013  1  0.46698200  0.71941850  0.32392069  1.0
  Ni  Ni1014  1  0.80031533  0.05275183  0.32392069  1.0
  Ni  Ni1015  1  0.80031533  0.38608517  0.32392069  1.0
  Ni  Ni1016  1  0.80031533  0.71941850  0.32392069  1.0
  Ni  Ni1017  1  0.13364867  0.21941850  0.44892069  1.0
  Ni  Ni1018  1  0.13364867  0.55275183  0.44892069  1.0
  Ni  Ni1019  1  0.13364867  0.88608517  0.44892069  1.0
  Ni  Ni1020  1  0.46698200  0.21941850  0.44892069  1.0
  Ni  Ni1021  1  0.46698200  0.55275183  0.44892069  1.0
  Ni  Ni1022  1  0.46698200  0.88608517  0.44892069  1.0
  Ni  Ni1023  1  0.80031533  0.21941850  0.44892069  1.0
  Ni  Ni1024  1  0.80031533  0.55275183  0.44892069  1.0
  Ni  Ni1025  1  0.80031533  0.88608517  0.44892069  1.0
  Ni  Ni1026  1  0.23702867  0.14394067  0.35050831  1.0
  Ni  Ni1027  1  0.23702867  0.47727400  0.35050831  1.0
  Ni  Ni1028  1  0.23702867  0.81060733  0.35050831  1.0
  Ni  Ni1029  1  0.57036200  0.14394067  0.35050831  1.0
  Ni  Ni1030  1  0.57036200  0.47727400  0.35050831  1.0
  Ni  Ni1031  1  0.57036200  0.81060733  0.35050831  1.0
  Ni  Ni1032  1  0.90369533  0.14394067  0.35050831  1.0
  Ni  Ni1033  1  0.90369533  0.47727400  0.35050831  1.0
  Ni  Ni1034  1  0.90369533  0.81060733  0.35050831  1.0
  Ni  Ni1035  1  0.23702867  0.31060733  0.47550831  1.0
  Ni  Ni1036  1  0.23702867  0.64394067  0.47550831  1.0
  Ni  Ni1037  1  0.23702867  0.97727400  0.47550831  1.0
  Ni  Ni1038  1  0.57036200  0.31060733  0.47550831  1.0
  Ni  Ni1039  1  0.57036200  0.64394067  0.47550831  1.0
  Ni  Ni1040  1  0.57036200  0.97727400  0.47550831  1.0
  Ni  Ni1041  1  0.90369533  0.31060733  0.47550831  1.0
  Ni  Ni1042  1  0.90369533  0.64394067  0.47550831  1.0
  Ni  Ni1043  1  0.90369533  0.97727400  0.47550831  1.0
