# generated using pymatgen
data_Hf8Ni21
_symmetry_space_group_name_H-M   'P 1'
_cell_length_a   33.88732722
_cell_length_b   39.28180324
_cell_length_c   26.58696301
_cell_angle_alpha   94.88299331
_cell_angle_beta   93.05235894
_cell_angle_gamma   99.43763254
_symmetry_Int_Tables_number   1
_chemical_formula_structural   Hf8Ni21
_chemical_formula_sum   'Hf288 Ni756'
_cell_volume   34704.22014829
_cell_formula_units_Z   36
loop_
 _symmetry_equiv_pos_site_id
 _symmetry_equiv_pos_as_xyz
  1  'x, y, z'
loop_
 _atom_site_type_symbol
 _atom_site_label
 _atom_site_symmetry_multiplicity
 _atom_site_fract_x
 _atom_site_fract_y
 _atom_site_fract_z
 _atom_site_occupancy
  Hf  Hf0  1  0.06505975  0.11301092  0.10343625  1.0
  Hf  Hf1  1  0.06505975  0.44634425  0.10343625  1.0
  Hf  Hf2  1  0.06505975  0.77967758  0.10343625  1.0
  Hf  Hf3  1  0.39839308  0.11301092  0.10343625  1.0
  Hf  Hf4  1  0.39839308  0.44634425  0.10343625  1.0
  Hf  Hf5  1  0.39839308  0.77967758  0.10343625  1.0
  Hf  Hf6  1  0.73172642  0.11301092  0.10343625  1.0
  Hf  Hf7  1  0.73172642  0.44634425  0.10343625  1.0
  Hf  Hf8  1  0.73172642  0.77967758  0.10343625  1.0
  Hf  Hf9  1  0.26505975  0.24634425  0.00343625  1.0
  Hf  Hf10  1  0.26505975  0.57967758  0.00343625  1.0
  Hf  Hf11  1  0.26505975  0.91301092  0.00343625  1.0
  Hf  Hf12  1  0.59839308  0.24634425  0.00343625  1.0
  Hf  Hf13  1  0.59839308  0.57967758  0.00343625  1.0
  Hf  Hf14  1  0.59839308  0.91301092  0.00343625  1.0
  Hf  Hf15  1  0.93172642  0.24634425  0.00343625  1.0
  Hf  Hf16  1  0.93172642  0.57967758  0.00343625  1.0
  Hf  Hf17  1  0.93172642  0.91301092  0.00343625  1.0
  Hf  Hf18  1  0.20539362  0.28320238  0.08520365  1.0
  Hf  Hf19  1  0.20539362  0.61653572  0.08520365  1.0
  Hf  Hf20  1  0.20539362  0.94986905  0.08520365  1.0
  Hf  Hf21  1  0.53872695  0.28320238  0.08520365  1.0
  Hf  Hf22  1  0.53872695  0.61653572  0.08520365  1.0
  Hf  Hf23  1  0.53872695  0.94986905  0.08520365  1.0
  Hf  Hf24  1  0.87206028  0.28320238  0.08520365  1.0
  Hf  Hf25  1  0.87206028  0.61653572  0.08520365  1.0
  Hf  Hf26  1  0.87206028  0.94986905  0.08520365  1.0
  Hf  Hf27  1  0.00539362  0.14986905  0.18520365  1.0
  Hf  Hf28  1  0.00539362  0.48320238  0.18520365  1.0
  Hf  Hf29  1  0.00539362  0.81653572  0.18520365  1.0
  Hf  Hf30  1  0.33872695  0.14986905  0.18520365  1.0
  Hf  Hf31  1  0.33872695  0.48320238  0.18520365  1.0
  Hf  Hf32  1  0.33872695  0.81653572  0.18520365  1.0
  Hf  Hf33  1  0.67206028  0.14986905  0.18520365  1.0
  Hf  Hf34  1  0.67206028  0.48320238  0.18520365  1.0
  Hf  Hf35  1  0.67206028  0.81653572  0.18520365  1.0
  Hf  Hf36  1  0.07865682  0.00624018  0.15968955  1.0
  Hf  Hf37  1  0.07865682  0.33957352  0.15968955  1.0
  Hf  Hf38  1  0.07865682  0.67290685  0.15968955  1.0
  Hf  Hf39  1  0.41199015  0.00624018  0.15968955  1.0
  Hf  Hf40  1  0.41199015  0.33957352  0.15968955  1.0
  Hf  Hf41  1  0.41199015  0.67290685  0.15968955  1.0
  Hf  Hf42  1  0.74532348  0.00624018  0.15968955  1.0
  Hf  Hf43  1  0.74532348  0.33957352  0.15968955  1.0
  Hf  Hf44  1  0.74532348  0.67290685  0.15968955  1.0
  Hf  Hf45  1  0.27865682  0.13957352  0.05968955  1.0
  Hf  Hf46  1  0.27865682  0.47290685  0.05968955  1.0
  Hf  Hf47  1  0.27865682  0.80624018  0.05968955  1.0
  Hf  Hf48  1  0.61199015  0.13957352  0.05968955  1.0
  Hf  Hf49  1  0.61199015  0.47290685  0.05968955  1.0
  Hf  Hf50  1  0.61199015  0.80624018  0.05968955  1.0
  Hf  Hf51  1  0.94532348  0.13957352  0.05968955  1.0
  Hf  Hf52  1  0.94532348  0.47290685  0.05968955  1.0
  Hf  Hf53  1  0.94532348  0.80624018  0.05968955  1.0
  Hf  Hf54  1  0.19179655  0.05663978  0.02895035  1.0
  Hf  Hf55  1  0.19179655  0.38997312  0.02895035  1.0
  Hf  Hf56  1  0.19179655  0.72330645  0.02895035  1.0
  Hf  Hf57  1  0.52512988  0.05663978  0.02895035  1.0
  Hf  Hf58  1  0.52512988  0.38997312  0.02895035  1.0
  Hf  Hf59  1  0.52512988  0.72330645  0.02895035  1.0
  Hf  Hf60  1  0.85846322  0.05663978  0.02895035  1.0
  Hf  Hf61  1  0.85846322  0.38997312  0.02895035  1.0
  Hf  Hf62  1  0.85846322  0.72330645  0.02895035  1.0
  Hf  Hf63  1  0.32512988  0.25663978  0.12895035  1.0
  Hf  Hf64  1  0.32512988  0.58997312  0.12895035  1.0
  Hf  Hf65  1  0.32512988  0.92330645  0.12895035  1.0
  Hf  Hf66  1  0.65846322  0.25663978  0.12895035  1.0
  Hf  Hf67  1  0.65846322  0.58997312  0.12895035  1.0
  Hf  Hf68  1  0.65846322  0.92330645  0.12895035  1.0
  Hf  Hf69  1  0.99179655  0.25663978  0.12895035  1.0
  Hf  Hf70  1  0.99179655  0.58997312  0.12895035  1.0
  Hf  Hf71  1  0.99179655  0.92330645  0.12895035  1.0
  Hf  Hf72  1  0.18539582  0.08609585  0.14939155  1.0
  Hf  Hf73  1  0.18539582  0.41942918  0.14939155  1.0
  Hf  Hf74  1  0.18539582  0.75276252  0.14939155  1.0
  Hf  Hf75  1  0.51872915  0.08609585  0.14939155  1.0
  Hf  Hf76  1  0.51872915  0.41942918  0.14939155  1.0
  Hf  Hf77  1  0.51872915  0.75276252  0.14939155  1.0
  Hf  Hf78  1  0.85206248  0.08609585  0.14939155  1.0
  Hf  Hf79  1  0.85206248  0.41942918  0.14939155  1.0
  Hf  Hf80  1  0.85206248  0.75276252  0.14939155  1.0
  Hf  Hf81  1  0.05206248  0.21942918  0.04939155  1.0
  Hf  Hf82  1  0.05206248  0.55276252  0.04939155  1.0
  Hf  Hf83  1  0.05206248  0.88609585  0.04939155  1.0
  Hf  Hf84  1  0.38539582  0.21942918  0.04939155  1.0
  Hf  Hf85  1  0.38539582  0.55276252  0.04939155  1.0
  Hf  Hf86  1  0.38539582  0.88609585  0.04939155  1.0
  Hf  Hf87  1  0.71872915  0.21942918  0.04939155  1.0
  Hf  Hf88  1  0.71872915  0.55276252  0.04939155  1.0
  Hf  Hf89  1  0.71872915  0.88609585  0.04939155  1.0
  Hf  Hf90  1  0.08505755  0.31011745  0.03924835  1.0
  Hf  Hf91  1  0.08505755  0.64345078  0.03924835  1.0
  Hf  Hf92  1  0.08505755  0.97678412  0.03924835  1.0
  Hf  Hf93  1  0.41839088  0.31011745  0.03924835  1.0
  Hf  Hf94  1  0.41839088  0.64345078  0.03924835  1.0
  Hf  Hf95  1  0.41839088  0.97678412  0.03924835  1.0
  Hf  Hf96  1  0.75172422  0.31011745  0.03924835  1.0
  Hf  Hf97  1  0.75172422  0.64345078  0.03924835  1.0
  Hf  Hf98  1  0.75172422  0.97678412  0.03924835  1.0
  Hf  Hf99  1  0.21839088  0.17678412  0.13924835  1.0
  Hf  Hf100  1  0.21839088  0.51011745  0.13924835  1.0
  Hf  Hf101  1  0.21839088  0.84345078  0.13924835  1.0
  Hf  Hf102  1  0.55172422  0.17678412  0.13924835  1.0
  Hf  Hf103  1  0.55172422  0.51011745  0.13924835  1.0
  Hf  Hf104  1  0.55172422  0.84345078  0.13924835  1.0
  Hf  Hf105  1  0.88505755  0.17678412  0.13924835  1.0
  Hf  Hf106  1  0.88505755  0.51011745  0.13924835  1.0
  Hf  Hf107  1  0.88505755  0.84345078  0.13924835  1.0
  Hf  Hf108  1  0.12471228  0.24438005  0.14838615  1.0
  Hf  Hf109  1  0.12471228  0.57771338  0.14838615  1.0
  Hf  Hf110  1  0.12471228  0.91104672  0.14838615  1.0
  Hf  Hf111  1  0.45804562  0.24438005  0.14838615  1.0
  Hf  Hf112  1  0.45804562  0.57771338  0.14838615  1.0
  Hf  Hf113  1  0.45804562  0.91104672  0.14838615  1.0
  Hf  Hf114  1  0.79137895  0.24438005  0.14838615  1.0
  Hf  Hf115  1  0.79137895  0.57771338  0.14838615  1.0
  Hf  Hf116  1  0.79137895  0.91104672  0.14838615  1.0
  Hf  Hf117  1  0.32471228  0.04438005  0.04838615  1.0
  Hf  Hf118  1  0.32471228  0.37771338  0.04838615  1.0
  Hf  Hf119  1  0.32471228  0.71104672  0.04838615  1.0
  Hf  Hf120  1  0.65804562  0.04438005  0.04838615  1.0
  Hf  Hf121  1  0.65804562  0.37771338  0.04838615  1.0
  Hf  Hf122  1  0.65804562  0.71104672  0.04838615  1.0
  Hf  Hf123  1  0.99137895  0.04438005  0.04838615  1.0
  Hf  Hf124  1  0.99137895  0.37771338  0.04838615  1.0
  Hf  Hf125  1  0.99137895  0.71104672  0.04838615  1.0
  Hf  Hf126  1  0.14574108  0.15183325  0.04025375  1.0
  Hf  Hf127  1  0.14574108  0.48516658  0.04025375  1.0
  Hf  Hf128  1  0.14574108  0.81849992  0.04025375  1.0
  Hf  Hf129  1  0.47907442  0.15183325  0.04025375  1.0
  Hf  Hf130  1  0.47907442  0.48516658  0.04025375  1.0
  Hf  Hf131  1  0.47907442  0.81849992  0.04025375  1.0
  Hf  Hf132  1  0.81240775  0.15183325  0.04025375  1.0
  Hf  Hf133  1  0.81240775  0.48516658  0.04025375  1.0
  Hf  Hf134  1  0.81240775  0.81849992  0.04025375  1.0
  Hf  Hf135  1  0.27907442  0.01849992  0.14025375  1.0
  Hf  Hf136  1  0.27907442  0.35183325  0.14025375  1.0
  Hf  Hf137  1  0.27907442  0.68516658  0.14025375  1.0
  Hf  Hf138  1  0.61240775  0.01849992  0.14025375  1.0
  Hf  Hf139  1  0.61240775  0.35183325  0.14025375  1.0
  Hf  Hf140  1  0.61240775  0.68516658  0.14025375  1.0
  Hf  Hf141  1  0.94574108  0.01849992  0.14025375  1.0
  Hf  Hf142  1  0.94574108  0.35183325  0.14025375  1.0
  Hf  Hf143  1  0.94574108  0.68516658  0.14025375  1.0
  Hf  Hf144  1  0.33172642  0.17967758  0.30343625  1.0
  Hf  Hf145  1  0.33172642  0.51301092  0.30343625  1.0
  Hf  Hf146  1  0.33172642  0.84634425  0.30343625  1.0
  Hf  Hf147  1  0.66505975  0.17967758  0.30343625  1.0
  Hf  Hf148  1  0.66505975  0.51301092  0.30343625  1.0
  Hf  Hf149  1  0.66505975  0.84634425  0.30343625  1.0
  Hf  Hf150  1  0.99839308  0.17967758  0.30343625  1.0
  Hf  Hf151  1  0.99839308  0.51301092  0.30343625  1.0
  Hf  Hf152  1  0.99839308  0.84634425  0.30343625  1.0
  Hf  Hf153  1  0.19839308  0.31301092  0.20343625  1.0
  Hf  Hf154  1  0.19839308  0.64634425  0.20343625  1.0
  Hf  Hf155  1  0.19839308  0.97967758  0.20343625  1.0
  Hf  Hf156  1  0.53172642  0.31301092  0.20343625  1.0
  Hf  Hf157  1  0.53172642  0.64634425  0.20343625  1.0
  Hf  Hf158  1  0.53172642  0.97967758  0.20343625  1.0
  Hf  Hf159  1  0.86505975  0.31301092  0.20343625  1.0
  Hf  Hf160  1  0.86505975  0.64634425  0.20343625  1.0
  Hf  Hf161  1  0.86505975  0.97967758  0.20343625  1.0
  Hf  Hf162  1  0.13872695  0.01653572  0.28520365  1.0
  Hf  Hf163  1  0.13872695  0.34986905  0.28520365  1.0
  Hf  Hf164  1  0.13872695  0.68320238  0.28520365  1.0
  Hf  Hf165  1  0.47206028  0.01653572  0.28520365  1.0
  Hf  Hf166  1  0.47206028  0.34986905  0.28520365  1.0
  Hf  Hf167  1  0.47206028  0.68320238  0.28520365  1.0
  Hf  Hf168  1  0.80539362  0.01653572  0.28520365  1.0
  Hf  Hf169  1  0.80539362  0.34986905  0.28520365  1.0
  Hf  Hf170  1  0.80539362  0.68320238  0.28520365  1.0
  Hf  Hf171  1  0.27206028  0.21653572  0.38520365  1.0
  Hf  Hf172  1  0.27206028  0.54986905  0.38520365  1.0
  Hf  Hf173  1  0.27206028  0.88320238  0.38520365  1.0
  Hf  Hf174  1  0.60539362  0.21653572  0.38520365  1.0
  Hf  Hf175  1  0.60539362  0.54986905  0.38520365  1.0
  Hf  Hf176  1  0.60539362  0.88320238  0.38520365  1.0
  Hf  Hf177  1  0.93872695  0.21653572  0.38520365  1.0
  Hf  Hf178  1  0.93872695  0.54986905  0.38520365  1.0
  Hf  Hf179  1  0.93872695  0.88320238  0.38520365  1.0
  Hf  Hf180  1  0.01199015  0.07290685  0.35968955  1.0
  Hf  Hf181  1  0.01199015  0.40624018  0.35968955  1.0
  Hf  Hf182  1  0.01199015  0.73957352  0.35968955  1.0
  Hf  Hf183  1  0.34532348  0.07290685  0.35968955  1.0
  Hf  Hf184  1  0.34532348  0.40624018  0.35968955  1.0
  Hf  Hf185  1  0.34532348  0.73957352  0.35968955  1.0
  Hf  Hf186  1  0.67865682  0.07290685  0.35968955  1.0
  Hf  Hf187  1  0.67865682  0.40624018  0.35968955  1.0
  Hf  Hf188  1  0.67865682  0.73957352  0.35968955  1.0
  Hf  Hf189  1  0.21199015  0.20624018  0.25968955  1.0
  Hf  Hf190  1  0.21199015  0.53957352  0.25968955  1.0
  Hf  Hf191  1  0.21199015  0.87290685  0.25968955  1.0
  Hf  Hf192  1  0.54532348  0.20624018  0.25968955  1.0
  Hf  Hf193  1  0.54532348  0.53957352  0.25968955  1.0
  Hf  Hf194  1  0.54532348  0.87290685  0.25968955  1.0
  Hf  Hf195  1  0.87865682  0.20624018  0.25968955  1.0
  Hf  Hf196  1  0.87865682  0.53957352  0.25968955  1.0
  Hf  Hf197  1  0.87865682  0.87290685  0.25968955  1.0
  Hf  Hf198  1  0.12512988  0.12330645  0.22895035  1.0
  Hf  Hf199  1  0.12512988  0.45663978  0.22895035  1.0
  Hf  Hf200  1  0.12512988  0.78997312  0.22895035  1.0
  Hf  Hf201  1  0.45846322  0.12330645  0.22895035  1.0
  Hf  Hf202  1  0.45846322  0.45663978  0.22895035  1.0
  Hf  Hf203  1  0.45846322  0.78997312  0.22895035  1.0
  Hf  Hf204  1  0.79179655  0.12330645  0.22895035  1.0
  Hf  Hf205  1  0.79179655  0.45663978  0.22895035  1.0
  Hf  Hf206  1  0.79179655  0.78997312  0.22895035  1.0
  Hf  Hf207  1  0.25846322  0.32330645  0.32895035  1.0
  Hf  Hf208  1  0.25846322  0.65663978  0.32895035  1.0
  Hf  Hf209  1  0.25846322  0.98997312  0.32895035  1.0
  Hf  Hf210  1  0.59179655  0.32330645  0.32895035  1.0
  Hf  Hf211  1  0.59179655  0.65663978  0.32895035  1.0
  Hf  Hf212  1  0.59179655  0.98997312  0.32895035  1.0
  Hf  Hf213  1  0.92512988  0.32330645  0.32895035  1.0
  Hf  Hf214  1  0.92512988  0.65663978  0.32895035  1.0
  Hf  Hf215  1  0.92512988  0.98997312  0.32895035  1.0
  Hf  Hf216  1  0.11872915  0.15276252  0.34939155  1.0
  Hf  Hf217  1  0.11872915  0.48609585  0.34939155  1.0
  Hf  Hf218  1  0.11872915  0.81942918  0.34939155  1.0
  Hf  Hf219  1  0.45206248  0.15276252  0.34939155  1.0
  Hf  Hf220  1  0.45206248  0.48609585  0.34939155  1.0
  Hf  Hf221  1  0.45206248  0.81942918  0.34939155  1.0
  Hf  Hf222  1  0.78539582  0.15276252  0.34939155  1.0
  Hf  Hf223  1  0.78539582  0.48609585  0.34939155  1.0
  Hf  Hf224  1  0.78539582  0.81942918  0.34939155  1.0
  Hf  Hf225  1  0.31872915  0.28609585  0.24939155  1.0
  Hf  Hf226  1  0.31872915  0.61942918  0.24939155  1.0
  Hf  Hf227  1  0.31872915  0.95276252  0.24939155  1.0
  Hf  Hf228  1  0.65206248  0.28609585  0.24939155  1.0
  Hf  Hf229  1  0.65206248  0.61942918  0.24939155  1.0
  Hf  Hf230  1  0.65206248  0.95276252  0.24939155  1.0
  Hf  Hf231  1  0.98539582  0.28609585  0.24939155  1.0
  Hf  Hf232  1  0.98539582  0.61942918  0.24939155  1.0
  Hf  Hf233  1  0.98539582  0.95276252  0.24939155  1.0
  Hf  Hf234  1  0.01839088  0.04345078  0.23924835  1.0
  Hf  Hf235  1  0.01839088  0.37678412  0.23924835  1.0
  Hf  Hf236  1  0.01839088  0.71011745  0.23924835  1.0
  Hf  Hf237  1  0.35172422  0.04345078  0.23924835  1.0
  Hf  Hf238  1  0.35172422  0.37678412  0.23924835  1.0
  Hf  Hf239  1  0.35172422  0.71011745  0.23924835  1.0
  Hf  Hf240  1  0.68505755  0.04345078  0.23924835  1.0
  Hf  Hf241  1  0.68505755  0.37678412  0.23924835  1.0
  Hf  Hf242  1  0.68505755  0.71011745  0.23924835  1.0
  Hf  Hf243  1  0.15172422  0.24345078  0.33924835  1.0
  Hf  Hf244  1  0.15172422  0.57678412  0.33924835  1.0
  Hf  Hf245  1  0.15172422  0.91011745  0.33924835  1.0
  Hf  Hf246  1  0.48505755  0.24345078  0.33924835  1.0
  Hf  Hf247  1  0.48505755  0.57678412  0.33924835  1.0
  Hf  Hf248  1  0.48505755  0.91011745  0.33924835  1.0
  Hf  Hf249  1  0.81839088  0.24345078  0.33924835  1.0
  Hf  Hf250  1  0.81839088  0.57678412  0.33924835  1.0
  Hf  Hf251  1  0.81839088  0.91011745  0.33924835  1.0
  Hf  Hf252  1  0.05804562  0.31104672  0.34838615  1.0
  Hf  Hf253  1  0.05804562  0.64438005  0.34838615  1.0
  Hf  Hf254  1  0.05804562  0.97771338  0.34838615  1.0
  Hf  Hf255  1  0.39137895  0.31104672  0.34838615  1.0
  Hf  Hf256  1  0.39137895  0.64438005  0.34838615  1.0
  Hf  Hf257  1  0.39137895  0.97771338  0.34838615  1.0
  Hf  Hf258  1  0.72471228  0.31104672  0.34838615  1.0
  Hf  Hf259  1  0.72471228  0.64438005  0.34838615  1.0
  Hf  Hf260  1  0.72471228  0.97771338  0.34838615  1.0
  Hf  Hf261  1  0.25804562  0.11104672  0.24838615  1.0
  Hf  Hf262  1  0.25804562  0.44438005  0.24838615  1.0
  Hf  Hf263  1  0.25804562  0.77771338  0.24838615  1.0
  Hf  Hf264  1  0.59137895  0.11104672  0.24838615  1.0
  Hf  Hf265  1  0.59137895  0.44438005  0.24838615  1.0
  Hf  Hf266  1  0.59137895  0.77771338  0.24838615  1.0
  Hf  Hf267  1  0.92471228  0.11104672  0.24838615  1.0
  Hf  Hf268  1  0.92471228  0.44438005  0.24838615  1.0
  Hf  Hf269  1  0.92471228  0.77771338  0.24838615  1.0
  Hf  Hf270  1  0.07907442  0.21849992  0.24025375  1.0
  Hf  Hf271  1  0.07907442  0.55183325  0.24025375  1.0
  Hf  Hf272  1  0.07907442  0.88516658  0.24025375  1.0
  Hf  Hf273  1  0.41240775  0.21849992  0.24025375  1.0
  Hf  Hf274  1  0.41240775  0.55183325  0.24025375  1.0
  Hf  Hf275  1  0.41240775  0.88516658  0.24025375  1.0
  Hf  Hf276  1  0.74574108  0.21849992  0.24025375  1.0
  Hf  Hf277  1  0.74574108  0.55183325  0.24025375  1.0
  Hf  Hf278  1  0.74574108  0.88516658  0.24025375  1.0
  Hf  Hf279  1  0.21240775  0.08516658  0.34025375  1.0
  Hf  Hf280  1  0.21240775  0.41849992  0.34025375  1.0
  Hf  Hf281  1  0.21240775  0.75183325  0.34025375  1.0
  Hf  Hf282  1  0.54574108  0.08516658  0.34025375  1.0
  Hf  Hf283  1  0.54574108  0.41849992  0.34025375  1.0
  Hf  Hf284  1  0.54574108  0.75183325  0.34025375  1.0
  Hf  Hf285  1  0.87907442  0.08516658  0.34025375  1.0
  Hf  Hf286  1  0.87907442  0.41849992  0.34025375  1.0
  Hf  Hf287  1  0.87907442  0.75183325  0.34025375  1.0
  Ni  Ni288  1  0.13522668  0.03143998  0.09431995  1.0
  Ni  Ni289  1  0.13522668  0.36477332  0.09431995  1.0
  Ni  Ni290  1  0.13522668  0.69810665  0.09431995  1.0
  Ni  Ni291  1  0.46856002  0.03143998  0.09431995  1.0
  Ni  Ni292  1  0.46856002  0.36477332  0.09431995  1.0
  Ni  Ni293  1  0.46856002  0.69810665  0.09431995  1.0
  Ni  Ni294  1  0.80189335  0.03143998  0.09431995  1.0
  Ni  Ni295  1  0.80189335  0.36477332  0.09431995  1.0
  Ni  Ni296  1  0.80189335  0.69810665  0.09431995  1.0
  Ni  Ni297  1  0.26856002  0.23143998  0.19431995  1.0
  Ni  Ni298  1  0.26856002  0.56477332  0.19431995  1.0
  Ni  Ni299  1  0.26856002  0.89810665  0.19431995  1.0
  Ni  Ni300  1  0.60189335  0.23143998  0.19431995  1.0
  Ni  Ni301  1  0.60189335  0.56477332  0.19431995  1.0
  Ni  Ni302  1  0.60189335  0.89810665  0.19431995  1.0
  Ni  Ni303  1  0.93522668  0.23143998  0.19431995  1.0
  Ni  Ni304  1  0.93522668  0.56477332  0.19431995  1.0
  Ni  Ni305  1  0.93522668  0.89810665  0.19431995  1.0
  Ni  Ni306  1  0.08411682  0.16323052  0.17740955  1.0
  Ni  Ni307  1  0.08411682  0.49656385  0.17740955  1.0
  Ni  Ni308  1  0.08411682  0.82989718  0.17740955  1.0
  Ni  Ni309  1  0.41745015  0.16323052  0.17740955  1.0
  Ni  Ni310  1  0.41745015  0.49656385  0.17740955  1.0
  Ni  Ni311  1  0.41745015  0.82989718  0.17740955  1.0
  Ni  Ni312  1  0.75078348  0.16323052  0.17740955  1.0
  Ni  Ni313  1  0.75078348  0.49656385  0.17740955  1.0
  Ni  Ni314  1  0.75078348  0.82989718  0.17740955  1.0
  Ni  Ni315  1  0.28411682  0.29656385  0.07740955  1.0
  Ni  Ni316  1  0.28411682  0.62989718  0.07740955  1.0
  Ni  Ni317  1  0.28411682  0.96323052  0.07740955  1.0
  Ni  Ni318  1  0.61745015  0.29656385  0.07740955  1.0
  Ni  Ni319  1  0.61745015  0.62989718  0.07740955  1.0
  Ni  Ni320  1  0.61745015  0.96323052  0.07740955  1.0
  Ni  Ni321  1  0.95078348  0.29656385  0.07740955  1.0
  Ni  Ni322  1  0.95078348  0.62989718  0.07740955  1.0
  Ni  Ni323  1  0.95078348  0.96323052  0.07740955  1.0
  Ni  Ni324  1  0.18633655  0.23298278  0.01123035  1.0
  Ni  Ni325  1  0.18633655  0.56631612  0.01123035  1.0
  Ni  Ni326  1  0.18633655  0.89964945  0.01123035  1.0
  Ni  Ni327  1  0.51966988  0.23298278  0.01123035  1.0
  Ni  Ni328  1  0.51966988  0.56631612  0.01123035  1.0
  Ni  Ni329  1  0.51966988  0.89964945  0.01123035  1.0
  Ni  Ni330  1  0.85300322  0.23298278  0.01123035  1.0
  Ni  Ni331  1  0.85300322  0.56631612  0.01123035  1.0
  Ni  Ni332  1  0.85300322  0.89964945  0.01123035  1.0
  Ni  Ni333  1  0.31966988  0.09964945  0.11123035  1.0
  Ni  Ni334  1  0.31966988  0.43298278  0.11123035  1.0
  Ni  Ni335  1  0.31966988  0.76631612  0.11123035  1.0
  Ni  Ni336  1  0.65300322  0.09964945  0.11123035  1.0
  Ni  Ni337  1  0.65300322  0.43298278  0.11123035  1.0
  Ni  Ni338  1  0.65300322  0.76631612  0.11123035  1.0
  Ni  Ni339  1  0.98633655  0.09964945  0.11123035  1.0
  Ni  Ni340  1  0.98633655  0.43298278  0.11123035  1.0
  Ni  Ni341  1  0.98633655  0.76631612  0.11123035  1.0
  Ni  Ni342  1  0.07028988  0.04481812  0.07039535  1.0
  Ni  Ni343  1  0.07028988  0.37815145  0.07039535  1.0
  Ni  Ni344  1  0.07028988  0.71148478  0.07039535  1.0
  Ni  Ni345  1  0.40362322  0.04481812  0.07039535  1.0
  Ni  Ni346  1  0.40362322  0.37815145  0.07039535  1.0
  Ni  Ni347  1  0.40362322  0.71148478  0.07039535  1.0
  Ni  Ni348  1  0.73695655  0.04481812  0.07039535  1.0
  Ni  Ni349  1  0.73695655  0.37815145  0.07039535  1.0
  Ni  Ni350  1  0.73695655  0.71148478  0.07039535  1.0
  Ni  Ni351  1  0.20362322  0.24481812  0.17039535  1.0
  Ni  Ni352  1  0.20362322  0.57815145  0.17039535  1.0
  Ni  Ni353  1  0.20362322  0.91148478  0.17039535  1.0
  Ni  Ni354  1  0.53695655  0.24481812  0.17039535  1.0
  Ni  Ni355  1  0.53695655  0.57815145  0.17039535  1.0
  Ni  Ni356  1  0.53695655  0.91148478  0.17039535  1.0
  Ni  Ni357  1  0.87028988  0.24481812  0.17039535  1.0
  Ni  Ni358  1  0.87028988  0.57815145  0.17039535  1.0
  Ni  Ni359  1  0.87028988  0.91148478  0.17039535  1.0
  Ni  Ni360  1  0.20016348  0.01806185  0.11824455  1.0
  Ni  Ni361  1  0.20016348  0.35139518  0.11824455  1.0
  Ni  Ni362  1  0.20016348  0.68472852  0.11824455  1.0
  Ni  Ni363  1  0.53349682  0.01806185  0.11824455  1.0
  Ni  Ni364  1  0.53349682  0.35139518  0.11824455  1.0
  Ni  Ni365  1  0.53349682  0.68472852  0.11824455  1.0
  Ni  Ni366  1  0.86683015  0.01806185  0.11824455  1.0
  Ni  Ni367  1  0.86683015  0.35139518  0.11824455  1.0
  Ni  Ni368  1  0.86683015  0.68472852  0.11824455  1.0
  Ni  Ni369  1  0.06683015  0.15139518  0.01824455  1.0
  Ni  Ni370  1  0.06683015  0.48472852  0.01824455  1.0
  Ni  Ni371  1  0.06683015  0.81806185  0.01824455  1.0
  Ni  Ni372  1  0.40016348  0.15139518  0.01824455  1.0
  Ni  Ni373  1  0.40016348  0.48472852  0.01824455  1.0
  Ni  Ni374  1  0.40016348  0.81806185  0.01824455  1.0
  Ni  Ni375  1  0.73349682  0.15139518  0.01824455  1.0
  Ni  Ni376  1  0.73349682  0.48472852  0.01824455  1.0
  Ni  Ni377  1  0.73349682  0.81806185  0.01824455  1.0
  Ni  Ni378  1  0.02111442  0.32604625  0.08468975  1.0
  Ni  Ni379  1  0.02111442  0.65937958  0.08468975  1.0
  Ni  Ni380  1  0.02111442  0.99271292  0.08468975  1.0
  Ni  Ni381  1  0.35444775  0.32604625  0.08468975  1.0
  Ni  Ni382  1  0.35444775  0.65937958  0.08468975  1.0
  Ni  Ni383  1  0.35444775  0.99271292  0.08468975  1.0
  Ni  Ni384  1  0.68778108  0.32604625  0.08468975  1.0
  Ni  Ni385  1  0.68778108  0.65937958  0.08468975  1.0
  Ni  Ni386  1  0.68778108  0.99271292  0.08468975  1.0
  Ni  Ni387  1  0.15444775  0.19271292  0.18468975  1.0
  Ni  Ni388  1  0.15444775  0.52604625  0.18468975  1.0
  Ni  Ni389  1  0.15444775  0.85937958  0.18468975  1.0
  Ni  Ni390  1  0.48778108  0.19271292  0.18468975  1.0
  Ni  Ni391  1  0.48778108  0.52604625  0.18468975  1.0
  Ni  Ni392  1  0.48778108  0.85937958  0.18468975  1.0
  Ni  Ni393  1  0.82111442  0.19271292  0.18468975  1.0
  Ni  Ni394  1  0.82111442  0.52604625  0.18468975  1.0
  Ni  Ni395  1  0.82111442  0.85937958  0.18468975  1.0
  Ni  Ni396  1  0.24933895  0.07016705  0.10395015  1.0
  Ni  Ni397  1  0.24933895  0.40350038  0.10395015  1.0
  Ni  Ni398  1  0.24933895  0.73683372  0.10395015  1.0
  Ni  Ni399  1  0.58267228  0.07016705  0.10395015  1.0
  Ni  Ni400  1  0.58267228  0.40350038  0.10395015  1.0
  Ni  Ni401  1  0.58267228  0.73683372  0.10395015  1.0
  Ni  Ni402  1  0.91600562  0.07016705  0.10395015  1.0
  Ni  Ni403  1  0.91600562  0.40350038  0.10395015  1.0
  Ni  Ni404  1  0.91600562  0.73683372  0.10395015  1.0
  Ni  Ni405  1  0.11600562  0.20350038  0.00395015  1.0
  Ni  Ni406  1  0.11600562  0.53683372  0.00395015  1.0
  Ni  Ni407  1  0.11600562  0.87016705  0.00395015  1.0
  Ni  Ni408  1  0.44933895  0.20350038  0.00395015  1.0
  Ni  Ni409  1  0.44933895  0.53683372  0.00395015  1.0
  Ni  Ni410  1  0.44933895  0.87016705  0.00395015  1.0
  Ni  Ni411  1  0.78267228  0.20350038  0.00395015  1.0
  Ni  Ni412  1  0.78267228  0.53683372  0.00395015  1.0
  Ni  Ni413  1  0.78267228  0.87016705  0.00395015  1.0
  Ni  Ni414  1  0.14370655  0.13724778  0.13476885  1.0
  Ni  Ni415  1  0.14370655  0.47058112  0.13476885  1.0
  Ni  Ni416  1  0.14370655  0.80391445  0.13476885  1.0
  Ni  Ni417  1  0.47703988  0.13724778  0.13476885  1.0
  Ni  Ni418  1  0.47703988  0.47058112  0.13476885  1.0
  Ni  Ni419  1  0.47703988  0.80391445  0.13476885  1.0
  Ni  Ni420  1  0.81037322  0.13724778  0.13476885  1.0
  Ni  Ni421  1  0.81037322  0.47058112  0.13476885  1.0
  Ni  Ni422  1  0.81037322  0.80391445  0.13476885  1.0
  Ni  Ni423  1  0.01037322  0.27058112  0.03476885  1.0
  Ni  Ni424  1  0.01037322  0.60391445  0.03476885  1.0
  Ni  Ni425  1  0.01037322  0.93724778  0.03476885  1.0
  Ni  Ni426  1  0.34370655  0.27058112  0.03476885  1.0
  Ni  Ni427  1  0.34370655  0.60391445  0.03476885  1.0
  Ni  Ni428  1  0.34370655  0.93724778  0.03476885  1.0
  Ni  Ni429  1  0.67703988  0.27058112  0.03476885  1.0
  Ni  Ni430  1  0.67703988  0.60391445  0.03476885  1.0
  Ni  Ni431  1  0.67703988  0.93724778  0.03476885  1.0
  Ni  Ni432  1  0.30368575  0.07968225  0.19089975  1.0
  Ni  Ni433  1  0.30368575  0.41301558  0.19089975  1.0
  Ni  Ni434  1  0.30368575  0.74634892  0.19089975  1.0
  Ni  Ni435  1  0.63701908  0.07968225  0.19089975  1.0
  Ni  Ni436  1  0.63701908  0.41301558  0.19089975  1.0
  Ni  Ni437  1  0.63701908  0.74634892  0.19089975  1.0
  Ni  Ni438  1  0.97035242  0.07968225  0.19089975  1.0
  Ni  Ni439  1  0.97035242  0.41301558  0.19089975  1.0
  Ni  Ni440  1  0.97035242  0.74634892  0.19089975  1.0
  Ni  Ni441  1  0.17035242  0.21301558  0.09089975  1.0
  Ni  Ni442  1  0.17035242  0.54634892  0.09089975  1.0
  Ni  Ni443  1  0.17035242  0.87968225  0.09089975  1.0
  Ni  Ni444  1  0.50368575  0.21301558  0.09089975  1.0
  Ni  Ni445  1  0.50368575  0.54634892  0.09089975  1.0
  Ni  Ni446  1  0.50368575  0.87968225  0.09089975  1.0
  Ni  Ni447  1  0.83701908  0.21301558  0.09089975  1.0
  Ni  Ni448  1  0.83701908  0.54634892  0.09089975  1.0
  Ni  Ni449  1  0.83701908  0.87968225  0.09089975  1.0
  Ni  Ni450  1  0.23343428  0.04986438  0.19774015  1.0
  Ni  Ni451  1  0.23343428  0.38319772  0.19774015  1.0
  Ni  Ni452  1  0.23343428  0.71653105  0.19774015  1.0
  Ni  Ni453  1  0.56676762  0.04986438  0.19774015  1.0
  Ni  Ni454  1  0.56676762  0.38319772  0.19774015  1.0
  Ni  Ni455  1  0.56676762  0.71653105  0.19774015  1.0
  Ni  Ni456  1  0.90010095  0.04986438  0.19774015  1.0
  Ni  Ni457  1  0.90010095  0.38319772  0.19774015  1.0
  Ni  Ni458  1  0.90010095  0.71653105  0.19774015  1.0
  Ni  Ni459  1  0.10010095  0.18319772  0.09774015  1.0
  Ni  Ni460  1  0.10010095  0.51653105  0.09774015  1.0
  Ni  Ni461  1  0.10010095  0.84986438  0.09774015  1.0
  Ni  Ni462  1  0.43343428  0.18319772  0.09774015  1.0
  Ni  Ni463  1  0.43343428  0.51653105  0.09774015  1.0
  Ni  Ni464  1  0.43343428  0.84986438  0.09774015  1.0
  Ni  Ni465  1  0.76676762  0.18319772  0.09774015  1.0
  Ni  Ni466  1  0.76676762  0.51653105  0.09774015  1.0
  Ni  Ni467  1  0.76676762  0.84986438  0.09774015  1.0
  Ni  Ni468  1  0.02475168  0.04979332  0.14063845  1.0
  Ni  Ni469  1  0.02475168  0.38312665  0.14063845  1.0
  Ni  Ni470  1  0.02475168  0.71645998  0.14063845  1.0
  Ni  Ni471  1  0.35808502  0.04979332  0.14063845  1.0
  Ni  Ni472  1  0.35808502  0.38312665  0.14063845  1.0
  Ni  Ni473  1  0.35808502  0.71645998  0.14063845  1.0
  Ni  Ni474  1  0.69141835  0.04979332  0.14063845  1.0
  Ni  Ni475  1  0.69141835  0.38312665  0.14063845  1.0
  Ni  Ni476  1  0.69141835  0.71645998  0.14063845  1.0
  Ni  Ni477  1  0.22475168  0.18312665  0.04063845  1.0
  Ni  Ni478  1  0.22475168  0.51645998  0.04063845  1.0
  Ni  Ni479  1  0.22475168  0.84979332  0.04063845  1.0
  Ni  Ni480  1  0.55808502  0.18312665  0.04063845  1.0
  Ni  Ni481  1  0.55808502  0.51645998  0.04063845  1.0
  Ni  Ni482  1  0.55808502  0.84979332  0.04063845  1.0
  Ni  Ni483  1  0.89141835  0.18312665  0.04063845  1.0
  Ni  Ni484  1  0.89141835  0.51645998  0.04063845  1.0
  Ni  Ni485  1  0.89141835  0.84979332  0.04063845  1.0
  Ni  Ni486  1  0.24570168  0.01308665  0.04800145  1.0
  Ni  Ni487  1  0.24570168  0.34641998  0.04800145  1.0
  Ni  Ni488  1  0.24570168  0.67975332  0.04800145  1.0
  Ni  Ni489  1  0.57903502  0.01308665  0.04800145  1.0
  Ni  Ni490  1  0.57903502  0.34641998  0.04800145  1.0
  Ni  Ni491  1  0.57903502  0.67975332  0.04800145  1.0
  Ni  Ni492  1  0.91236835  0.01308665  0.04800145  1.0
  Ni  Ni493  1  0.91236835  0.34641998  0.04800145  1.0
  Ni  Ni494  1  0.91236835  0.67975332  0.04800145  1.0
  Ni  Ni495  1  0.04570168  0.21308665  0.14800145  1.0
  Ni  Ni496  1  0.04570168  0.54641998  0.14800145  1.0
  Ni  Ni497  1  0.04570168  0.87975332  0.14800145  1.0
  Ni  Ni498  1  0.37903502  0.21308665  0.14800145  1.0
  Ni  Ni499  1  0.37903502  0.54641998  0.14800145  1.0
  Ni  Ni500  1  0.37903502  0.87975332  0.14800145  1.0
  Ni  Ni501  1  0.71236835  0.21308665  0.14800145  1.0
  Ni  Ni502  1  0.71236835  0.54641998  0.14800145  1.0
  Ni  Ni503  1  0.71236835  0.87975332  0.14800145  1.0
  Ni  Ni504  1  0.04904042  0.10138792  0.19987025  1.0
  Ni  Ni505  1  0.04904042  0.43472125  0.19987025  1.0
  Ni  Ni506  1  0.04904042  0.76805458  0.19987025  1.0
  Ni  Ni507  1  0.38237375  0.10138792  0.19987025  1.0
  Ni  Ni508  1  0.38237375  0.43472125  0.19987025  1.0
  Ni  Ni509  1  0.38237375  0.76805458  0.19987025  1.0
  Ni  Ni510  1  0.71570708  0.10138792  0.19987025  1.0
  Ni  Ni511  1  0.71570708  0.43472125  0.19987025  1.0
  Ni  Ni512  1  0.71570708  0.76805458  0.19987025  1.0
  Ni  Ni513  1  0.24904042  0.23472125  0.09987025  1.0
  Ni  Ni514  1  0.24904042  0.56805458  0.09987025  1.0
  Ni  Ni515  1  0.24904042  0.90138792  0.09987025  1.0
  Ni  Ni516  1  0.58237375  0.23472125  0.09987025  1.0
  Ni  Ni517  1  0.58237375  0.56805458  0.09987025  1.0
  Ni  Ni518  1  0.58237375  0.90138792  0.09987025  1.0
  Ni  Ni519  1  0.91570708  0.23472125  0.09987025  1.0
  Ni  Ni520  1  0.91570708  0.56805458  0.09987025  1.0
  Ni  Ni521  1  0.91570708  0.90138792  0.09987025  1.0
  Ni  Ni522  1  0.15474628  0.02815872  0.18876965  1.0
  Ni  Ni523  1  0.15474628  0.36149205  0.18876965  1.0
  Ni  Ni524  1  0.15474628  0.69482538  0.18876965  1.0
  Ni  Ni525  1  0.48807962  0.02815872  0.18876965  1.0
  Ni  Ni526  1  0.48807962  0.36149205  0.18876965  1.0
  Ni  Ni527  1  0.48807962  0.69482538  0.18876965  1.0
  Ni  Ni528  1  0.82141295  0.02815872  0.18876965  1.0
  Ni  Ni529  1  0.82141295  0.36149205  0.18876965  1.0
  Ni  Ni530  1  0.82141295  0.69482538  0.18876965  1.0
  Ni  Ni531  1  0.02141295  0.16149205  0.08876965  1.0
  Ni  Ni532  1  0.02141295  0.49482538  0.08876965  1.0
  Ni  Ni533  1  0.02141295  0.82815872  0.08876965  1.0
  Ni  Ni534  1  0.35474628  0.16149205  0.08876965  1.0
  Ni  Ni535  1  0.35474628  0.49482538  0.08876965  1.0
  Ni  Ni536  1  0.35474628  0.82815872  0.08876965  1.0
  Ni  Ni537  1  0.68807962  0.16149205  0.08876965  1.0
  Ni  Ni538  1  0.68807962  0.49482538  0.08876965  1.0
  Ni  Ni539  1  0.68807962  0.82815872  0.08876965  1.0
  Ni  Ni540  1  0.12997128  0.08765105  0.06571765  1.0
  Ni  Ni541  1  0.12997128  0.42098438  0.06571765  1.0
  Ni  Ni542  1  0.12997128  0.75431772  0.06571765  1.0
  Ni  Ni543  1  0.46330462  0.08765105  0.06571765  1.0
  Ni  Ni544  1  0.46330462  0.42098438  0.06571765  1.0
  Ni  Ni545  1  0.46330462  0.75431772  0.06571765  1.0
  Ni  Ni546  1  0.79663795  0.08765105  0.06571765  1.0
  Ni  Ni547  1  0.79663795  0.42098438  0.06571765  1.0
  Ni  Ni548  1  0.79663795  0.75431772  0.06571765  1.0
  Ni  Ni549  1  0.26330462  0.28765105  0.16571765  1.0
  Ni  Ni550  1  0.26330462  0.62098438  0.16571765  1.0
  Ni  Ni551  1  0.26330462  0.95431772  0.16571765  1.0
  Ni  Ni552  1  0.59663795  0.28765105  0.16571765  1.0
  Ni  Ni553  1  0.59663795  0.62098438  0.16571765  1.0
  Ni  Ni554  1  0.59663795  0.95431772  0.16571765  1.0
  Ni  Ni555  1  0.92997128  0.28765105  0.16571765  1.0
  Ni  Ni556  1  0.92997128  0.62098438  0.16571765  1.0
  Ni  Ni557  1  0.92997128  0.95431772  0.16571765  1.0
  Ni  Ni558  1  0.14048208  0.30856225  0.12292225  1.0
  Ni  Ni559  1  0.14048208  0.64189558  0.12292225  1.0
  Ni  Ni560  1  0.14048208  0.97522892  0.12292225  1.0
  Ni  Ni561  1  0.47381542  0.30856225  0.12292225  1.0
  Ni  Ni562  1  0.47381542  0.64189558  0.12292225  1.0
  Ni  Ni563  1  0.47381542  0.97522892  0.12292225  1.0
  Ni  Ni564  1  0.80714875  0.30856225  0.12292225  1.0
  Ni  Ni565  1  0.80714875  0.64189558  0.12292225  1.0
  Ni  Ni566  1  0.80714875  0.97522892  0.12292225  1.0
  Ni  Ni567  1  0.00714875  0.10856225  0.02292225  1.0
  Ni  Ni568  1  0.00714875  0.44189558  0.02292225  1.0
  Ni  Ni569  1  0.00714875  0.77522892  0.02292225  1.0
  Ni  Ni570  1  0.34048208  0.10856225  0.02292225  1.0
  Ni  Ni571  1  0.34048208  0.44189558  0.02292225  1.0
  Ni  Ni572  1  0.34048208  0.77522892  0.02292225  1.0
  Ni  Ni573  1  0.67381542  0.10856225  0.02292225  1.0
  Ni  Ni574  1  0.67381542  0.44189558  0.02292225  1.0
  Ni  Ni575  1  0.67381542  0.77522892  0.02292225  1.0
  Ni  Ni576  1  0.20261342  0.12116092  0.07314225  1.0
  Ni  Ni577  1  0.20261342  0.45449425  0.07314225  1.0
  Ni  Ni578  1  0.20261342  0.78782758  0.07314225  1.0
  Ni  Ni579  1  0.53594675  0.12116092  0.07314225  1.0
  Ni  Ni580  1  0.53594675  0.45449425  0.07314225  1.0
  Ni  Ni581  1  0.53594675  0.78782758  0.07314225  1.0
  Ni  Ni582  1  0.86928008  0.12116092  0.07314225  1.0
  Ni  Ni583  1  0.86928008  0.45449425  0.07314225  1.0
  Ni  Ni584  1  0.86928008  0.78782758  0.07314225  1.0
  Ni  Ni585  1  0.00261342  0.32116092  0.17314225  1.0
  Ni  Ni586  1  0.00261342  0.65449425  0.17314225  1.0
  Ni  Ni587  1  0.00261342  0.98782758  0.17314225  1.0
  Ni  Ni588  1  0.33594675  0.32116092  0.17314225  1.0
  Ni  Ni589  1  0.33594675  0.65449425  0.17314225  1.0
  Ni  Ni590  1  0.33594675  0.98782758  0.17314225  1.0
  Ni  Ni591  1  0.66928008  0.32116092  0.17314225  1.0
  Ni  Ni592  1  0.66928008  0.65449425  0.17314225  1.0
  Ni  Ni593  1  0.66928008  0.98782758  0.17314225  1.0
  Ni  Ni594  1  0.06783995  0.27505238  0.11549765  1.0
  Ni  Ni595  1  0.06783995  0.60838572  0.11549765  1.0
  Ni  Ni596  1  0.06783995  0.94171905  0.11549765  1.0
  Ni  Ni597  1  0.40117328  0.27505238  0.11549765  1.0
  Ni  Ni598  1  0.40117328  0.60838572  0.11549765  1.0
  Ni  Ni599  1  0.40117328  0.94171905  0.11549765  1.0
  Ni  Ni600  1  0.73450662  0.27505238  0.11549765  1.0
  Ni  Ni601  1  0.73450662  0.60838572  0.11549765  1.0
  Ni  Ni602  1  0.73450662  0.94171905  0.11549765  1.0
  Ni  Ni603  1  0.26783995  0.07505238  0.01549765  1.0
  Ni  Ni604  1  0.26783995  0.40838572  0.01549765  1.0
  Ni  Ni605  1  0.26783995  0.74171905  0.01549765  1.0
  Ni  Ni606  1  0.60117328  0.07505238  0.01549765  1.0
  Ni  Ni607  1  0.60117328  0.40838572  0.01549765  1.0
  Ni  Ni608  1  0.60117328  0.74171905  0.01549765  1.0
  Ni  Ni609  1  0.93450662  0.07505238  0.01549765  1.0
  Ni  Ni610  1  0.93450662  0.40838572  0.01549765  1.0
  Ni  Ni611  1  0.93450662  0.74171905  0.01549765  1.0
  Ni  Ni612  1  0.16459408  0.32305458  0.03721775  1.0
  Ni  Ni613  1  0.16459408  0.65638792  0.03721775  1.0
  Ni  Ni614  1  0.16459408  0.98972125  0.03721775  1.0
  Ni  Ni615  1  0.49792742  0.32305458  0.03721775  1.0
  Ni  Ni616  1  0.49792742  0.65638792  0.03721775  1.0
  Ni  Ni617  1  0.49792742  0.98972125  0.03721775  1.0
  Ni  Ni618  1  0.83126075  0.32305458  0.03721775  1.0
  Ni  Ni619  1  0.83126075  0.65638792  0.03721775  1.0
  Ni  Ni620  1  0.83126075  0.98972125  0.03721775  1.0
  Ni  Ni621  1  0.29792742  0.18972125  0.13721775  1.0
  Ni  Ni622  1  0.29792742  0.52305458  0.13721775  1.0
  Ni  Ni623  1  0.29792742  0.85638792  0.13721775  1.0
  Ni  Ni624  1  0.63126075  0.18972125  0.13721775  1.0
  Ni  Ni625  1  0.63126075  0.52305458  0.13721775  1.0
  Ni  Ni626  1  0.63126075  0.85638792  0.13721775  1.0
  Ni  Ni627  1  0.96459408  0.18972125  0.13721775  1.0
  Ni  Ni628  1  0.96459408  0.52305458  0.13721775  1.0
  Ni  Ni629  1  0.96459408  0.85638792  0.13721775  1.0
  Ni  Ni630  1  0.10585928  0.07315872  0.15142215  1.0
  Ni  Ni631  1  0.10585928  0.40649205  0.15142215  1.0
  Ni  Ni632  1  0.10585928  0.73982538  0.15142215  1.0
  Ni  Ni633  1  0.43919262  0.07315872  0.15142215  1.0
  Ni  Ni634  1  0.43919262  0.40649205  0.15142215  1.0
  Ni  Ni635  1  0.43919262  0.73982538  0.15142215  1.0
  Ni  Ni636  1  0.77252595  0.07315872  0.15142215  1.0
  Ni  Ni637  1  0.77252595  0.40649205  0.15142215  1.0
  Ni  Ni638  1  0.77252595  0.73982538  0.15142215  1.0
  Ni  Ni639  1  0.30585928  0.20649205  0.05142215  1.0
  Ni  Ni640  1  0.30585928  0.53982538  0.05142215  1.0
  Ni  Ni641  1  0.30585928  0.87315872  0.05142215  1.0
  Ni  Ni642  1  0.63919262  0.20649205  0.05142215  1.0
  Ni  Ni643  1  0.63919262  0.53982538  0.05142215  1.0
  Ni  Ni644  1  0.63919262  0.87315872  0.05142215  1.0
  Ni  Ni645  1  0.97252595  0.20649205  0.05142215  1.0
  Ni  Ni646  1  0.97252595  0.53982538  0.05142215  1.0
  Ni  Ni647  1  0.97252595  0.87315872  0.05142215  1.0
  Ni  Ni648  1  0.12674682  0.25896552  0.05387105  1.0
  Ni  Ni649  1  0.12674682  0.59229885  0.05387105  1.0
  Ni  Ni650  1  0.12674682  0.92563218  0.05387105  1.0
  Ni  Ni651  1  0.46008015  0.25896552  0.05387105  1.0
  Ni  Ni652  1  0.46008015  0.59229885  0.05387105  1.0
  Ni  Ni653  1  0.46008015  0.92563218  0.05387105  1.0
  Ni  Ni654  1  0.79341348  0.25896552  0.05387105  1.0
  Ni  Ni655  1  0.79341348  0.59229885  0.05387105  1.0
  Ni  Ni656  1  0.79341348  0.92563218  0.05387105  1.0
  Ni  Ni657  1  0.26008015  0.12563218  0.15387105  1.0
  Ni  Ni658  1  0.26008015  0.45896552  0.15387105  1.0
  Ni  Ni659  1  0.26008015  0.79229885  0.15387105  1.0
  Ni  Ni660  1  0.59341348  0.12563218  0.15387105  1.0
  Ni  Ni661  1  0.59341348  0.45896552  0.15387105  1.0
  Ni  Ni662  1  0.59341348  0.79229885  0.15387105  1.0
  Ni  Ni663  1  0.92674682  0.12563218  0.15387105  1.0
  Ni  Ni664  1  0.92674682  0.45896552  0.15387105  1.0
  Ni  Ni665  1  0.92674682  0.79229885  0.15387105  1.0
  Ni  Ni666  1  0.06856002  0.09810665  0.29431995  1.0
  Ni  Ni667  1  0.06856002  0.43143998  0.29431995  1.0
  Ni  Ni668  1  0.06856002  0.76477332  0.29431995  1.0
  Ni  Ni669  1  0.40189335  0.09810665  0.29431995  1.0
  Ni  Ni670  1  0.40189335  0.43143998  0.29431995  1.0
  Ni  Ni671  1  0.40189335  0.76477332  0.29431995  1.0
  Ni  Ni672  1  0.73522668  0.09810665  0.29431995  1.0
  Ni  Ni673  1  0.73522668  0.43143998  0.29431995  1.0
  Ni  Ni674  1  0.73522668  0.76477332  0.29431995  1.0
  Ni  Ni675  1  0.20189335  0.29810665  0.39431995  1.0
  Ni  Ni676  1  0.20189335  0.63143998  0.39431995  1.0
  Ni  Ni677  1  0.20189335  0.96477332  0.39431995  1.0
  Ni  Ni678  1  0.53522668  0.29810665  0.39431995  1.0
  Ni  Ni679  1  0.53522668  0.63143998  0.39431995  1.0
  Ni  Ni680  1  0.53522668  0.96477332  0.39431995  1.0
  Ni  Ni681  1  0.86856002  0.29810665  0.39431995  1.0
  Ni  Ni682  1  0.86856002  0.63143998  0.39431995  1.0
  Ni  Ni683  1  0.86856002  0.96477332  0.39431995  1.0
  Ni  Ni684  1  0.01745015  0.22989718  0.37740955  1.0
  Ni  Ni685  1  0.01745015  0.56323052  0.37740955  1.0
  Ni  Ni686  1  0.01745015  0.89656385  0.37740955  1.0
  Ni  Ni687  1  0.35078348  0.22989718  0.37740955  1.0
  Ni  Ni688  1  0.35078348  0.56323052  0.37740955  1.0
  Ni  Ni689  1  0.35078348  0.89656385  0.37740955  1.0
  Ni  Ni690  1  0.68411682  0.22989718  0.37740955  1.0
  Ni  Ni691  1  0.68411682  0.56323052  0.37740955  1.0
  Ni  Ni692  1  0.68411682  0.89656385  0.37740955  1.0
  Ni  Ni693  1  0.21745015  0.02989718  0.27740955  1.0
  Ni  Ni694  1  0.21745015  0.36323052  0.27740955  1.0
  Ni  Ni695  1  0.21745015  0.69656385  0.27740955  1.0
  Ni  Ni696  1  0.55078348  0.02989718  0.27740955  1.0
  Ni  Ni697  1  0.55078348  0.36323052  0.27740955  1.0
  Ni  Ni698  1  0.55078348  0.69656385  0.27740955  1.0
  Ni  Ni699  1  0.88411682  0.02989718  0.27740955  1.0
  Ni  Ni700  1  0.88411682  0.36323052  0.27740955  1.0
  Ni  Ni701  1  0.88411682  0.69656385  0.27740955  1.0
  Ni  Ni702  1  0.11966988  0.29964945  0.21123035  1.0
  Ni  Ni703  1  0.11966988  0.63298278  0.21123035  1.0
  Ni  Ni704  1  0.11966988  0.96631612  0.21123035  1.0
  Ni  Ni705  1  0.45300322  0.29964945  0.21123035  1.0
  Ni  Ni706  1  0.45300322  0.63298278  0.21123035  1.0
  Ni  Ni707  1  0.45300322  0.96631612  0.21123035  1.0
  Ni  Ni708  1  0.78633655  0.29964945  0.21123035  1.0
  Ni  Ni709  1  0.78633655  0.63298278  0.21123035  1.0
  Ni  Ni710  1  0.78633655  0.96631612  0.21123035  1.0
  Ni  Ni711  1  0.25300322  0.16631612  0.31123035  1.0
  Ni  Ni712  1  0.25300322  0.49964945  0.31123035  1.0
  Ni  Ni713  1  0.25300322  0.83298278  0.31123035  1.0
  Ni  Ni714  1  0.58633655  0.16631612  0.31123035  1.0
  Ni  Ni715  1  0.58633655  0.49964945  0.31123035  1.0
  Ni  Ni716  1  0.58633655  0.83298278  0.31123035  1.0
  Ni  Ni717  1  0.91966988  0.16631612  0.31123035  1.0
  Ni  Ni718  1  0.91966988  0.49964945  0.31123035  1.0
  Ni  Ni719  1  0.91966988  0.83298278  0.31123035  1.0
  Ni  Ni720  1  0.00362322  0.11148478  0.27039535  1.0
  Ni  Ni721  1  0.00362322  0.44481812  0.27039535  1.0
  Ni  Ni722  1  0.00362322  0.77815145  0.27039535  1.0
  Ni  Ni723  1  0.33695655  0.11148478  0.27039535  1.0
  Ni  Ni724  1  0.33695655  0.44481812  0.27039535  1.0
  Ni  Ni725  1  0.33695655  0.77815145  0.27039535  1.0
  Ni  Ni726  1  0.67028988  0.11148478  0.27039535  1.0
  Ni  Ni727  1  0.67028988  0.44481812  0.27039535  1.0
  Ni  Ni728  1  0.67028988  0.77815145  0.27039535  1.0
  Ni  Ni729  1  0.13695655  0.31148478  0.37039535  1.0
  Ni  Ni730  1  0.13695655  0.64481812  0.37039535  1.0
  Ni  Ni731  1  0.13695655  0.97815145  0.37039535  1.0
  Ni  Ni732  1  0.47028988  0.31148478  0.37039535  1.0
  Ni  Ni733  1  0.47028988  0.64481812  0.37039535  1.0
  Ni  Ni734  1  0.47028988  0.97815145  0.37039535  1.0
  Ni  Ni735  1  0.80362322  0.31148478  0.37039535  1.0
  Ni  Ni736  1  0.80362322  0.64481812  0.37039535  1.0
  Ni  Ni737  1  0.80362322  0.97815145  0.37039535  1.0
  Ni  Ni738  1  0.13349682  0.08472852  0.31824455  1.0
  Ni  Ni739  1  0.13349682  0.41806185  0.31824455  1.0
  Ni  Ni740  1  0.13349682  0.75139518  0.31824455  1.0
  Ni  Ni741  1  0.46683015  0.08472852  0.31824455  1.0
  Ni  Ni742  1  0.46683015  0.41806185  0.31824455  1.0
  Ni  Ni743  1  0.46683015  0.75139518  0.31824455  1.0
  Ni  Ni744  1  0.80016348  0.08472852  0.31824455  1.0
  Ni  Ni745  1  0.80016348  0.41806185  0.31824455  1.0
  Ni  Ni746  1  0.80016348  0.75139518  0.31824455  1.0
  Ni  Ni747  1  0.00016348  0.21806185  0.21824455  1.0
  Ni  Ni748  1  0.00016348  0.55139518  0.21824455  1.0
  Ni  Ni749  1  0.00016348  0.88472852  0.21824455  1.0
  Ni  Ni750  1  0.33349682  0.21806185  0.21824455  1.0
  Ni  Ni751  1  0.33349682  0.55139518  0.21824455  1.0
  Ni  Ni752  1  0.33349682  0.88472852  0.21824455  1.0
  Ni  Ni753  1  0.66683015  0.21806185  0.21824455  1.0
  Ni  Ni754  1  0.66683015  0.55139518  0.21824455  1.0
  Ni  Ni755  1  0.66683015  0.88472852  0.21824455  1.0
  Ni  Ni756  1  0.28778108  0.05937958  0.28468975  1.0
  Ni  Ni757  1  0.28778108  0.39271292  0.28468975  1.0
  Ni  Ni758  1  0.28778108  0.72604625  0.28468975  1.0
  Ni  Ni759  1  0.62111442  0.05937958  0.28468975  1.0
  Ni  Ni760  1  0.62111442  0.39271292  0.28468975  1.0
  Ni  Ni761  1  0.62111442  0.72604625  0.28468975  1.0
  Ni  Ni762  1  0.95444775  0.05937958  0.28468975  1.0
  Ni  Ni763  1  0.95444775  0.39271292  0.28468975  1.0
  Ni  Ni764  1  0.95444775  0.72604625  0.28468975  1.0
  Ni  Ni765  1  0.08778108  0.25937958  0.38468975  1.0
  Ni  Ni766  1  0.08778108  0.59271292  0.38468975  1.0
  Ni  Ni767  1  0.08778108  0.92604625  0.38468975  1.0
  Ni  Ni768  1  0.42111442  0.25937958  0.38468975  1.0
  Ni  Ni769  1  0.42111442  0.59271292  0.38468975  1.0
  Ni  Ni770  1  0.42111442  0.92604625  0.38468975  1.0
  Ni  Ni771  1  0.75444775  0.25937958  0.38468975  1.0
  Ni  Ni772  1  0.75444775  0.59271292  0.38468975  1.0
  Ni  Ni773  1  0.75444775  0.92604625  0.38468975  1.0
  Ni  Ni774  1  0.18267228  0.13683372  0.30395015  1.0
  Ni  Ni775  1  0.18267228  0.47016705  0.30395015  1.0
  Ni  Ni776  1  0.18267228  0.80350038  0.30395015  1.0
  Ni  Ni777  1  0.51600562  0.13683372  0.30395015  1.0
  Ni  Ni778  1  0.51600562  0.47016705  0.30395015  1.0
  Ni  Ni779  1  0.51600562  0.80350038  0.30395015  1.0
  Ni  Ni780  1  0.84933895  0.13683372  0.30395015  1.0
  Ni  Ni781  1  0.84933895  0.47016705  0.30395015  1.0
  Ni  Ni782  1  0.84933895  0.80350038  0.30395015  1.0
  Ni  Ni783  1  0.04933895  0.27016705  0.20395015  1.0
  Ni  Ni784  1  0.04933895  0.60350038  0.20395015  1.0
  Ni  Ni785  1  0.04933895  0.93683372  0.20395015  1.0
  Ni  Ni786  1  0.38267228  0.27016705  0.20395015  1.0
  Ni  Ni787  1  0.38267228  0.60350038  0.20395015  1.0
  Ni  Ni788  1  0.38267228  0.93683372  0.20395015  1.0
  Ni  Ni789  1  0.71600562  0.27016705  0.20395015  1.0
  Ni  Ni790  1  0.71600562  0.60350038  0.20395015  1.0
  Ni  Ni791  1  0.71600562  0.93683372  0.20395015  1.0
  Ni  Ni792  1  0.07703988  0.20391445  0.33476885  1.0
  Ni  Ni793  1  0.07703988  0.53724778  0.33476885  1.0
  Ni  Ni794  1  0.07703988  0.87058112  0.33476885  1.0
  Ni  Ni795  1  0.41037322  0.20391445  0.33476885  1.0
  Ni  Ni796  1  0.41037322  0.53724778  0.33476885  1.0
  Ni  Ni797  1  0.41037322  0.87058112  0.33476885  1.0
  Ni  Ni798  1  0.74370655  0.20391445  0.33476885  1.0
  Ni  Ni799  1  0.74370655  0.53724778  0.33476885  1.0
  Ni  Ni800  1  0.74370655  0.87058112  0.33476885  1.0
  Ni  Ni801  1  0.27703988  0.00391445  0.23476885  1.0
  Ni  Ni802  1  0.27703988  0.33724778  0.23476885  1.0
  Ni  Ni803  1  0.27703988  0.67058112  0.23476885  1.0
  Ni  Ni804  1  0.61037322  0.00391445  0.23476885  1.0
  Ni  Ni805  1  0.61037322  0.33724778  0.23476885  1.0
  Ni  Ni806  1  0.61037322  0.67058112  0.23476885  1.0
  Ni  Ni807  1  0.94370655  0.00391445  0.23476885  1.0
  Ni  Ni808  1  0.94370655  0.33724778  0.23476885  1.0
  Ni  Ni809  1  0.94370655  0.67058112  0.23476885  1.0
  Ni  Ni810  1  0.23701908  0.14634892  0.39089975  1.0
  Ni  Ni811  1  0.23701908  0.47968225  0.39089975  1.0
  Ni  Ni812  1  0.23701908  0.81301558  0.39089975  1.0
  Ni  Ni813  1  0.57035242  0.14634892  0.39089975  1.0
  Ni  Ni814  1  0.57035242  0.47968225  0.39089975  1.0
  Ni  Ni815  1  0.57035242  0.81301558  0.39089975  1.0
  Ni  Ni816  1  0.90368575  0.14634892  0.39089975  1.0
  Ni  Ni817  1  0.90368575  0.47968225  0.39089975  1.0
  Ni  Ni818  1  0.90368575  0.81301558  0.39089975  1.0
  Ni  Ni819  1  0.10368575  0.27968225  0.29089975  1.0
  Ni  Ni820  1  0.10368575  0.61301558  0.29089975  1.0
  Ni  Ni821  1  0.10368575  0.94634892  0.29089975  1.0
  Ni  Ni822  1  0.43701908  0.27968225  0.29089975  1.0
  Ni  Ni823  1  0.43701908  0.61301558  0.29089975  1.0
  Ni  Ni824  1  0.43701908  0.94634892  0.29089975  1.0
  Ni  Ni825  1  0.77035242  0.27968225  0.29089975  1.0
  Ni  Ni826  1  0.77035242  0.61301558  0.29089975  1.0
  Ni  Ni827  1  0.77035242  0.94634892  0.29089975  1.0
  Ni  Ni828  1  0.16676762  0.11653105  0.39774015  1.0
  Ni  Ni829  1  0.16676762  0.44986438  0.39774015  1.0
  Ni  Ni830  1  0.16676762  0.78319772  0.39774015  1.0
  Ni  Ni831  1  0.50010095  0.11653105  0.39774015  1.0
  Ni  Ni832  1  0.50010095  0.44986438  0.39774015  1.0
  Ni  Ni833  1  0.50010095  0.78319772  0.39774015  1.0
  Ni  Ni834  1  0.83343428  0.11653105  0.39774015  1.0
  Ni  Ni835  1  0.83343428  0.44986438  0.39774015  1.0
  Ni  Ni836  1  0.83343428  0.78319772  0.39774015  1.0
  Ni  Ni837  1  0.03343428  0.24986438  0.29774015  1.0
  Ni  Ni838  1  0.03343428  0.58319772  0.29774015  1.0
  Ni  Ni839  1  0.03343428  0.91653105  0.29774015  1.0
  Ni  Ni840  1  0.36676762  0.24986438  0.29774015  1.0
  Ni  Ni841  1  0.36676762  0.58319772  0.29774015  1.0
  Ni  Ni842  1  0.36676762  0.91653105  0.29774015  1.0
  Ni  Ni843  1  0.70010095  0.24986438  0.29774015  1.0
  Ni  Ni844  1  0.70010095  0.58319772  0.29774015  1.0
  Ni  Ni845  1  0.70010095  0.91653105  0.29774015  1.0
  Ni  Ni846  1  0.29141835  0.11645998  0.34063845  1.0
  Ni  Ni847  1  0.29141835  0.44979332  0.34063845  1.0
  Ni  Ni848  1  0.29141835  0.78312665  0.34063845  1.0
  Ni  Ni849  1  0.62475168  0.11645998  0.34063845  1.0
  Ni  Ni850  1  0.62475168  0.44979332  0.34063845  1.0
  Ni  Ni851  1  0.62475168  0.78312665  0.34063845  1.0
  Ni  Ni852  1  0.95808502  0.11645998  0.34063845  1.0
  Ni  Ni853  1  0.95808502  0.44979332  0.34063845  1.0
  Ni  Ni854  1  0.95808502  0.78312665  0.34063845  1.0
  Ni  Ni855  1  0.15808502  0.24979332  0.24063845  1.0
  Ni  Ni856  1  0.15808502  0.58312665  0.24063845  1.0
  Ni  Ni857  1  0.15808502  0.91645998  0.24063845  1.0
  Ni  Ni858  1  0.49141835  0.24979332  0.24063845  1.0
  Ni  Ni859  1  0.49141835  0.58312665  0.24063845  1.0
  Ni  Ni860  1  0.49141835  0.91645998  0.24063845  1.0
  Ni  Ni861  1  0.82475168  0.24979332  0.24063845  1.0
  Ni  Ni862  1  0.82475168  0.58312665  0.24063845  1.0
  Ni  Ni863  1  0.82475168  0.91645998  0.24063845  1.0
  Ni  Ni864  1  0.17903502  0.07975332  0.24800145  1.0
  Ni  Ni865  1  0.17903502  0.41308665  0.24800145  1.0
  Ni  Ni866  1  0.17903502  0.74641998  0.24800145  1.0
  Ni  Ni867  1  0.51236835  0.07975332  0.24800145  1.0
  Ni  Ni868  1  0.51236835  0.41308665  0.24800145  1.0
  Ni  Ni869  1  0.51236835  0.74641998  0.24800145  1.0
  Ni  Ni870  1  0.84570168  0.07975332  0.24800145  1.0
  Ni  Ni871  1  0.84570168  0.41308665  0.24800145  1.0
  Ni  Ni872  1  0.84570168  0.74641998  0.24800145  1.0
  Ni  Ni873  1  0.31236835  0.27975332  0.34800145  1.0
  Ni  Ni874  1  0.31236835  0.61308665  0.34800145  1.0
  Ni  Ni875  1  0.31236835  0.94641998  0.34800145  1.0
  Ni  Ni876  1  0.64570168  0.27975332  0.34800145  1.0
  Ni  Ni877  1  0.64570168  0.61308665  0.34800145  1.0
  Ni  Ni878  1  0.64570168  0.94641998  0.34800145  1.0
  Ni  Ni879  1  0.97903502  0.27975332  0.34800145  1.0
  Ni  Ni880  1  0.97903502  0.61308665  0.34800145  1.0
  Ni  Ni881  1  0.97903502  0.94641998  0.34800145  1.0
  Ni  Ni882  1  0.31570708  0.16805458  0.39987025  1.0
  Ni  Ni883  1  0.31570708  0.50138792  0.39987025  1.0
  Ni  Ni884  1  0.31570708  0.83472125  0.39987025  1.0
  Ni  Ni885  1  0.64904042  0.16805458  0.39987025  1.0
  Ni  Ni886  1  0.64904042  0.50138792  0.39987025  1.0
  Ni  Ni887  1  0.64904042  0.83472125  0.39987025  1.0
  Ni  Ni888  1  0.98237375  0.16805458  0.39987025  1.0
  Ni  Ni889  1  0.98237375  0.50138792  0.39987025  1.0
  Ni  Ni890  1  0.98237375  0.83472125  0.39987025  1.0
  Ni  Ni891  1  0.18237375  0.30138792  0.29987025  1.0
  Ni  Ni892  1  0.18237375  0.63472125  0.29987025  1.0
  Ni  Ni893  1  0.18237375  0.96805458  0.29987025  1.0
  Ni  Ni894  1  0.51570708  0.30138792  0.29987025  1.0
  Ni  Ni895  1  0.51570708  0.63472125  0.29987025  1.0
  Ni  Ni896  1  0.51570708  0.96805458  0.29987025  1.0
  Ni  Ni897  1  0.84904042  0.30138792  0.29987025  1.0
  Ni  Ni898  1  0.84904042  0.63472125  0.29987025  1.0
  Ni  Ni899  1  0.84904042  0.96805458  0.29987025  1.0
  Ni  Ni900  1  0.08807962  0.09482538  0.38876965  1.0
  Ni  Ni901  1  0.08807962  0.42815872  0.38876965  1.0
  Ni  Ni902  1  0.08807962  0.76149205  0.38876965  1.0
  Ni  Ni903  1  0.42141295  0.09482538  0.38876965  1.0
  Ni  Ni904  1  0.42141295  0.42815872  0.38876965  1.0
  Ni  Ni905  1  0.42141295  0.76149205  0.38876965  1.0
  Ni  Ni906  1  0.75474628  0.09482538  0.38876965  1.0
  Ni  Ni907  1  0.75474628  0.42815872  0.38876965  1.0
  Ni  Ni908  1  0.75474628  0.76149205  0.38876965  1.0
  Ni  Ni909  1  0.28807962  0.22815872  0.28876965  1.0
  Ni  Ni910  1  0.28807962  0.56149205  0.28876965  1.0
  Ni  Ni911  1  0.28807962  0.89482538  0.28876965  1.0
  Ni  Ni912  1  0.62141295  0.22815872  0.28876965  1.0
  Ni  Ni913  1  0.62141295  0.56149205  0.28876965  1.0
  Ni  Ni914  1  0.62141295  0.89482538  0.28876965  1.0
  Ni  Ni915  1  0.95474628  0.22815872  0.28876965  1.0
  Ni  Ni916  1  0.95474628  0.56149205  0.28876965  1.0
  Ni  Ni917  1  0.95474628  0.89482538  0.28876965  1.0
  Ni  Ni918  1  0.06330462  0.15431772  0.26571765  1.0
  Ni  Ni919  1  0.06330462  0.48765105  0.26571765  1.0
  Ni  Ni920  1  0.06330462  0.82098438  0.26571765  1.0
  Ni  Ni921  1  0.39663795  0.15431772  0.26571765  1.0
  Ni  Ni922  1  0.39663795  0.48765105  0.26571765  1.0
  Ni  Ni923  1  0.39663795  0.82098438  0.26571765  1.0
  Ni  Ni924  1  0.72997128  0.15431772  0.26571765  1.0
  Ni  Ni925  1  0.72997128  0.48765105  0.26571765  1.0
  Ni  Ni926  1  0.72997128  0.82098438  0.26571765  1.0
  Ni  Ni927  1  0.19663795  0.02098438  0.36571765  1.0
  Ni  Ni928  1  0.19663795  0.35431772  0.36571765  1.0
  Ni  Ni929  1  0.19663795  0.68765105  0.36571765  1.0
  Ni  Ni930  1  0.52997128  0.02098438  0.36571765  1.0
  Ni  Ni931  1  0.52997128  0.35431772  0.36571765  1.0
  Ni  Ni932  1  0.52997128  0.68765105  0.36571765  1.0
  Ni  Ni933  1  0.86330462  0.02098438  0.36571765  1.0
  Ni  Ni934  1  0.86330462  0.35431772  0.36571765  1.0
  Ni  Ni935  1  0.86330462  0.68765105  0.36571765  1.0
  Ni  Ni936  1  0.07381542  0.04189558  0.32292225  1.0
  Ni  Ni937  1  0.07381542  0.37522892  0.32292225  1.0
  Ni  Ni938  1  0.07381542  0.70856225  0.32292225  1.0
  Ni  Ni939  1  0.40714875  0.04189558  0.32292225  1.0
  Ni  Ni940  1  0.40714875  0.37522892  0.32292225  1.0
  Ni  Ni941  1  0.40714875  0.70856225  0.32292225  1.0
  Ni  Ni942  1  0.74048208  0.04189558  0.32292225  1.0
  Ni  Ni943  1  0.74048208  0.37522892  0.32292225  1.0
  Ni  Ni944  1  0.74048208  0.70856225  0.32292225  1.0
  Ni  Ni945  1  0.27381542  0.17522892  0.22292225  1.0
  Ni  Ni946  1  0.27381542  0.50856225  0.22292225  1.0
  Ni  Ni947  1  0.27381542  0.84189558  0.22292225  1.0
  Ni  Ni948  1  0.60714875  0.17522892  0.22292225  1.0
  Ni  Ni949  1  0.60714875  0.50856225  0.22292225  1.0
  Ni  Ni950  1  0.60714875  0.84189558  0.22292225  1.0
  Ni  Ni951  1  0.94048208  0.17522892  0.22292225  1.0
  Ni  Ni952  1  0.94048208  0.50856225  0.22292225  1.0
  Ni  Ni953  1  0.94048208  0.84189558  0.22292225  1.0
  Ni  Ni954  1  0.13594675  0.18782758  0.27314225  1.0
  Ni  Ni955  1  0.13594675  0.52116092  0.27314225  1.0
  Ni  Ni956  1  0.13594675  0.85449425  0.27314225  1.0
  Ni  Ni957  1  0.46928008  0.18782758  0.27314225  1.0
  Ni  Ni958  1  0.46928008  0.52116092  0.27314225  1.0
  Ni  Ni959  1  0.46928008  0.85449425  0.27314225  1.0
  Ni  Ni960  1  0.80261342  0.18782758  0.27314225  1.0
  Ni  Ni961  1  0.80261342  0.52116092  0.27314225  1.0
  Ni  Ni962  1  0.80261342  0.85449425  0.27314225  1.0
  Ni  Ni963  1  0.26928008  0.05449425  0.37314225  1.0
  Ni  Ni964  1  0.26928008  0.38782758  0.37314225  1.0
  Ni  Ni965  1  0.26928008  0.72116092  0.37314225  1.0
  Ni  Ni966  1  0.60261342  0.05449425  0.37314225  1.0
  Ni  Ni967  1  0.60261342  0.38782758  0.37314225  1.0
  Ni  Ni968  1  0.60261342  0.72116092  0.37314225  1.0
  Ni  Ni969  1  0.93594675  0.05449425  0.37314225  1.0
  Ni  Ni970  1  0.93594675  0.38782758  0.37314225  1.0
  Ni  Ni971  1  0.93594675  0.72116092  0.37314225  1.0
  Ni  Ni972  1  0.00117328  0.00838572  0.31549765  1.0
  Ni  Ni973  1  0.00117328  0.34171905  0.31549765  1.0
  Ni  Ni974  1  0.00117328  0.67505238  0.31549765  1.0
  Ni  Ni975  1  0.33450662  0.00838572  0.31549765  1.0
  Ni  Ni976  1  0.33450662  0.34171905  0.31549765  1.0
  Ni  Ni977  1  0.33450662  0.67505238  0.31549765  1.0
  Ni  Ni978  1  0.66783995  0.00838572  0.31549765  1.0
  Ni  Ni979  1  0.66783995  0.34171905  0.31549765  1.0
  Ni  Ni980  1  0.66783995  0.67505238  0.31549765  1.0
  Ni  Ni981  1  0.20117328  0.14171905  0.21549765  1.0
  Ni  Ni982  1  0.20117328  0.47505238  0.21549765  1.0
  Ni  Ni983  1  0.20117328  0.80838572  0.21549765  1.0
  Ni  Ni984  1  0.53450662  0.14171905  0.21549765  1.0
  Ni  Ni985  1  0.53450662  0.47505238  0.21549765  1.0
  Ni  Ni986  1  0.53450662  0.80838572  0.21549765  1.0
  Ni  Ni987  1  0.86783995  0.14171905  0.21549765  1.0
  Ni  Ni988  1  0.86783995  0.47505238  0.21549765  1.0
  Ni  Ni989  1  0.86783995  0.80838572  0.21549765  1.0
  Ni  Ni990  1  0.09792742  0.05638792  0.23721775  1.0
  Ni  Ni991  1  0.09792742  0.38972125  0.23721775  1.0
  Ni  Ni992  1  0.09792742  0.72305458  0.23721775  1.0
  Ni  Ni993  1  0.43126075  0.05638792  0.23721775  1.0
  Ni  Ni994  1  0.43126075  0.38972125  0.23721775  1.0
  Ni  Ni995  1  0.43126075  0.72305458  0.23721775  1.0
  Ni  Ni996  1  0.76459408  0.05638792  0.23721775  1.0
  Ni  Ni997  1  0.76459408  0.38972125  0.23721775  1.0
  Ni  Ni998  1  0.76459408  0.72305458  0.23721775  1.0
  Ni  Ni999  1  0.23126075  0.25638792  0.33721775  1.0
  Ni  Ni1000  1  0.23126075  0.58972125  0.33721775  1.0
  Ni  Ni1001  1  0.23126075  0.92305458  0.33721775  1.0
  Ni  Ni1002  1  0.56459408  0.25638792  0.33721775  1.0
  Ni  Ni1003  1  0.56459408  0.58972125  0.33721775  1.0
  Ni  Ni1004  1  0.56459408  0.92305458  0.33721775  1.0
  Ni  Ni1005  1  0.89792742  0.25638792  0.33721775  1.0
  Ni  Ni1006  1  0.89792742  0.58972125  0.33721775  1.0
  Ni  Ni1007  1  0.89792742  0.92305458  0.33721775  1.0
  Ni  Ni1008  1  0.03919262  0.13982538  0.35142215  1.0
  Ni  Ni1009  1  0.03919262  0.47315872  0.35142215  1.0
  Ni  Ni1010  1  0.03919262  0.80649205  0.35142215  1.0
  Ni  Ni1011  1  0.37252595  0.13982538  0.35142215  1.0
  Ni  Ni1012  1  0.37252595  0.47315872  0.35142215  1.0
  Ni  Ni1013  1  0.37252595  0.80649205  0.35142215  1.0
  Ni  Ni1014  1  0.70585928  0.13982538  0.35142215  1.0
  Ni  Ni1015  1  0.70585928  0.47315872  0.35142215  1.0
  Ni  Ni1016  1  0.70585928  0.80649205  0.35142215  1.0
  Ni  Ni1017  1  0.23919262  0.27315872  0.25142215  1.0
  Ni  Ni1018  1  0.23919262  0.60649205  0.25142215  1.0
  Ni  Ni1019  1  0.23919262  0.93982538  0.25142215  1.0
  Ni  Ni1020  1  0.57252595  0.27315872  0.25142215  1.0
  Ni  Ni1021  1  0.57252595  0.60649205  0.25142215  1.0
  Ni  Ni1022  1  0.57252595  0.93982538  0.25142215  1.0
  Ni  Ni1023  1  0.90585928  0.27315872  0.25142215  1.0
  Ni  Ni1024  1  0.90585928  0.60649205  0.25142215  1.0
  Ni  Ni1025  1  0.90585928  0.93982538  0.25142215  1.0
  Ni  Ni1026  1  0.06008015  0.32563218  0.25387105  1.0
  Ni  Ni1027  1  0.06008015  0.65896552  0.25387105  1.0
  Ni  Ni1028  1  0.06008015  0.99229885  0.25387105  1.0
  Ni  Ni1029  1  0.39341348  0.32563218  0.25387105  1.0
  Ni  Ni1030  1  0.39341348  0.65896552  0.25387105  1.0
  Ni  Ni1031  1  0.39341348  0.99229885  0.25387105  1.0
  Ni  Ni1032  1  0.72674682  0.32563218  0.25387105  1.0
  Ni  Ni1033  1  0.72674682  0.65896552  0.25387105  1.0
  Ni  Ni1034  1  0.72674682  0.99229885  0.25387105  1.0
  Ni  Ni1035  1  0.19341348  0.19229885  0.35387105  1.0
  Ni  Ni1036  1  0.19341348  0.52563218  0.35387105  1.0
  Ni  Ni1037  1  0.19341348  0.85896552  0.35387105  1.0
  Ni  Ni1038  1  0.52674682  0.19229885  0.35387105  1.0
  Ni  Ni1039  1  0.52674682  0.52563218  0.35387105  1.0
  Ni  Ni1040  1  0.52674682  0.85896552  0.35387105  1.0
  Ni  Ni1041  1  0.86008015  0.19229885  0.35387105  1.0
  Ni  Ni1042  1  0.86008015  0.52563218  0.35387105  1.0
  Ni  Ni1043  1  0.86008015  0.85896552  0.35387105  1.0
