# generated using pymatgen
data_Hf8Ni21
_symmetry_space_group_name_H-M   'P 1'
_cell_length_a   30.23076923
_cell_length_b   50.10672136
_cell_length_c   32.38296038
_cell_angle_alpha   94.01101577
_cell_angle_beta   93.45494062
_cell_angle_gamma   95.61885411
_symmetry_Int_Tables_number   1
_chemical_formula_structural   Hf8Ni21
_chemical_formula_sum   'Hf432 Ni1134'
_cell_volume   48585.90820761
_cell_formula_units_Z   54
loop_
 _symmetry_equiv_pos_site_id
 _symmetry_equiv_pos_as_xyz
  1  'x, y, z'
loop_
 _atom_site_type_symbol
 _atom_site_label
 _atom_site_symmetry_multiplicity
 _atom_site_fract_x
 _atom_site_fract_y
 _atom_site_fract_z
 _atom_site_occupancy
  Hf  Hf0  1  0.26620517  0.13262262  0.06673218  1.0
  Hf  Hf1  1  0.26620517  0.46595595  0.06673218  1.0
  Hf  Hf2  1  0.26620517  0.79928929  0.06673218  1.0
  Hf  Hf3  1  0.59953850  0.13262262  0.06673218  1.0
  Hf  Hf4  1  0.59953850  0.46595595  0.06673218  1.0
  Hf  Hf5  1  0.59953850  0.79928929  0.06673218  1.0
  Hf  Hf6  1  0.93287183  0.13262262  0.06673218  1.0
  Hf  Hf7  1  0.93287183  0.46595595  0.06673218  1.0
  Hf  Hf8  1  0.93287183  0.79928929  0.06673218  1.0
  Hf  Hf9  1  0.09953850  0.01357500  0.13816075  1.0
  Hf  Hf10  1  0.09953850  0.34690833  0.13816075  1.0
  Hf  Hf11  1  0.09953850  0.68024167  0.13816075  1.0
  Hf  Hf12  1  0.43287183  0.01357500  0.13816075  1.0
  Hf  Hf13  1  0.43287183  0.34690833  0.13816075  1.0
  Hf  Hf14  1  0.43287183  0.68024167  0.13816075  1.0
  Hf  Hf15  1  0.76620517  0.01357500  0.13816075  1.0
  Hf  Hf16  1  0.76620517  0.34690833  0.13816075  1.0
  Hf  Hf17  1  0.76620517  0.68024167  0.13816075  1.0
  Hf  Hf18  1  0.06712817  0.29185257  0.06998061  1.0
  Hf  Hf19  1  0.06712817  0.62518590  0.06998061  1.0
  Hf  Hf20  1  0.06712817  0.95851924  0.06998061  1.0
  Hf  Hf21  1  0.40046150  0.29185257  0.06998061  1.0
  Hf  Hf22  1  0.40046150  0.62518590  0.06998061  1.0
  Hf  Hf23  1  0.40046150  0.95851924  0.06998061  1.0
  Hf  Hf24  1  0.73379483  0.29185257  0.06998061  1.0
  Hf  Hf25  1  0.73379483  0.62518590  0.06998061  1.0
  Hf  Hf26  1  0.73379483  0.95851924  0.06998061  1.0
  Hf  Hf27  1  0.23379483  0.17280495  0.14140918  1.0
  Hf  Hf28  1  0.23379483  0.50613829  0.14140918  1.0
  Hf  Hf29  1  0.23379483  0.83947162  0.14140918  1.0
  Hf  Hf30  1  0.56712817  0.17280495  0.14140918  1.0
  Hf  Hf31  1  0.56712817  0.50613829  0.14140918  1.0
  Hf  Hf32  1  0.56712817  0.83947162  0.14140918  1.0
  Hf  Hf33  1  0.90046150  0.17280495  0.14140918  1.0
  Hf  Hf34  1  0.90046150  0.50613829  0.14140918  1.0
  Hf  Hf35  1  0.90046150  0.83947162  0.14140918  1.0
  Hf  Hf36  1  0.29855333  0.29997421  0.12947682  1.0
  Hf  Hf37  1  0.29855333  0.63330755  0.12947682  1.0
  Hf  Hf38  1  0.29855333  0.96664088  0.12947682  1.0
  Hf  Hf39  1  0.63188667  0.29997421  0.12947682  1.0
  Hf  Hf40  1  0.63188667  0.63330755  0.12947682  1.0
  Hf  Hf41  1  0.63188667  0.96664088  0.12947682  1.0
  Hf  Hf42  1  0.96522000  0.29997421  0.12947682  1.0
  Hf  Hf43  1  0.96522000  0.63330755  0.12947682  1.0
  Hf  Hf44  1  0.96522000  0.96664088  0.12947682  1.0
  Hf  Hf45  1  0.13188667  0.08568850  0.05804825  1.0
  Hf  Hf46  1  0.13188667  0.41902183  0.05804825  1.0
  Hf  Hf47  1  0.13188667  0.75235517  0.05804825  1.0
  Hf  Hf48  1  0.46522000  0.08568850  0.05804825  1.0
  Hf  Hf49  1  0.46522000  0.41902183  0.05804825  1.0
  Hf  Hf50  1  0.46522000  0.75235517  0.05804825  1.0
  Hf  Hf51  1  0.79855333  0.08568850  0.05804825  1.0
  Hf  Hf52  1  0.79855333  0.41902183  0.05804825  1.0
  Hf  Hf53  1  0.79855333  0.75235517  0.05804825  1.0
  Hf  Hf54  1  0.03478000  0.12450098  0.00723596  1.0
  Hf  Hf55  1  0.03478000  0.45783431  0.00723596  1.0
  Hf  Hf56  1  0.03478000  0.79116764  0.00723596  1.0
  Hf  Hf57  1  0.36811333  0.12450098  0.00723596  1.0
  Hf  Hf58  1  0.36811333  0.45783431  0.00723596  1.0
  Hf  Hf59  1  0.36811333  0.79116764  0.00723596  1.0
  Hf  Hf60  1  0.70144667  0.12450098  0.00723596  1.0
  Hf  Hf61  1  0.70144667  0.45783431  0.00723596  1.0
  Hf  Hf62  1  0.70144667  0.79116764  0.00723596  1.0
  Hf  Hf63  1  0.20144667  0.00545336  0.07866454  1.0
  Hf  Hf64  1  0.20144667  0.33878669  0.07866454  1.0
  Hf  Hf65  1  0.20144667  0.67212002  0.07866454  1.0
  Hf  Hf66  1  0.53478000  0.00545336  0.07866454  1.0
  Hf  Hf67  1  0.53478000  0.33878669  0.07866454  1.0
  Hf  Hf68  1  0.53478000  0.67212002  0.07866454  1.0
  Hf  Hf69  1  0.86811333  0.00545336  0.07866454  1.0
  Hf  Hf70  1  0.86811333  0.33878669  0.07866454  1.0
  Hf  Hf71  1  0.86811333  0.67212002  0.07866454  1.0
  Hf  Hf72  1  0.06852633  0.17966436  0.07394454  1.0
  Hf  Hf73  1  0.06852633  0.51299769  0.07394454  1.0
  Hf  Hf74  1  0.06852633  0.84633102  0.07394454  1.0
  Hf  Hf75  1  0.40185967  0.17966436  0.07394454  1.0
  Hf  Hf76  1  0.40185967  0.51299769  0.07394454  1.0
  Hf  Hf77  1  0.40185967  0.84633102  0.07394454  1.0
  Hf  Hf78  1  0.73519300  0.17966436  0.07394454  1.0
  Hf  Hf79  1  0.73519300  0.51299769  0.07394454  1.0
  Hf  Hf80  1  0.73519300  0.84633102  0.07394454  1.0
  Hf  Hf81  1  0.23519300  0.29871198  0.00251596  1.0
  Hf  Hf82  1  0.23519300  0.63204531  0.00251596  1.0
  Hf  Hf83  1  0.23519300  0.96537864  0.00251596  1.0
  Hf  Hf84  1  0.56852633  0.29871198  0.00251596  1.0
  Hf  Hf85  1  0.56852633  0.63204531  0.00251596  1.0
  Hf  Hf86  1  0.56852633  0.96537864  0.00251596  1.0
  Hf  Hf87  1  0.90185967  0.29871198  0.00251596  1.0
  Hf  Hf88  1  0.90185967  0.63204531  0.00251596  1.0
  Hf  Hf89  1  0.90185967  0.96537864  0.00251596  1.0
  Hf  Hf90  1  0.26480700  0.24481083  0.06276825  1.0
  Hf  Hf91  1  0.26480700  0.57814417  0.06276825  1.0
  Hf  Hf92  1  0.26480700  0.91147750  0.06276825  1.0
  Hf  Hf93  1  0.59814033  0.24481083  0.06276825  1.0
  Hf  Hf94  1  0.59814033  0.57814417  0.06276825  1.0
  Hf  Hf95  1  0.59814033  0.91147750  0.06276825  1.0
  Hf  Hf96  1  0.93147367  0.24481083  0.06276825  1.0
  Hf  Hf97  1  0.93147367  0.57814417  0.06276825  1.0
  Hf  Hf98  1  0.93147367  0.91147750  0.06276825  1.0
  Hf  Hf99  1  0.09814033  0.12576321  0.13419682  1.0
  Hf  Hf100  1  0.09814033  0.45909655  0.13419682  1.0
  Hf  Hf101  1  0.09814033  0.79242988  0.13419682  1.0
  Hf  Hf102  1  0.43147367  0.12576321  0.13419682  1.0
  Hf  Hf103  1  0.43147367  0.45909655  0.13419682  1.0
  Hf  Hf104  1  0.43147367  0.79242988  0.13419682  1.0
  Hf  Hf105  1  0.76480700  0.12576321  0.13419682  1.0
  Hf  Hf106  1  0.76480700  0.45909655  0.13419682  1.0
  Hf  Hf107  1  0.76480700  0.79242988  0.13419682  1.0
  Hf  Hf108  1  0.00750767  0.04940969  0.11649154  1.0
  Hf  Hf109  1  0.00750767  0.38274302  0.11649154  1.0
  Hf  Hf110  1  0.00750767  0.71607636  0.11649154  1.0
  Hf  Hf111  1  0.34084100  0.04940969  0.11649154  1.0
  Hf  Hf112  1  0.34084100  0.38274302  0.11649154  1.0
  Hf  Hf113  1  0.34084100  0.71607636  0.11649154  1.0
  Hf  Hf114  1  0.67417433  0.04940969  0.11649154  1.0
  Hf  Hf115  1  0.67417433  0.38274302  0.11649154  1.0
  Hf  Hf116  1  0.67417433  0.71607636  0.11649154  1.0
  Hf  Hf117  1  0.17417433  0.16845731  0.04506296  1.0
  Hf  Hf118  1  0.17417433  0.50179064  0.04506296  1.0
  Hf  Hf119  1  0.17417433  0.83512398  0.04506296  1.0
  Hf  Hf120  1  0.50750767  0.16845731  0.04506296  1.0
  Hf  Hf121  1  0.50750767  0.50179064  0.04506296  1.0
  Hf  Hf122  1  0.50750767  0.83512398  0.04506296  1.0
  Hf  Hf123  1  0.84084100  0.16845731  0.04506296  1.0
  Hf  Hf124  1  0.84084100  0.50179064  0.04506296  1.0
  Hf  Hf125  1  0.84084100  0.83512398  0.04506296  1.0
  Hf  Hf126  1  0.32582567  0.04173217  0.02022125  1.0
  Hf  Hf127  1  0.32582567  0.37506550  0.02022125  1.0
  Hf  Hf128  1  0.32582567  0.70839883  0.02022125  1.0
  Hf  Hf129  1  0.65915900  0.04173217  0.02022125  1.0
  Hf  Hf130  1  0.65915900  0.37506550  0.02022125  1.0
  Hf  Hf131  1  0.65915900  0.70839883  0.02022125  1.0
  Hf  Hf132  1  0.99249233  0.04173217  0.02022125  1.0
  Hf  Hf133  1  0.99249233  0.37506550  0.02022125  1.0
  Hf  Hf134  1  0.99249233  0.70839883  0.02022125  1.0
  Hf  Hf135  1  0.15915900  0.25601788  0.09164982  1.0
  Hf  Hf136  1  0.15915900  0.58935121  0.09164982  1.0
  Hf  Hf137  1  0.15915900  0.92268455  0.09164982  1.0
  Hf  Hf138  1  0.49249233  0.25601788  0.09164982  1.0
  Hf  Hf139  1  0.49249233  0.58935121  0.09164982  1.0
  Hf  Hf140  1  0.49249233  0.92268455  0.09164982  1.0
  Hf  Hf141  1  0.82582567  0.25601788  0.09164982  1.0
  Hf  Hf142  1  0.82582567  0.58935121  0.09164982  1.0
  Hf  Hf143  1  0.82582567  0.92268455  0.09164982  1.0
  Hf  Hf144  1  0.26620517  0.22786071  0.20958932  1.0
  Hf  Hf145  1  0.26620517  0.56119405  0.20958932  1.0
  Hf  Hf146  1  0.26620517  0.89452738  0.20958932  1.0
  Hf  Hf147  1  0.59953850  0.22786071  0.20958932  1.0
  Hf  Hf148  1  0.59953850  0.56119405  0.20958932  1.0
  Hf  Hf149  1  0.59953850  0.89452738  0.20958932  1.0
  Hf  Hf150  1  0.93287183  0.22786071  0.20958932  1.0
  Hf  Hf151  1  0.93287183  0.56119405  0.20958932  1.0
  Hf  Hf152  1  0.93287183  0.89452738  0.20958932  1.0
  Hf  Hf153  1  0.09953850  0.10881310  0.28101789  1.0
  Hf  Hf154  1  0.09953850  0.44214643  0.28101789  1.0
  Hf  Hf155  1  0.09953850  0.77547976  0.28101789  1.0
  Hf  Hf156  1  0.43287183  0.10881310  0.28101789  1.0
  Hf  Hf157  1  0.43287183  0.44214643  0.28101789  1.0
  Hf  Hf158  1  0.43287183  0.77547976  0.28101789  1.0
  Hf  Hf159  1  0.76620517  0.10881310  0.28101789  1.0
  Hf  Hf160  1  0.76620517  0.44214643  0.28101789  1.0
  Hf  Hf161  1  0.76620517  0.77547976  0.28101789  1.0
  Hf  Hf162  1  0.06712817  0.05375733  0.21283775  1.0
  Hf  Hf163  1  0.06712817  0.38709067  0.21283775  1.0
  Hf  Hf164  1  0.06712817  0.72042400  0.21283775  1.0
  Hf  Hf165  1  0.40046150  0.05375733  0.21283775  1.0
  Hf  Hf166  1  0.40046150  0.38709067  0.21283775  1.0
  Hf  Hf167  1  0.40046150  0.72042400  0.21283775  1.0
  Hf  Hf168  1  0.73379483  0.05375733  0.21283775  1.0
  Hf  Hf169  1  0.73379483  0.38709067  0.21283775  1.0
  Hf  Hf170  1  0.73379483  0.72042400  0.21283775  1.0
  Hf  Hf171  1  0.23379483  0.26804305  0.28426632  1.0
  Hf  Hf172  1  0.23379483  0.60137638  0.28426632  1.0
  Hf  Hf173  1  0.23379483  0.93470971  0.28426632  1.0
  Hf  Hf174  1  0.56712817  0.26804305  0.28426632  1.0
  Hf  Hf175  1  0.56712817  0.60137638  0.28426632  1.0
  Hf  Hf176  1  0.56712817  0.93470971  0.28426632  1.0
  Hf  Hf177  1  0.90046150  0.26804305  0.28426632  1.0
  Hf  Hf178  1  0.90046150  0.60137638  0.28426632  1.0
  Hf  Hf179  1  0.90046150  0.93470971  0.28426632  1.0
  Hf  Hf180  1  0.29855333  0.06187898  0.27233396  1.0
  Hf  Hf181  1  0.29855333  0.39521231  0.27233396  1.0
  Hf  Hf182  1  0.29855333  0.72854564  0.27233396  1.0
  Hf  Hf183  1  0.63188667  0.06187898  0.27233396  1.0
  Hf  Hf184  1  0.63188667  0.39521231  0.27233396  1.0
  Hf  Hf185  1  0.63188667  0.72854564  0.27233396  1.0
  Hf  Hf186  1  0.96522000  0.06187898  0.27233396  1.0
  Hf  Hf187  1  0.96522000  0.39521231  0.27233396  1.0
  Hf  Hf188  1  0.96522000  0.72854564  0.27233396  1.0
  Hf  Hf189  1  0.13188667  0.18092660  0.20090539  1.0
  Hf  Hf190  1  0.13188667  0.51425993  0.20090539  1.0
  Hf  Hf191  1  0.13188667  0.84759326  0.20090539  1.0
  Hf  Hf192  1  0.46522000  0.18092660  0.20090539  1.0
  Hf  Hf193  1  0.46522000  0.51425993  0.20090539  1.0
  Hf  Hf194  1  0.46522000  0.84759326  0.20090539  1.0
  Hf  Hf195  1  0.79855333  0.18092660  0.20090539  1.0
  Hf  Hf196  1  0.79855333  0.51425993  0.20090539  1.0
  Hf  Hf197  1  0.79855333  0.84759326  0.20090539  1.0
  Hf  Hf198  1  0.03478000  0.21973907  0.15009311  1.0
  Hf  Hf199  1  0.03478000  0.55307240  0.15009311  1.0
  Hf  Hf200  1  0.03478000  0.88640574  0.15009311  1.0
  Hf  Hf201  1  0.36811333  0.21973907  0.15009311  1.0
  Hf  Hf202  1  0.36811333  0.55307240  0.15009311  1.0
  Hf  Hf203  1  0.36811333  0.88640574  0.15009311  1.0
  Hf  Hf204  1  0.70144667  0.21973907  0.15009311  1.0
  Hf  Hf205  1  0.70144667  0.55307240  0.15009311  1.0
  Hf  Hf206  1  0.70144667  0.88640574  0.15009311  1.0
  Hf  Hf207  1  0.20144667  0.10069145  0.22152168  1.0
  Hf  Hf208  1  0.20144667  0.43402479  0.22152168  1.0
  Hf  Hf209  1  0.20144667  0.76735812  0.22152168  1.0
  Hf  Hf210  1  0.53478000  0.10069145  0.22152168  1.0
  Hf  Hf211  1  0.53478000  0.43402479  0.22152168  1.0
  Hf  Hf212  1  0.53478000  0.76735812  0.22152168  1.0
  Hf  Hf213  1  0.86811333  0.10069145  0.22152168  1.0
  Hf  Hf214  1  0.86811333  0.43402479  0.22152168  1.0
  Hf  Hf215  1  0.86811333  0.76735812  0.22152168  1.0
  Hf  Hf216  1  0.06852633  0.27490245  0.21680168  1.0
  Hf  Hf217  1  0.06852633  0.60823579  0.21680168  1.0
  Hf  Hf218  1  0.06852633  0.94156912  0.21680168  1.0
  Hf  Hf219  1  0.40185967  0.27490245  0.21680168  1.0
  Hf  Hf220  1  0.40185967  0.60823579  0.21680168  1.0
  Hf  Hf221  1  0.40185967  0.94156912  0.21680168  1.0
  Hf  Hf222  1  0.73519300  0.27490245  0.21680168  1.0
  Hf  Hf223  1  0.73519300  0.60823579  0.21680168  1.0
  Hf  Hf224  1  0.73519300  0.94156912  0.21680168  1.0
  Hf  Hf225  1  0.23519300  0.06061674  0.14537311  1.0
  Hf  Hf226  1  0.23519300  0.39395007  0.14537311  1.0
  Hf  Hf227  1  0.23519300  0.72728340  0.14537311  1.0
  Hf  Hf228  1  0.56852633  0.06061674  0.14537311  1.0
  Hf  Hf229  1  0.56852633  0.39395007  0.14537311  1.0
  Hf  Hf230  1  0.56852633  0.72728340  0.14537311  1.0
  Hf  Hf231  1  0.90185967  0.06061674  0.14537311  1.0
  Hf  Hf232  1  0.90185967  0.39395007  0.14537311  1.0
  Hf  Hf233  1  0.90185967  0.72728340  0.14537311  1.0
  Hf  Hf234  1  0.26480700  0.00671560  0.20562539  1.0
  Hf  Hf235  1  0.26480700  0.34004893  0.20562539  1.0
  Hf  Hf236  1  0.26480700  0.67338226  0.20562539  1.0
  Hf  Hf237  1  0.59814033  0.00671560  0.20562539  1.0
  Hf  Hf238  1  0.59814033  0.34004893  0.20562539  1.0
  Hf  Hf239  1  0.59814033  0.67338226  0.20562539  1.0
  Hf  Hf240  1  0.93147367  0.00671560  0.20562539  1.0
  Hf  Hf241  1  0.93147367  0.34004893  0.20562539  1.0
  Hf  Hf242  1  0.93147367  0.67338226  0.20562539  1.0
  Hf  Hf243  1  0.09814033  0.22100131  0.27705396  1.0
  Hf  Hf244  1  0.09814033  0.55433464  0.27705396  1.0
  Hf  Hf245  1  0.09814033  0.88766798  0.27705396  1.0
  Hf  Hf246  1  0.43147367  0.22100131  0.27705396  1.0
  Hf  Hf247  1  0.43147367  0.55433464  0.27705396  1.0
  Hf  Hf248  1  0.43147367  0.88766798  0.27705396  1.0
  Hf  Hf249  1  0.76480700  0.22100131  0.27705396  1.0
  Hf  Hf250  1  0.76480700  0.55433464  0.27705396  1.0
  Hf  Hf251  1  0.76480700  0.88766798  0.27705396  1.0
  Hf  Hf252  1  0.00750767  0.14464779  0.25934868  1.0
  Hf  Hf253  1  0.00750767  0.47798112  0.25934868  1.0
  Hf  Hf254  1  0.00750767  0.81131445  0.25934868  1.0
  Hf  Hf255  1  0.34084100  0.14464779  0.25934868  1.0
  Hf  Hf256  1  0.34084100  0.47798112  0.25934868  1.0
  Hf  Hf257  1  0.34084100  0.81131445  0.25934868  1.0
  Hf  Hf258  1  0.67417433  0.14464779  0.25934868  1.0
  Hf  Hf259  1  0.67417433  0.47798112  0.25934868  1.0
  Hf  Hf260  1  0.67417433  0.81131445  0.25934868  1.0
  Hf  Hf261  1  0.17417433  0.26369540  0.18792011  1.0
  Hf  Hf262  1  0.17417433  0.59702874  0.18792011  1.0
  Hf  Hf263  1  0.17417433  0.93036207  0.18792011  1.0
  Hf  Hf264  1  0.50750767  0.26369540  0.18792011  1.0
  Hf  Hf265  1  0.50750767  0.59702874  0.18792011  1.0
  Hf  Hf266  1  0.50750767  0.93036207  0.18792011  1.0
  Hf  Hf267  1  0.84084100  0.26369540  0.18792011  1.0
  Hf  Hf268  1  0.84084100  0.59702874  0.18792011  1.0
  Hf  Hf269  1  0.84084100  0.93036207  0.18792011  1.0
  Hf  Hf270  1  0.32582567  0.13697026  0.16307839  1.0
  Hf  Hf271  1  0.32582567  0.47030360  0.16307839  1.0
  Hf  Hf272  1  0.32582567  0.80363693  0.16307839  1.0
  Hf  Hf273  1  0.65915900  0.13697026  0.16307839  1.0
  Hf  Hf274  1  0.65915900  0.47030360  0.16307839  1.0
  Hf  Hf275  1  0.65915900  0.80363693  0.16307839  1.0
  Hf  Hf276  1  0.99249233  0.13697026  0.16307839  1.0
  Hf  Hf277  1  0.99249233  0.47030360  0.16307839  1.0
  Hf  Hf278  1  0.99249233  0.80363693  0.16307839  1.0
  Hf  Hf279  1  0.15915900  0.01792264  0.23450696  1.0
  Hf  Hf280  1  0.15915900  0.35125598  0.23450696  1.0
  Hf  Hf281  1  0.15915900  0.68458931  0.23450696  1.0
  Hf  Hf282  1  0.49249233  0.01792264  0.23450696  1.0
  Hf  Hf283  1  0.49249233  0.35125598  0.23450696  1.0
  Hf  Hf284  1  0.49249233  0.68458931  0.23450696  1.0
  Hf  Hf285  1  0.82582567  0.01792264  0.23450696  1.0
  Hf  Hf286  1  0.82582567  0.35125598  0.23450696  1.0
  Hf  Hf287  1  0.82582567  0.68458931  0.23450696  1.0
  Hf  Hf288  1  0.26620517  0.32309881  0.35244646  1.0
  Hf  Hf289  1  0.26620517  0.65643214  0.35244646  1.0
  Hf  Hf290  1  0.26620517  0.98976548  0.35244646  1.0
  Hf  Hf291  1  0.59953850  0.32309881  0.35244646  1.0
  Hf  Hf292  1  0.59953850  0.65643214  0.35244646  1.0
  Hf  Hf293  1  0.59953850  0.98976548  0.35244646  1.0
  Hf  Hf294  1  0.93287183  0.32309881  0.35244646  1.0
  Hf  Hf295  1  0.93287183  0.65643214  0.35244646  1.0
  Hf  Hf296  1  0.93287183  0.98976548  0.35244646  1.0
  Hf  Hf297  1  0.09953850  0.20405119  0.42387504  1.0
  Hf  Hf298  1  0.09953850  0.53738452  0.42387504  1.0
  Hf  Hf299  1  0.09953850  0.87071786  0.42387504  1.0
  Hf  Hf300  1  0.43287183  0.20405119  0.42387504  1.0
  Hf  Hf301  1  0.43287183  0.53738452  0.42387504  1.0
  Hf  Hf302  1  0.43287183  0.87071786  0.42387504  1.0
  Hf  Hf303  1  0.76620517  0.20405119  0.42387504  1.0
  Hf  Hf304  1  0.76620517  0.53738452  0.42387504  1.0
  Hf  Hf305  1  0.76620517  0.87071786  0.42387504  1.0
  Hf  Hf306  1  0.06712817  0.14899543  0.35569489  1.0
  Hf  Hf307  1  0.06712817  0.48232876  0.35569489  1.0
  Hf  Hf308  1  0.06712817  0.81566210  0.35569489  1.0
  Hf  Hf309  1  0.40046150  0.14899543  0.35569489  1.0
  Hf  Hf310  1  0.40046150  0.48232876  0.35569489  1.0
  Hf  Hf311  1  0.40046150  0.81566210  0.35569489  1.0
  Hf  Hf312  1  0.73379483  0.14899543  0.35569489  1.0
  Hf  Hf313  1  0.73379483  0.48232876  0.35569489  1.0
  Hf  Hf314  1  0.73379483  0.81566210  0.35569489  1.0
  Hf  Hf315  1  0.23379483  0.02994781  0.42712346  1.0
  Hf  Hf316  1  0.23379483  0.36328114  0.42712346  1.0
  Hf  Hf317  1  0.23379483  0.69661448  0.42712346  1.0
  Hf  Hf318  1  0.56712817  0.02994781  0.42712346  1.0
  Hf  Hf319  1  0.56712817  0.36328114  0.42712346  1.0
  Hf  Hf320  1  0.56712817  0.69661448  0.42712346  1.0
  Hf  Hf321  1  0.90046150  0.02994781  0.42712346  1.0
  Hf  Hf322  1  0.90046150  0.36328114  0.42712346  1.0
  Hf  Hf323  1  0.90046150  0.69661448  0.42712346  1.0
  Hf  Hf324  1  0.29855333  0.15711707  0.41519111  1.0
  Hf  Hf325  1  0.29855333  0.49045040  0.41519111  1.0
  Hf  Hf326  1  0.29855333  0.82378374  0.41519111  1.0
  Hf  Hf327  1  0.63188667  0.15711707  0.41519111  1.0
  Hf  Hf328  1  0.63188667  0.49045040  0.41519111  1.0
  Hf  Hf329  1  0.63188667  0.82378374  0.41519111  1.0
  Hf  Hf330  1  0.96522000  0.15711707  0.41519111  1.0
  Hf  Hf331  1  0.96522000  0.49045040  0.41519111  1.0
  Hf  Hf332  1  0.96522000  0.82378374  0.41519111  1.0
  Hf  Hf333  1  0.13188667  0.27616469  0.34376254  1.0
  Hf  Hf334  1  0.13188667  0.60949802  0.34376254  1.0
  Hf  Hf335  1  0.13188667  0.94283136  0.34376254  1.0
  Hf  Hf336  1  0.46522000  0.27616469  0.34376254  1.0
  Hf  Hf337  1  0.46522000  0.60949802  0.34376254  1.0
  Hf  Hf338  1  0.46522000  0.94283136  0.34376254  1.0
  Hf  Hf339  1  0.79855333  0.27616469  0.34376254  1.0
  Hf  Hf340  1  0.79855333  0.60949802  0.34376254  1.0
  Hf  Hf341  1  0.79855333  0.94283136  0.34376254  1.0
  Hf  Hf342  1  0.03478000  0.31497717  0.29295025  1.0
  Hf  Hf343  1  0.03478000  0.64831050  0.29295025  1.0
  Hf  Hf344  1  0.03478000  0.98164383  0.29295025  1.0
  Hf  Hf345  1  0.36811333  0.31497717  0.29295025  1.0
  Hf  Hf346  1  0.36811333  0.64831050  0.29295025  1.0
  Hf  Hf347  1  0.36811333  0.98164383  0.29295025  1.0
  Hf  Hf348  1  0.70144667  0.31497717  0.29295025  1.0
  Hf  Hf349  1  0.70144667  0.64831050  0.29295025  1.0
  Hf  Hf350  1  0.70144667  0.98164383  0.29295025  1.0
  Hf  Hf351  1  0.20144667  0.19592955  0.36437882  1.0
  Hf  Hf352  1  0.20144667  0.52926288  0.36437882  1.0
  Hf  Hf353  1  0.20144667  0.86259621  0.36437882  1.0
  Hf  Hf354  1  0.53478000  0.19592955  0.36437882  1.0
  Hf  Hf355  1  0.53478000  0.52926288  0.36437882  1.0
  Hf  Hf356  1  0.53478000  0.86259621  0.36437882  1.0
  Hf  Hf357  1  0.86811333  0.19592955  0.36437882  1.0
  Hf  Hf358  1  0.86811333  0.52926288  0.36437882  1.0
  Hf  Hf359  1  0.86811333  0.86259621  0.36437882  1.0
  Hf  Hf360  1  0.06852633  0.03680721  0.35965882  1.0
  Hf  Hf361  1  0.06852633  0.37014055  0.35965882  1.0
  Hf  Hf362  1  0.06852633  0.70347388  0.35965882  1.0
  Hf  Hf363  1  0.40185967  0.03680721  0.35965882  1.0
  Hf  Hf364  1  0.40185967  0.37014055  0.35965882  1.0
  Hf  Hf365  1  0.40185967  0.70347388  0.35965882  1.0
  Hf  Hf366  1  0.73519300  0.03680721  0.35965882  1.0
  Hf  Hf367  1  0.73519300  0.37014055  0.35965882  1.0
  Hf  Hf368  1  0.73519300  0.70347388  0.35965882  1.0
  Hf  Hf369  1  0.23519300  0.15585483  0.28823025  1.0
  Hf  Hf370  1  0.23519300  0.48918817  0.28823025  1.0
  Hf  Hf371  1  0.23519300  0.82252150  0.28823025  1.0
  Hf  Hf372  1  0.56852633  0.15585483  0.28823025  1.0
  Hf  Hf373  1  0.56852633  0.48918817  0.28823025  1.0
  Hf  Hf374  1  0.56852633  0.82252150  0.28823025  1.0
  Hf  Hf375  1  0.90185967  0.15585483  0.28823025  1.0
  Hf  Hf376  1  0.90185967  0.48918817  0.28823025  1.0
  Hf  Hf377  1  0.90185967  0.82252150  0.28823025  1.0
  Hf  Hf378  1  0.26480700  0.10195369  0.34848254  1.0
  Hf  Hf379  1  0.26480700  0.43528702  0.34848254  1.0
  Hf  Hf380  1  0.26480700  0.76862036  0.34848254  1.0
  Hf  Hf381  1  0.59814033  0.10195369  0.34848254  1.0
  Hf  Hf382  1  0.59814033  0.43528702  0.34848254  1.0
  Hf  Hf383  1  0.59814033  0.76862036  0.34848254  1.0
  Hf  Hf384  1  0.93147367  0.10195369  0.34848254  1.0
  Hf  Hf385  1  0.93147367  0.43528702  0.34848254  1.0
  Hf  Hf386  1  0.93147367  0.76862036  0.34848254  1.0
  Hf  Hf387  1  0.09814033  0.31623940  0.41991111  1.0
  Hf  Hf388  1  0.09814033  0.64957274  0.41991111  1.0
  Hf  Hf389  1  0.09814033  0.98290607  0.41991111  1.0
  Hf  Hf390  1  0.43147367  0.31623940  0.41991111  1.0
  Hf  Hf391  1  0.43147367  0.64957274  0.41991111  1.0
  Hf  Hf392  1  0.43147367  0.98290607  0.41991111  1.0
  Hf  Hf393  1  0.76480700  0.31623940  0.41991111  1.0
  Hf  Hf394  1  0.76480700  0.64957274  0.41991111  1.0
  Hf  Hf395  1  0.76480700  0.98290607  0.41991111  1.0
  Hf  Hf396  1  0.00750767  0.23988588  0.40220582  1.0
  Hf  Hf397  1  0.00750767  0.57321921  0.40220582  1.0
  Hf  Hf398  1  0.00750767  0.90655255  0.40220582  1.0
  Hf  Hf399  1  0.34084100  0.23988588  0.40220582  1.0
  Hf  Hf400  1  0.34084100  0.57321921  0.40220582  1.0
  Hf  Hf401  1  0.34084100  0.90655255  0.40220582  1.0
  Hf  Hf402  1  0.67417433  0.23988588  0.40220582  1.0
  Hf  Hf403  1  0.67417433  0.57321921  0.40220582  1.0
  Hf  Hf404  1  0.67417433  0.90655255  0.40220582  1.0
  Hf  Hf405  1  0.17417433  0.02560017  0.33077725  1.0
  Hf  Hf406  1  0.17417433  0.35893350  0.33077725  1.0
  Hf  Hf407  1  0.17417433  0.69226683  0.33077725  1.0
  Hf  Hf408  1  0.50750767  0.02560017  0.33077725  1.0
  Hf  Hf409  1  0.50750767  0.35893350  0.33077725  1.0
  Hf  Hf410  1  0.50750767  0.69226683  0.33077725  1.0
  Hf  Hf411  1  0.84084100  0.02560017  0.33077725  1.0
  Hf  Hf412  1  0.84084100  0.35893350  0.33077725  1.0
  Hf  Hf413  1  0.84084100  0.69226683  0.33077725  1.0
  Hf  Hf414  1  0.32582567  0.23220836  0.30593554  1.0
  Hf  Hf415  1  0.32582567  0.56554169  0.30593554  1.0
  Hf  Hf416  1  0.32582567  0.89887502  0.30593554  1.0
  Hf  Hf417  1  0.65915900  0.23220836  0.30593554  1.0
  Hf  Hf418  1  0.65915900  0.56554169  0.30593554  1.0
  Hf  Hf419  1  0.65915900  0.89887502  0.30593554  1.0
  Hf  Hf420  1  0.99249233  0.23220836  0.30593554  1.0
  Hf  Hf421  1  0.99249233  0.56554169  0.30593554  1.0
  Hf  Hf422  1  0.99249233  0.89887502  0.30593554  1.0
  Hf  Hf423  1  0.15915900  0.11316074  0.37736411  1.0
  Hf  Hf424  1  0.15915900  0.44649407  0.37736411  1.0
  Hf  Hf425  1  0.15915900  0.77982740  0.37736411  1.0
  Hf  Hf426  1  0.49249233  0.11316074  0.37736411  1.0
  Hf  Hf427  1  0.49249233  0.44649407  0.37736411  1.0
  Hf  Hf428  1  0.49249233  0.77982740  0.37736411  1.0
  Hf  Hf429  1  0.82582567  0.11316074  0.37736411  1.0
  Hf  Hf430  1  0.82582567  0.44649407  0.37736411  1.0
  Hf  Hf431  1  0.82582567  0.77982740  0.37736411  1.0
  Ni  Ni432  1  0.00000000  0.21223760  0.06835639  1.0
  Ni  Ni433  1  0.00000000  0.54557093  0.06835639  1.0
  Ni  Ni434  1  0.00000000  0.87890426  0.06835639  1.0
  Ni  Ni435  1  0.33333333  0.21223760  0.06835639  1.0
  Ni  Ni436  1  0.33333333  0.54557093  0.06835639  1.0
  Ni  Ni437  1  0.33333333  0.87890426  0.06835639  1.0
  Ni  Ni438  1  0.66666667  0.21223760  0.06835639  1.0
  Ni  Ni439  1  0.66666667  0.54557093  0.06835639  1.0
  Ni  Ni440  1  0.66666667  0.87890426  0.06835639  1.0
  Ni  Ni441  1  0.16666667  0.09318998  0.13978496  1.0
  Ni  Ni442  1  0.16666667  0.42652331  0.13978496  1.0
  Ni  Ni443  1  0.16666667  0.75985664  0.13978496  1.0
  Ni  Ni444  1  0.50000000  0.09318998  0.13978496  1.0
  Ni  Ni445  1  0.50000000  0.42652331  0.13978496  1.0
  Ni  Ni446  1  0.50000000  0.75985664  0.13978496  1.0
  Ni  Ni447  1  0.83333333  0.09318998  0.13978496  1.0
  Ni  Ni448  1  0.83333333  0.42652331  0.13978496  1.0
  Ni  Ni449  1  0.83333333  0.75985664  0.13978496  1.0
  Ni  Ni450  1  0.30992000  0.09162874  0.04358411  1.0
  Ni  Ni451  1  0.30992000  0.42496207  0.04358411  1.0
  Ni  Ni452  1  0.30992000  0.75829540  0.04358411  1.0
  Ni  Ni453  1  0.64325333  0.09162874  0.04358411  1.0
  Ni  Ni454  1  0.64325333  0.42496207  0.04358411  1.0
  Ni  Ni455  1  0.64325333  0.75829540  0.04358411  1.0
  Ni  Ni456  1  0.97658667  0.09162874  0.04358411  1.0
  Ni  Ni457  1  0.97658667  0.42496207  0.04358411  1.0
  Ni  Ni458  1  0.97658667  0.75829540  0.04358411  1.0
  Ni  Ni459  1  0.14325333  0.30591445  0.11501268  1.0
  Ni  Ni460  1  0.14325333  0.63924779  0.11501268  1.0
  Ni  Ni461  1  0.14325333  0.97258112  0.11501268  1.0
  Ni  Ni462  1  0.47658667  0.30591445  0.11501268  1.0
  Ni  Ni463  1  0.47658667  0.63924779  0.11501268  1.0
  Ni  Ni464  1  0.47658667  0.97258112  0.11501268  1.0
  Ni  Ni465  1  0.80992000  0.30591445  0.11501268  1.0
  Ni  Ni466  1  0.80992000  0.63924779  0.11501268  1.0
  Ni  Ni467  1  0.80992000  0.97258112  0.11501268  1.0
  Ni  Ni468  1  0.02341333  0.33284645  0.09312868  1.0
  Ni  Ni469  1  0.02341333  0.66617979  0.09312868  1.0
  Ni  Ni470  1  0.02341333  0.99951312  0.09312868  1.0
  Ni  Ni471  1  0.35674667  0.33284645  0.09312868  1.0
  Ni  Ni472  1  0.35674667  0.66617979  0.09312868  1.0
  Ni  Ni473  1  0.35674667  0.99951312  0.09312868  1.0
  Ni  Ni474  1  0.69008000  0.33284645  0.09312868  1.0
  Ni  Ni475  1  0.69008000  0.66617979  0.09312868  1.0
  Ni  Ni476  1  0.69008000  0.99951312  0.09312868  1.0
  Ni  Ni477  1  0.19008000  0.11856074  0.02170011  1.0
  Ni  Ni478  1  0.19008000  0.45189407  0.02170011  1.0
  Ni  Ni479  1  0.19008000  0.78522740  0.02170011  1.0
  Ni  Ni480  1  0.52341333  0.11856074  0.02170011  1.0
  Ni  Ni481  1  0.52341333  0.45189407  0.02170011  1.0
  Ni  Ni482  1  0.52341333  0.78522740  0.02170011  1.0
  Ni  Ni483  1  0.85674667  0.11856074  0.02170011  1.0
  Ni  Ni484  1  0.85674667  0.45189407  0.02170011  1.0
  Ni  Ni485  1  0.85674667  0.78522740  0.02170011  1.0
  Ni  Ni486  1  0.26042167  0.18754621  0.06334882  1.0
  Ni  Ni487  1  0.26042167  0.52087955  0.06334882  1.0
  Ni  Ni488  1  0.26042167  0.85421288  0.06334882  1.0
  Ni  Ni489  1  0.59375500  0.18754621  0.06334882  1.0
  Ni  Ni490  1  0.59375500  0.52087955  0.06334882  1.0
  Ni  Ni491  1  0.59375500  0.85421288  0.06334882  1.0
  Ni  Ni492  1  0.92708833  0.18754621  0.06334882  1.0
  Ni  Ni493  1  0.92708833  0.52087955  0.06334882  1.0
  Ni  Ni494  1  0.92708833  0.85421288  0.06334882  1.0
  Ni  Ni495  1  0.09375500  0.06849860  0.13477739  1.0
  Ni  Ni496  1  0.09375500  0.40183193  0.13477739  1.0
  Ni  Ni497  1  0.09375500  0.73516526  0.13477739  1.0
  Ni  Ni498  1  0.42708833  0.06849860  0.13477739  1.0
  Ni  Ni499  1  0.42708833  0.40183193  0.13477739  1.0
  Ni  Ni500  1  0.42708833  0.73516526  0.13477739  1.0
  Ni  Ni501  1  0.76042167  0.06849860  0.13477739  1.0
  Ni  Ni502  1  0.76042167  0.40183193  0.13477739  1.0
  Ni  Ni503  1  0.76042167  0.73516526  0.13477739  1.0
  Ni  Ni504  1  0.07291167  0.23692898  0.07336396  1.0
  Ni  Ni505  1  0.07291167  0.57026231  0.07336396  1.0
  Ni  Ni506  1  0.07291167  0.90359564  0.07336396  1.0
  Ni  Ni507  1  0.40624500  0.23692898  0.07336396  1.0
  Ni  Ni508  1  0.40624500  0.57026231  0.07336396  1.0
  Ni  Ni509  1  0.40624500  0.90359564  0.07336396  1.0
  Ni  Ni510  1  0.73957833  0.23692898  0.07336396  1.0
  Ni  Ni511  1  0.73957833  0.57026231  0.07336396  1.0
  Ni  Ni512  1  0.73957833  0.90359564  0.07336396  1.0
  Ni  Ni513  1  0.23957833  0.02264326  0.00193539  1.0
  Ni  Ni514  1  0.23957833  0.35597660  0.00193539  1.0
  Ni  Ni515  1  0.23957833  0.68930993  0.00193539  1.0
  Ni  Ni516  1  0.57291167  0.02264326  0.00193539  1.0
  Ni  Ni517  1  0.57291167  0.35597660  0.00193539  1.0
  Ni  Ni518  1  0.57291167  0.68930993  0.00193539  1.0
  Ni  Ni519  1  0.90624500  0.02264326  0.00193539  1.0
  Ni  Ni520  1  0.90624500  0.35597660  0.00193539  1.0
  Ni  Ni521  1  0.90624500  0.68930993  0.00193539  1.0
  Ni  Ni522  1  0.21601100  0.20867202  0.00973254  1.0
  Ni  Ni523  1  0.21601100  0.54200536  0.00973254  1.0
  Ni  Ni524  1  0.21601100  0.87533869  0.00973254  1.0
  Ni  Ni525  1  0.54934433  0.20867202  0.00973254  1.0
  Ni  Ni526  1  0.54934433  0.54200536  0.00973254  1.0
  Ni  Ni527  1  0.54934433  0.87533869  0.00973254  1.0
  Ni  Ni528  1  0.88267767  0.20867202  0.00973254  1.0
  Ni  Ni529  1  0.88267767  0.54200536  0.00973254  1.0
  Ni  Ni530  1  0.88267767  0.87533869  0.00973254  1.0
  Ni  Ni531  1  0.04934433  0.08962440  0.08116111  1.0
  Ni  Ni532  1  0.04934433  0.42295774  0.08116111  1.0
  Ni  Ni533  1  0.04934433  0.75629107  0.08116111  1.0
  Ni  Ni534  1  0.38267767  0.08962440  0.08116111  1.0
  Ni  Ni535  1  0.38267767  0.42295774  0.08116111  1.0
  Ni  Ni536  1  0.38267767  0.75629107  0.08116111  1.0
  Ni  Ni537  1  0.71601100  0.08962440  0.08116111  1.0
  Ni  Ni538  1  0.71601100  0.42295774  0.08116111  1.0
  Ni  Ni539  1  0.71601100  0.75629107  0.08116111  1.0
  Ni  Ni540  1  0.11732233  0.21580317  0.12698025  1.0
  Ni  Ni541  1  0.11732233  0.54913650  0.12698025  1.0
  Ni  Ni542  1  0.11732233  0.88246983  0.12698025  1.0
  Ni  Ni543  1  0.45065567  0.21580317  0.12698025  1.0
  Ni  Ni544  1  0.45065567  0.54913650  0.12698025  1.0
  Ni  Ni545  1  0.45065567  0.88246983  0.12698025  1.0
  Ni  Ni546  1  0.78398900  0.21580317  0.12698025  1.0
  Ni  Ni547  1  0.78398900  0.54913650  0.12698025  1.0
  Ni  Ni548  1  0.78398900  0.88246983  0.12698025  1.0
  Ni  Ni549  1  0.28398900  0.00151745  0.05555168  1.0
  Ni  Ni550  1  0.28398900  0.33485079  0.05555168  1.0
  Ni  Ni551  1  0.28398900  0.66818412  0.05555168  1.0
  Ni  Ni552  1  0.61732233  0.00151745  0.05555168  1.0
  Ni  Ni553  1  0.61732233  0.33485079  0.05555168  1.0
  Ni  Ni554  1  0.61732233  0.66818412  0.05555168  1.0
  Ni  Ni555  1  0.95065567  0.00151745  0.05555168  1.0
  Ni  Ni556  1  0.95065567  0.33485079  0.05555168  1.0
  Ni  Ni557  1  0.95065567  0.66818412  0.05555168  1.0
  Ni  Ni558  1  0.02196283  0.13330500  0.08844475  1.0
  Ni  Ni559  1  0.02196283  0.46663833  0.08844475  1.0
  Ni  Ni560  1  0.02196283  0.79997167  0.08844475  1.0
  Ni  Ni561  1  0.35529617  0.13330500  0.08844475  1.0
  Ni  Ni562  1  0.35529617  0.46663833  0.08844475  1.0
  Ni  Ni563  1  0.35529617  0.79997167  0.08844475  1.0
  Ni  Ni564  1  0.68862950  0.13330500  0.08844475  1.0
  Ni  Ni565  1  0.68862950  0.46663833  0.08844475  1.0
  Ni  Ni566  1  0.68862950  0.79997167  0.08844475  1.0
  Ni  Ni567  1  0.18862950  0.25235262  0.01701618  1.0
  Ni  Ni568  1  0.18862950  0.58568595  0.01701618  1.0
  Ni  Ni569  1  0.18862950  0.91901929  0.01701618  1.0
  Ni  Ni570  1  0.52196283  0.25235262  0.01701618  1.0
  Ni  Ni571  1  0.52196283  0.58568595  0.01701618  1.0
  Ni  Ni572  1  0.52196283  0.91901929  0.01701618  1.0
  Ni  Ni573  1  0.85529617  0.25235262  0.01701618  1.0
  Ni  Ni574  1  0.85529617  0.58568595  0.01701618  1.0
  Ni  Ni575  1  0.85529617  0.91901929  0.01701618  1.0
  Ni  Ni576  1  0.20065233  0.21211288  0.09224282  1.0
  Ni  Ni577  1  0.20065233  0.54544621  0.09224282  1.0
  Ni  Ni578  1  0.20065233  0.87877955  0.09224282  1.0
  Ni  Ni579  1  0.53398567  0.21211288  0.09224282  1.0
  Ni  Ni580  1  0.53398567  0.54544621  0.09224282  1.0
  Ni  Ni581  1  0.53398567  0.87877955  0.09224282  1.0
  Ni  Ni582  1  0.86731900  0.21211288  0.09224282  1.0
  Ni  Ni583  1  0.86731900  0.54544621  0.09224282  1.0
  Ni  Ni584  1  0.86731900  0.87877955  0.09224282  1.0
  Ni  Ni585  1  0.03398567  0.33116050  0.02081425  1.0
  Ni  Ni586  1  0.03398567  0.66449383  0.02081425  1.0
  Ni  Ni587  1  0.03398567  0.99782717  0.02081425  1.0
  Ni  Ni588  1  0.36731900  0.33116050  0.02081425  1.0
  Ni  Ni589  1  0.36731900  0.66449383  0.02081425  1.0
  Ni  Ni590  1  0.36731900  0.99782717  0.02081425  1.0
  Ni  Ni591  1  0.70065233  0.33116050  0.02081425  1.0
  Ni  Ni592  1  0.70065233  0.66449383  0.02081425  1.0
  Ni  Ni593  1  0.70065233  0.99782717  0.02081425  1.0
  Ni  Ni594  1  0.13268100  0.21236231  0.04446996  1.0
  Ni  Ni595  1  0.13268100  0.54569564  0.04446996  1.0
  Ni  Ni596  1  0.13268100  0.87902898  0.04446996  1.0
  Ni  Ni597  1  0.46601433  0.21236231  0.04446996  1.0
  Ni  Ni598  1  0.46601433  0.54569564  0.04446996  1.0
  Ni  Ni599  1  0.46601433  0.87902898  0.04446996  1.0
  Ni  Ni600  1  0.79934767  0.21236231  0.04446996  1.0
  Ni  Ni601  1  0.79934767  0.54569564  0.04446996  1.0
  Ni  Ni602  1  0.79934767  0.87902898  0.04446996  1.0
  Ni  Ni603  1  0.29934767  0.09331469  0.11589854  1.0
  Ni  Ni604  1  0.29934767  0.42664802  0.11589854  1.0
  Ni  Ni605  1  0.29934767  0.75998136  0.11589854  1.0
  Ni  Ni606  1  0.63268100  0.09331469  0.11589854  1.0
  Ni  Ni607  1  0.63268100  0.42664802  0.11589854  1.0
  Ni  Ni608  1  0.63268100  0.75998136  0.11589854  1.0
  Ni  Ni609  1  0.96601433  0.09331469  0.11589854  1.0
  Ni  Ni610  1  0.96601433  0.42664802  0.11589854  1.0
  Ni  Ni611  1  0.96601433  0.75998136  0.11589854  1.0
  Ni  Ni612  1  0.23829783  0.25618495  0.13864818  1.0
  Ni  Ni613  1  0.23829783  0.58951829  0.13864818  1.0
  Ni  Ni614  1  0.23829783  0.92285162  0.13864818  1.0
  Ni  Ni615  1  0.57163117  0.25618495  0.13864818  1.0
  Ni  Ni616  1  0.57163117  0.58951829  0.13864818  1.0
  Ni  Ni617  1  0.57163117  0.92285162  0.13864818  1.0
  Ni  Ni618  1  0.90496450  0.25618495  0.13864818  1.0
  Ni  Ni619  1  0.90496450  0.58951829  0.13864818  1.0
  Ni  Ni620  1  0.90496450  0.92285162  0.13864818  1.0
  Ni  Ni621  1  0.07163117  0.04189924  0.06721961  1.0
  Ni  Ni622  1  0.07163117  0.37523257  0.06721961  1.0
  Ni  Ni623  1  0.07163117  0.70856590  0.06721961  1.0
  Ni  Ni624  1  0.40496450  0.04189924  0.06721961  1.0
  Ni  Ni625  1  0.40496450  0.37523257  0.06721961  1.0
  Ni  Ni626  1  0.40496450  0.70856590  0.06721961  1.0
  Ni  Ni627  1  0.73829783  0.04189924  0.06721961  1.0
  Ni  Ni628  1  0.73829783  0.37523257  0.06721961  1.0
  Ni  Ni629  1  0.73829783  0.70856590  0.06721961  1.0
  Ni  Ni630  1  0.09503550  0.26352833  0.14092175  1.0
  Ni  Ni631  1  0.09503550  0.59686167  0.14092175  1.0
  Ni  Ni632  1  0.09503550  0.93019500  0.14092175  1.0
  Ni  Ni633  1  0.42836883  0.26352833  0.14092175  1.0
  Ni  Ni634  1  0.42836883  0.59686167  0.14092175  1.0
  Ni  Ni635  1  0.42836883  0.93019500  0.14092175  1.0
  Ni  Ni636  1  0.76170217  0.26352833  0.14092175  1.0
  Ni  Ni637  1  0.76170217  0.59686167  0.14092175  1.0
  Ni  Ni638  1  0.76170217  0.93019500  0.14092175  1.0
  Ni  Ni639  1  0.26170217  0.04924262  0.06949318  1.0
  Ni  Ni640  1  0.26170217  0.38257595  0.06949318  1.0
  Ni  Ni641  1  0.26170217  0.71590929  0.06949318  1.0
  Ni  Ni642  1  0.59503550  0.04924262  0.06949318  1.0
  Ni  Ni643  1  0.59503550  0.38257595  0.06949318  1.0
  Ni  Ni644  1  0.59503550  0.71590929  0.06949318  1.0
  Ni  Ni645  1  0.92836883  0.04924262  0.06949318  1.0
  Ni  Ni646  1  0.92836883  0.38257595  0.06949318  1.0
  Ni  Ni647  1  0.92836883  0.71590929  0.06949318  1.0
  Ni  Ni648  1  0.28233050  0.21780962  0.12886118  1.0
  Ni  Ni649  1  0.28233050  0.55114295  0.12886118  1.0
  Ni  Ni650  1  0.28233050  0.88447629  0.12886118  1.0
  Ni  Ni651  1  0.61566383  0.21780962  0.12886118  1.0
  Ni  Ni652  1  0.61566383  0.55114295  0.12886118  1.0
  Ni  Ni653  1  0.61566383  0.88447629  0.12886118  1.0
  Ni  Ni654  1  0.94899717  0.21780962  0.12886118  1.0
  Ni  Ni655  1  0.94899717  0.55114295  0.12886118  1.0
  Ni  Ni656  1  0.94899717  0.88447629  0.12886118  1.0
  Ni  Ni657  1  0.11566383  0.00352390  0.05743261  1.0
  Ni  Ni658  1  0.11566383  0.33685724  0.05743261  1.0
  Ni  Ni659  1  0.11566383  0.67019057  0.05743261  1.0
  Ni  Ni660  1  0.44899717  0.00352390  0.05743261  1.0
  Ni  Ni661  1  0.44899717  0.33685724  0.05743261  1.0
  Ni  Ni662  1  0.44899717  0.67019057  0.05743261  1.0
  Ni  Ni663  1  0.78233050  0.00352390  0.05743261  1.0
  Ni  Ni664  1  0.78233050  0.33685724  0.05743261  1.0
  Ni  Ni665  1  0.78233050  0.67019057  0.05743261  1.0
  Ni  Ni666  1  0.05100283  0.20666557  0.00785161  1.0
  Ni  Ni667  1  0.05100283  0.53999890  0.00785161  1.0
  Ni  Ni668  1  0.05100283  0.87333224  0.00785161  1.0
  Ni  Ni669  1  0.38433617  0.20666557  0.00785161  1.0
  Ni  Ni670  1  0.38433617  0.53999890  0.00785161  1.0
  Ni  Ni671  1  0.38433617  0.87333224  0.00785161  1.0
  Ni  Ni672  1  0.71766950  0.20666557  0.00785161  1.0
  Ni  Ni673  1  0.71766950  0.53999890  0.00785161  1.0
  Ni  Ni674  1  0.71766950  0.87333224  0.00785161  1.0
  Ni  Ni675  1  0.21766950  0.08761795  0.07928018  1.0
  Ni  Ni676  1  0.21766950  0.42095129  0.07928018  1.0
  Ni  Ni677  1  0.21766950  0.75428462  0.07928018  1.0
  Ni  Ni678  1  0.55100283  0.08761795  0.07928018  1.0
  Ni  Ni679  1  0.55100283  0.42095129  0.07928018  1.0
  Ni  Ni680  1  0.55100283  0.75428462  0.07928018  1.0
  Ni  Ni681  1  0.88433617  0.08761795  0.07928018  1.0
  Ni  Ni682  1  0.88433617  0.42095129  0.07928018  1.0
  Ni  Ni683  1  0.88433617  0.75428462  0.07928018  1.0
  Ni  Ni684  1  0.31854383  0.17467133  0.11062475  1.0
  Ni  Ni685  1  0.31854383  0.50800467  0.11062475  1.0
  Ni  Ni686  1  0.31854383  0.84133800  0.11062475  1.0
  Ni  Ni687  1  0.65187717  0.17467133  0.11062475  1.0
  Ni  Ni688  1  0.65187717  0.50800467  0.11062475  1.0
  Ni  Ni689  1  0.65187717  0.84133800  0.11062475  1.0
  Ni  Ni690  1  0.98521050  0.17467133  0.11062475  1.0
  Ni  Ni691  1  0.98521050  0.50800467  0.11062475  1.0
  Ni  Ni692  1  0.98521050  0.84133800  0.11062475  1.0
  Ni  Ni693  1  0.15187717  0.29371895  0.03919618  1.0
  Ni  Ni694  1  0.15187717  0.62705229  0.03919618  1.0
  Ni  Ni695  1  0.15187717  0.96038562  0.03919618  1.0
  Ni  Ni696  1  0.48521050  0.29371895  0.03919618  1.0
  Ni  Ni697  1  0.48521050  0.62705229  0.03919618  1.0
  Ni  Ni698  1  0.48521050  0.96038562  0.03919618  1.0
  Ni  Ni699  1  0.81854383  0.29371895  0.03919618  1.0
  Ni  Ni700  1  0.81854383  0.62705229  0.03919618  1.0
  Ni  Ni701  1  0.81854383  0.96038562  0.03919618  1.0
  Ni  Ni702  1  0.01478950  0.24980386  0.02608804  1.0
  Ni  Ni703  1  0.01478950  0.58313719  0.02608804  1.0
  Ni  Ni704  1  0.01478950  0.91647052  0.02608804  1.0
  Ni  Ni705  1  0.34812283  0.24980386  0.02608804  1.0
  Ni  Ni706  1  0.34812283  0.58313719  0.02608804  1.0
  Ni  Ni707  1  0.34812283  0.91647052  0.02608804  1.0
  Ni  Ni708  1  0.68145617  0.24980386  0.02608804  1.0
  Ni  Ni709  1  0.68145617  0.58313719  0.02608804  1.0
  Ni  Ni710  1  0.68145617  0.91647052  0.02608804  1.0
  Ni  Ni711  1  0.18145617  0.13075624  0.09751661  1.0
  Ni  Ni712  1  0.18145617  0.46408957  0.09751661  1.0
  Ni  Ni713  1  0.18145617  0.79742290  0.09751661  1.0
  Ni  Ni714  1  0.51478950  0.13075624  0.09751661  1.0
  Ni  Ni715  1  0.51478950  0.46408957  0.09751661  1.0
  Ni  Ni716  1  0.51478950  0.79742290  0.09751661  1.0
  Ni  Ni717  1  0.84812283  0.13075624  0.09751661  1.0
  Ni  Ni718  1  0.84812283  0.46408957  0.09751661  1.0
  Ni  Ni719  1  0.84812283  0.79742290  0.09751661  1.0
  Ni  Ni720  1  0.06032750  0.07519186  0.00795804  1.0
  Ni  Ni721  1  0.06032750  0.40852519  0.00795804  1.0
  Ni  Ni722  1  0.06032750  0.74185852  0.00795804  1.0
  Ni  Ni723  1  0.39366083  0.07519186  0.00795804  1.0
  Ni  Ni724  1  0.39366083  0.40852519  0.00795804  1.0
  Ni  Ni725  1  0.39366083  0.74185852  0.00795804  1.0
  Ni  Ni726  1  0.72699417  0.07519186  0.00795804  1.0
  Ni  Ni727  1  0.72699417  0.40852519  0.00795804  1.0
  Ni  Ni728  1  0.72699417  0.74185852  0.00795804  1.0
  Ni  Ni729  1  0.22699417  0.28947757  0.07938661  1.0
  Ni  Ni730  1  0.22699417  0.62281090  0.07938661  1.0
  Ni  Ni731  1  0.22699417  0.95614424  0.07938661  1.0
  Ni  Ni732  1  0.56032750  0.28947757  0.07938661  1.0
  Ni  Ni733  1  0.56032750  0.62281090  0.07938661  1.0
  Ni  Ni734  1  0.56032750  0.95614424  0.07938661  1.0
  Ni  Ni735  1  0.89366083  0.28947757  0.07938661  1.0
  Ni  Ni736  1  0.89366083  0.62281090  0.07938661  1.0
  Ni  Ni737  1  0.89366083  0.95614424  0.07938661  1.0
  Ni  Ni738  1  0.27300583  0.01595000  0.12875475  1.0
  Ni  Ni739  1  0.27300583  0.34928333  0.12875475  1.0
  Ni  Ni740  1  0.27300583  0.68261667  0.12875475  1.0
  Ni  Ni741  1  0.60633917  0.01595000  0.12875475  1.0
  Ni  Ni742  1  0.60633917  0.34928333  0.12875475  1.0
  Ni  Ni743  1  0.60633917  0.68261667  0.12875475  1.0
  Ni  Ni744  1  0.93967250  0.01595000  0.12875475  1.0
  Ni  Ni745  1  0.93967250  0.34928333  0.12875475  1.0
  Ni  Ni746  1  0.93967250  0.68261667  0.12875475  1.0
  Ni  Ni747  1  0.10633917  0.13499762  0.05732618  1.0
  Ni  Ni748  1  0.10633917  0.46833095  0.05732618  1.0
  Ni  Ni749  1  0.10633917  0.80166429  0.05732618  1.0
  Ni  Ni750  1  0.43967250  0.13499762  0.05732618  1.0
  Ni  Ni751  1  0.43967250  0.46833095  0.05732618  1.0
  Ni  Ni752  1  0.43967250  0.80166429  0.05732618  1.0
  Ni  Ni753  1  0.77300583  0.13499762  0.05732618  1.0
  Ni  Ni754  1  0.77300583  0.46833095  0.05732618  1.0
  Ni  Ni755  1  0.77300583  0.80166429  0.05732618  1.0
  Ni  Ni756  1  0.01033333  0.25858483  0.10385025  1.0
  Ni  Ni757  1  0.01033333  0.59191817  0.10385025  1.0
  Ni  Ni758  1  0.01033333  0.92525150  0.10385025  1.0
  Ni  Ni759  1  0.34366667  0.25858483  0.10385025  1.0
  Ni  Ni760  1  0.34366667  0.59191817  0.10385025  1.0
  Ni  Ni761  1  0.34366667  0.92525150  0.10385025  1.0
  Ni  Ni762  1  0.67700000  0.25858483  0.10385025  1.0
  Ni  Ni763  1  0.67700000  0.59191817  0.10385025  1.0
  Ni  Ni764  1  0.67700000  0.92525150  0.10385025  1.0
  Ni  Ni765  1  0.17700000  0.04429912  0.03242168  1.0
  Ni  Ni766  1  0.17700000  0.37763245  0.03242168  1.0
  Ni  Ni767  1  0.17700000  0.71096579  0.03242168  1.0
  Ni  Ni768  1  0.51033333  0.04429912  0.03242168  1.0
  Ni  Ni769  1  0.51033333  0.37763245  0.03242168  1.0
  Ni  Ni770  1  0.51033333  0.71096579  0.03242168  1.0
  Ni  Ni771  1  0.84366667  0.04429912  0.03242168  1.0
  Ni  Ni772  1  0.84366667  0.37763245  0.03242168  1.0
  Ni  Ni773  1  0.84366667  0.71096579  0.03242168  1.0
  Ni  Ni774  1  0.32300000  0.16589036  0.03286254  1.0
  Ni  Ni775  1  0.32300000  0.49922369  0.03286254  1.0
  Ni  Ni776  1  0.32300000  0.83255702  0.03286254  1.0
  Ni  Ni777  1  0.65633333  0.16589036  0.03286254  1.0
  Ni  Ni778  1  0.65633333  0.49922369  0.03286254  1.0
  Ni  Ni779  1  0.65633333  0.83255702  0.03286254  1.0
  Ni  Ni780  1  0.98966667  0.16589036  0.03286254  1.0
  Ni  Ni781  1  0.98966667  0.49922369  0.03286254  1.0
  Ni  Ni782  1  0.98966667  0.83255702  0.03286254  1.0
  Ni  Ni783  1  0.15633333  0.04684274  0.10429111  1.0
  Ni  Ni784  1  0.15633333  0.38017607  0.10429111  1.0
  Ni  Ni785  1  0.15633333  0.71350940  0.10429111  1.0
  Ni  Ni786  1  0.48966667  0.04684274  0.10429111  1.0
  Ni  Ni787  1  0.48966667  0.38017607  0.10429111  1.0
  Ni  Ni788  1  0.48966667  0.71350940  0.10429111  1.0
  Ni  Ni789  1  0.82300000  0.04684274  0.10429111  1.0
  Ni  Ni790  1  0.82300000  0.38017607  0.10429111  1.0
  Ni  Ni791  1  0.82300000  0.71350940  0.10429111  1.0
  Ni  Ni792  1  0.31137050  0.29117019  0.04826804  1.0
  Ni  Ni793  1  0.31137050  0.62450352  0.04826804  1.0
  Ni  Ni794  1  0.31137050  0.95783686  0.04826804  1.0
  Ni  Ni795  1  0.64470383  0.29117019  0.04826804  1.0
  Ni  Ni796  1  0.64470383  0.62450352  0.04826804  1.0
  Ni  Ni797  1  0.64470383  0.95783686  0.04826804  1.0
  Ni  Ni798  1  0.97803717  0.29117019  0.04826804  1.0
  Ni  Ni799  1  0.97803717  0.62450352  0.04826804  1.0
  Ni  Ni800  1  0.97803717  0.95783686  0.04826804  1.0
  Ni  Ni801  1  0.14470383  0.17212257  0.11969661  1.0
  Ni  Ni802  1  0.14470383  0.50545590  0.11969661  1.0
  Ni  Ni803  1  0.14470383  0.83878924  0.11969661  1.0
  Ni  Ni804  1  0.47803717  0.17212257  0.11969661  1.0
  Ni  Ni805  1  0.47803717  0.50545590  0.11969661  1.0
  Ni  Ni806  1  0.47803717  0.83878924  0.11969661  1.0
  Ni  Ni807  1  0.81137050  0.17212257  0.11969661  1.0
  Ni  Ni808  1  0.81137050  0.50545590  0.11969661  1.0
  Ni  Ni809  1  0.81137050  0.83878924  0.11969661  1.0
  Ni  Ni810  1  0.00000000  0.30747569  0.21121354  1.0
  Ni  Ni811  1  0.00000000  0.64080902  0.21121354  1.0
  Ni  Ni812  1  0.00000000  0.97414236  0.21121354  1.0
  Ni  Ni813  1  0.33333333  0.30747569  0.21121354  1.0
  Ni  Ni814  1  0.33333333  0.64080902  0.21121354  1.0
  Ni  Ni815  1  0.33333333  0.97414236  0.21121354  1.0
  Ni  Ni816  1  0.66666667  0.30747569  0.21121354  1.0
  Ni  Ni817  1  0.66666667  0.64080902  0.21121354  1.0
  Ni  Ni818  1  0.66666667  0.97414236  0.21121354  1.0
  Ni  Ni819  1  0.16666667  0.18842807  0.28264211  1.0
  Ni  Ni820  1  0.16666667  0.52176140  0.28264211  1.0
  Ni  Ni821  1  0.16666667  0.85509474  0.28264211  1.0
  Ni  Ni822  1  0.50000000  0.18842807  0.28264211  1.0
  Ni  Ni823  1  0.50000000  0.52176140  0.28264211  1.0
  Ni  Ni824  1  0.50000000  0.85509474  0.28264211  1.0
  Ni  Ni825  1  0.83333333  0.18842807  0.28264211  1.0
  Ni  Ni826  1  0.83333333  0.52176140  0.28264211  1.0
  Ni  Ni827  1  0.83333333  0.85509474  0.28264211  1.0
  Ni  Ni828  1  0.30992000  0.18686683  0.18644125  1.0
  Ni  Ni829  1  0.30992000  0.52020017  0.18644125  1.0
  Ni  Ni830  1  0.30992000  0.85353350  0.18644125  1.0
  Ni  Ni831  1  0.64325333  0.18686683  0.18644125  1.0
  Ni  Ni832  1  0.64325333  0.52020017  0.18644125  1.0
  Ni  Ni833  1  0.64325333  0.85353350  0.18644125  1.0
  Ni  Ni834  1  0.97658667  0.18686683  0.18644125  1.0
  Ni  Ni835  1  0.97658667  0.52020017  0.18644125  1.0
  Ni  Ni836  1  0.97658667  0.85353350  0.18644125  1.0
  Ni  Ni837  1  0.14325333  0.06781921  0.25786982  1.0
  Ni  Ni838  1  0.14325333  0.40115255  0.25786982  1.0
  Ni  Ni839  1  0.14325333  0.73448588  0.25786982  1.0
  Ni  Ni840  1  0.47658667  0.06781921  0.25786982  1.0
  Ni  Ni841  1  0.47658667  0.40115255  0.25786982  1.0
  Ni  Ni842  1  0.47658667  0.73448588  0.25786982  1.0
  Ni  Ni843  1  0.80992000  0.06781921  0.25786982  1.0
  Ni  Ni844  1  0.80992000  0.40115255  0.25786982  1.0
  Ni  Ni845  1  0.80992000  0.73448588  0.25786982  1.0
  Ni  Ni846  1  0.02341333  0.09475121  0.23598582  1.0
  Ni  Ni847  1  0.02341333  0.42808455  0.23598582  1.0
  Ni  Ni848  1  0.02341333  0.76141788  0.23598582  1.0
  Ni  Ni849  1  0.35674667  0.09475121  0.23598582  1.0
  Ni  Ni850  1  0.35674667  0.42808455  0.23598582  1.0
  Ni  Ni851  1  0.35674667  0.76141788  0.23598582  1.0
  Ni  Ni852  1  0.69008000  0.09475121  0.23598582  1.0
  Ni  Ni853  1  0.69008000  0.42808455  0.23598582  1.0
  Ni  Ni854  1  0.69008000  0.76141788  0.23598582  1.0
  Ni  Ni855  1  0.19008000  0.21379883  0.16455725  1.0
  Ni  Ni856  1  0.19008000  0.54713217  0.16455725  1.0
  Ni  Ni857  1  0.19008000  0.88046550  0.16455725  1.0
  Ni  Ni858  1  0.52341333  0.21379883  0.16455725  1.0
  Ni  Ni859  1  0.52341333  0.54713217  0.16455725  1.0
  Ni  Ni860  1  0.52341333  0.88046550  0.16455725  1.0
  Ni  Ni861  1  0.85674667  0.21379883  0.16455725  1.0
  Ni  Ni862  1  0.85674667  0.54713217  0.16455725  1.0
  Ni  Ni863  1  0.85674667  0.88046550  0.16455725  1.0
  Ni  Ni864  1  0.26042167  0.28278431  0.20620596  1.0
  Ni  Ni865  1  0.26042167  0.61611764  0.20620596  1.0
  Ni  Ni866  1  0.26042167  0.94945098  0.20620596  1.0
  Ni  Ni867  1  0.59375500  0.28278431  0.20620596  1.0
  Ni  Ni868  1  0.59375500  0.61611764  0.20620596  1.0
  Ni  Ni869  1  0.59375500  0.94945098  0.20620596  1.0
  Ni  Ni870  1  0.92708833  0.28278431  0.20620596  1.0
  Ni  Ni871  1  0.92708833  0.61611764  0.20620596  1.0
  Ni  Ni872  1  0.92708833  0.94945098  0.20620596  1.0
  Ni  Ni873  1  0.09375500  0.16373669  0.27763454  1.0
  Ni  Ni874  1  0.09375500  0.49707002  0.27763454  1.0
  Ni  Ni875  1  0.09375500  0.83040336  0.27763454  1.0
  Ni  Ni876  1  0.42708833  0.16373669  0.27763454  1.0
  Ni  Ni877  1  0.42708833  0.49707002  0.27763454  1.0
  Ni  Ni878  1  0.42708833  0.83040336  0.27763454  1.0
  Ni  Ni879  1  0.76042167  0.16373669  0.27763454  1.0
  Ni  Ni880  1  0.76042167  0.49707002  0.27763454  1.0
  Ni  Ni881  1  0.76042167  0.83040336  0.27763454  1.0
  Ni  Ni882  1  0.07291167  0.33216707  0.21622111  1.0
  Ni  Ni883  1  0.07291167  0.66550040  0.21622111  1.0
  Ni  Ni884  1  0.07291167  0.99883374  0.21622111  1.0
  Ni  Ni885  1  0.40624500  0.33216707  0.21622111  1.0
  Ni  Ni886  1  0.40624500  0.66550040  0.21622111  1.0
  Ni  Ni887  1  0.40624500  0.99883374  0.21622111  1.0
  Ni  Ni888  1  0.73957833  0.33216707  0.21622111  1.0
  Ni  Ni889  1  0.73957833  0.66550040  0.21622111  1.0
  Ni  Ni890  1  0.73957833  0.99883374  0.21622111  1.0
  Ni  Ni891  1  0.23957833  0.11788136  0.14479254  1.0
  Ni  Ni892  1  0.23957833  0.45121469  0.14479254  1.0
  Ni  Ni893  1  0.23957833  0.78454802  0.14479254  1.0
  Ni  Ni894  1  0.57291167  0.11788136  0.14479254  1.0
  Ni  Ni895  1  0.57291167  0.45121469  0.14479254  1.0
  Ni  Ni896  1  0.57291167  0.78454802  0.14479254  1.0
  Ni  Ni897  1  0.90624500  0.11788136  0.14479254  1.0
  Ni  Ni898  1  0.90624500  0.45121469  0.14479254  1.0
  Ni  Ni899  1  0.90624500  0.78454802  0.14479254  1.0
  Ni  Ni900  1  0.21601100  0.30391012  0.15258968  1.0
  Ni  Ni901  1  0.21601100  0.63724345  0.15258968  1.0
  Ni  Ni902  1  0.21601100  0.97057679  0.15258968  1.0
  Ni  Ni903  1  0.54934433  0.30391012  0.15258968  1.0
  Ni  Ni904  1  0.54934433  0.63724345  0.15258968  1.0
  Ni  Ni905  1  0.54934433  0.97057679  0.15258968  1.0
  Ni  Ni906  1  0.88267767  0.30391012  0.15258968  1.0
  Ni  Ni907  1  0.88267767  0.63724345  0.15258968  1.0
  Ni  Ni908  1  0.88267767  0.97057679  0.15258968  1.0
  Ni  Ni909  1  0.04934433  0.18486250  0.22401825  1.0
  Ni  Ni910  1  0.04934433  0.51819583  0.22401825  1.0
  Ni  Ni911  1  0.04934433  0.85152917  0.22401825  1.0
  Ni  Ni912  1  0.38267767  0.18486250  0.22401825  1.0
  Ni  Ni913  1  0.38267767  0.51819583  0.22401825  1.0
  Ni  Ni914  1  0.38267767  0.85152917  0.22401825  1.0
  Ni  Ni915  1  0.71601100  0.18486250  0.22401825  1.0
  Ni  Ni916  1  0.71601100  0.51819583  0.22401825  1.0
  Ni  Ni917  1  0.71601100  0.85152917  0.22401825  1.0
  Ni  Ni918  1  0.11732233  0.31104126  0.26983739  1.0
  Ni  Ni919  1  0.11732233  0.64437460  0.26983739  1.0
  Ni  Ni920  1  0.11732233  0.97770793  0.26983739  1.0
  Ni  Ni921  1  0.45065567  0.31104126  0.26983739  1.0
  Ni  Ni922  1  0.45065567  0.64437460  0.26983739  1.0
  Ni  Ni923  1  0.45065567  0.97770793  0.26983739  1.0
  Ni  Ni924  1  0.78398900  0.31104126  0.26983739  1.0
  Ni  Ni925  1  0.78398900  0.64437460  0.26983739  1.0
  Ni  Ni926  1  0.78398900  0.97770793  0.26983739  1.0
  Ni  Ni927  1  0.28398900  0.09675555  0.19840882  1.0
  Ni  Ni928  1  0.28398900  0.43008888  0.19840882  1.0
  Ni  Ni929  1  0.28398900  0.76342221  0.19840882  1.0
  Ni  Ni930  1  0.61732233  0.09675555  0.19840882  1.0
  Ni  Ni931  1  0.61732233  0.43008888  0.19840882  1.0
  Ni  Ni932  1  0.61732233  0.76342221  0.19840882  1.0
  Ni  Ni933  1  0.95065567  0.09675555  0.19840882  1.0
  Ni  Ni934  1  0.95065567  0.43008888  0.19840882  1.0
  Ni  Ni935  1  0.95065567  0.76342221  0.19840882  1.0
  Ni  Ni936  1  0.02196283  0.22854310  0.23130189  1.0
  Ni  Ni937  1  0.02196283  0.56187643  0.23130189  1.0
  Ni  Ni938  1  0.02196283  0.89520976  0.23130189  1.0
  Ni  Ni939  1  0.35529617  0.22854310  0.23130189  1.0
  Ni  Ni940  1  0.35529617  0.56187643  0.23130189  1.0
  Ni  Ni941  1  0.35529617  0.89520976  0.23130189  1.0
  Ni  Ni942  1  0.68862950  0.22854310  0.23130189  1.0
  Ni  Ni943  1  0.68862950  0.56187643  0.23130189  1.0
  Ni  Ni944  1  0.68862950  0.89520976  0.23130189  1.0
  Ni  Ni945  1  0.18862950  0.01425738  0.15987332  1.0
  Ni  Ni946  1  0.18862950  0.34759071  0.15987332  1.0
  Ni  Ni947  1  0.18862950  0.68092405  0.15987332  1.0
  Ni  Ni948  1  0.52196283  0.01425738  0.15987332  1.0
  Ni  Ni949  1  0.52196283  0.34759071  0.15987332  1.0
  Ni  Ni950  1  0.52196283  0.68092405  0.15987332  1.0
  Ni  Ni951  1  0.85529617  0.01425738  0.15987332  1.0
  Ni  Ni952  1  0.85529617  0.34759071  0.15987332  1.0
  Ni  Ni953  1  0.85529617  0.68092405  0.15987332  1.0
  Ni  Ni954  1  0.20065233  0.30735098  0.23509996  1.0
  Ni  Ni955  1  0.20065233  0.64068431  0.23509996  1.0
  Ni  Ni956  1  0.20065233  0.97401764  0.23509996  1.0
  Ni  Ni957  1  0.53398567  0.30735098  0.23509996  1.0
  Ni  Ni958  1  0.53398567  0.64068431  0.23509996  1.0
  Ni  Ni959  1  0.53398567  0.97401764  0.23509996  1.0
  Ni  Ni960  1  0.86731900  0.30735098  0.23509996  1.0
  Ni  Ni961  1  0.86731900  0.64068431  0.23509996  1.0
  Ni  Ni962  1  0.86731900  0.97401764  0.23509996  1.0
  Ni  Ni963  1  0.03398567  0.09306526  0.16367139  1.0
  Ni  Ni964  1  0.03398567  0.42639860  0.16367139  1.0
  Ni  Ni965  1  0.03398567  0.75973193  0.16367139  1.0
  Ni  Ni966  1  0.36731900  0.09306526  0.16367139  1.0
  Ni  Ni967  1  0.36731900  0.42639860  0.16367139  1.0
  Ni  Ni968  1  0.36731900  0.75973193  0.16367139  1.0
  Ni  Ni969  1  0.70065233  0.09306526  0.16367139  1.0
  Ni  Ni970  1  0.70065233  0.42639860  0.16367139  1.0
  Ni  Ni971  1  0.70065233  0.75973193  0.16367139  1.0
  Ni  Ni972  1  0.13268100  0.30760040  0.18732711  1.0
  Ni  Ni973  1  0.13268100  0.64093374  0.18732711  1.0
  Ni  Ni974  1  0.13268100  0.97426707  0.18732711  1.0
  Ni  Ni975  1  0.46601433  0.30760040  0.18732711  1.0
  Ni  Ni976  1  0.46601433  0.64093374  0.18732711  1.0
  Ni  Ni977  1  0.46601433  0.97426707  0.18732711  1.0
  Ni  Ni978  1  0.79934767  0.30760040  0.18732711  1.0
  Ni  Ni979  1  0.79934767  0.64093374  0.18732711  1.0
  Ni  Ni980  1  0.79934767  0.97426707  0.18732711  1.0
  Ni  Ni981  1  0.29934767  0.18855279  0.25875568  1.0
  Ni  Ni982  1  0.29934767  0.52188612  0.25875568  1.0
  Ni  Ni983  1  0.29934767  0.85521945  0.25875568  1.0
  Ni  Ni984  1  0.63268100  0.18855279  0.25875568  1.0
  Ni  Ni985  1  0.63268100  0.52188612  0.25875568  1.0
  Ni  Ni986  1  0.63268100  0.85521945  0.25875568  1.0
  Ni  Ni987  1  0.96601433  0.18855279  0.25875568  1.0
  Ni  Ni988  1  0.96601433  0.52188612  0.25875568  1.0
  Ni  Ni989  1  0.96601433  0.85521945  0.25875568  1.0
  Ni  Ni990  1  0.23829783  0.01808971  0.28150532  1.0
  Ni  Ni991  1  0.23829783  0.35142305  0.28150532  1.0
  Ni  Ni992  1  0.23829783  0.68475638  0.28150532  1.0
  Ni  Ni993  1  0.57163117  0.01808971  0.28150532  1.0
  Ni  Ni994  1  0.57163117  0.35142305  0.28150532  1.0
  Ni  Ni995  1  0.57163117  0.68475638  0.28150532  1.0
  Ni  Ni996  1  0.90496450  0.01808971  0.28150532  1.0
  Ni  Ni997  1  0.90496450  0.35142305  0.28150532  1.0
  Ni  Ni998  1  0.90496450  0.68475638  0.28150532  1.0
  Ni  Ni999  1  0.07163117  0.13713733  0.21007675  1.0
  Ni  Ni1000  1  0.07163117  0.47047067  0.21007675  1.0
  Ni  Ni1001  1  0.07163117  0.80380400  0.21007675  1.0
  Ni  Ni1002  1  0.40496450  0.13713733  0.21007675  1.0
  Ni  Ni1003  1  0.40496450  0.47047067  0.21007675  1.0
  Ni  Ni1004  1  0.40496450  0.80380400  0.21007675  1.0
  Ni  Ni1005  1  0.73829783  0.13713733  0.21007675  1.0
  Ni  Ni1006  1  0.73829783  0.47047067  0.21007675  1.0
  Ni  Ni1007  1  0.73829783  0.80380400  0.21007675  1.0
  Ni  Ni1008  1  0.09503550  0.02543310  0.28377889  1.0
  Ni  Ni1009  1  0.09503550  0.35876643  0.28377889  1.0
  Ni  Ni1010  1  0.09503550  0.69209976  0.28377889  1.0
  Ni  Ni1011  1  0.42836883  0.02543310  0.28377889  1.0
  Ni  Ni1012  1  0.42836883  0.35876643  0.28377889  1.0
  Ni  Ni1013  1  0.42836883  0.69209976  0.28377889  1.0
  Ni  Ni1014  1  0.76170217  0.02543310  0.28377889  1.0
  Ni  Ni1015  1  0.76170217  0.35876643  0.28377889  1.0
  Ni  Ni1016  1  0.76170217  0.69209976  0.28377889  1.0
  Ni  Ni1017  1  0.26170217  0.14448071  0.21235032  1.0
  Ni  Ni1018  1  0.26170217  0.47781405  0.21235032  1.0
  Ni  Ni1019  1  0.26170217  0.81114738  0.21235032  1.0
  Ni  Ni1020  1  0.59503550  0.14448071  0.21235032  1.0
  Ni  Ni1021  1  0.59503550  0.47781405  0.21235032  1.0
  Ni  Ni1022  1  0.59503550  0.81114738  0.21235032  1.0
  Ni  Ni1023  1  0.92836883  0.14448071  0.21235032  1.0
  Ni  Ni1024  1  0.92836883  0.47781405  0.21235032  1.0
  Ni  Ni1025  1  0.92836883  0.81114738  0.21235032  1.0
  Ni  Ni1026  1  0.28233050  0.31304771  0.27171832  1.0
  Ni  Ni1027  1  0.28233050  0.64638105  0.27171832  1.0
  Ni  Ni1028  1  0.28233050  0.97971438  0.27171832  1.0
  Ni  Ni1029  1  0.61566383  0.31304771  0.27171832  1.0
  Ni  Ni1030  1  0.61566383  0.64638105  0.27171832  1.0
  Ni  Ni1031  1  0.61566383  0.97971438  0.27171832  1.0
  Ni  Ni1032  1  0.94899717  0.31304771  0.27171832  1.0
  Ni  Ni1033  1  0.94899717  0.64638105  0.27171832  1.0
  Ni  Ni1034  1  0.94899717  0.97971438  0.27171832  1.0
  Ni  Ni1035  1  0.11566383  0.09876200  0.20028975  1.0
  Ni  Ni1036  1  0.11566383  0.43209533  0.20028975  1.0
  Ni  Ni1037  1  0.11566383  0.76542867  0.20028975  1.0
  Ni  Ni1038  1  0.44899717  0.09876200  0.20028975  1.0
  Ni  Ni1039  1  0.44899717  0.43209533  0.20028975  1.0
  Ni  Ni1040  1  0.44899717  0.76542867  0.20028975  1.0
  Ni  Ni1041  1  0.78233050  0.09876200  0.20028975  1.0
  Ni  Ni1042  1  0.78233050  0.43209533  0.20028975  1.0
  Ni  Ni1043  1  0.78233050  0.76542867  0.20028975  1.0
  Ni  Ni1044  1  0.05100283  0.30190367  0.15070875  1.0
  Ni  Ni1045  1  0.05100283  0.63523700  0.15070875  1.0
  Ni  Ni1046  1  0.05100283  0.96857033  0.15070875  1.0
  Ni  Ni1047  1  0.38433617  0.30190367  0.15070875  1.0
  Ni  Ni1048  1  0.38433617  0.63523700  0.15070875  1.0
  Ni  Ni1049  1  0.38433617  0.96857033  0.15070875  1.0
  Ni  Ni1050  1  0.71766950  0.30190367  0.15070875  1.0
  Ni  Ni1051  1  0.71766950  0.63523700  0.15070875  1.0
  Ni  Ni1052  1  0.71766950  0.96857033  0.15070875  1.0
  Ni  Ni1053  1  0.21766950  0.18285605  0.22213732  1.0
  Ni  Ni1054  1  0.21766950  0.51618938  0.22213732  1.0
  Ni  Ni1055  1  0.21766950  0.84952271  0.22213732  1.0
  Ni  Ni1056  1  0.55100283  0.18285605  0.22213732  1.0
  Ni  Ni1057  1  0.55100283  0.51618938  0.22213732  1.0
  Ni  Ni1058  1  0.55100283  0.84952271  0.22213732  1.0
  Ni  Ni1059  1  0.88433617  0.18285605  0.22213732  1.0
  Ni  Ni1060  1  0.88433617  0.51618938  0.22213732  1.0
  Ni  Ni1061  1  0.88433617  0.84952271  0.22213732  1.0
  Ni  Ni1062  1  0.31854383  0.26990943  0.25348189  1.0
  Ni  Ni1063  1  0.31854383  0.60324276  0.25348189  1.0
  Ni  Ni1064  1  0.31854383  0.93657610  0.25348189  1.0
  Ni  Ni1065  1  0.65187717  0.26990943  0.25348189  1.0
  Ni  Ni1066  1  0.65187717  0.60324276  0.25348189  1.0
  Ni  Ni1067  1  0.65187717  0.93657610  0.25348189  1.0
  Ni  Ni1068  1  0.98521050  0.26990943  0.25348189  1.0
  Ni  Ni1069  1  0.98521050  0.60324276  0.25348189  1.0
  Ni  Ni1070  1  0.98521050  0.93657610  0.25348189  1.0
  Ni  Ni1071  1  0.15187717  0.05562371  0.18205332  1.0
  Ni  Ni1072  1  0.15187717  0.38895705  0.18205332  1.0
  Ni  Ni1073  1  0.15187717  0.72229038  0.18205332  1.0
  Ni  Ni1074  1  0.48521050  0.05562371  0.18205332  1.0
  Ni  Ni1075  1  0.48521050  0.38895705  0.18205332  1.0
  Ni  Ni1076  1  0.48521050  0.72229038  0.18205332  1.0
  Ni  Ni1077  1  0.81854383  0.05562371  0.18205332  1.0
  Ni  Ni1078  1  0.81854383  0.38895705  0.18205332  1.0
  Ni  Ni1079  1  0.81854383  0.72229038  0.18205332  1.0
  Ni  Ni1080  1  0.01478950  0.01170862  0.16894518  1.0
  Ni  Ni1081  1  0.01478950  0.34504195  0.16894518  1.0
  Ni  Ni1082  1  0.01478950  0.67837529  0.16894518  1.0
  Ni  Ni1083  1  0.34812283  0.01170862  0.16894518  1.0
  Ni  Ni1084  1  0.34812283  0.34504195  0.16894518  1.0
  Ni  Ni1085  1  0.34812283  0.67837529  0.16894518  1.0
  Ni  Ni1086  1  0.68145617  0.01170862  0.16894518  1.0
  Ni  Ni1087  1  0.68145617  0.34504195  0.16894518  1.0
  Ni  Ni1088  1  0.68145617  0.67837529  0.16894518  1.0
  Ni  Ni1089  1  0.18145617  0.22599433  0.24037375  1.0
  Ni  Ni1090  1  0.18145617  0.55932767  0.24037375  1.0
  Ni  Ni1091  1  0.18145617  0.89266100  0.24037375  1.0
  Ni  Ni1092  1  0.51478950  0.22599433  0.24037375  1.0
  Ni  Ni1093  1  0.51478950  0.55932767  0.24037375  1.0
  Ni  Ni1094  1  0.51478950  0.89266100  0.24037375  1.0
  Ni  Ni1095  1  0.84812283  0.22599433  0.24037375  1.0
  Ni  Ni1096  1  0.84812283  0.55932767  0.24037375  1.0
  Ni  Ni1097  1  0.84812283  0.89266100  0.24037375  1.0
  Ni  Ni1098  1  0.06032750  0.17042995  0.15081518  1.0
  Ni  Ni1099  1  0.06032750  0.50376329  0.15081518  1.0
  Ni  Ni1100  1  0.06032750  0.83709662  0.15081518  1.0
  Ni  Ni1101  1  0.39366083  0.17042995  0.15081518  1.0
  Ni  Ni1102  1  0.39366083  0.50376329  0.15081518  1.0
  Ni  Ni1103  1  0.39366083  0.83709662  0.15081518  1.0
  Ni  Ni1104  1  0.72699417  0.17042995  0.15081518  1.0
  Ni  Ni1105  1  0.72699417  0.50376329  0.15081518  1.0
  Ni  Ni1106  1  0.72699417  0.83709662  0.15081518  1.0
  Ni  Ni1107  1  0.22699417  0.05138233  0.22224375  1.0
  Ni  Ni1108  1  0.22699417  0.38471567  0.22224375  1.0
  Ni  Ni1109  1  0.22699417  0.71804900  0.22224375  1.0
  Ni  Ni1110  1  0.56032750  0.05138233  0.22224375  1.0
  Ni  Ni1111  1  0.56032750  0.38471567  0.22224375  1.0
  Ni  Ni1112  1  0.56032750  0.71804900  0.22224375  1.0
  Ni  Ni1113  1  0.89366083  0.05138233  0.22224375  1.0
  Ni  Ni1114  1  0.89366083  0.38471567  0.22224375  1.0
  Ni  Ni1115  1  0.89366083  0.71804900  0.22224375  1.0
  Ni  Ni1116  1  0.27300583  0.11118810  0.27161189  1.0
  Ni  Ni1117  1  0.27300583  0.44452143  0.27161189  1.0
  Ni  Ni1118  1  0.27300583  0.77785476  0.27161189  1.0
  Ni  Ni1119  1  0.60633917  0.11118810  0.27161189  1.0
  Ni  Ni1120  1  0.60633917  0.44452143  0.27161189  1.0
  Ni  Ni1121  1  0.60633917  0.77785476  0.27161189  1.0
  Ni  Ni1122  1  0.93967250  0.11118810  0.27161189  1.0
  Ni  Ni1123  1  0.93967250  0.44452143  0.27161189  1.0
  Ni  Ni1124  1  0.93967250  0.77785476  0.27161189  1.0
  Ni  Ni1125  1  0.10633917  0.23023571  0.20018332  1.0
  Ni  Ni1126  1  0.10633917  0.56356905  0.20018332  1.0
  Ni  Ni1127  1  0.10633917  0.89690238  0.20018332  1.0
  Ni  Ni1128  1  0.43967250  0.23023571  0.20018332  1.0
  Ni  Ni1129  1  0.43967250  0.56356905  0.20018332  1.0
  Ni  Ni1130  1  0.43967250  0.89690238  0.20018332  1.0
  Ni  Ni1131  1  0.77300583  0.23023571  0.20018332  1.0
  Ni  Ni1132  1  0.77300583  0.56356905  0.20018332  1.0
  Ni  Ni1133  1  0.77300583  0.89690238  0.20018332  1.0
  Ni  Ni1134  1  0.01033333  0.02048960  0.24670739  1.0
  Ni  Ni1135  1  0.01033333  0.35382293  0.24670739  1.0
  Ni  Ni1136  1  0.01033333  0.68715626  0.24670739  1.0
  Ni  Ni1137  1  0.34366667  0.02048960  0.24670739  1.0
  Ni  Ni1138  1  0.34366667  0.35382293  0.24670739  1.0
  Ni  Ni1139  1  0.34366667  0.68715626  0.24670739  1.0
  Ni  Ni1140  1  0.67700000  0.02048960  0.24670739  1.0
  Ni  Ni1141  1  0.67700000  0.35382293  0.24670739  1.0
  Ni  Ni1142  1  0.67700000  0.68715626  0.24670739  1.0
  Ni  Ni1143  1  0.17700000  0.13953721  0.17527882  1.0
  Ni  Ni1144  1  0.17700000  0.47287055  0.17527882  1.0
  Ni  Ni1145  1  0.17700000  0.80620388  0.17527882  1.0
  Ni  Ni1146  1  0.51033333  0.13953721  0.17527882  1.0
  Ni  Ni1147  1  0.51033333  0.47287055  0.17527882  1.0
  Ni  Ni1148  1  0.51033333  0.80620388  0.17527882  1.0
  Ni  Ni1149  1  0.84366667  0.13953721  0.17527882  1.0
  Ni  Ni1150  1  0.84366667  0.47287055  0.17527882  1.0
  Ni  Ni1151  1  0.84366667  0.80620388  0.17527882  1.0
  Ni  Ni1152  1  0.32300000  0.26112845  0.17571968  1.0
  Ni  Ni1153  1  0.32300000  0.59446179  0.17571968  1.0
  Ni  Ni1154  1  0.32300000  0.92779512  0.17571968  1.0
  Ni  Ni1155  1  0.65633333  0.26112845  0.17571968  1.0
  Ni  Ni1156  1  0.65633333  0.59446179  0.17571968  1.0
  Ni  Ni1157  1  0.65633333  0.92779512  0.17571968  1.0
  Ni  Ni1158  1  0.98966667  0.26112845  0.17571968  1.0
  Ni  Ni1159  1  0.98966667  0.59446179  0.17571968  1.0
  Ni  Ni1160  1  0.98966667  0.92779512  0.17571968  1.0
  Ni  Ni1161  1  0.15633333  0.14208083  0.24714825  1.0
  Ni  Ni1162  1  0.15633333  0.47541417  0.24714825  1.0
  Ni  Ni1163  1  0.15633333  0.80874750  0.24714825  1.0
  Ni  Ni1164  1  0.48966667  0.14208083  0.24714825  1.0
  Ni  Ni1165  1  0.48966667  0.47541417  0.24714825  1.0
  Ni  Ni1166  1  0.48966667  0.80874750  0.24714825  1.0
  Ni  Ni1167  1  0.82300000  0.14208083  0.24714825  1.0
  Ni  Ni1168  1  0.82300000  0.47541417  0.24714825  1.0
  Ni  Ni1169  1  0.82300000  0.80874750  0.24714825  1.0
  Ni  Ni1170  1  0.31137050  0.05307495  0.19112518  1.0
  Ni  Ni1171  1  0.31137050  0.38640829  0.19112518  1.0
  Ni  Ni1172  1  0.31137050  0.71974162  0.19112518  1.0
  Ni  Ni1173  1  0.64470383  0.05307495  0.19112518  1.0
  Ni  Ni1174  1  0.64470383  0.38640829  0.19112518  1.0
  Ni  Ni1175  1  0.64470383  0.71974162  0.19112518  1.0
  Ni  Ni1176  1  0.97803717  0.05307495  0.19112518  1.0
  Ni  Ni1177  1  0.97803717  0.38640829  0.19112518  1.0
  Ni  Ni1178  1  0.97803717  0.71974162  0.19112518  1.0
  Ni  Ni1179  1  0.14470383  0.26736067  0.26255375  1.0
  Ni  Ni1180  1  0.14470383  0.60069400  0.26255375  1.0
  Ni  Ni1181  1  0.14470383  0.93402733  0.26255375  1.0
  Ni  Ni1182  1  0.47803717  0.26736067  0.26255375  1.0
  Ni  Ni1183  1  0.47803717  0.60069400  0.26255375  1.0
  Ni  Ni1184  1  0.47803717  0.93402733  0.26255375  1.0
  Ni  Ni1185  1  0.81137050  0.26736067  0.26255375  1.0
  Ni  Ni1186  1  0.81137050  0.60069400  0.26255375  1.0
  Ni  Ni1187  1  0.81137050  0.93402733  0.26255375  1.0
  Ni  Ni1188  1  0.33333333  0.06938045  0.35407068  1.0
  Ni  Ni1189  1  0.33333333  0.40271379  0.35407068  1.0
  Ni  Ni1190  1  0.33333333  0.73604712  0.35407068  1.0
  Ni  Ni1191  1  0.66666667  0.06938045  0.35407068  1.0
  Ni  Ni1192  1  0.66666667  0.40271379  0.35407068  1.0
  Ni  Ni1193  1  0.66666667  0.73604712  0.35407068  1.0
  Ni  Ni1194  1  1.00000000  0.06938045  0.35407068  1.0
  Ni  Ni1195  1  1.00000000  0.40271379  0.35407068  1.0
  Ni  Ni1196  1  0.00000000  0.73604712  0.35407068  1.0
  Ni  Ni1197  1  0.16666667  0.28366617  0.42549925  1.0
  Ni  Ni1198  1  0.16666667  0.61699950  0.42549925  1.0
  Ni  Ni1199  1  0.16666667  0.95033283  0.42549925  1.0
  Ni  Ni1200  1  0.50000000  0.28366617  0.42549925  1.0
  Ni  Ni1201  1  0.50000000  0.61699950  0.42549925  1.0
  Ni  Ni1202  1  0.50000000  0.95033283  0.42549925  1.0
  Ni  Ni1203  1  0.83333333  0.28366617  0.42549925  1.0
  Ni  Ni1204  1  0.83333333  0.61699950  0.42549925  1.0
  Ni  Ni1205  1  0.83333333  0.95033283  0.42549925  1.0
  Ni  Ni1206  1  0.30992000  0.28210493  0.32929839  1.0
  Ni  Ni1207  1  0.30992000  0.61543826  0.32929839  1.0
  Ni  Ni1208  1  0.30992000  0.94877160  0.32929839  1.0
  Ni  Ni1209  1  0.64325333  0.28210493  0.32929839  1.0
  Ni  Ni1210  1  0.64325333  0.61543826  0.32929839  1.0
  Ni  Ni1211  1  0.64325333  0.94877160  0.32929839  1.0
  Ni  Ni1212  1  0.97658667  0.28210493  0.32929839  1.0
  Ni  Ni1213  1  0.97658667  0.61543826  0.32929839  1.0
  Ni  Ni1214  1  0.97658667  0.94877160  0.32929839  1.0
  Ni  Ni1215  1  0.14325333  0.16305731  0.40072696  1.0
  Ni  Ni1216  1  0.14325333  0.49639064  0.40072696  1.0
  Ni  Ni1217  1  0.14325333  0.82972398  0.40072696  1.0
  Ni  Ni1218  1  0.47658667  0.16305731  0.40072696  1.0
  Ni  Ni1219  1  0.47658667  0.49639064  0.40072696  1.0
  Ni  Ni1220  1  0.47658667  0.82972398  0.40072696  1.0
  Ni  Ni1221  1  0.80992000  0.16305731  0.40072696  1.0
  Ni  Ni1222  1  0.80992000  0.49639064  0.40072696  1.0
  Ni  Ni1223  1  0.80992000  0.82972398  0.40072696  1.0
  Ni  Ni1224  1  0.02341333  0.18998931  0.37884296  1.0
  Ni  Ni1225  1  0.02341333  0.52332264  0.37884296  1.0
  Ni  Ni1226  1  0.02341333  0.85665598  0.37884296  1.0
  Ni  Ni1227  1  0.35674667  0.18998931  0.37884296  1.0
  Ni  Ni1228  1  0.35674667  0.52332264  0.37884296  1.0
  Ni  Ni1229  1  0.35674667  0.85665598  0.37884296  1.0
  Ni  Ni1230  1  0.69008000  0.18998931  0.37884296  1.0
  Ni  Ni1231  1  0.69008000  0.52332264  0.37884296  1.0
  Ni  Ni1232  1  0.69008000  0.85665598  0.37884296  1.0
  Ni  Ni1233  1  0.19008000  0.30903693  0.30741439  1.0
  Ni  Ni1234  1  0.19008000  0.64237026  0.30741439  1.0
  Ni  Ni1235  1  0.19008000  0.97570360  0.30741439  1.0
  Ni  Ni1236  1  0.52341333  0.30903693  0.30741439  1.0
  Ni  Ni1237  1  0.52341333  0.64237026  0.30741439  1.0
  Ni  Ni1238  1  0.52341333  0.97570360  0.30741439  1.0
  Ni  Ni1239  1  0.85674667  0.30903693  0.30741439  1.0
  Ni  Ni1240  1  0.85674667  0.64237026  0.30741439  1.0
  Ni  Ni1241  1  0.85674667  0.97570360  0.30741439  1.0
  Ni  Ni1242  1  0.26042167  0.04468907  0.34906311  1.0
  Ni  Ni1243  1  0.26042167  0.37802240  0.34906311  1.0
  Ni  Ni1244  1  0.26042167  0.71135574  0.34906311  1.0
  Ni  Ni1245  1  0.59375500  0.04468907  0.34906311  1.0
  Ni  Ni1246  1  0.59375500  0.37802240  0.34906311  1.0
  Ni  Ni1247  1  0.59375500  0.71135574  0.34906311  1.0
  Ni  Ni1248  1  0.92708833  0.04468907  0.34906311  1.0
  Ni  Ni1249  1  0.92708833  0.37802240  0.34906311  1.0
  Ni  Ni1250  1  0.92708833  0.71135574  0.34906311  1.0
  Ni  Ni1251  1  0.09375500  0.25897479  0.42049168  1.0
  Ni  Ni1252  1  0.09375500  0.59230812  0.42049168  1.0
  Ni  Ni1253  1  0.09375500  0.92564145  0.42049168  1.0
  Ni  Ni1254  1  0.42708833  0.25897479  0.42049168  1.0
  Ni  Ni1255  1  0.42708833  0.59230812  0.42049168  1.0
  Ni  Ni1256  1  0.42708833  0.92564145  0.42049168  1.0
  Ni  Ni1257  1  0.76042167  0.25897479  0.42049168  1.0
  Ni  Ni1258  1  0.76042167  0.59230812  0.42049168  1.0
  Ni  Ni1259  1  0.76042167  0.92564145  0.42049168  1.0
  Ni  Ni1260  1  0.07291167  0.09407183  0.35907825  1.0
  Ni  Ni1261  1  0.07291167  0.42740517  0.35907825  1.0
  Ni  Ni1262  1  0.07291167  0.76073850  0.35907825  1.0
  Ni  Ni1263  1  0.40624500  0.09407183  0.35907825  1.0
  Ni  Ni1264  1  0.40624500  0.42740517  0.35907825  1.0
  Ni  Ni1265  1  0.40624500  0.76073850  0.35907825  1.0
  Ni  Ni1266  1  0.73957833  0.09407183  0.35907825  1.0
  Ni  Ni1267  1  0.73957833  0.42740517  0.35907825  1.0
  Ni  Ni1268  1  0.73957833  0.76073850  0.35907825  1.0
  Ni  Ni1269  1  0.23957833  0.21311945  0.28764968  1.0
  Ni  Ni1270  1  0.23957833  0.54645279  0.28764968  1.0
  Ni  Ni1271  1  0.23957833  0.87978612  0.28764968  1.0
  Ni  Ni1272  1  0.57291167  0.21311945  0.28764968  1.0
  Ni  Ni1273  1  0.57291167  0.54645279  0.28764968  1.0
  Ni  Ni1274  1  0.57291167  0.87978612  0.28764968  1.0
  Ni  Ni1275  1  0.90624500  0.21311945  0.28764968  1.0
  Ni  Ni1276  1  0.90624500  0.54645279  0.28764968  1.0
  Ni  Ni1277  1  0.90624500  0.87978612  0.28764968  1.0
  Ni  Ni1278  1  0.21601100  0.06581488  0.29544682  1.0
  Ni  Ni1279  1  0.21601100  0.39914821  0.29544682  1.0
  Ni  Ni1280  1  0.21601100  0.73248155  0.29544682  1.0
  Ni  Ni1281  1  0.54934433  0.06581488  0.29544682  1.0
  Ni  Ni1282  1  0.54934433  0.39914821  0.29544682  1.0
  Ni  Ni1283  1  0.54934433  0.73248155  0.29544682  1.0
  Ni  Ni1284  1  0.88267767  0.06581488  0.29544682  1.0
  Ni  Ni1285  1  0.88267767  0.39914821  0.29544682  1.0
  Ni  Ni1286  1  0.88267767  0.73248155  0.29544682  1.0
  Ni  Ni1287  1  0.04934433  0.28010060  0.36687539  1.0
  Ni  Ni1288  1  0.04934433  0.61343393  0.36687539  1.0
  Ni  Ni1289  1  0.04934433  0.94676726  0.36687539  1.0
  Ni  Ni1290  1  0.38267767  0.28010060  0.36687539  1.0
  Ni  Ni1291  1  0.38267767  0.61343393  0.36687539  1.0
  Ni  Ni1292  1  0.38267767  0.94676726  0.36687539  1.0
  Ni  Ni1293  1  0.71601100  0.28010060  0.36687539  1.0
  Ni  Ni1294  1  0.71601100  0.61343393  0.36687539  1.0
  Ni  Ni1295  1  0.71601100  0.94676726  0.36687539  1.0
  Ni  Ni1296  1  0.11732233  0.07294602  0.41269454  1.0
  Ni  Ni1297  1  0.11732233  0.40627936  0.41269454  1.0
  Ni  Ni1298  1  0.11732233  0.73961269  0.41269454  1.0
  Ni  Ni1299  1  0.45065567  0.07294602  0.41269454  1.0
  Ni  Ni1300  1  0.45065567  0.40627936  0.41269454  1.0
  Ni  Ni1301  1  0.45065567  0.73961269  0.41269454  1.0
  Ni  Ni1302  1  0.78398900  0.07294602  0.41269454  1.0
  Ni  Ni1303  1  0.78398900  0.40627936  0.41269454  1.0
  Ni  Ni1304  1  0.78398900  0.73961269  0.41269454  1.0
  Ni  Ni1305  1  0.28398900  0.19199364  0.34126596  1.0
  Ni  Ni1306  1  0.28398900  0.52532698  0.34126596  1.0
  Ni  Ni1307  1  0.28398900  0.85866031  0.34126596  1.0
  Ni  Ni1308  1  0.61732233  0.19199364  0.34126596  1.0
  Ni  Ni1309  1  0.61732233  0.52532698  0.34126596  1.0
  Ni  Ni1310  1  0.61732233  0.85866031  0.34126596  1.0
  Ni  Ni1311  1  0.95065567  0.19199364  0.34126596  1.0
  Ni  Ni1312  1  0.95065567  0.52532698  0.34126596  1.0
  Ni  Ni1313  1  0.95065567  0.85866031  0.34126596  1.0
  Ni  Ni1314  1  0.02196283  0.32378119  0.37415904  1.0
  Ni  Ni1315  1  0.02196283  0.65711452  0.37415904  1.0
  Ni  Ni1316  1  0.02196283  0.99044786  0.37415904  1.0
  Ni  Ni1317  1  0.35529617  0.32378119  0.37415904  1.0
  Ni  Ni1318  1  0.35529617  0.65711452  0.37415904  1.0
  Ni  Ni1319  1  0.35529617  0.99044786  0.37415904  1.0
  Ni  Ni1320  1  0.68862950  0.32378119  0.37415904  1.0
  Ni  Ni1321  1  0.68862950  0.65711452  0.37415904  1.0
  Ni  Ni1322  1  0.68862950  0.99044786  0.37415904  1.0
  Ni  Ni1323  1  0.18862950  0.10949548  0.30273046  1.0
  Ni  Ni1324  1  0.18862950  0.44282881  0.30273046  1.0
  Ni  Ni1325  1  0.18862950  0.77616214  0.30273046  1.0
  Ni  Ni1326  1  0.52196283  0.10949548  0.30273046  1.0
  Ni  Ni1327  1  0.52196283  0.44282881  0.30273046  1.0
  Ni  Ni1328  1  0.52196283  0.77616214  0.30273046  1.0
  Ni  Ni1329  1  0.85529617  0.10949548  0.30273046  1.0
  Ni  Ni1330  1  0.85529617  0.44282881  0.30273046  1.0
  Ni  Ni1331  1  0.85529617  0.77616214  0.30273046  1.0
  Ni  Ni1332  1  0.20065233  0.06925574  0.37795711  1.0
  Ni  Ni1333  1  0.20065233  0.40258907  0.37795711  1.0
  Ni  Ni1334  1  0.20065233  0.73592240  0.37795711  1.0
  Ni  Ni1335  1  0.53398567  0.06925574  0.37795711  1.0
  Ni  Ni1336  1  0.53398567  0.40258907  0.37795711  1.0
  Ni  Ni1337  1  0.53398567  0.73592240  0.37795711  1.0
  Ni  Ni1338  1  0.86731900  0.06925574  0.37795711  1.0
  Ni  Ni1339  1  0.86731900  0.40258907  0.37795711  1.0
  Ni  Ni1340  1  0.86731900  0.73592240  0.37795711  1.0
  Ni  Ni1341  1  0.03398567  0.18830336  0.30652854  1.0
  Ni  Ni1342  1  0.03398567  0.52163669  0.30652854  1.0
  Ni  Ni1343  1  0.03398567  0.85497002  0.30652854  1.0
  Ni  Ni1344  1  0.36731900  0.18830336  0.30652854  1.0
  Ni  Ni1345  1  0.36731900  0.52163669  0.30652854  1.0
  Ni  Ni1346  1  0.36731900  0.85497002  0.30652854  1.0
  Ni  Ni1347  1  0.70065233  0.18830336  0.30652854  1.0
  Ni  Ni1348  1  0.70065233  0.52163669  0.30652854  1.0
  Ni  Ni1349  1  0.70065233  0.85497002  0.30652854  1.0
  Ni  Ni1350  1  0.13268100  0.06950517  0.33018425  1.0
  Ni  Ni1351  1  0.13268100  0.40283850  0.33018425  1.0
  Ni  Ni1352  1  0.13268100  0.73617183  0.33018425  1.0
  Ni  Ni1353  1  0.46601433  0.06950517  0.33018425  1.0
  Ni  Ni1354  1  0.46601433  0.40283850  0.33018425  1.0
  Ni  Ni1355  1  0.46601433  0.73617183  0.33018425  1.0
  Ni  Ni1356  1  0.79934767  0.06950517  0.33018425  1.0
  Ni  Ni1357  1  0.79934767  0.40283850  0.33018425  1.0
  Ni  Ni1358  1  0.79934767  0.73617183  0.33018425  1.0
  Ni  Ni1359  1  0.29934767  0.28379088  0.40161282  1.0
  Ni  Ni1360  1  0.29934767  0.61712421  0.40161282  1.0
  Ni  Ni1361  1  0.29934767  0.95045755  0.40161282  1.0
  Ni  Ni1362  1  0.63268100  0.28379088  0.40161282  1.0
  Ni  Ni1363  1  0.63268100  0.61712421  0.40161282  1.0
  Ni  Ni1364  1  0.63268100  0.95045755  0.40161282  1.0
  Ni  Ni1365  1  0.96601433  0.28379088  0.40161282  1.0
  Ni  Ni1366  1  0.96601433  0.61712421  0.40161282  1.0
  Ni  Ni1367  1  0.96601433  0.95045755  0.40161282  1.0
  Ni  Ni1368  1  0.23829783  0.11332781  0.42436246  1.0
  Ni  Ni1369  1  0.23829783  0.44666114  0.42436246  1.0
  Ni  Ni1370  1  0.23829783  0.77999448  0.42436246  1.0
  Ni  Ni1371  1  0.57163117  0.11332781  0.42436246  1.0
  Ni  Ni1372  1  0.57163117  0.44666114  0.42436246  1.0
  Ni  Ni1373  1  0.57163117  0.77999448  0.42436246  1.0
  Ni  Ni1374  1  0.90496450  0.11332781  0.42436246  1.0
  Ni  Ni1375  1  0.90496450  0.44666114  0.42436246  1.0
  Ni  Ni1376  1  0.90496450  0.77999448  0.42436246  1.0
  Ni  Ni1377  1  0.07163117  0.23237543  0.35293389  1.0
  Ni  Ni1378  1  0.07163117  0.56570876  0.35293389  1.0
  Ni  Ni1379  1  0.07163117  0.89904210  0.35293389  1.0
  Ni  Ni1380  1  0.40496450  0.23237543  0.35293389  1.0
  Ni  Ni1381  1  0.40496450  0.56570876  0.35293389  1.0
  Ni  Ni1382  1  0.40496450  0.89904210  0.35293389  1.0
  Ni  Ni1383  1  0.73829783  0.23237543  0.35293389  1.0
  Ni  Ni1384  1  0.73829783  0.56570876  0.35293389  1.0
  Ni  Ni1385  1  0.73829783  0.89904210  0.35293389  1.0
  Ni  Ni1386  1  0.09503550  0.12067119  0.42663604  1.0
  Ni  Ni1387  1  0.09503550  0.45400452  0.42663604  1.0
  Ni  Ni1388  1  0.09503550  0.78733786  0.42663604  1.0
  Ni  Ni1389  1  0.42836883  0.12067119  0.42663604  1.0
  Ni  Ni1390  1  0.42836883  0.45400452  0.42663604  1.0
  Ni  Ni1391  1  0.42836883  0.78733786  0.42663604  1.0
  Ni  Ni1392  1  0.76170217  0.12067119  0.42663604  1.0
  Ni  Ni1393  1  0.76170217  0.45400452  0.42663604  1.0
  Ni  Ni1394  1  0.76170217  0.78733786  0.42663604  1.0
  Ni  Ni1395  1  0.26170217  0.23971881  0.35520746  1.0
  Ni  Ni1396  1  0.26170217  0.57305214  0.35520746  1.0
  Ni  Ni1397  1  0.26170217  0.90638548  0.35520746  1.0
  Ni  Ni1398  1  0.59503550  0.23971881  0.35520746  1.0
  Ni  Ni1399  1  0.59503550  0.57305214  0.35520746  1.0
  Ni  Ni1400  1  0.59503550  0.90638548  0.35520746  1.0
  Ni  Ni1401  1  0.92836883  0.23971881  0.35520746  1.0
  Ni  Ni1402  1  0.92836883  0.57305214  0.35520746  1.0
  Ni  Ni1403  1  0.92836883  0.90638548  0.35520746  1.0
  Ni  Ni1404  1  0.28233050  0.07495248  0.41457546  1.0
  Ni  Ni1405  1  0.28233050  0.40828581  0.41457546  1.0
  Ni  Ni1406  1  0.28233050  0.74161914  0.41457546  1.0
  Ni  Ni1407  1  0.61566383  0.07495248  0.41457546  1.0
  Ni  Ni1408  1  0.61566383  0.40828581  0.41457546  1.0
  Ni  Ni1409  1  0.61566383  0.74161914  0.41457546  1.0
  Ni  Ni1410  1  0.94899717  0.07495248  0.41457546  1.0
  Ni  Ni1411  1  0.94899717  0.40828581  0.41457546  1.0
  Ni  Ni1412  1  0.94899717  0.74161914  0.41457546  1.0
  Ni  Ni1413  1  0.11566383  0.19400010  0.34314689  1.0
  Ni  Ni1414  1  0.11566383  0.52733343  0.34314689  1.0
  Ni  Ni1415  1  0.11566383  0.86066676  0.34314689  1.0
  Ni  Ni1416  1  0.44899717  0.19400010  0.34314689  1.0
  Ni  Ni1417  1  0.44899717  0.52733343  0.34314689  1.0
  Ni  Ni1418  1  0.44899717  0.86066676  0.34314689  1.0
  Ni  Ni1419  1  0.78233050  0.19400010  0.34314689  1.0
  Ni  Ni1420  1  0.78233050  0.52733343  0.34314689  1.0
  Ni  Ni1421  1  0.78233050  0.86066676  0.34314689  1.0
  Ni  Ni1422  1  0.05100283  0.06380843  0.29356589  1.0
  Ni  Ni1423  1  0.05100283  0.39714176  0.29356589  1.0
  Ni  Ni1424  1  0.05100283  0.73047510  0.29356589  1.0
  Ni  Ni1425  1  0.38433617  0.06380843  0.29356589  1.0
  Ni  Ni1426  1  0.38433617  0.39714176  0.29356589  1.0
  Ni  Ni1427  1  0.38433617  0.73047510  0.29356589  1.0
  Ni  Ni1428  1  0.71766950  0.06380843  0.29356589  1.0
  Ni  Ni1429  1  0.71766950  0.39714176  0.29356589  1.0
  Ni  Ni1430  1  0.71766950  0.73047510  0.29356589  1.0
  Ni  Ni1431  1  0.21766950  0.27809414  0.36499446  1.0
  Ni  Ni1432  1  0.21766950  0.61142748  0.36499446  1.0
  Ni  Ni1433  1  0.21766950  0.94476081  0.36499446  1.0
  Ni  Ni1434  1  0.55100283  0.27809414  0.36499446  1.0
  Ni  Ni1435  1  0.55100283  0.61142748  0.36499446  1.0
  Ni  Ni1436  1  0.55100283  0.94476081  0.36499446  1.0
  Ni  Ni1437  1  0.88433617  0.27809414  0.36499446  1.0
  Ni  Ni1438  1  0.88433617  0.61142748  0.36499446  1.0
  Ni  Ni1439  1  0.88433617  0.94476081  0.36499446  1.0
  Ni  Ni1440  1  0.31854383  0.03181419  0.39633904  1.0
  Ni  Ni1441  1  0.31854383  0.36514752  0.39633904  1.0
  Ni  Ni1442  1  0.31854383  0.69848086  0.39633904  1.0
  Ni  Ni1443  1  0.65187717  0.03181419  0.39633904  1.0
  Ni  Ni1444  1  0.65187717  0.36514752  0.39633904  1.0
  Ni  Ni1445  1  0.65187717  0.69848086  0.39633904  1.0
  Ni  Ni1446  1  0.98521050  0.03181419  0.39633904  1.0
  Ni  Ni1447  1  0.98521050  0.36514752  0.39633904  1.0
  Ni  Ni1448  1  0.98521050  0.69848086  0.39633904  1.0
  Ni  Ni1449  1  0.15187717  0.15086181  0.32491046  1.0
  Ni  Ni1450  1  0.15187717  0.48419514  0.32491046  1.0
  Ni  Ni1451  1  0.15187717  0.81752848  0.32491046  1.0
  Ni  Ni1452  1  0.48521050  0.15086181  0.32491046  1.0
  Ni  Ni1453  1  0.48521050  0.48419514  0.32491046  1.0
  Ni  Ni1454  1  0.48521050  0.81752848  0.32491046  1.0
  Ni  Ni1455  1  0.81854383  0.15086181  0.32491046  1.0
  Ni  Ni1456  1  0.81854383  0.48419514  0.32491046  1.0
  Ni  Ni1457  1  0.81854383  0.81752848  0.32491046  1.0
  Ni  Ni1458  1  0.01478950  0.10694671  0.31180232  1.0
  Ni  Ni1459  1  0.01478950  0.44028005  0.31180232  1.0
  Ni  Ni1460  1  0.01478950  0.77361338  0.31180232  1.0
  Ni  Ni1461  1  0.34812283  0.10694671  0.31180232  1.0
  Ni  Ni1462  1  0.34812283  0.44028005  0.31180232  1.0
  Ni  Ni1463  1  0.34812283  0.77361338  0.31180232  1.0
  Ni  Ni1464  1  0.68145617  0.10694671  0.31180232  1.0
  Ni  Ni1465  1  0.68145617  0.44028005  0.31180232  1.0
  Ni  Ni1466  1  0.68145617  0.77361338  0.31180232  1.0
  Ni  Ni1467  1  0.18145617  0.32123243  0.38323089  1.0
  Ni  Ni1468  1  0.18145617  0.65456576  0.38323089  1.0
  Ni  Ni1469  1  0.18145617  0.98789910  0.38323089  1.0
  Ni  Ni1470  1  0.51478950  0.32123243  0.38323089  1.0
  Ni  Ni1471  1  0.51478950  0.65456576  0.38323089  1.0
  Ni  Ni1472  1  0.51478950  0.98789910  0.38323089  1.0
  Ni  Ni1473  1  0.84812283  0.32123243  0.38323089  1.0
  Ni  Ni1474  1  0.84812283  0.65456576  0.38323089  1.0
  Ni  Ni1475  1  0.84812283  0.98789910  0.38323089  1.0
  Ni  Ni1476  1  0.06032750  0.26566805  0.29367232  1.0
  Ni  Ni1477  1  0.06032750  0.59900138  0.29367232  1.0
  Ni  Ni1478  1  0.06032750  0.93233471  0.29367232  1.0
  Ni  Ni1479  1  0.39366083  0.26566805  0.29367232  1.0
  Ni  Ni1480  1  0.39366083  0.59900138  0.29367232  1.0
  Ni  Ni1481  1  0.39366083  0.93233471  0.29367232  1.0
  Ni  Ni1482  1  0.72699417  0.26566805  0.29367232  1.0
  Ni  Ni1483  1  0.72699417  0.59900138  0.29367232  1.0
  Ni  Ni1484  1  0.72699417  0.93233471  0.29367232  1.0
  Ni  Ni1485  1  0.22699417  0.14662043  0.36510089  1.0
  Ni  Ni1486  1  0.22699417  0.47995376  0.36510089  1.0
  Ni  Ni1487  1  0.22699417  0.81328710  0.36510089  1.0
  Ni  Ni1488  1  0.56032750  0.14662043  0.36510089  1.0
  Ni  Ni1489  1  0.56032750  0.47995376  0.36510089  1.0
  Ni  Ni1490  1  0.56032750  0.81328710  0.36510089  1.0
  Ni  Ni1491  1  0.89366083  0.14662043  0.36510089  1.0
  Ni  Ni1492  1  0.89366083  0.47995376  0.36510089  1.0
  Ni  Ni1493  1  0.89366083  0.81328710  0.36510089  1.0
  Ni  Ni1494  1  0.27300583  0.20642619  0.41446904  1.0
  Ni  Ni1495  1  0.27300583  0.53975952  0.41446904  1.0
  Ni  Ni1496  1  0.27300583  0.87309286  0.41446904  1.0
  Ni  Ni1497  1  0.60633917  0.20642619  0.41446904  1.0
  Ni  Ni1498  1  0.60633917  0.53975952  0.41446904  1.0
  Ni  Ni1499  1  0.60633917  0.87309286  0.41446904  1.0
  Ni  Ni1500  1  0.93967250  0.20642619  0.41446904  1.0
  Ni  Ni1501  1  0.93967250  0.53975952  0.41446904  1.0
  Ni  Ni1502  1  0.93967250  0.87309286  0.41446904  1.0
  Ni  Ni1503  1  0.10633917  0.32547381  0.34304046  1.0
  Ni  Ni1504  1  0.10633917  0.65880714  0.34304046  1.0
  Ni  Ni1505  1  0.10633917  0.99214048  0.34304046  1.0
  Ni  Ni1506  1  0.43967250  0.32547381  0.34304046  1.0
  Ni  Ni1507  1  0.43967250  0.65880714  0.34304046  1.0
  Ni  Ni1508  1  0.43967250  0.99214048  0.34304046  1.0
  Ni  Ni1509  1  0.77300583  0.32547381  0.34304046  1.0
  Ni  Ni1510  1  0.77300583  0.65880714  0.34304046  1.0
  Ni  Ni1511  1  0.77300583  0.99214048  0.34304046  1.0
  Ni  Ni1512  1  0.01033333  0.11572769  0.38956454  1.0
  Ni  Ni1513  1  0.01033333  0.44906102  0.38956454  1.0
  Ni  Ni1514  1  0.01033333  0.78239436  0.38956454  1.0
  Ni  Ni1515  1  0.34366667  0.11572769  0.38956454  1.0
  Ni  Ni1516  1  0.34366667  0.44906102  0.38956454  1.0
  Ni  Ni1517  1  0.34366667  0.78239436  0.38956454  1.0
  Ni  Ni1518  1  0.67700000  0.11572769  0.38956454  1.0
  Ni  Ni1519  1  0.67700000  0.44906102  0.38956454  1.0
  Ni  Ni1520  1  0.67700000  0.78239436  0.38956454  1.0
  Ni  Ni1521  1  0.17700000  0.23477531  0.31813596  1.0
  Ni  Ni1522  1  0.17700000  0.56810864  0.31813596  1.0
  Ni  Ni1523  1  0.17700000  0.90144198  0.31813596  1.0
  Ni  Ni1524  1  0.51033333  0.23477531  0.31813596  1.0
  Ni  Ni1525  1  0.51033333  0.56810864  0.31813596  1.0
  Ni  Ni1526  1  0.51033333  0.90144198  0.31813596  1.0
  Ni  Ni1527  1  0.84366667  0.23477531  0.31813596  1.0
  Ni  Ni1528  1  0.84366667  0.56810864  0.31813596  1.0
  Ni  Ni1529  1  0.84366667  0.90144198  0.31813596  1.0
  Ni  Ni1530  1  0.32300000  0.02303321  0.31857682  1.0
  Ni  Ni1531  1  0.32300000  0.35636655  0.31857682  1.0
  Ni  Ni1532  1  0.32300000  0.68969988  0.31857682  1.0
  Ni  Ni1533  1  0.65633333  0.02303321  0.31857682  1.0
  Ni  Ni1534  1  0.65633333  0.35636655  0.31857682  1.0
  Ni  Ni1535  1  0.65633333  0.68969988  0.31857682  1.0
  Ni  Ni1536  1  0.98966667  0.02303321  0.31857682  1.0
  Ni  Ni1537  1  0.98966667  0.35636655  0.31857682  1.0
  Ni  Ni1538  1  0.98966667  0.68969988  0.31857682  1.0
  Ni  Ni1539  1  0.15633333  0.23731893  0.39000539  1.0
  Ni  Ni1540  1  0.15633333  0.57065226  0.39000539  1.0
  Ni  Ni1541  1  0.15633333  0.90398560  0.39000539  1.0
  Ni  Ni1542  1  0.48966667  0.23731893  0.39000539  1.0
  Ni  Ni1543  1  0.48966667  0.57065226  0.39000539  1.0
  Ni  Ni1544  1  0.48966667  0.90398560  0.39000539  1.0
  Ni  Ni1545  1  0.82300000  0.23731893  0.39000539  1.0
  Ni  Ni1546  1  0.82300000  0.57065226  0.39000539  1.0
  Ni  Ni1547  1  0.82300000  0.90398560  0.39000539  1.0
  Ni  Ni1548  1  0.31137050  0.14831305  0.33398232  1.0
  Ni  Ni1549  1  0.31137050  0.48164638  0.33398232  1.0
  Ni  Ni1550  1  0.31137050  0.81497971  0.33398232  1.0
  Ni  Ni1551  1  0.64470383  0.14831305  0.33398232  1.0
  Ni  Ni1552  1  0.64470383  0.48164638  0.33398232  1.0
  Ni  Ni1553  1  0.64470383  0.81497971  0.33398232  1.0
  Ni  Ni1554  1  0.97803717  0.14831305  0.33398232  1.0
  Ni  Ni1555  1  0.97803717  0.48164638  0.33398232  1.0
  Ni  Ni1556  1  0.97803717  0.81497971  0.33398232  1.0
  Ni  Ni1557  1  0.14470383  0.02926543  0.40541089  1.0
  Ni  Ni1558  1  0.14470383  0.36259876  0.40541089  1.0
  Ni  Ni1559  1  0.14470383  0.69593210  0.40541089  1.0
  Ni  Ni1560  1  0.47803717  0.02926543  0.40541089  1.0
  Ni  Ni1561  1  0.47803717  0.36259876  0.40541089  1.0
  Ni  Ni1562  1  0.47803717  0.69593210  0.40541089  1.0
  Ni  Ni1563  1  0.81137050  0.02926543  0.40541089  1.0
  Ni  Ni1564  1  0.81137050  0.36259876  0.40541089  1.0
  Ni  Ni1565  1  0.81137050  0.69593210  0.40541089  1.0
