# generated using pymatgen
data_Hf8Ni21
_symmetry_space_group_name_H-M   'P 1'
_cell_length_a   34.27755852
_cell_length_b   53.54262189
_cell_length_c   42.64081955
_cell_angle_alpha   138.19710428
_cell_angle_beta   112.85260256
_cell_angle_gamma   44.39508760
_symmetry_Int_Tables_number   1
_chemical_formula_structural   Hf8Ni21
_chemical_formula_sum   'Hf288 Ni756'
_cell_volume   34704.22014829
_cell_formula_units_Z   36
loop_
 _symmetry_equiv_pos_site_id
 _symmetry_equiv_pos_as_xyz
  1  'x, y, z'
loop_
 _atom_site_type_symbol
 _atom_site_label
 _atom_site_symmetry_multiplicity
 _atom_site_fract_x
 _atom_site_fract_y
 _atom_site_fract_z
 _atom_site_occupancy
  Hf  Hf0  1  0.02100633  0.11500250  0.17584390  1.0
  Hf  Hf1  1  0.02100633  0.44833583  0.17584390  1.0
  Hf  Hf2  1  0.02100633  0.78166917  0.17584390  1.0
  Hf  Hf3  1  0.35433967  0.11500250  0.17584390  1.0
  Hf  Hf4  1  0.35433967  0.44833583  0.17584390  1.0
  Hf  Hf5  1  0.35433967  0.78166917  0.17584390  1.0
  Hf  Hf6  1  0.68767300  0.11500250  0.17584390  1.0
  Hf  Hf7  1  0.68767300  0.44833583  0.17584390  1.0
  Hf  Hf8  1  0.68767300  0.78166917  0.17584390  1.0
  Hf  Hf9  1  0.02100633  0.28166917  0.07584390  1.0
  Hf  Hf10  1  0.02100633  0.61500250  0.07584390  1.0
  Hf  Hf11  1  0.02100633  0.94833583  0.07584390  1.0
  Hf  Hf12  1  0.35433967  0.28166917  0.07584390  1.0
  Hf  Hf13  1  0.35433967  0.61500250  0.07584390  1.0
  Hf  Hf14  1  0.35433967  0.94833583  0.07584390  1.0
  Hf  Hf15  1  0.68767300  0.28166917  0.07584390  1.0
  Hf  Hf16  1  0.68767300  0.61500250  0.07584390  1.0
  Hf  Hf17  1  0.68767300  0.94833583  0.07584390  1.0
  Hf  Hf18  1  0.31232700  0.21833083  0.02415610  1.0
  Hf  Hf19  1  0.31232700  0.55166417  0.02415610  1.0
  Hf  Hf20  1  0.31232700  0.88499750  0.02415610  1.0
  Hf  Hf21  1  0.64566033  0.21833083  0.02415610  1.0
  Hf  Hf22  1  0.64566033  0.55166417  0.02415610  1.0
  Hf  Hf23  1  0.64566033  0.88499750  0.02415610  1.0
  Hf  Hf24  1  0.97899367  0.21833083  0.02415610  1.0
  Hf  Hf25  1  0.97899367  0.55166417  0.02415610  1.0
  Hf  Hf26  1  0.97899367  0.88499750  0.02415610  1.0
  Hf  Hf27  1  0.31232700  0.05166417  0.12415610  1.0
  Hf  Hf28  1  0.31232700  0.38499750  0.12415610  1.0
  Hf  Hf29  1  0.31232700  0.71833083  0.12415610  1.0
  Hf  Hf30  1  0.64566033  0.05166417  0.12415610  1.0
  Hf  Hf31  1  0.64566033  0.38499750  0.12415610  1.0
  Hf  Hf32  1  0.64566033  0.71833083  0.12415610  1.0
  Hf  Hf33  1  0.97899367  0.05166417  0.12415610  1.0
  Hf  Hf34  1  0.97899367  0.38499750  0.12415610  1.0
  Hf  Hf35  1  0.97899367  0.71833083  0.12415610  1.0
  Hf  Hf36  1  0.17887633  0.00536383  0.05415650  1.0
  Hf  Hf37  1  0.17887633  0.33869717  0.05415650  1.0
  Hf  Hf38  1  0.17887633  0.67203050  0.05415650  1.0
  Hf  Hf39  1  0.51220967  0.00536383  0.05415650  1.0
  Hf  Hf40  1  0.51220967  0.33869717  0.05415650  1.0
  Hf  Hf41  1  0.51220967  0.67203050  0.05415650  1.0
  Hf  Hf42  1  0.84554300  0.00536383  0.05415650  1.0
  Hf  Hf43  1  0.84554300  0.33869717  0.05415650  1.0
  Hf  Hf44  1  0.84554300  0.67203050  0.05415650  1.0
  Hf  Hf45  1  0.17887633  0.17203050  0.15415650  1.0
  Hf  Hf46  1  0.17887633  0.50536383  0.15415650  1.0
  Hf  Hf47  1  0.17887633  0.83869717  0.15415650  1.0
  Hf  Hf48  1  0.51220967  0.17203050  0.15415650  1.0
  Hf  Hf49  1  0.51220967  0.50536383  0.15415650  1.0
  Hf  Hf50  1  0.51220967  0.83869717  0.15415650  1.0
  Hf  Hf51  1  0.84554300  0.17203050  0.15415650  1.0
  Hf  Hf52  1  0.84554300  0.50536383  0.15415650  1.0
  Hf  Hf53  1  0.84554300  0.83869717  0.15415650  1.0
  Hf  Hf54  1  0.15445700  0.32796950  0.14584350  1.0
  Hf  Hf55  1  0.15445700  0.66130283  0.14584350  1.0
  Hf  Hf56  1  0.15445700  0.99463617  0.14584350  1.0
  Hf  Hf57  1  0.48779033  0.32796950  0.14584350  1.0
  Hf  Hf58  1  0.48779033  0.66130283  0.14584350  1.0
  Hf  Hf59  1  0.48779033  0.99463617  0.14584350  1.0
  Hf  Hf60  1  0.82112367  0.32796950  0.14584350  1.0
  Hf  Hf61  1  0.82112367  0.66130283  0.14584350  1.0
  Hf  Hf62  1  0.82112367  0.99463617  0.14584350  1.0
  Hf  Hf63  1  0.15445700  0.16130283  0.04584350  1.0
  Hf  Hf64  1  0.15445700  0.49463617  0.04584350  1.0
  Hf  Hf65  1  0.15445700  0.82796950  0.04584350  1.0
  Hf  Hf66  1  0.48779033  0.16130283  0.04584350  1.0
  Hf  Hf67  1  0.48779033  0.49463617  0.04584350  1.0
  Hf  Hf68  1  0.48779033  0.82796950  0.04584350  1.0
  Hf  Hf69  1  0.82112367  0.16130283  0.04584350  1.0
  Hf  Hf70  1  0.82112367  0.49463617  0.04584350  1.0
  Hf  Hf71  1  0.82112367  0.82796950  0.04584350  1.0
  Hf  Hf72  1  0.19889433  0.05558967  0.19624880  1.0
  Hf  Hf73  1  0.19889433  0.38892300  0.19624880  1.0
  Hf  Hf74  1  0.19889433  0.72225633  0.19624880  1.0
  Hf  Hf75  1  0.53222767  0.05558967  0.19624880  1.0
  Hf  Hf76  1  0.53222767  0.38892300  0.19624880  1.0
  Hf  Hf77  1  0.53222767  0.72225633  0.19624880  1.0
  Hf  Hf78  1  0.86556100  0.05558967  0.19624880  1.0
  Hf  Hf79  1  0.86556100  0.38892300  0.19624880  1.0
  Hf  Hf80  1  0.86556100  0.72225633  0.19624880  1.0
  Hf  Hf81  1  0.19889433  0.22225633  0.09624880  1.0
  Hf  Hf82  1  0.19889433  0.55558967  0.09624880  1.0
  Hf  Hf83  1  0.19889433  0.88892300  0.09624880  1.0
  Hf  Hf84  1  0.53222767  0.22225633  0.09624880  1.0
  Hf  Hf85  1  0.53222767  0.55558967  0.09624880  1.0
  Hf  Hf86  1  0.53222767  0.88892300  0.09624880  1.0
  Hf  Hf87  1  0.86556100  0.22225633  0.09624880  1.0
  Hf  Hf88  1  0.86556100  0.55558967  0.09624880  1.0
  Hf  Hf89  1  0.86556100  0.88892300  0.09624880  1.0
  Hf  Hf90  1  0.13443900  0.27774367  0.00375120  1.0
  Hf  Hf91  1  0.13443900  0.61107700  0.00375120  1.0
  Hf  Hf92  1  0.13443900  0.94441033  0.00375120  1.0
  Hf  Hf93  1  0.46777233  0.27774367  0.00375120  1.0
  Hf  Hf94  1  0.46777233  0.61107700  0.00375120  1.0
  Hf  Hf95  1  0.46777233  0.94441033  0.00375120  1.0
  Hf  Hf96  1  0.80110567  0.27774367  0.00375120  1.0
  Hf  Hf97  1  0.80110567  0.61107700  0.00375120  1.0
  Hf  Hf98  1  0.80110567  0.94441033  0.00375120  1.0
  Hf  Hf99  1  0.13443900  0.11107700  0.10375120  1.0
  Hf  Hf100  1  0.13443900  0.44441033  0.10375120  1.0
  Hf  Hf101  1  0.13443900  0.77774367  0.10375120  1.0
  Hf  Hf102  1  0.46777233  0.11107700  0.10375120  1.0
  Hf  Hf103  1  0.46777233  0.44441033  0.10375120  1.0
  Hf  Hf104  1  0.46777233  0.77774367  0.10375120  1.0
  Hf  Hf105  1  0.80110567  0.11107700  0.10375120  1.0
  Hf  Hf106  1  0.80110567  0.44441033  0.10375120  1.0
  Hf  Hf107  1  0.80110567  0.77774367  0.10375120  1.0
  Hf  Hf108  1  0.31258967  0.30240383  0.00289770  1.0
  Hf  Hf109  1  0.31258967  0.63573717  0.00289770  1.0
  Hf  Hf110  1  0.31258967  0.96907050  0.00289770  1.0
  Hf  Hf111  1  0.64592300  0.30240383  0.00289770  1.0
  Hf  Hf112  1  0.64592300  0.63573717  0.00289770  1.0
  Hf  Hf113  1  0.64592300  0.96907050  0.00289770  1.0
  Hf  Hf114  1  0.97925633  0.30240383  0.00289770  1.0
  Hf  Hf115  1  0.97925633  0.63573717  0.00289770  1.0
  Hf  Hf116  1  0.97925633  0.96907050  0.00289770  1.0
  Hf  Hf117  1  0.31258967  0.13573717  0.10289770  1.0
  Hf  Hf118  1  0.31258967  0.46907050  0.10289770  1.0
  Hf  Hf119  1  0.31258967  0.80240383  0.10289770  1.0
  Hf  Hf120  1  0.64592300  0.13573717  0.10289770  1.0
  Hf  Hf121  1  0.64592300  0.46907050  0.10289770  1.0
  Hf  Hf122  1  0.64592300  0.80240383  0.10289770  1.0
  Hf  Hf123  1  0.97925633  0.13573717  0.10289770  1.0
  Hf  Hf124  1  0.97925633  0.46907050  0.10289770  1.0
  Hf  Hf125  1  0.97925633  0.80240383  0.10289770  1.0
  Hf  Hf126  1  0.02074367  0.03092950  0.19710230  1.0
  Hf  Hf127  1  0.02074367  0.36426283  0.19710230  1.0
  Hf  Hf128  1  0.02074367  0.69759617  0.19710230  1.0
  Hf  Hf129  1  0.35407700  0.03092950  0.19710230  1.0
  Hf  Hf130  1  0.35407700  0.36426283  0.19710230  1.0
  Hf  Hf131  1  0.35407700  0.69759617  0.19710230  1.0
  Hf  Hf132  1  0.68741033  0.03092950  0.19710230  1.0
  Hf  Hf133  1  0.68741033  0.36426283  0.19710230  1.0
  Hf  Hf134  1  0.68741033  0.69759617  0.19710230  1.0
  Hf  Hf135  1  0.02074367  0.19759617  0.09710230  1.0
  Hf  Hf136  1  0.02074367  0.53092950  0.09710230  1.0
  Hf  Hf137  1  0.02074367  0.86426283  0.09710230  1.0
  Hf  Hf138  1  0.35407700  0.19759617  0.09710230  1.0
  Hf  Hf139  1  0.35407700  0.53092950  0.09710230  1.0
  Hf  Hf140  1  0.35407700  0.86426283  0.09710230  1.0
  Hf  Hf141  1  0.68741033  0.19759617  0.09710230  1.0
  Hf  Hf142  1  0.68741033  0.53092950  0.09710230  1.0
  Hf  Hf143  1  0.68741033  0.86426283  0.09710230  1.0
  Ni  Ni144  1  0.16666667  0.25000000  0.05000000  1.0
  Ni  Ni145  1  0.16666667  0.58333333  0.05000000  1.0
  Ni  Ni146  1  0.16666667  0.91666667  0.05000000  1.0
  Ni  Ni147  1  0.50000000  0.25000000  0.05000000  1.0
  Ni  Ni148  1  0.50000000  0.58333333  0.05000000  1.0
  Ni  Ni149  1  0.50000000  0.91666667  0.05000000  1.0
  Ni  Ni150  1  0.83333333  0.25000000  0.05000000  1.0
  Ni  Ni151  1  0.83333333  0.58333333  0.05000000  1.0
  Ni  Ni152  1  0.83333333  0.91666667  0.05000000  1.0
  Ni  Ni153  1  0.16666667  0.08333333  0.15000000  1.0
  Ni  Ni154  1  0.16666667  0.41666667  0.15000000  1.0
  Ni  Ni155  1  0.16666667  0.75000000  0.15000000  1.0
  Ni  Ni156  1  0.50000000  0.08333333  0.15000000  1.0
  Ni  Ni157  1  0.50000000  0.41666667  0.15000000  1.0
  Ni  Ni158  1  0.50000000  0.75000000  0.15000000  1.0
  Ni  Ni159  1  0.83333333  0.08333333  0.15000000  1.0
  Ni  Ni160  1  0.83333333  0.41666667  0.15000000  1.0
  Ni  Ni161  1  0.83333333  0.75000000  0.15000000  1.0
  Ni  Ni162  1  0.03915933  0.06613900  0.18809180  1.0
  Ni  Ni163  1  0.03915933  0.39947233  0.18809180  1.0
  Ni  Ni164  1  0.03915933  0.73280567  0.18809180  1.0
  Ni  Ni165  1  0.37249267  0.06613900  0.18809180  1.0
  Ni  Ni166  1  0.37249267  0.39947233  0.18809180  1.0
  Ni  Ni167  1  0.37249267  0.73280567  0.18809180  1.0
  Ni  Ni168  1  0.70582600  0.06613900  0.18809180  1.0
  Ni  Ni169  1  0.70582600  0.39947233  0.18809180  1.0
  Ni  Ni170  1  0.70582600  0.73280567  0.18809180  1.0
  Ni  Ni171  1  0.03915933  0.23280567  0.08809180  1.0
  Ni  Ni172  1  0.03915933  0.56613900  0.08809180  1.0
  Ni  Ni173  1  0.03915933  0.89947233  0.08809180  1.0
  Ni  Ni174  1  0.37249267  0.23280567  0.08809180  1.0
  Ni  Ni175  1  0.37249267  0.56613900  0.08809180  1.0
  Ni  Ni176  1  0.37249267  0.89947233  0.08809180  1.0
  Ni  Ni177  1  0.70582600  0.23280567  0.08809180  1.0
  Ni  Ni178  1  0.70582600  0.56613900  0.08809180  1.0
  Ni  Ni179  1  0.70582600  0.89947233  0.08809180  1.0
  Ni  Ni180  1  0.29417400  0.26719433  0.01190820  1.0
  Ni  Ni181  1  0.29417400  0.60052767  0.01190820  1.0
  Ni  Ni182  1  0.29417400  0.93386100  0.01190820  1.0
  Ni  Ni183  1  0.62750733  0.26719433  0.01190820  1.0
  Ni  Ni184  1  0.62750733  0.60052767  0.01190820  1.0
  Ni  Ni185  1  0.62750733  0.93386100  0.01190820  1.0
  Ni  Ni186  1  0.96084067  0.26719433  0.01190820  1.0
  Ni  Ni187  1  0.96084067  0.60052767  0.01190820  1.0
  Ni  Ni188  1  0.96084067  0.93386100  0.01190820  1.0
  Ni  Ni189  1  0.29417400  0.10052767  0.11190820  1.0
  Ni  Ni190  1  0.29417400  0.43386100  0.11190820  1.0
  Ni  Ni191  1  0.29417400  0.76719433  0.11190820  1.0
  Ni  Ni192  1  0.62750733  0.10052767  0.11190820  1.0
  Ni  Ni193  1  0.62750733  0.43386100  0.11190820  1.0
  Ni  Ni194  1  0.62750733  0.76719433  0.11190820  1.0
  Ni  Ni195  1  0.96084067  0.10052767  0.11190820  1.0
  Ni  Ni196  1  0.96084067  0.43386100  0.11190820  1.0
  Ni  Ni197  1  0.96084067  0.76719433  0.11190820  1.0
  Ni  Ni198  1  0.07240200  0.11394700  0.13743300  1.0
  Ni  Ni199  1  0.07240200  0.44728033  0.13743300  1.0
  Ni  Ni200  1  0.07240200  0.78061367  0.13743300  1.0
  Ni  Ni201  1  0.40573533  0.11394700  0.13743300  1.0
  Ni  Ni202  1  0.40573533  0.44728033  0.13743300  1.0
  Ni  Ni203  1  0.40573533  0.78061367  0.13743300  1.0
  Ni  Ni204  1  0.73906867  0.11394700  0.13743300  1.0
  Ni  Ni205  1  0.73906867  0.44728033  0.13743300  1.0
  Ni  Ni206  1  0.73906867  0.78061367  0.13743300  1.0
  Ni  Ni207  1  0.07240200  0.28061367  0.03743300  1.0
  Ni  Ni208  1  0.07240200  0.61394700  0.03743300  1.0
  Ni  Ni209  1  0.07240200  0.94728033  0.03743300  1.0
  Ni  Ni210  1  0.40573533  0.28061367  0.03743300  1.0
  Ni  Ni211  1  0.40573533  0.61394700  0.03743300  1.0
  Ni  Ni212  1  0.40573533  0.94728033  0.03743300  1.0
  Ni  Ni213  1  0.73906867  0.28061367  0.03743300  1.0
  Ni  Ni214  1  0.73906867  0.61394700  0.03743300  1.0
  Ni  Ni215  1  0.73906867  0.94728033  0.03743300  1.0
  Ni  Ni216  1  0.26093133  0.21938633  0.06256700  1.0
  Ni  Ni217  1  0.26093133  0.55271967  0.06256700  1.0
  Ni  Ni218  1  0.26093133  0.88605300  0.06256700  1.0
  Ni  Ni219  1  0.59426467  0.21938633  0.06256700  1.0
  Ni  Ni220  1  0.59426467  0.55271967  0.06256700  1.0
  Ni  Ni221  1  0.59426467  0.88605300  0.06256700  1.0
  Ni  Ni222  1  0.92759800  0.21938633  0.06256700  1.0
  Ni  Ni223  1  0.92759800  0.55271967  0.06256700  1.0
  Ni  Ni224  1  0.92759800  0.88605300  0.06256700  1.0
  Ni  Ni225  1  0.26093133  0.05271967  0.16256700  1.0
  Ni  Ni226  1  0.26093133  0.38605300  0.16256700  1.0
  Ni  Ni227  1  0.26093133  0.71938633  0.16256700  1.0
  Ni  Ni228  1  0.59426467  0.05271967  0.16256700  1.0
  Ni  Ni229  1  0.59426467  0.38605300  0.16256700  1.0
  Ni  Ni230  1  0.59426467  0.71938633  0.16256700  1.0
  Ni  Ni231  1  0.92759800  0.05271967  0.16256700  1.0
  Ni  Ni232  1  0.92759800  0.38605300  0.16256700  1.0
  Ni  Ni233  1  0.92759800  0.71938633  0.16256700  1.0
  Ni  Ni234  1  0.08486133  0.07360000  0.05245640  1.0
  Ni  Ni235  1  0.08486133  0.40693333  0.05245640  1.0
  Ni  Ni236  1  0.08486133  0.74026667  0.05245640  1.0
  Ni  Ni237  1  0.41819467  0.07360000  0.05245640  1.0
  Ni  Ni238  1  0.41819467  0.40693333  0.05245640  1.0
  Ni  Ni239  1  0.41819467  0.74026667  0.05245640  1.0
  Ni  Ni240  1  0.75152800  0.07360000  0.05245640  1.0
  Ni  Ni241  1  0.75152800  0.40693333  0.05245640  1.0
  Ni  Ni242  1  0.75152800  0.74026667  0.05245640  1.0
  Ni  Ni243  1  0.08486133  0.24026667  0.15245640  1.0
  Ni  Ni244  1  0.08486133  0.57360000  0.15245640  1.0
  Ni  Ni245  1  0.08486133  0.90693333  0.15245640  1.0
  Ni  Ni246  1  0.41819467  0.24026667  0.15245640  1.0
  Ni  Ni247  1  0.41819467  0.57360000  0.15245640  1.0
  Ni  Ni248  1  0.41819467  0.90693333  0.15245640  1.0
  Ni  Ni249  1  0.75152800  0.24026667  0.15245640  1.0
  Ni  Ni250  1  0.75152800  0.57360000  0.15245640  1.0
  Ni  Ni251  1  0.75152800  0.90693333  0.15245640  1.0
  Ni  Ni252  1  0.24847200  0.25973333  0.14754360  1.0
  Ni  Ni253  1  0.24847200  0.59306667  0.14754360  1.0
  Ni  Ni254  1  0.24847200  0.92640000  0.14754360  1.0
  Ni  Ni255  1  0.58180533  0.25973333  0.14754360  1.0
  Ni  Ni256  1  0.58180533  0.59306667  0.14754360  1.0
  Ni  Ni257  1  0.58180533  0.92640000  0.14754360  1.0
  Ni  Ni258  1  0.91513867  0.25973333  0.14754360  1.0
  Ni  Ni259  1  0.91513867  0.59306667  0.14754360  1.0
  Ni  Ni260  1  0.91513867  0.92640000  0.14754360  1.0
  Ni  Ni261  1  0.24847200  0.09306667  0.04754360  1.0
  Ni  Ni262  1  0.24847200  0.42640000  0.04754360  1.0
  Ni  Ni263  1  0.24847200  0.75973333  0.04754360  1.0
  Ni  Ni264  1  0.58180533  0.09306667  0.04754360  1.0
  Ni  Ni265  1  0.58180533  0.42640000  0.04754360  1.0
  Ni  Ni266  1  0.58180533  0.75973333  0.04754360  1.0
  Ni  Ni267  1  0.91513867  0.09306667  0.04754360  1.0
  Ni  Ni268  1  0.91513867  0.42640000  0.04754360  1.0
  Ni  Ni269  1  0.91513867  0.75973333  0.04754360  1.0
  Ni  Ni270  1  0.09630467  0.09578833  0.02604560  1.0
  Ni  Ni271  1  0.09630467  0.42912167  0.02604560  1.0
  Ni  Ni272  1  0.09630467  0.76245500  0.02604560  1.0
  Ni  Ni273  1  0.42963800  0.09578833  0.02604560  1.0
  Ni  Ni274  1  0.42963800  0.42912167  0.02604560  1.0
  Ni  Ni275  1  0.42963800  0.76245500  0.02604560  1.0
  Ni  Ni276  1  0.76297133  0.09578833  0.02604560  1.0
  Ni  Ni277  1  0.76297133  0.42912167  0.02604560  1.0
  Ni  Ni278  1  0.76297133  0.76245500  0.02604560  1.0
  Ni  Ni279  1  0.09630467  0.26245500  0.12604560  1.0
  Ni  Ni280  1  0.09630467  0.59578833  0.12604560  1.0
  Ni  Ni281  1  0.09630467  0.92912167  0.12604560  1.0
  Ni  Ni282  1  0.42963800  0.26245500  0.12604560  1.0
  Ni  Ni283  1  0.42963800  0.59578833  0.12604560  1.0
  Ni  Ni284  1  0.42963800  0.92912167  0.12604560  1.0
  Ni  Ni285  1  0.76297133  0.26245500  0.12604560  1.0
  Ni  Ni286  1  0.76297133  0.59578833  0.12604560  1.0
  Ni  Ni287  1  0.76297133  0.92912167  0.12604560  1.0
  Ni  Ni288  1  0.01793667  0.01087467  0.03654560  1.0
  Ni  Ni289  1  0.01793667  0.34420800  0.03654560  1.0
  Ni  Ni290  1  0.01793667  0.67754133  0.03654560  1.0
  Ni  Ni291  1  0.35127000  0.01087467  0.03654560  1.0
  Ni  Ni292  1  0.35127000  0.34420800  0.03654560  1.0
  Ni  Ni293  1  0.35127000  0.67754133  0.03654560  1.0
  Ni  Ni294  1  0.68460333  0.01087467  0.03654560  1.0
  Ni  Ni295  1  0.68460333  0.34420800  0.03654560  1.0
  Ni  Ni296  1  0.68460333  0.67754133  0.03654560  1.0
  Ni  Ni297  1  0.01793667  0.17754133  0.13654560  1.0
  Ni  Ni298  1  0.01793667  0.51087467  0.13654560  1.0
  Ni  Ni299  1  0.01793667  0.84420800  0.13654560  1.0
  Ni  Ni300  1  0.35127000  0.17754133  0.13654560  1.0
  Ni  Ni301  1  0.35127000  0.51087467  0.13654560  1.0
  Ni  Ni302  1  0.35127000  0.84420800  0.13654560  1.0
  Ni  Ni303  1  0.68460333  0.17754133  0.13654560  1.0
  Ni  Ni304  1  0.68460333  0.51087467  0.13654560  1.0
  Ni  Ni305  1  0.68460333  0.84420800  0.13654560  1.0
  Ni  Ni306  1  0.31539667  0.32245867  0.16345440  1.0
  Ni  Ni307  1  0.31539667  0.65579200  0.16345440  1.0
  Ni  Ni308  1  0.31539667  0.98912533  0.16345440  1.0
  Ni  Ni309  1  0.64873000  0.32245867  0.16345440  1.0
  Ni  Ni310  1  0.64873000  0.65579200  0.16345440  1.0
  Ni  Ni311  1  0.64873000  0.98912533  0.16345440  1.0
  Ni  Ni312  1  0.98206333  0.32245867  0.16345440  1.0
  Ni  Ni313  1  0.98206333  0.65579200  0.16345440  1.0
  Ni  Ni314  1  0.98206333  0.98912533  0.16345440  1.0
  Ni  Ni315  1  0.31539667  0.15579200  0.06345440  1.0
  Ni  Ni316  1  0.31539667  0.48912533  0.06345440  1.0
  Ni  Ni317  1  0.31539667  0.82245867  0.06345440  1.0
  Ni  Ni318  1  0.64873000  0.15579200  0.06345440  1.0
  Ni  Ni319  1  0.64873000  0.48912533  0.06345440  1.0
  Ni  Ni320  1  0.64873000  0.82245867  0.06345440  1.0
  Ni  Ni321  1  0.98206333  0.15579200  0.06345440  1.0
  Ni  Ni322  1  0.98206333  0.48912533  0.06345440  1.0
  Ni  Ni323  1  0.98206333  0.82245867  0.06345440  1.0
  Ni  Ni324  1  0.06871733  0.04619150  0.07244190  1.0
  Ni  Ni325  1  0.06871733  0.37952483  0.07244190  1.0
  Ni  Ni326  1  0.06871733  0.71285817  0.07244190  1.0
  Ni  Ni327  1  0.40205067  0.04619150  0.07244190  1.0
  Ni  Ni328  1  0.40205067  0.37952483  0.07244190  1.0
  Ni  Ni329  1  0.40205067  0.71285817  0.07244190  1.0
  Ni  Ni330  1  0.73538400  0.04619150  0.07244190  1.0
  Ni  Ni331  1  0.73538400  0.37952483  0.07244190  1.0
  Ni  Ni332  1  0.73538400  0.71285817  0.07244190  1.0
  Ni  Ni333  1  0.06871733  0.21285817  0.17244190  1.0
  Ni  Ni334  1  0.06871733  0.54619150  0.17244190  1.0
  Ni  Ni335  1  0.06871733  0.87952483  0.17244190  1.0
  Ni  Ni336  1  0.40205067  0.21285817  0.17244190  1.0
  Ni  Ni337  1  0.40205067  0.54619150  0.17244190  1.0
  Ni  Ni338  1  0.40205067  0.87952483  0.17244190  1.0
  Ni  Ni339  1  0.73538400  0.21285817  0.17244190  1.0
  Ni  Ni340  1  0.73538400  0.54619150  0.17244190  1.0
  Ni  Ni341  1  0.73538400  0.87952483  0.17244190  1.0
  Ni  Ni342  1  0.26461600  0.28714183  0.12755810  1.0
  Ni  Ni343  1  0.26461600  0.62047517  0.12755810  1.0
  Ni  Ni344  1  0.26461600  0.95380850  0.12755810  1.0
  Ni  Ni345  1  0.59794933  0.28714183  0.12755810  1.0
  Ni  Ni346  1  0.59794933  0.62047517  0.12755810  1.0
  Ni  Ni347  1  0.59794933  0.95380850  0.12755810  1.0
  Ni  Ni348  1  0.93128267  0.28714183  0.12755810  1.0
  Ni  Ni349  1  0.93128267  0.62047517  0.12755810  1.0
  Ni  Ni350  1  0.93128267  0.95380850  0.12755810  1.0
  Ni  Ni351  1  0.26461600  0.12047517  0.02755810  1.0
  Ni  Ni352  1  0.26461600  0.45380850  0.02755810  1.0
  Ni  Ni353  1  0.26461600  0.78714183  0.02755810  1.0
  Ni  Ni354  1  0.59794933  0.12047517  0.02755810  1.0
  Ni  Ni355  1  0.59794933  0.45380850  0.02755810  1.0
  Ni  Ni356  1  0.59794933  0.78714183  0.02755810  1.0
  Ni  Ni357  1  0.93128267  0.12047517  0.02755810  1.0
  Ni  Ni358  1  0.93128267  0.45380850  0.02755810  1.0
  Ni  Ni359  1  0.93128267  0.78714183  0.02755810  1.0
  Ni  Ni360  1  0.08089933  0.01275700  0.09791120  1.0
  Ni  Ni361  1  0.08089933  0.34609033  0.09791120  1.0
  Ni  Ni362  1  0.08089933  0.67942367  0.09791120  1.0
  Ni  Ni363  1  0.41423267  0.01275700  0.09791120  1.0
  Ni  Ni364  1  0.41423267  0.34609033  0.09791120  1.0
  Ni  Ni365  1  0.41423267  0.67942367  0.09791120  1.0
  Ni  Ni366  1  0.74756600  0.01275700  0.09791120  1.0
  Ni  Ni367  1  0.74756600  0.34609033  0.09791120  1.0
  Ni  Ni368  1  0.74756600  0.67942367  0.09791120  1.0
  Ni  Ni369  1  0.08089933  0.17942367  0.19791120  1.0
  Ni  Ni370  1  0.08089933  0.51275700  0.19791120  1.0
  Ni  Ni371  1  0.08089933  0.84609033  0.19791120  1.0
  Ni  Ni372  1  0.41423267  0.17942367  0.19791120  1.0
  Ni  Ni373  1  0.41423267  0.51275700  0.19791120  1.0
  Ni  Ni374  1  0.41423267  0.84609033  0.19791120  1.0
  Ni  Ni375  1  0.74756600  0.17942367  0.19791120  1.0
  Ni  Ni376  1  0.74756600  0.51275700  0.19791120  1.0
  Ni  Ni377  1  0.74756600  0.84609033  0.19791120  1.0
  Ni  Ni378  1  0.25243400  0.32057633  0.10208880  1.0
  Ni  Ni379  1  0.25243400  0.65390967  0.10208880  1.0
  Ni  Ni380  1  0.25243400  0.98724300  0.10208880  1.0
  Ni  Ni381  1  0.58576733  0.32057633  0.10208880  1.0
  Ni  Ni382  1  0.58576733  0.65390967  0.10208880  1.0
  Ni  Ni383  1  0.58576733  0.98724300  0.10208880  1.0
  Ni  Ni384  1  0.91910067  0.32057633  0.10208880  1.0
  Ni  Ni385  1  0.91910067  0.65390967  0.10208880  1.0
  Ni  Ni386  1  0.91910067  0.98724300  0.10208880  1.0
  Ni  Ni387  1  0.25243400  0.15390967  0.00208880  1.0
  Ni  Ni388  1  0.25243400  0.48724300  0.00208880  1.0
  Ni  Ni389  1  0.25243400  0.82057633  0.00208880  1.0
  Ni  Ni390  1  0.58576733  0.15390967  0.00208880  1.0
  Ni  Ni391  1  0.58576733  0.48724300  0.00208880  1.0
  Ni  Ni392  1  0.58576733  0.82057633  0.00208880  1.0
  Ni  Ni393  1  0.91910067  0.15390967  0.00208880  1.0
  Ni  Ni394  1  0.91910067  0.48724300  0.00208880  1.0
  Ni  Ni395  1  0.91910067  0.82057633  0.00208880  1.0
  Ni  Ni396  1  0.08613200  0.30670783  0.11459810  1.0
  Ni  Ni397  1  0.08613200  0.64004117  0.11459810  1.0
  Ni  Ni398  1  0.08613200  0.97337450  0.11459810  1.0
  Ni  Ni399  1  0.41946533  0.30670783  0.11459810  1.0
  Ni  Ni400  1  0.41946533  0.64004117  0.11459810  1.0
  Ni  Ni401  1  0.41946533  0.97337450  0.11459810  1.0
  Ni  Ni402  1  0.75279867  0.30670783  0.11459810  1.0
  Ni  Ni403  1  0.75279867  0.64004117  0.11459810  1.0
  Ni  Ni404  1  0.75279867  0.97337450  0.11459810  1.0
  Ni  Ni405  1  0.08613200  0.14004117  0.01459810  1.0
  Ni  Ni406  1  0.08613200  0.47337450  0.01459810  1.0
  Ni  Ni407  1  0.08613200  0.80670783  0.01459810  1.0
  Ni  Ni408  1  0.41946533  0.14004117  0.01459810  1.0
  Ni  Ni409  1  0.41946533  0.47337450  0.01459810  1.0
  Ni  Ni410  1  0.41946533  0.80670783  0.01459810  1.0
  Ni  Ni411  1  0.75279867  0.14004117  0.01459810  1.0
  Ni  Ni412  1  0.75279867  0.47337450  0.01459810  1.0
  Ni  Ni413  1  0.75279867  0.80670783  0.01459810  1.0
  Ni  Ni414  1  0.24720133  0.02662550  0.08540190  1.0
  Ni  Ni415  1  0.24720133  0.35995883  0.08540190  1.0
  Ni  Ni416  1  0.24720133  0.69329217  0.08540190  1.0
  Ni  Ni417  1  0.58053467  0.02662550  0.08540190  1.0
  Ni  Ni418  1  0.58053467  0.35995883  0.08540190  1.0
  Ni  Ni419  1  0.58053467  0.69329217  0.08540190  1.0
  Ni  Ni420  1  0.91386800  0.02662550  0.08540190  1.0
  Ni  Ni421  1  0.91386800  0.35995883  0.08540190  1.0
  Ni  Ni422  1  0.91386800  0.69329217  0.08540190  1.0
  Ni  Ni423  1  0.24720133  0.19329217  0.18540190  1.0
  Ni  Ni424  1  0.24720133  0.52662550  0.18540190  1.0
  Ni  Ni425  1  0.24720133  0.85995883  0.18540190  1.0
  Ni  Ni426  1  0.58053467  0.19329217  0.18540190  1.0
  Ni  Ni427  1  0.58053467  0.52662550  0.18540190  1.0
  Ni  Ni428  1  0.58053467  0.85995883  0.18540190  1.0
  Ni  Ni429  1  0.91386800  0.19329217  0.18540190  1.0
  Ni  Ni430  1  0.91386800  0.52662550  0.18540190  1.0
  Ni  Ni431  1  0.91386800  0.85995883  0.18540190  1.0
  Ni  Ni432  1  0.13021400  0.31603817  0.18388750  1.0
  Ni  Ni433  1  0.13021400  0.64937150  0.18388750  1.0
  Ni  Ni434  1  0.13021400  0.98270483  0.18388750  1.0
  Ni  Ni435  1  0.46354733  0.31603817  0.18388750  1.0
  Ni  Ni436  1  0.46354733  0.64937150  0.18388750  1.0
  Ni  Ni437  1  0.46354733  0.98270483  0.18388750  1.0
  Ni  Ni438  1  0.79688067  0.31603817  0.18388750  1.0
  Ni  Ni439  1  0.79688067  0.64937150  0.18388750  1.0
  Ni  Ni440  1  0.79688067  0.98270483  0.18388750  1.0
  Ni  Ni441  1  0.13021400  0.14937150  0.08388750  1.0
  Ni  Ni442  1  0.13021400  0.48270483  0.08388750  1.0
  Ni  Ni443  1  0.13021400  0.81603817  0.08388750  1.0
  Ni  Ni444  1  0.46354733  0.14937150  0.08388750  1.0
  Ni  Ni445  1  0.46354733  0.48270483  0.08388750  1.0
  Ni  Ni446  1  0.46354733  0.81603817  0.08388750  1.0
  Ni  Ni447  1  0.79688067  0.14937150  0.08388750  1.0
  Ni  Ni448  1  0.79688067  0.48270483  0.08388750  1.0
  Ni  Ni449  1  0.79688067  0.81603817  0.08388750  1.0
  Ni  Ni450  1  0.20311933  0.01729517  0.01611250  1.0
  Ni  Ni451  1  0.20311933  0.35062850  0.01611250  1.0
  Ni  Ni452  1  0.20311933  0.68396183  0.01611250  1.0
  Ni  Ni453  1  0.53645267  0.01729517  0.01611250  1.0
  Ni  Ni454  1  0.53645267  0.35062850  0.01611250  1.0
  Ni  Ni455  1  0.53645267  0.68396183  0.01611250  1.0
  Ni  Ni456  1  0.86978600  0.01729517  0.01611250  1.0
  Ni  Ni457  1  0.86978600  0.35062850  0.01611250  1.0
  Ni  Ni458  1  0.86978600  0.68396183  0.01611250  1.0
  Ni  Ni459  1  0.20311933  0.18396183  0.11611250  1.0
  Ni  Ni460  1  0.20311933  0.51729517  0.11611250  1.0
  Ni  Ni461  1  0.20311933  0.85062850  0.11611250  1.0
  Ni  Ni462  1  0.53645267  0.18396183  0.11611250  1.0
  Ni  Ni463  1  0.53645267  0.51729517  0.11611250  1.0
  Ni  Ni464  1  0.53645267  0.85062850  0.11611250  1.0
  Ni  Ni465  1  0.86978600  0.18396183  0.11611250  1.0
  Ni  Ni466  1  0.86978600  0.51729517  0.11611250  1.0
  Ni  Ni467  1  0.86978600  0.85062850  0.11611250  1.0
  Ni  Ni468  1  0.19968467  0.28624283  0.06433490  1.0
  Ni  Ni469  1  0.19968467  0.61957617  0.06433490  1.0
  Ni  Ni470  1  0.19968467  0.95290950  0.06433490  1.0
  Ni  Ni471  1  0.53301800  0.28624283  0.06433490  1.0
  Ni  Ni472  1  0.53301800  0.61957617  0.06433490  1.0
  Ni  Ni473  1  0.53301800  0.95290950  0.06433490  1.0
  Ni  Ni474  1  0.86635133  0.28624283  0.06433490  1.0
  Ni  Ni475  1  0.86635133  0.61957617  0.06433490  1.0
  Ni  Ni476  1  0.86635133  0.95290950  0.06433490  1.0
  Ni  Ni477  1  0.19968467  0.11957617  0.16433490  1.0
  Ni  Ni478  1  0.19968467  0.45290950  0.16433490  1.0
  Ni  Ni479  1  0.19968467  0.78624283  0.16433490  1.0
  Ni  Ni480  1  0.53301800  0.11957617  0.16433490  1.0
  Ni  Ni481  1  0.53301800  0.45290950  0.16433490  1.0
  Ni  Ni482  1  0.53301800  0.78624283  0.16433490  1.0
  Ni  Ni483  1  0.86635133  0.11957617  0.16433490  1.0
  Ni  Ni484  1  0.86635133  0.45290950  0.16433490  1.0
  Ni  Ni485  1  0.86635133  0.78624283  0.16433490  1.0
  Ni  Ni486  1  0.13364867  0.04709050  0.13566510  1.0
  Ni  Ni487  1  0.13364867  0.38042383  0.13566510  1.0
  Ni  Ni488  1  0.13364867  0.71375717  0.13566510  1.0
  Ni  Ni489  1  0.46698200  0.04709050  0.13566510  1.0
  Ni  Ni490  1  0.46698200  0.38042383  0.13566510  1.0
  Ni  Ni491  1  0.46698200  0.71375717  0.13566510  1.0
  Ni  Ni492  1  0.80031533  0.04709050  0.13566510  1.0
  Ni  Ni493  1  0.80031533  0.38042383  0.13566510  1.0
  Ni  Ni494  1  0.80031533  0.71375717  0.13566510  1.0
  Ni  Ni495  1  0.13364867  0.21375717  0.03566510  1.0
  Ni  Ni496  1  0.13364867  0.54709050  0.03566510  1.0
  Ni  Ni497  1  0.13364867  0.88042383  0.03566510  1.0
  Ni  Ni498  1  0.46698200  0.21375717  0.03566510  1.0
  Ni  Ni499  1  0.46698200  0.54709050  0.03566510  1.0
  Ni  Ni500  1  0.46698200  0.88042383  0.03566510  1.0
  Ni  Ni501  1  0.80031533  0.21375717  0.03566510  1.0
  Ni  Ni502  1  0.80031533  0.54709050  0.03566510  1.0
  Ni  Ni503  1  0.80031533  0.88042383  0.03566510  1.0
  Ni  Ni504  1  0.23702867  0.23754500  0.17395440  1.0
  Ni  Ni505  1  0.23702867  0.57087833  0.17395440  1.0
  Ni  Ni506  1  0.23702867  0.90421167  0.17395440  1.0
  Ni  Ni507  1  0.57036200  0.23754500  0.17395440  1.0
  Ni  Ni508  1  0.57036200  0.57087833  0.17395440  1.0
  Ni  Ni509  1  0.57036200  0.90421167  0.17395440  1.0
  Ni  Ni510  1  0.90369533  0.23754500  0.17395440  1.0
  Ni  Ni511  1  0.90369533  0.57087833  0.17395440  1.0
  Ni  Ni512  1  0.90369533  0.90421167  0.17395440  1.0
  Ni  Ni513  1  0.23702867  0.07087833  0.07395440  1.0
  Ni  Ni514  1  0.23702867  0.40421167  0.07395440  1.0
  Ni  Ni515  1  0.23702867  0.73754500  0.07395440  1.0
  Ni  Ni516  1  0.57036200  0.07087833  0.07395440  1.0
  Ni  Ni517  1  0.57036200  0.40421167  0.07395440  1.0
  Ni  Ni518  1  0.57036200  0.73754500  0.07395440  1.0
  Ni  Ni519  1  0.90369533  0.07087833  0.07395440  1.0
  Ni  Ni520  1  0.90369533  0.40421167  0.07395440  1.0
  Ni  Ni521  1  0.90369533  0.73754500  0.07395440  1.0
  Hf  Hf522  1  0.02100633  0.11500250  0.37584390  1.0
  Hf  Hf523  1  0.02100633  0.44833583  0.37584390  1.0
  Hf  Hf524  1  0.02100633  0.78166917  0.37584390  1.0
  Hf  Hf525  1  0.35433967  0.11500250  0.37584390  1.0
  Hf  Hf526  1  0.35433967  0.44833583  0.37584390  1.0
  Hf  Hf527  1  0.35433967  0.78166917  0.37584390  1.0
  Hf  Hf528  1  0.68767300  0.11500250  0.37584390  1.0
  Hf  Hf529  1  0.68767300  0.44833583  0.37584390  1.0
  Hf  Hf530  1  0.68767300  0.78166917  0.37584390  1.0
  Hf  Hf531  1  0.02100633  0.28166917  0.27584390  1.0
  Hf  Hf532  1  0.02100633  0.61500250  0.27584390  1.0
  Hf  Hf533  1  0.02100633  0.94833583  0.27584390  1.0
  Hf  Hf534  1  0.35433967  0.28166917  0.27584390  1.0
  Hf  Hf535  1  0.35433967  0.61500250  0.27584390  1.0
  Hf  Hf536  1  0.35433967  0.94833583  0.27584390  1.0
  Hf  Hf537  1  0.68767300  0.28166917  0.27584390  1.0
  Hf  Hf538  1  0.68767300  0.61500250  0.27584390  1.0
  Hf  Hf539  1  0.68767300  0.94833583  0.27584390  1.0
  Hf  Hf540  1  0.31232700  0.21833083  0.22415610  1.0
  Hf  Hf541  1  0.31232700  0.55166417  0.22415610  1.0
  Hf  Hf542  1  0.31232700  0.88499750  0.22415610  1.0
  Hf  Hf543  1  0.64566033  0.21833083  0.22415610  1.0
  Hf  Hf544  1  0.64566033  0.55166417  0.22415610  1.0
  Hf  Hf545  1  0.64566033  0.88499750  0.22415610  1.0
  Hf  Hf546  1  0.97899367  0.21833083  0.22415610  1.0
  Hf  Hf547  1  0.97899367  0.55166417  0.22415610  1.0
  Hf  Hf548  1  0.97899367  0.88499750  0.22415610  1.0
  Hf  Hf549  1  0.31232700  0.05166417  0.32415610  1.0
  Hf  Hf550  1  0.31232700  0.38499750  0.32415610  1.0
  Hf  Hf551  1  0.31232700  0.71833083  0.32415610  1.0
  Hf  Hf552  1  0.64566033  0.05166417  0.32415610  1.0
  Hf  Hf553  1  0.64566033  0.38499750  0.32415610  1.0
  Hf  Hf554  1  0.64566033  0.71833083  0.32415610  1.0
  Hf  Hf555  1  0.97899367  0.05166417  0.32415610  1.0
  Hf  Hf556  1  0.97899367  0.38499750  0.32415610  1.0
  Hf  Hf557  1  0.97899367  0.71833083  0.32415610  1.0
  Hf  Hf558  1  0.17887633  0.00536383  0.25415650  1.0
  Hf  Hf559  1  0.17887633  0.33869717  0.25415650  1.0
  Hf  Hf560  1  0.17887633  0.67203050  0.25415650  1.0
  Hf  Hf561  1  0.51220967  0.00536383  0.25415650  1.0
  Hf  Hf562  1  0.51220967  0.33869717  0.25415650  1.0
  Hf  Hf563  1  0.51220967  0.67203050  0.25415650  1.0
  Hf  Hf564  1  0.84554300  0.00536383  0.25415650  1.0
  Hf  Hf565  1  0.84554300  0.33869717  0.25415650  1.0
  Hf  Hf566  1  0.84554300  0.67203050  0.25415650  1.0
  Hf  Hf567  1  0.17887633  0.17203050  0.35415650  1.0
  Hf  Hf568  1  0.17887633  0.50536383  0.35415650  1.0
  Hf  Hf569  1  0.17887633  0.83869717  0.35415650  1.0
  Hf  Hf570  1  0.51220967  0.17203050  0.35415650  1.0
  Hf  Hf571  1  0.51220967  0.50536383  0.35415650  1.0
  Hf  Hf572  1  0.51220967  0.83869717  0.35415650  1.0
  Hf  Hf573  1  0.84554300  0.17203050  0.35415650  1.0
  Hf  Hf574  1  0.84554300  0.50536383  0.35415650  1.0
  Hf  Hf575  1  0.84554300  0.83869717  0.35415650  1.0
  Hf  Hf576  1  0.15445700  0.32796950  0.34584350  1.0
  Hf  Hf577  1  0.15445700  0.66130283  0.34584350  1.0
  Hf  Hf578  1  0.15445700  0.99463617  0.34584350  1.0
  Hf  Hf579  1  0.48779033  0.32796950  0.34584350  1.0
  Hf  Hf580  1  0.48779033  0.66130283  0.34584350  1.0
  Hf  Hf581  1  0.48779033  0.99463617  0.34584350  1.0
  Hf  Hf582  1  0.82112367  0.32796950  0.34584350  1.0
  Hf  Hf583  1  0.82112367  0.66130283  0.34584350  1.0
  Hf  Hf584  1  0.82112367  0.99463617  0.34584350  1.0
  Hf  Hf585  1  0.15445700  0.16130283  0.24584350  1.0
  Hf  Hf586  1  0.15445700  0.49463617  0.24584350  1.0
  Hf  Hf587  1  0.15445700  0.82796950  0.24584350  1.0
  Hf  Hf588  1  0.48779033  0.16130283  0.24584350  1.0
  Hf  Hf589  1  0.48779033  0.49463617  0.24584350  1.0
  Hf  Hf590  1  0.48779033  0.82796950  0.24584350  1.0
  Hf  Hf591  1  0.82112367  0.16130283  0.24584350  1.0
  Hf  Hf592  1  0.82112367  0.49463617  0.24584350  1.0
  Hf  Hf593  1  0.82112367  0.82796950  0.24584350  1.0
  Hf  Hf594  1  0.19889433  0.05558967  0.39624880  1.0
  Hf  Hf595  1  0.19889433  0.38892300  0.39624880  1.0
  Hf  Hf596  1  0.19889433  0.72225633  0.39624880  1.0
  Hf  Hf597  1  0.53222767  0.05558967  0.39624880  1.0
  Hf  Hf598  1  0.53222767  0.38892300  0.39624880  1.0
  Hf  Hf599  1  0.53222767  0.72225633  0.39624880  1.0
  Hf  Hf600  1  0.86556100  0.05558967  0.39624880  1.0
  Hf  Hf601  1  0.86556100  0.38892300  0.39624880  1.0
  Hf  Hf602  1  0.86556100  0.72225633  0.39624880  1.0
  Hf  Hf603  1  0.19889433  0.22225633  0.29624880  1.0
  Hf  Hf604  1  0.19889433  0.55558967  0.29624880  1.0
  Hf  Hf605  1  0.19889433  0.88892300  0.29624880  1.0
  Hf  Hf606  1  0.53222767  0.22225633  0.29624880  1.0
  Hf  Hf607  1  0.53222767  0.55558967  0.29624880  1.0
  Hf  Hf608  1  0.53222767  0.88892300  0.29624880  1.0
  Hf  Hf609  1  0.86556100  0.22225633  0.29624880  1.0
  Hf  Hf610  1  0.86556100  0.55558967  0.29624880  1.0
  Hf  Hf611  1  0.86556100  0.88892300  0.29624880  1.0
  Hf  Hf612  1  0.13443900  0.27774367  0.20375120  1.0
  Hf  Hf613  1  0.13443900  0.61107700  0.20375120  1.0
  Hf  Hf614  1  0.13443900  0.94441033  0.20375120  1.0
  Hf  Hf615  1  0.46777233  0.27774367  0.20375120  1.0
  Hf  Hf616  1  0.46777233  0.61107700  0.20375120  1.0
  Hf  Hf617  1  0.46777233  0.94441033  0.20375120  1.0
  Hf  Hf618  1  0.80110567  0.27774367  0.20375120  1.0
  Hf  Hf619  1  0.80110567  0.61107700  0.20375120  1.0
  Hf  Hf620  1  0.80110567  0.94441033  0.20375120  1.0
  Hf  Hf621  1  0.13443900  0.11107700  0.30375120  1.0
  Hf  Hf622  1  0.13443900  0.44441033  0.30375120  1.0
  Hf  Hf623  1  0.13443900  0.77774367  0.30375120  1.0
  Hf  Hf624  1  0.46777233  0.11107700  0.30375120  1.0
  Hf  Hf625  1  0.46777233  0.44441033  0.30375120  1.0
  Hf  Hf626  1  0.46777233  0.77774367  0.30375120  1.0
  Hf  Hf627  1  0.80110567  0.11107700  0.30375120  1.0
  Hf  Hf628  1  0.80110567  0.44441033  0.30375120  1.0
  Hf  Hf629  1  0.80110567  0.77774367  0.30375120  1.0
  Hf  Hf630  1  0.31258967  0.30240383  0.20289770  1.0
  Hf  Hf631  1  0.31258967  0.63573717  0.20289770  1.0
  Hf  Hf632  1  0.31258967  0.96907050  0.20289770  1.0
  Hf  Hf633  1  0.64592300  0.30240383  0.20289770  1.0
  Hf  Hf634  1  0.64592300  0.63573717  0.20289770  1.0
  Hf  Hf635  1  0.64592300  0.96907050  0.20289770  1.0
  Hf  Hf636  1  0.97925633  0.30240383  0.20289770  1.0
  Hf  Hf637  1  0.97925633  0.63573717  0.20289770  1.0
  Hf  Hf638  1  0.97925633  0.96907050  0.20289770  1.0
  Hf  Hf639  1  0.31258967  0.13573717  0.30289770  1.0
  Hf  Hf640  1  0.31258967  0.46907050  0.30289770  1.0
  Hf  Hf641  1  0.31258967  0.80240383  0.30289770  1.0
  Hf  Hf642  1  0.64592300  0.13573717  0.30289770  1.0
  Hf  Hf643  1  0.64592300  0.46907050  0.30289770  1.0
  Hf  Hf644  1  0.64592300  0.80240383  0.30289770  1.0
  Hf  Hf645  1  0.97925633  0.13573717  0.30289770  1.0
  Hf  Hf646  1  0.97925633  0.46907050  0.30289770  1.0
  Hf  Hf647  1  0.97925633  0.80240383  0.30289770  1.0
  Hf  Hf648  1  0.02074367  0.03092950  0.39710230  1.0
  Hf  Hf649  1  0.02074367  0.36426283  0.39710230  1.0
  Hf  Hf650  1  0.02074367  0.69759617  0.39710230  1.0
  Hf  Hf651  1  0.35407700  0.03092950  0.39710230  1.0
  Hf  Hf652  1  0.35407700  0.36426283  0.39710230  1.0
  Hf  Hf653  1  0.35407700  0.69759617  0.39710230  1.0
  Hf  Hf654  1  0.68741033  0.03092950  0.39710230  1.0
  Hf  Hf655  1  0.68741033  0.36426283  0.39710230  1.0
  Hf  Hf656  1  0.68741033  0.69759617  0.39710230  1.0
  Hf  Hf657  1  0.02074367  0.19759617  0.29710230  1.0
  Hf  Hf658  1  0.02074367  0.53092950  0.29710230  1.0
  Hf  Hf659  1  0.02074367  0.86426283  0.29710230  1.0
  Hf  Hf660  1  0.35407700  0.19759617  0.29710230  1.0
  Hf  Hf661  1  0.35407700  0.53092950  0.29710230  1.0
  Hf  Hf662  1  0.35407700  0.86426283  0.29710230  1.0
  Hf  Hf663  1  0.68741033  0.19759617  0.29710230  1.0
  Hf  Hf664  1  0.68741033  0.53092950  0.29710230  1.0
  Hf  Hf665  1  0.68741033  0.86426283  0.29710230  1.0
  Ni  Ni666  1  0.16666667  0.25000000  0.25000000  1.0
  Ni  Ni667  1  0.16666667  0.58333333  0.25000000  1.0
  Ni  Ni668  1  0.16666667  0.91666667  0.25000000  1.0
  Ni  Ni669  1  0.50000000  0.25000000  0.25000000  1.0
  Ni  Ni670  1  0.50000000  0.58333333  0.25000000  1.0
  Ni  Ni671  1  0.50000000  0.91666667  0.25000000  1.0
  Ni  Ni672  1  0.83333333  0.25000000  0.25000000  1.0
  Ni  Ni673  1  0.83333333  0.58333333  0.25000000  1.0
  Ni  Ni674  1  0.83333333  0.91666667  0.25000000  1.0
  Ni  Ni675  1  0.16666667  0.08333333  0.35000000  1.0
  Ni  Ni676  1  0.16666667  0.41666667  0.35000000  1.0
  Ni  Ni677  1  0.16666667  0.75000000  0.35000000  1.0
  Ni  Ni678  1  0.50000000  0.08333333  0.35000000  1.0
  Ni  Ni679  1  0.50000000  0.41666667  0.35000000  1.0
  Ni  Ni680  1  0.50000000  0.75000000  0.35000000  1.0
  Ni  Ni681  1  0.83333333  0.08333333  0.35000000  1.0
  Ni  Ni682  1  0.83333333  0.41666667  0.35000000  1.0
  Ni  Ni683  1  0.83333333  0.75000000  0.35000000  1.0
  Ni  Ni684  1  0.03915933  0.06613900  0.38809180  1.0
  Ni  Ni685  1  0.03915933  0.39947233  0.38809180  1.0
  Ni  Ni686  1  0.03915933  0.73280567  0.38809180  1.0
  Ni  Ni687  1  0.37249267  0.06613900  0.38809180  1.0
  Ni  Ni688  1  0.37249267  0.39947233  0.38809180  1.0
  Ni  Ni689  1  0.37249267  0.73280567  0.38809180  1.0
  Ni  Ni690  1  0.70582600  0.06613900  0.38809180  1.0
  Ni  Ni691  1  0.70582600  0.39947233  0.38809180  1.0
  Ni  Ni692  1  0.70582600  0.73280567  0.38809180  1.0
  Ni  Ni693  1  0.03915933  0.23280567  0.28809180  1.0
  Ni  Ni694  1  0.03915933  0.56613900  0.28809180  1.0
  Ni  Ni695  1  0.03915933  0.89947233  0.28809180  1.0
  Ni  Ni696  1  0.37249267  0.23280567  0.28809180  1.0
  Ni  Ni697  1  0.37249267  0.56613900  0.28809180  1.0
  Ni  Ni698  1  0.37249267  0.89947233  0.28809180  1.0
  Ni  Ni699  1  0.70582600  0.23280567  0.28809180  1.0
  Ni  Ni700  1  0.70582600  0.56613900  0.28809180  1.0
  Ni  Ni701  1  0.70582600  0.89947233  0.28809180  1.0
  Ni  Ni702  1  0.29417400  0.26719433  0.21190820  1.0
  Ni  Ni703  1  0.29417400  0.60052767  0.21190820  1.0
  Ni  Ni704  1  0.29417400  0.93386100  0.21190820  1.0
  Ni  Ni705  1  0.62750733  0.26719433  0.21190820  1.0
  Ni  Ni706  1  0.62750733  0.60052767  0.21190820  1.0
  Ni  Ni707  1  0.62750733  0.93386100  0.21190820  1.0
  Ni  Ni708  1  0.96084067  0.26719433  0.21190820  1.0
  Ni  Ni709  1  0.96084067  0.60052767  0.21190820  1.0
  Ni  Ni710  1  0.96084067  0.93386100  0.21190820  1.0
  Ni  Ni711  1  0.29417400  0.10052767  0.31190820  1.0
  Ni  Ni712  1  0.29417400  0.43386100  0.31190820  1.0
  Ni  Ni713  1  0.29417400  0.76719433  0.31190820  1.0
  Ni  Ni714  1  0.62750733  0.10052767  0.31190820  1.0
  Ni  Ni715  1  0.62750733  0.43386100  0.31190820  1.0
  Ni  Ni716  1  0.62750733  0.76719433  0.31190820  1.0
  Ni  Ni717  1  0.96084067  0.10052767  0.31190820  1.0
  Ni  Ni718  1  0.96084067  0.43386100  0.31190820  1.0
  Ni  Ni719  1  0.96084067  0.76719433  0.31190820  1.0
  Ni  Ni720  1  0.07240200  0.11394700  0.33743300  1.0
  Ni  Ni721  1  0.07240200  0.44728033  0.33743300  1.0
  Ni  Ni722  1  0.07240200  0.78061367  0.33743300  1.0
  Ni  Ni723  1  0.40573533  0.11394700  0.33743300  1.0
  Ni  Ni724  1  0.40573533  0.44728033  0.33743300  1.0
  Ni  Ni725  1  0.40573533  0.78061367  0.33743300  1.0
  Ni  Ni726  1  0.73906867  0.11394700  0.33743300  1.0
  Ni  Ni727  1  0.73906867  0.44728033  0.33743300  1.0
  Ni  Ni728  1  0.73906867  0.78061367  0.33743300  1.0
  Ni  Ni729  1  0.07240200  0.28061367  0.23743300  1.0
  Ni  Ni730  1  0.07240200  0.61394700  0.23743300  1.0
  Ni  Ni731  1  0.07240200  0.94728033  0.23743300  1.0
  Ni  Ni732  1  0.40573533  0.28061367  0.23743300  1.0
  Ni  Ni733  1  0.40573533  0.61394700  0.23743300  1.0
  Ni  Ni734  1  0.40573533  0.94728033  0.23743300  1.0
  Ni  Ni735  1  0.73906867  0.28061367  0.23743300  1.0
  Ni  Ni736  1  0.73906867  0.61394700  0.23743300  1.0
  Ni  Ni737  1  0.73906867  0.94728033  0.23743300  1.0
  Ni  Ni738  1  0.26093133  0.21938633  0.26256700  1.0
  Ni  Ni739  1  0.26093133  0.55271967  0.26256700  1.0
  Ni  Ni740  1  0.26093133  0.88605300  0.26256700  1.0
  Ni  Ni741  1  0.59426467  0.21938633  0.26256700  1.0
  Ni  Ni742  1  0.59426467  0.55271967  0.26256700  1.0
  Ni  Ni743  1  0.59426467  0.88605300  0.26256700  1.0
  Ni  Ni744  1  0.92759800  0.21938633  0.26256700  1.0
  Ni  Ni745  1  0.92759800  0.55271967  0.26256700  1.0
  Ni  Ni746  1  0.92759800  0.88605300  0.26256700  1.0
  Ni  Ni747  1  0.26093133  0.05271967  0.36256700  1.0
  Ni  Ni748  1  0.26093133  0.38605300  0.36256700  1.0
  Ni  Ni749  1  0.26093133  0.71938633  0.36256700  1.0
  Ni  Ni750  1  0.59426467  0.05271967  0.36256700  1.0
  Ni  Ni751  1  0.59426467  0.38605300  0.36256700  1.0
  Ni  Ni752  1  0.59426467  0.71938633  0.36256700  1.0
  Ni  Ni753  1  0.92759800  0.05271967  0.36256700  1.0
  Ni  Ni754  1  0.92759800  0.38605300  0.36256700  1.0
  Ni  Ni755  1  0.92759800  0.71938633  0.36256700  1.0
  Ni  Ni756  1  0.08486133  0.07360000  0.25245640  1.0
  Ni  Ni757  1  0.08486133  0.40693333  0.25245640  1.0
  Ni  Ni758  1  0.08486133  0.74026667  0.25245640  1.0
  Ni  Ni759  1  0.41819467  0.07360000  0.25245640  1.0
  Ni  Ni760  1  0.41819467  0.40693333  0.25245640  1.0
  Ni  Ni761  1  0.41819467  0.74026667  0.25245640  1.0
  Ni  Ni762  1  0.75152800  0.07360000  0.25245640  1.0
  Ni  Ni763  1  0.75152800  0.40693333  0.25245640  1.0
  Ni  Ni764  1  0.75152800  0.74026667  0.25245640  1.0
  Ni  Ni765  1  0.08486133  0.24026667  0.35245640  1.0
  Ni  Ni766  1  0.08486133  0.57360000  0.35245640  1.0
  Ni  Ni767  1  0.08486133  0.90693333  0.35245640  1.0
  Ni  Ni768  1  0.41819467  0.24026667  0.35245640  1.0
  Ni  Ni769  1  0.41819467  0.57360000  0.35245640  1.0
  Ni  Ni770  1  0.41819467  0.90693333  0.35245640  1.0
  Ni  Ni771  1  0.75152800  0.24026667  0.35245640  1.0
  Ni  Ni772  1  0.75152800  0.57360000  0.35245640  1.0
  Ni  Ni773  1  0.75152800  0.90693333  0.35245640  1.0
  Ni  Ni774  1  0.24847200  0.25973333  0.34754360  1.0
  Ni  Ni775  1  0.24847200  0.59306667  0.34754360  1.0
  Ni  Ni776  1  0.24847200  0.92640000  0.34754360  1.0
  Ni  Ni777  1  0.58180533  0.25973333  0.34754360  1.0
  Ni  Ni778  1  0.58180533  0.59306667  0.34754360  1.0
  Ni  Ni779  1  0.58180533  0.92640000  0.34754360  1.0
  Ni  Ni780  1  0.91513867  0.25973333  0.34754360  1.0
  Ni  Ni781  1  0.91513867  0.59306667  0.34754360  1.0
  Ni  Ni782  1  0.91513867  0.92640000  0.34754360  1.0
  Ni  Ni783  1  0.24847200  0.09306667  0.24754360  1.0
  Ni  Ni784  1  0.24847200  0.42640000  0.24754360  1.0
  Ni  Ni785  1  0.24847200  0.75973333  0.24754360  1.0
  Ni  Ni786  1  0.58180533  0.09306667  0.24754360  1.0
  Ni  Ni787  1  0.58180533  0.42640000  0.24754360  1.0
  Ni  Ni788  1  0.58180533  0.75973333  0.24754360  1.0
  Ni  Ni789  1  0.91513867  0.09306667  0.24754360  1.0
  Ni  Ni790  1  0.91513867  0.42640000  0.24754360  1.0
  Ni  Ni791  1  0.91513867  0.75973333  0.24754360  1.0
  Ni  Ni792  1  0.09630467  0.09578833  0.22604560  1.0
  Ni  Ni793  1  0.09630467  0.42912167  0.22604560  1.0
  Ni  Ni794  1  0.09630467  0.76245500  0.22604560  1.0
  Ni  Ni795  1  0.42963800  0.09578833  0.22604560  1.0
  Ni  Ni796  1  0.42963800  0.42912167  0.22604560  1.0
  Ni  Ni797  1  0.42963800  0.76245500  0.22604560  1.0
  Ni  Ni798  1  0.76297133  0.09578833  0.22604560  1.0
  Ni  Ni799  1  0.76297133  0.42912167  0.22604560  1.0
  Ni  Ni800  1  0.76297133  0.76245500  0.22604560  1.0
  Ni  Ni801  1  0.09630467  0.26245500  0.32604560  1.0
  Ni  Ni802  1  0.09630467  0.59578833  0.32604560  1.0
  Ni  Ni803  1  0.09630467  0.92912167  0.32604560  1.0
  Ni  Ni804  1  0.42963800  0.26245500  0.32604560  1.0
  Ni  Ni805  1  0.42963800  0.59578833  0.32604560  1.0
  Ni  Ni806  1  0.42963800  0.92912167  0.32604560  1.0
  Ni  Ni807  1  0.76297133  0.26245500  0.32604560  1.0
  Ni  Ni808  1  0.76297133  0.59578833  0.32604560  1.0
  Ni  Ni809  1  0.76297133  0.92912167  0.32604560  1.0
  Ni  Ni810  1  0.01793667  0.01087467  0.23654560  1.0
  Ni  Ni811  1  0.01793667  0.34420800  0.23654560  1.0
  Ni  Ni812  1  0.01793667  0.67754133  0.23654560  1.0
  Ni  Ni813  1  0.35127000  0.01087467  0.23654560  1.0
  Ni  Ni814  1  0.35127000  0.34420800  0.23654560  1.0
  Ni  Ni815  1  0.35127000  0.67754133  0.23654560  1.0
  Ni  Ni816  1  0.68460333  0.01087467  0.23654560  1.0
  Ni  Ni817  1  0.68460333  0.34420800  0.23654560  1.0
  Ni  Ni818  1  0.68460333  0.67754133  0.23654560  1.0
  Ni  Ni819  1  0.01793667  0.17754133  0.33654560  1.0
  Ni  Ni820  1  0.01793667  0.51087467  0.33654560  1.0
  Ni  Ni821  1  0.01793667  0.84420800  0.33654560  1.0
  Ni  Ni822  1  0.35127000  0.17754133  0.33654560  1.0
  Ni  Ni823  1  0.35127000  0.51087467  0.33654560  1.0
  Ni  Ni824  1  0.35127000  0.84420800  0.33654560  1.0
  Ni  Ni825  1  0.68460333  0.17754133  0.33654560  1.0
  Ni  Ni826  1  0.68460333  0.51087467  0.33654560  1.0
  Ni  Ni827  1  0.68460333  0.84420800  0.33654560  1.0
  Ni  Ni828  1  0.31539667  0.32245867  0.36345440  1.0
  Ni  Ni829  1  0.31539667  0.65579200  0.36345440  1.0
  Ni  Ni830  1  0.31539667  0.98912533  0.36345440  1.0
  Ni  Ni831  1  0.64873000  0.32245867  0.36345440  1.0
  Ni  Ni832  1  0.64873000  0.65579200  0.36345440  1.0
  Ni  Ni833  1  0.64873000  0.98912533  0.36345440  1.0
  Ni  Ni834  1  0.98206333  0.32245867  0.36345440  1.0
  Ni  Ni835  1  0.98206333  0.65579200  0.36345440  1.0
  Ni  Ni836  1  0.98206333  0.98912533  0.36345440  1.0
  Ni  Ni837  1  0.31539667  0.15579200  0.26345440  1.0
  Ni  Ni838  1  0.31539667  0.48912533  0.26345440  1.0
  Ni  Ni839  1  0.31539667  0.82245867  0.26345440  1.0
  Ni  Ni840  1  0.64873000  0.15579200  0.26345440  1.0
  Ni  Ni841  1  0.64873000  0.48912533  0.26345440  1.0
  Ni  Ni842  1  0.64873000  0.82245867  0.26345440  1.0
  Ni  Ni843  1  0.98206333  0.15579200  0.26345440  1.0
  Ni  Ni844  1  0.98206333  0.48912533  0.26345440  1.0
  Ni  Ni845  1  0.98206333  0.82245867  0.26345440  1.0
  Ni  Ni846  1  0.06871733  0.04619150  0.27244190  1.0
  Ni  Ni847  1  0.06871733  0.37952483  0.27244190  1.0
  Ni  Ni848  1  0.06871733  0.71285817  0.27244190  1.0
  Ni  Ni849  1  0.40205067  0.04619150  0.27244190  1.0
  Ni  Ni850  1  0.40205067  0.37952483  0.27244190  1.0
  Ni  Ni851  1  0.40205067  0.71285817  0.27244190  1.0
  Ni  Ni852  1  0.73538400  0.04619150  0.27244190  1.0
  Ni  Ni853  1  0.73538400  0.37952483  0.27244190  1.0
  Ni  Ni854  1  0.73538400  0.71285817  0.27244190  1.0
  Ni  Ni855  1  0.06871733  0.21285817  0.37244190  1.0
  Ni  Ni856  1  0.06871733  0.54619150  0.37244190  1.0
  Ni  Ni857  1  0.06871733  0.87952483  0.37244190  1.0
  Ni  Ni858  1  0.40205067  0.21285817  0.37244190  1.0
  Ni  Ni859  1  0.40205067  0.54619150  0.37244190  1.0
  Ni  Ni860  1  0.40205067  0.87952483  0.37244190  1.0
  Ni  Ni861  1  0.73538400  0.21285817  0.37244190  1.0
  Ni  Ni862  1  0.73538400  0.54619150  0.37244190  1.0
  Ni  Ni863  1  0.73538400  0.87952483  0.37244190  1.0
  Ni  Ni864  1  0.26461600  0.28714183  0.32755810  1.0
  Ni  Ni865  1  0.26461600  0.62047517  0.32755810  1.0
  Ni  Ni866  1  0.26461600  0.95380850  0.32755810  1.0
  Ni  Ni867  1  0.59794933  0.28714183  0.32755810  1.0
  Ni  Ni868  1  0.59794933  0.62047517  0.32755810  1.0
  Ni  Ni869  1  0.59794933  0.95380850  0.32755810  1.0
  Ni  Ni870  1  0.93128267  0.28714183  0.32755810  1.0
  Ni  Ni871  1  0.93128267  0.62047517  0.32755810  1.0
  Ni  Ni872  1  0.93128267  0.95380850  0.32755810  1.0
  Ni  Ni873  1  0.26461600  0.12047517  0.22755810  1.0
  Ni  Ni874  1  0.26461600  0.45380850  0.22755810  1.0
  Ni  Ni875  1  0.26461600  0.78714183  0.22755810  1.0
  Ni  Ni876  1  0.59794933  0.12047517  0.22755810  1.0
  Ni  Ni877  1  0.59794933  0.45380850  0.22755810  1.0
  Ni  Ni878  1  0.59794933  0.78714183  0.22755810  1.0
  Ni  Ni879  1  0.93128267  0.12047517  0.22755810  1.0
  Ni  Ni880  1  0.93128267  0.45380850  0.22755810  1.0
  Ni  Ni881  1  0.93128267  0.78714183  0.22755810  1.0
  Ni  Ni882  1  0.08089933  0.01275700  0.29791120  1.0
  Ni  Ni883  1  0.08089933  0.34609033  0.29791120  1.0
  Ni  Ni884  1  0.08089933  0.67942367  0.29791120  1.0
  Ni  Ni885  1  0.41423267  0.01275700  0.29791120  1.0
  Ni  Ni886  1  0.41423267  0.34609033  0.29791120  1.0
  Ni  Ni887  1  0.41423267  0.67942367  0.29791120  1.0
  Ni  Ni888  1  0.74756600  0.01275700  0.29791120  1.0
  Ni  Ni889  1  0.74756600  0.34609033  0.29791120  1.0
  Ni  Ni890  1  0.74756600  0.67942367  0.29791120  1.0
  Ni  Ni891  1  0.08089933  0.17942367  0.39791120  1.0
  Ni  Ni892  1  0.08089933  0.51275700  0.39791120  1.0
  Ni  Ni893  1  0.08089933  0.84609033  0.39791120  1.0
  Ni  Ni894  1  0.41423267  0.17942367  0.39791120  1.0
  Ni  Ni895  1  0.41423267  0.51275700  0.39791120  1.0
  Ni  Ni896  1  0.41423267  0.84609033  0.39791120  1.0
  Ni  Ni897  1  0.74756600  0.17942367  0.39791120  1.0
  Ni  Ni898  1  0.74756600  0.51275700  0.39791120  1.0
  Ni  Ni899  1  0.74756600  0.84609033  0.39791120  1.0
  Ni  Ni900  1  0.25243400  0.32057633  0.30208880  1.0
  Ni  Ni901  1  0.25243400  0.65390967  0.30208880  1.0
  Ni  Ni902  1  0.25243400  0.98724300  0.30208880  1.0
  Ni  Ni903  1  0.58576733  0.32057633  0.30208880  1.0
  Ni  Ni904  1  0.58576733  0.65390967  0.30208880  1.0
  Ni  Ni905  1  0.58576733  0.98724300  0.30208880  1.0
  Ni  Ni906  1  0.91910067  0.32057633  0.30208880  1.0
  Ni  Ni907  1  0.91910067  0.65390967  0.30208880  1.0
  Ni  Ni908  1  0.91910067  0.98724300  0.30208880  1.0
  Ni  Ni909  1  0.25243400  0.15390967  0.20208880  1.0
  Ni  Ni910  1  0.25243400  0.48724300  0.20208880  1.0
  Ni  Ni911  1  0.25243400  0.82057633  0.20208880  1.0
  Ni  Ni912  1  0.58576733  0.15390967  0.20208880  1.0
  Ni  Ni913  1  0.58576733  0.48724300  0.20208880  1.0
  Ni  Ni914  1  0.58576733  0.82057633  0.20208880  1.0
  Ni  Ni915  1  0.91910067  0.15390967  0.20208880  1.0
  Ni  Ni916  1  0.91910067  0.48724300  0.20208880  1.0
  Ni  Ni917  1  0.91910067  0.82057633  0.20208880  1.0
  Ni  Ni918  1  0.08613200  0.30670783  0.31459810  1.0
  Ni  Ni919  1  0.08613200  0.64004117  0.31459810  1.0
  Ni  Ni920  1  0.08613200  0.97337450  0.31459810  1.0
  Ni  Ni921  1  0.41946533  0.30670783  0.31459810  1.0
  Ni  Ni922  1  0.41946533  0.64004117  0.31459810  1.0
  Ni  Ni923  1  0.41946533  0.97337450  0.31459810  1.0
  Ni  Ni924  1  0.75279867  0.30670783  0.31459810  1.0
  Ni  Ni925  1  0.75279867  0.64004117  0.31459810  1.0
  Ni  Ni926  1  0.75279867  0.97337450  0.31459810  1.0
  Ni  Ni927  1  0.08613200  0.14004117  0.21459810  1.0
  Ni  Ni928  1  0.08613200  0.47337450  0.21459810  1.0
  Ni  Ni929  1  0.08613200  0.80670783  0.21459810  1.0
  Ni  Ni930  1  0.41946533  0.14004117  0.21459810  1.0
  Ni  Ni931  1  0.41946533  0.47337450  0.21459810  1.0
  Ni  Ni932  1  0.41946533  0.80670783  0.21459810  1.0
  Ni  Ni933  1  0.75279867  0.14004117  0.21459810  1.0
  Ni  Ni934  1  0.75279867  0.47337450  0.21459810  1.0
  Ni  Ni935  1  0.75279867  0.80670783  0.21459810  1.0
  Ni  Ni936  1  0.24720133  0.02662550  0.28540190  1.0
  Ni  Ni937  1  0.24720133  0.35995883  0.28540190  1.0
  Ni  Ni938  1  0.24720133  0.69329217  0.28540190  1.0
  Ni  Ni939  1  0.58053467  0.02662550  0.28540190  1.0
  Ni  Ni940  1  0.58053467  0.35995883  0.28540190  1.0
  Ni  Ni941  1  0.58053467  0.69329217  0.28540190  1.0
  Ni  Ni942  1  0.91386800  0.02662550  0.28540190  1.0
  Ni  Ni943  1  0.91386800  0.35995883  0.28540190  1.0
  Ni  Ni944  1  0.91386800  0.69329217  0.28540190  1.0
  Ni  Ni945  1  0.24720133  0.19329217  0.38540190  1.0
  Ni  Ni946  1  0.24720133  0.52662550  0.38540190  1.0
  Ni  Ni947  1  0.24720133  0.85995883  0.38540190  1.0
  Ni  Ni948  1  0.58053467  0.19329217  0.38540190  1.0
  Ni  Ni949  1  0.58053467  0.52662550  0.38540190  1.0
  Ni  Ni950  1  0.58053467  0.85995883  0.38540190  1.0
  Ni  Ni951  1  0.91386800  0.19329217  0.38540190  1.0
  Ni  Ni952  1  0.91386800  0.52662550  0.38540190  1.0
  Ni  Ni953  1  0.91386800  0.85995883  0.38540190  1.0
  Ni  Ni954  1  0.13021400  0.31603817  0.38388750  1.0
  Ni  Ni955  1  0.13021400  0.64937150  0.38388750  1.0
  Ni  Ni956  1  0.13021400  0.98270483  0.38388750  1.0
  Ni  Ni957  1  0.46354733  0.31603817  0.38388750  1.0
  Ni  Ni958  1  0.46354733  0.64937150  0.38388750  1.0
  Ni  Ni959  1  0.46354733  0.98270483  0.38388750  1.0
  Ni  Ni960  1  0.79688067  0.31603817  0.38388750  1.0
  Ni  Ni961  1  0.79688067  0.64937150  0.38388750  1.0
  Ni  Ni962  1  0.79688067  0.98270483  0.38388750  1.0
  Ni  Ni963  1  0.13021400  0.14937150  0.28388750  1.0
  Ni  Ni964  1  0.13021400  0.48270483  0.28388750  1.0
  Ni  Ni965  1  0.13021400  0.81603817  0.28388750  1.0
  Ni  Ni966  1  0.46354733  0.14937150  0.28388750  1.0
  Ni  Ni967  1  0.46354733  0.48270483  0.28388750  1.0
  Ni  Ni968  1  0.46354733  0.81603817  0.28388750  1.0
  Ni  Ni969  1  0.79688067  0.14937150  0.28388750  1.0
  Ni  Ni970  1  0.79688067  0.48270483  0.28388750  1.0
  Ni  Ni971  1  0.79688067  0.81603817  0.28388750  1.0
  Ni  Ni972  1  0.20311933  0.01729517  0.21611250  1.0
  Ni  Ni973  1  0.20311933  0.35062850  0.21611250  1.0
  Ni  Ni974  1  0.20311933  0.68396183  0.21611250  1.0
  Ni  Ni975  1  0.53645267  0.01729517  0.21611250  1.0
  Ni  Ni976  1  0.53645267  0.35062850  0.21611250  1.0
  Ni  Ni977  1  0.53645267  0.68396183  0.21611250  1.0
  Ni  Ni978  1  0.86978600  0.01729517  0.21611250  1.0
  Ni  Ni979  1  0.86978600  0.35062850  0.21611250  1.0
  Ni  Ni980  1  0.86978600  0.68396183  0.21611250  1.0
  Ni  Ni981  1  0.20311933  0.18396183  0.31611250  1.0
  Ni  Ni982  1  0.20311933  0.51729517  0.31611250  1.0
  Ni  Ni983  1  0.20311933  0.85062850  0.31611250  1.0
  Ni  Ni984  1  0.53645267  0.18396183  0.31611250  1.0
  Ni  Ni985  1  0.53645267  0.51729517  0.31611250  1.0
  Ni  Ni986  1  0.53645267  0.85062850  0.31611250  1.0
  Ni  Ni987  1  0.86978600  0.18396183  0.31611250  1.0
  Ni  Ni988  1  0.86978600  0.51729517  0.31611250  1.0
  Ni  Ni989  1  0.86978600  0.85062850  0.31611250  1.0
  Ni  Ni990  1  0.19968467  0.28624283  0.26433490  1.0
  Ni  Ni991  1  0.19968467  0.61957617  0.26433490  1.0
  Ni  Ni992  1  0.19968467  0.95290950  0.26433490  1.0
  Ni  Ni993  1  0.53301800  0.28624283  0.26433490  1.0
  Ni  Ni994  1  0.53301800  0.61957617  0.26433490  1.0
  Ni  Ni995  1  0.53301800  0.95290950  0.26433490  1.0
  Ni  Ni996  1  0.86635133  0.28624283  0.26433490  1.0
  Ni  Ni997  1  0.86635133  0.61957617  0.26433490  1.0
  Ni  Ni998  1  0.86635133  0.95290950  0.26433490  1.0
  Ni  Ni999  1  0.19968467  0.11957617  0.36433490  1.0
  Ni  Ni1000  1  0.19968467  0.45290950  0.36433490  1.0
  Ni  Ni1001  1  0.19968467  0.78624283  0.36433490  1.0
  Ni  Ni1002  1  0.53301800  0.11957617  0.36433490  1.0
  Ni  Ni1003  1  0.53301800  0.45290950  0.36433490  1.0
  Ni  Ni1004  1  0.53301800  0.78624283  0.36433490  1.0
  Ni  Ni1005  1  0.86635133  0.11957617  0.36433490  1.0
  Ni  Ni1006  1  0.86635133  0.45290950  0.36433490  1.0
  Ni  Ni1007  1  0.86635133  0.78624283  0.36433490  1.0
  Ni  Ni1008  1  0.13364867  0.04709050  0.33566510  1.0
  Ni  Ni1009  1  0.13364867  0.38042383  0.33566510  1.0
  Ni  Ni1010  1  0.13364867  0.71375717  0.33566510  1.0
  Ni  Ni1011  1  0.46698200  0.04709050  0.33566510  1.0
  Ni  Ni1012  1  0.46698200  0.38042383  0.33566510  1.0
  Ni  Ni1013  1  0.46698200  0.71375717  0.33566510  1.0
  Ni  Ni1014  1  0.80031533  0.04709050  0.33566510  1.0
  Ni  Ni1015  1  0.80031533  0.38042383  0.33566510  1.0
  Ni  Ni1016  1  0.80031533  0.71375717  0.33566510  1.0
  Ni  Ni1017  1  0.13364867  0.21375717  0.23566510  1.0
  Ni  Ni1018  1  0.13364867  0.54709050  0.23566510  1.0
  Ni  Ni1019  1  0.13364867  0.88042383  0.23566510  1.0
  Ni  Ni1020  1  0.46698200  0.21375717  0.23566510  1.0
  Ni  Ni1021  1  0.46698200  0.54709050  0.23566510  1.0
  Ni  Ni1022  1  0.46698200  0.88042383  0.23566510  1.0
  Ni  Ni1023  1  0.80031533  0.21375717  0.23566510  1.0
  Ni  Ni1024  1  0.80031533  0.54709050  0.23566510  1.0
  Ni  Ni1025  1  0.80031533  0.88042383  0.23566510  1.0
  Ni  Ni1026  1  0.23702867  0.23754500  0.37395440  1.0
  Ni  Ni1027  1  0.23702867  0.57087833  0.37395440  1.0
  Ni  Ni1028  1  0.23702867  0.90421167  0.37395440  1.0
  Ni  Ni1029  1  0.57036200  0.23754500  0.37395440  1.0
  Ni  Ni1030  1  0.57036200  0.57087833  0.37395440  1.0
  Ni  Ni1031  1  0.57036200  0.90421167  0.37395440  1.0
  Ni  Ni1032  1  0.90369533  0.23754500  0.37395440  1.0
  Ni  Ni1033  1  0.90369533  0.57087833  0.37395440  1.0
  Ni  Ni1034  1  0.90369533  0.90421167  0.37395440  1.0
  Ni  Ni1035  1  0.23702867  0.07087833  0.27395440  1.0
  Ni  Ni1036  1  0.23702867  0.40421167  0.27395440  1.0
  Ni  Ni1037  1  0.23702867  0.73754500  0.27395440  1.0
  Ni  Ni1038  1  0.57036200  0.07087833  0.27395440  1.0
  Ni  Ni1039  1  0.57036200  0.40421167  0.27395440  1.0
  Ni  Ni1040  1  0.57036200  0.73754500  0.27395440  1.0
  Ni  Ni1041  1  0.90369533  0.07087833  0.27395440  1.0
  Ni  Ni1042  1  0.90369533  0.40421167  0.27395440  1.0
  Ni  Ni1043  1  0.90369533  0.73754500  0.27395440  1.0
