# generated using pymatgen
data_HfNi3
_symmetry_space_group_name_H-M   'P 1'
_cell_length_a   59.93341093
_cell_length_b   15.80516340
_cell_length_c   71.07308120
_cell_angle_alpha   68.24541706
_cell_angle_beta   29.33144139
_cell_angle_gamma   82.42314155
_symmetry_Int_Tables_number   1
_chemical_formula_structural   HfNi3
_chemical_formula_sum   'Hf216 Ni648'
_cell_volume   27792.84474926
_cell_formula_units_Z   216
loop_
 _symmetry_equiv_pos_site_id
 _symmetry_equiv_pos_as_xyz
  1  'x, y, z'
loop_
 _atom_site_type_symbol
 _atom_site_label
 _atom_site_symmetry_multiplicity
 _atom_site_fract_x
 _atom_site_fract_y
 _atom_site_fract_z
 _atom_site_occupancy
  Hf  Hf0  1  0.03646250  0.26040833  0.02778408  1.0
  Hf  Hf1  1  0.03646250  0.59374167  0.02778407  1.0
  Hf  Hf2  1  0.03646250  0.92707500  0.02778408  1.0
  Hf  Hf3  1  0.36979583  0.26040833  0.02778408  1.0
  Hf  Hf4  1  0.36979583  0.59374167  0.02778407  1.0
  Hf  Hf5  1  0.36979583  0.92707500  0.02778408  1.0
  Hf  Hf6  1  0.70312917  0.26040833  0.02778408  1.0
  Hf  Hf7  1  0.70312917  0.59374167  0.02778407  1.0
  Hf  Hf8  1  0.70312917  0.92707500  0.02778407  1.0
  Hf  Hf9  1  0.20312917  0.26040833  0.07778408  1.0
  Hf  Hf10  1  0.20312917  0.59374167  0.07778408  1.0
  Hf  Hf11  1  0.20312917  0.92707500  0.07778408  1.0
  Hf  Hf12  1  0.53646250  0.26040833  0.07778408  1.0
  Hf  Hf13  1  0.53646250  0.59374167  0.07778407  1.0
  Hf  Hf14  1  0.53646250  0.92707500  0.07778408  1.0
  Hf  Hf15  1  0.86979583  0.26040833  0.07778407  1.0
  Hf  Hf16  1  0.86979583  0.59374167  0.07778408  1.0
  Hf  Hf17  1  0.86979583  0.92707500  0.07778407  1.0
  Hf  Hf18  1  0.13020417  0.07292500  0.01215157  1.0
  Hf  Hf19  1  0.13020417  0.40625833  0.01215158  1.0
  Hf  Hf20  1  0.13020417  0.73959167  0.01215158  1.0
  Hf  Hf21  1  0.46353750  0.07292500  0.01215157  1.0
  Hf  Hf22  1  0.46353750  0.40625833  0.01215157  1.0
  Hf  Hf23  1  0.46353750  0.73959167  0.01215158  1.0
  Hf  Hf24  1  0.79687083  0.07292500  0.01215157  1.0
  Hf  Hf25  1  0.79687083  0.40625833  0.01215157  1.0
  Hf  Hf26  1  0.79687083  0.73959167  0.01215157  1.0
  Hf  Hf27  1  0.29687083  0.07292500  0.06215157  1.0
  Hf  Hf28  1  0.29687083  0.40625833  0.06215157  1.0
  Hf  Hf29  1  0.29687083  0.73959167  0.06215157  1.0
  Hf  Hf30  1  0.63020417  0.07292500  0.06215157  1.0
  Hf  Hf31  1  0.63020417  0.40625833  0.06215157  1.0
  Hf  Hf32  1  0.63020417  0.73959167  0.06215158  1.0
  Hf  Hf33  1  0.96353750  0.07292500  0.06215157  1.0
  Hf  Hf34  1  0.96353750  0.40625833  0.06215158  1.0
  Hf  Hf35  1  0.96353750  0.73959167  0.06215158  1.0
  Hf  Hf36  1  0.16666667  0.00000000  0.04496783  1.0
  Hf  Hf37  1  0.16666667  0.33333333  0.04496783  1.0
  Hf  Hf38  1  0.16666667  0.66666667  0.04496782  1.0
  Hf  Hf39  1  0.50000000  0.00000000  0.04496783  1.0
  Hf  Hf40  1  0.50000000  0.33333333  0.04496783  1.0
  Hf  Hf41  1  0.50000000  0.66666667  0.04496782  1.0
  Hf  Hf42  1  0.83333333  0.00000000  0.04496782  1.0
  Hf  Hf43  1  0.83333333  0.33333333  0.04496782  1.0
  Hf  Hf44  1  0.83333333  0.66666667  0.04496782  1.0
  Hf  Hf45  1  0.00000000  0.00000000  0.09496782  1.0
  Hf  Hf46  1  0.00000000  0.33333333  0.09496783  1.0
  Hf  Hf47  1  0.00000000  0.66666667  0.09496783  1.0
  Hf  Hf48  1  0.33333333  0.00000000  0.09496782  1.0
  Hf  Hf49  1  0.33333333  0.33333333  0.09496782  1.0
  Hf  Hf50  1  0.33333333  0.66666667  0.09496783  1.0
  Hf  Hf51  1  0.66666667  0.00000000  0.09496782  1.0
  Hf  Hf52  1  0.66666667  0.33333333  0.09496782  1.0
  Hf  Hf53  1  0.66666667  0.66666667  0.09496782  1.0
  Ni  Ni54  1  0.12595550  0.23758433  0.01463057  1.0
  Ni  Ni55  1  0.12595550  0.57091767  0.01463057  1.0
  Ni  Ni56  1  0.12595550  0.90425100  0.01463057  1.0
  Ni  Ni57  1  0.45928883  0.23758433  0.01463057  1.0
  Ni  Ni58  1  0.45928883  0.57091767  0.01463057  1.0
  Ni  Ni59  1  0.45928883  0.90425100  0.01463057  1.0
  Ni  Ni60  1  0.79262217  0.23758433  0.01463058  1.0
  Ni  Ni61  1  0.79262217  0.57091767  0.01463057  1.0
  Ni  Ni62  1  0.79262217  0.90425100  0.01463057  1.0
  Ni  Ni63  1  0.29262217  0.23758433  0.06463058  1.0
  Ni  Ni64  1  0.29262217  0.57091767  0.06463058  1.0
  Ni  Ni65  1  0.29262217  0.90425100  0.06463058  1.0
  Ni  Ni66  1  0.62595550  0.23758433  0.06463058  1.0
  Ni  Ni67  1  0.62595550  0.57091767  0.06463058  1.0
  Ni  Ni68  1  0.62595550  0.90425100  0.06463058  1.0
  Ni  Ni69  1  0.95928883  0.23758433  0.06463058  1.0
  Ni  Ni70  1  0.95928883  0.57091767  0.06463058  1.0
  Ni  Ni71  1  0.95928883  0.90425100  0.06463058  1.0
  Ni  Ni72  1  0.04787450  0.23758433  0.08490347  1.0
  Ni  Ni73  1  0.04787450  0.57091767  0.08490348  1.0
  Ni  Ni74  1  0.04787450  0.90425100  0.08490348  1.0
  Ni  Ni75  1  0.38120783  0.23758433  0.08490348  1.0
  Ni  Ni76  1  0.38120783  0.57091767  0.08490347  1.0
  Ni  Ni77  1  0.38120783  0.90425100  0.08490348  1.0
  Ni  Ni78  1  0.71454117  0.23758433  0.08490348  1.0
  Ni  Ni79  1  0.71454117  0.57091767  0.08490347  1.0
  Ni  Ni80  1  0.71454117  0.90425100  0.08490347  1.0
  Ni  Ni81  1  0.21454117  0.23758433  0.03490347  1.0
  Ni  Ni82  1  0.21454117  0.57091767  0.03490347  1.0
  Ni  Ni83  1  0.21454117  0.90425100  0.03490347  1.0
  Ni  Ni84  1  0.54787450  0.23758433  0.03490347  1.0
  Ni  Ni85  1  0.54787450  0.57091767  0.03490347  1.0
  Ni  Ni86  1  0.54787450  0.90425100  0.03490348  1.0
  Ni  Ni87  1  0.88120783  0.23758433  0.03490347  1.0
  Ni  Ni88  1  0.88120783  0.57091767  0.03490347  1.0
  Ni  Ni89  1  0.88120783  0.90425100  0.03490347  1.0
  Ni  Ni90  1  0.04787450  0.08142233  0.08490347  1.0
  Ni  Ni91  1  0.04787450  0.41475567  0.08490348  1.0
  Ni  Ni92  1  0.04787450  0.74808900  0.08490348  1.0
  Ni  Ni93  1  0.38120783  0.08142233  0.08490347  1.0
  Ni  Ni94  1  0.38120783  0.41475567  0.08490347  1.0
  Ni  Ni95  1  0.38120783  0.74808900  0.08490347  1.0
  Ni  Ni96  1  0.71454117  0.08142233  0.08490347  1.0
  Ni  Ni97  1  0.71454117  0.41475567  0.08490347  1.0
  Ni  Ni98  1  0.71454117  0.74808900  0.08490347  1.0
  Ni  Ni99  1  0.21454117  0.08142233  0.03490347  1.0
  Ni  Ni100  1  0.21454117  0.41475567  0.03490347  1.0
  Ni  Ni101  1  0.21454117  0.74808900  0.03490347  1.0
  Ni  Ni102  1  0.54787450  0.08142233  0.03490347  1.0
  Ni  Ni103  1  0.54787450  0.41475567  0.03490347  1.0
  Ni  Ni104  1  0.54787450  0.74808900  0.03490348  1.0
  Ni  Ni105  1  0.88120783  0.08142233  0.03490347  1.0
  Ni  Ni106  1  0.88120783  0.41475567  0.03490347  1.0
  Ni  Ni107  1  0.88120783  0.74808900  0.03490347  1.0
  Ni  Ni108  1  0.08333333  0.00000000  0.01996782  1.0
  Ni  Ni109  1  0.08333333  0.33333333  0.01996782  1.0
  Ni  Ni110  1  0.08333333  0.66666667  0.01996783  1.0
  Ni  Ni111  1  0.41666667  0.00000000  0.01996782  1.0
  Ni  Ni112  1  0.41666667  0.33333333  0.01996782  1.0
  Ni  Ni113  1  0.41666667  0.66666667  0.01996783  1.0
  Ni  Ni114  1  0.75000000  0.00000000  0.01996782  1.0
  Ni  Ni115  1  0.75000000  0.33333333  0.01996782  1.0
  Ni  Ni116  1  0.75000000  0.66666667  0.01996782  1.0
  Ni  Ni117  1  0.25000000  0.00000000  0.06996783  1.0
  Ni  Ni118  1  0.25000000  0.33333333  0.06996782  1.0
  Ni  Ni119  1  0.25000000  0.66666667  0.06996783  1.0
  Ni  Ni120  1  0.58333333  0.00000000  0.06996782  1.0
  Ni  Ni121  1  0.58333333  0.33333333  0.06996782  1.0
  Ni  Ni122  1  0.58333333  0.66666667  0.06996782  1.0
  Ni  Ni123  1  0.91666667  0.00000000  0.06996782  1.0
  Ni  Ni124  1  0.91666667  0.33333333  0.06996782  1.0
  Ni  Ni125  1  0.91666667  0.66666667  0.06996782  1.0
  Ni  Ni126  1  0.08333333  0.16666667  0.01996782  1.0
  Ni  Ni127  1  0.08333333  0.50000000  0.01996782  1.0
  Ni  Ni128  1  0.08333333  0.83333333  0.01996783  1.0
  Ni  Ni129  1  0.41666667  0.16666667  0.01996782  1.0
  Ni  Ni130  1  0.41666667  0.50000000  0.01996782  1.0
  Ni  Ni131  1  0.41666667  0.83333333  0.01996782  1.0
  Ni  Ni132  1  0.75000000  0.16666667  0.01996782  1.0
  Ni  Ni133  1  0.75000000  0.50000000  0.01996782  1.0
  Ni  Ni134  1  0.75000000  0.83333333  0.01996782  1.0
  Ni  Ni135  1  0.25000000  0.16666667  0.06996783  1.0
  Ni  Ni136  1  0.25000000  0.50000000  0.06996783  1.0
  Ni  Ni137  1  0.25000000  0.83333333  0.06996783  1.0
  Ni  Ni138  1  0.58333333  0.16666667  0.06996782  1.0
  Ni  Ni139  1  0.58333333  0.50000000  0.06996782  1.0
  Ni  Ni140  1  0.58333333  0.83333333  0.06996783  1.0
  Ni  Ni141  1  0.91666667  0.16666667  0.06996782  1.0
  Ni  Ni142  1  0.91666667  0.50000000  0.06996783  1.0
  Ni  Ni143  1  0.91666667  0.83333333  0.06996783  1.0
  Ni  Ni144  1  0.16666667  0.16666667  0.04496782  1.0
  Ni  Ni145  1  0.16666667  0.50000000  0.04496783  1.0
  Ni  Ni146  1  0.16666667  0.83333333  0.04496783  1.0
  Ni  Ni147  1  0.50000000  0.16666667  0.04496783  1.0
  Ni  Ni148  1  0.50000000  0.50000000  0.04496783  1.0
  Ni  Ni149  1  0.50000000  0.83333333  0.04496783  1.0
  Ni  Ni150  1  0.83333333  0.16666667  0.04496783  1.0
  Ni  Ni151  1  0.83333333  0.50000000  0.04496783  1.0
  Ni  Ni152  1  0.83333333  0.83333333  0.04496783  1.0
  Ni  Ni153  1  0.00000000  0.16666667  0.09496782  1.0
  Ni  Ni154  1  0.00000000  0.50000000  0.09496782  1.0
  Ni  Ni155  1  0.00000000  0.83333333  0.09496783  1.0
  Ni  Ni156  1  0.33333333  0.16666667  0.09496782  1.0
  Ni  Ni157  1  0.33333333  0.50000000  0.09496783  1.0
  Ni  Ni158  1  0.33333333  0.83333333  0.09496783  1.0
  Ni  Ni159  1  0.66666667  0.16666667  0.09496782  1.0
  Ni  Ni160  1  0.66666667  0.50000000  0.09496782  1.0
  Ni  Ni161  1  0.66666667  0.83333333  0.09496782  1.0
  Ni  Ni162  1  0.11879217  0.25191100  0.05503217  1.0
  Ni  Ni163  1  0.11879217  0.58524433  0.05503217  1.0
  Ni  Ni164  1  0.11879217  0.91857767  0.05503217  1.0
  Ni  Ni165  1  0.45212550  0.25191100  0.05503218  1.0
  Ni  Ni166  1  0.45212550  0.58524433  0.05503217  1.0
  Ni  Ni167  1  0.45212550  0.91857767  0.05503218  1.0
  Ni  Ni168  1  0.78545883  0.25191100  0.05503217  1.0
  Ni  Ni169  1  0.78545883  0.58524433  0.05503217  1.0
  Ni  Ni170  1  0.78545883  0.91857767  0.05503217  1.0
  Ni  Ni171  1  0.28545883  0.25191100  0.00503217  1.0
  Ni  Ni172  1  0.28545883  0.58524433  0.00503217  1.0
  Ni  Ni173  1  0.28545883  0.91857767  0.00503217  1.0
  Ni  Ni174  1  0.61879217  0.25191100  0.00503217  1.0
  Ni  Ni175  1  0.61879217  0.58524433  0.00503217  1.0
  Ni  Ni176  1  0.61879217  0.91857767  0.00503217  1.0
  Ni  Ni177  1  0.95212550  0.25191100  0.00503217  1.0
  Ni  Ni178  1  0.95212550  0.58524433  0.00503217  1.0
  Ni  Ni179  1  0.95212550  0.91857767  0.00503217  1.0
  Ni  Ni180  1  0.11879217  0.09574900  0.05503218  1.0
  Ni  Ni181  1  0.11879217  0.42908233  0.05503218  1.0
  Ni  Ni182  1  0.11879217  0.76241567  0.05503218  1.0
  Ni  Ni183  1  0.45212550  0.09574900  0.05503217  1.0
  Ni  Ni184  1  0.45212550  0.42908233  0.05503218  1.0
  Ni  Ni185  1  0.45212550  0.76241567  0.05503218  1.0
  Ni  Ni186  1  0.78545883  0.09574900  0.05503218  1.0
  Ni  Ni187  1  0.78545883  0.42908233  0.05503218  1.0
  Ni  Ni188  1  0.78545883  0.76241567  0.05503218  1.0
  Ni  Ni189  1  0.28545883  0.09574900  0.00503218  1.0
  Ni  Ni190  1  0.28545883  0.42908233  0.00503218  1.0
  Ni  Ni191  1  0.28545883  0.76241567  0.00503218  1.0
  Ni  Ni192  1  0.61879217  0.09574900  0.00503217  1.0
  Ni  Ni193  1  0.61879217  0.42908233  0.00503218  1.0
  Ni  Ni194  1  0.61879217  0.76241567  0.00503218  1.0
  Ni  Ni195  1  0.95212550  0.09574900  0.00503218  1.0
  Ni  Ni196  1  0.95212550  0.42908233  0.00503218  1.0
  Ni  Ni197  1  0.95212550  0.76241567  0.00503217  1.0
  Ni  Ni198  1  0.04071117  0.09574900  0.02530508  1.0
  Ni  Ni199  1  0.04071117  0.42908233  0.02530508  1.0
  Ni  Ni200  1  0.04071117  0.76241567  0.02530508  1.0
  Ni  Ni201  1  0.37404450  0.09574900  0.02530508  1.0
  Ni  Ni202  1  0.37404450  0.42908233  0.02530507  1.0
  Ni  Ni203  1  0.37404450  0.76241567  0.02530508  1.0
  Ni  Ni204  1  0.70737783  0.09574900  0.02530508  1.0
  Ni  Ni205  1  0.70737783  0.42908233  0.02530508  1.0
  Ni  Ni206  1  0.70737783  0.76241567  0.02530508  1.0
  Ni  Ni207  1  0.20737783  0.09574900  0.07530508  1.0
  Ni  Ni208  1  0.20737783  0.42908233  0.07530508  1.0
  Ni  Ni209  1  0.20737783  0.76241567  0.07530508  1.0
  Ni  Ni210  1  0.54071117  0.09574900  0.07530507  1.0
  Ni  Ni211  1  0.54071117  0.42908233  0.07530507  1.0
  Ni  Ni212  1  0.54071117  0.76241567  0.07530508  1.0
  Ni  Ni213  1  0.87404450  0.09574900  0.07530507  1.0
  Ni  Ni214  1  0.87404450  0.42908233  0.07530508  1.0
  Ni  Ni215  1  0.87404450  0.76241567  0.07530508  1.0
  Hf  Hf216  1  0.03646250  0.26040833  0.12778408  1.0
  Hf  Hf217  1  0.03646250  0.59374167  0.12778407  1.0
  Hf  Hf218  1  0.03646250  0.92707500  0.12778408  1.0
  Hf  Hf219  1  0.36979583  0.26040833  0.12778408  1.0
  Hf  Hf220  1  0.36979583  0.59374167  0.12778407  1.0
  Hf  Hf221  1  0.36979583  0.92707500  0.12778407  1.0
  Hf  Hf222  1  0.70312917  0.26040833  0.12778407  1.0
  Hf  Hf223  1  0.70312917  0.59374167  0.12778407  1.0
  Hf  Hf224  1  0.70312917  0.92707500  0.12778407  1.0
  Hf  Hf225  1  0.20312917  0.26040833  0.17778407  1.0
  Hf  Hf226  1  0.20312917  0.59374167  0.17778407  1.0
  Hf  Hf227  1  0.20312917  0.92707500  0.17778408  1.0
  Hf  Hf228  1  0.53646250  0.26040833  0.17778408  1.0
  Hf  Hf229  1  0.53646250  0.59374167  0.17778407  1.0
  Hf  Hf230  1  0.53646250  0.92707500  0.17778407  1.0
  Hf  Hf231  1  0.86979583  0.26040833  0.17778407  1.0
  Hf  Hf232  1  0.86979583  0.59374167  0.17778408  1.0
  Hf  Hf233  1  0.86979583  0.92707500  0.17778407  1.0
  Hf  Hf234  1  0.13020417  0.07292500  0.11215158  1.0
  Hf  Hf235  1  0.13020417  0.40625833  0.11215157  1.0
  Hf  Hf236  1  0.13020417  0.73959167  0.11215158  1.0
  Hf  Hf237  1  0.46353750  0.07292500  0.11215157  1.0
  Hf  Hf238  1  0.46353750  0.40625833  0.11215158  1.0
  Hf  Hf239  1  0.46353750  0.73959167  0.11215158  1.0
  Hf  Hf240  1  0.79687083  0.07292500  0.11215157  1.0
  Hf  Hf241  1  0.79687083  0.40625833  0.11215157  1.0
  Hf  Hf242  1  0.79687083  0.73959167  0.11215157  1.0
  Hf  Hf243  1  0.29687083  0.07292500  0.16215157  1.0
  Hf  Hf244  1  0.29687083  0.40625833  0.16215157  1.0
  Hf  Hf245  1  0.29687083  0.73959167  0.16215157  1.0
  Hf  Hf246  1  0.63020417  0.07292500  0.16215157  1.0
  Hf  Hf247  1  0.63020417  0.40625833  0.16215157  1.0
  Hf  Hf248  1  0.63020417  0.73959167  0.16215157  1.0
  Hf  Hf249  1  0.96353750  0.07292500  0.16215157  1.0
  Hf  Hf250  1  0.96353750  0.40625833  0.16215157  1.0
  Hf  Hf251  1  0.96353750  0.73959167  0.16215157  1.0
  Hf  Hf252  1  0.16666667  0.00000000  0.14496782  1.0
  Hf  Hf253  1  0.16666667  0.33333333  0.14496782  1.0
  Hf  Hf254  1  0.16666667  0.66666667  0.14496782  1.0
  Hf  Hf255  1  0.50000000  0.00000000  0.14496782  1.0
  Hf  Hf256  1  0.50000000  0.33333333  0.14496782  1.0
  Hf  Hf257  1  0.50000000  0.66666667  0.14496782  1.0
  Hf  Hf258  1  0.83333333  0.00000000  0.14496782  1.0
  Hf  Hf259  1  0.83333333  0.33333333  0.14496782  1.0
  Hf  Hf260  1  0.83333333  0.66666667  0.14496782  1.0
  Hf  Hf261  1  0.00000000  0.00000000  0.19496782  1.0
  Hf  Hf262  1  0.00000000  0.33333333  0.19496783  1.0
  Hf  Hf263  1  0.00000000  0.66666667  0.19496783  1.0
  Hf  Hf264  1  0.33333333  0.00000000  0.19496783  1.0
  Hf  Hf265  1  0.33333333  0.33333333  0.19496782  1.0
  Hf  Hf266  1  0.33333333  0.66666667  0.19496783  1.0
  Hf  Hf267  1  0.66666667  0.00000000  0.19496783  1.0
  Hf  Hf268  1  0.66666667  0.33333333  0.19496782  1.0
  Hf  Hf269  1  0.66666667  0.66666667  0.19496782  1.0
  Ni  Ni270  1  0.12595550  0.23758433  0.11463057  1.0
  Ni  Ni271  1  0.12595550  0.57091767  0.11463057  1.0
  Ni  Ni272  1  0.12595550  0.90425100  0.11463058  1.0
  Ni  Ni273  1  0.45928883  0.23758433  0.11463057  1.0
  Ni  Ni274  1  0.45928883  0.57091767  0.11463058  1.0
  Ni  Ni275  1  0.45928883  0.90425100  0.11463057  1.0
  Ni  Ni276  1  0.79262217  0.23758433  0.11463058  1.0
  Ni  Ni277  1  0.79262217  0.57091767  0.11463057  1.0
  Ni  Ni278  1  0.79262217  0.90425100  0.11463057  1.0
  Ni  Ni279  1  0.29262217  0.23758433  0.16463058  1.0
  Ni  Ni280  1  0.29262217  0.57091767  0.16463058  1.0
  Ni  Ni281  1  0.29262217  0.90425100  0.16463058  1.0
  Ni  Ni282  1  0.62595550  0.23758433  0.16463058  1.0
  Ni  Ni283  1  0.62595550  0.57091767  0.16463058  1.0
  Ni  Ni284  1  0.62595550  0.90425100  0.16463058  1.0
  Ni  Ni285  1  0.95928883  0.23758433  0.16463058  1.0
  Ni  Ni286  1  0.95928883  0.57091767  0.16463058  1.0
  Ni  Ni287  1  0.95928883  0.90425100  0.16463058  1.0
  Ni  Ni288  1  0.04787450  0.23758433  0.18490347  1.0
  Ni  Ni289  1  0.04787450  0.57091767  0.18490347  1.0
  Ni  Ni290  1  0.04787450  0.90425100  0.18490347  1.0
  Ni  Ni291  1  0.38120783  0.23758433  0.18490347  1.0
  Ni  Ni292  1  0.38120783  0.57091767  0.18490348  1.0
  Ni  Ni293  1  0.38120783  0.90425100  0.18490348  1.0
  Ni  Ni294  1  0.71454117  0.23758433  0.18490348  1.0
  Ni  Ni295  1  0.71454117  0.57091767  0.18490347  1.0
  Ni  Ni296  1  0.71454117  0.90425100  0.18490347  1.0
  Ni  Ni297  1  0.21454117  0.23758433  0.13490347  1.0
  Ni  Ni298  1  0.21454117  0.57091767  0.13490347  1.0
  Ni  Ni299  1  0.21454117  0.90425100  0.13490348  1.0
  Ni  Ni300  1  0.54787450  0.23758433  0.13490347  1.0
  Ni  Ni301  1  0.54787450  0.57091767  0.13490348  1.0
  Ni  Ni302  1  0.54787450  0.90425100  0.13490347  1.0
  Ni  Ni303  1  0.88120783  0.23758433  0.13490347  1.0
  Ni  Ni304  1  0.88120783  0.57091767  0.13490347  1.0
  Ni  Ni305  1  0.88120783  0.90425100  0.13490347  1.0
  Ni  Ni306  1  0.04787450  0.08142233  0.18490347  1.0
  Ni  Ni307  1  0.04787450  0.41475567  0.18490347  1.0
  Ni  Ni308  1  0.04787450  0.74808900  0.18490348  1.0
  Ni  Ni309  1  0.38120783  0.08142233  0.18490347  1.0
  Ni  Ni310  1  0.38120783  0.41475567  0.18490347  1.0
  Ni  Ni311  1  0.38120783  0.74808900  0.18490347  1.0
  Ni  Ni312  1  0.71454117  0.08142233  0.18490347  1.0
  Ni  Ni313  1  0.71454117  0.41475567  0.18490347  1.0
  Ni  Ni314  1  0.71454117  0.74808900  0.18490347  1.0
  Ni  Ni315  1  0.21454117  0.08142233  0.13490347  1.0
  Ni  Ni316  1  0.21454117  0.41475567  0.13490347  1.0
  Ni  Ni317  1  0.21454117  0.74808900  0.13490347  1.0
  Ni  Ni318  1  0.54787450  0.08142233  0.13490348  1.0
  Ni  Ni319  1  0.54787450  0.41475567  0.13490347  1.0
  Ni  Ni320  1  0.54787450  0.74808900  0.13490347  1.0
  Ni  Ni321  1  0.88120783  0.08142233  0.13490347  1.0
  Ni  Ni322  1  0.88120783  0.41475567  0.13490347  1.0
  Ni  Ni323  1  0.88120783  0.74808900  0.13490347  1.0
  Ni  Ni324  1  0.08333333  0.00000000  0.11996782  1.0
  Ni  Ni325  1  0.08333333  0.33333333  0.11996782  1.0
  Ni  Ni326  1  0.08333333  0.66666667  0.11996783  1.0
  Ni  Ni327  1  0.41666667  0.00000000  0.11996782  1.0
  Ni  Ni328  1  0.41666667  0.33333333  0.11996783  1.0
  Ni  Ni329  1  0.41666667  0.66666667  0.11996783  1.0
  Ni  Ni330  1  0.75000000  0.00000000  0.11996783  1.0
  Ni  Ni331  1  0.75000000  0.33333333  0.11996782  1.0
  Ni  Ni332  1  0.75000000  0.66666667  0.11996782  1.0
  Ni  Ni333  1  0.25000000  0.00000000  0.16996782  1.0
  Ni  Ni334  1  0.25000000  0.33333333  0.16996782  1.0
  Ni  Ni335  1  0.25000000  0.66666667  0.16996783  1.0
  Ni  Ni336  1  0.58333333  0.00000000  0.16996782  1.0
  Ni  Ni337  1  0.58333333  0.33333333  0.16996782  1.0
  Ni  Ni338  1  0.58333333  0.66666667  0.16996782  1.0
  Ni  Ni339  1  0.91666667  0.00000000  0.16996782  1.0
  Ni  Ni340  1  0.91666667  0.33333333  0.16996782  1.0
  Ni  Ni341  1  0.91666667  0.66666667  0.16996782  1.0
  Ni  Ni342  1  0.08333333  0.16666667  0.11996782  1.0
  Ni  Ni343  1  0.08333333  0.50000000  0.11996783  1.0
  Ni  Ni344  1  0.08333333  0.83333333  0.11996783  1.0
  Ni  Ni345  1  0.41666667  0.16666667  0.11996782  1.0
  Ni  Ni346  1  0.41666667  0.50000000  0.11996782  1.0
  Ni  Ni347  1  0.41666667  0.83333333  0.11996782  1.0
  Ni  Ni348  1  0.75000000  0.16666667  0.11996783  1.0
  Ni  Ni349  1  0.75000000  0.50000000  0.11996783  1.0
  Ni  Ni350  1  0.75000000  0.83333333  0.11996783  1.0
  Ni  Ni351  1  0.25000000  0.16666667  0.16996783  1.0
  Ni  Ni352  1  0.25000000  0.50000000  0.16996783  1.0
  Ni  Ni353  1  0.25000000  0.83333333  0.16996783  1.0
  Ni  Ni354  1  0.58333333  0.16666667  0.16996782  1.0
  Ni  Ni355  1  0.58333333  0.50000000  0.16996782  1.0
  Ni  Ni356  1  0.58333333  0.83333333  0.16996783  1.0
  Ni  Ni357  1  0.91666667  0.16666667  0.16996782  1.0
  Ni  Ni358  1  0.91666667  0.50000000  0.16996783  1.0
  Ni  Ni359  1  0.91666667  0.83333333  0.16996783  1.0
  Ni  Ni360  1  0.16666667  0.16666667  0.14496783  1.0
  Ni  Ni361  1  0.16666667  0.50000000  0.14496782  1.0
  Ni  Ni362  1  0.16666667  0.83333333  0.14496783  1.0
  Ni  Ni363  1  0.50000000  0.16666667  0.14496783  1.0
  Ni  Ni364  1  0.50000000  0.50000000  0.14496783  1.0
  Ni  Ni365  1  0.50000000  0.83333333  0.14496783  1.0
  Ni  Ni366  1  0.83333333  0.16666667  0.14496783  1.0
  Ni  Ni367  1  0.83333333  0.50000000  0.14496783  1.0
  Ni  Ni368  1  0.83333333  0.83333333  0.14496783  1.0
  Ni  Ni369  1  0.00000000  0.16666667  0.19496782  1.0
  Ni  Ni370  1  0.00000000  0.50000000  0.19496782  1.0
  Ni  Ni371  1  0.00000000  0.83333333  0.19496782  1.0
  Ni  Ni372  1  0.33333333  0.16666667  0.19496782  1.0
  Ni  Ni373  1  0.33333333  0.50000000  0.19496782  1.0
  Ni  Ni374  1  0.33333333  0.83333333  0.19496782  1.0
  Ni  Ni375  1  0.66666667  0.16666667  0.19496782  1.0
  Ni  Ni376  1  0.66666667  0.50000000  0.19496782  1.0
  Ni  Ni377  1  0.66666667  0.83333333  0.19496782  1.0
  Ni  Ni378  1  0.11879217  0.25191100  0.15503217  1.0
  Ni  Ni379  1  0.11879217  0.58524433  0.15503217  1.0
  Ni  Ni380  1  0.11879217  0.91857767  0.15503217  1.0
  Ni  Ni381  1  0.45212550  0.25191100  0.15503217  1.0
  Ni  Ni382  1  0.45212550  0.58524433  0.15503217  1.0
  Ni  Ni383  1  0.45212550  0.91857767  0.15503217  1.0
  Ni  Ni384  1  0.78545883  0.25191100  0.15503217  1.0
  Ni  Ni385  1  0.78545883  0.58524433  0.15503217  1.0
  Ni  Ni386  1  0.78545883  0.91857767  0.15503217  1.0
  Ni  Ni387  1  0.28545883  0.25191100  0.10503218  1.0
  Ni  Ni388  1  0.28545883  0.58524433  0.10503218  1.0
  Ni  Ni389  1  0.28545883  0.91857767  0.10503218  1.0
  Ni  Ni390  1  0.61879217  0.25191100  0.10503218  1.0
  Ni  Ni391  1  0.61879217  0.58524433  0.10503217  1.0
  Ni  Ni392  1  0.61879217  0.91857767  0.10503218  1.0
  Ni  Ni393  1  0.95212550  0.25191100  0.10503217  1.0
  Ni  Ni394  1  0.95212550  0.58524433  0.10503218  1.0
  Ni  Ni395  1  0.95212550  0.91857767  0.10503217  1.0
  Ni  Ni396  1  0.11879217  0.09574900  0.15503217  1.0
  Ni  Ni397  1  0.11879217  0.42908233  0.15503217  1.0
  Ni  Ni398  1  0.11879217  0.76241567  0.15503217  1.0
  Ni  Ni399  1  0.45212550  0.09574900  0.15503217  1.0
  Ni  Ni400  1  0.45212550  0.42908233  0.15503217  1.0
  Ni  Ni401  1  0.45212550  0.76241567  0.15503218  1.0
  Ni  Ni402  1  0.78545883  0.09574900  0.15503217  1.0
  Ni  Ni403  1  0.78545883  0.42908233  0.15503217  1.0
  Ni  Ni404  1  0.78545883  0.76241567  0.15503217  1.0
  Ni  Ni405  1  0.28545883  0.09574900  0.10503218  1.0
  Ni  Ni406  1  0.28545883  0.42908233  0.10503218  1.0
  Ni  Ni407  1  0.28545883  0.76241567  0.10503218  1.0
  Ni  Ni408  1  0.61879217  0.09574900  0.10503217  1.0
  Ni  Ni409  1  0.61879217  0.42908233  0.10503218  1.0
  Ni  Ni410  1  0.61879217  0.76241567  0.10503218  1.0
  Ni  Ni411  1  0.95212550  0.09574900  0.10503218  1.0
  Ni  Ni412  1  0.95212550  0.42908233  0.10503218  1.0
  Ni  Ni413  1  0.95212550  0.76241567  0.10503217  1.0
  Ni  Ni414  1  0.04071117  0.09574900  0.12530508  1.0
  Ni  Ni415  1  0.04071117  0.42908233  0.12530508  1.0
  Ni  Ni416  1  0.04071117  0.76241567  0.12530508  1.0
  Ni  Ni417  1  0.37404450  0.09574900  0.12530508  1.0
  Ni  Ni418  1  0.37404450  0.42908233  0.12530507  1.0
  Ni  Ni419  1  0.37404450  0.76241567  0.12530507  1.0
  Ni  Ni420  1  0.70737783  0.09574900  0.12530508  1.0
  Ni  Ni421  1  0.70737783  0.42908233  0.12530507  1.0
  Ni  Ni422  1  0.70737783  0.76241567  0.12530507  1.0
  Ni  Ni423  1  0.20737783  0.09574900  0.17530507  1.0
  Ni  Ni424  1  0.20737783  0.42908233  0.17530507  1.0
  Ni  Ni425  1  0.20737783  0.76241567  0.17530508  1.0
  Ni  Ni426  1  0.54071117  0.09574900  0.17530508  1.0
  Ni  Ni427  1  0.54071117  0.42908233  0.17530507  1.0
  Ni  Ni428  1  0.54071117  0.76241567  0.17530508  1.0
  Ni  Ni429  1  0.87404450  0.09574900  0.17530508  1.0
  Ni  Ni430  1  0.87404450  0.42908233  0.17530508  1.0
  Ni  Ni431  1  0.87404450  0.76241567  0.17530508  1.0
  Hf  Hf432  1  0.03646250  0.26040833  0.22778408  1.0
  Hf  Hf433  1  0.03646250  0.59374167  0.22778408  1.0
  Hf  Hf434  1  0.03646250  0.92707500  0.22778408  1.0
  Hf  Hf435  1  0.36979583  0.26040833  0.22778407  1.0
  Hf  Hf436  1  0.36979583  0.59374167  0.22778407  1.0
  Hf  Hf437  1  0.36979583  0.92707500  0.22778408  1.0
  Hf  Hf438  1  0.70312917  0.26040833  0.22778407  1.0
  Hf  Hf439  1  0.70312917  0.59374167  0.22778407  1.0
  Hf  Hf440  1  0.70312917  0.92707500  0.22778407  1.0
  Hf  Hf441  1  0.20312917  0.26040833  0.27778408  1.0
  Hf  Hf442  1  0.20312917  0.59374167  0.27778408  1.0
  Hf  Hf443  1  0.20312917  0.92707500  0.27778408  1.0
  Hf  Hf444  1  0.53646250  0.26040833  0.27778408  1.0
  Hf  Hf445  1  0.53646250  0.59374167  0.27778408  1.0
  Hf  Hf446  1  0.53646250  0.92707500  0.27778407  1.0
  Hf  Hf447  1  0.86979583  0.26040833  0.27778407  1.0
  Hf  Hf448  1  0.86979583  0.59374167  0.27778408  1.0
  Hf  Hf449  1  0.86979583  0.92707500  0.27778407  1.0
  Hf  Hf450  1  0.13020417  0.07292500  0.21215157  1.0
  Hf  Hf451  1  0.13020417  0.40625833  0.21215157  1.0
  Hf  Hf452  1  0.13020417  0.73959167  0.21215158  1.0
  Hf  Hf453  1  0.46353750  0.07292500  0.21215157  1.0
  Hf  Hf454  1  0.46353750  0.40625833  0.21215158  1.0
  Hf  Hf455  1  0.46353750  0.73959167  0.21215158  1.0
  Hf  Hf456  1  0.79687083  0.07292500  0.21215158  1.0
  Hf  Hf457  1  0.79687083  0.40625833  0.21215157  1.0
  Hf  Hf458  1  0.79687083  0.73959167  0.21215157  1.0
  Hf  Hf459  1  0.29687083  0.07292500  0.26215157  1.0
  Hf  Hf460  1  0.29687083  0.40625833  0.26215157  1.0
  Hf  Hf461  1  0.29687083  0.73959167  0.26215157  1.0
  Hf  Hf462  1  0.63020417  0.07292500  0.26215157  1.0
  Hf  Hf463  1  0.63020417  0.40625833  0.26215157  1.0
  Hf  Hf464  1  0.63020417  0.73959167  0.26215157  1.0
  Hf  Hf465  1  0.96353750  0.07292500  0.26215157  1.0
  Hf  Hf466  1  0.96353750  0.40625833  0.26215158  1.0
  Hf  Hf467  1  0.96353750  0.73959167  0.26215158  1.0
  Hf  Hf468  1  0.16666667  0.00000000  0.24496782  1.0
  Hf  Hf469  1  0.16666667  0.33333333  0.24496782  1.0
  Hf  Hf470  1  0.16666667  0.66666667  0.24496783  1.0
  Hf  Hf471  1  0.50000000  0.00000000  0.24496782  1.0
  Hf  Hf472  1  0.50000000  0.33333333  0.24496782  1.0
  Hf  Hf473  1  0.50000000  0.66666667  0.24496782  1.0
  Hf  Hf474  1  0.83333333  0.00000000  0.24496782  1.0
  Hf  Hf475  1  0.83333333  0.33333333  0.24496782  1.0
  Hf  Hf476  1  0.83333333  0.66666667  0.24496782  1.0
  Hf  Hf477  1  0.00000000  0.00000000  0.29496783  1.0
  Hf  Hf478  1  0.00000000  0.33333333  0.29496783  1.0
  Hf  Hf479  1  0.00000000  0.66666667  0.29496783  1.0
  Hf  Hf480  1  0.33333333  0.00000000  0.29496783  1.0
  Hf  Hf481  1  0.33333333  0.33333333  0.29496783  1.0
  Hf  Hf482  1  0.33333333  0.66666667  0.29496783  1.0
  Hf  Hf483  1  0.66666667  0.00000000  0.29496783  1.0
  Hf  Hf484  1  0.66666667  0.33333333  0.29496782  1.0
  Hf  Hf485  1  0.66666667  0.66666667  0.29496782  1.0
  Ni  Ni486  1  0.12595550  0.23758433  0.21463057  1.0
  Ni  Ni487  1  0.12595550  0.57091767  0.21463057  1.0
  Ni  Ni488  1  0.12595550  0.90425100  0.21463057  1.0
  Ni  Ni489  1  0.45928883  0.23758433  0.21463057  1.0
  Ni  Ni490  1  0.45928883  0.57091767  0.21463057  1.0
  Ni  Ni491  1  0.45928883  0.90425100  0.21463057  1.0
  Ni  Ni492  1  0.79262217  0.23758433  0.21463058  1.0
  Ni  Ni493  1  0.79262217  0.57091767  0.21463057  1.0
  Ni  Ni494  1  0.79262217  0.90425100  0.21463057  1.0
  Ni  Ni495  1  0.29262217  0.23758433  0.26463057  1.0
  Ni  Ni496  1  0.29262217  0.57091767  0.26463057  1.0
  Ni  Ni497  1  0.29262217  0.90425100  0.26463057  1.0
  Ni  Ni498  1  0.62595550  0.23758433  0.26463057  1.0
  Ni  Ni499  1  0.62595550  0.57091767  0.26463057  1.0
  Ni  Ni500  1  0.62595550  0.90425100  0.26463057  1.0
  Ni  Ni501  1  0.95928883  0.23758433  0.26463058  1.0
  Ni  Ni502  1  0.95928883  0.57091767  0.26463057  1.0
  Ni  Ni503  1  0.95928883  0.90425100  0.26463057  1.0
  Ni  Ni504  1  0.04787450  0.23758433  0.28490348  1.0
  Ni  Ni505  1  0.04787450  0.57091767  0.28490348  1.0
  Ni  Ni506  1  0.04787450  0.90425100  0.28490348  1.0
  Ni  Ni507  1  0.38120783  0.23758433  0.28490348  1.0
  Ni  Ni508  1  0.38120783  0.57091767  0.28490348  1.0
  Ni  Ni509  1  0.38120783  0.90425100  0.28490348  1.0
  Ni  Ni510  1  0.71454117  0.23758433  0.28490348  1.0
  Ni  Ni511  1  0.71454117  0.57091767  0.28490348  1.0
  Ni  Ni512  1  0.71454117  0.90425100  0.28490348  1.0
  Ni  Ni513  1  0.21454117  0.23758433  0.23490348  1.0
  Ni  Ni514  1  0.21454117  0.57091767  0.23490348  1.0
  Ni  Ni515  1  0.21454117  0.90425100  0.23490348  1.0
  Ni  Ni516  1  0.54787450  0.23758433  0.23490347  1.0
  Ni  Ni517  1  0.54787450  0.57091767  0.23490348  1.0
  Ni  Ni518  1  0.54787450  0.90425100  0.23490347  1.0
  Ni  Ni519  1  0.88120783  0.23758433  0.23490348  1.0
  Ni  Ni520  1  0.88120783  0.57091767  0.23490347  1.0
  Ni  Ni521  1  0.88120783  0.90425100  0.23490347  1.0
  Ni  Ni522  1  0.04787450  0.08142233  0.28490348  1.0
  Ni  Ni523  1  0.04787450  0.41475567  0.28490348  1.0
  Ni  Ni524  1  0.04787450  0.74808900  0.28490348  1.0
  Ni  Ni525  1  0.38120783  0.08142233  0.28490348  1.0
  Ni  Ni526  1  0.38120783  0.41475567  0.28490348  1.0
  Ni  Ni527  1  0.38120783  0.74808900  0.28490347  1.0
  Ni  Ni528  1  0.71454117  0.08142233  0.28490348  1.0
  Ni  Ni529  1  0.71454117  0.41475567  0.28490347  1.0
  Ni  Ni530  1  0.71454117  0.74808900  0.28490347  1.0
  Ni  Ni531  1  0.21454117  0.08142233  0.23490347  1.0
  Ni  Ni532  1  0.21454117  0.41475567  0.23490347  1.0
  Ni  Ni533  1  0.21454117  0.74808900  0.23490347  1.0
  Ni  Ni534  1  0.54787450  0.08142233  0.23490348  1.0
  Ni  Ni535  1  0.54787450  0.41475567  0.23490347  1.0
  Ni  Ni536  1  0.54787450  0.74808900  0.23490348  1.0
  Ni  Ni537  1  0.88120783  0.08142233  0.23490347  1.0
  Ni  Ni538  1  0.88120783  0.41475567  0.23490347  1.0
  Ni  Ni539  1  0.88120783  0.74808900  0.23490347  1.0
  Ni  Ni540  1  0.08333333  0.00000000  0.21996783  1.0
  Ni  Ni541  1  0.08333333  0.33333333  0.21996783  1.0
  Ni  Ni542  1  0.08333333  0.66666667  0.21996783  1.0
  Ni  Ni543  1  0.41666667  0.00000000  0.21996783  1.0
  Ni  Ni544  1  0.41666667  0.33333333  0.21996783  1.0
  Ni  Ni545  1  0.41666667  0.66666667  0.21996783  1.0
  Ni  Ni546  1  0.75000000  0.00000000  0.21996783  1.0
  Ni  Ni547  1  0.75000000  0.33333333  0.21996783  1.0
  Ni  Ni548  1  0.75000000  0.66666667  0.21996783  1.0
  Ni  Ni549  1  0.25000000  0.00000000  0.26996783  1.0
  Ni  Ni550  1  0.25000000  0.33333333  0.26996782  1.0
  Ni  Ni551  1  0.25000000  0.66666667  0.26996783  1.0
  Ni  Ni552  1  0.58333333  0.00000000  0.26996782  1.0
  Ni  Ni553  1  0.58333333  0.33333333  0.26996783  1.0
  Ni  Ni554  1  0.58333333  0.66666667  0.26996782  1.0
  Ni  Ni555  1  0.91666667  0.00000000  0.26996782  1.0
  Ni  Ni556  1  0.91666667  0.33333333  0.26996782  1.0
  Ni  Ni557  1  0.91666667  0.66666667  0.26996782  1.0
  Ni  Ni558  1  0.08333333  0.16666667  0.21996783  1.0
  Ni  Ni559  1  0.08333333  0.50000000  0.21996782  1.0
  Ni  Ni560  1  0.08333333  0.83333333  0.21996783  1.0
  Ni  Ni561  1  0.41666667  0.16666667  0.21996782  1.0
  Ni  Ni562  1  0.41666667  0.50000000  0.21996782  1.0
  Ni  Ni563  1  0.41666667  0.83333333  0.21996783  1.0
  Ni  Ni564  1  0.75000000  0.16666667  0.21996783  1.0
  Ni  Ni565  1  0.75000000  0.50000000  0.21996783  1.0
  Ni  Ni566  1  0.75000000  0.83333333  0.21996783  1.0
  Ni  Ni567  1  0.25000000  0.16666667  0.26996782  1.0
  Ni  Ni568  1  0.25000000  0.50000000  0.26996782  1.0
  Ni  Ni569  1  0.25000000  0.83333333  0.26996782  1.0
  Ni  Ni570  1  0.58333333  0.16666667  0.26996783  1.0
  Ni  Ni571  1  0.58333333  0.50000000  0.26996782  1.0
  Ni  Ni572  1  0.58333333  0.83333333  0.26996782  1.0
  Ni  Ni573  1  0.91666667  0.16666667  0.26996782  1.0
  Ni  Ni574  1  0.91666667  0.50000000  0.26996783  1.0
  Ni  Ni575  1  0.91666667  0.83333333  0.26996782  1.0
  Ni  Ni576  1  0.16666667  0.16666667  0.24496783  1.0
  Ni  Ni577  1  0.16666667  0.50000000  0.24496783  1.0
  Ni  Ni578  1  0.16666667  0.83333333  0.24496783  1.0
  Ni  Ni579  1  0.50000000  0.16666667  0.24496783  1.0
  Ni  Ni580  1  0.50000000  0.50000000  0.24496783  1.0
  Ni  Ni581  1  0.50000000  0.83333333  0.24496783  1.0
  Ni  Ni582  1  0.83333333  0.16666667  0.24496783  1.0
  Ni  Ni583  1  0.83333333  0.50000000  0.24496783  1.0
  Ni  Ni584  1  0.83333333  0.83333333  0.24496782  1.0
  Ni  Ni585  1  0.00000000  0.16666667  0.29496783  1.0
  Ni  Ni586  1  0.00000000  0.50000000  0.29496783  1.0
  Ni  Ni587  1  0.00000000  0.83333333  0.29496783  1.0
  Ni  Ni588  1  0.33333333  0.16666667  0.29496782  1.0
  Ni  Ni589  1  0.33333333  0.50000000  0.29496783  1.0
  Ni  Ni590  1  0.33333333  0.83333333  0.29496783  1.0
  Ni  Ni591  1  0.66666667  0.16666667  0.29496783  1.0
  Ni  Ni592  1  0.66666667  0.50000000  0.29496783  1.0
  Ni  Ni593  1  0.66666667  0.83333333  0.29496783  1.0
  Ni  Ni594  1  0.11879217  0.25191100  0.25503217  1.0
  Ni  Ni595  1  0.11879217  0.58524433  0.25503217  1.0
  Ni  Ni596  1  0.11879217  0.91857767  0.25503218  1.0
  Ni  Ni597  1  0.45212550  0.25191100  0.25503217  1.0
  Ni  Ni598  1  0.45212550  0.58524433  0.25503217  1.0
  Ni  Ni599  1  0.45212550  0.91857767  0.25503218  1.0
  Ni  Ni600  1  0.78545883  0.25191100  0.25503217  1.0
  Ni  Ni601  1  0.78545883  0.58524433  0.25503217  1.0
  Ni  Ni602  1  0.78545883  0.91857767  0.25503217  1.0
  Ni  Ni603  1  0.28545883  0.25191100  0.20503218  1.0
  Ni  Ni604  1  0.28545883  0.58524433  0.20503217  1.0
  Ni  Ni605  1  0.28545883  0.91857767  0.20503217  1.0
  Ni  Ni606  1  0.61879217  0.25191100  0.20503217  1.0
  Ni  Ni607  1  0.61879217  0.58524433  0.20503217  1.0
  Ni  Ni608  1  0.61879217  0.91857767  0.20503218  1.0
  Ni  Ni609  1  0.95212550  0.25191100  0.20503217  1.0
  Ni  Ni610  1  0.95212550  0.58524433  0.20503217  1.0
  Ni  Ni611  1  0.95212550  0.91857767  0.20503218  1.0
  Ni  Ni612  1  0.11879217  0.09574900  0.25503218  1.0
  Ni  Ni613  1  0.11879217  0.42908233  0.25503218  1.0
  Ni  Ni614  1  0.11879217  0.76241567  0.25503218  1.0
  Ni  Ni615  1  0.45212550  0.09574900  0.25503217  1.0
  Ni  Ni616  1  0.45212550  0.42908233  0.25503217  1.0
  Ni  Ni617  1  0.45212550  0.76241567  0.25503218  1.0
  Ni  Ni618  1  0.78545883  0.09574900  0.25503217  1.0
  Ni  Ni619  1  0.78545883  0.42908233  0.25503217  1.0
  Ni  Ni620  1  0.78545883  0.76241567  0.25503217  1.0
  Ni  Ni621  1  0.28545883  0.09574900  0.20503218  1.0
  Ni  Ni622  1  0.28545883  0.42908233  0.20503218  1.0
  Ni  Ni623  1  0.28545883  0.76241567  0.20503217  1.0
  Ni  Ni624  1  0.61879217  0.09574900  0.20503218  1.0
  Ni  Ni625  1  0.61879217  0.42908233  0.20503218  1.0
  Ni  Ni626  1  0.61879217  0.76241567  0.20503218  1.0
  Ni  Ni627  1  0.95212550  0.09574900  0.20503218  1.0
  Ni  Ni628  1  0.95212550  0.42908233  0.20503217  1.0
  Ni  Ni629  1  0.95212550  0.76241567  0.20503218  1.0
  Ni  Ni630  1  0.04071117  0.09574900  0.22530507  1.0
  Ni  Ni631  1  0.04071117  0.42908233  0.22530507  1.0
  Ni  Ni632  1  0.04071117  0.76241567  0.22530508  1.0
  Ni  Ni633  1  0.37404450  0.09574900  0.22530508  1.0
  Ni  Ni634  1  0.37404450  0.42908233  0.22530508  1.0
  Ni  Ni635  1  0.37404450  0.76241567  0.22530507  1.0
  Ni  Ni636  1  0.70737783  0.09574900  0.22530508  1.0
  Ni  Ni637  1  0.70737783  0.42908233  0.22530507  1.0
  Ni  Ni638  1  0.70737783  0.76241567  0.22530507  1.0
  Ni  Ni639  1  0.20737783  0.09574900  0.27530508  1.0
  Ni  Ni640  1  0.20737783  0.42908233  0.27530508  1.0
  Ni  Ni641  1  0.20737783  0.76241567  0.27530508  1.0
  Ni  Ni642  1  0.54071117  0.09574900  0.27530508  1.0
  Ni  Ni643  1  0.54071117  0.42908233  0.27530507  1.0
  Ni  Ni644  1  0.54071117  0.76241567  0.27530508  1.0
  Ni  Ni645  1  0.87404450  0.09574900  0.27530508  1.0
  Ni  Ni646  1  0.87404450  0.42908233  0.27530508  1.0
  Ni  Ni647  1  0.87404450  0.76241567  0.27530508  1.0
  Hf  Hf648  1  0.03646250  0.26040833  0.32778408  1.0
  Hf  Hf649  1  0.03646250  0.59374167  0.32778407  1.0
  Hf  Hf650  1  0.03646250  0.92707500  0.32778408  1.0
  Hf  Hf651  1  0.36979583  0.26040833  0.32778407  1.0
  Hf  Hf652  1  0.36979583  0.59374167  0.32778407  1.0
  Hf  Hf653  1  0.36979583  0.92707500  0.32778408  1.0
  Hf  Hf654  1  0.70312917  0.26040833  0.32778407  1.0
  Hf  Hf655  1  0.70312917  0.59374167  0.32778407  1.0
  Hf  Hf656  1  0.70312917  0.92707500  0.32778407  1.0
  Hf  Hf657  1  0.20312917  0.26040833  0.37778407  1.0
  Hf  Hf658  1  0.20312917  0.59374167  0.37778408  1.0
  Hf  Hf659  1  0.20312917  0.92707500  0.37778407  1.0
  Hf  Hf660  1  0.53646250  0.26040833  0.37778408  1.0
  Hf  Hf661  1  0.53646250  0.59374167  0.37778407  1.0
  Hf  Hf662  1  0.53646250  0.92707500  0.37778408  1.0
  Hf  Hf663  1  0.86979583  0.26040833  0.37778407  1.0
  Hf  Hf664  1  0.86979583  0.59374167  0.37778408  1.0
  Hf  Hf665  1  0.86979583  0.92707500  0.37778407  1.0
  Hf  Hf666  1  0.13020417  0.07292500  0.31215158  1.0
  Hf  Hf667  1  0.13020417  0.40625833  0.31215158  1.0
  Hf  Hf668  1  0.13020417  0.73959167  0.31215158  1.0
  Hf  Hf669  1  0.46353750  0.07292500  0.31215157  1.0
  Hf  Hf670  1  0.46353750  0.40625833  0.31215158  1.0
  Hf  Hf671  1  0.46353750  0.73959167  0.31215158  1.0
  Hf  Hf672  1  0.79687083  0.07292500  0.31215158  1.0
  Hf  Hf673  1  0.79687083  0.40625833  0.31215157  1.0
  Hf  Hf674  1  0.79687083  0.73959167  0.31215157  1.0
  Hf  Hf675  1  0.29687083  0.07292500  0.36215158  1.0
  Hf  Hf676  1  0.29687083  0.40625833  0.36215158  1.0
  Hf  Hf677  1  0.29687083  0.73959167  0.36215158  1.0
  Hf  Hf678  1  0.63020417  0.07292500  0.36215158  1.0
  Hf  Hf679  1  0.63020417  0.40625833  0.36215158  1.0
  Hf  Hf680  1  0.63020417  0.73959167  0.36215157  1.0
  Hf  Hf681  1  0.96353750  0.07292500  0.36215157  1.0
  Hf  Hf682  1  0.96353750  0.40625833  0.36215157  1.0
  Hf  Hf683  1  0.96353750  0.73959167  0.36215157  1.0
  Hf  Hf684  1  0.16666667  0.00000000  0.34496783  1.0
  Hf  Hf685  1  0.16666667  0.33333333  0.34496783  1.0
  Hf  Hf686  1  0.16666667  0.66666667  0.34496783  1.0
  Hf  Hf687  1  0.50000000  0.00000000  0.34496783  1.0
  Hf  Hf688  1  0.50000000  0.33333333  0.34496783  1.0
  Hf  Hf689  1  0.50000000  0.66666667  0.34496782  1.0
  Hf  Hf690  1  0.83333333  0.00000000  0.34496782  1.0
  Hf  Hf691  1  0.83333333  0.33333333  0.34496783  1.0
  Hf  Hf692  1  0.83333333  0.66666667  0.34496782  1.0
  Hf  Hf693  1  0.00000000  0.00000000  0.39496782  1.0
  Hf  Hf694  1  0.00000000  0.33333333  0.39496782  1.0
  Hf  Hf695  1  0.00000000  0.66666667  0.39496783  1.0
  Hf  Hf696  1  0.33333333  0.00000000  0.39496782  1.0
  Hf  Hf697  1  0.33333333  0.33333333  0.39496782  1.0
  Hf  Hf698  1  0.33333333  0.66666667  0.39496783  1.0
  Hf  Hf699  1  0.66666667  0.00000000  0.39496782  1.0
  Hf  Hf700  1  0.66666667  0.33333333  0.39496782  1.0
  Hf  Hf701  1  0.66666667  0.66666667  0.39496782  1.0
  Ni  Ni702  1  0.12595550  0.23758433  0.31463057  1.0
  Ni  Ni703  1  0.12595550  0.57091767  0.31463058  1.0
  Ni  Ni704  1  0.12595550  0.90425100  0.31463057  1.0
  Ni  Ni705  1  0.45928883  0.23758433  0.31463057  1.0
  Ni  Ni706  1  0.45928883  0.57091767  0.31463058  1.0
  Ni  Ni707  1  0.45928883  0.90425100  0.31463058  1.0
  Ni  Ni708  1  0.79262217  0.23758433  0.31463058  1.0
  Ni  Ni709  1  0.79262217  0.57091767  0.31463057  1.0
  Ni  Ni710  1  0.79262217  0.90425100  0.31463057  1.0
  Ni  Ni711  1  0.29262217  0.23758433  0.36463057  1.0
  Ni  Ni712  1  0.29262217  0.57091767  0.36463057  1.0
  Ni  Ni713  1  0.29262217  0.90425100  0.36463057  1.0
  Ni  Ni714  1  0.62595550  0.23758433  0.36463057  1.0
  Ni  Ni715  1  0.62595550  0.57091767  0.36463057  1.0
  Ni  Ni716  1  0.62595550  0.90425100  0.36463057  1.0
  Ni  Ni717  1  0.95928883  0.23758433  0.36463058  1.0
  Ni  Ni718  1  0.95928883  0.57091767  0.36463057  1.0
  Ni  Ni719  1  0.95928883  0.90425100  0.36463058  1.0
  Ni  Ni720  1  0.04787450  0.23758433  0.38490347  1.0
  Ni  Ni721  1  0.04787450  0.57091767  0.38490347  1.0
  Ni  Ni722  1  0.04787450  0.90425100  0.38490347  1.0
  Ni  Ni723  1  0.38120783  0.23758433  0.38490347  1.0
  Ni  Ni724  1  0.38120783  0.57091767  0.38490347  1.0
  Ni  Ni725  1  0.38120783  0.90425100  0.38490347  1.0
  Ni  Ni726  1  0.71454117  0.23758433  0.38490348  1.0
  Ni  Ni727  1  0.71454117  0.57091767  0.38490347  1.0
  Ni  Ni728  1  0.71454117  0.90425100  0.38490347  1.0
  Ni  Ni729  1  0.21454117  0.23758433  0.33490348  1.0
  Ni  Ni730  1  0.21454117  0.57091767  0.33490348  1.0
  Ni  Ni731  1  0.21454117  0.90425100  0.33490347  1.0
  Ni  Ni732  1  0.54787450  0.23758433  0.33490347  1.0
  Ni  Ni733  1  0.54787450  0.57091767  0.33490348  1.0
  Ni  Ni734  1  0.54787450  0.90425100  0.33490347  1.0
  Ni  Ni735  1  0.88120783  0.23758433  0.33490348  1.0
  Ni  Ni736  1  0.88120783  0.57091767  0.33490348  1.0
  Ni  Ni737  1  0.88120783  0.90425100  0.33490348  1.0
  Ni  Ni738  1  0.04787450  0.08142233  0.38490347  1.0
  Ni  Ni739  1  0.04787450  0.41475567  0.38490348  1.0
  Ni  Ni740  1  0.04787450  0.74808900  0.38490347  1.0
  Ni  Ni741  1  0.38120783  0.08142233  0.38490347  1.0
  Ni  Ni742  1  0.38120783  0.41475567  0.38490347  1.0
  Ni  Ni743  1  0.38120783  0.74808900  0.38490347  1.0
  Ni  Ni744  1  0.71454117  0.08142233  0.38490347  1.0
  Ni  Ni745  1  0.71454117  0.41475567  0.38490347  1.0
  Ni  Ni746  1  0.71454117  0.74808900  0.38490347  1.0
  Ni  Ni747  1  0.21454117  0.08142233  0.33490348  1.0
  Ni  Ni748  1  0.21454117  0.41475567  0.33490347  1.0
  Ni  Ni749  1  0.21454117  0.74808900  0.33490347  1.0
  Ni  Ni750  1  0.54787450  0.08142233  0.33490348  1.0
  Ni  Ni751  1  0.54787450  0.41475567  0.33490347  1.0
  Ni  Ni752  1  0.54787450  0.74808900  0.33490348  1.0
  Ni  Ni753  1  0.88120783  0.08142233  0.33490347  1.0
  Ni  Ni754  1  0.88120783  0.41475567  0.33490347  1.0
  Ni  Ni755  1  0.88120783  0.74808900  0.33490347  1.0
  Ni  Ni756  1  0.08333333  0.00000000  0.31996782  1.0
  Ni  Ni757  1  0.08333333  0.33333333  0.31996782  1.0
  Ni  Ni758  1  0.08333333  0.66666667  0.31996783  1.0
  Ni  Ni759  1  0.41666667  0.00000000  0.31996782  1.0
  Ni  Ni760  1  0.41666667  0.33333333  0.31996782  1.0
  Ni  Ni761  1  0.41666667  0.66666667  0.31996782  1.0
  Ni  Ni762  1  0.75000000  0.00000000  0.31996782  1.0
  Ni  Ni763  1  0.75000000  0.33333333  0.31996782  1.0
  Ni  Ni764  1  0.75000000  0.66666667  0.31996782  1.0
  Ni  Ni765  1  0.25000000  0.00000000  0.36996783  1.0
  Ni  Ni766  1  0.25000000  0.33333333  0.36996783  1.0
  Ni  Ni767  1  0.25000000  0.66666667  0.36996783  1.0
  Ni  Ni768  1  0.58333333  0.00000000  0.36996782  1.0
  Ni  Ni769  1  0.58333333  0.33333333  0.36996783  1.0
  Ni  Ni770  1  0.58333333  0.66666667  0.36996783  1.0
  Ni  Ni771  1  0.91666667  0.00000000  0.36996782  1.0
  Ni  Ni772  1  0.91666667  0.33333333  0.36996782  1.0
  Ni  Ni773  1  0.91666667  0.66666667  0.36996782  1.0
  Ni  Ni774  1  0.08333333  0.16666667  0.31996782  1.0
  Ni  Ni775  1  0.08333333  0.50000000  0.31996782  1.0
  Ni  Ni776  1  0.08333333  0.83333333  0.31996783  1.0
  Ni  Ni777  1  0.41666667  0.16666667  0.31996782  1.0
  Ni  Ni778  1  0.41666667  0.50000000  0.31996782  1.0
  Ni  Ni779  1  0.41666667  0.83333333  0.31996782  1.0
  Ni  Ni780  1  0.75000000  0.16666667  0.31996782  1.0
  Ni  Ni781  1  0.75000000  0.50000000  0.31996782  1.0
  Ni  Ni782  1  0.75000000  0.83333333  0.31996782  1.0
  Ni  Ni783  1  0.25000000  0.16666667  0.36996782  1.0
  Ni  Ni784  1  0.25000000  0.50000000  0.36996783  1.0
  Ni  Ni785  1  0.25000000  0.83333333  0.36996782  1.0
  Ni  Ni786  1  0.58333333  0.16666667  0.36996783  1.0
  Ni  Ni787  1  0.58333333  0.50000000  0.36996782  1.0
  Ni  Ni788  1  0.58333333  0.83333333  0.36996783  1.0
  Ni  Ni789  1  0.91666667  0.16666667  0.36996782  1.0
  Ni  Ni790  1  0.91666667  0.50000000  0.36996783  1.0
  Ni  Ni791  1  0.91666667  0.83333333  0.36996782  1.0
  Ni  Ni792  1  0.16666667  0.16666667  0.34496782  1.0
  Ni  Ni793  1  0.16666667  0.50000000  0.34496783  1.0
  Ni  Ni794  1  0.16666667  0.83333333  0.34496782  1.0
  Ni  Ni795  1  0.50000000  0.16666667  0.34496782  1.0
  Ni  Ni796  1  0.50000000  0.50000000  0.34496783  1.0
  Ni  Ni797  1  0.50000000  0.83333333  0.34496782  1.0
  Ni  Ni798  1  0.83333333  0.16666667  0.34496783  1.0
  Ni  Ni799  1  0.83333333  0.50000000  0.34496782  1.0
  Ni  Ni800  1  0.83333333  0.83333333  0.34496783  1.0
  Ni  Ni801  1  0.00000000  0.16666667  0.39496782  1.0
  Ni  Ni802  1  0.00000000  0.50000000  0.39496782  1.0
  Ni  Ni803  1  0.00000000  0.83333333  0.39496782  1.0
  Ni  Ni804  1  0.33333333  0.16666667  0.39496782  1.0
  Ni  Ni805  1  0.33333333  0.50000000  0.39496782  1.0
  Ni  Ni806  1  0.33333333  0.83333333  0.39496783  1.0
  Ni  Ni807  1  0.66666667  0.16666667  0.39496782  1.0
  Ni  Ni808  1  0.66666667  0.50000000  0.39496783  1.0
  Ni  Ni809  1  0.66666667  0.83333333  0.39496783  1.0
  Ni  Ni810  1  0.11879217  0.25191100  0.35503217  1.0
  Ni  Ni811  1  0.11879217  0.58524433  0.35503217  1.0
  Ni  Ni812  1  0.11879217  0.91857767  0.35503217  1.0
  Ni  Ni813  1  0.45212550  0.25191100  0.35503217  1.0
  Ni  Ni814  1  0.45212550  0.58524433  0.35503217  1.0
  Ni  Ni815  1  0.45212550  0.91857767  0.35503218  1.0
  Ni  Ni816  1  0.78545883  0.25191100  0.35503217  1.0
  Ni  Ni817  1  0.78545883  0.58524433  0.35503217  1.0
  Ni  Ni818  1  0.78545883  0.91857767  0.35503217  1.0
  Ni  Ni819  1  0.28545883  0.25191100  0.30503217  1.0
  Ni  Ni820  1  0.28545883  0.58524433  0.30503217  1.0
  Ni  Ni821  1  0.28545883  0.91857767  0.30503217  1.0
  Ni  Ni822  1  0.61879217  0.25191100  0.30503217  1.0
  Ni  Ni823  1  0.61879217  0.58524433  0.30503217  1.0
  Ni  Ni824  1  0.61879217  0.91857767  0.30503218  1.0
  Ni  Ni825  1  0.95212550  0.25191100  0.30503218  1.0
  Ni  Ni826  1  0.95212550  0.58524433  0.30503218  1.0
  Ni  Ni827  1  0.95212550  0.91857767  0.30503217  1.0
  Ni  Ni828  1  0.11879217  0.09574900  0.35503218  1.0
  Ni  Ni829  1  0.11879217  0.42908233  0.35503218  1.0
  Ni  Ni830  1  0.11879217  0.76241567  0.35503218  1.0
  Ni  Ni831  1  0.45212550  0.09574900  0.35503218  1.0
  Ni  Ni832  1  0.45212550  0.42908233  0.35503217  1.0
  Ni  Ni833  1  0.45212550  0.76241567  0.35503218  1.0
  Ni  Ni834  1  0.78545883  0.09574900  0.35503217  1.0
  Ni  Ni835  1  0.78545883  0.42908233  0.35503217  1.0
  Ni  Ni836  1  0.78545883  0.76241567  0.35503217  1.0
  Ni  Ni837  1  0.28545883  0.09574900  0.30503218  1.0
  Ni  Ni838  1  0.28545883  0.42908233  0.30503218  1.0
  Ni  Ni839  1  0.28545883  0.76241567  0.30503218  1.0
  Ni  Ni840  1  0.61879217  0.09574900  0.30503218  1.0
  Ni  Ni841  1  0.61879217  0.42908233  0.30503218  1.0
  Ni  Ni842  1  0.61879217  0.76241567  0.30503218  1.0
  Ni  Ni843  1  0.95212550  0.09574900  0.30503218  1.0
  Ni  Ni844  1  0.95212550  0.42908233  0.30503217  1.0
  Ni  Ni845  1  0.95212550  0.76241567  0.30503218  1.0
  Ni  Ni846  1  0.04071117  0.09574900  0.32530508  1.0
  Ni  Ni847  1  0.04071117  0.42908233  0.32530508  1.0
  Ni  Ni848  1  0.04071117  0.76241567  0.32530508  1.0
  Ni  Ni849  1  0.37404450  0.09574900  0.32530508  1.0
  Ni  Ni850  1  0.37404450  0.42908233  0.32530508  1.0
  Ni  Ni851  1  0.37404450  0.76241567  0.32530508  1.0
  Ni  Ni852  1  0.70737783  0.09574900  0.32530508  1.0
  Ni  Ni853  1  0.70737783  0.42908233  0.32530507  1.0
  Ni  Ni854  1  0.70737783  0.76241567  0.32530507  1.0
  Ni  Ni855  1  0.20737783  0.09574900  0.37530507  1.0
  Ni  Ni856  1  0.20737783  0.42908233  0.37530507  1.0
  Ni  Ni857  1  0.20737783  0.76241567  0.37530507  1.0
  Ni  Ni858  1  0.54071117  0.09574900  0.37530507  1.0
  Ni  Ni859  1  0.54071117  0.42908233  0.37530507  1.0
  Ni  Ni860  1  0.54071117  0.76241567  0.37530507  1.0
  Ni  Ni861  1  0.87404450  0.09574900  0.37530508  1.0
  Ni  Ni862  1  0.87404450  0.42908233  0.37530507  1.0
  Ni  Ni863  1  0.87404450  0.76241567  0.37530507  1.0
