# generated using pymatgen
data_HfNi3
_symmetry_space_group_name_H-M   'P 1'
_cell_length_a   27.36606648
_cell_length_b   66.14635200
_cell_length_c   26.33300975
_cell_angle_alpha   76.18065490
_cell_angle_beta   90.00000000
_cell_angle_gamma   90.00000000
_symmetry_Int_Tables_number   1
_chemical_formula_structural   HfNi3
_chemical_formula_sum   'Hf360 Ni1080'
_cell_volume   46287.31794383
_cell_formula_units_Z   360
loop_
 _symmetry_equiv_pos_site_id
 _symmetry_equiv_pos_as_xyz
  1  'x, y, z'
loop_
 _atom_site_type_symbol
 _atom_site_label
 _atom_site_symmetry_multiplicity
 _atom_site_fract_x
 _atom_site_fract_y
 _atom_site_fract_z
 _atom_site_occupancy
  Hf  Hf0  1  0.11111111  0.15128433  0.10922940  1.0
  Hf  Hf1  1  0.11111111  0.48461767  0.10922940  1.0
  Hf  Hf2  1  0.11111111  0.81795100  0.10922940  1.0
  Hf  Hf3  1  0.44444444  0.15128433  0.10922940  1.0
  Hf  Hf4  1  0.44444444  0.48461767  0.10922940  1.0
  Hf  Hf5  1  0.44444444  0.81795100  0.10922940  1.0
  Hf  Hf6  1  0.77777778  0.15128433  0.10922940  1.0
  Hf  Hf7  1  0.77777778  0.48461767  0.10922940  1.0
  Hf  Hf8  1  0.77777778  0.81795100  0.10922940  1.0
  Hf  Hf9  1  0.27777778  0.15128433  0.00922940  1.0
  Hf  Hf10  1  0.27777778  0.48461767  0.00922940  1.0
  Hf  Hf11  1  0.27777778  0.81795100  0.00922940  1.0
  Hf  Hf12  1  0.61111111  0.15128433  0.00922940  1.0
  Hf  Hf13  1  0.61111111  0.48461767  0.00922940  1.0
  Hf  Hf14  1  0.61111111  0.81795100  0.00922940  1.0
  Hf  Hf15  1  0.94444444  0.15128433  0.00922940  1.0
  Hf  Hf16  1  0.94444444  0.48461767  0.00922940  1.0
  Hf  Hf17  1  0.94444444  0.81795100  0.00922940  1.0
  Hf  Hf18  1  0.05555556  0.31795100  0.10922940  1.0
  Hf  Hf19  1  0.05555556  0.65128433  0.10922940  1.0
  Hf  Hf20  1  0.05555556  0.98461767  0.10922940  1.0
  Hf  Hf21  1  0.38888889  0.31795100  0.10922940  1.0
  Hf  Hf22  1  0.38888889  0.65128433  0.10922940  1.0
  Hf  Hf23  1  0.38888889  0.98461767  0.10922940  1.0
  Hf  Hf24  1  0.72222222  0.31795100  0.10922940  1.0
  Hf  Hf25  1  0.72222222  0.65128433  0.10922940  1.0
  Hf  Hf26  1  0.72222222  0.98461767  0.10922940  1.0
  Hf  Hf27  1  0.22222222  0.31795100  0.00922940  1.0
  Hf  Hf28  1  0.22222222  0.65128433  0.00922940  1.0
  Hf  Hf29  1  0.22222222  0.98461767  0.00922940  1.0
  Hf  Hf30  1  0.55555556  0.31795100  0.00922940  1.0
  Hf  Hf31  1  0.55555556  0.65128433  0.00922940  1.0
  Hf  Hf32  1  0.55555556  0.98461767  0.00922940  1.0
  Hf  Hf33  1  0.88888889  0.31795100  0.00922940  1.0
  Hf  Hf34  1  0.88888889  0.65128433  0.00922940  1.0
  Hf  Hf35  1  0.88888889  0.98461767  0.00922940  1.0
  Hf  Hf36  1  0.05555556  0.18204900  0.19077060  1.0
  Hf  Hf37  1  0.05555556  0.51538233  0.19077060  1.0
  Hf  Hf38  1  0.05555556  0.84871567  0.19077060  1.0
  Hf  Hf39  1  0.38888889  0.18204900  0.19077060  1.0
  Hf  Hf40  1  0.38888889  0.51538233  0.19077060  1.0
  Hf  Hf41  1  0.38888889  0.84871567  0.19077060  1.0
  Hf  Hf42  1  0.72222222  0.18204900  0.19077060  1.0
  Hf  Hf43  1  0.72222222  0.51538233  0.19077060  1.0
  Hf  Hf44  1  0.72222222  0.84871567  0.19077060  1.0
  Hf  Hf45  1  0.22222222  0.18204900  0.09077060  1.0
  Hf  Hf46  1  0.22222222  0.51538233  0.09077060  1.0
  Hf  Hf47  1  0.22222222  0.84871567  0.09077060  1.0
  Hf  Hf48  1  0.55555556  0.18204900  0.09077060  1.0
  Hf  Hf49  1  0.55555556  0.51538233  0.09077060  1.0
  Hf  Hf50  1  0.55555556  0.84871567  0.09077060  1.0
  Hf  Hf51  1  0.88888889  0.18204900  0.09077060  1.0
  Hf  Hf52  1  0.88888889  0.51538233  0.09077060  1.0
  Hf  Hf53  1  0.88888889  0.84871567  0.09077060  1.0
  Hf  Hf54  1  0.11111111  0.01538233  0.19077060  1.0
  Hf  Hf55  1  0.11111111  0.34871567  0.19077060  1.0
  Hf  Hf56  1  0.11111111  0.68204900  0.19077060  1.0
  Hf  Hf57  1  0.44444444  0.01538233  0.19077060  1.0
  Hf  Hf58  1  0.44444444  0.34871567  0.19077060  1.0
  Hf  Hf59  1  0.44444444  0.68204900  0.19077060  1.0
  Hf  Hf60  1  0.77777778  0.01538233  0.19077060  1.0
  Hf  Hf61  1  0.77777778  0.34871567  0.19077060  1.0
  Hf  Hf62  1  0.77777778  0.68204900  0.19077060  1.0
  Hf  Hf63  1  0.27777778  0.01538233  0.09077060  1.0
  Hf  Hf64  1  0.27777778  0.34871567  0.09077060  1.0
  Hf  Hf65  1  0.27777778  0.68204900  0.09077060  1.0
  Hf  Hf66  1  0.61111111  0.01538233  0.09077060  1.0
  Hf  Hf67  1  0.61111111  0.34871567  0.09077060  1.0
  Hf  Hf68  1  0.61111111  0.68204900  0.09077060  1.0
  Hf  Hf69  1  0.94444444  0.01538233  0.09077060  1.0
  Hf  Hf70  1  0.94444444  0.34871567  0.09077060  1.0
  Hf  Hf71  1  0.94444444  0.68204900  0.09077060  1.0
  Hf  Hf72  1  0.11111111  0.21702233  0.06978660  1.0
  Hf  Hf73  1  0.11111111  0.55035567  0.06978660  1.0
  Hf  Hf74  1  0.11111111  0.88368900  0.06978660  1.0
  Hf  Hf75  1  0.44444444  0.21702233  0.06978660  1.0
  Hf  Hf76  1  0.44444444  0.55035567  0.06978660  1.0
  Hf  Hf77  1  0.44444444  0.88368900  0.06978660  1.0
  Hf  Hf78  1  0.77777778  0.21702233  0.06978660  1.0
  Hf  Hf79  1  0.77777778  0.55035567  0.06978660  1.0
  Hf  Hf80  1  0.77777778  0.88368900  0.06978660  1.0
  Hf  Hf81  1  0.27777778  0.21702233  0.16978660  1.0
  Hf  Hf82  1  0.27777778  0.55035567  0.16978660  1.0
  Hf  Hf83  1  0.27777778  0.88368900  0.16978660  1.0
  Hf  Hf84  1  0.61111111  0.21702233  0.16978660  1.0
  Hf  Hf85  1  0.61111111  0.55035567  0.16978660  1.0
  Hf  Hf86  1  0.61111111  0.88368900  0.16978660  1.0
  Hf  Hf87  1  0.94444444  0.21702233  0.16978660  1.0
  Hf  Hf88  1  0.94444444  0.55035567  0.16978660  1.0
  Hf  Hf89  1  0.94444444  0.88368900  0.16978660  1.0
  Hf  Hf90  1  0.05555556  0.05035567  0.06978660  1.0
  Hf  Hf91  1  0.05555556  0.38368900  0.06978660  1.0
  Hf  Hf92  1  0.05555556  0.71702233  0.06978660  1.0
  Hf  Hf93  1  0.38888889  0.05035567  0.06978660  1.0
  Hf  Hf94  1  0.38888889  0.38368900  0.06978660  1.0
  Hf  Hf95  1  0.38888889  0.71702233  0.06978660  1.0
  Hf  Hf96  1  0.72222222  0.05035567  0.06978660  1.0
  Hf  Hf97  1  0.72222222  0.38368900  0.06978660  1.0
  Hf  Hf98  1  0.72222222  0.71702233  0.06978660  1.0
  Hf  Hf99  1  0.22222222  0.05035567  0.16978660  1.0
  Hf  Hf100  1  0.22222222  0.38368900  0.16978660  1.0
  Hf  Hf101  1  0.22222222  0.71702233  0.16978660  1.0
  Hf  Hf102  1  0.55555556  0.05035567  0.16978660  1.0
  Hf  Hf103  1  0.55555556  0.38368900  0.16978660  1.0
  Hf  Hf104  1  0.55555556  0.71702233  0.16978660  1.0
  Hf  Hf105  1  0.88888889  0.05035567  0.16978660  1.0
  Hf  Hf106  1  0.88888889  0.38368900  0.16978660  1.0
  Hf  Hf107  1  0.88888889  0.71702233  0.16978660  1.0
  Hf  Hf108  1  0.05555556  0.11631100  0.03021340  1.0
  Hf  Hf109  1  0.05555556  0.44964433  0.03021340  1.0
  Hf  Hf110  1  0.05555556  0.78297767  0.03021340  1.0
  Hf  Hf111  1  0.38888889  0.11631100  0.03021340  1.0
  Hf  Hf112  1  0.38888889  0.44964433  0.03021340  1.0
  Hf  Hf113  1  0.38888889  0.78297767  0.03021340  1.0
  Hf  Hf114  1  0.72222222  0.11631100  0.03021340  1.0
  Hf  Hf115  1  0.72222222  0.44964433  0.03021340  1.0
  Hf  Hf116  1  0.72222222  0.78297767  0.03021340  1.0
  Hf  Hf117  1  0.22222222  0.11631100  0.13021340  1.0
  Hf  Hf118  1  0.22222222  0.44964433  0.13021340  1.0
  Hf  Hf119  1  0.22222222  0.78297767  0.13021340  1.0
  Hf  Hf120  1  0.55555556  0.11631100  0.13021340  1.0
  Hf  Hf121  1  0.55555556  0.44964433  0.13021340  1.0
  Hf  Hf122  1  0.55555556  0.78297767  0.13021340  1.0
  Hf  Hf123  1  0.88888889  0.11631100  0.13021340  1.0
  Hf  Hf124  1  0.88888889  0.44964433  0.13021340  1.0
  Hf  Hf125  1  0.88888889  0.78297767  0.13021340  1.0
  Hf  Hf126  1  0.11111111  0.28297767  0.03021340  1.0
  Hf  Hf127  1  0.11111111  0.61631100  0.03021340  1.0
  Hf  Hf128  1  0.11111111  0.94964433  0.03021340  1.0
  Hf  Hf129  1  0.44444444  0.28297767  0.03021340  1.0
  Hf  Hf130  1  0.44444444  0.61631100  0.03021340  1.0
  Hf  Hf131  1  0.44444444  0.94964433  0.03021340  1.0
  Hf  Hf132  1  0.77777778  0.28297767  0.03021340  1.0
  Hf  Hf133  1  0.77777778  0.61631100  0.03021340  1.0
  Hf  Hf134  1  0.77777778  0.94964433  0.03021340  1.0
  Hf  Hf135  1  0.27777778  0.28297767  0.13021340  1.0
  Hf  Hf136  1  0.27777778  0.61631100  0.13021340  1.0
  Hf  Hf137  1  0.27777778  0.94964433  0.13021340  1.0
  Hf  Hf138  1  0.61111111  0.28297767  0.13021340  1.0
  Hf  Hf139  1  0.61111111  0.61631100  0.13021340  1.0
  Hf  Hf140  1  0.61111111  0.94964433  0.13021340  1.0
  Hf  Hf141  1  0.94444444  0.28297767  0.13021340  1.0
  Hf  Hf142  1  0.94444444  0.61631100  0.13021340  1.0
  Hf  Hf143  1  0.94444444  0.94964433  0.13021340  1.0
  Hf  Hf144  1  0.16666667  0.08333333  0.05000000  1.0
  Hf  Hf145  1  0.16666667  0.41666667  0.05000000  1.0
  Hf  Hf146  1  0.16666667  0.75000000  0.05000000  1.0
  Hf  Hf147  1  0.50000000  0.08333333  0.05000000  1.0
  Hf  Hf148  1  0.50000000  0.41666667  0.05000000  1.0
  Hf  Hf149  1  0.50000000  0.75000000  0.05000000  1.0
  Hf  Hf150  1  0.83333333  0.08333333  0.05000000  1.0
  Hf  Hf151  1  0.83333333  0.41666667  0.05000000  1.0
  Hf  Hf152  1  0.83333333  0.75000000  0.05000000  1.0
  Hf  Hf153  1  0.00000000  0.08333333  0.15000000  1.0
  Hf  Hf154  1  0.00000000  0.41666667  0.15000000  1.0
  Hf  Hf155  1  0.00000000  0.75000000  0.15000000  1.0
  Hf  Hf156  1  0.33333333  0.08333333  0.15000000  1.0
  Hf  Hf157  1  0.33333333  0.41666667  0.15000000  1.0
  Hf  Hf158  1  0.33333333  0.75000000  0.15000000  1.0
  Hf  Hf159  1  0.66666667  0.08333333  0.15000000  1.0
  Hf  Hf160  1  0.66666667  0.41666667  0.15000000  1.0
  Hf  Hf161  1  0.66666667  0.75000000  0.15000000  1.0
  Hf  Hf162  1  0.16666667  0.25000000  0.15000000  1.0
  Hf  Hf163  1  0.16666667  0.58333333  0.15000000  1.0
  Hf  Hf164  1  0.16666667  0.91666667  0.15000000  1.0
  Hf  Hf165  1  0.50000000  0.25000000  0.15000000  1.0
  Hf  Hf166  1  0.50000000  0.58333333  0.15000000  1.0
  Hf  Hf167  1  0.50000000  0.91666667  0.15000000  1.0
  Hf  Hf168  1  0.83333333  0.25000000  0.15000000  1.0
  Hf  Hf169  1  0.83333333  0.58333333  0.15000000  1.0
  Hf  Hf170  1  0.83333333  0.91666667  0.15000000  1.0
  Hf  Hf171  1  0.00000000  0.25000000  0.05000000  1.0
  Hf  Hf172  1  0.00000000  0.58333333  0.05000000  1.0
  Hf  Hf173  1  0.00000000  0.91666667  0.05000000  1.0
  Hf  Hf174  1  0.33333333  0.25000000  0.05000000  1.0
  Hf  Hf175  1  0.33333333  0.58333333  0.05000000  1.0
  Hf  Hf176  1  0.33333333  0.91666667  0.05000000  1.0
  Hf  Hf177  1  0.66666667  0.25000000  0.05000000  1.0
  Hf  Hf178  1  0.66666667  0.58333333  0.05000000  1.0
  Hf  Hf179  1  0.66666667  0.91666667  0.05000000  1.0
  Ni  Ni180  1  0.11074400  0.28347267  0.12991640  1.0
  Ni  Ni181  1  0.11074400  0.61680600  0.12991640  1.0
  Ni  Ni182  1  0.11074400  0.95013933  0.12991640  1.0
  Ni  Ni183  1  0.44407733  0.28347267  0.12991640  1.0
  Ni  Ni184  1  0.44407733  0.61680600  0.12991640  1.0
  Ni  Ni185  1  0.44407733  0.95013933  0.12991640  1.0
  Ni  Ni186  1  0.77741067  0.28347267  0.12991640  1.0
  Ni  Ni187  1  0.77741067  0.61680600  0.12991640  1.0
  Ni  Ni188  1  0.77741067  0.95013933  0.12991640  1.0
  Ni  Ni189  1  0.27741067  0.28347267  0.02991640  1.0
  Ni  Ni190  1  0.27741067  0.61680600  0.02991640  1.0
  Ni  Ni191  1  0.27741067  0.95013933  0.02991640  1.0
  Ni  Ni192  1  0.61074400  0.28347267  0.02991640  1.0
  Ni  Ni193  1  0.61074400  0.61680600  0.02991640  1.0
  Ni  Ni194  1  0.61074400  0.95013933  0.02991640  1.0
  Ni  Ni195  1  0.94407733  0.28347267  0.02991640  1.0
  Ni  Ni196  1  0.94407733  0.61680600  0.02991640  1.0
  Ni  Ni197  1  0.94407733  0.95013933  0.02991640  1.0
  Ni  Ni198  1  0.02796133  0.28347267  0.08024680  1.0
  Ni  Ni199  1  0.02796133  0.61680600  0.08024680  1.0
  Ni  Ni200  1  0.02796133  0.95013933  0.08024680  1.0
  Ni  Ni201  1  0.36129467  0.28347267  0.08024680  1.0
  Ni  Ni202  1  0.36129467  0.61680600  0.08024680  1.0
  Ni  Ni203  1  0.36129467  0.95013933  0.08024680  1.0
  Ni  Ni204  1  0.69462800  0.28347267  0.08024680  1.0
  Ni  Ni205  1  0.69462800  0.61680600  0.08024680  1.0
  Ni  Ni206  1  0.69462800  0.95013933  0.08024680  1.0
  Ni  Ni207  1  0.19462800  0.28347267  0.18024680  1.0
  Ni  Ni208  1  0.19462800  0.61680600  0.18024680  1.0
  Ni  Ni209  1  0.19462800  0.95013933  0.18024680  1.0
  Ni  Ni210  1  0.52796133  0.28347267  0.18024680  1.0
  Ni  Ni211  1  0.52796133  0.61680600  0.18024680  1.0
  Ni  Ni212  1  0.52796133  0.95013933  0.18024680  1.0
  Ni  Ni213  1  0.86129467  0.28347267  0.18024680  1.0
  Ni  Ni214  1  0.86129467  0.61680600  0.18024680  1.0
  Ni  Ni215  1  0.86129467  0.95013933  0.18024680  1.0
  Ni  Ni216  1  0.02796133  0.28347267  0.17958600  1.0
  Ni  Ni217  1  0.02796133  0.61680600  0.17958600  1.0
  Ni  Ni218  1  0.02796133  0.95013933  0.17958600  1.0
  Ni  Ni219  1  0.36129467  0.28347267  0.17958600  1.0
  Ni  Ni220  1  0.36129467  0.61680600  0.17958600  1.0
  Ni  Ni221  1  0.36129467  0.95013933  0.17958600  1.0
  Ni  Ni222  1  0.69462800  0.28347267  0.17958600  1.0
  Ni  Ni223  1  0.69462800  0.61680600  0.17958600  1.0
  Ni  Ni224  1  0.69462800  0.95013933  0.17958600  1.0
  Ni  Ni225  1  0.19462800  0.28347267  0.07958600  1.0
  Ni  Ni226  1  0.19462800  0.61680600  0.07958600  1.0
  Ni  Ni227  1  0.19462800  0.95013933  0.07958600  1.0
  Ni  Ni228  1  0.52796133  0.28347267  0.07958600  1.0
  Ni  Ni229  1  0.52796133  0.61680600  0.07958600  1.0
  Ni  Ni230  1  0.52796133  0.95013933  0.07958600  1.0
  Ni  Ni231  1  0.86129467  0.28347267  0.07958600  1.0
  Ni  Ni232  1  0.86129467  0.61680600  0.07958600  1.0
  Ni  Ni233  1  0.86129467  0.95013933  0.07958600  1.0
  Ni  Ni234  1  0.13870533  0.11680600  0.08024680  1.0
  Ni  Ni235  1  0.13870533  0.45013933  0.08024680  1.0
  Ni  Ni236  1  0.13870533  0.78347267  0.08024680  1.0
  Ni  Ni237  1  0.47203867  0.11680600  0.08024680  1.0
  Ni  Ni238  1  0.47203867  0.45013933  0.08024680  1.0
  Ni  Ni239  1  0.47203867  0.78347267  0.08024680  1.0
  Ni  Ni240  1  0.80537200  0.11680600  0.08024680  1.0
  Ni  Ni241  1  0.80537200  0.45013933  0.08024680  1.0
  Ni  Ni242  1  0.80537200  0.78347267  0.08024680  1.0
  Ni  Ni243  1  0.30537200  0.11680600  0.18024680  1.0
  Ni  Ni244  1  0.30537200  0.45013933  0.18024680  1.0
  Ni  Ni245  1  0.30537200  0.78347267  0.18024680  1.0
  Ni  Ni246  1  0.63870533  0.11680600  0.18024680  1.0
  Ni  Ni247  1  0.63870533  0.45013933  0.18024680  1.0
  Ni  Ni248  1  0.63870533  0.78347267  0.18024680  1.0
  Ni  Ni249  1  0.97203867  0.11680600  0.18024680  1.0
  Ni  Ni250  1  0.97203867  0.45013933  0.18024680  1.0
  Ni  Ni251  1  0.97203867  0.78347267  0.18024680  1.0
  Ni  Ni252  1  0.13870533  0.04986067  0.01975320  1.0
  Ni  Ni253  1  0.13870533  0.38319400  0.01975320  1.0
  Ni  Ni254  1  0.13870533  0.71652733  0.01975320  1.0
  Ni  Ni255  1  0.47203867  0.04986067  0.01975320  1.0
  Ni  Ni256  1  0.47203867  0.38319400  0.01975320  1.0
  Ni  Ni257  1  0.47203867  0.71652733  0.01975320  1.0
  Ni  Ni258  1  0.80537200  0.04986067  0.01975320  1.0
  Ni  Ni259  1  0.80537200  0.38319400  0.01975320  1.0
  Ni  Ni260  1  0.80537200  0.71652733  0.01975320  1.0
  Ni  Ni261  1  0.30537200  0.04986067  0.11975320  1.0
  Ni  Ni262  1  0.30537200  0.38319400  0.11975320  1.0
  Ni  Ni263  1  0.30537200  0.71652733  0.11975320  1.0
  Ni  Ni264  1  0.63870533  0.04986067  0.11975320  1.0
  Ni  Ni265  1  0.63870533  0.38319400  0.11975320  1.0
  Ni  Ni266  1  0.63870533  0.71652733  0.11975320  1.0
  Ni  Ni267  1  0.97203867  0.04986067  0.11975320  1.0
  Ni  Ni268  1  0.97203867  0.38319400  0.11975320  1.0
  Ni  Ni269  1  0.97203867  0.71652733  0.11975320  1.0
  Ni  Ni270  1  0.05592267  0.11680600  0.12991640  1.0
  Ni  Ni271  1  0.05592267  0.45013933  0.12991640  1.0
  Ni  Ni272  1  0.05592267  0.78347267  0.12991640  1.0
  Ni  Ni273  1  0.38925600  0.11680600  0.12991640  1.0
  Ni  Ni274  1  0.38925600  0.45013933  0.12991640  1.0
  Ni  Ni275  1  0.38925600  0.78347267  0.12991640  1.0
  Ni  Ni276  1  0.72258933  0.11680600  0.12991640  1.0
  Ni  Ni277  1  0.72258933  0.45013933  0.12991640  1.0
  Ni  Ni278  1  0.72258933  0.78347267  0.12991640  1.0
  Ni  Ni279  1  0.22258933  0.11680600  0.02991640  1.0
  Ni  Ni280  1  0.22258933  0.45013933  0.02991640  1.0
  Ni  Ni281  1  0.22258933  0.78347267  0.02991640  1.0
  Ni  Ni282  1  0.55592267  0.11680600  0.02991640  1.0
  Ni  Ni283  1  0.55592267  0.45013933  0.02991640  1.0
  Ni  Ni284  1  0.55592267  0.78347267  0.02991640  1.0
  Ni  Ni285  1  0.88925600  0.11680600  0.02991640  1.0
  Ni  Ni286  1  0.88925600  0.45013933  0.02991640  1.0
  Ni  Ni287  1  0.88925600  0.78347267  0.02991640  1.0
  Ni  Ni288  1  0.13870533  0.11680600  0.17958600  1.0
  Ni  Ni289  1  0.13870533  0.45013933  0.17958600  1.0
  Ni  Ni290  1  0.13870533  0.78347267  0.17958600  1.0
  Ni  Ni291  1  0.47203867  0.11680600  0.17958600  1.0
  Ni  Ni292  1  0.47203867  0.45013933  0.17958600  1.0
  Ni  Ni293  1  0.47203867  0.78347267  0.17958600  1.0
  Ni  Ni294  1  0.80537200  0.11680600  0.17958600  1.0
  Ni  Ni295  1  0.80537200  0.45013933  0.17958600  1.0
  Ni  Ni296  1  0.80537200  0.78347267  0.17958600  1.0
  Ni  Ni297  1  0.30537200  0.11680600  0.07958600  1.0
  Ni  Ni298  1  0.30537200  0.45013933  0.07958600  1.0
  Ni  Ni299  1  0.30537200  0.78347267  0.07958600  1.0
  Ni  Ni300  1  0.63870533  0.11680600  0.07958600  1.0
  Ni  Ni301  1  0.63870533  0.45013933  0.07958600  1.0
  Ni  Ni302  1  0.63870533  0.78347267  0.07958600  1.0
  Ni  Ni303  1  0.97203867  0.11680600  0.07958600  1.0
  Ni  Ni304  1  0.97203867  0.45013933  0.07958600  1.0
  Ni  Ni305  1  0.97203867  0.78347267  0.07958600  1.0
  Ni  Ni306  1  0.11074400  0.21652733  0.17008360  1.0
  Ni  Ni307  1  0.11074400  0.54986067  0.17008360  1.0
  Ni  Ni308  1  0.11074400  0.88319400  0.17008360  1.0
  Ni  Ni309  1  0.44407733  0.21652733  0.17008360  1.0
  Ni  Ni310  1  0.44407733  0.54986067  0.17008360  1.0
  Ni  Ni311  1  0.44407733  0.88319400  0.17008360  1.0
  Ni  Ni312  1  0.77741067  0.21652733  0.17008360  1.0
  Ni  Ni313  1  0.77741067  0.54986067  0.17008360  1.0
  Ni  Ni314  1  0.77741067  0.88319400  0.17008360  1.0
  Ni  Ni315  1  0.27741067  0.21652733  0.07008360  1.0
  Ni  Ni316  1  0.27741067  0.54986067  0.07008360  1.0
  Ni  Ni317  1  0.27741067  0.88319400  0.07008360  1.0
  Ni  Ni318  1  0.61074400  0.21652733  0.07008360  1.0
  Ni  Ni319  1  0.61074400  0.54986067  0.07008360  1.0
  Ni  Ni320  1  0.61074400  0.88319400  0.07008360  1.0
  Ni  Ni321  1  0.94407733  0.21652733  0.07008360  1.0
  Ni  Ni322  1  0.94407733  0.54986067  0.07008360  1.0
  Ni  Ni323  1  0.94407733  0.88319400  0.07008360  1.0
  Ni  Ni324  1  0.02796133  0.21652733  0.01975320  1.0
  Ni  Ni325  1  0.02796133  0.54986067  0.01975320  1.0
  Ni  Ni326  1  0.02796133  0.88319400  0.01975320  1.0
  Ni  Ni327  1  0.36129467  0.21652733  0.01975320  1.0
  Ni  Ni328  1  0.36129467  0.54986067  0.01975320  1.0
  Ni  Ni329  1  0.36129467  0.88319400  0.01975320  1.0
  Ni  Ni330  1  0.69462800  0.21652733  0.01975320  1.0
  Ni  Ni331  1  0.69462800  0.54986067  0.01975320  1.0
  Ni  Ni332  1  0.69462800  0.88319400  0.01975320  1.0
  Ni  Ni333  1  0.19462800  0.21652733  0.11975320  1.0
  Ni  Ni334  1  0.19462800  0.54986067  0.11975320  1.0
  Ni  Ni335  1  0.19462800  0.88319400  0.11975320  1.0
  Ni  Ni336  1  0.52796133  0.21652733  0.11975320  1.0
  Ni  Ni337  1  0.52796133  0.54986067  0.11975320  1.0
  Ni  Ni338  1  0.52796133  0.88319400  0.11975320  1.0
  Ni  Ni339  1  0.86129467  0.21652733  0.11975320  1.0
  Ni  Ni340  1  0.86129467  0.54986067  0.11975320  1.0
  Ni  Ni341  1  0.86129467  0.88319400  0.11975320  1.0
  Ni  Ni342  1  0.13870533  0.04986067  0.12041400  1.0
  Ni  Ni343  1  0.13870533  0.38319400  0.12041400  1.0
  Ni  Ni344  1  0.13870533  0.71652733  0.12041400  1.0
  Ni  Ni345  1  0.47203867  0.04986067  0.12041400  1.0
  Ni  Ni346  1  0.47203867  0.38319400  0.12041400  1.0
  Ni  Ni347  1  0.47203867  0.71652733  0.12041400  1.0
  Ni  Ni348  1  0.80537200  0.04986067  0.12041400  1.0
  Ni  Ni349  1  0.80537200  0.38319400  0.12041400  1.0
  Ni  Ni350  1  0.80537200  0.71652733  0.12041400  1.0
  Ni  Ni351  1  0.30537200  0.04986067  0.02041400  1.0
  Ni  Ni352  1  0.30537200  0.38319400  0.02041400  1.0
  Ni  Ni353  1  0.30537200  0.71652733  0.02041400  1.0
  Ni  Ni354  1  0.63870533  0.04986067  0.02041400  1.0
  Ni  Ni355  1  0.63870533  0.38319400  0.02041400  1.0
  Ni  Ni356  1  0.63870533  0.71652733  0.02041400  1.0
  Ni  Ni357  1  0.97203867  0.04986067  0.02041400  1.0
  Ni  Ni358  1  0.97203867  0.38319400  0.02041400  1.0
  Ni  Ni359  1  0.97203867  0.71652733  0.02041400  1.0
  Ni  Ni360  1  0.08155792  0.25000000  0.19680425  1.0
  Ni  Ni361  1  0.08155792  0.58333333  0.19680425  1.0
  Ni  Ni362  1  0.08155792  0.91666667  0.19680425  1.0
  Ni  Ni363  1  0.41489125  0.25000000  0.19680425  1.0
  Ni  Ni364  1  0.41489125  0.58333333  0.19680425  1.0
  Ni  Ni365  1  0.41489125  0.91666667  0.19680425  1.0
  Ni  Ni366  1  0.74822458  0.25000000  0.19680425  1.0
  Ni  Ni367  1  0.74822458  0.58333333  0.19680425  1.0
  Ni  Ni368  1  0.74822458  0.91666667  0.19680425  1.0
  Ni  Ni369  1  0.24822458  0.25000000  0.09680425  1.0
  Ni  Ni370  1  0.24822458  0.58333333  0.09680425  1.0
  Ni  Ni371  1  0.24822458  0.91666667  0.09680425  1.0
  Ni  Ni372  1  0.58155792  0.25000000  0.09680425  1.0
  Ni  Ni373  1  0.58155792  0.58333333  0.09680425  1.0
  Ni  Ni374  1  0.58155792  0.91666667  0.09680425  1.0
  Ni  Ni375  1  0.91489125  0.25000000  0.09680425  1.0
  Ni  Ni376  1  0.91489125  0.58333333  0.09680425  1.0
  Ni  Ni377  1  0.91489125  0.91666667  0.09680425  1.0
  Ni  Ni378  1  0.16311583  0.08333333  0.15000000  1.0
  Ni  Ni379  1  0.16311583  0.41666667  0.15000000  1.0
  Ni  Ni380  1  0.16311583  0.75000000  0.15000000  1.0
  Ni  Ni381  1  0.49644917  0.08333333  0.15000000  1.0
  Ni  Ni382  1  0.49644917  0.41666667  0.15000000  1.0
  Ni  Ni383  1  0.49644917  0.75000000  0.15000000  1.0
  Ni  Ni384  1  0.82978250  0.08333333  0.15000000  1.0
  Ni  Ni385  1  0.82978250  0.41666667  0.15000000  1.0
  Ni  Ni386  1  0.82978250  0.75000000  0.15000000  1.0
  Ni  Ni387  1  0.32978250  0.08333333  0.05000000  1.0
  Ni  Ni388  1  0.32978250  0.41666667  0.05000000  1.0
  Ni  Ni389  1  0.32978250  0.75000000  0.05000000  1.0
  Ni  Ni390  1  0.66311583  0.08333333  0.05000000  1.0
  Ni  Ni391  1  0.66311583  0.41666667  0.05000000  1.0
  Ni  Ni392  1  0.66311583  0.75000000  0.05000000  1.0
  Ni  Ni393  1  0.99644917  0.08333333  0.05000000  1.0
  Ni  Ni394  1  0.99644917  0.41666667  0.05000000  1.0
  Ni  Ni395  1  0.99644917  0.75000000  0.05000000  1.0
  Ni  Ni396  1  0.08510875  0.08333333  0.19680425  1.0
  Ni  Ni397  1  0.08510875  0.41666667  0.19680425  1.0
  Ni  Ni398  1  0.08510875  0.75000000  0.19680425  1.0
  Ni  Ni399  1  0.41844208  0.08333333  0.19680425  1.0
  Ni  Ni400  1  0.41844208  0.41666667  0.19680425  1.0
  Ni  Ni401  1  0.41844208  0.75000000  0.19680425  1.0
  Ni  Ni402  1  0.75177542  0.08333333  0.19680425  1.0
  Ni  Ni403  1  0.75177542  0.41666667  0.19680425  1.0
  Ni  Ni404  1  0.75177542  0.75000000  0.19680425  1.0
  Ni  Ni405  1  0.25177542  0.08333333  0.09680425  1.0
  Ni  Ni406  1  0.25177542  0.41666667  0.09680425  1.0
  Ni  Ni407  1  0.25177542  0.75000000  0.09680425  1.0
  Ni  Ni408  1  0.58510875  0.08333333  0.09680425  1.0
  Ni  Ni409  1  0.58510875  0.41666667  0.09680425  1.0
  Ni  Ni410  1  0.58510875  0.75000000  0.09680425  1.0
  Ni  Ni411  1  0.91844208  0.08333333  0.09680425  1.0
  Ni  Ni412  1  0.91844208  0.41666667  0.09680425  1.0
  Ni  Ni413  1  0.91844208  0.75000000  0.09680425  1.0
  Ni  Ni414  1  0.08155792  0.25000000  0.10319575  1.0
  Ni  Ni415  1  0.08155792  0.58333333  0.10319575  1.0
  Ni  Ni416  1  0.08155792  0.91666667  0.10319575  1.0
  Ni  Ni417  1  0.41489125  0.25000000  0.10319575  1.0
  Ni  Ni418  1  0.41489125  0.58333333  0.10319575  1.0
  Ni  Ni419  1  0.41489125  0.91666667  0.10319575  1.0
  Ni  Ni420  1  0.74822458  0.25000000  0.10319575  1.0
  Ni  Ni421  1  0.74822458  0.58333333  0.10319575  1.0
  Ni  Ni422  1  0.74822458  0.91666667  0.10319575  1.0
  Ni  Ni423  1  0.24822458  0.25000000  0.00319575  1.0
  Ni  Ni424  1  0.24822458  0.58333333  0.00319575  1.0
  Ni  Ni425  1  0.24822458  0.91666667  0.00319575  1.0
  Ni  Ni426  1  0.58155792  0.25000000  0.00319575  1.0
  Ni  Ni427  1  0.58155792  0.58333333  0.00319575  1.0
  Ni  Ni428  1  0.58155792  0.91666667  0.00319575  1.0
  Ni  Ni429  1  0.91489125  0.25000000  0.00319575  1.0
  Ni  Ni430  1  0.91489125  0.58333333  0.00319575  1.0
  Ni  Ni431  1  0.91489125  0.91666667  0.00319575  1.0
  Ni  Ni432  1  0.00355083  0.25000000  0.15000000  1.0
  Ni  Ni433  1  0.00355083  0.58333333  0.15000000  1.0
  Ni  Ni434  1  0.00355083  0.91666667  0.15000000  1.0
  Ni  Ni435  1  0.33688417  0.25000000  0.15000000  1.0
  Ni  Ni436  1  0.33688417  0.58333333  0.15000000  1.0
  Ni  Ni437  1  0.33688417  0.91666667  0.15000000  1.0
  Ni  Ni438  1  0.67021750  0.25000000  0.15000000  1.0
  Ni  Ni439  1  0.67021750  0.58333333  0.15000000  1.0
  Ni  Ni440  1  0.67021750  0.91666667  0.15000000  1.0
  Ni  Ni441  1  0.17021750  0.25000000  0.05000000  1.0
  Ni  Ni442  1  0.17021750  0.58333333  0.05000000  1.0
  Ni  Ni443  1  0.17021750  0.91666667  0.05000000  1.0
  Ni  Ni444  1  0.50355083  0.25000000  0.05000000  1.0
  Ni  Ni445  1  0.50355083  0.58333333  0.05000000  1.0
  Ni  Ni446  1  0.50355083  0.91666667  0.05000000  1.0
  Ni  Ni447  1  0.83688417  0.25000000  0.05000000  1.0
  Ni  Ni448  1  0.83688417  0.58333333  0.05000000  1.0
  Ni  Ni449  1  0.83688417  0.91666667  0.05000000  1.0
  Ni  Ni450  1  0.08510875  0.08333333  0.10319575  1.0
  Ni  Ni451  1  0.08510875  0.41666667  0.10319575  1.0
  Ni  Ni452  1  0.08510875  0.75000000  0.10319575  1.0
  Ni  Ni453  1  0.41844208  0.08333333  0.10319575  1.0
  Ni  Ni454  1  0.41844208  0.41666667  0.10319575  1.0
  Ni  Ni455  1  0.41844208  0.75000000  0.10319575  1.0
  Ni  Ni456  1  0.75177542  0.08333333  0.10319575  1.0
  Ni  Ni457  1  0.75177542  0.41666667  0.10319575  1.0
  Ni  Ni458  1  0.75177542  0.75000000  0.10319575  1.0
  Ni  Ni459  1  0.25177542  0.08333333  0.00319575  1.0
  Ni  Ni460  1  0.25177542  0.41666667  0.00319575  1.0
  Ni  Ni461  1  0.25177542  0.75000000  0.00319575  1.0
  Ni  Ni462  1  0.58510875  0.08333333  0.00319575  1.0
  Ni  Ni463  1  0.58510875  0.41666667  0.00319575  1.0
  Ni  Ni464  1  0.58510875  0.75000000  0.00319575  1.0
  Ni  Ni465  1  0.91844208  0.08333333  0.00319575  1.0
  Ni  Ni466  1  0.91844208  0.41666667  0.00319575  1.0
  Ni  Ni467  1  0.91844208  0.75000000  0.00319575  1.0
  Ni  Ni468  1  0.14061758  0.18373100  0.14287305  1.0
  Ni  Ni469  1  0.14061758  0.51706433  0.14287305  1.0
  Ni  Ni470  1  0.14061758  0.85039767  0.14287305  1.0
  Ni  Ni471  1  0.47395092  0.18373100  0.14287305  1.0
  Ni  Ni472  1  0.47395092  0.51706433  0.14287305  1.0
  Ni  Ni473  1  0.47395092  0.85039767  0.14287305  1.0
  Ni  Ni474  1  0.80728425  0.18373100  0.14287305  1.0
  Ni  Ni475  1  0.80728425  0.51706433  0.14287305  1.0
  Ni  Ni476  1  0.80728425  0.85039767  0.14287305  1.0
  Ni  Ni477  1  0.30728425  0.18373100  0.04287305  1.0
  Ni  Ni478  1  0.30728425  0.51706433  0.04287305  1.0
  Ni  Ni479  1  0.30728425  0.85039767  0.04287305  1.0
  Ni  Ni480  1  0.64061758  0.18373100  0.04287305  1.0
  Ni  Ni481  1  0.64061758  0.51706433  0.04287305  1.0
  Ni  Ni482  1  0.64061758  0.85039767  0.04287305  1.0
  Ni  Ni483  1  0.97395092  0.18373100  0.04287305  1.0
  Ni  Ni484  1  0.97395092  0.51706433  0.04287305  1.0
  Ni  Ni485  1  0.97395092  0.85039767  0.04287305  1.0
  Ni  Ni486  1  0.11456850  0.01706433  0.08976140  1.0
  Ni  Ni487  1  0.11456850  0.35039767  0.08976140  1.0
  Ni  Ni488  1  0.11456850  0.68373100  0.08976140  1.0
  Ni  Ni489  1  0.44790183  0.01706433  0.08976140  1.0
  Ni  Ni490  1  0.44790183  0.35039767  0.08976140  1.0
  Ni  Ni491  1  0.44790183  0.68373100  0.08976140  1.0
  Ni  Ni492  1  0.78123517  0.01706433  0.08976140  1.0
  Ni  Ni493  1  0.78123517  0.35039767  0.08976140  1.0
  Ni  Ni494  1  0.78123517  0.68373100  0.08976140  1.0
  Ni  Ni495  1  0.28123517  0.01706433  0.18976140  1.0
  Ni  Ni496  1  0.28123517  0.35039767  0.18976140  1.0
  Ni  Ni497  1  0.28123517  0.68373100  0.18976140  1.0
  Ni  Ni498  1  0.61456850  0.01706433  0.18976140  1.0
  Ni  Ni499  1  0.61456850  0.35039767  0.18976140  1.0
  Ni  Ni500  1  0.61456850  0.68373100  0.18976140  1.0
  Ni  Ni501  1  0.94790183  0.01706433  0.18976140  1.0
  Ni  Ni502  1  0.94790183  0.35039767  0.18976140  1.0
  Ni  Ni503  1  0.94790183  0.68373100  0.18976140  1.0
  Ni  Ni504  1  0.02604908  0.01706433  0.14287305  1.0
  Ni  Ni505  1  0.02604908  0.35039767  0.14287305  1.0
  Ni  Ni506  1  0.02604908  0.68373100  0.14287305  1.0
  Ni  Ni507  1  0.35938242  0.01706433  0.14287305  1.0
  Ni  Ni508  1  0.35938242  0.35039767  0.14287305  1.0
  Ni  Ni509  1  0.35938242  0.68373100  0.14287305  1.0
  Ni  Ni510  1  0.69271575  0.01706433  0.14287305  1.0
  Ni  Ni511  1  0.69271575  0.35039767  0.14287305  1.0
  Ni  Ni512  1  0.69271575  0.68373100  0.14287305  1.0
  Ni  Ni513  1  0.19271575  0.01706433  0.04287305  1.0
  Ni  Ni514  1  0.19271575  0.35039767  0.04287305  1.0
  Ni  Ni515  1  0.19271575  0.68373100  0.04287305  1.0
  Ni  Ni516  1  0.52604908  0.01706433  0.04287305  1.0
  Ni  Ni517  1  0.52604908  0.35039767  0.04287305  1.0
  Ni  Ni518  1  0.52604908  0.68373100  0.04287305  1.0
  Ni  Ni519  1  0.85938242  0.01706433  0.04287305  1.0
  Ni  Ni520  1  0.85938242  0.35039767  0.04287305  1.0
  Ni  Ni521  1  0.85938242  0.68373100  0.04287305  1.0
  Ni  Ni522  1  0.14061758  0.18373100  0.03664975  1.0
  Ni  Ni523  1  0.14061758  0.51706433  0.03664975  1.0
  Ni  Ni524  1  0.14061758  0.85039767  0.03664975  1.0
  Ni  Ni525  1  0.47395092  0.18373100  0.03664975  1.0
  Ni  Ni526  1  0.47395092  0.51706433  0.03664975  1.0
  Ni  Ni527  1  0.47395092  0.85039767  0.03664975  1.0
  Ni  Ni528  1  0.80728425  0.18373100  0.03664975  1.0
  Ni  Ni529  1  0.80728425  0.51706433  0.03664975  1.0
  Ni  Ni530  1  0.80728425  0.85039767  0.03664975  1.0
  Ni  Ni531  1  0.30728425  0.18373100  0.13664975  1.0
  Ni  Ni532  1  0.30728425  0.51706433  0.13664975  1.0
  Ni  Ni533  1  0.30728425  0.85039767  0.13664975  1.0
  Ni  Ni534  1  0.64061758  0.18373100  0.13664975  1.0
  Ni  Ni535  1  0.64061758  0.51706433  0.13664975  1.0
  Ni  Ni536  1  0.64061758  0.85039767  0.13664975  1.0
  Ni  Ni537  1  0.97395092  0.18373100  0.13664975  1.0
  Ni  Ni538  1  0.97395092  0.51706433  0.13664975  1.0
  Ni  Ni539  1  0.97395092  0.85039767  0.13664975  1.0
  Ni  Ni540  1  0.05209817  0.18373100  0.08976140  1.0
  Ni  Ni541  1  0.05209817  0.51706433  0.08976140  1.0
  Ni  Ni542  1  0.05209817  0.85039767  0.08976140  1.0
  Ni  Ni543  1  0.38543150  0.18373100  0.08976140  1.0
  Ni  Ni544  1  0.38543150  0.51706433  0.08976140  1.0
  Ni  Ni545  1  0.38543150  0.85039767  0.08976140  1.0
  Ni  Ni546  1  0.71876483  0.18373100  0.08976140  1.0
  Ni  Ni547  1  0.71876483  0.51706433  0.08976140  1.0
  Ni  Ni548  1  0.71876483  0.85039767  0.08976140  1.0
  Ni  Ni549  1  0.21876483  0.18373100  0.18976140  1.0
  Ni  Ni550  1  0.21876483  0.51706433  0.18976140  1.0
  Ni  Ni551  1  0.21876483  0.85039767  0.18976140  1.0
  Ni  Ni552  1  0.55209817  0.18373100  0.18976140  1.0
  Ni  Ni553  1  0.55209817  0.51706433  0.18976140  1.0
  Ni  Ni554  1  0.55209817  0.85039767  0.18976140  1.0
  Ni  Ni555  1  0.88543150  0.18373100  0.18976140  1.0
  Ni  Ni556  1  0.88543150  0.51706433  0.18976140  1.0
  Ni  Ni557  1  0.88543150  0.85039767  0.18976140  1.0
  Ni  Ni558  1  0.02604908  0.14960233  0.15712695  1.0
  Ni  Ni559  1  0.02604908  0.48293567  0.15712695  1.0
  Ni  Ni560  1  0.02604908  0.81626900  0.15712695  1.0
  Ni  Ni561  1  0.35938242  0.14960233  0.15712695  1.0
  Ni  Ni562  1  0.35938242  0.48293567  0.15712695  1.0
  Ni  Ni563  1  0.35938242  0.81626900  0.15712695  1.0
  Ni  Ni564  1  0.69271575  0.14960233  0.15712695  1.0
  Ni  Ni565  1  0.69271575  0.48293567  0.15712695  1.0
  Ni  Ni566  1  0.69271575  0.81626900  0.15712695  1.0
  Ni  Ni567  1  0.19271575  0.14960233  0.05712695  1.0
  Ni  Ni568  1  0.19271575  0.48293567  0.05712695  1.0
  Ni  Ni569  1  0.19271575  0.81626900  0.05712695  1.0
  Ni  Ni570  1  0.52604908  0.14960233  0.05712695  1.0
  Ni  Ni571  1  0.52604908  0.48293567  0.05712695  1.0
  Ni  Ni572  1  0.52604908  0.81626900  0.05712695  1.0
  Ni  Ni573  1  0.85938242  0.14960233  0.05712695  1.0
  Ni  Ni574  1  0.85938242  0.48293567  0.05712695  1.0
  Ni  Ni575  1  0.85938242  0.81626900  0.05712695  1.0
  Ni  Ni576  1  0.11456850  0.14960233  0.01023860  1.0
  Ni  Ni577  1  0.11456850  0.48293567  0.01023860  1.0
  Ni  Ni578  1  0.11456850  0.81626900  0.01023860  1.0
  Ni  Ni579  1  0.44790183  0.14960233  0.01023860  1.0
  Ni  Ni580  1  0.44790183  0.48293567  0.01023860  1.0
  Ni  Ni581  1  0.44790183  0.81626900  0.01023860  1.0
  Ni  Ni582  1  0.78123517  0.14960233  0.01023860  1.0
  Ni  Ni583  1  0.78123517  0.48293567  0.01023860  1.0
  Ni  Ni584  1  0.78123517  0.81626900  0.01023860  1.0
  Ni  Ni585  1  0.28123517  0.14960233  0.11023860  1.0
  Ni  Ni586  1  0.28123517  0.48293567  0.11023860  1.0
  Ni  Ni587  1  0.28123517  0.81626900  0.11023860  1.0
  Ni  Ni588  1  0.61456850  0.14960233  0.11023860  1.0
  Ni  Ni589  1  0.61456850  0.48293567  0.11023860  1.0
  Ni  Ni590  1  0.61456850  0.81626900  0.11023860  1.0
  Ni  Ni591  1  0.94790183  0.14960233  0.11023860  1.0
  Ni  Ni592  1  0.94790183  0.48293567  0.11023860  1.0
  Ni  Ni593  1  0.94790183  0.81626900  0.11023860  1.0
  Ni  Ni594  1  0.02604908  0.01706433  0.03664975  1.0
  Ni  Ni595  1  0.02604908  0.35039767  0.03664975  1.0
  Ni  Ni596  1  0.02604908  0.68373100  0.03664975  1.0
  Ni  Ni597  1  0.35938242  0.01706433  0.03664975  1.0
  Ni  Ni598  1  0.35938242  0.35039767  0.03664975  1.0
  Ni  Ni599  1  0.35938242  0.68373100  0.03664975  1.0
  Ni  Ni600  1  0.69271575  0.01706433  0.03664975  1.0
  Ni  Ni601  1  0.69271575  0.35039767  0.03664975  1.0
  Ni  Ni602  1  0.69271575  0.68373100  0.03664975  1.0
  Ni  Ni603  1  0.19271575  0.01706433  0.13664975  1.0
  Ni  Ni604  1  0.19271575  0.35039767  0.13664975  1.0
  Ni  Ni605  1  0.19271575  0.68373100  0.13664975  1.0
  Ni  Ni606  1  0.52604908  0.01706433  0.13664975  1.0
  Ni  Ni607  1  0.52604908  0.35039767  0.13664975  1.0
  Ni  Ni608  1  0.52604908  0.68373100  0.13664975  1.0
  Ni  Ni609  1  0.85938242  0.01706433  0.13664975  1.0
  Ni  Ni610  1  0.85938242  0.35039767  0.13664975  1.0
  Ni  Ni611  1  0.85938242  0.68373100  0.13664975  1.0
  Ni  Ni612  1  0.02604908  0.14960233  0.06335025  1.0
  Ni  Ni613  1  0.02604908  0.48293567  0.06335025  1.0
  Ni  Ni614  1  0.02604908  0.81626900  0.06335025  1.0
  Ni  Ni615  1  0.35938242  0.14960233  0.06335025  1.0
  Ni  Ni616  1  0.35938242  0.48293567  0.06335025  1.0
  Ni  Ni617  1  0.35938242  0.81626900  0.06335025  1.0
  Ni  Ni618  1  0.69271575  0.14960233  0.06335025  1.0
  Ni  Ni619  1  0.69271575  0.48293567  0.06335025  1.0
  Ni  Ni620  1  0.69271575  0.81626900  0.06335025  1.0
  Ni  Ni621  1  0.19271575  0.14960233  0.16335025  1.0
  Ni  Ni622  1  0.19271575  0.48293567  0.16335025  1.0
  Ni  Ni623  1  0.19271575  0.81626900  0.16335025  1.0
  Ni  Ni624  1  0.52604908  0.14960233  0.16335025  1.0
  Ni  Ni625  1  0.52604908  0.48293567  0.16335025  1.0
  Ni  Ni626  1  0.52604908  0.81626900  0.16335025  1.0
  Ni  Ni627  1  0.85938242  0.14960233  0.16335025  1.0
  Ni  Ni628  1  0.85938242  0.48293567  0.16335025  1.0
  Ni  Ni629  1  0.85938242  0.81626900  0.16335025  1.0
  Ni  Ni630  1  0.14061758  0.31626900  0.15712695  1.0
  Ni  Ni631  1  0.14061758  0.64960233  0.15712695  1.0
  Ni  Ni632  1  0.14061758  0.98293567  0.15712695  1.0
  Ni  Ni633  1  0.47395092  0.31626900  0.15712695  1.0
  Ni  Ni634  1  0.47395092  0.64960233  0.15712695  1.0
  Ni  Ni635  1  0.47395092  0.98293567  0.15712695  1.0
  Ni  Ni636  1  0.80728425  0.31626900  0.15712695  1.0
  Ni  Ni637  1  0.80728425  0.64960233  0.15712695  1.0
  Ni  Ni638  1  0.80728425  0.98293567  0.15712695  1.0
  Ni  Ni639  1  0.30728425  0.31626900  0.05712695  1.0
  Ni  Ni640  1  0.30728425  0.64960233  0.05712695  1.0
  Ni  Ni641  1  0.30728425  0.98293567  0.05712695  1.0
  Ni  Ni642  1  0.64061758  0.31626900  0.05712695  1.0
  Ni  Ni643  1  0.64061758  0.64960233  0.05712695  1.0
  Ni  Ni644  1  0.64061758  0.98293567  0.05712695  1.0
  Ni  Ni645  1  0.97395092  0.31626900  0.05712695  1.0
  Ni  Ni646  1  0.97395092  0.64960233  0.05712695  1.0
  Ni  Ni647  1  0.97395092  0.98293567  0.05712695  1.0
  Ni  Ni648  1  0.14061758  0.31626900  0.06335025  1.0
  Ni  Ni649  1  0.14061758  0.64960233  0.06335025  1.0
  Ni  Ni650  1  0.14061758  0.98293567  0.06335025  1.0
  Ni  Ni651  1  0.47395092  0.31626900  0.06335025  1.0
  Ni  Ni652  1  0.47395092  0.64960233  0.06335025  1.0
  Ni  Ni653  1  0.47395092  0.98293567  0.06335025  1.0
  Ni  Ni654  1  0.80728425  0.31626900  0.06335025  1.0
  Ni  Ni655  1  0.80728425  0.64960233  0.06335025  1.0
  Ni  Ni656  1  0.80728425  0.98293567  0.06335025  1.0
  Ni  Ni657  1  0.30728425  0.31626900  0.16335025  1.0
  Ni  Ni658  1  0.30728425  0.64960233  0.16335025  1.0
  Ni  Ni659  1  0.30728425  0.98293567  0.16335025  1.0
  Ni  Ni660  1  0.64061758  0.31626900  0.16335025  1.0
  Ni  Ni661  1  0.64061758  0.64960233  0.16335025  1.0
  Ni  Ni662  1  0.64061758  0.98293567  0.16335025  1.0
  Ni  Ni663  1  0.97395092  0.31626900  0.16335025  1.0
  Ni  Ni664  1  0.97395092  0.64960233  0.16335025  1.0
  Ni  Ni665  1  0.97395092  0.98293567  0.16335025  1.0
  Ni  Ni666  1  0.05209817  0.31626900  0.01023860  1.0
  Ni  Ni667  1  0.05209817  0.64960233  0.01023860  1.0
  Ni  Ni668  1  0.05209817  0.98293567  0.01023860  1.0
  Ni  Ni669  1  0.38543150  0.31626900  0.01023860  1.0
  Ni  Ni670  1  0.38543150  0.64960233  0.01023860  1.0
  Ni  Ni671  1  0.38543150  0.98293567  0.01023860  1.0
  Ni  Ni672  1  0.71876483  0.31626900  0.01023860  1.0
  Ni  Ni673  1  0.71876483  0.64960233  0.01023860  1.0
  Ni  Ni674  1  0.71876483  0.98293567  0.01023860  1.0
  Ni  Ni675  1  0.21876483  0.31626900  0.11023860  1.0
  Ni  Ni676  1  0.21876483  0.64960233  0.11023860  1.0
  Ni  Ni677  1  0.21876483  0.98293567  0.11023860  1.0
  Ni  Ni678  1  0.55209817  0.31626900  0.11023860  1.0
  Ni  Ni679  1  0.55209817  0.64960233  0.11023860  1.0
  Ni  Ni680  1  0.55209817  0.98293567  0.11023860  1.0
  Ni  Ni681  1  0.88543150  0.31626900  0.11023860  1.0
  Ni  Ni682  1  0.88543150  0.64960233  0.11023860  1.0
  Ni  Ni683  1  0.88543150  0.98293567  0.11023860  1.0
  Ni  Ni684  1  0.02796133  0.21652733  0.12041400  1.0
  Ni  Ni685  1  0.02796133  0.54986067  0.12041400  1.0
  Ni  Ni686  1  0.02796133  0.88319400  0.12041400  1.0
  Ni  Ni687  1  0.36129467  0.21652733  0.12041400  1.0
  Ni  Ni688  1  0.36129467  0.54986067  0.12041400  1.0
  Ni  Ni689  1  0.36129467  0.88319400  0.12041400  1.0
  Ni  Ni690  1  0.69462800  0.21652733  0.12041400  1.0
  Ni  Ni691  1  0.69462800  0.54986067  0.12041400  1.0
  Ni  Ni692  1  0.69462800  0.88319400  0.12041400  1.0
  Ni  Ni693  1  0.19462800  0.21652733  0.02041400  1.0
  Ni  Ni694  1  0.19462800  0.54986067  0.02041400  1.0
  Ni  Ni695  1  0.19462800  0.88319400  0.02041400  1.0
  Ni  Ni696  1  0.52796133  0.21652733  0.02041400  1.0
  Ni  Ni697  1  0.52796133  0.54986067  0.02041400  1.0
  Ni  Ni698  1  0.52796133  0.88319400  0.02041400  1.0
  Ni  Ni699  1  0.86129467  0.21652733  0.02041400  1.0
  Ni  Ni700  1  0.86129467  0.54986067  0.02041400  1.0
  Ni  Ni701  1  0.86129467  0.88319400  0.02041400  1.0
  Ni  Ni702  1  0.05592267  0.04986067  0.17008360  1.0
  Ni  Ni703  1  0.05592267  0.38319400  0.17008360  1.0
  Ni  Ni704  1  0.05592267  0.71652733  0.17008360  1.0
  Ni  Ni705  1  0.38925600  0.04986067  0.17008360  1.0
  Ni  Ni706  1  0.38925600  0.38319400  0.17008360  1.0
  Ni  Ni707  1  0.38925600  0.71652733  0.17008360  1.0
  Ni  Ni708  1  0.72258933  0.04986067  0.17008360  1.0
  Ni  Ni709  1  0.72258933  0.38319400  0.17008360  1.0
  Ni  Ni710  1  0.72258933  0.71652733  0.17008360  1.0
  Ni  Ni711  1  0.22258933  0.04986067  0.07008360  1.0
  Ni  Ni712  1  0.22258933  0.38319400  0.07008360  1.0
  Ni  Ni713  1  0.22258933  0.71652733  0.07008360  1.0
  Ni  Ni714  1  0.55592267  0.04986067  0.07008360  1.0
  Ni  Ni715  1  0.55592267  0.38319400  0.07008360  1.0
  Ni  Ni716  1  0.55592267  0.71652733  0.07008360  1.0
  Ni  Ni717  1  0.88925600  0.04986067  0.07008360  1.0
  Ni  Ni718  1  0.88925600  0.38319400  0.07008360  1.0
  Ni  Ni719  1  0.88925600  0.71652733  0.07008360  1.0
  Hf  Hf720  1  0.11111111  0.15128433  0.30922940  1.0
  Hf  Hf721  1  0.11111111  0.48461767  0.30922940  1.0
  Hf  Hf722  1  0.11111111  0.81795100  0.30922940  1.0
  Hf  Hf723  1  0.44444444  0.15128433  0.30922940  1.0
  Hf  Hf724  1  0.44444444  0.48461767  0.30922940  1.0
  Hf  Hf725  1  0.44444444  0.81795100  0.30922940  1.0
  Hf  Hf726  1  0.77777778  0.15128433  0.30922940  1.0
  Hf  Hf727  1  0.77777778  0.48461767  0.30922940  1.0
  Hf  Hf728  1  0.77777778  0.81795100  0.30922940  1.0
  Hf  Hf729  1  0.27777778  0.15128433  0.20922940  1.0
  Hf  Hf730  1  0.27777778  0.48461767  0.20922940  1.0
  Hf  Hf731  1  0.27777778  0.81795100  0.20922940  1.0
  Hf  Hf732  1  0.61111111  0.15128433  0.20922940  1.0
  Hf  Hf733  1  0.61111111  0.48461767  0.20922940  1.0
  Hf  Hf734  1  0.61111111  0.81795100  0.20922940  1.0
  Hf  Hf735  1  0.94444444  0.15128433  0.20922940  1.0
  Hf  Hf736  1  0.94444444  0.48461767  0.20922940  1.0
  Hf  Hf737  1  0.94444444  0.81795100  0.20922940  1.0
  Hf  Hf738  1  0.05555556  0.31795100  0.30922940  1.0
  Hf  Hf739  1  0.05555556  0.65128433  0.30922940  1.0
  Hf  Hf740  1  0.05555556  0.98461767  0.30922940  1.0
  Hf  Hf741  1  0.38888889  0.31795100  0.30922940  1.0
  Hf  Hf742  1  0.38888889  0.65128433  0.30922940  1.0
  Hf  Hf743  1  0.38888889  0.98461767  0.30922940  1.0
  Hf  Hf744  1  0.72222222  0.31795100  0.30922940  1.0
  Hf  Hf745  1  0.72222222  0.65128433  0.30922940  1.0
  Hf  Hf746  1  0.72222222  0.98461767  0.30922940  1.0
  Hf  Hf747  1  0.22222222  0.31795100  0.20922940  1.0
  Hf  Hf748  1  0.22222222  0.65128433  0.20922940  1.0
  Hf  Hf749  1  0.22222222  0.98461767  0.20922940  1.0
  Hf  Hf750  1  0.55555556  0.31795100  0.20922940  1.0
  Hf  Hf751  1  0.55555556  0.65128433  0.20922940  1.0
  Hf  Hf752  1  0.55555556  0.98461767  0.20922940  1.0
  Hf  Hf753  1  0.88888889  0.31795100  0.20922940  1.0
  Hf  Hf754  1  0.88888889  0.65128433  0.20922940  1.0
  Hf  Hf755  1  0.88888889  0.98461767  0.20922940  1.0
  Hf  Hf756  1  0.05555556  0.18204900  0.39077060  1.0
  Hf  Hf757  1  0.05555556  0.51538233  0.39077060  1.0
  Hf  Hf758  1  0.05555556  0.84871567  0.39077060  1.0
  Hf  Hf759  1  0.38888889  0.18204900  0.39077060  1.0
  Hf  Hf760  1  0.38888889  0.51538233  0.39077060  1.0
  Hf  Hf761  1  0.38888889  0.84871567  0.39077060  1.0
  Hf  Hf762  1  0.72222222  0.18204900  0.39077060  1.0
  Hf  Hf763  1  0.72222222  0.51538233  0.39077060  1.0
  Hf  Hf764  1  0.72222222  0.84871567  0.39077060  1.0
  Hf  Hf765  1  0.22222222  0.18204900  0.29077060  1.0
  Hf  Hf766  1  0.22222222  0.51538233  0.29077060  1.0
  Hf  Hf767  1  0.22222222  0.84871567  0.29077060  1.0
  Hf  Hf768  1  0.55555556  0.18204900  0.29077060  1.0
  Hf  Hf769  1  0.55555556  0.51538233  0.29077060  1.0
  Hf  Hf770  1  0.55555556  0.84871567  0.29077060  1.0
  Hf  Hf771  1  0.88888889  0.18204900  0.29077060  1.0
  Hf  Hf772  1  0.88888889  0.51538233  0.29077060  1.0
  Hf  Hf773  1  0.88888889  0.84871567  0.29077060  1.0
  Hf  Hf774  1  0.11111111  0.01538233  0.39077060  1.0
  Hf  Hf775  1  0.11111111  0.34871567  0.39077060  1.0
  Hf  Hf776  1  0.11111111  0.68204900  0.39077060  1.0
  Hf  Hf777  1  0.44444444  0.01538233  0.39077060  1.0
  Hf  Hf778  1  0.44444444  0.34871567  0.39077060  1.0
  Hf  Hf779  1  0.44444444  0.68204900  0.39077060  1.0
  Hf  Hf780  1  0.77777778  0.01538233  0.39077060  1.0
  Hf  Hf781  1  0.77777778  0.34871567  0.39077060  1.0
  Hf  Hf782  1  0.77777778  0.68204900  0.39077060  1.0
  Hf  Hf783  1  0.27777778  0.01538233  0.29077060  1.0
  Hf  Hf784  1  0.27777778  0.34871567  0.29077060  1.0
  Hf  Hf785  1  0.27777778  0.68204900  0.29077060  1.0
  Hf  Hf786  1  0.61111111  0.01538233  0.29077060  1.0
  Hf  Hf787  1  0.61111111  0.34871567  0.29077060  1.0
  Hf  Hf788  1  0.61111111  0.68204900  0.29077060  1.0
  Hf  Hf789  1  0.94444444  0.01538233  0.29077060  1.0
  Hf  Hf790  1  0.94444444  0.34871567  0.29077060  1.0
  Hf  Hf791  1  0.94444444  0.68204900  0.29077060  1.0
  Hf  Hf792  1  0.11111111  0.21702233  0.26978660  1.0
  Hf  Hf793  1  0.11111111  0.55035567  0.26978660  1.0
  Hf  Hf794  1  0.11111111  0.88368900  0.26978660  1.0
  Hf  Hf795  1  0.44444444  0.21702233  0.26978660  1.0
  Hf  Hf796  1  0.44444444  0.55035567  0.26978660  1.0
  Hf  Hf797  1  0.44444444  0.88368900  0.26978660  1.0
  Hf  Hf798  1  0.77777778  0.21702233  0.26978660  1.0
  Hf  Hf799  1  0.77777778  0.55035567  0.26978660  1.0
  Hf  Hf800  1  0.77777778  0.88368900  0.26978660  1.0
  Hf  Hf801  1  0.27777778  0.21702233  0.36978660  1.0
  Hf  Hf802  1  0.27777778  0.55035567  0.36978660  1.0
  Hf  Hf803  1  0.27777778  0.88368900  0.36978660  1.0
  Hf  Hf804  1  0.61111111  0.21702233  0.36978660  1.0
  Hf  Hf805  1  0.61111111  0.55035567  0.36978660  1.0
  Hf  Hf806  1  0.61111111  0.88368900  0.36978660  1.0
  Hf  Hf807  1  0.94444444  0.21702233  0.36978660  1.0
  Hf  Hf808  1  0.94444444  0.55035567  0.36978660  1.0
  Hf  Hf809  1  0.94444444  0.88368900  0.36978660  1.0
  Hf  Hf810  1  0.05555556  0.05035567  0.26978660  1.0
  Hf  Hf811  1  0.05555556  0.38368900  0.26978660  1.0
  Hf  Hf812  1  0.05555556  0.71702233  0.26978660  1.0
  Hf  Hf813  1  0.38888889  0.05035567  0.26978660  1.0
  Hf  Hf814  1  0.38888889  0.38368900  0.26978660  1.0
  Hf  Hf815  1  0.38888889  0.71702233  0.26978660  1.0
  Hf  Hf816  1  0.72222222  0.05035567  0.26978660  1.0
  Hf  Hf817  1  0.72222222  0.38368900  0.26978660  1.0
  Hf  Hf818  1  0.72222222  0.71702233  0.26978660  1.0
  Hf  Hf819  1  0.22222222  0.05035567  0.36978660  1.0
  Hf  Hf820  1  0.22222222  0.38368900  0.36978660  1.0
  Hf  Hf821  1  0.22222222  0.71702233  0.36978660  1.0
  Hf  Hf822  1  0.55555556  0.05035567  0.36978660  1.0
  Hf  Hf823  1  0.55555556  0.38368900  0.36978660  1.0
  Hf  Hf824  1  0.55555556  0.71702233  0.36978660  1.0
  Hf  Hf825  1  0.88888889  0.05035567  0.36978660  1.0
  Hf  Hf826  1  0.88888889  0.38368900  0.36978660  1.0
  Hf  Hf827  1  0.88888889  0.71702233  0.36978660  1.0
  Hf  Hf828  1  0.05555556  0.11631100  0.23021340  1.0
  Hf  Hf829  1  0.05555556  0.44964433  0.23021340  1.0
  Hf  Hf830  1  0.05555556  0.78297767  0.23021340  1.0
  Hf  Hf831  1  0.38888889  0.11631100  0.23021340  1.0
  Hf  Hf832  1  0.38888889  0.44964433  0.23021340  1.0
  Hf  Hf833  1  0.38888889  0.78297767  0.23021340  1.0
  Hf  Hf834  1  0.72222222  0.11631100  0.23021340  1.0
  Hf  Hf835  1  0.72222222  0.44964433  0.23021340  1.0
  Hf  Hf836  1  0.72222222  0.78297767  0.23021340  1.0
  Hf  Hf837  1  0.22222222  0.11631100  0.33021340  1.0
  Hf  Hf838  1  0.22222222  0.44964433  0.33021340  1.0
  Hf  Hf839  1  0.22222222  0.78297767  0.33021340  1.0
  Hf  Hf840  1  0.55555556  0.11631100  0.33021340  1.0
  Hf  Hf841  1  0.55555556  0.44964433  0.33021340  1.0
  Hf  Hf842  1  0.55555556  0.78297767  0.33021340  1.0
  Hf  Hf843  1  0.88888889  0.11631100  0.33021340  1.0
  Hf  Hf844  1  0.88888889  0.44964433  0.33021340  1.0
  Hf  Hf845  1  0.88888889  0.78297767  0.33021340  1.0
  Hf  Hf846  1  0.11111111  0.28297767  0.23021340  1.0
  Hf  Hf847  1  0.11111111  0.61631100  0.23021340  1.0
  Hf  Hf848  1  0.11111111  0.94964433  0.23021340  1.0
  Hf  Hf849  1  0.44444444  0.28297767  0.23021340  1.0
  Hf  Hf850  1  0.44444444  0.61631100  0.23021340  1.0
  Hf  Hf851  1  0.44444444  0.94964433  0.23021340  1.0
  Hf  Hf852  1  0.77777778  0.28297767  0.23021340  1.0
  Hf  Hf853  1  0.77777778  0.61631100  0.23021340  1.0
  Hf  Hf854  1  0.77777778  0.94964433  0.23021340  1.0
  Hf  Hf855  1  0.27777778  0.28297767  0.33021340  1.0
  Hf  Hf856  1  0.27777778  0.61631100  0.33021340  1.0
  Hf  Hf857  1  0.27777778  0.94964433  0.33021340  1.0
  Hf  Hf858  1  0.61111111  0.28297767  0.33021340  1.0
  Hf  Hf859  1  0.61111111  0.61631100  0.33021340  1.0
  Hf  Hf860  1  0.61111111  0.94964433  0.33021340  1.0
  Hf  Hf861  1  0.94444444  0.28297767  0.33021340  1.0
  Hf  Hf862  1  0.94444444  0.61631100  0.33021340  1.0
  Hf  Hf863  1  0.94444444  0.94964433  0.33021340  1.0
  Hf  Hf864  1  0.16666667  0.08333333  0.25000000  1.0
  Hf  Hf865  1  0.16666667  0.41666667  0.25000000  1.0
  Hf  Hf866  1  0.16666667  0.75000000  0.25000000  1.0
  Hf  Hf867  1  0.50000000  0.08333333  0.25000000  1.0
  Hf  Hf868  1  0.50000000  0.41666667  0.25000000  1.0
  Hf  Hf869  1  0.50000000  0.75000000  0.25000000  1.0
  Hf  Hf870  1  0.83333333  0.08333333  0.25000000  1.0
  Hf  Hf871  1  0.83333333  0.41666667  0.25000000  1.0
  Hf  Hf872  1  0.83333333  0.75000000  0.25000000  1.0
  Hf  Hf873  1  0.00000000  0.08333333  0.35000000  1.0
  Hf  Hf874  1  0.00000000  0.41666667  0.35000000  1.0
  Hf  Hf875  1  0.00000000  0.75000000  0.35000000  1.0
  Hf  Hf876  1  0.33333333  0.08333333  0.35000000  1.0
  Hf  Hf877  1  0.33333333  0.41666667  0.35000000  1.0
  Hf  Hf878  1  0.33333333  0.75000000  0.35000000  1.0
  Hf  Hf879  1  0.66666667  0.08333333  0.35000000  1.0
  Hf  Hf880  1  0.66666667  0.41666667  0.35000000  1.0
  Hf  Hf881  1  0.66666667  0.75000000  0.35000000  1.0
  Hf  Hf882  1  0.16666667  0.25000000  0.35000000  1.0
  Hf  Hf883  1  0.16666667  0.58333333  0.35000000  1.0
  Hf  Hf884  1  0.16666667  0.91666667  0.35000000  1.0
  Hf  Hf885  1  0.50000000  0.25000000  0.35000000  1.0
  Hf  Hf886  1  0.50000000  0.58333333  0.35000000  1.0
  Hf  Hf887  1  0.50000000  0.91666667  0.35000000  1.0
  Hf  Hf888  1  0.83333333  0.25000000  0.35000000  1.0
  Hf  Hf889  1  0.83333333  0.58333333  0.35000000  1.0
  Hf  Hf890  1  0.83333333  0.91666667  0.35000000  1.0
  Hf  Hf891  1  0.00000000  0.25000000  0.25000000  1.0
  Hf  Hf892  1  0.00000000  0.58333333  0.25000000  1.0
  Hf  Hf893  1  0.00000000  0.91666667  0.25000000  1.0
  Hf  Hf894  1  0.33333333  0.25000000  0.25000000  1.0
  Hf  Hf895  1  0.33333333  0.58333333  0.25000000  1.0
  Hf  Hf896  1  0.33333333  0.91666667  0.25000000  1.0
  Hf  Hf897  1  0.66666667  0.25000000  0.25000000  1.0
  Hf  Hf898  1  0.66666667  0.58333333  0.25000000  1.0
  Hf  Hf899  1  0.66666667  0.91666667  0.25000000  1.0
  Ni  Ni900  1  0.11074400  0.28347267  0.32991640  1.0
  Ni  Ni901  1  0.11074400  0.61680600  0.32991640  1.0
  Ni  Ni902  1  0.11074400  0.95013933  0.32991640  1.0
  Ni  Ni903  1  0.44407733  0.28347267  0.32991640  1.0
  Ni  Ni904  1  0.44407733  0.61680600  0.32991640  1.0
  Ni  Ni905  1  0.44407733  0.95013933  0.32991640  1.0
  Ni  Ni906  1  0.77741067  0.28347267  0.32991640  1.0
  Ni  Ni907  1  0.77741067  0.61680600  0.32991640  1.0
  Ni  Ni908  1  0.77741067  0.95013933  0.32991640  1.0
  Ni  Ni909  1  0.27741067  0.28347267  0.22991640  1.0
  Ni  Ni910  1  0.27741067  0.61680600  0.22991640  1.0
  Ni  Ni911  1  0.27741067  0.95013933  0.22991640  1.0
  Ni  Ni912  1  0.61074400  0.28347267  0.22991640  1.0
  Ni  Ni913  1  0.61074400  0.61680600  0.22991640  1.0
  Ni  Ni914  1  0.61074400  0.95013933  0.22991640  1.0
  Ni  Ni915  1  0.94407733  0.28347267  0.22991640  1.0
  Ni  Ni916  1  0.94407733  0.61680600  0.22991640  1.0
  Ni  Ni917  1  0.94407733  0.95013933  0.22991640  1.0
  Ni  Ni918  1  0.02796133  0.28347267  0.28024680  1.0
  Ni  Ni919  1  0.02796133  0.61680600  0.28024680  1.0
  Ni  Ni920  1  0.02796133  0.95013933  0.28024680  1.0
  Ni  Ni921  1  0.36129467  0.28347267  0.28024680  1.0
  Ni  Ni922  1  0.36129467  0.61680600  0.28024680  1.0
  Ni  Ni923  1  0.36129467  0.95013933  0.28024680  1.0
  Ni  Ni924  1  0.69462800  0.28347267  0.28024680  1.0
  Ni  Ni925  1  0.69462800  0.61680600  0.28024680  1.0
  Ni  Ni926  1  0.69462800  0.95013933  0.28024680  1.0
  Ni  Ni927  1  0.19462800  0.28347267  0.38024680  1.0
  Ni  Ni928  1  0.19462800  0.61680600  0.38024680  1.0
  Ni  Ni929  1  0.19462800  0.95013933  0.38024680  1.0
  Ni  Ni930  1  0.52796133  0.28347267  0.38024680  1.0
  Ni  Ni931  1  0.52796133  0.61680600  0.38024680  1.0
  Ni  Ni932  1  0.52796133  0.95013933  0.38024680  1.0
  Ni  Ni933  1  0.86129467  0.28347267  0.38024680  1.0
  Ni  Ni934  1  0.86129467  0.61680600  0.38024680  1.0
  Ni  Ni935  1  0.86129467  0.95013933  0.38024680  1.0
  Ni  Ni936  1  0.02796133  0.28347267  0.37958600  1.0
  Ni  Ni937  1  0.02796133  0.61680600  0.37958600  1.0
  Ni  Ni938  1  0.02796133  0.95013933  0.37958600  1.0
  Ni  Ni939  1  0.36129467  0.28347267  0.37958600  1.0
  Ni  Ni940  1  0.36129467  0.61680600  0.37958600  1.0
  Ni  Ni941  1  0.36129467  0.95013933  0.37958600  1.0
  Ni  Ni942  1  0.69462800  0.28347267  0.37958600  1.0
  Ni  Ni943  1  0.69462800  0.61680600  0.37958600  1.0
  Ni  Ni944  1  0.69462800  0.95013933  0.37958600  1.0
  Ni  Ni945  1  0.19462800  0.28347267  0.27958600  1.0
  Ni  Ni946  1  0.19462800  0.61680600  0.27958600  1.0
  Ni  Ni947  1  0.19462800  0.95013933  0.27958600  1.0
  Ni  Ni948  1  0.52796133  0.28347267  0.27958600  1.0
  Ni  Ni949  1  0.52796133  0.61680600  0.27958600  1.0
  Ni  Ni950  1  0.52796133  0.95013933  0.27958600  1.0
  Ni  Ni951  1  0.86129467  0.28347267  0.27958600  1.0
  Ni  Ni952  1  0.86129467  0.61680600  0.27958600  1.0
  Ni  Ni953  1  0.86129467  0.95013933  0.27958600  1.0
  Ni  Ni954  1  0.13870533  0.11680600  0.28024680  1.0
  Ni  Ni955  1  0.13870533  0.45013933  0.28024680  1.0
  Ni  Ni956  1  0.13870533  0.78347267  0.28024680  1.0
  Ni  Ni957  1  0.47203867  0.11680600  0.28024680  1.0
  Ni  Ni958  1  0.47203867  0.45013933  0.28024680  1.0
  Ni  Ni959  1  0.47203867  0.78347267  0.28024680  1.0
  Ni  Ni960  1  0.80537200  0.11680600  0.28024680  1.0
  Ni  Ni961  1  0.80537200  0.45013933  0.28024680  1.0
  Ni  Ni962  1  0.80537200  0.78347267  0.28024680  1.0
  Ni  Ni963  1  0.30537200  0.11680600  0.38024680  1.0
  Ni  Ni964  1  0.30537200  0.45013933  0.38024680  1.0
  Ni  Ni965  1  0.30537200  0.78347267  0.38024680  1.0
  Ni  Ni966  1  0.63870533  0.11680600  0.38024680  1.0
  Ni  Ni967  1  0.63870533  0.45013933  0.38024680  1.0
  Ni  Ni968  1  0.63870533  0.78347267  0.38024680  1.0
  Ni  Ni969  1  0.97203867  0.11680600  0.38024680  1.0
  Ni  Ni970  1  0.97203867  0.45013933  0.38024680  1.0
  Ni  Ni971  1  0.97203867  0.78347267  0.38024680  1.0
  Ni  Ni972  1  0.13870533  0.04986067  0.21975320  1.0
  Ni  Ni973  1  0.13870533  0.38319400  0.21975320  1.0
  Ni  Ni974  1  0.13870533  0.71652733  0.21975320  1.0
  Ni  Ni975  1  0.47203867  0.04986067  0.21975320  1.0
  Ni  Ni976  1  0.47203867  0.38319400  0.21975320  1.0
  Ni  Ni977  1  0.47203867  0.71652733  0.21975320  1.0
  Ni  Ni978  1  0.80537200  0.04986067  0.21975320  1.0
  Ni  Ni979  1  0.80537200  0.38319400  0.21975320  1.0
  Ni  Ni980  1  0.80537200  0.71652733  0.21975320  1.0
  Ni  Ni981  1  0.30537200  0.04986067  0.31975320  1.0
  Ni  Ni982  1  0.30537200  0.38319400  0.31975320  1.0
  Ni  Ni983  1  0.30537200  0.71652733  0.31975320  1.0
  Ni  Ni984  1  0.63870533  0.04986067  0.31975320  1.0
  Ni  Ni985  1  0.63870533  0.38319400  0.31975320  1.0
  Ni  Ni986  1  0.63870533  0.71652733  0.31975320  1.0
  Ni  Ni987  1  0.97203867  0.04986067  0.31975320  1.0
  Ni  Ni988  1  0.97203867  0.38319400  0.31975320  1.0
  Ni  Ni989  1  0.97203867  0.71652733  0.31975320  1.0
  Ni  Ni990  1  0.05592267  0.11680600  0.32991640  1.0
  Ni  Ni991  1  0.05592267  0.45013933  0.32991640  1.0
  Ni  Ni992  1  0.05592267  0.78347267  0.32991640  1.0
  Ni  Ni993  1  0.38925600  0.11680600  0.32991640  1.0
  Ni  Ni994  1  0.38925600  0.45013933  0.32991640  1.0
  Ni  Ni995  1  0.38925600  0.78347267  0.32991640  1.0
  Ni  Ni996  1  0.72258933  0.11680600  0.32991640  1.0
  Ni  Ni997  1  0.72258933  0.45013933  0.32991640  1.0
  Ni  Ni998  1  0.72258933  0.78347267  0.32991640  1.0
  Ni  Ni999  1  0.22258933  0.11680600  0.22991640  1.0
  Ni  Ni1000  1  0.22258933  0.45013933  0.22991640  1.0
  Ni  Ni1001  1  0.22258933  0.78347267  0.22991640  1.0
  Ni  Ni1002  1  0.55592267  0.11680600  0.22991640  1.0
  Ni  Ni1003  1  0.55592267  0.45013933  0.22991640  1.0
  Ni  Ni1004  1  0.55592267  0.78347267  0.22991640  1.0
  Ni  Ni1005  1  0.88925600  0.11680600  0.22991640  1.0
  Ni  Ni1006  1  0.88925600  0.45013933  0.22991640  1.0
  Ni  Ni1007  1  0.88925600  0.78347267  0.22991640  1.0
  Ni  Ni1008  1  0.13870533  0.11680600  0.37958600  1.0
  Ni  Ni1009  1  0.13870533  0.45013933  0.37958600  1.0
  Ni  Ni1010  1  0.13870533  0.78347267  0.37958600  1.0
  Ni  Ni1011  1  0.47203867  0.11680600  0.37958600  1.0
  Ni  Ni1012  1  0.47203867  0.45013933  0.37958600  1.0
  Ni  Ni1013  1  0.47203867  0.78347267  0.37958600  1.0
  Ni  Ni1014  1  0.80537200  0.11680600  0.37958600  1.0
  Ni  Ni1015  1  0.80537200  0.45013933  0.37958600  1.0
  Ni  Ni1016  1  0.80537200  0.78347267  0.37958600  1.0
  Ni  Ni1017  1  0.30537200  0.11680600  0.27958600  1.0
  Ni  Ni1018  1  0.30537200  0.45013933  0.27958600  1.0
  Ni  Ni1019  1  0.30537200  0.78347267  0.27958600  1.0
  Ni  Ni1020  1  0.63870533  0.11680600  0.27958600  1.0
  Ni  Ni1021  1  0.63870533  0.45013933  0.27958600  1.0
  Ni  Ni1022  1  0.63870533  0.78347267  0.27958600  1.0
  Ni  Ni1023  1  0.97203867  0.11680600  0.27958600  1.0
  Ni  Ni1024  1  0.97203867  0.45013933  0.27958600  1.0
  Ni  Ni1025  1  0.97203867  0.78347267  0.27958600  1.0
  Ni  Ni1026  1  0.11074400  0.21652733  0.37008360  1.0
  Ni  Ni1027  1  0.11074400  0.54986067  0.37008360  1.0
  Ni  Ni1028  1  0.11074400  0.88319400  0.37008360  1.0
  Ni  Ni1029  1  0.44407733  0.21652733  0.37008360  1.0
  Ni  Ni1030  1  0.44407733  0.54986067  0.37008360  1.0
  Ni  Ni1031  1  0.44407733  0.88319400  0.37008360  1.0
  Ni  Ni1032  1  0.77741067  0.21652733  0.37008360  1.0
  Ni  Ni1033  1  0.77741067  0.54986067  0.37008360  1.0
  Ni  Ni1034  1  0.77741067  0.88319400  0.37008360  1.0
  Ni  Ni1035  1  0.27741067  0.21652733  0.27008360  1.0
  Ni  Ni1036  1  0.27741067  0.54986067  0.27008360  1.0
  Ni  Ni1037  1  0.27741067  0.88319400  0.27008360  1.0
  Ni  Ni1038  1  0.61074400  0.21652733  0.27008360  1.0
  Ni  Ni1039  1  0.61074400  0.54986067  0.27008360  1.0
  Ni  Ni1040  1  0.61074400  0.88319400  0.27008360  1.0
  Ni  Ni1041  1  0.94407733  0.21652733  0.27008360  1.0
  Ni  Ni1042  1  0.94407733  0.54986067  0.27008360  1.0
  Ni  Ni1043  1  0.94407733  0.88319400  0.27008360  1.0
  Ni  Ni1044  1  0.02796133  0.21652733  0.21975320  1.0
  Ni  Ni1045  1  0.02796133  0.54986067  0.21975320  1.0
  Ni  Ni1046  1  0.02796133  0.88319400  0.21975320  1.0
  Ni  Ni1047  1  0.36129467  0.21652733  0.21975320  1.0
  Ni  Ni1048  1  0.36129467  0.54986067  0.21975320  1.0
  Ni  Ni1049  1  0.36129467  0.88319400  0.21975320  1.0
  Ni  Ni1050  1  0.69462800  0.21652733  0.21975320  1.0
  Ni  Ni1051  1  0.69462800  0.54986067  0.21975320  1.0
  Ni  Ni1052  1  0.69462800  0.88319400  0.21975320  1.0
  Ni  Ni1053  1  0.19462800  0.21652733  0.31975320  1.0
  Ni  Ni1054  1  0.19462800  0.54986067  0.31975320  1.0
  Ni  Ni1055  1  0.19462800  0.88319400  0.31975320  1.0
  Ni  Ni1056  1  0.52796133  0.21652733  0.31975320  1.0
  Ni  Ni1057  1  0.52796133  0.54986067  0.31975320  1.0
  Ni  Ni1058  1  0.52796133  0.88319400  0.31975320  1.0
  Ni  Ni1059  1  0.86129467  0.21652733  0.31975320  1.0
  Ni  Ni1060  1  0.86129467  0.54986067  0.31975320  1.0
  Ni  Ni1061  1  0.86129467  0.88319400  0.31975320  1.0
  Ni  Ni1062  1  0.13870533  0.04986067  0.32041400  1.0
  Ni  Ni1063  1  0.13870533  0.38319400  0.32041400  1.0
  Ni  Ni1064  1  0.13870533  0.71652733  0.32041400  1.0
  Ni  Ni1065  1  0.47203867  0.04986067  0.32041400  1.0
  Ni  Ni1066  1  0.47203867  0.38319400  0.32041400  1.0
  Ni  Ni1067  1  0.47203867  0.71652733  0.32041400  1.0
  Ni  Ni1068  1  0.80537200  0.04986067  0.32041400  1.0
  Ni  Ni1069  1  0.80537200  0.38319400  0.32041400  1.0
  Ni  Ni1070  1  0.80537200  0.71652733  0.32041400  1.0
  Ni  Ni1071  1  0.30537200  0.04986067  0.22041400  1.0
  Ni  Ni1072  1  0.30537200  0.38319400  0.22041400  1.0
  Ni  Ni1073  1  0.30537200  0.71652733  0.22041400  1.0
  Ni  Ni1074  1  0.63870533  0.04986067  0.22041400  1.0
  Ni  Ni1075  1  0.63870533  0.38319400  0.22041400  1.0
  Ni  Ni1076  1  0.63870533  0.71652733  0.22041400  1.0
  Ni  Ni1077  1  0.97203867  0.04986067  0.22041400  1.0
  Ni  Ni1078  1  0.97203867  0.38319400  0.22041400  1.0
  Ni  Ni1079  1  0.97203867  0.71652733  0.22041400  1.0
  Ni  Ni1080  1  0.08155792  0.25000000  0.39680425  1.0
  Ni  Ni1081  1  0.08155792  0.58333333  0.39680425  1.0
  Ni  Ni1082  1  0.08155792  0.91666667  0.39680425  1.0
  Ni  Ni1083  1  0.41489125  0.25000000  0.39680425  1.0
  Ni  Ni1084  1  0.41489125  0.58333333  0.39680425  1.0
  Ni  Ni1085  1  0.41489125  0.91666667  0.39680425  1.0
  Ni  Ni1086  1  0.74822458  0.25000000  0.39680425  1.0
  Ni  Ni1087  1  0.74822458  0.58333333  0.39680425  1.0
  Ni  Ni1088  1  0.74822458  0.91666667  0.39680425  1.0
  Ni  Ni1089  1  0.24822458  0.25000000  0.29680425  1.0
  Ni  Ni1090  1  0.24822458  0.58333333  0.29680425  1.0
  Ni  Ni1091  1  0.24822458  0.91666667  0.29680425  1.0
  Ni  Ni1092  1  0.58155792  0.25000000  0.29680425  1.0
  Ni  Ni1093  1  0.58155792  0.58333333  0.29680425  1.0
  Ni  Ni1094  1  0.58155792  0.91666667  0.29680425  1.0
  Ni  Ni1095  1  0.91489125  0.25000000  0.29680425  1.0
  Ni  Ni1096  1  0.91489125  0.58333333  0.29680425  1.0
  Ni  Ni1097  1  0.91489125  0.91666667  0.29680425  1.0
  Ni  Ni1098  1  0.16311583  0.08333333  0.35000000  1.0
  Ni  Ni1099  1  0.16311583  0.41666667  0.35000000  1.0
  Ni  Ni1100  1  0.16311583  0.75000000  0.35000000  1.0
  Ni  Ni1101  1  0.49644917  0.08333333  0.35000000  1.0
  Ni  Ni1102  1  0.49644917  0.41666667  0.35000000  1.0
  Ni  Ni1103  1  0.49644917  0.75000000  0.35000000  1.0
  Ni  Ni1104  1  0.82978250  0.08333333  0.35000000  1.0
  Ni  Ni1105  1  0.82978250  0.41666667  0.35000000  1.0
  Ni  Ni1106  1  0.82978250  0.75000000  0.35000000  1.0
  Ni  Ni1107  1  0.32978250  0.08333333  0.25000000  1.0
  Ni  Ni1108  1  0.32978250  0.41666667  0.25000000  1.0
  Ni  Ni1109  1  0.32978250  0.75000000  0.25000000  1.0
  Ni  Ni1110  1  0.66311583  0.08333333  0.25000000  1.0
  Ni  Ni1111  1  0.66311583  0.41666667  0.25000000  1.0
  Ni  Ni1112  1  0.66311583  0.75000000  0.25000000  1.0
  Ni  Ni1113  1  0.99644917  0.08333333  0.25000000  1.0
  Ni  Ni1114  1  0.99644917  0.41666667  0.25000000  1.0
  Ni  Ni1115  1  0.99644917  0.75000000  0.25000000  1.0
  Ni  Ni1116  1  0.08510875  0.08333333  0.39680425  1.0
  Ni  Ni1117  1  0.08510875  0.41666667  0.39680425  1.0
  Ni  Ni1118  1  0.08510875  0.75000000  0.39680425  1.0
  Ni  Ni1119  1  0.41844208  0.08333333  0.39680425  1.0
  Ni  Ni1120  1  0.41844208  0.41666667  0.39680425  1.0
  Ni  Ni1121  1  0.41844208  0.75000000  0.39680425  1.0
  Ni  Ni1122  1  0.75177542  0.08333333  0.39680425  1.0
  Ni  Ni1123  1  0.75177542  0.41666667  0.39680425  1.0
  Ni  Ni1124  1  0.75177542  0.75000000  0.39680425  1.0
  Ni  Ni1125  1  0.25177542  0.08333333  0.29680425  1.0
  Ni  Ni1126  1  0.25177542  0.41666667  0.29680425  1.0
  Ni  Ni1127  1  0.25177542  0.75000000  0.29680425  1.0
  Ni  Ni1128  1  0.58510875  0.08333333  0.29680425  1.0
  Ni  Ni1129  1  0.58510875  0.41666667  0.29680425  1.0
  Ni  Ni1130  1  0.58510875  0.75000000  0.29680425  1.0
  Ni  Ni1131  1  0.91844208  0.08333333  0.29680425  1.0
  Ni  Ni1132  1  0.91844208  0.41666667  0.29680425  1.0
  Ni  Ni1133  1  0.91844208  0.75000000  0.29680425  1.0
  Ni  Ni1134  1  0.08155792  0.25000000  0.30319575  1.0
  Ni  Ni1135  1  0.08155792  0.58333333  0.30319575  1.0
  Ni  Ni1136  1  0.08155792  0.91666667  0.30319575  1.0
  Ni  Ni1137  1  0.41489125  0.25000000  0.30319575  1.0
  Ni  Ni1138  1  0.41489125  0.58333333  0.30319575  1.0
  Ni  Ni1139  1  0.41489125  0.91666667  0.30319575  1.0
  Ni  Ni1140  1  0.74822458  0.25000000  0.30319575  1.0
  Ni  Ni1141  1  0.74822458  0.58333333  0.30319575  1.0
  Ni  Ni1142  1  0.74822458  0.91666667  0.30319575  1.0
  Ni  Ni1143  1  0.24822458  0.25000000  0.20319575  1.0
  Ni  Ni1144  1  0.24822458  0.58333333  0.20319575  1.0
  Ni  Ni1145  1  0.24822458  0.91666667  0.20319575  1.0
  Ni  Ni1146  1  0.58155792  0.25000000  0.20319575  1.0
  Ni  Ni1147  1  0.58155792  0.58333333  0.20319575  1.0
  Ni  Ni1148  1  0.58155792  0.91666667  0.20319575  1.0
  Ni  Ni1149  1  0.91489125  0.25000000  0.20319575  1.0
  Ni  Ni1150  1  0.91489125  0.58333333  0.20319575  1.0
  Ni  Ni1151  1  0.91489125  0.91666667  0.20319575  1.0
  Ni  Ni1152  1  0.00355083  0.25000000  0.35000000  1.0
  Ni  Ni1153  1  0.00355083  0.58333333  0.35000000  1.0
  Ni  Ni1154  1  0.00355083  0.91666667  0.35000000  1.0
  Ni  Ni1155  1  0.33688417  0.25000000  0.35000000  1.0
  Ni  Ni1156  1  0.33688417  0.58333333  0.35000000  1.0
  Ni  Ni1157  1  0.33688417  0.91666667  0.35000000  1.0
  Ni  Ni1158  1  0.67021750  0.25000000  0.35000000  1.0
  Ni  Ni1159  1  0.67021750  0.58333333  0.35000000  1.0
  Ni  Ni1160  1  0.67021750  0.91666667  0.35000000  1.0
  Ni  Ni1161  1  0.17021750  0.25000000  0.25000000  1.0
  Ni  Ni1162  1  0.17021750  0.58333333  0.25000000  1.0
  Ni  Ni1163  1  0.17021750  0.91666667  0.25000000  1.0
  Ni  Ni1164  1  0.50355083  0.25000000  0.25000000  1.0
  Ni  Ni1165  1  0.50355083  0.58333333  0.25000000  1.0
  Ni  Ni1166  1  0.50355083  0.91666667  0.25000000  1.0
  Ni  Ni1167  1  0.83688417  0.25000000  0.25000000  1.0
  Ni  Ni1168  1  0.83688417  0.58333333  0.25000000  1.0
  Ni  Ni1169  1  0.83688417  0.91666667  0.25000000  1.0
  Ni  Ni1170  1  0.08510875  0.08333333  0.30319575  1.0
  Ni  Ni1171  1  0.08510875  0.41666667  0.30319575  1.0
  Ni  Ni1172  1  0.08510875  0.75000000  0.30319575  1.0
  Ni  Ni1173  1  0.41844208  0.08333333  0.30319575  1.0
  Ni  Ni1174  1  0.41844208  0.41666667  0.30319575  1.0
  Ni  Ni1175  1  0.41844208  0.75000000  0.30319575  1.0
  Ni  Ni1176  1  0.75177542  0.08333333  0.30319575  1.0
  Ni  Ni1177  1  0.75177542  0.41666667  0.30319575  1.0
  Ni  Ni1178  1  0.75177542  0.75000000  0.30319575  1.0
  Ni  Ni1179  1  0.25177542  0.08333333  0.20319575  1.0
  Ni  Ni1180  1  0.25177542  0.41666667  0.20319575  1.0
  Ni  Ni1181  1  0.25177542  0.75000000  0.20319575  1.0
  Ni  Ni1182  1  0.58510875  0.08333333  0.20319575  1.0
  Ni  Ni1183  1  0.58510875  0.41666667  0.20319575  1.0
  Ni  Ni1184  1  0.58510875  0.75000000  0.20319575  1.0
  Ni  Ni1185  1  0.91844208  0.08333333  0.20319575  1.0
  Ni  Ni1186  1  0.91844208  0.41666667  0.20319575  1.0
  Ni  Ni1187  1  0.91844208  0.75000000  0.20319575  1.0
  Ni  Ni1188  1  0.14061758  0.18373100  0.34287305  1.0
  Ni  Ni1189  1  0.14061758  0.51706433  0.34287305  1.0
  Ni  Ni1190  1  0.14061758  0.85039767  0.34287305  1.0
  Ni  Ni1191  1  0.47395092  0.18373100  0.34287305  1.0
  Ni  Ni1192  1  0.47395092  0.51706433  0.34287305  1.0
  Ni  Ni1193  1  0.47395092  0.85039767  0.34287305  1.0
  Ni  Ni1194  1  0.80728425  0.18373100  0.34287305  1.0
  Ni  Ni1195  1  0.80728425  0.51706433  0.34287305  1.0
  Ni  Ni1196  1  0.80728425  0.85039767  0.34287305  1.0
  Ni  Ni1197  1  0.30728425  0.18373100  0.24287305  1.0
  Ni  Ni1198  1  0.30728425  0.51706433  0.24287305  1.0
  Ni  Ni1199  1  0.30728425  0.85039767  0.24287305  1.0
  Ni  Ni1200  1  0.64061758  0.18373100  0.24287305  1.0
  Ni  Ni1201  1  0.64061758  0.51706433  0.24287305  1.0
  Ni  Ni1202  1  0.64061758  0.85039767  0.24287305  1.0
  Ni  Ni1203  1  0.97395092  0.18373100  0.24287305  1.0
  Ni  Ni1204  1  0.97395092  0.51706433  0.24287305  1.0
  Ni  Ni1205  1  0.97395092  0.85039767  0.24287305  1.0
  Ni  Ni1206  1  0.11456850  0.01706433  0.28976140  1.0
  Ni  Ni1207  1  0.11456850  0.35039767  0.28976140  1.0
  Ni  Ni1208  1  0.11456850  0.68373100  0.28976140  1.0
  Ni  Ni1209  1  0.44790183  0.01706433  0.28976140  1.0
  Ni  Ni1210  1  0.44790183  0.35039767  0.28976140  1.0
  Ni  Ni1211  1  0.44790183  0.68373100  0.28976140  1.0
  Ni  Ni1212  1  0.78123517  0.01706433  0.28976140  1.0
  Ni  Ni1213  1  0.78123517  0.35039767  0.28976140  1.0
  Ni  Ni1214  1  0.78123517  0.68373100  0.28976140  1.0
  Ni  Ni1215  1  0.28123517  0.01706433  0.38976140  1.0
  Ni  Ni1216  1  0.28123517  0.35039767  0.38976140  1.0
  Ni  Ni1217  1  0.28123517  0.68373100  0.38976140  1.0
  Ni  Ni1218  1  0.61456850  0.01706433  0.38976140  1.0
  Ni  Ni1219  1  0.61456850  0.35039767  0.38976140  1.0
  Ni  Ni1220  1  0.61456850  0.68373100  0.38976140  1.0
  Ni  Ni1221  1  0.94790183  0.01706433  0.38976140  1.0
  Ni  Ni1222  1  0.94790183  0.35039767  0.38976140  1.0
  Ni  Ni1223  1  0.94790183  0.68373100  0.38976140  1.0
  Ni  Ni1224  1  0.02604908  0.01706433  0.34287305  1.0
  Ni  Ni1225  1  0.02604908  0.35039767  0.34287305  1.0
  Ni  Ni1226  1  0.02604908  0.68373100  0.34287305  1.0
  Ni  Ni1227  1  0.35938242  0.01706433  0.34287305  1.0
  Ni  Ni1228  1  0.35938242  0.35039767  0.34287305  1.0
  Ni  Ni1229  1  0.35938242  0.68373100  0.34287305  1.0
  Ni  Ni1230  1  0.69271575  0.01706433  0.34287305  1.0
  Ni  Ni1231  1  0.69271575  0.35039767  0.34287305  1.0
  Ni  Ni1232  1  0.69271575  0.68373100  0.34287305  1.0
  Ni  Ni1233  1  0.19271575  0.01706433  0.24287305  1.0
  Ni  Ni1234  1  0.19271575  0.35039767  0.24287305  1.0
  Ni  Ni1235  1  0.19271575  0.68373100  0.24287305  1.0
  Ni  Ni1236  1  0.52604908  0.01706433  0.24287305  1.0
  Ni  Ni1237  1  0.52604908  0.35039767  0.24287305  1.0
  Ni  Ni1238  1  0.52604908  0.68373100  0.24287305  1.0
  Ni  Ni1239  1  0.85938242  0.01706433  0.24287305  1.0
  Ni  Ni1240  1  0.85938242  0.35039767  0.24287305  1.0
  Ni  Ni1241  1  0.85938242  0.68373100  0.24287305  1.0
  Ni  Ni1242  1  0.14061758  0.18373100  0.23664975  1.0
  Ni  Ni1243  1  0.14061758  0.51706433  0.23664975  1.0
  Ni  Ni1244  1  0.14061758  0.85039767  0.23664975  1.0
  Ni  Ni1245  1  0.47395092  0.18373100  0.23664975  1.0
  Ni  Ni1246  1  0.47395092  0.51706433  0.23664975  1.0
  Ni  Ni1247  1  0.47395092  0.85039767  0.23664975  1.0
  Ni  Ni1248  1  0.80728425  0.18373100  0.23664975  1.0
  Ni  Ni1249  1  0.80728425  0.51706433  0.23664975  1.0
  Ni  Ni1250  1  0.80728425  0.85039767  0.23664975  1.0
  Ni  Ni1251  1  0.30728425  0.18373100  0.33664975  1.0
  Ni  Ni1252  1  0.30728425  0.51706433  0.33664975  1.0
  Ni  Ni1253  1  0.30728425  0.85039767  0.33664975  1.0
  Ni  Ni1254  1  0.64061758  0.18373100  0.33664975  1.0
  Ni  Ni1255  1  0.64061758  0.51706433  0.33664975  1.0
  Ni  Ni1256  1  0.64061758  0.85039767  0.33664975  1.0
  Ni  Ni1257  1  0.97395092  0.18373100  0.33664975  1.0
  Ni  Ni1258  1  0.97395092  0.51706433  0.33664975  1.0
  Ni  Ni1259  1  0.97395092  0.85039767  0.33664975  1.0
  Ni  Ni1260  1  0.05209817  0.18373100  0.28976140  1.0
  Ni  Ni1261  1  0.05209817  0.51706433  0.28976140  1.0
  Ni  Ni1262  1  0.05209817  0.85039767  0.28976140  1.0
  Ni  Ni1263  1  0.38543150  0.18373100  0.28976140  1.0
  Ni  Ni1264  1  0.38543150  0.51706433  0.28976140  1.0
  Ni  Ni1265  1  0.38543150  0.85039767  0.28976140  1.0
  Ni  Ni1266  1  0.71876483  0.18373100  0.28976140  1.0
  Ni  Ni1267  1  0.71876483  0.51706433  0.28976140  1.0
  Ni  Ni1268  1  0.71876483  0.85039767  0.28976140  1.0
  Ni  Ni1269  1  0.21876483  0.18373100  0.38976140  1.0
  Ni  Ni1270  1  0.21876483  0.51706433  0.38976140  1.0
  Ni  Ni1271  1  0.21876483  0.85039767  0.38976140  1.0
  Ni  Ni1272  1  0.55209817  0.18373100  0.38976140  1.0
  Ni  Ni1273  1  0.55209817  0.51706433  0.38976140  1.0
  Ni  Ni1274  1  0.55209817  0.85039767  0.38976140  1.0
  Ni  Ni1275  1  0.88543150  0.18373100  0.38976140  1.0
  Ni  Ni1276  1  0.88543150  0.51706433  0.38976140  1.0
  Ni  Ni1277  1  0.88543150  0.85039767  0.38976140  1.0
  Ni  Ni1278  1  0.02604908  0.14960233  0.35712695  1.0
  Ni  Ni1279  1  0.02604908  0.48293567  0.35712695  1.0
  Ni  Ni1280  1  0.02604908  0.81626900  0.35712695  1.0
  Ni  Ni1281  1  0.35938242  0.14960233  0.35712695  1.0
  Ni  Ni1282  1  0.35938242  0.48293567  0.35712695  1.0
  Ni  Ni1283  1  0.35938242  0.81626900  0.35712695  1.0
  Ni  Ni1284  1  0.69271575  0.14960233  0.35712695  1.0
  Ni  Ni1285  1  0.69271575  0.48293567  0.35712695  1.0
  Ni  Ni1286  1  0.69271575  0.81626900  0.35712695  1.0
  Ni  Ni1287  1  0.19271575  0.14960233  0.25712695  1.0
  Ni  Ni1288  1  0.19271575  0.48293567  0.25712695  1.0
  Ni  Ni1289  1  0.19271575  0.81626900  0.25712695  1.0
  Ni  Ni1290  1  0.52604908  0.14960233  0.25712695  1.0
  Ni  Ni1291  1  0.52604908  0.48293567  0.25712695  1.0
  Ni  Ni1292  1  0.52604908  0.81626900  0.25712695  1.0
  Ni  Ni1293  1  0.85938242  0.14960233  0.25712695  1.0
  Ni  Ni1294  1  0.85938242  0.48293567  0.25712695  1.0
  Ni  Ni1295  1  0.85938242  0.81626900  0.25712695  1.0
  Ni  Ni1296  1  0.11456850  0.14960233  0.21023860  1.0
  Ni  Ni1297  1  0.11456850  0.48293567  0.21023860  1.0
  Ni  Ni1298  1  0.11456850  0.81626900  0.21023860  1.0
  Ni  Ni1299  1  0.44790183  0.14960233  0.21023860  1.0
  Ni  Ni1300  1  0.44790183  0.48293567  0.21023860  1.0
  Ni  Ni1301  1  0.44790183  0.81626900  0.21023860  1.0
  Ni  Ni1302  1  0.78123517  0.14960233  0.21023860  1.0
  Ni  Ni1303  1  0.78123517  0.48293567  0.21023860  1.0
  Ni  Ni1304  1  0.78123517  0.81626900  0.21023860  1.0
  Ni  Ni1305  1  0.28123517  0.14960233  0.31023860  1.0
  Ni  Ni1306  1  0.28123517  0.48293567  0.31023860  1.0
  Ni  Ni1307  1  0.28123517  0.81626900  0.31023860  1.0
  Ni  Ni1308  1  0.61456850  0.14960233  0.31023860  1.0
  Ni  Ni1309  1  0.61456850  0.48293567  0.31023860  1.0
  Ni  Ni1310  1  0.61456850  0.81626900  0.31023860  1.0
  Ni  Ni1311  1  0.94790183  0.14960233  0.31023860  1.0
  Ni  Ni1312  1  0.94790183  0.48293567  0.31023860  1.0
  Ni  Ni1313  1  0.94790183  0.81626900  0.31023860  1.0
  Ni  Ni1314  1  0.02604908  0.01706433  0.23664975  1.0
  Ni  Ni1315  1  0.02604908  0.35039767  0.23664975  1.0
  Ni  Ni1316  1  0.02604908  0.68373100  0.23664975  1.0
  Ni  Ni1317  1  0.35938242  0.01706433  0.23664975  1.0
  Ni  Ni1318  1  0.35938242  0.35039767  0.23664975  1.0
  Ni  Ni1319  1  0.35938242  0.68373100  0.23664975  1.0
  Ni  Ni1320  1  0.69271575  0.01706433  0.23664975  1.0
  Ni  Ni1321  1  0.69271575  0.35039767  0.23664975  1.0
  Ni  Ni1322  1  0.69271575  0.68373100  0.23664975  1.0
  Ni  Ni1323  1  0.19271575  0.01706433  0.33664975  1.0
  Ni  Ni1324  1  0.19271575  0.35039767  0.33664975  1.0
  Ni  Ni1325  1  0.19271575  0.68373100  0.33664975  1.0
  Ni  Ni1326  1  0.52604908  0.01706433  0.33664975  1.0
  Ni  Ni1327  1  0.52604908  0.35039767  0.33664975  1.0
  Ni  Ni1328  1  0.52604908  0.68373100  0.33664975  1.0
  Ni  Ni1329  1  0.85938242  0.01706433  0.33664975  1.0
  Ni  Ni1330  1  0.85938242  0.35039767  0.33664975  1.0
  Ni  Ni1331  1  0.85938242  0.68373100  0.33664975  1.0
  Ni  Ni1332  1  0.02604908  0.14960233  0.26335025  1.0
  Ni  Ni1333  1  0.02604908  0.48293567  0.26335025  1.0
  Ni  Ni1334  1  0.02604908  0.81626900  0.26335025  1.0
  Ni  Ni1335  1  0.35938242  0.14960233  0.26335025  1.0
  Ni  Ni1336  1  0.35938242  0.48293567  0.26335025  1.0
  Ni  Ni1337  1  0.35938242  0.81626900  0.26335025  1.0
  Ni  Ni1338  1  0.69271575  0.14960233  0.26335025  1.0
  Ni  Ni1339  1  0.69271575  0.48293567  0.26335025  1.0
  Ni  Ni1340  1  0.69271575  0.81626900  0.26335025  1.0
  Ni  Ni1341  1  0.19271575  0.14960233  0.36335025  1.0
  Ni  Ni1342  1  0.19271575  0.48293567  0.36335025  1.0
  Ni  Ni1343  1  0.19271575  0.81626900  0.36335025  1.0
  Ni  Ni1344  1  0.52604908  0.14960233  0.36335025  1.0
  Ni  Ni1345  1  0.52604908  0.48293567  0.36335025  1.0
  Ni  Ni1346  1  0.52604908  0.81626900  0.36335025  1.0
  Ni  Ni1347  1  0.85938242  0.14960233  0.36335025  1.0
  Ni  Ni1348  1  0.85938242  0.48293567  0.36335025  1.0
  Ni  Ni1349  1  0.85938242  0.81626900  0.36335025  1.0
  Ni  Ni1350  1  0.14061758  0.31626900  0.35712695  1.0
  Ni  Ni1351  1  0.14061758  0.64960233  0.35712695  1.0
  Ni  Ni1352  1  0.14061758  0.98293567  0.35712695  1.0
  Ni  Ni1353  1  0.47395092  0.31626900  0.35712695  1.0
  Ni  Ni1354  1  0.47395092  0.64960233  0.35712695  1.0
  Ni  Ni1355  1  0.47395092  0.98293567  0.35712695  1.0
  Ni  Ni1356  1  0.80728425  0.31626900  0.35712695  1.0
  Ni  Ni1357  1  0.80728425  0.64960233  0.35712695  1.0
  Ni  Ni1358  1  0.80728425  0.98293567  0.35712695  1.0
  Ni  Ni1359  1  0.30728425  0.31626900  0.25712695  1.0
  Ni  Ni1360  1  0.30728425  0.64960233  0.25712695  1.0
  Ni  Ni1361  1  0.30728425  0.98293567  0.25712695  1.0
  Ni  Ni1362  1  0.64061758  0.31626900  0.25712695  1.0
  Ni  Ni1363  1  0.64061758  0.64960233  0.25712695  1.0
  Ni  Ni1364  1  0.64061758  0.98293567  0.25712695  1.0
  Ni  Ni1365  1  0.97395092  0.31626900  0.25712695  1.0
  Ni  Ni1366  1  0.97395092  0.64960233  0.25712695  1.0
  Ni  Ni1367  1  0.97395092  0.98293567  0.25712695  1.0
  Ni  Ni1368  1  0.14061758  0.31626900  0.26335025  1.0
  Ni  Ni1369  1  0.14061758  0.64960233  0.26335025  1.0
  Ni  Ni1370  1  0.14061758  0.98293567  0.26335025  1.0
  Ni  Ni1371  1  0.47395092  0.31626900  0.26335025  1.0
  Ni  Ni1372  1  0.47395092  0.64960233  0.26335025  1.0
  Ni  Ni1373  1  0.47395092  0.98293567  0.26335025  1.0
  Ni  Ni1374  1  0.80728425  0.31626900  0.26335025  1.0
  Ni  Ni1375  1  0.80728425  0.64960233  0.26335025  1.0
  Ni  Ni1376  1  0.80728425  0.98293567  0.26335025  1.0
  Ni  Ni1377  1  0.30728425  0.31626900  0.36335025  1.0
  Ni  Ni1378  1  0.30728425  0.64960233  0.36335025  1.0
  Ni  Ni1379  1  0.30728425  0.98293567  0.36335025  1.0
  Ni  Ni1380  1  0.64061758  0.31626900  0.36335025  1.0
  Ni  Ni1381  1  0.64061758  0.64960233  0.36335025  1.0
  Ni  Ni1382  1  0.64061758  0.98293567  0.36335025  1.0
  Ni  Ni1383  1  0.97395092  0.31626900  0.36335025  1.0
  Ni  Ni1384  1  0.97395092  0.64960233  0.36335025  1.0
  Ni  Ni1385  1  0.97395092  0.98293567  0.36335025  1.0
  Ni  Ni1386  1  0.05209817  0.31626900  0.21023860  1.0
  Ni  Ni1387  1  0.05209817  0.64960233  0.21023860  1.0
  Ni  Ni1388  1  0.05209817  0.98293567  0.21023860  1.0
  Ni  Ni1389  1  0.38543150  0.31626900  0.21023860  1.0
  Ni  Ni1390  1  0.38543150  0.64960233  0.21023860  1.0
  Ni  Ni1391  1  0.38543150  0.98293567  0.21023860  1.0
  Ni  Ni1392  1  0.71876483  0.31626900  0.21023860  1.0
  Ni  Ni1393  1  0.71876483  0.64960233  0.21023860  1.0
  Ni  Ni1394  1  0.71876483  0.98293567  0.21023860  1.0
  Ni  Ni1395  1  0.21876483  0.31626900  0.31023860  1.0
  Ni  Ni1396  1  0.21876483  0.64960233  0.31023860  1.0
  Ni  Ni1397  1  0.21876483  0.98293567  0.31023860  1.0
  Ni  Ni1398  1  0.55209817  0.31626900  0.31023860  1.0
  Ni  Ni1399  1  0.55209817  0.64960233  0.31023860  1.0
  Ni  Ni1400  1  0.55209817  0.98293567  0.31023860  1.0
  Ni  Ni1401  1  0.88543150  0.31626900  0.31023860  1.0
  Ni  Ni1402  1  0.88543150  0.64960233  0.31023860  1.0
  Ni  Ni1403  1  0.88543150  0.98293567  0.31023860  1.0
  Ni  Ni1404  1  0.02796133  0.21652733  0.32041400  1.0
  Ni  Ni1405  1  0.02796133  0.54986067  0.32041400  1.0
  Ni  Ni1406  1  0.02796133  0.88319400  0.32041400  1.0
  Ni  Ni1407  1  0.36129467  0.21652733  0.32041400  1.0
  Ni  Ni1408  1  0.36129467  0.54986067  0.32041400  1.0
  Ni  Ni1409  1  0.36129467  0.88319400  0.32041400  1.0
  Ni  Ni1410  1  0.69462800  0.21652733  0.32041400  1.0
  Ni  Ni1411  1  0.69462800  0.54986067  0.32041400  1.0
  Ni  Ni1412  1  0.69462800  0.88319400  0.32041400  1.0
  Ni  Ni1413  1  0.19462800  0.21652733  0.22041400  1.0
  Ni  Ni1414  1  0.19462800  0.54986067  0.22041400  1.0
  Ni  Ni1415  1  0.19462800  0.88319400  0.22041400  1.0
  Ni  Ni1416  1  0.52796133  0.21652733  0.22041400  1.0
  Ni  Ni1417  1  0.52796133  0.54986067  0.22041400  1.0
  Ni  Ni1418  1  0.52796133  0.88319400  0.22041400  1.0
  Ni  Ni1419  1  0.86129467  0.21652733  0.22041400  1.0
  Ni  Ni1420  1  0.86129467  0.54986067  0.22041400  1.0
  Ni  Ni1421  1  0.86129467  0.88319400  0.22041400  1.0
  Ni  Ni1422  1  0.05592267  0.04986067  0.37008360  1.0
  Ni  Ni1423  1  0.05592267  0.38319400  0.37008360  1.0
  Ni  Ni1424  1  0.05592267  0.71652733  0.37008360  1.0
  Ni  Ni1425  1  0.38925600  0.04986067  0.37008360  1.0
  Ni  Ni1426  1  0.38925600  0.38319400  0.37008360  1.0
  Ni  Ni1427  1  0.38925600  0.71652733  0.37008360  1.0
  Ni  Ni1428  1  0.72258933  0.04986067  0.37008360  1.0
  Ni  Ni1429  1  0.72258933  0.38319400  0.37008360  1.0
  Ni  Ni1430  1  0.72258933  0.71652733  0.37008360  1.0
  Ni  Ni1431  1  0.22258933  0.04986067  0.27008360  1.0
  Ni  Ni1432  1  0.22258933  0.38319400  0.27008360  1.0
  Ni  Ni1433  1  0.22258933  0.71652733  0.27008360  1.0
  Ni  Ni1434  1  0.55592267  0.04986067  0.27008360  1.0
  Ni  Ni1435  1  0.55592267  0.38319400  0.27008360  1.0
  Ni  Ni1436  1  0.55592267  0.71652733  0.27008360  1.0
  Ni  Ni1437  1  0.88925600  0.04986067  0.27008360  1.0
  Ni  Ni1438  1  0.88925600  0.38319400  0.27008360  1.0
  Ni  Ni1439  1  0.88925600  0.71652733  0.27008360  1.0
