# generated using pymatgen
data_HfNi3
_symmetry_space_group_name_H-M   'P 1'
_cell_length_a   27.36606648
_cell_length_b   129.43128654
_cell_length_c   52.66601950
_cell_angle_alpha   86.50074867
_cell_angle_beta   30.00000000
_cell_angle_gamma   83.93154651
_symmetry_Int_Tables_number   1
_chemical_formula_structural   HfNi3
_chemical_formula_sum   'Hf720 Ni2160'
_cell_volume   92574.63588765
_cell_formula_units_Z   720
loop_
 _symmetry_equiv_pos_site_id
 _symmetry_equiv_pos_as_xyz
  1  'x, y, z'
loop_
 _atom_site_type_symbol
 _atom_site_label
 _atom_site_symmetry_multiplicity
 _atom_site_fract_x
 _atom_site_fract_y
 _atom_site_fract_z
 _atom_site_occupancy
  Hf  Hf0  1  0.20213561  0.24230883  0.06554395  1.0
  Hf  Hf1  1  0.20213561  0.57564217  0.06554395  1.0
  Hf  Hf2  1  0.20213561  0.90897550  0.06554395  1.0
  Hf  Hf3  1  0.53546894  0.24230883  0.06554395  1.0
  Hf  Hf4  1  0.53546894  0.57564217  0.06554395  1.0
  Hf  Hf5  1  0.53546894  0.90897550  0.06554395  1.0
  Hf  Hf6  1  0.86880228  0.24230883  0.06554395  1.0
  Hf  Hf7  1  0.86880228  0.57564217  0.06554395  1.0
  Hf  Hf8  1  0.86880228  0.90897550  0.06554395  1.0
  Hf  Hf9  1  0.03546894  0.07564217  0.01554395  1.0
  Hf  Hf10  1  0.03546894  0.40897550  0.01554395  1.0
  Hf  Hf11  1  0.03546894  0.74230883  0.01554395  1.0
  Hf  Hf12  1  0.36880228  0.07564217  0.01554395  1.0
  Hf  Hf13  1  0.36880228  0.40897550  0.01554395  1.0
  Hf  Hf14  1  0.36880228  0.74230883  0.01554395  1.0
  Hf  Hf15  1  0.70213561  0.07564217  0.01554395  1.0
  Hf  Hf16  1  0.70213561  0.40897550  0.01554395  1.0
  Hf  Hf17  1  0.70213561  0.74230883  0.01554395  1.0
  Hf  Hf18  1  0.22991339  0.32564217  0.09054395  1.0
  Hf  Hf19  1  0.22991339  0.65897550  0.09054395  1.0
  Hf  Hf20  1  0.22991339  0.99230883  0.09054395  1.0
  Hf  Hf21  1  0.56324672  0.32564217  0.09054395  1.0
  Hf  Hf22  1  0.56324672  0.65897550  0.09054395  1.0
  Hf  Hf23  1  0.56324672  0.99230883  0.09054395  1.0
  Hf  Hf24  1  0.89658006  0.32564217  0.09054395  1.0
  Hf  Hf25  1  0.89658006  0.65897550  0.09054395  1.0
  Hf  Hf26  1  0.89658006  0.99230883  0.09054395  1.0
  Hf  Hf27  1  0.06324672  0.15897550  0.04054395  1.0
  Hf  Hf28  1  0.06324672  0.49230883  0.04054395  1.0
  Hf  Hf29  1  0.06324672  0.82564217  0.04054395  1.0
  Hf  Hf30  1  0.39658006  0.15897550  0.04054395  1.0
  Hf  Hf31  1  0.39658006  0.49230883  0.04054395  1.0
  Hf  Hf32  1  0.39658006  0.82564217  0.04054395  1.0
  Hf  Hf33  1  0.72991339  0.15897550  0.04054395  1.0
  Hf  Hf34  1  0.72991339  0.49230883  0.04054395  1.0
  Hf  Hf35  1  0.72991339  0.82564217  0.04054395  1.0
  Hf  Hf36  1  0.29786439  0.25769117  0.07015865  1.0
  Hf  Hf37  1  0.29786439  0.59102450  0.07015865  1.0
  Hf  Hf38  1  0.29786439  0.92435783  0.07015865  1.0
  Hf  Hf39  1  0.63119772  0.25769117  0.07015865  1.0
  Hf  Hf40  1  0.63119772  0.59102450  0.07015865  1.0
  Hf  Hf41  1  0.63119772  0.92435783  0.07015865  1.0
  Hf  Hf42  1  0.96453106  0.25769117  0.07015865  1.0
  Hf  Hf43  1  0.96453106  0.59102450  0.07015865  1.0
  Hf  Hf44  1  0.96453106  0.92435783  0.07015865  1.0
  Hf  Hf45  1  0.13119772  0.09102450  0.02015865  1.0
  Hf  Hf46  1  0.13119772  0.42435783  0.02015865  1.0
  Hf  Hf47  1  0.13119772  0.75769117  0.02015865  1.0
  Hf  Hf48  1  0.46453106  0.09102450  0.02015865  1.0
  Hf  Hf49  1  0.46453106  0.42435783  0.02015865  1.0
  Hf  Hf50  1  0.46453106  0.75769117  0.02015865  1.0
  Hf  Hf51  1  0.79786439  0.09102450  0.02015865  1.0
  Hf  Hf52  1  0.79786439  0.42435783  0.02015865  1.0
  Hf  Hf53  1  0.79786439  0.75769117  0.02015865  1.0
  Hf  Hf54  1  0.27008661  0.17435783  0.04515865  1.0
  Hf  Hf55  1  0.27008661  0.50769117  0.04515865  1.0
  Hf  Hf56  1  0.27008661  0.84102450  0.04515865  1.0
  Hf  Hf57  1  0.60341994  0.17435783  0.04515865  1.0
  Hf  Hf58  1  0.60341994  0.50769117  0.04515865  1.0
  Hf  Hf59  1  0.60341994  0.84102450  0.04515865  1.0
  Hf  Hf60  1  0.93675328  0.17435783  0.04515865  1.0
  Hf  Hf61  1  0.93675328  0.50769117  0.04515865  1.0
  Hf  Hf62  1  0.93675328  0.84102450  0.04515865  1.0
  Hf  Hf63  1  0.10341994  0.00769117  0.09515865  1.0
  Hf  Hf64  1  0.10341994  0.34102450  0.09515865  1.0
  Hf  Hf65  1  0.10341994  0.67435783  0.09515865  1.0
  Hf  Hf66  1  0.43675328  0.00769117  0.09515865  1.0
  Hf  Hf67  1  0.43675328  0.34102450  0.09515865  1.0
  Hf  Hf68  1  0.43675328  0.67435783  0.09515865  1.0
  Hf  Hf69  1  0.77008661  0.00769117  0.09515865  1.0
  Hf  Hf70  1  0.77008661  0.34102450  0.09515865  1.0
  Hf  Hf71  1  0.77008661  0.67435783  0.09515865  1.0
  Hf  Hf72  1  0.16926661  0.27517783  0.07540465  1.0
  Hf  Hf73  1  0.16926661  0.60851117  0.07540465  1.0
  Hf  Hf74  1  0.16926661  0.94184450  0.07540465  1.0
  Hf  Hf75  1  0.50259994  0.27517783  0.07540465  1.0
  Hf  Hf76  1  0.50259994  0.60851117  0.07540465  1.0
  Hf  Hf77  1  0.50259994  0.94184450  0.07540465  1.0
  Hf  Hf78  1  0.83593328  0.27517783  0.07540465  1.0
  Hf  Hf79  1  0.83593328  0.60851117  0.07540465  1.0
  Hf  Hf80  1  0.83593328  0.94184450  0.07540465  1.0
  Hf  Hf81  1  0.00259994  0.10851117  0.02540465  1.0
  Hf  Hf82  1  0.00259994  0.44184450  0.02540465  1.0
  Hf  Hf83  1  0.00259994  0.77517783  0.02540465  1.0
  Hf  Hf84  1  0.33593328  0.10851117  0.02540465  1.0
  Hf  Hf85  1  0.33593328  0.44184450  0.02540465  1.0
  Hf  Hf86  1  0.33593328  0.77517783  0.02540465  1.0
  Hf  Hf87  1  0.66926661  0.10851117  0.02540465  1.0
  Hf  Hf88  1  0.66926661  0.44184450  0.02540465  1.0
  Hf  Hf89  1  0.66926661  0.77517783  0.02540465  1.0
  Hf  Hf90  1  0.03037772  0.19184450  0.05040465  1.0
  Hf  Hf91  1  0.03037772  0.52517783  0.05040465  1.0
  Hf  Hf92  1  0.03037772  0.85851117  0.05040465  1.0
  Hf  Hf93  1  0.36371106  0.19184450  0.05040465  1.0
  Hf  Hf94  1  0.36371106  0.52517783  0.05040465  1.0
  Hf  Hf95  1  0.36371106  0.85851117  0.05040465  1.0
  Hf  Hf96  1  0.69704439  0.19184450  0.05040465  1.0
  Hf  Hf97  1  0.69704439  0.52517783  0.05040465  1.0
  Hf  Hf98  1  0.69704439  0.85851117  0.05040465  1.0
  Hf  Hf99  1  0.19704439  0.02517783  0.00040465  1.0
  Hf  Hf100  1  0.19704439  0.35851117  0.00040465  1.0
  Hf  Hf101  1  0.19704439  0.69184450  0.00040465  1.0
  Hf  Hf102  1  0.53037772  0.02517783  0.00040465  1.0
  Hf  Hf103  1  0.53037772  0.35851117  0.00040465  1.0
  Hf  Hf104  1  0.53037772  0.69184450  0.00040465  1.0
  Hf  Hf105  1  0.86371106  0.02517783  0.00040465  1.0
  Hf  Hf106  1  0.86371106  0.35851117  0.00040465  1.0
  Hf  Hf107  1  0.86371106  0.69184450  0.00040465  1.0
  Hf  Hf108  1  0.33073339  0.22482217  0.06029795  1.0
  Hf  Hf109  1  0.33073339  0.55815550  0.06029795  1.0
  Hf  Hf110  1  0.33073339  0.89148883  0.06029795  1.0
  Hf  Hf111  1  0.66406672  0.22482217  0.06029795  1.0
  Hf  Hf112  1  0.66406672  0.55815550  0.06029795  1.0
  Hf  Hf113  1  0.66406672  0.89148883  0.06029795  1.0
  Hf  Hf114  1  0.99740006  0.22482217  0.06029795  1.0
  Hf  Hf115  1  0.99740006  0.55815550  0.06029795  1.0
  Hf  Hf116  1  0.99740006  0.89148883  0.06029795  1.0
  Hf  Hf117  1  0.16406672  0.05815550  0.01029795  1.0
  Hf  Hf118  1  0.16406672  0.39148883  0.01029795  1.0
  Hf  Hf119  1  0.16406672  0.72482217  0.01029795  1.0
  Hf  Hf120  1  0.49740006  0.05815550  0.01029795  1.0
  Hf  Hf121  1  0.49740006  0.39148883  0.01029795  1.0
  Hf  Hf122  1  0.49740006  0.72482217  0.01029795  1.0
  Hf  Hf123  1  0.83073339  0.05815550  0.01029795  1.0
  Hf  Hf124  1  0.83073339  0.39148883  0.01029795  1.0
  Hf  Hf125  1  0.83073339  0.72482217  0.01029795  1.0
  Hf  Hf126  1  0.13628894  0.30815550  0.08529795  1.0
  Hf  Hf127  1  0.13628894  0.64148883  0.08529795  1.0
  Hf  Hf128  1  0.13628894  0.97482217  0.08529795  1.0
  Hf  Hf129  1  0.46962228  0.30815550  0.08529795  1.0
  Hf  Hf130  1  0.46962228  0.64148883  0.08529795  1.0
  Hf  Hf131  1  0.46962228  0.97482217  0.08529795  1.0
  Hf  Hf132  1  0.80295561  0.30815550  0.08529795  1.0
  Hf  Hf133  1  0.80295561  0.64148883  0.08529795  1.0
  Hf  Hf134  1  0.80295561  0.97482217  0.08529795  1.0
  Hf  Hf135  1  0.30295561  0.14148883  0.03529795  1.0
  Hf  Hf136  1  0.30295561  0.47482217  0.03529795  1.0
  Hf  Hf137  1  0.30295561  0.80815550  0.03529795  1.0
  Hf  Hf138  1  0.63628894  0.14148883  0.03529795  1.0
  Hf  Hf139  1  0.63628894  0.47482217  0.03529795  1.0
  Hf  Hf140  1  0.63628894  0.80815550  0.03529795  1.0
  Hf  Hf141  1  0.96962228  0.14148883  0.03529795  1.0
  Hf  Hf142  1  0.96962228  0.47482217  0.03529795  1.0
  Hf  Hf143  1  0.96962228  0.80815550  0.03529795  1.0
  Hf  Hf144  1  0.12500000  0.20833333  0.05535130  1.0
  Hf  Hf145  1  0.12500000  0.54166667  0.05535130  1.0
  Hf  Hf146  1  0.12500000  0.87500000  0.05535130  1.0
  Hf  Hf147  1  0.45833333  0.20833333  0.05535130  1.0
  Hf  Hf148  1  0.45833333  0.54166667  0.05535130  1.0
  Hf  Hf149  1  0.45833333  0.87500000  0.05535130  1.0
  Hf  Hf150  1  0.79166667  0.20833333  0.05535130  1.0
  Hf  Hf151  1  0.79166667  0.54166667  0.05535130  1.0
  Hf  Hf152  1  0.79166667  0.87500000  0.05535130  1.0
  Hf  Hf153  1  0.29166667  0.04166667  0.00535130  1.0
  Hf  Hf154  1  0.29166667  0.37500000  0.00535130  1.0
  Hf  Hf155  1  0.29166667  0.70833333  0.00535130  1.0
  Hf  Hf156  1  0.62500000  0.04166667  0.00535130  1.0
  Hf  Hf157  1  0.62500000  0.37500000  0.00535130  1.0
  Hf  Hf158  1  0.62500000  0.70833333  0.00535130  1.0
  Hf  Hf159  1  0.95833333  0.04166667  0.00535130  1.0
  Hf  Hf160  1  0.95833333  0.37500000  0.00535130  1.0
  Hf  Hf161  1  0.95833333  0.70833333  0.00535130  1.0
  Hf  Hf162  1  0.04166667  0.29166667  0.08035130  1.0
  Hf  Hf163  1  0.04166667  0.62500000  0.08035130  1.0
  Hf  Hf164  1  0.04166667  0.95833333  0.08035130  1.0
  Hf  Hf165  1  0.37500000  0.29166667  0.08035130  1.0
  Hf  Hf166  1  0.37500000  0.62500000  0.08035130  1.0
  Hf  Hf167  1  0.37500000  0.95833333  0.08035130  1.0
  Hf  Hf168  1  0.70833333  0.29166667  0.08035130  1.0
  Hf  Hf169  1  0.70833333  0.62500000  0.08035130  1.0
  Hf  Hf170  1  0.70833333  0.95833333  0.08035130  1.0
  Hf  Hf171  1  0.20833333  0.12500000  0.03035130  1.0
  Hf  Hf172  1  0.20833333  0.45833333  0.03035130  1.0
  Hf  Hf173  1  0.20833333  0.79166667  0.03035130  1.0
  Hf  Hf174  1  0.54166667  0.12500000  0.03035130  1.0
  Hf  Hf175  1  0.54166667  0.45833333  0.03035130  1.0
  Hf  Hf176  1  0.54166667  0.79166667  0.03035130  1.0
  Hf  Hf177  1  0.87500000  0.12500000  0.03035130  1.0
  Hf  Hf178  1  0.87500000  0.45833333  0.03035130  1.0
  Hf  Hf179  1  0.87500000  0.79166667  0.03035130  1.0
  Ni  Ni180  1  0.30234100  0.30840300  0.03570260  1.0
  Ni  Ni181  1  0.30234100  0.64173633  0.03570260  1.0
  Ni  Ni182  1  0.30234100  0.97506967  0.03570260  1.0
  Ni  Ni183  1  0.63567433  0.30840300  0.03570260  1.0
  Ni  Ni184  1  0.63567433  0.64173633  0.03570260  1.0
  Ni  Ni185  1  0.63567433  0.97506967  0.03570260  1.0
  Ni  Ni186  1  0.96900767  0.30840300  0.03570260  1.0
  Ni  Ni187  1  0.96900767  0.64173633  0.03570260  1.0
  Ni  Ni188  1  0.96900767  0.97506967  0.03570260  1.0
  Ni  Ni189  1  0.13567433  0.14173633  0.08570260  1.0
  Ni  Ni190  1  0.13567433  0.47506967  0.08570260  1.0
  Ni  Ni191  1  0.13567433  0.80840300  0.08570260  1.0
  Ni  Ni192  1  0.46900767  0.14173633  0.08570260  1.0
  Ni  Ni193  1  0.46900767  0.47506967  0.08570260  1.0
  Ni  Ni194  1  0.46900767  0.80840300  0.08570260  1.0
  Ni  Ni195  1  0.80234100  0.14173633  0.08570260  1.0
  Ni  Ni196  1  0.80234100  0.47506967  0.08570260  1.0
  Ni  Ni197  1  0.80234100  0.80840300  0.08570260  1.0
  Ni  Ni198  1  0.13677567  0.30840300  0.03504180  1.0
  Ni  Ni199  1  0.13677567  0.64173633  0.03504180  1.0
  Ni  Ni200  1  0.13677567  0.97506967  0.03504180  1.0
  Ni  Ni201  1  0.47010900  0.30840300  0.03504180  1.0
  Ni  Ni202  1  0.47010900  0.64173633  0.03504180  1.0
  Ni  Ni203  1  0.47010900  0.97506967  0.03504180  1.0
  Ni  Ni204  1  0.80344233  0.30840300  0.03504180  1.0
  Ni  Ni205  1  0.80344233  0.64173633  0.03504180  1.0
  Ni  Ni206  1  0.80344233  0.97506967  0.03504180  1.0
  Ni  Ni207  1  0.30344233  0.14173633  0.08504180  1.0
  Ni  Ni208  1  0.30344233  0.47506967  0.08504180  1.0
  Ni  Ni209  1  0.30344233  0.80840300  0.08504180  1.0
  Ni  Ni210  1  0.63677567  0.14173633  0.08504180  1.0
  Ni  Ni211  1  0.63677567  0.47506967  0.08504180  1.0
  Ni  Ni212  1  0.63677567  0.80840300  0.08504180  1.0
  Ni  Ni213  1  0.97010900  0.14173633  0.08504180  1.0
  Ni  Ni214  1  0.97010900  0.47506967  0.08504180  1.0
  Ni  Ni215  1  0.97010900  0.80840300  0.08504180  1.0
  Ni  Ni216  1  0.30234100  0.30840300  0.08537220  1.0
  Ni  Ni217  1  0.30234100  0.64173633  0.08537220  1.0
  Ni  Ni218  1  0.30234100  0.97506967  0.08537220  1.0
  Ni  Ni219  1  0.63567433  0.30840300  0.08537220  1.0
  Ni  Ni220  1  0.63567433  0.64173633  0.08537220  1.0
  Ni  Ni221  1  0.63567433  0.97506967  0.08537220  1.0
  Ni  Ni222  1  0.96900767  0.30840300  0.08537220  1.0
  Ni  Ni223  1  0.96900767  0.64173633  0.08537220  1.0
  Ni  Ni224  1  0.96900767  0.97506967  0.08537220  1.0
  Ni  Ni225  1  0.13567433  0.14173633  0.03537220  1.0
  Ni  Ni226  1  0.13567433  0.47506967  0.03537220  1.0
  Ni  Ni227  1  0.13567433  0.80840300  0.03537220  1.0
  Ni  Ni228  1  0.46900767  0.14173633  0.03537220  1.0
  Ni  Ni229  1  0.46900767  0.47506967  0.03537220  1.0
  Ni  Ni230  1  0.46900767  0.80840300  0.03537220  1.0
  Ni  Ni231  1  0.80234100  0.14173633  0.03537220  1.0
  Ni  Ni232  1  0.80234100  0.47506967  0.03537220  1.0
  Ni  Ni233  1  0.80234100  0.80840300  0.03537220  1.0
  Ni  Ni234  1  0.16418633  0.22506967  0.06037220  1.0
  Ni  Ni235  1  0.16418633  0.55840300  0.06037220  1.0
  Ni  Ni236  1  0.16418633  0.89173633  0.06037220  1.0
  Ni  Ni237  1  0.49751967  0.22506967  0.06037220  1.0
  Ni  Ni238  1  0.49751967  0.55840300  0.06037220  1.0
  Ni  Ni239  1  0.49751967  0.89173633  0.06037220  1.0
  Ni  Ni240  1  0.83085300  0.22506967  0.06037220  1.0
  Ni  Ni241  1  0.83085300  0.55840300  0.06037220  1.0
  Ni  Ni242  1  0.83085300  0.89173633  0.06037220  1.0
  Ni  Ni243  1  0.33085300  0.05840300  0.01037220  1.0
  Ni  Ni244  1  0.33085300  0.39173633  0.01037220  1.0
  Ni  Ni245  1  0.33085300  0.72506967  0.01037220  1.0
  Ni  Ni246  1  0.66418633  0.05840300  0.01037220  1.0
  Ni  Ni247  1  0.66418633  0.39173633  0.01037220  1.0
  Ni  Ni248  1  0.66418633  0.72506967  0.01037220  1.0
  Ni  Ni249  1  0.99751967  0.05840300  0.01037220  1.0
  Ni  Ni250  1  0.99751967  0.39173633  0.01037220  1.0
  Ni  Ni251  1  0.99751967  0.72506967  0.01037220  1.0
  Ni  Ni252  1  0.02989100  0.19159700  0.00066080  1.0
  Ni  Ni253  1  0.02989100  0.52493033  0.00066080  1.0
  Ni  Ni254  1  0.02989100  0.85826367  0.00066080  1.0
  Ni  Ni255  1  0.36322433  0.19159700  0.00066080  1.0
  Ni  Ni256  1  0.36322433  0.52493033  0.00066080  1.0
  Ni  Ni257  1  0.36322433  0.85826367  0.00066080  1.0
  Ni  Ni258  1  0.69655767  0.19159700  0.00066080  1.0
  Ni  Ni259  1  0.69655767  0.52493033  0.00066080  1.0
  Ni  Ni260  1  0.69655767  0.85826367  0.00066080  1.0
  Ni  Ni261  1  0.19655767  0.02493033  0.05066080  1.0
  Ni  Ni262  1  0.19655767  0.35826367  0.05066080  1.0
  Ni  Ni263  1  0.19655767  0.69159700  0.05066080  1.0
  Ni  Ni264  1  0.52989100  0.02493033  0.05066080  1.0
  Ni  Ni265  1  0.52989100  0.35826367  0.05066080  1.0
  Ni  Ni266  1  0.52989100  0.69159700  0.05066080  1.0
  Ni  Ni267  1  0.86322433  0.02493033  0.05066080  1.0
  Ni  Ni268  1  0.86322433  0.35826367  0.05066080  1.0
  Ni  Ni269  1  0.86322433  0.69159700  0.05066080  1.0
  Ni  Ni270  1  0.16418633  0.22506967  0.01004180  1.0
  Ni  Ni271  1  0.16418633  0.55840300  0.01004180  1.0
  Ni  Ni272  1  0.16418633  0.89173633  0.01004180  1.0
  Ni  Ni273  1  0.49751967  0.22506967  0.01004180  1.0
  Ni  Ni274  1  0.49751967  0.55840300  0.01004180  1.0
  Ni  Ni275  1  0.49751967  0.89173633  0.01004180  1.0
  Ni  Ni276  1  0.83085300  0.22506967  0.01004180  1.0
  Ni  Ni277  1  0.83085300  0.55840300  0.01004180  1.0
  Ni  Ni278  1  0.83085300  0.89173633  0.01004180  1.0
  Ni  Ni279  1  0.33085300  0.05840300  0.06004180  1.0
  Ni  Ni280  1  0.33085300  0.39173633  0.06004180  1.0
  Ni  Ni281  1  0.33085300  0.72506967  0.06004180  1.0
  Ni  Ni282  1  0.66418633  0.05840300  0.06004180  1.0
  Ni  Ni283  1  0.66418633  0.39173633  0.06004180  1.0
  Ni  Ni284  1  0.66418633  0.72506967  0.06004180  1.0
  Ni  Ni285  1  0.99751967  0.05840300  0.06004180  1.0
  Ni  Ni286  1  0.99751967  0.39173633  0.06004180  1.0
  Ni  Ni287  1  0.99751967  0.72506967  0.06004180  1.0
  Ni  Ni288  1  0.32975167  0.22506967  0.01070260  1.0
  Ni  Ni289  1  0.32975167  0.55840300  0.01070260  1.0
  Ni  Ni290  1  0.32975167  0.89173633  0.01070260  1.0
  Ni  Ni291  1  0.66308500  0.22506967  0.01070260  1.0
  Ni  Ni292  1  0.66308500  0.55840300  0.01070260  1.0
  Ni  Ni293  1  0.66308500  0.89173633  0.01070260  1.0
  Ni  Ni294  1  0.99641833  0.22506967  0.01070260  1.0
  Ni  Ni295  1  0.99641833  0.55840300  0.01070260  1.0
  Ni  Ni296  1  0.99641833  0.89173633  0.01070260  1.0
  Ni  Ni297  1  0.16308500  0.05840300  0.06070260  1.0
  Ni  Ni298  1  0.16308500  0.39173633  0.06070260  1.0
  Ni  Ni299  1  0.16308500  0.72506967  0.06070260  1.0
  Ni  Ni300  1  0.49641833  0.05840300  0.06070260  1.0
  Ni  Ni301  1  0.49641833  0.39173633  0.06070260  1.0
  Ni  Ni302  1  0.49641833  0.72506967  0.06070260  1.0
  Ni  Ni303  1  0.82975167  0.05840300  0.06070260  1.0
  Ni  Ni304  1  0.82975167  0.39173633  0.06070260  1.0
  Ni  Ni305  1  0.82975167  0.72506967  0.06070260  1.0
  Ni  Ni306  1  0.00248033  0.27493033  0.02566080  1.0
  Ni  Ni307  1  0.00248033  0.60826367  0.02566080  1.0
  Ni  Ni308  1  0.00248033  0.94159700  0.02566080  1.0
  Ni  Ni309  1  0.33581367  0.27493033  0.02566080  1.0
  Ni  Ni310  1  0.33581367  0.60826367  0.02566080  1.0
  Ni  Ni311  1  0.33581367  0.94159700  0.02566080  1.0
  Ni  Ni312  1  0.66914700  0.27493033  0.02566080  1.0
  Ni  Ni313  1  0.66914700  0.60826367  0.02566080  1.0
  Ni  Ni314  1  0.66914700  0.94159700  0.02566080  1.0
  Ni  Ni315  1  0.16914700  0.10826367  0.07566080  1.0
  Ni  Ni316  1  0.16914700  0.44159700  0.07566080  1.0
  Ni  Ni317  1  0.16914700  0.77493033  0.07566080  1.0
  Ni  Ni318  1  0.50248033  0.10826367  0.07566080  1.0
  Ni  Ni319  1  0.50248033  0.44159700  0.07566080  1.0
  Ni  Ni320  1  0.50248033  0.77493033  0.07566080  1.0
  Ni  Ni321  1  0.83581367  0.10826367  0.07566080  1.0
  Ni  Ni322  1  0.83581367  0.44159700  0.07566080  1.0
  Ni  Ni323  1  0.83581367  0.77493033  0.07566080  1.0
  Ni  Ni324  1  0.00248033  0.27493033  0.07533040  1.0
  Ni  Ni325  1  0.00248033  0.60826367  0.07533040  1.0
  Ni  Ni326  1  0.00248033  0.94159700  0.07533040  1.0
  Ni  Ni327  1  0.33581367  0.27493033  0.07533040  1.0
  Ni  Ni328  1  0.33581367  0.60826367  0.07533040  1.0
  Ni  Ni329  1  0.33581367  0.94159700  0.07533040  1.0
  Ni  Ni330  1  0.66914700  0.27493033  0.07533040  1.0
  Ni  Ni331  1  0.66914700  0.60826367  0.07533040  1.0
  Ni  Ni332  1  0.66914700  0.94159700  0.07533040  1.0
  Ni  Ni333  1  0.16914700  0.10826367  0.02533040  1.0
  Ni  Ni334  1  0.16914700  0.44159700  0.02533040  1.0
  Ni  Ni335  1  0.16914700  0.77493033  0.02533040  1.0
  Ni  Ni336  1  0.50248033  0.10826367  0.02533040  1.0
  Ni  Ni337  1  0.50248033  0.44159700  0.02533040  1.0
  Ni  Ni338  1  0.50248033  0.77493033  0.02533040  1.0
  Ni  Ni339  1  0.83581367  0.10826367  0.02533040  1.0
  Ni  Ni340  1  0.83581367  0.44159700  0.02533040  1.0
  Ni  Ni341  1  0.83581367  0.77493033  0.02533040  1.0
  Ni  Ni342  1  0.19765900  0.19159700  0.05033040  1.0
  Ni  Ni343  1  0.19765900  0.52493033  0.05033040  1.0
  Ni  Ni344  1  0.19765900  0.85826367  0.05033040  1.0
  Ni  Ni345  1  0.53099233  0.19159700  0.05033040  1.0
  Ni  Ni346  1  0.53099233  0.52493033  0.05033040  1.0
  Ni  Ni347  1  0.53099233  0.85826367  0.05033040  1.0
  Ni  Ni348  1  0.86432567  0.19159700  0.05033040  1.0
  Ni  Ni349  1  0.86432567  0.52493033  0.05033040  1.0
  Ni  Ni350  1  0.86432567  0.85826367  0.05033040  1.0
  Ni  Ni351  1  0.03099233  0.02493033  0.00033040  1.0
  Ni  Ni352  1  0.03099233  0.35826367  0.00033040  1.0
  Ni  Ni353  1  0.03099233  0.69159700  0.00033040  1.0
  Ni  Ni354  1  0.36432567  0.02493033  0.00033040  1.0
  Ni  Ni355  1  0.36432567  0.35826367  0.00033040  1.0
  Ni  Ni356  1  0.36432567  0.69159700  0.00033040  1.0
  Ni  Ni357  1  0.69765900  0.02493033  0.00033040  1.0
  Ni  Ni358  1  0.69765900  0.35826367  0.00033040  1.0
  Ni  Ni359  1  0.69765900  0.69159700  0.00033040  1.0
  Ni  Ni360  1  0.03456500  0.29166667  0.03354705  1.0
  Ni  Ni361  1  0.03456500  0.62500000  0.03354705  1.0
  Ni  Ni362  1  0.03456500  0.95833333  0.03354705  1.0
  Ni  Ni363  1  0.36789833  0.29166667  0.03354705  1.0
  Ni  Ni364  1  0.36789833  0.62500000  0.03354705  1.0
  Ni  Ni365  1  0.36789833  0.95833333  0.03354705  1.0
  Ni  Ni366  1  0.70123167  0.29166667  0.03354705  1.0
  Ni  Ni367  1  0.70123167  0.62500000  0.03354705  1.0
  Ni  Ni368  1  0.70123167  0.95833333  0.03354705  1.0
  Ni  Ni369  1  0.20123167  0.12500000  0.08354705  1.0
  Ni  Ni370  1  0.20123167  0.45833333  0.08354705  1.0
  Ni  Ni371  1  0.20123167  0.79166667  0.08354705  1.0
  Ni  Ni372  1  0.53456500  0.12500000  0.08354705  1.0
  Ni  Ni373  1  0.53456500  0.45833333  0.08354705  1.0
  Ni  Ni374  1  0.53456500  0.79166667  0.08354705  1.0
  Ni  Ni375  1  0.86789833  0.12500000  0.08354705  1.0
  Ni  Ni376  1  0.86789833  0.45833333  0.08354705  1.0
  Ni  Ni377  1  0.86789833  0.79166667  0.08354705  1.0
  Ni  Ni378  1  0.28811583  0.20833333  0.00854705  1.0
  Ni  Ni379  1  0.28811583  0.54166667  0.00854705  1.0
  Ni  Ni380  1  0.28811583  0.87500000  0.00854705  1.0
  Ni  Ni381  1  0.62144917  0.20833333  0.00854705  1.0
  Ni  Ni382  1  0.62144917  0.54166667  0.00854705  1.0
  Ni  Ni383  1  0.62144917  0.87500000  0.00854705  1.0
  Ni  Ni384  1  0.95478250  0.20833333  0.00854705  1.0
  Ni  Ni385  1  0.95478250  0.54166667  0.00854705  1.0
  Ni  Ni386  1  0.95478250  0.87500000  0.00854705  1.0
  Ni  Ni387  1  0.12144917  0.04166667  0.05854705  1.0
  Ni  Ni388  1  0.12144917  0.37500000  0.05854705  1.0
  Ni  Ni389  1  0.12144917  0.70833333  0.05854705  1.0
  Ni  Ni390  1  0.45478250  0.04166667  0.05854705  1.0
  Ni  Ni391  1  0.45478250  0.37500000  0.05854705  1.0
  Ni  Ni392  1  0.45478250  0.70833333  0.05854705  1.0
  Ni  Ni393  1  0.78811583  0.04166667  0.05854705  1.0
  Ni  Ni394  1  0.78811583  0.37500000  0.05854705  1.0
  Ni  Ni395  1  0.78811583  0.70833333  0.05854705  1.0
  Ni  Ni396  1  0.28811583  0.20833333  0.05535130  1.0
  Ni  Ni397  1  0.28811583  0.54166667  0.05535130  1.0
  Ni  Ni398  1  0.28811583  0.87500000  0.05535130  1.0
  Ni  Ni399  1  0.62144917  0.20833333  0.05535130  1.0
  Ni  Ni400  1  0.62144917  0.54166667  0.05535130  1.0
  Ni  Ni401  1  0.62144917  0.87500000  0.05535130  1.0
  Ni  Ni402  1  0.95478250  0.20833333  0.05535130  1.0
  Ni  Ni403  1  0.95478250  0.54166667  0.05535130  1.0
  Ni  Ni404  1  0.95478250  0.87500000  0.05535130  1.0
  Ni  Ni405  1  0.12144917  0.04166667  0.00535130  1.0
  Ni  Ni406  1  0.12144917  0.37500000  0.00535130  1.0
  Ni  Ni407  1  0.12144917  0.70833333  0.00535130  1.0
  Ni  Ni408  1  0.45478250  0.04166667  0.00535130  1.0
  Ni  Ni409  1  0.45478250  0.37500000  0.00535130  1.0
  Ni  Ni410  1  0.45478250  0.70833333  0.00535130  1.0
  Ni  Ni411  1  0.78811583  0.04166667  0.00535130  1.0
  Ni  Ni412  1  0.78811583  0.37500000  0.00535130  1.0
  Ni  Ni413  1  0.78811583  0.70833333  0.00535130  1.0
  Ni  Ni414  1  0.21188417  0.29166667  0.08035130  1.0
  Ni  Ni415  1  0.21188417  0.62500000  0.08035130  1.0
  Ni  Ni416  1  0.21188417  0.95833333  0.08035130  1.0
  Ni  Ni417  1  0.54521750  0.29166667  0.08035130  1.0
  Ni  Ni418  1  0.54521750  0.62500000  0.08035130  1.0
  Ni  Ni419  1  0.54521750  0.95833333  0.08035130  1.0
  Ni  Ni420  1  0.87855083  0.29166667  0.08035130  1.0
  Ni  Ni421  1  0.87855083  0.62500000  0.08035130  1.0
  Ni  Ni422  1  0.87855083  0.95833333  0.08035130  1.0
  Ni  Ni423  1  0.04521750  0.12500000  0.03035130  1.0
  Ni  Ni424  1  0.04521750  0.45833333  0.03035130  1.0
  Ni  Ni425  1  0.04521750  0.79166667  0.03035130  1.0
  Ni  Ni426  1  0.37855083  0.12500000  0.03035130  1.0
  Ni  Ni427  1  0.37855083  0.45833333  0.03035130  1.0
  Ni  Ni428  1  0.37855083  0.79166667  0.03035130  1.0
  Ni  Ni429  1  0.71188417  0.12500000  0.03035130  1.0
  Ni  Ni430  1  0.71188417  0.45833333  0.03035130  1.0
  Ni  Ni431  1  0.71188417  0.79166667  0.03035130  1.0
  Ni  Ni432  1  0.21188417  0.29166667  0.02715555  1.0
  Ni  Ni433  1  0.21188417  0.62500000  0.02715555  1.0
  Ni  Ni434  1  0.21188417  0.95833333  0.02715555  1.0
  Ni  Ni435  1  0.54521750  0.29166667  0.02715555  1.0
  Ni  Ni436  1  0.54521750  0.62500000  0.02715555  1.0
  Ni  Ni437  1  0.54521750  0.95833333  0.02715555  1.0
  Ni  Ni438  1  0.87855083  0.29166667  0.02715555  1.0
  Ni  Ni439  1  0.87855083  0.62500000  0.02715555  1.0
  Ni  Ni440  1  0.87855083  0.95833333  0.02715555  1.0
  Ni  Ni441  1  0.04521750  0.12500000  0.07715555  1.0
  Ni  Ni442  1  0.04521750  0.45833333  0.07715555  1.0
  Ni  Ni443  1  0.04521750  0.79166667  0.07715555  1.0
  Ni  Ni444  1  0.37855083  0.12500000  0.07715555  1.0
  Ni  Ni445  1  0.37855083  0.45833333  0.07715555  1.0
  Ni  Ni446  1  0.37855083  0.79166667  0.07715555  1.0
  Ni  Ni447  1  0.71188417  0.12500000  0.07715555  1.0
  Ni  Ni448  1  0.71188417  0.45833333  0.07715555  1.0
  Ni  Ni449  1  0.71188417  0.79166667  0.07715555  1.0
  Ni  Ni450  1  0.13210167  0.20833333  0.00215555  1.0
  Ni  Ni451  1  0.13210167  0.54166667  0.00215555  1.0
  Ni  Ni452  1  0.13210167  0.87500000  0.00215555  1.0
  Ni  Ni453  1  0.46543500  0.20833333  0.00215555  1.0
  Ni  Ni454  1  0.46543500  0.54166667  0.00215555  1.0
  Ni  Ni455  1  0.46543500  0.87500000  0.00215555  1.0
  Ni  Ni456  1  0.79876833  0.20833333  0.00215555  1.0
  Ni  Ni457  1  0.79876833  0.54166667  0.00215555  1.0
  Ni  Ni458  1  0.79876833  0.87500000  0.00215555  1.0
  Ni  Ni459  1  0.29876833  0.04166667  0.05215555  1.0
  Ni  Ni460  1  0.29876833  0.37500000  0.05215555  1.0
  Ni  Ni461  1  0.29876833  0.70833333  0.05215555  1.0
  Ni  Ni462  1  0.63210167  0.04166667  0.05215555  1.0
  Ni  Ni463  1  0.63210167  0.37500000  0.05215555  1.0
  Ni  Ni464  1  0.63210167  0.70833333  0.05215555  1.0
  Ni  Ni465  1  0.96543500  0.04166667  0.05215555  1.0
  Ni  Ni466  1  0.96543500  0.37500000  0.05215555  1.0
  Ni  Ni467  1  0.96543500  0.70833333  0.05215555  1.0
  Ni  Ni468  1  0.30393817  0.25853217  0.01729930  1.0
  Ni  Ni469  1  0.30393817  0.59186550  0.01729930  1.0
  Ni  Ni470  1  0.30393817  0.92519883  0.01729930  1.0
  Ni  Ni471  1  0.63727150  0.25853217  0.01729930  1.0
  Ni  Ni472  1  0.63727150  0.59186550  0.01729930  1.0
  Ni  Ni473  1  0.63727150  0.92519883  0.01729930  1.0
  Ni  Ni474  1  0.97060483  0.25853217  0.01729930  1.0
  Ni  Ni475  1  0.97060483  0.59186550  0.01729930  1.0
  Ni  Ni476  1  0.97060483  0.92519883  0.01729930  1.0
  Ni  Ni477  1  0.13727150  0.09186550  0.06729930  1.0
  Ni  Ni478  1  0.13727150  0.42519883  0.06729930  1.0
  Ni  Ni479  1  0.13727150  0.75853217  0.06729930  1.0
  Ni  Ni480  1  0.47060483  0.09186550  0.06729930  1.0
  Ni  Ni481  1  0.47060483  0.42519883  0.06729930  1.0
  Ni  Ni482  1  0.47060483  0.75853217  0.06729930  1.0
  Ni  Ni483  1  0.80393817  0.09186550  0.06729930  1.0
  Ni  Ni484  1  0.80393817  0.42519883  0.06729930  1.0
  Ni  Ni485  1  0.80393817  0.75853217  0.06729930  1.0
  Ni  Ni486  1  0.10603633  0.17519883  0.09229930  1.0
  Ni  Ni487  1  0.10603633  0.50853217  0.09229930  1.0
  Ni  Ni488  1  0.10603633  0.84186550  0.09229930  1.0
  Ni  Ni489  1  0.43936967  0.17519883  0.09229930  1.0
  Ni  Ni490  1  0.43936967  0.50853217  0.09229930  1.0
  Ni  Ni491  1  0.43936967  0.84186550  0.09229930  1.0
  Ni  Ni492  1  0.77270300  0.17519883  0.09229930  1.0
  Ni  Ni493  1  0.77270300  0.50853217  0.09229930  1.0
  Ni  Ni494  1  0.77270300  0.84186550  0.09229930  1.0
  Ni  Ni495  1  0.27270300  0.00853217  0.04229930  1.0
  Ni  Ni496  1  0.27270300  0.34186550  0.04229930  1.0
  Ni  Ni497  1  0.27270300  0.67519883  0.04229930  1.0
  Ni  Ni498  1  0.60603633  0.00853217  0.04229930  1.0
  Ni  Ni499  1  0.60603633  0.34186550  0.04229930  1.0
  Ni  Ni500  1  0.60603633  0.67519883  0.04229930  1.0
  Ni  Ni501  1  0.93936967  0.00853217  0.04229930  1.0
  Ni  Ni502  1  0.93936967  0.34186550  0.04229930  1.0
  Ni  Ni503  1  0.93936967  0.67519883  0.04229930  1.0
  Ni  Ni504  1  0.10603633  0.17519883  0.04541095  1.0
  Ni  Ni505  1  0.10603633  0.50853217  0.04541095  1.0
  Ni  Ni506  1  0.10603633  0.84186550  0.04541095  1.0
  Ni  Ni507  1  0.43936967  0.17519883  0.04541095  1.0
  Ni  Ni508  1  0.43936967  0.50853217  0.04541095  1.0
  Ni  Ni509  1  0.43936967  0.84186550  0.04541095  1.0
  Ni  Ni510  1  0.77270300  0.17519883  0.04541095  1.0
  Ni  Ni511  1  0.77270300  0.50853217  0.04541095  1.0
  Ni  Ni512  1  0.77270300  0.84186550  0.04541095  1.0
  Ni  Ni513  1  0.27270300  0.00853217  0.09541095  1.0
  Ni  Ni514  1  0.27270300  0.34186550  0.09541095  1.0
  Ni  Ni515  1  0.27270300  0.67519883  0.09541095  1.0
  Ni  Ni516  1  0.60603633  0.00853217  0.09541095  1.0
  Ni  Ni517  1  0.60603633  0.34186550  0.09541095  1.0
  Ni  Ni518  1  0.60603633  0.67519883  0.09541095  1.0
  Ni  Ni519  1  0.93936967  0.00853217  0.09541095  1.0
  Ni  Ni520  1  0.93936967  0.34186550  0.09541095  1.0
  Ni  Ni521  1  0.93936967  0.67519883  0.09541095  1.0
  Ni  Ni522  1  0.12689933  0.25853217  0.07041095  1.0
  Ni  Ni523  1  0.12689933  0.59186550  0.07041095  1.0
  Ni  Ni524  1  0.12689933  0.92519883  0.07041095  1.0
  Ni  Ni525  1  0.46023267  0.25853217  0.07041095  1.0
  Ni  Ni526  1  0.46023267  0.59186550  0.07041095  1.0
  Ni  Ni527  1  0.46023267  0.92519883  0.07041095  1.0
  Ni  Ni528  1  0.79356600  0.25853217  0.07041095  1.0
  Ni  Ni529  1  0.79356600  0.59186550  0.07041095  1.0
  Ni  Ni530  1  0.79356600  0.92519883  0.07041095  1.0
  Ni  Ni531  1  0.29356600  0.09186550  0.02041095  1.0
  Ni  Ni532  1  0.29356600  0.42519883  0.02041095  1.0
  Ni  Ni533  1  0.29356600  0.75853217  0.02041095  1.0
  Ni  Ni534  1  0.62689933  0.09186550  0.02041095  1.0
  Ni  Ni535  1  0.62689933  0.42519883  0.02041095  1.0
  Ni  Ni536  1  0.62689933  0.75853217  0.02041095  1.0
  Ni  Ni537  1  0.96023267  0.09186550  0.02041095  1.0
  Ni  Ni538  1  0.96023267  0.42519883  0.02041095  1.0
  Ni  Ni539  1  0.96023267  0.75853217  0.02041095  1.0
  Ni  Ni540  1  0.12689933  0.25853217  0.02352260  1.0
  Ni  Ni541  1  0.12689933  0.59186550  0.02352260  1.0
  Ni  Ni542  1  0.12689933  0.92519883  0.02352260  1.0
  Ni  Ni543  1  0.46023267  0.25853217  0.02352260  1.0
  Ni  Ni544  1  0.46023267  0.59186550  0.02352260  1.0
  Ni  Ni545  1  0.46023267  0.92519883  0.02352260  1.0
  Ni  Ni546  1  0.79356600  0.25853217  0.02352260  1.0
  Ni  Ni547  1  0.79356600  0.59186550  0.02352260  1.0
  Ni  Ni548  1  0.79356600  0.92519883  0.02352260  1.0
  Ni  Ni549  1  0.29356600  0.09186550  0.07352260  1.0
  Ni  Ni550  1  0.29356600  0.42519883  0.07352260  1.0
  Ni  Ni551  1  0.29356600  0.75853217  0.07352260  1.0
  Ni  Ni552  1  0.62689933  0.09186550  0.07352260  1.0
  Ni  Ni553  1  0.62689933  0.42519883  0.07352260  1.0
  Ni  Ni554  1  0.62689933  0.75853217  0.07352260  1.0
  Ni  Ni555  1  0.96023267  0.09186550  0.07352260  1.0
  Ni  Ni556  1  0.96023267  0.42519883  0.07352260  1.0
  Ni  Ni557  1  0.96023267  0.75853217  0.07352260  1.0
  Ni  Ni558  1  0.19606183  0.24146783  0.01840330  1.0
  Ni  Ni559  1  0.19606183  0.57480117  0.01840330  1.0
  Ni  Ni560  1  0.19606183  0.90813450  0.01840330  1.0
  Ni  Ni561  1  0.52939517  0.24146783  0.01840330  1.0
  Ni  Ni562  1  0.52939517  0.57480117  0.01840330  1.0
  Ni  Ni563  1  0.52939517  0.90813450  0.01840330  1.0
  Ni  Ni564  1  0.86272850  0.24146783  0.01840330  1.0
  Ni  Ni565  1  0.86272850  0.57480117  0.01840330  1.0
  Ni  Ni566  1  0.86272850  0.90813450  0.01840330  1.0
  Ni  Ni567  1  0.02939517  0.07480117  0.06840330  1.0
  Ni  Ni568  1  0.02939517  0.40813450  0.06840330  1.0
  Ni  Ni569  1  0.02939517  0.74146783  0.06840330  1.0
  Ni  Ni570  1  0.36272850  0.07480117  0.06840330  1.0
  Ni  Ni571  1  0.36272850  0.40813450  0.06840330  1.0
  Ni  Ni572  1  0.36272850  0.74146783  0.06840330  1.0
  Ni  Ni573  1  0.69606183  0.07480117  0.06840330  1.0
  Ni  Ni574  1  0.69606183  0.40813450  0.06840330  1.0
  Ni  Ni575  1  0.69606183  0.74146783  0.06840330  1.0
  Ni  Ni576  1  0.03976733  0.24146783  0.01218000  1.0
  Ni  Ni577  1  0.03976733  0.57480117  0.01218000  1.0
  Ni  Ni578  1  0.03976733  0.90813450  0.01218000  1.0
  Ni  Ni579  1  0.37310067  0.24146783  0.01218000  1.0
  Ni  Ni580  1  0.37310067  0.57480117  0.01218000  1.0
  Ni  Ni581  1  0.37310067  0.90813450  0.01218000  1.0
  Ni  Ni582  1  0.70643400  0.24146783  0.01218000  1.0
  Ni  Ni583  1  0.70643400  0.57480117  0.01218000  1.0
  Ni  Ni584  1  0.70643400  0.90813450  0.01218000  1.0
  Ni  Ni585  1  0.20643400  0.07480117  0.06218000  1.0
  Ni  Ni586  1  0.20643400  0.40813450  0.06218000  1.0
  Ni  Ni587  1  0.20643400  0.74146783  0.06218000  1.0
  Ni  Ni588  1  0.53976733  0.07480117  0.06218000  1.0
  Ni  Ni589  1  0.53976733  0.40813450  0.06218000  1.0
  Ni  Ni590  1  0.53976733  0.74146783  0.06218000  1.0
  Ni  Ni591  1  0.87310067  0.07480117  0.06218000  1.0
  Ni  Ni592  1  0.87310067  0.40813450  0.06218000  1.0
  Ni  Ni593  1  0.87310067  0.74146783  0.06218000  1.0
  Ni  Ni594  1  0.26233083  0.17519883  0.09852260  1.0
  Ni  Ni595  1  0.26233083  0.50853217  0.09852260  1.0
  Ni  Ni596  1  0.26233083  0.84186550  0.09852260  1.0
  Ni  Ni597  1  0.59566417  0.17519883  0.09852260  1.0
  Ni  Ni598  1  0.59566417  0.50853217  0.09852260  1.0
  Ni  Ni599  1  0.59566417  0.84186550  0.09852260  1.0
  Ni  Ni600  1  0.92899750  0.17519883  0.09852260  1.0
  Ni  Ni601  1  0.92899750  0.50853217  0.09852260  1.0
  Ni  Ni602  1  0.92899750  0.84186550  0.09852260  1.0
  Ni  Ni603  1  0.09566417  0.00853217  0.04852260  1.0
  Ni  Ni604  1  0.09566417  0.34186550  0.04852260  1.0
  Ni  Ni605  1  0.09566417  0.67519883  0.04852260  1.0
  Ni  Ni606  1  0.42899750  0.00853217  0.04852260  1.0
  Ni  Ni607  1  0.42899750  0.34186550  0.04852260  1.0
  Ni  Ni608  1  0.42899750  0.67519883  0.04852260  1.0
  Ni  Ni609  1  0.76233083  0.00853217  0.04852260  1.0
  Ni  Ni610  1  0.76233083  0.34186550  0.04852260  1.0
  Ni  Ni611  1  0.76233083  0.67519883  0.04852260  1.0
  Ni  Ni612  1  0.03976733  0.24146783  0.06529165  1.0
  Ni  Ni613  1  0.03976733  0.57480117  0.06529165  1.0
  Ni  Ni614  1  0.03976733  0.90813450  0.06529165  1.0
  Ni  Ni615  1  0.37310067  0.24146783  0.06529165  1.0
  Ni  Ni616  1  0.37310067  0.57480117  0.06529165  1.0
  Ni  Ni617  1  0.37310067  0.90813450  0.06529165  1.0
  Ni  Ni618  1  0.70643400  0.24146783  0.06529165  1.0
  Ni  Ni619  1  0.70643400  0.57480117  0.06529165  1.0
  Ni  Ni620  1  0.70643400  0.90813450  0.06529165  1.0
  Ni  Ni621  1  0.20643400  0.07480117  0.01529165  1.0
  Ni  Ni622  1  0.20643400  0.40813450  0.01529165  1.0
  Ni  Ni623  1  0.20643400  0.74146783  0.01529165  1.0
  Ni  Ni624  1  0.53976733  0.07480117  0.01529165  1.0
  Ni  Ni625  1  0.53976733  0.40813450  0.01529165  1.0
  Ni  Ni626  1  0.53976733  0.74146783  0.01529165  1.0
  Ni  Ni627  1  0.87310067  0.07480117  0.01529165  1.0
  Ni  Ni628  1  0.87310067  0.40813450  0.01529165  1.0
  Ni  Ni629  1  0.87310067  0.74146783  0.01529165  1.0
  Ni  Ni630  1  0.06063033  0.32480117  0.09029165  1.0
  Ni  Ni631  1  0.06063033  0.65813450  0.09029165  1.0
  Ni  Ni632  1  0.06063033  0.99146783  0.09029165  1.0
  Ni  Ni633  1  0.39396367  0.32480117  0.09029165  1.0
  Ni  Ni634  1  0.39396367  0.65813450  0.09029165  1.0
  Ni  Ni635  1  0.39396367  0.99146783  0.09029165  1.0
  Ni  Ni636  1  0.72729700  0.32480117  0.09029165  1.0
  Ni  Ni637  1  0.72729700  0.65813450  0.09029165  1.0
  Ni  Ni638  1  0.72729700  0.99146783  0.09029165  1.0
  Ni  Ni639  1  0.22729700  0.15813450  0.04029165  1.0
  Ni  Ni640  1  0.22729700  0.49146783  0.04029165  1.0
  Ni  Ni641  1  0.22729700  0.82480117  0.04029165  1.0
  Ni  Ni642  1  0.56063033  0.15813450  0.04029165  1.0
  Ni  Ni643  1  0.56063033  0.49146783  0.04029165  1.0
  Ni  Ni644  1  0.56063033  0.82480117  0.04029165  1.0
  Ni  Ni645  1  0.89396367  0.15813450  0.04029165  1.0
  Ni  Ni646  1  0.89396367  0.49146783  0.04029165  1.0
  Ni  Ni647  1  0.89396367  0.82480117  0.04029165  1.0
  Ni  Ni648  1  0.23766917  0.32480117  0.03718000  1.0
  Ni  Ni649  1  0.23766917  0.65813450  0.03718000  1.0
  Ni  Ni650  1  0.23766917  0.99146783  0.03718000  1.0
  Ni  Ni651  1  0.57100250  0.32480117  0.03718000  1.0
  Ni  Ni652  1  0.57100250  0.65813450  0.03718000  1.0
  Ni  Ni653  1  0.57100250  0.99146783  0.03718000  1.0
  Ni  Ni654  1  0.90433583  0.32480117  0.03718000  1.0
  Ni  Ni655  1  0.90433583  0.65813450  0.03718000  1.0
  Ni  Ni656  1  0.90433583  0.99146783  0.03718000  1.0
  Ni  Ni657  1  0.07100250  0.15813450  0.08718000  1.0
  Ni  Ni658  1  0.07100250  0.49146783  0.08718000  1.0
  Ni  Ni659  1  0.07100250  0.82480117  0.08718000  1.0
  Ni  Ni660  1  0.40433583  0.15813450  0.08718000  1.0
  Ni  Ni661  1  0.40433583  0.49146783  0.08718000  1.0
  Ni  Ni662  1  0.40433583  0.82480117  0.08718000  1.0
  Ni  Ni663  1  0.73766917  0.15813450  0.08718000  1.0
  Ni  Ni664  1  0.73766917  0.49146783  0.08718000  1.0
  Ni  Ni665  1  0.73766917  0.82480117  0.08718000  1.0
  Ni  Ni666  1  0.06063033  0.32480117  0.04340330  1.0
  Ni  Ni667  1  0.06063033  0.65813450  0.04340330  1.0
  Ni  Ni668  1  0.06063033  0.99146783  0.04340330  1.0
  Ni  Ni669  1  0.39396367  0.32480117  0.04340330  1.0
  Ni  Ni670  1  0.39396367  0.65813450  0.04340330  1.0
  Ni  Ni671  1  0.39396367  0.99146783  0.04340330  1.0
  Ni  Ni672  1  0.72729700  0.32480117  0.04340330  1.0
  Ni  Ni673  1  0.72729700  0.65813450  0.04340330  1.0
  Ni  Ni674  1  0.72729700  0.99146783  0.04340330  1.0
  Ni  Ni675  1  0.22729700  0.15813450  0.09340330  1.0
  Ni  Ni676  1  0.22729700  0.49146783  0.09340330  1.0
  Ni  Ni677  1  0.22729700  0.82480117  0.09340330  1.0
  Ni  Ni678  1  0.56063033  0.15813450  0.09340330  1.0
  Ni  Ni679  1  0.56063033  0.49146783  0.09340330  1.0
  Ni  Ni680  1  0.56063033  0.82480117  0.09340330  1.0
  Ni  Ni681  1  0.89396367  0.15813450  0.09340330  1.0
  Ni  Ni682  1  0.89396367  0.49146783  0.09340330  1.0
  Ni  Ni683  1  0.89396367  0.82480117  0.09340330  1.0
  Ni  Ni684  1  0.17024833  0.27493033  0.02500000  1.0
  Ni  Ni685  1  0.17024833  0.60826367  0.02500000  1.0
  Ni  Ni686  1  0.17024833  0.94159700  0.02500000  1.0
  Ni  Ni687  1  0.50358167  0.27493033  0.02500000  1.0
  Ni  Ni688  1  0.50358167  0.60826367  0.02500000  1.0
  Ni  Ni689  1  0.50358167  0.94159700  0.02500000  1.0
  Ni  Ni690  1  0.83691500  0.27493033  0.02500000  1.0
  Ni  Ni691  1  0.83691500  0.60826367  0.02500000  1.0
  Ni  Ni692  1  0.83691500  0.94159700  0.02500000  1.0
  Ni  Ni693  1  0.00358167  0.10826367  0.07500000  1.0
  Ni  Ni694  1  0.00358167  0.44159700  0.07500000  1.0
  Ni  Ni695  1  0.00358167  0.77493033  0.07500000  1.0
  Ni  Ni696  1  0.33691500  0.10826367  0.07500000  1.0
  Ni  Ni697  1  0.33691500  0.44159700  0.07500000  1.0
  Ni  Ni698  1  0.33691500  0.77493033  0.07500000  1.0
  Ni  Ni699  1  0.67024833  0.10826367  0.07500000  1.0
  Ni  Ni700  1  0.67024833  0.44159700  0.07500000  1.0
  Ni  Ni701  1  0.67024833  0.77493033  0.07500000  1.0
  Ni  Ni702  1  0.19765900  0.19159700  0.10000000  1.0
  Ni  Ni703  1  0.19765900  0.52493033  0.10000000  1.0
  Ni  Ni704  1  0.19765900  0.85826367  0.10000000  1.0
  Ni  Ni705  1  0.53099233  0.19159700  0.10000000  1.0
  Ni  Ni706  1  0.53099233  0.52493033  0.10000000  1.0
  Ni  Ni707  1  0.53099233  0.85826367  0.10000000  1.0
  Ni  Ni708  1  0.86432567  0.19159700  0.10000000  1.0
  Ni  Ni709  1  0.86432567  0.52493033  0.10000000  1.0
  Ni  Ni710  1  0.86432567  0.85826367  0.10000000  1.0
  Ni  Ni711  1  0.03099233  0.02493033  0.05000000  1.0
  Ni  Ni712  1  0.03099233  0.35826367  0.05000000  1.0
  Ni  Ni713  1  0.03099233  0.69159700  0.05000000  1.0
  Ni  Ni714  1  0.36432567  0.02493033  0.05000000  1.0
  Ni  Ni715  1  0.36432567  0.35826367  0.05000000  1.0
  Ni  Ni716  1  0.36432567  0.69159700  0.05000000  1.0
  Ni  Ni717  1  0.69765900  0.02493033  0.05000000  1.0
  Ni  Ni718  1  0.69765900  0.35826367  0.05000000  1.0
  Ni  Ni719  1  0.69765900  0.69159700  0.05000000  1.0
  Hf  Hf720  1  0.20213561  0.24230883  0.16554395  1.0
  Hf  Hf721  1  0.20213561  0.57564217  0.16554395  1.0
  Hf  Hf722  1  0.20213561  0.90897550  0.16554395  1.0
  Hf  Hf723  1  0.53546894  0.24230883  0.16554395  1.0
  Hf  Hf724  1  0.53546894  0.57564217  0.16554395  1.0
  Hf  Hf725  1  0.53546894  0.90897550  0.16554395  1.0
  Hf  Hf726  1  0.86880228  0.24230883  0.16554395  1.0
  Hf  Hf727  1  0.86880228  0.57564217  0.16554395  1.0
  Hf  Hf728  1  0.86880228  0.90897550  0.16554395  1.0
  Hf  Hf729  1  0.03546894  0.07564217  0.11554395  1.0
  Hf  Hf730  1  0.03546894  0.40897550  0.11554395  1.0
  Hf  Hf731  1  0.03546894  0.74230883  0.11554395  1.0
  Hf  Hf732  1  0.36880228  0.07564217  0.11554395  1.0
  Hf  Hf733  1  0.36880228  0.40897550  0.11554395  1.0
  Hf  Hf734  1  0.36880228  0.74230883  0.11554395  1.0
  Hf  Hf735  1  0.70213561  0.07564217  0.11554395  1.0
  Hf  Hf736  1  0.70213561  0.40897550  0.11554395  1.0
  Hf  Hf737  1  0.70213561  0.74230883  0.11554395  1.0
  Hf  Hf738  1  0.22991339  0.32564217  0.19054395  1.0
  Hf  Hf739  1  0.22991339  0.65897550  0.19054395  1.0
  Hf  Hf740  1  0.22991339  0.99230883  0.19054395  1.0
  Hf  Hf741  1  0.56324672  0.32564217  0.19054395  1.0
  Hf  Hf742  1  0.56324672  0.65897550  0.19054395  1.0
  Hf  Hf743  1  0.56324672  0.99230883  0.19054395  1.0
  Hf  Hf744  1  0.89658006  0.32564217  0.19054395  1.0
  Hf  Hf745  1  0.89658006  0.65897550  0.19054395  1.0
  Hf  Hf746  1  0.89658006  0.99230883  0.19054395  1.0
  Hf  Hf747  1  0.06324672  0.15897550  0.14054395  1.0
  Hf  Hf748  1  0.06324672  0.49230883  0.14054395  1.0
  Hf  Hf749  1  0.06324672  0.82564217  0.14054395  1.0
  Hf  Hf750  1  0.39658006  0.15897550  0.14054395  1.0
  Hf  Hf751  1  0.39658006  0.49230883  0.14054395  1.0
  Hf  Hf752  1  0.39658006  0.82564217  0.14054395  1.0
  Hf  Hf753  1  0.72991339  0.15897550  0.14054395  1.0
  Hf  Hf754  1  0.72991339  0.49230883  0.14054395  1.0
  Hf  Hf755  1  0.72991339  0.82564217  0.14054395  1.0
  Hf  Hf756  1  0.29786439  0.25769117  0.17015865  1.0
  Hf  Hf757  1  0.29786439  0.59102450  0.17015865  1.0
  Hf  Hf758  1  0.29786439  0.92435783  0.17015865  1.0
  Hf  Hf759  1  0.63119772  0.25769117  0.17015865  1.0
  Hf  Hf760  1  0.63119772  0.59102450  0.17015865  1.0
  Hf  Hf761  1  0.63119772  0.92435783  0.17015865  1.0
  Hf  Hf762  1  0.96453106  0.25769117  0.17015865  1.0
  Hf  Hf763  1  0.96453106  0.59102450  0.17015865  1.0
  Hf  Hf764  1  0.96453106  0.92435783  0.17015865  1.0
  Hf  Hf765  1  0.13119772  0.09102450  0.12015865  1.0
  Hf  Hf766  1  0.13119772  0.42435783  0.12015865  1.0
  Hf  Hf767  1  0.13119772  0.75769117  0.12015865  1.0
  Hf  Hf768  1  0.46453106  0.09102450  0.12015865  1.0
  Hf  Hf769  1  0.46453106  0.42435783  0.12015865  1.0
  Hf  Hf770  1  0.46453106  0.75769117  0.12015865  1.0
  Hf  Hf771  1  0.79786439  0.09102450  0.12015865  1.0
  Hf  Hf772  1  0.79786439  0.42435783  0.12015865  1.0
  Hf  Hf773  1  0.79786439  0.75769117  0.12015865  1.0
  Hf  Hf774  1  0.27008661  0.17435783  0.14515865  1.0
  Hf  Hf775  1  0.27008661  0.50769117  0.14515865  1.0
  Hf  Hf776  1  0.27008661  0.84102450  0.14515865  1.0
  Hf  Hf777  1  0.60341994  0.17435783  0.14515865  1.0
  Hf  Hf778  1  0.60341994  0.50769117  0.14515865  1.0
  Hf  Hf779  1  0.60341994  0.84102450  0.14515865  1.0
  Hf  Hf780  1  0.93675328  0.17435783  0.14515865  1.0
  Hf  Hf781  1  0.93675328  0.50769117  0.14515865  1.0
  Hf  Hf782  1  0.93675328  0.84102450  0.14515865  1.0
  Hf  Hf783  1  0.10341994  0.00769117  0.19515865  1.0
  Hf  Hf784  1  0.10341994  0.34102450  0.19515865  1.0
  Hf  Hf785  1  0.10341994  0.67435783  0.19515865  1.0
  Hf  Hf786  1  0.43675328  0.00769117  0.19515865  1.0
  Hf  Hf787  1  0.43675328  0.34102450  0.19515865  1.0
  Hf  Hf788  1  0.43675328  0.67435783  0.19515865  1.0
  Hf  Hf789  1  0.77008661  0.00769117  0.19515865  1.0
  Hf  Hf790  1  0.77008661  0.34102450  0.19515865  1.0
  Hf  Hf791  1  0.77008661  0.67435783  0.19515865  1.0
  Hf  Hf792  1  0.16926661  0.27517783  0.17540465  1.0
  Hf  Hf793  1  0.16926661  0.60851117  0.17540465  1.0
  Hf  Hf794  1  0.16926661  0.94184450  0.17540465  1.0
  Hf  Hf795  1  0.50259994  0.27517783  0.17540465  1.0
  Hf  Hf796  1  0.50259994  0.60851117  0.17540465  1.0
  Hf  Hf797  1  0.50259994  0.94184450  0.17540465  1.0
  Hf  Hf798  1  0.83593328  0.27517783  0.17540465  1.0
  Hf  Hf799  1  0.83593328  0.60851117  0.17540465  1.0
  Hf  Hf800  1  0.83593328  0.94184450  0.17540465  1.0
  Hf  Hf801  1  0.00259994  0.10851117  0.12540465  1.0
  Hf  Hf802  1  0.00259994  0.44184450  0.12540465  1.0
  Hf  Hf803  1  0.00259994  0.77517783  0.12540465  1.0
  Hf  Hf804  1  0.33593328  0.10851117  0.12540465  1.0
  Hf  Hf805  1  0.33593328  0.44184450  0.12540465  1.0
  Hf  Hf806  1  0.33593328  0.77517783  0.12540465  1.0
  Hf  Hf807  1  0.66926661  0.10851117  0.12540465  1.0
  Hf  Hf808  1  0.66926661  0.44184450  0.12540465  1.0
  Hf  Hf809  1  0.66926661  0.77517783  0.12540465  1.0
  Hf  Hf810  1  0.03037772  0.19184450  0.15040465  1.0
  Hf  Hf811  1  0.03037772  0.52517783  0.15040465  1.0
  Hf  Hf812  1  0.03037772  0.85851117  0.15040465  1.0
  Hf  Hf813  1  0.36371106  0.19184450  0.15040465  1.0
  Hf  Hf814  1  0.36371106  0.52517783  0.15040465  1.0
  Hf  Hf815  1  0.36371106  0.85851117  0.15040465  1.0
  Hf  Hf816  1  0.69704439  0.19184450  0.15040465  1.0
  Hf  Hf817  1  0.69704439  0.52517783  0.15040465  1.0
  Hf  Hf818  1  0.69704439  0.85851117  0.15040465  1.0
  Hf  Hf819  1  0.19704439  0.02517783  0.10040465  1.0
  Hf  Hf820  1  0.19704439  0.35851117  0.10040465  1.0
  Hf  Hf821  1  0.19704439  0.69184450  0.10040465  1.0
  Hf  Hf822  1  0.53037772  0.02517783  0.10040465  1.0
  Hf  Hf823  1  0.53037772  0.35851117  0.10040465  1.0
  Hf  Hf824  1  0.53037772  0.69184450  0.10040465  1.0
  Hf  Hf825  1  0.86371106  0.02517783  0.10040465  1.0
  Hf  Hf826  1  0.86371106  0.35851117  0.10040465  1.0
  Hf  Hf827  1  0.86371106  0.69184450  0.10040465  1.0
  Hf  Hf828  1  0.33073339  0.22482217  0.16029795  1.0
  Hf  Hf829  1  0.33073339  0.55815550  0.16029795  1.0
  Hf  Hf830  1  0.33073339  0.89148883  0.16029795  1.0
  Hf  Hf831  1  0.66406672  0.22482217  0.16029795  1.0
  Hf  Hf832  1  0.66406672  0.55815550  0.16029795  1.0
  Hf  Hf833  1  0.66406672  0.89148883  0.16029795  1.0
  Hf  Hf834  1  0.99740006  0.22482217  0.16029795  1.0
  Hf  Hf835  1  0.99740006  0.55815550  0.16029795  1.0
  Hf  Hf836  1  0.99740006  0.89148883  0.16029795  1.0
  Hf  Hf837  1  0.16406672  0.05815550  0.11029795  1.0
  Hf  Hf838  1  0.16406672  0.39148883  0.11029795  1.0
  Hf  Hf839  1  0.16406672  0.72482217  0.11029795  1.0
  Hf  Hf840  1  0.49740006  0.05815550  0.11029795  1.0
  Hf  Hf841  1  0.49740006  0.39148883  0.11029795  1.0
  Hf  Hf842  1  0.49740006  0.72482217  0.11029795  1.0
  Hf  Hf843  1  0.83073339  0.05815550  0.11029795  1.0
  Hf  Hf844  1  0.83073339  0.39148883  0.11029795  1.0
  Hf  Hf845  1  0.83073339  0.72482217  0.11029795  1.0
  Hf  Hf846  1  0.13628894  0.30815550  0.18529795  1.0
  Hf  Hf847  1  0.13628894  0.64148883  0.18529795  1.0
  Hf  Hf848  1  0.13628894  0.97482217  0.18529795  1.0
  Hf  Hf849  1  0.46962228  0.30815550  0.18529795  1.0
  Hf  Hf850  1  0.46962228  0.64148883  0.18529795  1.0
  Hf  Hf851  1  0.46962228  0.97482217  0.18529795  1.0
  Hf  Hf852  1  0.80295561  0.30815550  0.18529795  1.0
  Hf  Hf853  1  0.80295561  0.64148883  0.18529795  1.0
  Hf  Hf854  1  0.80295561  0.97482217  0.18529795  1.0
  Hf  Hf855  1  0.30295561  0.14148883  0.13529795  1.0
  Hf  Hf856  1  0.30295561  0.47482217  0.13529795  1.0
  Hf  Hf857  1  0.30295561  0.80815550  0.13529795  1.0
  Hf  Hf858  1  0.63628894  0.14148883  0.13529795  1.0
  Hf  Hf859  1  0.63628894  0.47482217  0.13529795  1.0
  Hf  Hf860  1  0.63628894  0.80815550  0.13529795  1.0
  Hf  Hf861  1  0.96962228  0.14148883  0.13529795  1.0
  Hf  Hf862  1  0.96962228  0.47482217  0.13529795  1.0
  Hf  Hf863  1  0.96962228  0.80815550  0.13529795  1.0
  Hf  Hf864  1  0.12500000  0.20833333  0.15535130  1.0
  Hf  Hf865  1  0.12500000  0.54166667  0.15535130  1.0
  Hf  Hf866  1  0.12500000  0.87500000  0.15535130  1.0
  Hf  Hf867  1  0.45833333  0.20833333  0.15535130  1.0
  Hf  Hf868  1  0.45833333  0.54166667  0.15535130  1.0
  Hf  Hf869  1  0.45833333  0.87500000  0.15535130  1.0
  Hf  Hf870  1  0.79166667  0.20833333  0.15535130  1.0
  Hf  Hf871  1  0.79166667  0.54166667  0.15535130  1.0
  Hf  Hf872  1  0.79166667  0.87500000  0.15535130  1.0
  Hf  Hf873  1  0.29166667  0.04166667  0.10535130  1.0
  Hf  Hf874  1  0.29166667  0.37500000  0.10535130  1.0
  Hf  Hf875  1  0.29166667  0.70833333  0.10535130  1.0
  Hf  Hf876  1  0.62500000  0.04166667  0.10535130  1.0
  Hf  Hf877  1  0.62500000  0.37500000  0.10535130  1.0
  Hf  Hf878  1  0.62500000  0.70833333  0.10535130  1.0
  Hf  Hf879  1  0.95833333  0.04166667  0.10535130  1.0
  Hf  Hf880  1  0.95833333  0.37500000  0.10535130  1.0
  Hf  Hf881  1  0.95833333  0.70833333  0.10535130  1.0
  Hf  Hf882  1  0.04166667  0.29166667  0.18035130  1.0
  Hf  Hf883  1  0.04166667  0.62500000  0.18035130  1.0
  Hf  Hf884  1  0.04166667  0.95833333  0.18035130  1.0
  Hf  Hf885  1  0.37500000  0.29166667  0.18035130  1.0
  Hf  Hf886  1  0.37500000  0.62500000  0.18035130  1.0
  Hf  Hf887  1  0.37500000  0.95833333  0.18035130  1.0
  Hf  Hf888  1  0.70833333  0.29166667  0.18035130  1.0
  Hf  Hf889  1  0.70833333  0.62500000  0.18035130  1.0
  Hf  Hf890  1  0.70833333  0.95833333  0.18035130  1.0
  Hf  Hf891  1  0.20833333  0.12500000  0.13035130  1.0
  Hf  Hf892  1  0.20833333  0.45833333  0.13035130  1.0
  Hf  Hf893  1  0.20833333  0.79166667  0.13035130  1.0
  Hf  Hf894  1  0.54166667  0.12500000  0.13035130  1.0
  Hf  Hf895  1  0.54166667  0.45833333  0.13035130  1.0
  Hf  Hf896  1  0.54166667  0.79166667  0.13035130  1.0
  Hf  Hf897  1  0.87500000  0.12500000  0.13035130  1.0
  Hf  Hf898  1  0.87500000  0.45833333  0.13035130  1.0
  Hf  Hf899  1  0.87500000  0.79166667  0.13035130  1.0
  Ni  Ni900  1  0.30234100  0.30840300  0.13570260  1.0
  Ni  Ni901  1  0.30234100  0.64173633  0.13570260  1.0
  Ni  Ni902  1  0.30234100  0.97506967  0.13570260  1.0
  Ni  Ni903  1  0.63567433  0.30840300  0.13570260  1.0
  Ni  Ni904  1  0.63567433  0.64173633  0.13570260  1.0
  Ni  Ni905  1  0.63567433  0.97506967  0.13570260  1.0
  Ni  Ni906  1  0.96900767  0.30840300  0.13570260  1.0
  Ni  Ni907  1  0.96900767  0.64173633  0.13570260  1.0
  Ni  Ni908  1  0.96900767  0.97506967  0.13570260  1.0
  Ni  Ni909  1  0.13567433  0.14173633  0.18570260  1.0
  Ni  Ni910  1  0.13567433  0.47506967  0.18570260  1.0
  Ni  Ni911  1  0.13567433  0.80840300  0.18570260  1.0
  Ni  Ni912  1  0.46900767  0.14173633  0.18570260  1.0
  Ni  Ni913  1  0.46900767  0.47506967  0.18570260  1.0
  Ni  Ni914  1  0.46900767  0.80840300  0.18570260  1.0
  Ni  Ni915  1  0.80234100  0.14173633  0.18570260  1.0
  Ni  Ni916  1  0.80234100  0.47506967  0.18570260  1.0
  Ni  Ni917  1  0.80234100  0.80840300  0.18570260  1.0
  Ni  Ni918  1  0.13677567  0.30840300  0.13504180  1.0
  Ni  Ni919  1  0.13677567  0.64173633  0.13504180  1.0
  Ni  Ni920  1  0.13677567  0.97506967  0.13504180  1.0
  Ni  Ni921  1  0.47010900  0.30840300  0.13504180  1.0
  Ni  Ni922  1  0.47010900  0.64173633  0.13504180  1.0
  Ni  Ni923  1  0.47010900  0.97506967  0.13504180  1.0
  Ni  Ni924  1  0.80344233  0.30840300  0.13504180  1.0
  Ni  Ni925  1  0.80344233  0.64173633  0.13504180  1.0
  Ni  Ni926  1  0.80344233  0.97506967  0.13504180  1.0
  Ni  Ni927  1  0.30344233  0.14173633  0.18504180  1.0
  Ni  Ni928  1  0.30344233  0.47506967  0.18504180  1.0
  Ni  Ni929  1  0.30344233  0.80840300  0.18504180  1.0
  Ni  Ni930  1  0.63677567  0.14173633  0.18504180  1.0
  Ni  Ni931  1  0.63677567  0.47506967  0.18504180  1.0
  Ni  Ni932  1  0.63677567  0.80840300  0.18504180  1.0
  Ni  Ni933  1  0.97010900  0.14173633  0.18504180  1.0
  Ni  Ni934  1  0.97010900  0.47506967  0.18504180  1.0
  Ni  Ni935  1  0.97010900  0.80840300  0.18504180  1.0
  Ni  Ni936  1  0.30234100  0.30840300  0.18537220  1.0
  Ni  Ni937  1  0.30234100  0.64173633  0.18537220  1.0
  Ni  Ni938  1  0.30234100  0.97506967  0.18537220  1.0
  Ni  Ni939  1  0.63567433  0.30840300  0.18537220  1.0
  Ni  Ni940  1  0.63567433  0.64173633  0.18537220  1.0
  Ni  Ni941  1  0.63567433  0.97506967  0.18537220  1.0
  Ni  Ni942  1  0.96900767  0.30840300  0.18537220  1.0
  Ni  Ni943  1  0.96900767  0.64173633  0.18537220  1.0
  Ni  Ni944  1  0.96900767  0.97506967  0.18537220  1.0
  Ni  Ni945  1  0.13567433  0.14173633  0.13537220  1.0
  Ni  Ni946  1  0.13567433  0.47506967  0.13537220  1.0
  Ni  Ni947  1  0.13567433  0.80840300  0.13537220  1.0
  Ni  Ni948  1  0.46900767  0.14173633  0.13537220  1.0
  Ni  Ni949  1  0.46900767  0.47506967  0.13537220  1.0
  Ni  Ni950  1  0.46900767  0.80840300  0.13537220  1.0
  Ni  Ni951  1  0.80234100  0.14173633  0.13537220  1.0
  Ni  Ni952  1  0.80234100  0.47506967  0.13537220  1.0
  Ni  Ni953  1  0.80234100  0.80840300  0.13537220  1.0
  Ni  Ni954  1  0.16418633  0.22506967  0.16037220  1.0
  Ni  Ni955  1  0.16418633  0.55840300  0.16037220  1.0
  Ni  Ni956  1  0.16418633  0.89173633  0.16037220  1.0
  Ni  Ni957  1  0.49751967  0.22506967  0.16037220  1.0
  Ni  Ni958  1  0.49751967  0.55840300  0.16037220  1.0
  Ni  Ni959  1  0.49751967  0.89173633  0.16037220  1.0
  Ni  Ni960  1  0.83085300  0.22506967  0.16037220  1.0
  Ni  Ni961  1  0.83085300  0.55840300  0.16037220  1.0
  Ni  Ni962  1  0.83085300  0.89173633  0.16037220  1.0
  Ni  Ni963  1  0.33085300  0.05840300  0.11037220  1.0
  Ni  Ni964  1  0.33085300  0.39173633  0.11037220  1.0
  Ni  Ni965  1  0.33085300  0.72506967  0.11037220  1.0
  Ni  Ni966  1  0.66418633  0.05840300  0.11037220  1.0
  Ni  Ni967  1  0.66418633  0.39173633  0.11037220  1.0
  Ni  Ni968  1  0.66418633  0.72506967  0.11037220  1.0
  Ni  Ni969  1  0.99751967  0.05840300  0.11037220  1.0
  Ni  Ni970  1  0.99751967  0.39173633  0.11037220  1.0
  Ni  Ni971  1  0.99751967  0.72506967  0.11037220  1.0
  Ni  Ni972  1  0.02989100  0.19159700  0.10066080  1.0
  Ni  Ni973  1  0.02989100  0.52493033  0.10066080  1.0
  Ni  Ni974  1  0.02989100  0.85826367  0.10066080  1.0
  Ni  Ni975  1  0.36322433  0.19159700  0.10066080  1.0
  Ni  Ni976  1  0.36322433  0.52493033  0.10066080  1.0
  Ni  Ni977  1  0.36322433  0.85826367  0.10066080  1.0
  Ni  Ni978  1  0.69655767  0.19159700  0.10066080  1.0
  Ni  Ni979  1  0.69655767  0.52493033  0.10066080  1.0
  Ni  Ni980  1  0.69655767  0.85826367  0.10066080  1.0
  Ni  Ni981  1  0.19655767  0.02493033  0.15066080  1.0
  Ni  Ni982  1  0.19655767  0.35826367  0.15066080  1.0
  Ni  Ni983  1  0.19655767  0.69159700  0.15066080  1.0
  Ni  Ni984  1  0.52989100  0.02493033  0.15066080  1.0
  Ni  Ni985  1  0.52989100  0.35826367  0.15066080  1.0
  Ni  Ni986  1  0.52989100  0.69159700  0.15066080  1.0
  Ni  Ni987  1  0.86322433  0.02493033  0.15066080  1.0
  Ni  Ni988  1  0.86322433  0.35826367  0.15066080  1.0
  Ni  Ni989  1  0.86322433  0.69159700  0.15066080  1.0
  Ni  Ni990  1  0.16418633  0.22506967  0.11004180  1.0
  Ni  Ni991  1  0.16418633  0.55840300  0.11004180  1.0
  Ni  Ni992  1  0.16418633  0.89173633  0.11004180  1.0
  Ni  Ni993  1  0.49751967  0.22506967  0.11004180  1.0
  Ni  Ni994  1  0.49751967  0.55840300  0.11004180  1.0
  Ni  Ni995  1  0.49751967  0.89173633  0.11004180  1.0
  Ni  Ni996  1  0.83085300  0.22506967  0.11004180  1.0
  Ni  Ni997  1  0.83085300  0.55840300  0.11004180  1.0
  Ni  Ni998  1  0.83085300  0.89173633  0.11004180  1.0
  Ni  Ni999  1  0.33085300  0.05840300  0.16004180  1.0
  Ni  Ni1000  1  0.33085300  0.39173633  0.16004180  1.0
  Ni  Ni1001  1  0.33085300  0.72506967  0.16004180  1.0
  Ni  Ni1002  1  0.66418633  0.05840300  0.16004180  1.0
  Ni  Ni1003  1  0.66418633  0.39173633  0.16004180  1.0
  Ni  Ni1004  1  0.66418633  0.72506967  0.16004180  1.0
  Ni  Ni1005  1  0.99751967  0.05840300  0.16004180  1.0
  Ni  Ni1006  1  0.99751967  0.39173633  0.16004180  1.0
  Ni  Ni1007  1  0.99751967  0.72506967  0.16004180  1.0
  Ni  Ni1008  1  0.32975167  0.22506967  0.11070260  1.0
  Ni  Ni1009  1  0.32975167  0.55840300  0.11070260  1.0
  Ni  Ni1010  1  0.32975167  0.89173633  0.11070260  1.0
  Ni  Ni1011  1  0.66308500  0.22506967  0.11070260  1.0
  Ni  Ni1012  1  0.66308500  0.55840300  0.11070260  1.0
  Ni  Ni1013  1  0.66308500  0.89173633  0.11070260  1.0
  Ni  Ni1014  1  0.99641833  0.22506967  0.11070260  1.0
  Ni  Ni1015  1  0.99641833  0.55840300  0.11070260  1.0
  Ni  Ni1016  1  0.99641833  0.89173633  0.11070260  1.0
  Ni  Ni1017  1  0.16308500  0.05840300  0.16070260  1.0
  Ni  Ni1018  1  0.16308500  0.39173633  0.16070260  1.0
  Ni  Ni1019  1  0.16308500  0.72506967  0.16070260  1.0
  Ni  Ni1020  1  0.49641833  0.05840300  0.16070260  1.0
  Ni  Ni1021  1  0.49641833  0.39173633  0.16070260  1.0
  Ni  Ni1022  1  0.49641833  0.72506967  0.16070260  1.0
  Ni  Ni1023  1  0.82975167  0.05840300  0.16070260  1.0
  Ni  Ni1024  1  0.82975167  0.39173633  0.16070260  1.0
  Ni  Ni1025  1  0.82975167  0.72506967  0.16070260  1.0
  Ni  Ni1026  1  0.00248033  0.27493033  0.12566080  1.0
  Ni  Ni1027  1  0.00248033  0.60826367  0.12566080  1.0
  Ni  Ni1028  1  0.00248033  0.94159700  0.12566080  1.0
  Ni  Ni1029  1  0.33581367  0.27493033  0.12566080  1.0
  Ni  Ni1030  1  0.33581367  0.60826367  0.12566080  1.0
  Ni  Ni1031  1  0.33581367  0.94159700  0.12566080  1.0
  Ni  Ni1032  1  0.66914700  0.27493033  0.12566080  1.0
  Ni  Ni1033  1  0.66914700  0.60826367  0.12566080  1.0
  Ni  Ni1034  1  0.66914700  0.94159700  0.12566080  1.0
  Ni  Ni1035  1  0.16914700  0.10826367  0.17566080  1.0
  Ni  Ni1036  1  0.16914700  0.44159700  0.17566080  1.0
  Ni  Ni1037  1  0.16914700  0.77493033  0.17566080  1.0
  Ni  Ni1038  1  0.50248033  0.10826367  0.17566080  1.0
  Ni  Ni1039  1  0.50248033  0.44159700  0.17566080  1.0
  Ni  Ni1040  1  0.50248033  0.77493033  0.17566080  1.0
  Ni  Ni1041  1  0.83581367  0.10826367  0.17566080  1.0
  Ni  Ni1042  1  0.83581367  0.44159700  0.17566080  1.0
  Ni  Ni1043  1  0.83581367  0.77493033  0.17566080  1.0
  Ni  Ni1044  1  0.00248033  0.27493033  0.17533040  1.0
  Ni  Ni1045  1  0.00248033  0.60826367  0.17533040  1.0
  Ni  Ni1046  1  0.00248033  0.94159700  0.17533040  1.0
  Ni  Ni1047  1  0.33581367  0.27493033  0.17533040  1.0
  Ni  Ni1048  1  0.33581367  0.60826367  0.17533040  1.0
  Ni  Ni1049  1  0.33581367  0.94159700  0.17533040  1.0
  Ni  Ni1050  1  0.66914700  0.27493033  0.17533040  1.0
  Ni  Ni1051  1  0.66914700  0.60826367  0.17533040  1.0
  Ni  Ni1052  1  0.66914700  0.94159700  0.17533040  1.0
  Ni  Ni1053  1  0.16914700  0.10826367  0.12533040  1.0
  Ni  Ni1054  1  0.16914700  0.44159700  0.12533040  1.0
  Ni  Ni1055  1  0.16914700  0.77493033  0.12533040  1.0
  Ni  Ni1056  1  0.50248033  0.10826367  0.12533040  1.0
  Ni  Ni1057  1  0.50248033  0.44159700  0.12533040  1.0
  Ni  Ni1058  1  0.50248033  0.77493033  0.12533040  1.0
  Ni  Ni1059  1  0.83581367  0.10826367  0.12533040  1.0
  Ni  Ni1060  1  0.83581367  0.44159700  0.12533040  1.0
  Ni  Ni1061  1  0.83581367  0.77493033  0.12533040  1.0
  Ni  Ni1062  1  0.19765900  0.19159700  0.15033040  1.0
  Ni  Ni1063  1  0.19765900  0.52493033  0.15033040  1.0
  Ni  Ni1064  1  0.19765900  0.85826367  0.15033040  1.0
  Ni  Ni1065  1  0.53099233  0.19159700  0.15033040  1.0
  Ni  Ni1066  1  0.53099233  0.52493033  0.15033040  1.0
  Ni  Ni1067  1  0.53099233  0.85826367  0.15033040  1.0
  Ni  Ni1068  1  0.86432567  0.19159700  0.15033040  1.0
  Ni  Ni1069  1  0.86432567  0.52493033  0.15033040  1.0
  Ni  Ni1070  1  0.86432567  0.85826367  0.15033040  1.0
  Ni  Ni1071  1  0.03099233  0.02493033  0.10033040  1.0
  Ni  Ni1072  1  0.03099233  0.35826367  0.10033040  1.0
  Ni  Ni1073  1  0.03099233  0.69159700  0.10033040  1.0
  Ni  Ni1074  1  0.36432567  0.02493033  0.10033040  1.0
  Ni  Ni1075  1  0.36432567  0.35826367  0.10033040  1.0
  Ni  Ni1076  1  0.36432567  0.69159700  0.10033040  1.0
  Ni  Ni1077  1  0.69765900  0.02493033  0.10033040  1.0
  Ni  Ni1078  1  0.69765900  0.35826367  0.10033040  1.0
  Ni  Ni1079  1  0.69765900  0.69159700  0.10033040  1.0
  Ni  Ni1080  1  0.03456500  0.29166667  0.13354705  1.0
  Ni  Ni1081  1  0.03456500  0.62500000  0.13354705  1.0
  Ni  Ni1082  1  0.03456500  0.95833333  0.13354705  1.0
  Ni  Ni1083  1  0.36789833  0.29166667  0.13354705  1.0
  Ni  Ni1084  1  0.36789833  0.62500000  0.13354705  1.0
  Ni  Ni1085  1  0.36789833  0.95833333  0.13354705  1.0
  Ni  Ni1086  1  0.70123167  0.29166667  0.13354705  1.0
  Ni  Ni1087  1  0.70123167  0.62500000  0.13354705  1.0
  Ni  Ni1088  1  0.70123167  0.95833333  0.13354705  1.0
  Ni  Ni1089  1  0.20123167  0.12500000  0.18354705  1.0
  Ni  Ni1090  1  0.20123167  0.45833333  0.18354705  1.0
  Ni  Ni1091  1  0.20123167  0.79166667  0.18354705  1.0
  Ni  Ni1092  1  0.53456500  0.12500000  0.18354705  1.0
  Ni  Ni1093  1  0.53456500  0.45833333  0.18354705  1.0
  Ni  Ni1094  1  0.53456500  0.79166667  0.18354705  1.0
  Ni  Ni1095  1  0.86789833  0.12500000  0.18354705  1.0
  Ni  Ni1096  1  0.86789833  0.45833333  0.18354705  1.0
  Ni  Ni1097  1  0.86789833  0.79166667  0.18354705  1.0
  Ni  Ni1098  1  0.28811583  0.20833333  0.10854705  1.0
  Ni  Ni1099  1  0.28811583  0.54166667  0.10854705  1.0
  Ni  Ni1100  1  0.28811583  0.87500000  0.10854705  1.0
  Ni  Ni1101  1  0.62144917  0.20833333  0.10854705  1.0
  Ni  Ni1102  1  0.62144917  0.54166667  0.10854705  1.0
  Ni  Ni1103  1  0.62144917  0.87500000  0.10854705  1.0
  Ni  Ni1104  1  0.95478250  0.20833333  0.10854705  1.0
  Ni  Ni1105  1  0.95478250  0.54166667  0.10854705  1.0
  Ni  Ni1106  1  0.95478250  0.87500000  0.10854705  1.0
  Ni  Ni1107  1  0.12144917  0.04166667  0.15854705  1.0
  Ni  Ni1108  1  0.12144917  0.37500000  0.15854705  1.0
  Ni  Ni1109  1  0.12144917  0.70833333  0.15854705  1.0
  Ni  Ni1110  1  0.45478250  0.04166667  0.15854705  1.0
  Ni  Ni1111  1  0.45478250  0.37500000  0.15854705  1.0
  Ni  Ni1112  1  0.45478250  0.70833333  0.15854705  1.0
  Ni  Ni1113  1  0.78811583  0.04166667  0.15854705  1.0
  Ni  Ni1114  1  0.78811583  0.37500000  0.15854705  1.0
  Ni  Ni1115  1  0.78811583  0.70833333  0.15854705  1.0
  Ni  Ni1116  1  0.28811583  0.20833333  0.15535130  1.0
  Ni  Ni1117  1  0.28811583  0.54166667  0.15535130  1.0
  Ni  Ni1118  1  0.28811583  0.87500000  0.15535130  1.0
  Ni  Ni1119  1  0.62144917  0.20833333  0.15535130  1.0
  Ni  Ni1120  1  0.62144917  0.54166667  0.15535130  1.0
  Ni  Ni1121  1  0.62144917  0.87500000  0.15535130  1.0
  Ni  Ni1122  1  0.95478250  0.20833333  0.15535130  1.0
  Ni  Ni1123  1  0.95478250  0.54166667  0.15535130  1.0
  Ni  Ni1124  1  0.95478250  0.87500000  0.15535130  1.0
  Ni  Ni1125  1  0.12144917  0.04166667  0.10535130  1.0
  Ni  Ni1126  1  0.12144917  0.37500000  0.10535130  1.0
  Ni  Ni1127  1  0.12144917  0.70833333  0.10535130  1.0
  Ni  Ni1128  1  0.45478250  0.04166667  0.10535130  1.0
  Ni  Ni1129  1  0.45478250  0.37500000  0.10535130  1.0
  Ni  Ni1130  1  0.45478250  0.70833333  0.10535130  1.0
  Ni  Ni1131  1  0.78811583  0.04166667  0.10535130  1.0
  Ni  Ni1132  1  0.78811583  0.37500000  0.10535130  1.0
  Ni  Ni1133  1  0.78811583  0.70833333  0.10535130  1.0
  Ni  Ni1134  1  0.21188417  0.29166667  0.18035130  1.0
  Ni  Ni1135  1  0.21188417  0.62500000  0.18035130  1.0
  Ni  Ni1136  1  0.21188417  0.95833333  0.18035130  1.0
  Ni  Ni1137  1  0.54521750  0.29166667  0.18035130  1.0
  Ni  Ni1138  1  0.54521750  0.62500000  0.18035130  1.0
  Ni  Ni1139  1  0.54521750  0.95833333  0.18035130  1.0
  Ni  Ni1140  1  0.87855083  0.29166667  0.18035130  1.0
  Ni  Ni1141  1  0.87855083  0.62500000  0.18035130  1.0
  Ni  Ni1142  1  0.87855083  0.95833333  0.18035130  1.0
  Ni  Ni1143  1  0.04521750  0.12500000  0.13035130  1.0
  Ni  Ni1144  1  0.04521750  0.45833333  0.13035130  1.0
  Ni  Ni1145  1  0.04521750  0.79166667  0.13035130  1.0
  Ni  Ni1146  1  0.37855083  0.12500000  0.13035130  1.0
  Ni  Ni1147  1  0.37855083  0.45833333  0.13035130  1.0
  Ni  Ni1148  1  0.37855083  0.79166667  0.13035130  1.0
  Ni  Ni1149  1  0.71188417  0.12500000  0.13035130  1.0
  Ni  Ni1150  1  0.71188417  0.45833333  0.13035130  1.0
  Ni  Ni1151  1  0.71188417  0.79166667  0.13035130  1.0
  Ni  Ni1152  1  0.21188417  0.29166667  0.12715555  1.0
  Ni  Ni1153  1  0.21188417  0.62500000  0.12715555  1.0
  Ni  Ni1154  1  0.21188417  0.95833333  0.12715555  1.0
  Ni  Ni1155  1  0.54521750  0.29166667  0.12715555  1.0
  Ni  Ni1156  1  0.54521750  0.62500000  0.12715555  1.0
  Ni  Ni1157  1  0.54521750  0.95833333  0.12715555  1.0
  Ni  Ni1158  1  0.87855083  0.29166667  0.12715555  1.0
  Ni  Ni1159  1  0.87855083  0.62500000  0.12715555  1.0
  Ni  Ni1160  1  0.87855083  0.95833333  0.12715555  1.0
  Ni  Ni1161  1  0.04521750  0.12500000  0.17715555  1.0
  Ni  Ni1162  1  0.04521750  0.45833333  0.17715555  1.0
  Ni  Ni1163  1  0.04521750  0.79166667  0.17715555  1.0
  Ni  Ni1164  1  0.37855083  0.12500000  0.17715555  1.0
  Ni  Ni1165  1  0.37855083  0.45833333  0.17715555  1.0
  Ni  Ni1166  1  0.37855083  0.79166667  0.17715555  1.0
  Ni  Ni1167  1  0.71188417  0.12500000  0.17715555  1.0
  Ni  Ni1168  1  0.71188417  0.45833333  0.17715555  1.0
  Ni  Ni1169  1  0.71188417  0.79166667  0.17715555  1.0
  Ni  Ni1170  1  0.13210167  0.20833333  0.10215555  1.0
  Ni  Ni1171  1  0.13210167  0.54166667  0.10215555  1.0
  Ni  Ni1172  1  0.13210167  0.87500000  0.10215555  1.0
  Ni  Ni1173  1  0.46543500  0.20833333  0.10215555  1.0
  Ni  Ni1174  1  0.46543500  0.54166667  0.10215555  1.0
  Ni  Ni1175  1  0.46543500  0.87500000  0.10215555  1.0
  Ni  Ni1176  1  0.79876833  0.20833333  0.10215555  1.0
  Ni  Ni1177  1  0.79876833  0.54166667  0.10215555  1.0
  Ni  Ni1178  1  0.79876833  0.87500000  0.10215555  1.0
  Ni  Ni1179  1  0.29876833  0.04166667  0.15215555  1.0
  Ni  Ni1180  1  0.29876833  0.37500000  0.15215555  1.0
  Ni  Ni1181  1  0.29876833  0.70833333  0.15215555  1.0
  Ni  Ni1182  1  0.63210167  0.04166667  0.15215555  1.0
  Ni  Ni1183  1  0.63210167  0.37500000  0.15215555  1.0
  Ni  Ni1184  1  0.63210167  0.70833333  0.15215555  1.0
  Ni  Ni1185  1  0.96543500  0.04166667  0.15215555  1.0
  Ni  Ni1186  1  0.96543500  0.37500000  0.15215555  1.0
  Ni  Ni1187  1  0.96543500  0.70833333  0.15215555  1.0
  Ni  Ni1188  1  0.30393817  0.25853217  0.11729930  1.0
  Ni  Ni1189  1  0.30393817  0.59186550  0.11729930  1.0
  Ni  Ni1190  1  0.30393817  0.92519883  0.11729930  1.0
  Ni  Ni1191  1  0.63727150  0.25853217  0.11729930  1.0
  Ni  Ni1192  1  0.63727150  0.59186550  0.11729930  1.0
  Ni  Ni1193  1  0.63727150  0.92519883  0.11729930  1.0
  Ni  Ni1194  1  0.97060483  0.25853217  0.11729930  1.0
  Ni  Ni1195  1  0.97060483  0.59186550  0.11729930  1.0
  Ni  Ni1196  1  0.97060483  0.92519883  0.11729930  1.0
  Ni  Ni1197  1  0.13727150  0.09186550  0.16729930  1.0
  Ni  Ni1198  1  0.13727150  0.42519883  0.16729930  1.0
  Ni  Ni1199  1  0.13727150  0.75853217  0.16729930  1.0
  Ni  Ni1200  1  0.47060483  0.09186550  0.16729930  1.0
  Ni  Ni1201  1  0.47060483  0.42519883  0.16729930  1.0
  Ni  Ni1202  1  0.47060483  0.75853217  0.16729930  1.0
  Ni  Ni1203  1  0.80393817  0.09186550  0.16729930  1.0
  Ni  Ni1204  1  0.80393817  0.42519883  0.16729930  1.0
  Ni  Ni1205  1  0.80393817  0.75853217  0.16729930  1.0
  Ni  Ni1206  1  0.10603633  0.17519883  0.19229930  1.0
  Ni  Ni1207  1  0.10603633  0.50853217  0.19229930  1.0
  Ni  Ni1208  1  0.10603633  0.84186550  0.19229930  1.0
  Ni  Ni1209  1  0.43936967  0.17519883  0.19229930  1.0
  Ni  Ni1210  1  0.43936967  0.50853217  0.19229930  1.0
  Ni  Ni1211  1  0.43936967  0.84186550  0.19229930  1.0
  Ni  Ni1212  1  0.77270300  0.17519883  0.19229930  1.0
  Ni  Ni1213  1  0.77270300  0.50853217  0.19229930  1.0
  Ni  Ni1214  1  0.77270300  0.84186550  0.19229930  1.0
  Ni  Ni1215  1  0.27270300  0.00853217  0.14229930  1.0
  Ni  Ni1216  1  0.27270300  0.34186550  0.14229930  1.0
  Ni  Ni1217  1  0.27270300  0.67519883  0.14229930  1.0
  Ni  Ni1218  1  0.60603633  0.00853217  0.14229930  1.0
  Ni  Ni1219  1  0.60603633  0.34186550  0.14229930  1.0
  Ni  Ni1220  1  0.60603633  0.67519883  0.14229930  1.0
  Ni  Ni1221  1  0.93936967  0.00853217  0.14229930  1.0
  Ni  Ni1222  1  0.93936967  0.34186550  0.14229930  1.0
  Ni  Ni1223  1  0.93936967  0.67519883  0.14229930  1.0
  Ni  Ni1224  1  0.10603633  0.17519883  0.14541095  1.0
  Ni  Ni1225  1  0.10603633  0.50853217  0.14541095  1.0
  Ni  Ni1226  1  0.10603633  0.84186550  0.14541095  1.0
  Ni  Ni1227  1  0.43936967  0.17519883  0.14541095  1.0
  Ni  Ni1228  1  0.43936967  0.50853217  0.14541095  1.0
  Ni  Ni1229  1  0.43936967  0.84186550  0.14541095  1.0
  Ni  Ni1230  1  0.77270300  0.17519883  0.14541095  1.0
  Ni  Ni1231  1  0.77270300  0.50853217  0.14541095  1.0
  Ni  Ni1232  1  0.77270300  0.84186550  0.14541095  1.0
  Ni  Ni1233  1  0.27270300  0.00853217  0.19541095  1.0
  Ni  Ni1234  1  0.27270300  0.34186550  0.19541095  1.0
  Ni  Ni1235  1  0.27270300  0.67519883  0.19541095  1.0
  Ni  Ni1236  1  0.60603633  0.00853217  0.19541095  1.0
  Ni  Ni1237  1  0.60603633  0.34186550  0.19541095  1.0
  Ni  Ni1238  1  0.60603633  0.67519883  0.19541095  1.0
  Ni  Ni1239  1  0.93936967  0.00853217  0.19541095  1.0
  Ni  Ni1240  1  0.93936967  0.34186550  0.19541095  1.0
  Ni  Ni1241  1  0.93936967  0.67519883  0.19541095  1.0
  Ni  Ni1242  1  0.12689933  0.25853217  0.17041095  1.0
  Ni  Ni1243  1  0.12689933  0.59186550  0.17041095  1.0
  Ni  Ni1244  1  0.12689933  0.92519883  0.17041095  1.0
  Ni  Ni1245  1  0.46023267  0.25853217  0.17041095  1.0
  Ni  Ni1246  1  0.46023267  0.59186550  0.17041095  1.0
  Ni  Ni1247  1  0.46023267  0.92519883  0.17041095  1.0
  Ni  Ni1248  1  0.79356600  0.25853217  0.17041095  1.0
  Ni  Ni1249  1  0.79356600  0.59186550  0.17041095  1.0
  Ni  Ni1250  1  0.79356600  0.92519883  0.17041095  1.0
  Ni  Ni1251  1  0.29356600  0.09186550  0.12041095  1.0
  Ni  Ni1252  1  0.29356600  0.42519883  0.12041095  1.0
  Ni  Ni1253  1  0.29356600  0.75853217  0.12041095  1.0
  Ni  Ni1254  1  0.62689933  0.09186550  0.12041095  1.0
  Ni  Ni1255  1  0.62689933  0.42519883  0.12041095  1.0
  Ni  Ni1256  1  0.62689933  0.75853217  0.12041095  1.0
  Ni  Ni1257  1  0.96023267  0.09186550  0.12041095  1.0
  Ni  Ni1258  1  0.96023267  0.42519883  0.12041095  1.0
  Ni  Ni1259  1  0.96023267  0.75853217  0.12041095  1.0
  Ni  Ni1260  1  0.12689933  0.25853217  0.12352260  1.0
  Ni  Ni1261  1  0.12689933  0.59186550  0.12352260  1.0
  Ni  Ni1262  1  0.12689933  0.92519883  0.12352260  1.0
  Ni  Ni1263  1  0.46023267  0.25853217  0.12352260  1.0
  Ni  Ni1264  1  0.46023267  0.59186550  0.12352260  1.0
  Ni  Ni1265  1  0.46023267  0.92519883  0.12352260  1.0
  Ni  Ni1266  1  0.79356600  0.25853217  0.12352260  1.0
  Ni  Ni1267  1  0.79356600  0.59186550  0.12352260  1.0
  Ni  Ni1268  1  0.79356600  0.92519883  0.12352260  1.0
  Ni  Ni1269  1  0.29356600  0.09186550  0.17352260  1.0
  Ni  Ni1270  1  0.29356600  0.42519883  0.17352260  1.0
  Ni  Ni1271  1  0.29356600  0.75853217  0.17352260  1.0
  Ni  Ni1272  1  0.62689933  0.09186550  0.17352260  1.0
  Ni  Ni1273  1  0.62689933  0.42519883  0.17352260  1.0
  Ni  Ni1274  1  0.62689933  0.75853217  0.17352260  1.0
  Ni  Ni1275  1  0.96023267  0.09186550  0.17352260  1.0
  Ni  Ni1276  1  0.96023267  0.42519883  0.17352260  1.0
  Ni  Ni1277  1  0.96023267  0.75853217  0.17352260  1.0
  Ni  Ni1278  1  0.19606183  0.24146783  0.11840330  1.0
  Ni  Ni1279  1  0.19606183  0.57480117  0.11840330  1.0
  Ni  Ni1280  1  0.19606183  0.90813450  0.11840330  1.0
  Ni  Ni1281  1  0.52939517  0.24146783  0.11840330  1.0
  Ni  Ni1282  1  0.52939517  0.57480117  0.11840330  1.0
  Ni  Ni1283  1  0.52939517  0.90813450  0.11840330  1.0
  Ni  Ni1284  1  0.86272850  0.24146783  0.11840330  1.0
  Ni  Ni1285  1  0.86272850  0.57480117  0.11840330  1.0
  Ni  Ni1286  1  0.86272850  0.90813450  0.11840330  1.0
  Ni  Ni1287  1  0.02939517  0.07480117  0.16840330  1.0
  Ni  Ni1288  1  0.02939517  0.40813450  0.16840330  1.0
  Ni  Ni1289  1  0.02939517  0.74146783  0.16840330  1.0
  Ni  Ni1290  1  0.36272850  0.07480117  0.16840330  1.0
  Ni  Ni1291  1  0.36272850  0.40813450  0.16840330  1.0
  Ni  Ni1292  1  0.36272850  0.74146783  0.16840330  1.0
  Ni  Ni1293  1  0.69606183  0.07480117  0.16840330  1.0
  Ni  Ni1294  1  0.69606183  0.40813450  0.16840330  1.0
  Ni  Ni1295  1  0.69606183  0.74146783  0.16840330  1.0
  Ni  Ni1296  1  0.03976733  0.24146783  0.11218000  1.0
  Ni  Ni1297  1  0.03976733  0.57480117  0.11218000  1.0
  Ni  Ni1298  1  0.03976733  0.90813450  0.11218000  1.0
  Ni  Ni1299  1  0.37310067  0.24146783  0.11218000  1.0
  Ni  Ni1300  1  0.37310067  0.57480117  0.11218000  1.0
  Ni  Ni1301  1  0.37310067  0.90813450  0.11218000  1.0
  Ni  Ni1302  1  0.70643400  0.24146783  0.11218000  1.0
  Ni  Ni1303  1  0.70643400  0.57480117  0.11218000  1.0
  Ni  Ni1304  1  0.70643400  0.90813450  0.11218000  1.0
  Ni  Ni1305  1  0.20643400  0.07480117  0.16218000  1.0
  Ni  Ni1306  1  0.20643400  0.40813450  0.16218000  1.0
  Ni  Ni1307  1  0.20643400  0.74146783  0.16218000  1.0
  Ni  Ni1308  1  0.53976733  0.07480117  0.16218000  1.0
  Ni  Ni1309  1  0.53976733  0.40813450  0.16218000  1.0
  Ni  Ni1310  1  0.53976733  0.74146783  0.16218000  1.0
  Ni  Ni1311  1  0.87310067  0.07480117  0.16218000  1.0
  Ni  Ni1312  1  0.87310067  0.40813450  0.16218000  1.0
  Ni  Ni1313  1  0.87310067  0.74146783  0.16218000  1.0
  Ni  Ni1314  1  0.26233083  0.17519883  0.19852260  1.0
  Ni  Ni1315  1  0.26233083  0.50853217  0.19852260  1.0
  Ni  Ni1316  1  0.26233083  0.84186550  0.19852260  1.0
  Ni  Ni1317  1  0.59566417  0.17519883  0.19852260  1.0
  Ni  Ni1318  1  0.59566417  0.50853217  0.19852260  1.0
  Ni  Ni1319  1  0.59566417  0.84186550  0.19852260  1.0
  Ni  Ni1320  1  0.92899750  0.17519883  0.19852260  1.0
  Ni  Ni1321  1  0.92899750  0.50853217  0.19852260  1.0
  Ni  Ni1322  1  0.92899750  0.84186550  0.19852260  1.0
  Ni  Ni1323  1  0.09566417  0.00853217  0.14852260  1.0
  Ni  Ni1324  1  0.09566417  0.34186550  0.14852260  1.0
  Ni  Ni1325  1  0.09566417  0.67519883  0.14852260  1.0
  Ni  Ni1326  1  0.42899750  0.00853217  0.14852260  1.0
  Ni  Ni1327  1  0.42899750  0.34186550  0.14852260  1.0
  Ni  Ni1328  1  0.42899750  0.67519883  0.14852260  1.0
  Ni  Ni1329  1  0.76233083  0.00853217  0.14852260  1.0
  Ni  Ni1330  1  0.76233083  0.34186550  0.14852260  1.0
  Ni  Ni1331  1  0.76233083  0.67519883  0.14852260  1.0
  Ni  Ni1332  1  0.03976733  0.24146783  0.16529165  1.0
  Ni  Ni1333  1  0.03976733  0.57480117  0.16529165  1.0
  Ni  Ni1334  1  0.03976733  0.90813450  0.16529165  1.0
  Ni  Ni1335  1  0.37310067  0.24146783  0.16529165  1.0
  Ni  Ni1336  1  0.37310067  0.57480117  0.16529165  1.0
  Ni  Ni1337  1  0.37310067  0.90813450  0.16529165  1.0
  Ni  Ni1338  1  0.70643400  0.24146783  0.16529165  1.0
  Ni  Ni1339  1  0.70643400  0.57480117  0.16529165  1.0
  Ni  Ni1340  1  0.70643400  0.90813450  0.16529165  1.0
  Ni  Ni1341  1  0.20643400  0.07480117  0.11529165  1.0
  Ni  Ni1342  1  0.20643400  0.40813450  0.11529165  1.0
  Ni  Ni1343  1  0.20643400  0.74146783  0.11529165  1.0
  Ni  Ni1344  1  0.53976733  0.07480117  0.11529165  1.0
  Ni  Ni1345  1  0.53976733  0.40813450  0.11529165  1.0
  Ni  Ni1346  1  0.53976733  0.74146783  0.11529165  1.0
  Ni  Ni1347  1  0.87310067  0.07480117  0.11529165  1.0
  Ni  Ni1348  1  0.87310067  0.40813450  0.11529165  1.0
  Ni  Ni1349  1  0.87310067  0.74146783  0.11529165  1.0
  Ni  Ni1350  1  0.06063033  0.32480117  0.19029165  1.0
  Ni  Ni1351  1  0.06063033  0.65813450  0.19029165  1.0
  Ni  Ni1352  1  0.06063033  0.99146783  0.19029165  1.0
  Ni  Ni1353  1  0.39396367  0.32480117  0.19029165  1.0
  Ni  Ni1354  1  0.39396367  0.65813450  0.19029165  1.0
  Ni  Ni1355  1  0.39396367  0.99146783  0.19029165  1.0
  Ni  Ni1356  1  0.72729700  0.32480117  0.19029165  1.0
  Ni  Ni1357  1  0.72729700  0.65813450  0.19029165  1.0
  Ni  Ni1358  1  0.72729700  0.99146783  0.19029165  1.0
  Ni  Ni1359  1  0.22729700  0.15813450  0.14029165  1.0
  Ni  Ni1360  1  0.22729700  0.49146783  0.14029165  1.0
  Ni  Ni1361  1  0.22729700  0.82480117  0.14029165  1.0
  Ni  Ni1362  1  0.56063033  0.15813450  0.14029165  1.0
  Ni  Ni1363  1  0.56063033  0.49146783  0.14029165  1.0
  Ni  Ni1364  1  0.56063033  0.82480117  0.14029165  1.0
  Ni  Ni1365  1  0.89396367  0.15813450  0.14029165  1.0
  Ni  Ni1366  1  0.89396367  0.49146783  0.14029165  1.0
  Ni  Ni1367  1  0.89396367  0.82480117  0.14029165  1.0
  Ni  Ni1368  1  0.23766917  0.32480117  0.13718000  1.0
  Ni  Ni1369  1  0.23766917  0.65813450  0.13718000  1.0
  Ni  Ni1370  1  0.23766917  0.99146783  0.13718000  1.0
  Ni  Ni1371  1  0.57100250  0.32480117  0.13718000  1.0
  Ni  Ni1372  1  0.57100250  0.65813450  0.13718000  1.0
  Ni  Ni1373  1  0.57100250  0.99146783  0.13718000  1.0
  Ni  Ni1374  1  0.90433583  0.32480117  0.13718000  1.0
  Ni  Ni1375  1  0.90433583  0.65813450  0.13718000  1.0
  Ni  Ni1376  1  0.90433583  0.99146783  0.13718000  1.0
  Ni  Ni1377  1  0.07100250  0.15813450  0.18718000  1.0
  Ni  Ni1378  1  0.07100250  0.49146783  0.18718000  1.0
  Ni  Ni1379  1  0.07100250  0.82480117  0.18718000  1.0
  Ni  Ni1380  1  0.40433583  0.15813450  0.18718000  1.0
  Ni  Ni1381  1  0.40433583  0.49146783  0.18718000  1.0
  Ni  Ni1382  1  0.40433583  0.82480117  0.18718000  1.0
  Ni  Ni1383  1  0.73766917  0.15813450  0.18718000  1.0
  Ni  Ni1384  1  0.73766917  0.49146783  0.18718000  1.0
  Ni  Ni1385  1  0.73766917  0.82480117  0.18718000  1.0
  Ni  Ni1386  1  0.06063033  0.32480117  0.14340330  1.0
  Ni  Ni1387  1  0.06063033  0.65813450  0.14340330  1.0
  Ni  Ni1388  1  0.06063033  0.99146783  0.14340330  1.0
  Ni  Ni1389  1  0.39396367  0.32480117  0.14340330  1.0
  Ni  Ni1390  1  0.39396367  0.65813450  0.14340330  1.0
  Ni  Ni1391  1  0.39396367  0.99146783  0.14340330  1.0
  Ni  Ni1392  1  0.72729700  0.32480117  0.14340330  1.0
  Ni  Ni1393  1  0.72729700  0.65813450  0.14340330  1.0
  Ni  Ni1394  1  0.72729700  0.99146783  0.14340330  1.0
  Ni  Ni1395  1  0.22729700  0.15813450  0.19340330  1.0
  Ni  Ni1396  1  0.22729700  0.49146783  0.19340330  1.0
  Ni  Ni1397  1  0.22729700  0.82480117  0.19340330  1.0
  Ni  Ni1398  1  0.56063033  0.15813450  0.19340330  1.0
  Ni  Ni1399  1  0.56063033  0.49146783  0.19340330  1.0
  Ni  Ni1400  1  0.56063033  0.82480117  0.19340330  1.0
  Ni  Ni1401  1  0.89396367  0.15813450  0.19340330  1.0
  Ni  Ni1402  1  0.89396367  0.49146783  0.19340330  1.0
  Ni  Ni1403  1  0.89396367  0.82480117  0.19340330  1.0
  Ni  Ni1404  1  0.17024833  0.27493033  0.12500000  1.0
  Ni  Ni1405  1  0.17024833  0.60826367  0.12500000  1.0
  Ni  Ni1406  1  0.17024833  0.94159700  0.12500000  1.0
  Ni  Ni1407  1  0.50358167  0.27493033  0.12500000  1.0
  Ni  Ni1408  1  0.50358167  0.60826367  0.12500000  1.0
  Ni  Ni1409  1  0.50358167  0.94159700  0.12500000  1.0
  Ni  Ni1410  1  0.83691500  0.27493033  0.12500000  1.0
  Ni  Ni1411  1  0.83691500  0.60826367  0.12500000  1.0
  Ni  Ni1412  1  0.83691500  0.94159700  0.12500000  1.0
  Ni  Ni1413  1  0.00358167  0.10826367  0.17500000  1.0
  Ni  Ni1414  1  0.00358167  0.44159700  0.17500000  1.0
  Ni  Ni1415  1  0.00358167  0.77493033  0.17500000  1.0
  Ni  Ni1416  1  0.33691500  0.10826367  0.17500000  1.0
  Ni  Ni1417  1  0.33691500  0.44159700  0.17500000  1.0
  Ni  Ni1418  1  0.33691500  0.77493033  0.17500000  1.0
  Ni  Ni1419  1  0.67024833  0.10826367  0.17500000  1.0
  Ni  Ni1420  1  0.67024833  0.44159700  0.17500000  1.0
  Ni  Ni1421  1  0.67024833  0.77493033  0.17500000  1.0
  Ni  Ni1422  1  0.19765900  0.19159700  0.20000000  1.0
  Ni  Ni1423  1  0.19765900  0.52493033  0.20000000  1.0
  Ni  Ni1424  1  0.19765900  0.85826367  0.20000000  1.0
  Ni  Ni1425  1  0.53099233  0.19159700  0.20000000  1.0
  Ni  Ni1426  1  0.53099233  0.52493033  0.20000000  1.0
  Ni  Ni1427  1  0.53099233  0.85826367  0.20000000  1.0
  Ni  Ni1428  1  0.86432567  0.19159700  0.20000000  1.0
  Ni  Ni1429  1  0.86432567  0.52493033  0.20000000  1.0
  Ni  Ni1430  1  0.86432567  0.85826367  0.20000000  1.0
  Ni  Ni1431  1  0.03099233  0.02493033  0.15000000  1.0
  Ni  Ni1432  1  0.03099233  0.35826367  0.15000000  1.0
  Ni  Ni1433  1  0.03099233  0.69159700  0.15000000  1.0
  Ni  Ni1434  1  0.36432567  0.02493033  0.15000000  1.0
  Ni  Ni1435  1  0.36432567  0.35826367  0.15000000  1.0
  Ni  Ni1436  1  0.36432567  0.69159700  0.15000000  1.0
  Ni  Ni1437  1  0.69765900  0.02493033  0.15000000  1.0
  Ni  Ni1438  1  0.69765900  0.35826367  0.15000000  1.0
  Ni  Ni1439  1  0.69765900  0.69159700  0.15000000  1.0
  Hf  Hf1440  1  0.20213561  0.24230883  0.26554395  1.0
  Hf  Hf1441  1  0.20213561  0.57564217  0.26554395  1.0
  Hf  Hf1442  1  0.20213561  0.90897550  0.26554395  1.0
  Hf  Hf1443  1  0.53546894  0.24230883  0.26554395  1.0
  Hf  Hf1444  1  0.53546894  0.57564217  0.26554395  1.0
  Hf  Hf1445  1  0.53546894  0.90897550  0.26554395  1.0
  Hf  Hf1446  1  0.86880228  0.24230883  0.26554395  1.0
  Hf  Hf1447  1  0.86880228  0.57564217  0.26554395  1.0
  Hf  Hf1448  1  0.86880228  0.90897550  0.26554395  1.0
  Hf  Hf1449  1  0.03546894  0.07564217  0.21554395  1.0
  Hf  Hf1450  1  0.03546894  0.40897550  0.21554395  1.0
  Hf  Hf1451  1  0.03546894  0.74230883  0.21554395  1.0
  Hf  Hf1452  1  0.36880228  0.07564217  0.21554395  1.0
  Hf  Hf1453  1  0.36880228  0.40897550  0.21554395  1.0
  Hf  Hf1454  1  0.36880228  0.74230883  0.21554395  1.0
  Hf  Hf1455  1  0.70213561  0.07564217  0.21554395  1.0
  Hf  Hf1456  1  0.70213561  0.40897550  0.21554395  1.0
  Hf  Hf1457  1  0.70213561  0.74230883  0.21554395  1.0
  Hf  Hf1458  1  0.22991339  0.32564217  0.29054395  1.0
  Hf  Hf1459  1  0.22991339  0.65897550  0.29054395  1.0
  Hf  Hf1460  1  0.22991339  0.99230883  0.29054395  1.0
  Hf  Hf1461  1  0.56324672  0.32564217  0.29054395  1.0
  Hf  Hf1462  1  0.56324672  0.65897550  0.29054395  1.0
  Hf  Hf1463  1  0.56324672  0.99230883  0.29054395  1.0
  Hf  Hf1464  1  0.89658006  0.32564217  0.29054395  1.0
  Hf  Hf1465  1  0.89658006  0.65897550  0.29054395  1.0
  Hf  Hf1466  1  0.89658006  0.99230883  0.29054395  1.0
  Hf  Hf1467  1  0.06324672  0.15897550  0.24054395  1.0
  Hf  Hf1468  1  0.06324672  0.49230883  0.24054395  1.0
  Hf  Hf1469  1  0.06324672  0.82564217  0.24054395  1.0
  Hf  Hf1470  1  0.39658006  0.15897550  0.24054395  1.0
  Hf  Hf1471  1  0.39658006  0.49230883  0.24054395  1.0
  Hf  Hf1472  1  0.39658006  0.82564217  0.24054395  1.0
  Hf  Hf1473  1  0.72991339  0.15897550  0.24054395  1.0
  Hf  Hf1474  1  0.72991339  0.49230883  0.24054395  1.0
  Hf  Hf1475  1  0.72991339  0.82564217  0.24054395  1.0
  Hf  Hf1476  1  0.29786439  0.25769117  0.27015865  1.0
  Hf  Hf1477  1  0.29786439  0.59102450  0.27015865  1.0
  Hf  Hf1478  1  0.29786439  0.92435783  0.27015865  1.0
  Hf  Hf1479  1  0.63119772  0.25769117  0.27015865  1.0
  Hf  Hf1480  1  0.63119772  0.59102450  0.27015865  1.0
  Hf  Hf1481  1  0.63119772  0.92435783  0.27015865  1.0
  Hf  Hf1482  1  0.96453106  0.25769117  0.27015865  1.0
  Hf  Hf1483  1  0.96453106  0.59102450  0.27015865  1.0
  Hf  Hf1484  1  0.96453106  0.92435783  0.27015865  1.0
  Hf  Hf1485  1  0.13119772  0.09102450  0.22015865  1.0
  Hf  Hf1486  1  0.13119772  0.42435783  0.22015865  1.0
  Hf  Hf1487  1  0.13119772  0.75769117  0.22015865  1.0
  Hf  Hf1488  1  0.46453106  0.09102450  0.22015865  1.0
  Hf  Hf1489  1  0.46453106  0.42435783  0.22015865  1.0
  Hf  Hf1490  1  0.46453106  0.75769117  0.22015865  1.0
  Hf  Hf1491  1  0.79786439  0.09102450  0.22015865  1.0
  Hf  Hf1492  1  0.79786439  0.42435783  0.22015865  1.0
  Hf  Hf1493  1  0.79786439  0.75769117  0.22015865  1.0
  Hf  Hf1494  1  0.27008661  0.17435783  0.24515865  1.0
  Hf  Hf1495  1  0.27008661  0.50769117  0.24515865  1.0
  Hf  Hf1496  1  0.27008661  0.84102450  0.24515865  1.0
  Hf  Hf1497  1  0.60341994  0.17435783  0.24515865  1.0
  Hf  Hf1498  1  0.60341994  0.50769117  0.24515865  1.0
  Hf  Hf1499  1  0.60341994  0.84102450  0.24515865  1.0
  Hf  Hf1500  1  0.93675328  0.17435783  0.24515865  1.0
  Hf  Hf1501  1  0.93675328  0.50769117  0.24515865  1.0
  Hf  Hf1502  1  0.93675328  0.84102450  0.24515865  1.0
  Hf  Hf1503  1  0.10341994  0.00769117  0.29515865  1.0
  Hf  Hf1504  1  0.10341994  0.34102450  0.29515865  1.0
  Hf  Hf1505  1  0.10341994  0.67435783  0.29515865  1.0
  Hf  Hf1506  1  0.43675328  0.00769117  0.29515865  1.0
  Hf  Hf1507  1  0.43675328  0.34102450  0.29515865  1.0
  Hf  Hf1508  1  0.43675328  0.67435783  0.29515865  1.0
  Hf  Hf1509  1  0.77008661  0.00769117  0.29515865  1.0
  Hf  Hf1510  1  0.77008661  0.34102450  0.29515865  1.0
  Hf  Hf1511  1  0.77008661  0.67435783  0.29515865  1.0
  Hf  Hf1512  1  0.16926661  0.27517783  0.27540465  1.0
  Hf  Hf1513  1  0.16926661  0.60851117  0.27540465  1.0
  Hf  Hf1514  1  0.16926661  0.94184450  0.27540465  1.0
  Hf  Hf1515  1  0.50259994  0.27517783  0.27540465  1.0
  Hf  Hf1516  1  0.50259994  0.60851117  0.27540465  1.0
  Hf  Hf1517  1  0.50259994  0.94184450  0.27540465  1.0
  Hf  Hf1518  1  0.83593328  0.27517783  0.27540465  1.0
  Hf  Hf1519  1  0.83593328  0.60851117  0.27540465  1.0
  Hf  Hf1520  1  0.83593328  0.94184450  0.27540465  1.0
  Hf  Hf1521  1  0.00259994  0.10851117  0.22540465  1.0
  Hf  Hf1522  1  0.00259994  0.44184450  0.22540465  1.0
  Hf  Hf1523  1  0.00259994  0.77517783  0.22540465  1.0
  Hf  Hf1524  1  0.33593328  0.10851117  0.22540465  1.0
  Hf  Hf1525  1  0.33593328  0.44184450  0.22540465  1.0
  Hf  Hf1526  1  0.33593328  0.77517783  0.22540465  1.0
  Hf  Hf1527  1  0.66926661  0.10851117  0.22540465  1.0
  Hf  Hf1528  1  0.66926661  0.44184450  0.22540465  1.0
  Hf  Hf1529  1  0.66926661  0.77517783  0.22540465  1.0
  Hf  Hf1530  1  0.03037772  0.19184450  0.25040465  1.0
  Hf  Hf1531  1  0.03037772  0.52517783  0.25040465  1.0
  Hf  Hf1532  1  0.03037772  0.85851117  0.25040465  1.0
  Hf  Hf1533  1  0.36371106  0.19184450  0.25040465  1.0
  Hf  Hf1534  1  0.36371106  0.52517783  0.25040465  1.0
  Hf  Hf1535  1  0.36371106  0.85851117  0.25040465  1.0
  Hf  Hf1536  1  0.69704439  0.19184450  0.25040465  1.0
  Hf  Hf1537  1  0.69704439  0.52517783  0.25040465  1.0
  Hf  Hf1538  1  0.69704439  0.85851117  0.25040465  1.0
  Hf  Hf1539  1  0.19704439  0.02517783  0.20040465  1.0
  Hf  Hf1540  1  0.19704439  0.35851117  0.20040465  1.0
  Hf  Hf1541  1  0.19704439  0.69184450  0.20040465  1.0
  Hf  Hf1542  1  0.53037772  0.02517783  0.20040465  1.0
  Hf  Hf1543  1  0.53037772  0.35851117  0.20040465  1.0
  Hf  Hf1544  1  0.53037772  0.69184450  0.20040465  1.0
  Hf  Hf1545  1  0.86371106  0.02517783  0.20040465  1.0
  Hf  Hf1546  1  0.86371106  0.35851117  0.20040465  1.0
  Hf  Hf1547  1  0.86371106  0.69184450  0.20040465  1.0
  Hf  Hf1548  1  0.33073339  0.22482217  0.26029795  1.0
  Hf  Hf1549  1  0.33073339  0.55815550  0.26029795  1.0
  Hf  Hf1550  1  0.33073339  0.89148883  0.26029795  1.0
  Hf  Hf1551  1  0.66406672  0.22482217  0.26029795  1.0
  Hf  Hf1552  1  0.66406672  0.55815550  0.26029795  1.0
  Hf  Hf1553  1  0.66406672  0.89148883  0.26029795  1.0
  Hf  Hf1554  1  0.99740006  0.22482217  0.26029795  1.0
  Hf  Hf1555  1  0.99740006  0.55815550  0.26029795  1.0
  Hf  Hf1556  1  0.99740006  0.89148883  0.26029795  1.0
  Hf  Hf1557  1  0.16406672  0.05815550  0.21029795  1.0
  Hf  Hf1558  1  0.16406672  0.39148883  0.21029795  1.0
  Hf  Hf1559  1  0.16406672  0.72482217  0.21029795  1.0
  Hf  Hf1560  1  0.49740006  0.05815550  0.21029795  1.0
  Hf  Hf1561  1  0.49740006  0.39148883  0.21029795  1.0
  Hf  Hf1562  1  0.49740006  0.72482217  0.21029795  1.0
  Hf  Hf1563  1  0.83073339  0.05815550  0.21029795  1.0
  Hf  Hf1564  1  0.83073339  0.39148883  0.21029795  1.0
  Hf  Hf1565  1  0.83073339  0.72482217  0.21029795  1.0
  Hf  Hf1566  1  0.13628894  0.30815550  0.28529795  1.0
  Hf  Hf1567  1  0.13628894  0.64148883  0.28529795  1.0
  Hf  Hf1568  1  0.13628894  0.97482217  0.28529795  1.0
  Hf  Hf1569  1  0.46962228  0.30815550  0.28529795  1.0
  Hf  Hf1570  1  0.46962228  0.64148883  0.28529795  1.0
  Hf  Hf1571  1  0.46962228  0.97482217  0.28529795  1.0
  Hf  Hf1572  1  0.80295561  0.30815550  0.28529795  1.0
  Hf  Hf1573  1  0.80295561  0.64148883  0.28529795  1.0
  Hf  Hf1574  1  0.80295561  0.97482217  0.28529795  1.0
  Hf  Hf1575  1  0.30295561  0.14148883  0.23529795  1.0
  Hf  Hf1576  1  0.30295561  0.47482217  0.23529795  1.0
  Hf  Hf1577  1  0.30295561  0.80815550  0.23529795  1.0
  Hf  Hf1578  1  0.63628894  0.14148883  0.23529795  1.0
  Hf  Hf1579  1  0.63628894  0.47482217  0.23529795  1.0
  Hf  Hf1580  1  0.63628894  0.80815550  0.23529795  1.0
  Hf  Hf1581  1  0.96962228  0.14148883  0.23529795  1.0
  Hf  Hf1582  1  0.96962228  0.47482217  0.23529795  1.0
  Hf  Hf1583  1  0.96962228  0.80815550  0.23529795  1.0
  Hf  Hf1584  1  0.12500000  0.20833333  0.25535130  1.0
  Hf  Hf1585  1  0.12500000  0.54166667  0.25535130  1.0
  Hf  Hf1586  1  0.12500000  0.87500000  0.25535130  1.0
  Hf  Hf1587  1  0.45833333  0.20833333  0.25535130  1.0
  Hf  Hf1588  1  0.45833333  0.54166667  0.25535130  1.0
  Hf  Hf1589  1  0.45833333  0.87500000  0.25535130  1.0
  Hf  Hf1590  1  0.79166667  0.20833333  0.25535130  1.0
  Hf  Hf1591  1  0.79166667  0.54166667  0.25535130  1.0
  Hf  Hf1592  1  0.79166667  0.87500000  0.25535130  1.0
  Hf  Hf1593  1  0.29166667  0.04166667  0.20535130  1.0
  Hf  Hf1594  1  0.29166667  0.37500000  0.20535130  1.0
  Hf  Hf1595  1  0.29166667  0.70833333  0.20535130  1.0
  Hf  Hf1596  1  0.62500000  0.04166667  0.20535130  1.0
  Hf  Hf1597  1  0.62500000  0.37500000  0.20535130  1.0
  Hf  Hf1598  1  0.62500000  0.70833333  0.20535130  1.0
  Hf  Hf1599  1  0.95833333  0.04166667  0.20535130  1.0
  Hf  Hf1600  1  0.95833333  0.37500000  0.20535130  1.0
  Hf  Hf1601  1  0.95833333  0.70833333  0.20535130  1.0
  Hf  Hf1602  1  0.04166667  0.29166667  0.28035130  1.0
  Hf  Hf1603  1  0.04166667  0.62500000  0.28035130  1.0
  Hf  Hf1604  1  0.04166667  0.95833333  0.28035130  1.0
  Hf  Hf1605  1  0.37500000  0.29166667  0.28035130  1.0
  Hf  Hf1606  1  0.37500000  0.62500000  0.28035130  1.0
  Hf  Hf1607  1  0.37500000  0.95833333  0.28035130  1.0
  Hf  Hf1608  1  0.70833333  0.29166667  0.28035130  1.0
  Hf  Hf1609  1  0.70833333  0.62500000  0.28035130  1.0
  Hf  Hf1610  1  0.70833333  0.95833333  0.28035130  1.0
  Hf  Hf1611  1  0.20833333  0.12500000  0.23035130  1.0
  Hf  Hf1612  1  0.20833333  0.45833333  0.23035130  1.0
  Hf  Hf1613  1  0.20833333  0.79166667  0.23035130  1.0
  Hf  Hf1614  1  0.54166667  0.12500000  0.23035130  1.0
  Hf  Hf1615  1  0.54166667  0.45833333  0.23035130  1.0
  Hf  Hf1616  1  0.54166667  0.79166667  0.23035130  1.0
  Hf  Hf1617  1  0.87500000  0.12500000  0.23035130  1.0
  Hf  Hf1618  1  0.87500000  0.45833333  0.23035130  1.0
  Hf  Hf1619  1  0.87500000  0.79166667  0.23035130  1.0
  Ni  Ni1620  1  0.30234100  0.30840300  0.23570260  1.0
  Ni  Ni1621  1  0.30234100  0.64173633  0.23570260  1.0
  Ni  Ni1622  1  0.30234100  0.97506967  0.23570260  1.0
  Ni  Ni1623  1  0.63567433  0.30840300  0.23570260  1.0
  Ni  Ni1624  1  0.63567433  0.64173633  0.23570260  1.0
  Ni  Ni1625  1  0.63567433  0.97506967  0.23570260  1.0
  Ni  Ni1626  1  0.96900767  0.30840300  0.23570260  1.0
  Ni  Ni1627  1  0.96900767  0.64173633  0.23570260  1.0
  Ni  Ni1628  1  0.96900767  0.97506967  0.23570260  1.0
  Ni  Ni1629  1  0.13567433  0.14173633  0.28570260  1.0
  Ni  Ni1630  1  0.13567433  0.47506967  0.28570260  1.0
  Ni  Ni1631  1  0.13567433  0.80840300  0.28570260  1.0
  Ni  Ni1632  1  0.46900767  0.14173633  0.28570260  1.0
  Ni  Ni1633  1  0.46900767  0.47506967  0.28570260  1.0
  Ni  Ni1634  1  0.46900767  0.80840300  0.28570260  1.0
  Ni  Ni1635  1  0.80234100  0.14173633  0.28570260  1.0
  Ni  Ni1636  1  0.80234100  0.47506967  0.28570260  1.0
  Ni  Ni1637  1  0.80234100  0.80840300  0.28570260  1.0
  Ni  Ni1638  1  0.13677567  0.30840300  0.23504180  1.0
  Ni  Ni1639  1  0.13677567  0.64173633  0.23504180  1.0
  Ni  Ni1640  1  0.13677567  0.97506967  0.23504180  1.0
  Ni  Ni1641  1  0.47010900  0.30840300  0.23504180  1.0
  Ni  Ni1642  1  0.47010900  0.64173633  0.23504180  1.0
  Ni  Ni1643  1  0.47010900  0.97506967  0.23504180  1.0
  Ni  Ni1644  1  0.80344233  0.30840300  0.23504180  1.0
  Ni  Ni1645  1  0.80344233  0.64173633  0.23504180  1.0
  Ni  Ni1646  1  0.80344233  0.97506967  0.23504180  1.0
  Ni  Ni1647  1  0.30344233  0.14173633  0.28504180  1.0
  Ni  Ni1648  1  0.30344233  0.47506967  0.28504180  1.0
  Ni  Ni1649  1  0.30344233  0.80840300  0.28504180  1.0
  Ni  Ni1650  1  0.63677567  0.14173633  0.28504180  1.0
  Ni  Ni1651  1  0.63677567  0.47506967  0.28504180  1.0
  Ni  Ni1652  1  0.63677567  0.80840300  0.28504180  1.0
  Ni  Ni1653  1  0.97010900  0.14173633  0.28504180  1.0
  Ni  Ni1654  1  0.97010900  0.47506967  0.28504180  1.0
  Ni  Ni1655  1  0.97010900  0.80840300  0.28504180  1.0
  Ni  Ni1656  1  0.30234100  0.30840300  0.28537220  1.0
  Ni  Ni1657  1  0.30234100  0.64173633  0.28537220  1.0
  Ni  Ni1658  1  0.30234100  0.97506967  0.28537220  1.0
  Ni  Ni1659  1  0.63567433  0.30840300  0.28537220  1.0
  Ni  Ni1660  1  0.63567433  0.64173633  0.28537220  1.0
  Ni  Ni1661  1  0.63567433  0.97506967  0.28537220  1.0
  Ni  Ni1662  1  0.96900767  0.30840300  0.28537220  1.0
  Ni  Ni1663  1  0.96900767  0.64173633  0.28537220  1.0
  Ni  Ni1664  1  0.96900767  0.97506967  0.28537220  1.0
  Ni  Ni1665  1  0.13567433  0.14173633  0.23537220  1.0
  Ni  Ni1666  1  0.13567433  0.47506967  0.23537220  1.0
  Ni  Ni1667  1  0.13567433  0.80840300  0.23537220  1.0
  Ni  Ni1668  1  0.46900767  0.14173633  0.23537220  1.0
  Ni  Ni1669  1  0.46900767  0.47506967  0.23537220  1.0
  Ni  Ni1670  1  0.46900767  0.80840300  0.23537220  1.0
  Ni  Ni1671  1  0.80234100  0.14173633  0.23537220  1.0
  Ni  Ni1672  1  0.80234100  0.47506967  0.23537220  1.0
  Ni  Ni1673  1  0.80234100  0.80840300  0.23537220  1.0
  Ni  Ni1674  1  0.16418633  0.22506967  0.26037220  1.0
  Ni  Ni1675  1  0.16418633  0.55840300  0.26037220  1.0
  Ni  Ni1676  1  0.16418633  0.89173633  0.26037220  1.0
  Ni  Ni1677  1  0.49751967  0.22506967  0.26037220  1.0
  Ni  Ni1678  1  0.49751967  0.55840300  0.26037220  1.0
  Ni  Ni1679  1  0.49751967  0.89173633  0.26037220  1.0
  Ni  Ni1680  1  0.83085300  0.22506967  0.26037220  1.0
  Ni  Ni1681  1  0.83085300  0.55840300  0.26037220  1.0
  Ni  Ni1682  1  0.83085300  0.89173633  0.26037220  1.0
  Ni  Ni1683  1  0.33085300  0.05840300  0.21037220  1.0
  Ni  Ni1684  1  0.33085300  0.39173633  0.21037220  1.0
  Ni  Ni1685  1  0.33085300  0.72506967  0.21037220  1.0
  Ni  Ni1686  1  0.66418633  0.05840300  0.21037220  1.0
  Ni  Ni1687  1  0.66418633  0.39173633  0.21037220  1.0
  Ni  Ni1688  1  0.66418633  0.72506967  0.21037220  1.0
  Ni  Ni1689  1  0.99751967  0.05840300  0.21037220  1.0
  Ni  Ni1690  1  0.99751967  0.39173633  0.21037220  1.0
  Ni  Ni1691  1  0.99751967  0.72506967  0.21037220  1.0
  Ni  Ni1692  1  0.02989100  0.19159700  0.20066080  1.0
  Ni  Ni1693  1  0.02989100  0.52493033  0.20066080  1.0
  Ni  Ni1694  1  0.02989100  0.85826367  0.20066080  1.0
  Ni  Ni1695  1  0.36322433  0.19159700  0.20066080  1.0
  Ni  Ni1696  1  0.36322433  0.52493033  0.20066080  1.0
  Ni  Ni1697  1  0.36322433  0.85826367  0.20066080  1.0
  Ni  Ni1698  1  0.69655767  0.19159700  0.20066080  1.0
  Ni  Ni1699  1  0.69655767  0.52493033  0.20066080  1.0
  Ni  Ni1700  1  0.69655767  0.85826367  0.20066080  1.0
  Ni  Ni1701  1  0.19655767  0.02493033  0.25066080  1.0
  Ni  Ni1702  1  0.19655767  0.35826367  0.25066080  1.0
  Ni  Ni1703  1  0.19655767  0.69159700  0.25066080  1.0
  Ni  Ni1704  1  0.52989100  0.02493033  0.25066080  1.0
  Ni  Ni1705  1  0.52989100  0.35826367  0.25066080  1.0
  Ni  Ni1706  1  0.52989100  0.69159700  0.25066080  1.0
  Ni  Ni1707  1  0.86322433  0.02493033  0.25066080  1.0
  Ni  Ni1708  1  0.86322433  0.35826367  0.25066080  1.0
  Ni  Ni1709  1  0.86322433  0.69159700  0.25066080  1.0
  Ni  Ni1710  1  0.16418633  0.22506967  0.21004180  1.0
  Ni  Ni1711  1  0.16418633  0.55840300  0.21004180  1.0
  Ni  Ni1712  1  0.16418633  0.89173633  0.21004180  1.0
  Ni  Ni1713  1  0.49751967  0.22506967  0.21004180  1.0
  Ni  Ni1714  1  0.49751967  0.55840300  0.21004180  1.0
  Ni  Ni1715  1  0.49751967  0.89173633  0.21004180  1.0
  Ni  Ni1716  1  0.83085300  0.22506967  0.21004180  1.0
  Ni  Ni1717  1  0.83085300  0.55840300  0.21004180  1.0
  Ni  Ni1718  1  0.83085300  0.89173633  0.21004180  1.0
  Ni  Ni1719  1  0.33085300  0.05840300  0.26004180  1.0
  Ni  Ni1720  1  0.33085300  0.39173633  0.26004180  1.0
  Ni  Ni1721  1  0.33085300  0.72506967  0.26004180  1.0
  Ni  Ni1722  1  0.66418633  0.05840300  0.26004180  1.0
  Ni  Ni1723  1  0.66418633  0.39173633  0.26004180  1.0
  Ni  Ni1724  1  0.66418633  0.72506967  0.26004180  1.0
  Ni  Ni1725  1  0.99751967  0.05840300  0.26004180  1.0
  Ni  Ni1726  1  0.99751967  0.39173633  0.26004180  1.0
  Ni  Ni1727  1  0.99751967  0.72506967  0.26004180  1.0
  Ni  Ni1728  1  0.32975167  0.22506967  0.21070260  1.0
  Ni  Ni1729  1  0.32975167  0.55840300  0.21070260  1.0
  Ni  Ni1730  1  0.32975167  0.89173633  0.21070260  1.0
  Ni  Ni1731  1  0.66308500  0.22506967  0.21070260  1.0
  Ni  Ni1732  1  0.66308500  0.55840300  0.21070260  1.0
  Ni  Ni1733  1  0.66308500  0.89173633  0.21070260  1.0
  Ni  Ni1734  1  0.99641833  0.22506967  0.21070260  1.0
  Ni  Ni1735  1  0.99641833  0.55840300  0.21070260  1.0
  Ni  Ni1736  1  0.99641833  0.89173633  0.21070260  1.0
  Ni  Ni1737  1  0.16308500  0.05840300  0.26070260  1.0
  Ni  Ni1738  1  0.16308500  0.39173633  0.26070260  1.0
  Ni  Ni1739  1  0.16308500  0.72506967  0.26070260  1.0
  Ni  Ni1740  1  0.49641833  0.05840300  0.26070260  1.0
  Ni  Ni1741  1  0.49641833  0.39173633  0.26070260  1.0
  Ni  Ni1742  1  0.49641833  0.72506967  0.26070260  1.0
  Ni  Ni1743  1  0.82975167  0.05840300  0.26070260  1.0
  Ni  Ni1744  1  0.82975167  0.39173633  0.26070260  1.0
  Ni  Ni1745  1  0.82975167  0.72506967  0.26070260  1.0
  Ni  Ni1746  1  0.00248033  0.27493033  0.22566080  1.0
  Ni  Ni1747  1  0.00248033  0.60826367  0.22566080  1.0
  Ni  Ni1748  1  0.00248033  0.94159700  0.22566080  1.0
  Ni  Ni1749  1  0.33581367  0.27493033  0.22566080  1.0
  Ni  Ni1750  1  0.33581367  0.60826367  0.22566080  1.0
  Ni  Ni1751  1  0.33581367  0.94159700  0.22566080  1.0
  Ni  Ni1752  1  0.66914700  0.27493033  0.22566080  1.0
  Ni  Ni1753  1  0.66914700  0.60826367  0.22566080  1.0
  Ni  Ni1754  1  0.66914700  0.94159700  0.22566080  1.0
  Ni  Ni1755  1  0.16914700  0.10826367  0.27566080  1.0
  Ni  Ni1756  1  0.16914700  0.44159700  0.27566080  1.0
  Ni  Ni1757  1  0.16914700  0.77493033  0.27566080  1.0
  Ni  Ni1758  1  0.50248033  0.10826367  0.27566080  1.0
  Ni  Ni1759  1  0.50248033  0.44159700  0.27566080  1.0
  Ni  Ni1760  1  0.50248033  0.77493033  0.27566080  1.0
  Ni  Ni1761  1  0.83581367  0.10826367  0.27566080  1.0
  Ni  Ni1762  1  0.83581367  0.44159700  0.27566080  1.0
  Ni  Ni1763  1  0.83581367  0.77493033  0.27566080  1.0
  Ni  Ni1764  1  0.00248033  0.27493033  0.27533040  1.0
  Ni  Ni1765  1  0.00248033  0.60826367  0.27533040  1.0
  Ni  Ni1766  1  0.00248033  0.94159700  0.27533040  1.0
  Ni  Ni1767  1  0.33581367  0.27493033  0.27533040  1.0
  Ni  Ni1768  1  0.33581367  0.60826367  0.27533040  1.0
  Ni  Ni1769  1  0.33581367  0.94159700  0.27533040  1.0
  Ni  Ni1770  1  0.66914700  0.27493033  0.27533040  1.0
  Ni  Ni1771  1  0.66914700  0.60826367  0.27533040  1.0
  Ni  Ni1772  1  0.66914700  0.94159700  0.27533040  1.0
  Ni  Ni1773  1  0.16914700  0.10826367  0.22533040  1.0
  Ni  Ni1774  1  0.16914700  0.44159700  0.22533040  1.0
  Ni  Ni1775  1  0.16914700  0.77493033  0.22533040  1.0
  Ni  Ni1776  1  0.50248033  0.10826367  0.22533040  1.0
  Ni  Ni1777  1  0.50248033  0.44159700  0.22533040  1.0
  Ni  Ni1778  1  0.50248033  0.77493033  0.22533040  1.0
  Ni  Ni1779  1  0.83581367  0.10826367  0.22533040  1.0
  Ni  Ni1780  1  0.83581367  0.44159700  0.22533040  1.0
  Ni  Ni1781  1  0.83581367  0.77493033  0.22533040  1.0
  Ni  Ni1782  1  0.19765900  0.19159700  0.25033040  1.0
  Ni  Ni1783  1  0.19765900  0.52493033  0.25033040  1.0
  Ni  Ni1784  1  0.19765900  0.85826367  0.25033040  1.0
  Ni  Ni1785  1  0.53099233  0.19159700  0.25033040  1.0
  Ni  Ni1786  1  0.53099233  0.52493033  0.25033040  1.0
  Ni  Ni1787  1  0.53099233  0.85826367  0.25033040  1.0
  Ni  Ni1788  1  0.86432567  0.19159700  0.25033040  1.0
  Ni  Ni1789  1  0.86432567  0.52493033  0.25033040  1.0
  Ni  Ni1790  1  0.86432567  0.85826367  0.25033040  1.0
  Ni  Ni1791  1  0.03099233  0.02493033  0.20033040  1.0
  Ni  Ni1792  1  0.03099233  0.35826367  0.20033040  1.0
  Ni  Ni1793  1  0.03099233  0.69159700  0.20033040  1.0
  Ni  Ni1794  1  0.36432567  0.02493033  0.20033040  1.0
  Ni  Ni1795  1  0.36432567  0.35826367  0.20033040  1.0
  Ni  Ni1796  1  0.36432567  0.69159700  0.20033040  1.0
  Ni  Ni1797  1  0.69765900  0.02493033  0.20033040  1.0
  Ni  Ni1798  1  0.69765900  0.35826367  0.20033040  1.0
  Ni  Ni1799  1  0.69765900  0.69159700  0.20033040  1.0
  Ni  Ni1800  1  0.03456500  0.29166667  0.23354705  1.0
  Ni  Ni1801  1  0.03456500  0.62500000  0.23354705  1.0
  Ni  Ni1802  1  0.03456500  0.95833333  0.23354705  1.0
  Ni  Ni1803  1  0.36789833  0.29166667  0.23354705  1.0
  Ni  Ni1804  1  0.36789833  0.62500000  0.23354705  1.0
  Ni  Ni1805  1  0.36789833  0.95833333  0.23354705  1.0
  Ni  Ni1806  1  0.70123167  0.29166667  0.23354705  1.0
  Ni  Ni1807  1  0.70123167  0.62500000  0.23354705  1.0
  Ni  Ni1808  1  0.70123167  0.95833333  0.23354705  1.0
  Ni  Ni1809  1  0.20123167  0.12500000  0.28354705  1.0
  Ni  Ni1810  1  0.20123167  0.45833333  0.28354705  1.0
  Ni  Ni1811  1  0.20123167  0.79166667  0.28354705  1.0
  Ni  Ni1812  1  0.53456500  0.12500000  0.28354705  1.0
  Ni  Ni1813  1  0.53456500  0.45833333  0.28354705  1.0
  Ni  Ni1814  1  0.53456500  0.79166667  0.28354705  1.0
  Ni  Ni1815  1  0.86789833  0.12500000  0.28354705  1.0
  Ni  Ni1816  1  0.86789833  0.45833333  0.28354705  1.0
  Ni  Ni1817  1  0.86789833  0.79166667  0.28354705  1.0
  Ni  Ni1818  1  0.28811583  0.20833333  0.20854705  1.0
  Ni  Ni1819  1  0.28811583  0.54166667  0.20854705  1.0
  Ni  Ni1820  1  0.28811583  0.87500000  0.20854705  1.0
  Ni  Ni1821  1  0.62144917  0.20833333  0.20854705  1.0
  Ni  Ni1822  1  0.62144917  0.54166667  0.20854705  1.0
  Ni  Ni1823  1  0.62144917  0.87500000  0.20854705  1.0
  Ni  Ni1824  1  0.95478250  0.20833333  0.20854705  1.0
  Ni  Ni1825  1  0.95478250  0.54166667  0.20854705  1.0
  Ni  Ni1826  1  0.95478250  0.87500000  0.20854705  1.0
  Ni  Ni1827  1  0.12144917  0.04166667  0.25854705  1.0
  Ni  Ni1828  1  0.12144917  0.37500000  0.25854705  1.0
  Ni  Ni1829  1  0.12144917  0.70833333  0.25854705  1.0
  Ni  Ni1830  1  0.45478250  0.04166667  0.25854705  1.0
  Ni  Ni1831  1  0.45478250  0.37500000  0.25854705  1.0
  Ni  Ni1832  1  0.45478250  0.70833333  0.25854705  1.0
  Ni  Ni1833  1  0.78811583  0.04166667  0.25854705  1.0
  Ni  Ni1834  1  0.78811583  0.37500000  0.25854705  1.0
  Ni  Ni1835  1  0.78811583  0.70833333  0.25854705  1.0
  Ni  Ni1836  1  0.28811583  0.20833333  0.25535130  1.0
  Ni  Ni1837  1  0.28811583  0.54166667  0.25535130  1.0
  Ni  Ni1838  1  0.28811583  0.87500000  0.25535130  1.0
  Ni  Ni1839  1  0.62144917  0.20833333  0.25535130  1.0
  Ni  Ni1840  1  0.62144917  0.54166667  0.25535130  1.0
  Ni  Ni1841  1  0.62144917  0.87500000  0.25535130  1.0
  Ni  Ni1842  1  0.95478250  0.20833333  0.25535130  1.0
  Ni  Ni1843  1  0.95478250  0.54166667  0.25535130  1.0
  Ni  Ni1844  1  0.95478250  0.87500000  0.25535130  1.0
  Ni  Ni1845  1  0.12144917  0.04166667  0.20535130  1.0
  Ni  Ni1846  1  0.12144917  0.37500000  0.20535130  1.0
  Ni  Ni1847  1  0.12144917  0.70833333  0.20535130  1.0
  Ni  Ni1848  1  0.45478250  0.04166667  0.20535130  1.0
  Ni  Ni1849  1  0.45478250  0.37500000  0.20535130  1.0
  Ni  Ni1850  1  0.45478250  0.70833333  0.20535130  1.0
  Ni  Ni1851  1  0.78811583  0.04166667  0.20535130  1.0
  Ni  Ni1852  1  0.78811583  0.37500000  0.20535130  1.0
  Ni  Ni1853  1  0.78811583  0.70833333  0.20535130  1.0
  Ni  Ni1854  1  0.21188417  0.29166667  0.28035130  1.0
  Ni  Ni1855  1  0.21188417  0.62500000  0.28035130  1.0
  Ni  Ni1856  1  0.21188417  0.95833333  0.28035130  1.0
  Ni  Ni1857  1  0.54521750  0.29166667  0.28035130  1.0
  Ni  Ni1858  1  0.54521750  0.62500000  0.28035130  1.0
  Ni  Ni1859  1  0.54521750  0.95833333  0.28035130  1.0
  Ni  Ni1860  1  0.87855083  0.29166667  0.28035130  1.0
  Ni  Ni1861  1  0.87855083  0.62500000  0.28035130  1.0
  Ni  Ni1862  1  0.87855083  0.95833333  0.28035130  1.0
  Ni  Ni1863  1  0.04521750  0.12500000  0.23035130  1.0
  Ni  Ni1864  1  0.04521750  0.45833333  0.23035130  1.0
  Ni  Ni1865  1  0.04521750  0.79166667  0.23035130  1.0
  Ni  Ni1866  1  0.37855083  0.12500000  0.23035130  1.0
  Ni  Ni1867  1  0.37855083  0.45833333  0.23035130  1.0
  Ni  Ni1868  1  0.37855083  0.79166667  0.23035130  1.0
  Ni  Ni1869  1  0.71188417  0.12500000  0.23035130  1.0
  Ni  Ni1870  1  0.71188417  0.45833333  0.23035130  1.0
  Ni  Ni1871  1  0.71188417  0.79166667  0.23035130  1.0
  Ni  Ni1872  1  0.21188417  0.29166667  0.22715555  1.0
  Ni  Ni1873  1  0.21188417  0.62500000  0.22715555  1.0
  Ni  Ni1874  1  0.21188417  0.95833333  0.22715555  1.0
  Ni  Ni1875  1  0.54521750  0.29166667  0.22715555  1.0
  Ni  Ni1876  1  0.54521750  0.62500000  0.22715555  1.0
  Ni  Ni1877  1  0.54521750  0.95833333  0.22715555  1.0
  Ni  Ni1878  1  0.87855083  0.29166667  0.22715555  1.0
  Ni  Ni1879  1  0.87855083  0.62500000  0.22715555  1.0
  Ni  Ni1880  1  0.87855083  0.95833333  0.22715555  1.0
  Ni  Ni1881  1  0.04521750  0.12500000  0.27715555  1.0
  Ni  Ni1882  1  0.04521750  0.45833333  0.27715555  1.0
  Ni  Ni1883  1  0.04521750  0.79166667  0.27715555  1.0
  Ni  Ni1884  1  0.37855083  0.12500000  0.27715555  1.0
  Ni  Ni1885  1  0.37855083  0.45833333  0.27715555  1.0
  Ni  Ni1886  1  0.37855083  0.79166667  0.27715555  1.0
  Ni  Ni1887  1  0.71188417  0.12500000  0.27715555  1.0
  Ni  Ni1888  1  0.71188417  0.45833333  0.27715555  1.0
  Ni  Ni1889  1  0.71188417  0.79166667  0.27715555  1.0
  Ni  Ni1890  1  0.13210167  0.20833333  0.20215555  1.0
  Ni  Ni1891  1  0.13210167  0.54166667  0.20215555  1.0
  Ni  Ni1892  1  0.13210167  0.87500000  0.20215555  1.0
  Ni  Ni1893  1  0.46543500  0.20833333  0.20215555  1.0
  Ni  Ni1894  1  0.46543500  0.54166667  0.20215555  1.0
  Ni  Ni1895  1  0.46543500  0.87500000  0.20215555  1.0
  Ni  Ni1896  1  0.79876833  0.20833333  0.20215555  1.0
  Ni  Ni1897  1  0.79876833  0.54166667  0.20215555  1.0
  Ni  Ni1898  1  0.79876833  0.87500000  0.20215555  1.0
  Ni  Ni1899  1  0.29876833  0.04166667  0.25215555  1.0
  Ni  Ni1900  1  0.29876833  0.37500000  0.25215555  1.0
  Ni  Ni1901  1  0.29876833  0.70833333  0.25215555  1.0
  Ni  Ni1902  1  0.63210167  0.04166667  0.25215555  1.0
  Ni  Ni1903  1  0.63210167  0.37500000  0.25215555  1.0
  Ni  Ni1904  1  0.63210167  0.70833333  0.25215555  1.0
  Ni  Ni1905  1  0.96543500  0.04166667  0.25215555  1.0
  Ni  Ni1906  1  0.96543500  0.37500000  0.25215555  1.0
  Ni  Ni1907  1  0.96543500  0.70833333  0.25215555  1.0
  Ni  Ni1908  1  0.30393817  0.25853217  0.21729930  1.0
  Ni  Ni1909  1  0.30393817  0.59186550  0.21729930  1.0
  Ni  Ni1910  1  0.30393817  0.92519883  0.21729930  1.0
  Ni  Ni1911  1  0.63727150  0.25853217  0.21729930  1.0
  Ni  Ni1912  1  0.63727150  0.59186550  0.21729930  1.0
  Ni  Ni1913  1  0.63727150  0.92519883  0.21729930  1.0
  Ni  Ni1914  1  0.97060483  0.25853217  0.21729930  1.0
  Ni  Ni1915  1  0.97060483  0.59186550  0.21729930  1.0
  Ni  Ni1916  1  0.97060483  0.92519883  0.21729930  1.0
  Ni  Ni1917  1  0.13727150  0.09186550  0.26729930  1.0
  Ni  Ni1918  1  0.13727150  0.42519883  0.26729930  1.0
  Ni  Ni1919  1  0.13727150  0.75853217  0.26729930  1.0
  Ni  Ni1920  1  0.47060483  0.09186550  0.26729930  1.0
  Ni  Ni1921  1  0.47060483  0.42519883  0.26729930  1.0
  Ni  Ni1922  1  0.47060483  0.75853217  0.26729930  1.0
  Ni  Ni1923  1  0.80393817  0.09186550  0.26729930  1.0
  Ni  Ni1924  1  0.80393817  0.42519883  0.26729930  1.0
  Ni  Ni1925  1  0.80393817  0.75853217  0.26729930  1.0
  Ni  Ni1926  1  0.10603633  0.17519883  0.29229930  1.0
  Ni  Ni1927  1  0.10603633  0.50853217  0.29229930  1.0
  Ni  Ni1928  1  0.10603633  0.84186550  0.29229930  1.0
  Ni  Ni1929  1  0.43936967  0.17519883  0.29229930  1.0
  Ni  Ni1930  1  0.43936967  0.50853217  0.29229930  1.0
  Ni  Ni1931  1  0.43936967  0.84186550  0.29229930  1.0
  Ni  Ni1932  1  0.77270300  0.17519883  0.29229930  1.0
  Ni  Ni1933  1  0.77270300  0.50853217  0.29229930  1.0
  Ni  Ni1934  1  0.77270300  0.84186550  0.29229930  1.0
  Ni  Ni1935  1  0.27270300  0.00853217  0.24229930  1.0
  Ni  Ni1936  1  0.27270300  0.34186550  0.24229930  1.0
  Ni  Ni1937  1  0.27270300  0.67519883  0.24229930  1.0
  Ni  Ni1938  1  0.60603633  0.00853217  0.24229930  1.0
  Ni  Ni1939  1  0.60603633  0.34186550  0.24229930  1.0
  Ni  Ni1940  1  0.60603633  0.67519883  0.24229930  1.0
  Ni  Ni1941  1  0.93936967  0.00853217  0.24229930  1.0
  Ni  Ni1942  1  0.93936967  0.34186550  0.24229930  1.0
  Ni  Ni1943  1  0.93936967  0.67519883  0.24229930  1.0
  Ni  Ni1944  1  0.10603633  0.17519883  0.24541095  1.0
  Ni  Ni1945  1  0.10603633  0.50853217  0.24541095  1.0
  Ni  Ni1946  1  0.10603633  0.84186550  0.24541095  1.0
  Ni  Ni1947  1  0.43936967  0.17519883  0.24541095  1.0
  Ni  Ni1948  1  0.43936967  0.50853217  0.24541095  1.0
  Ni  Ni1949  1  0.43936967  0.84186550  0.24541095  1.0
  Ni  Ni1950  1  0.77270300  0.17519883  0.24541095  1.0
  Ni  Ni1951  1  0.77270300  0.50853217  0.24541095  1.0
  Ni  Ni1952  1  0.77270300  0.84186550  0.24541095  1.0
  Ni  Ni1953  1  0.27270300  0.00853217  0.29541095  1.0
  Ni  Ni1954  1  0.27270300  0.34186550  0.29541095  1.0
  Ni  Ni1955  1  0.27270300  0.67519883  0.29541095  1.0
  Ni  Ni1956  1  0.60603633  0.00853217  0.29541095  1.0
  Ni  Ni1957  1  0.60603633  0.34186550  0.29541095  1.0
  Ni  Ni1958  1  0.60603633  0.67519883  0.29541095  1.0
  Ni  Ni1959  1  0.93936967  0.00853217  0.29541095  1.0
  Ni  Ni1960  1  0.93936967  0.34186550  0.29541095  1.0
  Ni  Ni1961  1  0.93936967  0.67519883  0.29541095  1.0
  Ni  Ni1962  1  0.12689933  0.25853217  0.27041095  1.0
  Ni  Ni1963  1  0.12689933  0.59186550  0.27041095  1.0
  Ni  Ni1964  1  0.12689933  0.92519883  0.27041095  1.0
  Ni  Ni1965  1  0.46023267  0.25853217  0.27041095  1.0
  Ni  Ni1966  1  0.46023267  0.59186550  0.27041095  1.0
  Ni  Ni1967  1  0.46023267  0.92519883  0.27041095  1.0
  Ni  Ni1968  1  0.79356600  0.25853217  0.27041095  1.0
  Ni  Ni1969  1  0.79356600  0.59186550  0.27041095  1.0
  Ni  Ni1970  1  0.79356600  0.92519883  0.27041095  1.0
  Ni  Ni1971  1  0.29356600  0.09186550  0.22041095  1.0
  Ni  Ni1972  1  0.29356600  0.42519883  0.22041095  1.0
  Ni  Ni1973  1  0.29356600  0.75853217  0.22041095  1.0
  Ni  Ni1974  1  0.62689933  0.09186550  0.22041095  1.0
  Ni  Ni1975  1  0.62689933  0.42519883  0.22041095  1.0
  Ni  Ni1976  1  0.62689933  0.75853217  0.22041095  1.0
  Ni  Ni1977  1  0.96023267  0.09186550  0.22041095  1.0
  Ni  Ni1978  1  0.96023267  0.42519883  0.22041095  1.0
  Ni  Ni1979  1  0.96023267  0.75853217  0.22041095  1.0
  Ni  Ni1980  1  0.12689933  0.25853217  0.22352260  1.0
  Ni  Ni1981  1  0.12689933  0.59186550  0.22352260  1.0
  Ni  Ni1982  1  0.12689933  0.92519883  0.22352260  1.0
  Ni  Ni1983  1  0.46023267  0.25853217  0.22352260  1.0
  Ni  Ni1984  1  0.46023267  0.59186550  0.22352260  1.0
  Ni  Ni1985  1  0.46023267  0.92519883  0.22352260  1.0
  Ni  Ni1986  1  0.79356600  0.25853217  0.22352260  1.0
  Ni  Ni1987  1  0.79356600  0.59186550  0.22352260  1.0
  Ni  Ni1988  1  0.79356600  0.92519883  0.22352260  1.0
  Ni  Ni1989  1  0.29356600  0.09186550  0.27352260  1.0
  Ni  Ni1990  1  0.29356600  0.42519883  0.27352260  1.0
  Ni  Ni1991  1  0.29356600  0.75853217  0.27352260  1.0
  Ni  Ni1992  1  0.62689933  0.09186550  0.27352260  1.0
  Ni  Ni1993  1  0.62689933  0.42519883  0.27352260  1.0
  Ni  Ni1994  1  0.62689933  0.75853217  0.27352260  1.0
  Ni  Ni1995  1  0.96023267  0.09186550  0.27352260  1.0
  Ni  Ni1996  1  0.96023267  0.42519883  0.27352260  1.0
  Ni  Ni1997  1  0.96023267  0.75853217  0.27352260  1.0
  Ni  Ni1998  1  0.19606183  0.24146783  0.21840330  1.0
  Ni  Ni1999  1  0.19606183  0.57480117  0.21840330  1.0
  Ni  Ni2000  1  0.19606183  0.90813450  0.21840330  1.0
  Ni  Ni2001  1  0.52939517  0.24146783  0.21840330  1.0
  Ni  Ni2002  1  0.52939517  0.57480117  0.21840330  1.0
  Ni  Ni2003  1  0.52939517  0.90813450  0.21840330  1.0
  Ni  Ni2004  1  0.86272850  0.24146783  0.21840330  1.0
  Ni  Ni2005  1  0.86272850  0.57480117  0.21840330  1.0
  Ni  Ni2006  1  0.86272850  0.90813450  0.21840330  1.0
  Ni  Ni2007  1  0.02939517  0.07480117  0.26840330  1.0
  Ni  Ni2008  1  0.02939517  0.40813450  0.26840330  1.0
  Ni  Ni2009  1  0.02939517  0.74146783  0.26840330  1.0
  Ni  Ni2010  1  0.36272850  0.07480117  0.26840330  1.0
  Ni  Ni2011  1  0.36272850  0.40813450  0.26840330  1.0
  Ni  Ni2012  1  0.36272850  0.74146783  0.26840330  1.0
  Ni  Ni2013  1  0.69606183  0.07480117  0.26840330  1.0
  Ni  Ni2014  1  0.69606183  0.40813450  0.26840330  1.0
  Ni  Ni2015  1  0.69606183  0.74146783  0.26840330  1.0
  Ni  Ni2016  1  0.03976733  0.24146783  0.21218000  1.0
  Ni  Ni2017  1  0.03976733  0.57480117  0.21218000  1.0
  Ni  Ni2018  1  0.03976733  0.90813450  0.21218000  1.0
  Ni  Ni2019  1  0.37310067  0.24146783  0.21218000  1.0
  Ni  Ni2020  1  0.37310067  0.57480117  0.21218000  1.0
  Ni  Ni2021  1  0.37310067  0.90813450  0.21218000  1.0
  Ni  Ni2022  1  0.70643400  0.24146783  0.21218000  1.0
  Ni  Ni2023  1  0.70643400  0.57480117  0.21218000  1.0
  Ni  Ni2024  1  0.70643400  0.90813450  0.21218000  1.0
  Ni  Ni2025  1  0.20643400  0.07480117  0.26218000  1.0
  Ni  Ni2026  1  0.20643400  0.40813450  0.26218000  1.0
  Ni  Ni2027  1  0.20643400  0.74146783  0.26218000  1.0
  Ni  Ni2028  1  0.53976733  0.07480117  0.26218000  1.0
  Ni  Ni2029  1  0.53976733  0.40813450  0.26218000  1.0
  Ni  Ni2030  1  0.53976733  0.74146783  0.26218000  1.0
  Ni  Ni2031  1  0.87310067  0.07480117  0.26218000  1.0
  Ni  Ni2032  1  0.87310067  0.40813450  0.26218000  1.0
  Ni  Ni2033  1  0.87310067  0.74146783  0.26218000  1.0
  Ni  Ni2034  1  0.26233083  0.17519883  0.29852260  1.0
  Ni  Ni2035  1  0.26233083  0.50853217  0.29852260  1.0
  Ni  Ni2036  1  0.26233083  0.84186550  0.29852260  1.0
  Ni  Ni2037  1  0.59566417  0.17519883  0.29852260  1.0
  Ni  Ni2038  1  0.59566417  0.50853217  0.29852260  1.0
  Ni  Ni2039  1  0.59566417  0.84186550  0.29852260  1.0
  Ni  Ni2040  1  0.92899750  0.17519883  0.29852260  1.0
  Ni  Ni2041  1  0.92899750  0.50853217  0.29852260  1.0
  Ni  Ni2042  1  0.92899750  0.84186550  0.29852260  1.0
  Ni  Ni2043  1  0.09566417  0.00853217  0.24852260  1.0
  Ni  Ni2044  1  0.09566417  0.34186550  0.24852260  1.0
  Ni  Ni2045  1  0.09566417  0.67519883  0.24852260  1.0
  Ni  Ni2046  1  0.42899750  0.00853217  0.24852260  1.0
  Ni  Ni2047  1  0.42899750  0.34186550  0.24852260  1.0
  Ni  Ni2048  1  0.42899750  0.67519883  0.24852260  1.0
  Ni  Ni2049  1  0.76233083  0.00853217  0.24852260  1.0
  Ni  Ni2050  1  0.76233083  0.34186550  0.24852260  1.0
  Ni  Ni2051  1  0.76233083  0.67519883  0.24852260  1.0
  Ni  Ni2052  1  0.03976733  0.24146783  0.26529165  1.0
  Ni  Ni2053  1  0.03976733  0.57480117  0.26529165  1.0
  Ni  Ni2054  1  0.03976733  0.90813450  0.26529165  1.0
  Ni  Ni2055  1  0.37310067  0.24146783  0.26529165  1.0
  Ni  Ni2056  1  0.37310067  0.57480117  0.26529165  1.0
  Ni  Ni2057  1  0.37310067  0.90813450  0.26529165  1.0
  Ni  Ni2058  1  0.70643400  0.24146783  0.26529165  1.0
  Ni  Ni2059  1  0.70643400  0.57480117  0.26529165  1.0
  Ni  Ni2060  1  0.70643400  0.90813450  0.26529165  1.0
  Ni  Ni2061  1  0.20643400  0.07480117  0.21529165  1.0
  Ni  Ni2062  1  0.20643400  0.40813450  0.21529165  1.0
  Ni  Ni2063  1  0.20643400  0.74146783  0.21529165  1.0
  Ni  Ni2064  1  0.53976733  0.07480117  0.21529165  1.0
  Ni  Ni2065  1  0.53976733  0.40813450  0.21529165  1.0
  Ni  Ni2066  1  0.53976733  0.74146783  0.21529165  1.0
  Ni  Ni2067  1  0.87310067  0.07480117  0.21529165  1.0
  Ni  Ni2068  1  0.87310067  0.40813450  0.21529165  1.0
  Ni  Ni2069  1  0.87310067  0.74146783  0.21529165  1.0
  Ni  Ni2070  1  0.06063033  0.32480117  0.29029165  1.0
  Ni  Ni2071  1  0.06063033  0.65813450  0.29029165  1.0
  Ni  Ni2072  1  0.06063033  0.99146783  0.29029165  1.0
  Ni  Ni2073  1  0.39396367  0.32480117  0.29029165  1.0
  Ni  Ni2074  1  0.39396367  0.65813450  0.29029165  1.0
  Ni  Ni2075  1  0.39396367  0.99146783  0.29029165  1.0
  Ni  Ni2076  1  0.72729700  0.32480117  0.29029165  1.0
  Ni  Ni2077  1  0.72729700  0.65813450  0.29029165  1.0
  Ni  Ni2078  1  0.72729700  0.99146783  0.29029165  1.0
  Ni  Ni2079  1  0.22729700  0.15813450  0.24029165  1.0
  Ni  Ni2080  1  0.22729700  0.49146783  0.24029165  1.0
  Ni  Ni2081  1  0.22729700  0.82480117  0.24029165  1.0
  Ni  Ni2082  1  0.56063033  0.15813450  0.24029165  1.0
  Ni  Ni2083  1  0.56063033  0.49146783  0.24029165  1.0
  Ni  Ni2084  1  0.56063033  0.82480117  0.24029165  1.0
  Ni  Ni2085  1  0.89396367  0.15813450  0.24029165  1.0
  Ni  Ni2086  1  0.89396367  0.49146783  0.24029165  1.0
  Ni  Ni2087  1  0.89396367  0.82480117  0.24029165  1.0
  Ni  Ni2088  1  0.23766917  0.32480117  0.23718000  1.0
  Ni  Ni2089  1  0.23766917  0.65813450  0.23718000  1.0
  Ni  Ni2090  1  0.23766917  0.99146783  0.23718000  1.0
  Ni  Ni2091  1  0.57100250  0.32480117  0.23718000  1.0
  Ni  Ni2092  1  0.57100250  0.65813450  0.23718000  1.0
  Ni  Ni2093  1  0.57100250  0.99146783  0.23718000  1.0
  Ni  Ni2094  1  0.90433583  0.32480117  0.23718000  1.0
  Ni  Ni2095  1  0.90433583  0.65813450  0.23718000  1.0
  Ni  Ni2096  1  0.90433583  0.99146783  0.23718000  1.0
  Ni  Ni2097  1  0.07100250  0.15813450  0.28718000  1.0
  Ni  Ni2098  1  0.07100250  0.49146783  0.28718000  1.0
  Ni  Ni2099  1  0.07100250  0.82480117  0.28718000  1.0
  Ni  Ni2100  1  0.40433583  0.15813450  0.28718000  1.0
  Ni  Ni2101  1  0.40433583  0.49146783  0.28718000  1.0
  Ni  Ni2102  1  0.40433583  0.82480117  0.28718000  1.0
  Ni  Ni2103  1  0.73766917  0.15813450  0.28718000  1.0
  Ni  Ni2104  1  0.73766917  0.49146783  0.28718000  1.0
  Ni  Ni2105  1  0.73766917  0.82480117  0.28718000  1.0
  Ni  Ni2106  1  0.06063033  0.32480117  0.24340330  1.0
  Ni  Ni2107  1  0.06063033  0.65813450  0.24340330  1.0
  Ni  Ni2108  1  0.06063033  0.99146783  0.24340330  1.0
  Ni  Ni2109  1  0.39396367  0.32480117  0.24340330  1.0
  Ni  Ni2110  1  0.39396367  0.65813450  0.24340330  1.0
  Ni  Ni2111  1  0.39396367  0.99146783  0.24340330  1.0
  Ni  Ni2112  1  0.72729700  0.32480117  0.24340330  1.0
  Ni  Ni2113  1  0.72729700  0.65813450  0.24340330  1.0
  Ni  Ni2114  1  0.72729700  0.99146783  0.24340330  1.0
  Ni  Ni2115  1  0.22729700  0.15813450  0.29340330  1.0
  Ni  Ni2116  1  0.22729700  0.49146783  0.29340330  1.0
  Ni  Ni2117  1  0.22729700  0.82480117  0.29340330  1.0
  Ni  Ni2118  1  0.56063033  0.15813450  0.29340330  1.0
  Ni  Ni2119  1  0.56063033  0.49146783  0.29340330  1.0
  Ni  Ni2120  1  0.56063033  0.82480117  0.29340330  1.0
  Ni  Ni2121  1  0.89396367  0.15813450  0.29340330  1.0
  Ni  Ni2122  1  0.89396367  0.49146783  0.29340330  1.0
  Ni  Ni2123  1  0.89396367  0.82480117  0.29340330  1.0
  Ni  Ni2124  1  0.17024833  0.27493033  0.22500000  1.0
  Ni  Ni2125  1  0.17024833  0.60826367  0.22500000  1.0
  Ni  Ni2126  1  0.17024833  0.94159700  0.22500000  1.0
  Ni  Ni2127  1  0.50358167  0.27493033  0.22500000  1.0
  Ni  Ni2128  1  0.50358167  0.60826367  0.22500000  1.0
  Ni  Ni2129  1  0.50358167  0.94159700  0.22500000  1.0
  Ni  Ni2130  1  0.83691500  0.27493033  0.22500000  1.0
  Ni  Ni2131  1  0.83691500  0.60826367  0.22500000  1.0
  Ni  Ni2132  1  0.83691500  0.94159700  0.22500000  1.0
  Ni  Ni2133  1  0.00358167  0.10826367  0.27500000  1.0
  Ni  Ni2134  1  0.00358167  0.44159700  0.27500000  1.0
  Ni  Ni2135  1  0.00358167  0.77493033  0.27500000  1.0
  Ni  Ni2136  1  0.33691500  0.10826367  0.27500000  1.0
  Ni  Ni2137  1  0.33691500  0.44159700  0.27500000  1.0
  Ni  Ni2138  1  0.33691500  0.77493033  0.27500000  1.0
  Ni  Ni2139  1  0.67024833  0.10826367  0.27500000  1.0
  Ni  Ni2140  1  0.67024833  0.44159700  0.27500000  1.0
  Ni  Ni2141  1  0.67024833  0.77493033  0.27500000  1.0
  Ni  Ni2142  1  0.19765900  0.19159700  0.30000000  1.0
  Ni  Ni2143  1  0.19765900  0.52493033  0.30000000  1.0
  Ni  Ni2144  1  0.19765900  0.85826367  0.30000000  1.0
  Ni  Ni2145  1  0.53099233  0.19159700  0.30000000  1.0
  Ni  Ni2146  1  0.53099233  0.52493033  0.30000000  1.0
  Ni  Ni2147  1  0.53099233  0.85826367  0.30000000  1.0
  Ni  Ni2148  1  0.86432567  0.19159700  0.30000000  1.0
  Ni  Ni2149  1  0.86432567  0.52493033  0.30000000  1.0
  Ni  Ni2150  1  0.86432567  0.85826367  0.30000000  1.0
  Ni  Ni2151  1  0.03099233  0.02493033  0.25000000  1.0
  Ni  Ni2152  1  0.03099233  0.35826367  0.25000000  1.0
  Ni  Ni2153  1  0.03099233  0.69159700  0.25000000  1.0
  Ni  Ni2154  1  0.36432567  0.02493033  0.25000000  1.0
  Ni  Ni2155  1  0.36432567  0.35826367  0.25000000  1.0
  Ni  Ni2156  1  0.36432567  0.69159700  0.25000000  1.0
  Ni  Ni2157  1  0.69765900  0.02493033  0.25000000  1.0
  Ni  Ni2158  1  0.69765900  0.35826367  0.25000000  1.0
  Ni  Ni2159  1  0.69765900  0.69159700  0.25000000  1.0
  Hf  Hf2160  1  0.20213561  0.24230883  0.36554395  1.0
  Hf  Hf2161  1  0.20213561  0.57564217  0.36554395  1.0
  Hf  Hf2162  1  0.20213561  0.90897550  0.36554395  1.0
  Hf  Hf2163  1  0.53546894  0.24230883  0.36554395  1.0
  Hf  Hf2164  1  0.53546894  0.57564217  0.36554395  1.0
  Hf  Hf2165  1  0.53546894  0.90897550  0.36554395  1.0
  Hf  Hf2166  1  0.86880228  0.24230883  0.36554395  1.0
  Hf  Hf2167  1  0.86880228  0.57564217  0.36554395  1.0
  Hf  Hf2168  1  0.86880228  0.90897550  0.36554395  1.0
  Hf  Hf2169  1  0.03546894  0.07564217  0.31554395  1.0
  Hf  Hf2170  1  0.03546894  0.40897550  0.31554395  1.0
  Hf  Hf2171  1  0.03546894  0.74230883  0.31554395  1.0
  Hf  Hf2172  1  0.36880228  0.07564217  0.31554395  1.0
  Hf  Hf2173  1  0.36880228  0.40897550  0.31554395  1.0
  Hf  Hf2174  1  0.36880228  0.74230883  0.31554395  1.0
  Hf  Hf2175  1  0.70213561  0.07564217  0.31554395  1.0
  Hf  Hf2176  1  0.70213561  0.40897550  0.31554395  1.0
  Hf  Hf2177  1  0.70213561  0.74230883  0.31554395  1.0
  Hf  Hf2178  1  0.22991339  0.32564217  0.39054395  1.0
  Hf  Hf2179  1  0.22991339  0.65897550  0.39054395  1.0
  Hf  Hf2180  1  0.22991339  0.99230883  0.39054395  1.0
  Hf  Hf2181  1  0.56324672  0.32564217  0.39054395  1.0
  Hf  Hf2182  1  0.56324672  0.65897550  0.39054395  1.0
  Hf  Hf2183  1  0.56324672  0.99230883  0.39054395  1.0
  Hf  Hf2184  1  0.89658006  0.32564217  0.39054395  1.0
  Hf  Hf2185  1  0.89658006  0.65897550  0.39054395  1.0
  Hf  Hf2186  1  0.89658006  0.99230883  0.39054395  1.0
  Hf  Hf2187  1  0.06324672  0.15897550  0.34054395  1.0
  Hf  Hf2188  1  0.06324672  0.49230883  0.34054395  1.0
  Hf  Hf2189  1  0.06324672  0.82564217  0.34054395  1.0
  Hf  Hf2190  1  0.39658006  0.15897550  0.34054395  1.0
  Hf  Hf2191  1  0.39658006  0.49230883  0.34054395  1.0
  Hf  Hf2192  1  0.39658006  0.82564217  0.34054395  1.0
  Hf  Hf2193  1  0.72991339  0.15897550  0.34054395  1.0
  Hf  Hf2194  1  0.72991339  0.49230883  0.34054395  1.0
  Hf  Hf2195  1  0.72991339  0.82564217  0.34054395  1.0
  Hf  Hf2196  1  0.29786439  0.25769117  0.37015865  1.0
  Hf  Hf2197  1  0.29786439  0.59102450  0.37015865  1.0
  Hf  Hf2198  1  0.29786439  0.92435783  0.37015865  1.0
  Hf  Hf2199  1  0.63119772  0.25769117  0.37015865  1.0
  Hf  Hf2200  1  0.63119772  0.59102450  0.37015865  1.0
  Hf  Hf2201  1  0.63119772  0.92435783  0.37015865  1.0
  Hf  Hf2202  1  0.96453106  0.25769117  0.37015865  1.0
  Hf  Hf2203  1  0.96453106  0.59102450  0.37015865  1.0
  Hf  Hf2204  1  0.96453106  0.92435783  0.37015865  1.0
  Hf  Hf2205  1  0.13119772  0.09102450  0.32015865  1.0
  Hf  Hf2206  1  0.13119772  0.42435783  0.32015865  1.0
  Hf  Hf2207  1  0.13119772  0.75769117  0.32015865  1.0
  Hf  Hf2208  1  0.46453106  0.09102450  0.32015865  1.0
  Hf  Hf2209  1  0.46453106  0.42435783  0.32015865  1.0
  Hf  Hf2210  1  0.46453106  0.75769117  0.32015865  1.0
  Hf  Hf2211  1  0.79786439  0.09102450  0.32015865  1.0
  Hf  Hf2212  1  0.79786439  0.42435783  0.32015865  1.0
  Hf  Hf2213  1  0.79786439  0.75769117  0.32015865  1.0
  Hf  Hf2214  1  0.27008661  0.17435783  0.34515865  1.0
  Hf  Hf2215  1  0.27008661  0.50769117  0.34515865  1.0
  Hf  Hf2216  1  0.27008661  0.84102450  0.34515865  1.0
  Hf  Hf2217  1  0.60341994  0.17435783  0.34515865  1.0
  Hf  Hf2218  1  0.60341994  0.50769117  0.34515865  1.0
  Hf  Hf2219  1  0.60341994  0.84102450  0.34515865  1.0
  Hf  Hf2220  1  0.93675328  0.17435783  0.34515865  1.0
  Hf  Hf2221  1  0.93675328  0.50769117  0.34515865  1.0
  Hf  Hf2222  1  0.93675328  0.84102450  0.34515865  1.0
  Hf  Hf2223  1  0.10341994  0.00769117  0.39515865  1.0
  Hf  Hf2224  1  0.10341994  0.34102450  0.39515865  1.0
  Hf  Hf2225  1  0.10341994  0.67435783  0.39515865  1.0
  Hf  Hf2226  1  0.43675328  0.00769117  0.39515865  1.0
  Hf  Hf2227  1  0.43675328  0.34102450  0.39515865  1.0
  Hf  Hf2228  1  0.43675328  0.67435783  0.39515865  1.0
  Hf  Hf2229  1  0.77008661  0.00769117  0.39515865  1.0
  Hf  Hf2230  1  0.77008661  0.34102450  0.39515865  1.0
  Hf  Hf2231  1  0.77008661  0.67435783  0.39515865  1.0
  Hf  Hf2232  1  0.16926661  0.27517783  0.37540465  1.0
  Hf  Hf2233  1  0.16926661  0.60851117  0.37540465  1.0
  Hf  Hf2234  1  0.16926661  0.94184450  0.37540465  1.0
  Hf  Hf2235  1  0.50259994  0.27517783  0.37540465  1.0
  Hf  Hf2236  1  0.50259994  0.60851117  0.37540465  1.0
  Hf  Hf2237  1  0.50259994  0.94184450  0.37540465  1.0
  Hf  Hf2238  1  0.83593328  0.27517783  0.37540465  1.0
  Hf  Hf2239  1  0.83593328  0.60851117  0.37540465  1.0
  Hf  Hf2240  1  0.83593328  0.94184450  0.37540465  1.0
  Hf  Hf2241  1  0.00259994  0.10851117  0.32540465  1.0
  Hf  Hf2242  1  0.00259994  0.44184450  0.32540465  1.0
  Hf  Hf2243  1  0.00259994  0.77517783  0.32540465  1.0
  Hf  Hf2244  1  0.33593328  0.10851117  0.32540465  1.0
  Hf  Hf2245  1  0.33593328  0.44184450  0.32540465  1.0
  Hf  Hf2246  1  0.33593328  0.77517783  0.32540465  1.0
  Hf  Hf2247  1  0.66926661  0.10851117  0.32540465  1.0
  Hf  Hf2248  1  0.66926661  0.44184450  0.32540465  1.0
  Hf  Hf2249  1  0.66926661  0.77517783  0.32540465  1.0
  Hf  Hf2250  1  0.03037772  0.19184450  0.35040465  1.0
  Hf  Hf2251  1  0.03037772  0.52517783  0.35040465  1.0
  Hf  Hf2252  1  0.03037772  0.85851117  0.35040465  1.0
  Hf  Hf2253  1  0.36371106  0.19184450  0.35040465  1.0
  Hf  Hf2254  1  0.36371106  0.52517783  0.35040465  1.0
  Hf  Hf2255  1  0.36371106  0.85851117  0.35040465  1.0
  Hf  Hf2256  1  0.69704439  0.19184450  0.35040465  1.0
  Hf  Hf2257  1  0.69704439  0.52517783  0.35040465  1.0
  Hf  Hf2258  1  0.69704439  0.85851117  0.35040465  1.0
  Hf  Hf2259  1  0.19704439  0.02517783  0.30040465  1.0
  Hf  Hf2260  1  0.19704439  0.35851117  0.30040465  1.0
  Hf  Hf2261  1  0.19704439  0.69184450  0.30040465  1.0
  Hf  Hf2262  1  0.53037772  0.02517783  0.30040465  1.0
  Hf  Hf2263  1  0.53037772  0.35851117  0.30040465  1.0
  Hf  Hf2264  1  0.53037772  0.69184450  0.30040465  1.0
  Hf  Hf2265  1  0.86371106  0.02517783  0.30040465  1.0
  Hf  Hf2266  1  0.86371106  0.35851117  0.30040465  1.0
  Hf  Hf2267  1  0.86371106  0.69184450  0.30040465  1.0
  Hf  Hf2268  1  0.33073339  0.22482217  0.36029795  1.0
  Hf  Hf2269  1  0.33073339  0.55815550  0.36029795  1.0
  Hf  Hf2270  1  0.33073339  0.89148883  0.36029795  1.0
  Hf  Hf2271  1  0.66406672  0.22482217  0.36029795  1.0
  Hf  Hf2272  1  0.66406672  0.55815550  0.36029795  1.0
  Hf  Hf2273  1  0.66406672  0.89148883  0.36029795  1.0
  Hf  Hf2274  1  0.99740006  0.22482217  0.36029795  1.0
  Hf  Hf2275  1  0.99740006  0.55815550  0.36029795  1.0
  Hf  Hf2276  1  0.99740006  0.89148883  0.36029795  1.0
  Hf  Hf2277  1  0.16406672  0.05815550  0.31029795  1.0
  Hf  Hf2278  1  0.16406672  0.39148883  0.31029795  1.0
  Hf  Hf2279  1  0.16406672  0.72482217  0.31029795  1.0
  Hf  Hf2280  1  0.49740006  0.05815550  0.31029795  1.0
  Hf  Hf2281  1  0.49740006  0.39148883  0.31029795  1.0
  Hf  Hf2282  1  0.49740006  0.72482217  0.31029795  1.0
  Hf  Hf2283  1  0.83073339  0.05815550  0.31029795  1.0
  Hf  Hf2284  1  0.83073339  0.39148883  0.31029795  1.0
  Hf  Hf2285  1  0.83073339  0.72482217  0.31029795  1.0
  Hf  Hf2286  1  0.13628894  0.30815550  0.38529795  1.0
  Hf  Hf2287  1  0.13628894  0.64148883  0.38529795  1.0
  Hf  Hf2288  1  0.13628894  0.97482217  0.38529795  1.0
  Hf  Hf2289  1  0.46962228  0.30815550  0.38529795  1.0
  Hf  Hf2290  1  0.46962228  0.64148883  0.38529795  1.0
  Hf  Hf2291  1  0.46962228  0.97482217  0.38529795  1.0
  Hf  Hf2292  1  0.80295561  0.30815550  0.38529795  1.0
  Hf  Hf2293  1  0.80295561  0.64148883  0.38529795  1.0
  Hf  Hf2294  1  0.80295561  0.97482217  0.38529795  1.0
  Hf  Hf2295  1  0.30295561  0.14148883  0.33529795  1.0
  Hf  Hf2296  1  0.30295561  0.47482217  0.33529795  1.0
  Hf  Hf2297  1  0.30295561  0.80815550  0.33529795  1.0
  Hf  Hf2298  1  0.63628894  0.14148883  0.33529795  1.0
  Hf  Hf2299  1  0.63628894  0.47482217  0.33529795  1.0
  Hf  Hf2300  1  0.63628894  0.80815550  0.33529795  1.0
  Hf  Hf2301  1  0.96962228  0.14148883  0.33529795  1.0
  Hf  Hf2302  1  0.96962228  0.47482217  0.33529795  1.0
  Hf  Hf2303  1  0.96962228  0.80815550  0.33529795  1.0
  Hf  Hf2304  1  0.12500000  0.20833333  0.35535130  1.0
  Hf  Hf2305  1  0.12500000  0.54166667  0.35535130  1.0
  Hf  Hf2306  1  0.12500000  0.87500000  0.35535130  1.0
  Hf  Hf2307  1  0.45833333  0.20833333  0.35535130  1.0
  Hf  Hf2308  1  0.45833333  0.54166667  0.35535130  1.0
  Hf  Hf2309  1  0.45833333  0.87500000  0.35535130  1.0
  Hf  Hf2310  1  0.79166667  0.20833333  0.35535130  1.0
  Hf  Hf2311  1  0.79166667  0.54166667  0.35535130  1.0
  Hf  Hf2312  1  0.79166667  0.87500000  0.35535130  1.0
  Hf  Hf2313  1  0.29166667  0.04166667  0.30535130  1.0
  Hf  Hf2314  1  0.29166667  0.37500000  0.30535130  1.0
  Hf  Hf2315  1  0.29166667  0.70833333  0.30535130  1.0
  Hf  Hf2316  1  0.62500000  0.04166667  0.30535130  1.0
  Hf  Hf2317  1  0.62500000  0.37500000  0.30535130  1.0
  Hf  Hf2318  1  0.62500000  0.70833333  0.30535130  1.0
  Hf  Hf2319  1  0.95833333  0.04166667  0.30535130  1.0
  Hf  Hf2320  1  0.95833333  0.37500000  0.30535130  1.0
  Hf  Hf2321  1  0.95833333  0.70833333  0.30535130  1.0
  Hf  Hf2322  1  0.04166667  0.29166667  0.38035130  1.0
  Hf  Hf2323  1  0.04166667  0.62500000  0.38035130  1.0
  Hf  Hf2324  1  0.04166667  0.95833333  0.38035130  1.0
  Hf  Hf2325  1  0.37500000  0.29166667  0.38035130  1.0
  Hf  Hf2326  1  0.37500000  0.62500000  0.38035130  1.0
  Hf  Hf2327  1  0.37500000  0.95833333  0.38035130  1.0
  Hf  Hf2328  1  0.70833333  0.29166667  0.38035130  1.0
  Hf  Hf2329  1  0.70833333  0.62500000  0.38035130  1.0
  Hf  Hf2330  1  0.70833333  0.95833333  0.38035130  1.0
  Hf  Hf2331  1  0.20833333  0.12500000  0.33035130  1.0
  Hf  Hf2332  1  0.20833333  0.45833333  0.33035130  1.0
  Hf  Hf2333  1  0.20833333  0.79166667  0.33035130  1.0
  Hf  Hf2334  1  0.54166667  0.12500000  0.33035130  1.0
  Hf  Hf2335  1  0.54166667  0.45833333  0.33035130  1.0
  Hf  Hf2336  1  0.54166667  0.79166667  0.33035130  1.0
  Hf  Hf2337  1  0.87500000  0.12500000  0.33035130  1.0
  Hf  Hf2338  1  0.87500000  0.45833333  0.33035130  1.0
  Hf  Hf2339  1  0.87500000  0.79166667  0.33035130  1.0
  Ni  Ni2340  1  0.30234100  0.30840300  0.33570260  1.0
  Ni  Ni2341  1  0.30234100  0.64173633  0.33570260  1.0
  Ni  Ni2342  1  0.30234100  0.97506967  0.33570260  1.0
  Ni  Ni2343  1  0.63567433  0.30840300  0.33570260  1.0
  Ni  Ni2344  1  0.63567433  0.64173633  0.33570260  1.0
  Ni  Ni2345  1  0.63567433  0.97506967  0.33570260  1.0
  Ni  Ni2346  1  0.96900767  0.30840300  0.33570260  1.0
  Ni  Ni2347  1  0.96900767  0.64173633  0.33570260  1.0
  Ni  Ni2348  1  0.96900767  0.97506967  0.33570260  1.0
  Ni  Ni2349  1  0.13567433  0.14173633  0.38570260  1.0
  Ni  Ni2350  1  0.13567433  0.47506967  0.38570260  1.0
  Ni  Ni2351  1  0.13567433  0.80840300  0.38570260  1.0
  Ni  Ni2352  1  0.46900767  0.14173633  0.38570260  1.0
  Ni  Ni2353  1  0.46900767  0.47506967  0.38570260  1.0
  Ni  Ni2354  1  0.46900767  0.80840300  0.38570260  1.0
  Ni  Ni2355  1  0.80234100  0.14173633  0.38570260  1.0
  Ni  Ni2356  1  0.80234100  0.47506967  0.38570260  1.0
  Ni  Ni2357  1  0.80234100  0.80840300  0.38570260  1.0
  Ni  Ni2358  1  0.13677567  0.30840300  0.33504180  1.0
  Ni  Ni2359  1  0.13677567  0.64173633  0.33504180  1.0
  Ni  Ni2360  1  0.13677567  0.97506967  0.33504180  1.0
  Ni  Ni2361  1  0.47010900  0.30840300  0.33504180  1.0
  Ni  Ni2362  1  0.47010900  0.64173633  0.33504180  1.0
  Ni  Ni2363  1  0.47010900  0.97506967  0.33504180  1.0
  Ni  Ni2364  1  0.80344233  0.30840300  0.33504180  1.0
  Ni  Ni2365  1  0.80344233  0.64173633  0.33504180  1.0
  Ni  Ni2366  1  0.80344233  0.97506967  0.33504180  1.0
  Ni  Ni2367  1  0.30344233  0.14173633  0.38504180  1.0
  Ni  Ni2368  1  0.30344233  0.47506967  0.38504180  1.0
  Ni  Ni2369  1  0.30344233  0.80840300  0.38504180  1.0
  Ni  Ni2370  1  0.63677567  0.14173633  0.38504180  1.0
  Ni  Ni2371  1  0.63677567  0.47506967  0.38504180  1.0
  Ni  Ni2372  1  0.63677567  0.80840300  0.38504180  1.0
  Ni  Ni2373  1  0.97010900  0.14173633  0.38504180  1.0
  Ni  Ni2374  1  0.97010900  0.47506967  0.38504180  1.0
  Ni  Ni2375  1  0.97010900  0.80840300  0.38504180  1.0
  Ni  Ni2376  1  0.30234100  0.30840300  0.38537220  1.0
  Ni  Ni2377  1  0.30234100  0.64173633  0.38537220  1.0
  Ni  Ni2378  1  0.30234100  0.97506967  0.38537220  1.0
  Ni  Ni2379  1  0.63567433  0.30840300  0.38537220  1.0
  Ni  Ni2380  1  0.63567433  0.64173633  0.38537220  1.0
  Ni  Ni2381  1  0.63567433  0.97506967  0.38537220  1.0
  Ni  Ni2382  1  0.96900767  0.30840300  0.38537220  1.0
  Ni  Ni2383  1  0.96900767  0.64173633  0.38537220  1.0
  Ni  Ni2384  1  0.96900767  0.97506967  0.38537220  1.0
  Ni  Ni2385  1  0.13567433  0.14173633  0.33537220  1.0
  Ni  Ni2386  1  0.13567433  0.47506967  0.33537220  1.0
  Ni  Ni2387  1  0.13567433  0.80840300  0.33537220  1.0
  Ni  Ni2388  1  0.46900767  0.14173633  0.33537220  1.0
  Ni  Ni2389  1  0.46900767  0.47506967  0.33537220  1.0
  Ni  Ni2390  1  0.46900767  0.80840300  0.33537220  1.0
  Ni  Ni2391  1  0.80234100  0.14173633  0.33537220  1.0
  Ni  Ni2392  1  0.80234100  0.47506967  0.33537220  1.0
  Ni  Ni2393  1  0.80234100  0.80840300  0.33537220  1.0
  Ni  Ni2394  1  0.16418633  0.22506967  0.36037220  1.0
  Ni  Ni2395  1  0.16418633  0.55840300  0.36037220  1.0
  Ni  Ni2396  1  0.16418633  0.89173633  0.36037220  1.0
  Ni  Ni2397  1  0.49751967  0.22506967  0.36037220  1.0
  Ni  Ni2398  1  0.49751967  0.55840300  0.36037220  1.0
  Ni  Ni2399  1  0.49751967  0.89173633  0.36037220  1.0
  Ni  Ni2400  1  0.83085300  0.22506967  0.36037220  1.0
  Ni  Ni2401  1  0.83085300  0.55840300  0.36037220  1.0
  Ni  Ni2402  1  0.83085300  0.89173633  0.36037220  1.0
  Ni  Ni2403  1  0.33085300  0.05840300  0.31037220  1.0
  Ni  Ni2404  1  0.33085300  0.39173633  0.31037220  1.0
  Ni  Ni2405  1  0.33085300  0.72506967  0.31037220  1.0
  Ni  Ni2406  1  0.66418633  0.05840300  0.31037220  1.0
  Ni  Ni2407  1  0.66418633  0.39173633  0.31037220  1.0
  Ni  Ni2408  1  0.66418633  0.72506967  0.31037220  1.0
  Ni  Ni2409  1  0.99751967  0.05840300  0.31037220  1.0
  Ni  Ni2410  1  0.99751967  0.39173633  0.31037220  1.0
  Ni  Ni2411  1  0.99751967  0.72506967  0.31037220  1.0
  Ni  Ni2412  1  0.02989100  0.19159700  0.30066080  1.0
  Ni  Ni2413  1  0.02989100  0.52493033  0.30066080  1.0
  Ni  Ni2414  1  0.02989100  0.85826367  0.30066080  1.0
  Ni  Ni2415  1  0.36322433  0.19159700  0.30066080  1.0
  Ni  Ni2416  1  0.36322433  0.52493033  0.30066080  1.0
  Ni  Ni2417  1  0.36322433  0.85826367  0.30066080  1.0
  Ni  Ni2418  1  0.69655767  0.19159700  0.30066080  1.0
  Ni  Ni2419  1  0.69655767  0.52493033  0.30066080  1.0
  Ni  Ni2420  1  0.69655767  0.85826367  0.30066080  1.0
  Ni  Ni2421  1  0.19655767  0.02493033  0.35066080  1.0
  Ni  Ni2422  1  0.19655767  0.35826367  0.35066080  1.0
  Ni  Ni2423  1  0.19655767  0.69159700  0.35066080  1.0
  Ni  Ni2424  1  0.52989100  0.02493033  0.35066080  1.0
  Ni  Ni2425  1  0.52989100  0.35826367  0.35066080  1.0
  Ni  Ni2426  1  0.52989100  0.69159700  0.35066080  1.0
  Ni  Ni2427  1  0.86322433  0.02493033  0.35066080  1.0
  Ni  Ni2428  1  0.86322433  0.35826367  0.35066080  1.0
  Ni  Ni2429  1  0.86322433  0.69159700  0.35066080  1.0
  Ni  Ni2430  1  0.16418633  0.22506967  0.31004180  1.0
  Ni  Ni2431  1  0.16418633  0.55840300  0.31004180  1.0
  Ni  Ni2432  1  0.16418633  0.89173633  0.31004180  1.0
  Ni  Ni2433  1  0.49751967  0.22506967  0.31004180  1.0
  Ni  Ni2434  1  0.49751967  0.55840300  0.31004180  1.0
  Ni  Ni2435  1  0.49751967  0.89173633  0.31004180  1.0
  Ni  Ni2436  1  0.83085300  0.22506967  0.31004180  1.0
  Ni  Ni2437  1  0.83085300  0.55840300  0.31004180  1.0
  Ni  Ni2438  1  0.83085300  0.89173633  0.31004180  1.0
  Ni  Ni2439  1  0.33085300  0.05840300  0.36004180  1.0
  Ni  Ni2440  1  0.33085300  0.39173633  0.36004180  1.0
  Ni  Ni2441  1  0.33085300  0.72506967  0.36004180  1.0
  Ni  Ni2442  1  0.66418633  0.05840300  0.36004180  1.0
  Ni  Ni2443  1  0.66418633  0.39173633  0.36004180  1.0
  Ni  Ni2444  1  0.66418633  0.72506967  0.36004180  1.0
  Ni  Ni2445  1  0.99751967  0.05840300  0.36004180  1.0
  Ni  Ni2446  1  0.99751967  0.39173633  0.36004180  1.0
  Ni  Ni2447  1  0.99751967  0.72506967  0.36004180  1.0
  Ni  Ni2448  1  0.32975167  0.22506967  0.31070260  1.0
  Ni  Ni2449  1  0.32975167  0.55840300  0.31070260  1.0
  Ni  Ni2450  1  0.32975167  0.89173633  0.31070260  1.0
  Ni  Ni2451  1  0.66308500  0.22506967  0.31070260  1.0
  Ni  Ni2452  1  0.66308500  0.55840300  0.31070260  1.0
  Ni  Ni2453  1  0.66308500  0.89173633  0.31070260  1.0
  Ni  Ni2454  1  0.99641833  0.22506967  0.31070260  1.0
  Ni  Ni2455  1  0.99641833  0.55840300  0.31070260  1.0
  Ni  Ni2456  1  0.99641833  0.89173633  0.31070260  1.0
  Ni  Ni2457  1  0.16308500  0.05840300  0.36070260  1.0
  Ni  Ni2458  1  0.16308500  0.39173633  0.36070260  1.0
  Ni  Ni2459  1  0.16308500  0.72506967  0.36070260  1.0
  Ni  Ni2460  1  0.49641833  0.05840300  0.36070260  1.0
  Ni  Ni2461  1  0.49641833  0.39173633  0.36070260  1.0
  Ni  Ni2462  1  0.49641833  0.72506967  0.36070260  1.0
  Ni  Ni2463  1  0.82975167  0.05840300  0.36070260  1.0
  Ni  Ni2464  1  0.82975167  0.39173633  0.36070260  1.0
  Ni  Ni2465  1  0.82975167  0.72506967  0.36070260  1.0
  Ni  Ni2466  1  0.00248033  0.27493033  0.32566080  1.0
  Ni  Ni2467  1  0.00248033  0.60826367  0.32566080  1.0
  Ni  Ni2468  1  0.00248033  0.94159700  0.32566080  1.0
  Ni  Ni2469  1  0.33581367  0.27493033  0.32566080  1.0
  Ni  Ni2470  1  0.33581367  0.60826367  0.32566080  1.0
  Ni  Ni2471  1  0.33581367  0.94159700  0.32566080  1.0
  Ni  Ni2472  1  0.66914700  0.27493033  0.32566080  1.0
  Ni  Ni2473  1  0.66914700  0.60826367  0.32566080  1.0
  Ni  Ni2474  1  0.66914700  0.94159700  0.32566080  1.0
  Ni  Ni2475  1  0.16914700  0.10826367  0.37566080  1.0
  Ni  Ni2476  1  0.16914700  0.44159700  0.37566080  1.0
  Ni  Ni2477  1  0.16914700  0.77493033  0.37566080  1.0
  Ni  Ni2478  1  0.50248033  0.10826367  0.37566080  1.0
  Ni  Ni2479  1  0.50248033  0.44159700  0.37566080  1.0
  Ni  Ni2480  1  0.50248033  0.77493033  0.37566080  1.0
  Ni  Ni2481  1  0.83581367  0.10826367  0.37566080  1.0
  Ni  Ni2482  1  0.83581367  0.44159700  0.37566080  1.0
  Ni  Ni2483  1  0.83581367  0.77493033  0.37566080  1.0
  Ni  Ni2484  1  0.00248033  0.27493033  0.37533040  1.0
  Ni  Ni2485  1  0.00248033  0.60826367  0.37533040  1.0
  Ni  Ni2486  1  0.00248033  0.94159700  0.37533040  1.0
  Ni  Ni2487  1  0.33581367  0.27493033  0.37533040  1.0
  Ni  Ni2488  1  0.33581367  0.60826367  0.37533040  1.0
  Ni  Ni2489  1  0.33581367  0.94159700  0.37533040  1.0
  Ni  Ni2490  1  0.66914700  0.27493033  0.37533040  1.0
  Ni  Ni2491  1  0.66914700  0.60826367  0.37533040  1.0
  Ni  Ni2492  1  0.66914700  0.94159700  0.37533040  1.0
  Ni  Ni2493  1  0.16914700  0.10826367  0.32533040  1.0
  Ni  Ni2494  1  0.16914700  0.44159700  0.32533040  1.0
  Ni  Ni2495  1  0.16914700  0.77493033  0.32533040  1.0
  Ni  Ni2496  1  0.50248033  0.10826367  0.32533040  1.0
  Ni  Ni2497  1  0.50248033  0.44159700  0.32533040  1.0
  Ni  Ni2498  1  0.50248033  0.77493033  0.32533040  1.0
  Ni  Ni2499  1  0.83581367  0.10826367  0.32533040  1.0
  Ni  Ni2500  1  0.83581367  0.44159700  0.32533040  1.0
  Ni  Ni2501  1  0.83581367  0.77493033  0.32533040  1.0
  Ni  Ni2502  1  0.19765900  0.19159700  0.35033040  1.0
  Ni  Ni2503  1  0.19765900  0.52493033  0.35033040  1.0
  Ni  Ni2504  1  0.19765900  0.85826367  0.35033040  1.0
  Ni  Ni2505  1  0.53099233  0.19159700  0.35033040  1.0
  Ni  Ni2506  1  0.53099233  0.52493033  0.35033040  1.0
  Ni  Ni2507  1  0.53099233  0.85826367  0.35033040  1.0
  Ni  Ni2508  1  0.86432567  0.19159700  0.35033040  1.0
  Ni  Ni2509  1  0.86432567  0.52493033  0.35033040  1.0
  Ni  Ni2510  1  0.86432567  0.85826367  0.35033040  1.0
  Ni  Ni2511  1  0.03099233  0.02493033  0.30033040  1.0
  Ni  Ni2512  1  0.03099233  0.35826367  0.30033040  1.0
  Ni  Ni2513  1  0.03099233  0.69159700  0.30033040  1.0
  Ni  Ni2514  1  0.36432567  0.02493033  0.30033040  1.0
  Ni  Ni2515  1  0.36432567  0.35826367  0.30033040  1.0
  Ni  Ni2516  1  0.36432567  0.69159700  0.30033040  1.0
  Ni  Ni2517  1  0.69765900  0.02493033  0.30033040  1.0
  Ni  Ni2518  1  0.69765900  0.35826367  0.30033040  1.0
  Ni  Ni2519  1  0.69765900  0.69159700  0.30033040  1.0
  Ni  Ni2520  1  0.03456500  0.29166667  0.33354705  1.0
  Ni  Ni2521  1  0.03456500  0.62500000  0.33354705  1.0
  Ni  Ni2522  1  0.03456500  0.95833333  0.33354705  1.0
  Ni  Ni2523  1  0.36789833  0.29166667  0.33354705  1.0
  Ni  Ni2524  1  0.36789833  0.62500000  0.33354705  1.0
  Ni  Ni2525  1  0.36789833  0.95833333  0.33354705  1.0
  Ni  Ni2526  1  0.70123167  0.29166667  0.33354705  1.0
  Ni  Ni2527  1  0.70123167  0.62500000  0.33354705  1.0
  Ni  Ni2528  1  0.70123167  0.95833333  0.33354705  1.0
  Ni  Ni2529  1  0.20123167  0.12500000  0.38354705  1.0
  Ni  Ni2530  1  0.20123167  0.45833333  0.38354705  1.0
  Ni  Ni2531  1  0.20123167  0.79166667  0.38354705  1.0
  Ni  Ni2532  1  0.53456500  0.12500000  0.38354705  1.0
  Ni  Ni2533  1  0.53456500  0.45833333  0.38354705  1.0
  Ni  Ni2534  1  0.53456500  0.79166667  0.38354705  1.0
  Ni  Ni2535  1  0.86789833  0.12500000  0.38354705  1.0
  Ni  Ni2536  1  0.86789833  0.45833333  0.38354705  1.0
  Ni  Ni2537  1  0.86789833  0.79166667  0.38354705  1.0
  Ni  Ni2538  1  0.28811583  0.20833333  0.30854705  1.0
  Ni  Ni2539  1  0.28811583  0.54166667  0.30854705  1.0
  Ni  Ni2540  1  0.28811583  0.87500000  0.30854705  1.0
  Ni  Ni2541  1  0.62144917  0.20833333  0.30854705  1.0
  Ni  Ni2542  1  0.62144917  0.54166667  0.30854705  1.0
  Ni  Ni2543  1  0.62144917  0.87500000  0.30854705  1.0
  Ni  Ni2544  1  0.95478250  0.20833333  0.30854705  1.0
  Ni  Ni2545  1  0.95478250  0.54166667  0.30854705  1.0
  Ni  Ni2546  1  0.95478250  0.87500000  0.30854705  1.0
  Ni  Ni2547  1  0.12144917  0.04166667  0.35854705  1.0
  Ni  Ni2548  1  0.12144917  0.37500000  0.35854705  1.0
  Ni  Ni2549  1  0.12144917  0.70833333  0.35854705  1.0
  Ni  Ni2550  1  0.45478250  0.04166667  0.35854705  1.0
  Ni  Ni2551  1  0.45478250  0.37500000  0.35854705  1.0
  Ni  Ni2552  1  0.45478250  0.70833333  0.35854705  1.0
  Ni  Ni2553  1  0.78811583  0.04166667  0.35854705  1.0
  Ni  Ni2554  1  0.78811583  0.37500000  0.35854705  1.0
  Ni  Ni2555  1  0.78811583  0.70833333  0.35854705  1.0
  Ni  Ni2556  1  0.28811583  0.20833333  0.35535130  1.0
  Ni  Ni2557  1  0.28811583  0.54166667  0.35535130  1.0
  Ni  Ni2558  1  0.28811583  0.87500000  0.35535130  1.0
  Ni  Ni2559  1  0.62144917  0.20833333  0.35535130  1.0
  Ni  Ni2560  1  0.62144917  0.54166667  0.35535130  1.0
  Ni  Ni2561  1  0.62144917  0.87500000  0.35535130  1.0
  Ni  Ni2562  1  0.95478250  0.20833333  0.35535130  1.0
  Ni  Ni2563  1  0.95478250  0.54166667  0.35535130  1.0
  Ni  Ni2564  1  0.95478250  0.87500000  0.35535130  1.0
  Ni  Ni2565  1  0.12144917  0.04166667  0.30535130  1.0
  Ni  Ni2566  1  0.12144917  0.37500000  0.30535130  1.0
  Ni  Ni2567  1  0.12144917  0.70833333  0.30535130  1.0
  Ni  Ni2568  1  0.45478250  0.04166667  0.30535130  1.0
  Ni  Ni2569  1  0.45478250  0.37500000  0.30535130  1.0
  Ni  Ni2570  1  0.45478250  0.70833333  0.30535130  1.0
  Ni  Ni2571  1  0.78811583  0.04166667  0.30535130  1.0
  Ni  Ni2572  1  0.78811583  0.37500000  0.30535130  1.0
  Ni  Ni2573  1  0.78811583  0.70833333  0.30535130  1.0
  Ni  Ni2574  1  0.21188417  0.29166667  0.38035130  1.0
  Ni  Ni2575  1  0.21188417  0.62500000  0.38035130  1.0
  Ni  Ni2576  1  0.21188417  0.95833333  0.38035130  1.0
  Ni  Ni2577  1  0.54521750  0.29166667  0.38035130  1.0
  Ni  Ni2578  1  0.54521750  0.62500000  0.38035130  1.0
  Ni  Ni2579  1  0.54521750  0.95833333  0.38035130  1.0
  Ni  Ni2580  1  0.87855083  0.29166667  0.38035130  1.0
  Ni  Ni2581  1  0.87855083  0.62500000  0.38035130  1.0
  Ni  Ni2582  1  0.87855083  0.95833333  0.38035130  1.0
  Ni  Ni2583  1  0.04521750  0.12500000  0.33035130  1.0
  Ni  Ni2584  1  0.04521750  0.45833333  0.33035130  1.0
  Ni  Ni2585  1  0.04521750  0.79166667  0.33035130  1.0
  Ni  Ni2586  1  0.37855083  0.12500000  0.33035130  1.0
  Ni  Ni2587  1  0.37855083  0.45833333  0.33035130  1.0
  Ni  Ni2588  1  0.37855083  0.79166667  0.33035130  1.0
  Ni  Ni2589  1  0.71188417  0.12500000  0.33035130  1.0
  Ni  Ni2590  1  0.71188417  0.45833333  0.33035130  1.0
  Ni  Ni2591  1  0.71188417  0.79166667  0.33035130  1.0
  Ni  Ni2592  1  0.21188417  0.29166667  0.32715555  1.0
  Ni  Ni2593  1  0.21188417  0.62500000  0.32715555  1.0
  Ni  Ni2594  1  0.21188417  0.95833333  0.32715555  1.0
  Ni  Ni2595  1  0.54521750  0.29166667  0.32715555  1.0
  Ni  Ni2596  1  0.54521750  0.62500000  0.32715555  1.0
  Ni  Ni2597  1  0.54521750  0.95833333  0.32715555  1.0
  Ni  Ni2598  1  0.87855083  0.29166667  0.32715555  1.0
  Ni  Ni2599  1  0.87855083  0.62500000  0.32715555  1.0
  Ni  Ni2600  1  0.87855083  0.95833333  0.32715555  1.0
  Ni  Ni2601  1  0.04521750  0.12500000  0.37715555  1.0
  Ni  Ni2602  1  0.04521750  0.45833333  0.37715555  1.0
  Ni  Ni2603  1  0.04521750  0.79166667  0.37715555  1.0
  Ni  Ni2604  1  0.37855083  0.12500000  0.37715555  1.0
  Ni  Ni2605  1  0.37855083  0.45833333  0.37715555  1.0
  Ni  Ni2606  1  0.37855083  0.79166667  0.37715555  1.0
  Ni  Ni2607  1  0.71188417  0.12500000  0.37715555  1.0
  Ni  Ni2608  1  0.71188417  0.45833333  0.37715555  1.0
  Ni  Ni2609  1  0.71188417  0.79166667  0.37715555  1.0
  Ni  Ni2610  1  0.13210167  0.20833333  0.30215555  1.0
  Ni  Ni2611  1  0.13210167  0.54166667  0.30215555  1.0
  Ni  Ni2612  1  0.13210167  0.87500000  0.30215555  1.0
  Ni  Ni2613  1  0.46543500  0.20833333  0.30215555  1.0
  Ni  Ni2614  1  0.46543500  0.54166667  0.30215555  1.0
  Ni  Ni2615  1  0.46543500  0.87500000  0.30215555  1.0
  Ni  Ni2616  1  0.79876833  0.20833333  0.30215555  1.0
  Ni  Ni2617  1  0.79876833  0.54166667  0.30215555  1.0
  Ni  Ni2618  1  0.79876833  0.87500000  0.30215555  1.0
  Ni  Ni2619  1  0.29876833  0.04166667  0.35215555  1.0
  Ni  Ni2620  1  0.29876833  0.37500000  0.35215555  1.0
  Ni  Ni2621  1  0.29876833  0.70833333  0.35215555  1.0
  Ni  Ni2622  1  0.63210167  0.04166667  0.35215555  1.0
  Ni  Ni2623  1  0.63210167  0.37500000  0.35215555  1.0
  Ni  Ni2624  1  0.63210167  0.70833333  0.35215555  1.0
  Ni  Ni2625  1  0.96543500  0.04166667  0.35215555  1.0
  Ni  Ni2626  1  0.96543500  0.37500000  0.35215555  1.0
  Ni  Ni2627  1  0.96543500  0.70833333  0.35215555  1.0
  Ni  Ni2628  1  0.30393817  0.25853217  0.31729930  1.0
  Ni  Ni2629  1  0.30393817  0.59186550  0.31729930  1.0
  Ni  Ni2630  1  0.30393817  0.92519883  0.31729930  1.0
  Ni  Ni2631  1  0.63727150  0.25853217  0.31729930  1.0
  Ni  Ni2632  1  0.63727150  0.59186550  0.31729930  1.0
  Ni  Ni2633  1  0.63727150  0.92519883  0.31729930  1.0
  Ni  Ni2634  1  0.97060483  0.25853217  0.31729930  1.0
  Ni  Ni2635  1  0.97060483  0.59186550  0.31729930  1.0
  Ni  Ni2636  1  0.97060483  0.92519883  0.31729930  1.0
  Ni  Ni2637  1  0.13727150  0.09186550  0.36729930  1.0
  Ni  Ni2638  1  0.13727150  0.42519883  0.36729930  1.0
  Ni  Ni2639  1  0.13727150  0.75853217  0.36729930  1.0
  Ni  Ni2640  1  0.47060483  0.09186550  0.36729930  1.0
  Ni  Ni2641  1  0.47060483  0.42519883  0.36729930  1.0
  Ni  Ni2642  1  0.47060483  0.75853217  0.36729930  1.0
  Ni  Ni2643  1  0.80393817  0.09186550  0.36729930  1.0
  Ni  Ni2644  1  0.80393817  0.42519883  0.36729930  1.0
  Ni  Ni2645  1  0.80393817  0.75853217  0.36729930  1.0
  Ni  Ni2646  1  0.10603633  0.17519883  0.39229930  1.0
  Ni  Ni2647  1  0.10603633  0.50853217  0.39229930  1.0
  Ni  Ni2648  1  0.10603633  0.84186550  0.39229930  1.0
  Ni  Ni2649  1  0.43936967  0.17519883  0.39229930  1.0
  Ni  Ni2650  1  0.43936967  0.50853217  0.39229930  1.0
  Ni  Ni2651  1  0.43936967  0.84186550  0.39229930  1.0
  Ni  Ni2652  1  0.77270300  0.17519883  0.39229930  1.0
  Ni  Ni2653  1  0.77270300  0.50853217  0.39229930  1.0
  Ni  Ni2654  1  0.77270300  0.84186550  0.39229930  1.0
  Ni  Ni2655  1  0.27270300  0.00853217  0.34229930  1.0
  Ni  Ni2656  1  0.27270300  0.34186550  0.34229930  1.0
  Ni  Ni2657  1  0.27270300  0.67519883  0.34229930  1.0
  Ni  Ni2658  1  0.60603633  0.00853217  0.34229930  1.0
  Ni  Ni2659  1  0.60603633  0.34186550  0.34229930  1.0
  Ni  Ni2660  1  0.60603633  0.67519883  0.34229930  1.0
  Ni  Ni2661  1  0.93936967  0.00853217  0.34229930  1.0
  Ni  Ni2662  1  0.93936967  0.34186550  0.34229930  1.0
  Ni  Ni2663  1  0.93936967  0.67519883  0.34229930  1.0
  Ni  Ni2664  1  0.10603633  0.17519883  0.34541095  1.0
  Ni  Ni2665  1  0.10603633  0.50853217  0.34541095  1.0
  Ni  Ni2666  1  0.10603633  0.84186550  0.34541095  1.0
  Ni  Ni2667  1  0.43936967  0.17519883  0.34541095  1.0
  Ni  Ni2668  1  0.43936967  0.50853217  0.34541095  1.0
  Ni  Ni2669  1  0.43936967  0.84186550  0.34541095  1.0
  Ni  Ni2670  1  0.77270300  0.17519883  0.34541095  1.0
  Ni  Ni2671  1  0.77270300  0.50853217  0.34541095  1.0
  Ni  Ni2672  1  0.77270300  0.84186550  0.34541095  1.0
  Ni  Ni2673  1  0.27270300  0.00853217  0.39541095  1.0
  Ni  Ni2674  1  0.27270300  0.34186550  0.39541095  1.0
  Ni  Ni2675  1  0.27270300  0.67519883  0.39541095  1.0
  Ni  Ni2676  1  0.60603633  0.00853217  0.39541095  1.0
  Ni  Ni2677  1  0.60603633  0.34186550  0.39541095  1.0
  Ni  Ni2678  1  0.60603633  0.67519883  0.39541095  1.0
  Ni  Ni2679  1  0.93936967  0.00853217  0.39541095  1.0
  Ni  Ni2680  1  0.93936967  0.34186550  0.39541095  1.0
  Ni  Ni2681  1  0.93936967  0.67519883  0.39541095  1.0
  Ni  Ni2682  1  0.12689933  0.25853217  0.37041095  1.0
  Ni  Ni2683  1  0.12689933  0.59186550  0.37041095  1.0
  Ni  Ni2684  1  0.12689933  0.92519883  0.37041095  1.0
  Ni  Ni2685  1  0.46023267  0.25853217  0.37041095  1.0
  Ni  Ni2686  1  0.46023267  0.59186550  0.37041095  1.0
  Ni  Ni2687  1  0.46023267  0.92519883  0.37041095  1.0
  Ni  Ni2688  1  0.79356600  0.25853217  0.37041095  1.0
  Ni  Ni2689  1  0.79356600  0.59186550  0.37041095  1.0
  Ni  Ni2690  1  0.79356600  0.92519883  0.37041095  1.0
  Ni  Ni2691  1  0.29356600  0.09186550  0.32041095  1.0
  Ni  Ni2692  1  0.29356600  0.42519883  0.32041095  1.0
  Ni  Ni2693  1  0.29356600  0.75853217  0.32041095  1.0
  Ni  Ni2694  1  0.62689933  0.09186550  0.32041095  1.0
  Ni  Ni2695  1  0.62689933  0.42519883  0.32041095  1.0
  Ni  Ni2696  1  0.62689933  0.75853217  0.32041095  1.0
  Ni  Ni2697  1  0.96023267  0.09186550  0.32041095  1.0
  Ni  Ni2698  1  0.96023267  0.42519883  0.32041095  1.0
  Ni  Ni2699  1  0.96023267  0.75853217  0.32041095  1.0
  Ni  Ni2700  1  0.12689933  0.25853217  0.32352260  1.0
  Ni  Ni2701  1  0.12689933  0.59186550  0.32352260  1.0
  Ni  Ni2702  1  0.12689933  0.92519883  0.32352260  1.0
  Ni  Ni2703  1  0.46023267  0.25853217  0.32352260  1.0
  Ni  Ni2704  1  0.46023267  0.59186550  0.32352260  1.0
  Ni  Ni2705  1  0.46023267  0.92519883  0.32352260  1.0
  Ni  Ni2706  1  0.79356600  0.25853217  0.32352260  1.0
  Ni  Ni2707  1  0.79356600  0.59186550  0.32352260  1.0
  Ni  Ni2708  1  0.79356600  0.92519883  0.32352260  1.0
  Ni  Ni2709  1  0.29356600  0.09186550  0.37352260  1.0
  Ni  Ni2710  1  0.29356600  0.42519883  0.37352260  1.0
  Ni  Ni2711  1  0.29356600  0.75853217  0.37352260  1.0
  Ni  Ni2712  1  0.62689933  0.09186550  0.37352260  1.0
  Ni  Ni2713  1  0.62689933  0.42519883  0.37352260  1.0
  Ni  Ni2714  1  0.62689933  0.75853217  0.37352260  1.0
  Ni  Ni2715  1  0.96023267  0.09186550  0.37352260  1.0
  Ni  Ni2716  1  0.96023267  0.42519883  0.37352260  1.0
  Ni  Ni2717  1  0.96023267  0.75853217  0.37352260  1.0
  Ni  Ni2718  1  0.19606183  0.24146783  0.31840330  1.0
  Ni  Ni2719  1  0.19606183  0.57480117  0.31840330  1.0
  Ni  Ni2720  1  0.19606183  0.90813450  0.31840330  1.0
  Ni  Ni2721  1  0.52939517  0.24146783  0.31840330  1.0
  Ni  Ni2722  1  0.52939517  0.57480117  0.31840330  1.0
  Ni  Ni2723  1  0.52939517  0.90813450  0.31840330  1.0
  Ni  Ni2724  1  0.86272850  0.24146783  0.31840330  1.0
  Ni  Ni2725  1  0.86272850  0.57480117  0.31840330  1.0
  Ni  Ni2726  1  0.86272850  0.90813450  0.31840330  1.0
  Ni  Ni2727  1  0.02939517  0.07480117  0.36840330  1.0
  Ni  Ni2728  1  0.02939517  0.40813450  0.36840330  1.0
  Ni  Ni2729  1  0.02939517  0.74146783  0.36840330  1.0
  Ni  Ni2730  1  0.36272850  0.07480117  0.36840330  1.0
  Ni  Ni2731  1  0.36272850  0.40813450  0.36840330  1.0
  Ni  Ni2732  1  0.36272850  0.74146783  0.36840330  1.0
  Ni  Ni2733  1  0.69606183  0.07480117  0.36840330  1.0
  Ni  Ni2734  1  0.69606183  0.40813450  0.36840330  1.0
  Ni  Ni2735  1  0.69606183  0.74146783  0.36840330  1.0
  Ni  Ni2736  1  0.03976733  0.24146783  0.31218000  1.0
  Ni  Ni2737  1  0.03976733  0.57480117  0.31218000  1.0
  Ni  Ni2738  1  0.03976733  0.90813450  0.31218000  1.0
  Ni  Ni2739  1  0.37310067  0.24146783  0.31218000  1.0
  Ni  Ni2740  1  0.37310067  0.57480117  0.31218000  1.0
  Ni  Ni2741  1  0.37310067  0.90813450  0.31218000  1.0
  Ni  Ni2742  1  0.70643400  0.24146783  0.31218000  1.0
  Ni  Ni2743  1  0.70643400  0.57480117  0.31218000  1.0
  Ni  Ni2744  1  0.70643400  0.90813450  0.31218000  1.0
  Ni  Ni2745  1  0.20643400  0.07480117  0.36218000  1.0
  Ni  Ni2746  1  0.20643400  0.40813450  0.36218000  1.0
  Ni  Ni2747  1  0.20643400  0.74146783  0.36218000  1.0
  Ni  Ni2748  1  0.53976733  0.07480117  0.36218000  1.0
  Ni  Ni2749  1  0.53976733  0.40813450  0.36218000  1.0
  Ni  Ni2750  1  0.53976733  0.74146783  0.36218000  1.0
  Ni  Ni2751  1  0.87310067  0.07480117  0.36218000  1.0
  Ni  Ni2752  1  0.87310067  0.40813450  0.36218000  1.0
  Ni  Ni2753  1  0.87310067  0.74146783  0.36218000  1.0
  Ni  Ni2754  1  0.26233083  0.17519883  0.39852260  1.0
  Ni  Ni2755  1  0.26233083  0.50853217  0.39852260  1.0
  Ni  Ni2756  1  0.26233083  0.84186550  0.39852260  1.0
  Ni  Ni2757  1  0.59566417  0.17519883  0.39852260  1.0
  Ni  Ni2758  1  0.59566417  0.50853217  0.39852260  1.0
  Ni  Ni2759  1  0.59566417  0.84186550  0.39852260  1.0
  Ni  Ni2760  1  0.92899750  0.17519883  0.39852260  1.0
  Ni  Ni2761  1  0.92899750  0.50853217  0.39852260  1.0
  Ni  Ni2762  1  0.92899750  0.84186550  0.39852260  1.0
  Ni  Ni2763  1  0.09566417  0.00853217  0.34852260  1.0
  Ni  Ni2764  1  0.09566417  0.34186550  0.34852260  1.0
  Ni  Ni2765  1  0.09566417  0.67519883  0.34852260  1.0
  Ni  Ni2766  1  0.42899750  0.00853217  0.34852260  1.0
  Ni  Ni2767  1  0.42899750  0.34186550  0.34852260  1.0
  Ni  Ni2768  1  0.42899750  0.67519883  0.34852260  1.0
  Ni  Ni2769  1  0.76233083  0.00853217  0.34852260  1.0
  Ni  Ni2770  1  0.76233083  0.34186550  0.34852260  1.0
  Ni  Ni2771  1  0.76233083  0.67519883  0.34852260  1.0
  Ni  Ni2772  1  0.03976733  0.24146783  0.36529165  1.0
  Ni  Ni2773  1  0.03976733  0.57480117  0.36529165  1.0
  Ni  Ni2774  1  0.03976733  0.90813450  0.36529165  1.0
  Ni  Ni2775  1  0.37310067  0.24146783  0.36529165  1.0
  Ni  Ni2776  1  0.37310067  0.57480117  0.36529165  1.0
  Ni  Ni2777  1  0.37310067  0.90813450  0.36529165  1.0
  Ni  Ni2778  1  0.70643400  0.24146783  0.36529165  1.0
  Ni  Ni2779  1  0.70643400  0.57480117  0.36529165  1.0
  Ni  Ni2780  1  0.70643400  0.90813450  0.36529165  1.0
  Ni  Ni2781  1  0.20643400  0.07480117  0.31529165  1.0
  Ni  Ni2782  1  0.20643400  0.40813450  0.31529165  1.0
  Ni  Ni2783  1  0.20643400  0.74146783  0.31529165  1.0
  Ni  Ni2784  1  0.53976733  0.07480117  0.31529165  1.0
  Ni  Ni2785  1  0.53976733  0.40813450  0.31529165  1.0
  Ni  Ni2786  1  0.53976733  0.74146783  0.31529165  1.0
  Ni  Ni2787  1  0.87310067  0.07480117  0.31529165  1.0
  Ni  Ni2788  1  0.87310067  0.40813450  0.31529165  1.0
  Ni  Ni2789  1  0.87310067  0.74146783  0.31529165  1.0
  Ni  Ni2790  1  0.06063033  0.32480117  0.39029165  1.0
  Ni  Ni2791  1  0.06063033  0.65813450  0.39029165  1.0
  Ni  Ni2792  1  0.06063033  0.99146783  0.39029165  1.0
  Ni  Ni2793  1  0.39396367  0.32480117  0.39029165  1.0
  Ni  Ni2794  1  0.39396367  0.65813450  0.39029165  1.0
  Ni  Ni2795  1  0.39396367  0.99146783  0.39029165  1.0
  Ni  Ni2796  1  0.72729700  0.32480117  0.39029165  1.0
  Ni  Ni2797  1  0.72729700  0.65813450  0.39029165  1.0
  Ni  Ni2798  1  0.72729700  0.99146783  0.39029165  1.0
  Ni  Ni2799  1  0.22729700  0.15813450  0.34029165  1.0
  Ni  Ni2800  1  0.22729700  0.49146783  0.34029165  1.0
  Ni  Ni2801  1  0.22729700  0.82480117  0.34029165  1.0
  Ni  Ni2802  1  0.56063033  0.15813450  0.34029165  1.0
  Ni  Ni2803  1  0.56063033  0.49146783  0.34029165  1.0
  Ni  Ni2804  1  0.56063033  0.82480117  0.34029165  1.0
  Ni  Ni2805  1  0.89396367  0.15813450  0.34029165  1.0
  Ni  Ni2806  1  0.89396367  0.49146783  0.34029165  1.0
  Ni  Ni2807  1  0.89396367  0.82480117  0.34029165  1.0
  Ni  Ni2808  1  0.23766917  0.32480117  0.33718000  1.0
  Ni  Ni2809  1  0.23766917  0.65813450  0.33718000  1.0
  Ni  Ni2810  1  0.23766917  0.99146783  0.33718000  1.0
  Ni  Ni2811  1  0.57100250  0.32480117  0.33718000  1.0
  Ni  Ni2812  1  0.57100250  0.65813450  0.33718000  1.0
  Ni  Ni2813  1  0.57100250  0.99146783  0.33718000  1.0
  Ni  Ni2814  1  0.90433583  0.32480117  0.33718000  1.0
  Ni  Ni2815  1  0.90433583  0.65813450  0.33718000  1.0
  Ni  Ni2816  1  0.90433583  0.99146783  0.33718000  1.0
  Ni  Ni2817  1  0.07100250  0.15813450  0.38718000  1.0
  Ni  Ni2818  1  0.07100250  0.49146783  0.38718000  1.0
  Ni  Ni2819  1  0.07100250  0.82480117  0.38718000  1.0
  Ni  Ni2820  1  0.40433583  0.15813450  0.38718000  1.0
  Ni  Ni2821  1  0.40433583  0.49146783  0.38718000  1.0
  Ni  Ni2822  1  0.40433583  0.82480117  0.38718000  1.0
  Ni  Ni2823  1  0.73766917  0.15813450  0.38718000  1.0
  Ni  Ni2824  1  0.73766917  0.49146783  0.38718000  1.0
  Ni  Ni2825  1  0.73766917  0.82480117  0.38718000  1.0
  Ni  Ni2826  1  0.06063033  0.32480117  0.34340330  1.0
  Ni  Ni2827  1  0.06063033  0.65813450  0.34340330  1.0
  Ni  Ni2828  1  0.06063033  0.99146783  0.34340330  1.0
  Ni  Ni2829  1  0.39396367  0.32480117  0.34340330  1.0
  Ni  Ni2830  1  0.39396367  0.65813450  0.34340330  1.0
  Ni  Ni2831  1  0.39396367  0.99146783  0.34340330  1.0
  Ni  Ni2832  1  0.72729700  0.32480117  0.34340330  1.0
  Ni  Ni2833  1  0.72729700  0.65813450  0.34340330  1.0
  Ni  Ni2834  1  0.72729700  0.99146783  0.34340330  1.0
  Ni  Ni2835  1  0.22729700  0.15813450  0.39340330  1.0
  Ni  Ni2836  1  0.22729700  0.49146783  0.39340330  1.0
  Ni  Ni2837  1  0.22729700  0.82480117  0.39340330  1.0
  Ni  Ni2838  1  0.56063033  0.15813450  0.39340330  1.0
  Ni  Ni2839  1  0.56063033  0.49146783  0.39340330  1.0
  Ni  Ni2840  1  0.56063033  0.82480117  0.39340330  1.0
  Ni  Ni2841  1  0.89396367  0.15813450  0.39340330  1.0
  Ni  Ni2842  1  0.89396367  0.49146783  0.39340330  1.0
  Ni  Ni2843  1  0.89396367  0.82480117  0.39340330  1.0
  Ni  Ni2844  1  0.17024833  0.27493033  0.32500000  1.0
  Ni  Ni2845  1  0.17024833  0.60826367  0.32500000  1.0
  Ni  Ni2846  1  0.17024833  0.94159700  0.32500000  1.0
  Ni  Ni2847  1  0.50358167  0.27493033  0.32500000  1.0
  Ni  Ni2848  1  0.50358167  0.60826367  0.32500000  1.0
  Ni  Ni2849  1  0.50358167  0.94159700  0.32500000  1.0
  Ni  Ni2850  1  0.83691500  0.27493033  0.32500000  1.0
  Ni  Ni2851  1  0.83691500  0.60826367  0.32500000  1.0
  Ni  Ni2852  1  0.83691500  0.94159700  0.32500000  1.0
  Ni  Ni2853  1  0.00358167  0.10826367  0.37500000  1.0
  Ni  Ni2854  1  0.00358167  0.44159700  0.37500000  1.0
  Ni  Ni2855  1  0.00358167  0.77493033  0.37500000  1.0
  Ni  Ni2856  1  0.33691500  0.10826367  0.37500000  1.0
  Ni  Ni2857  1  0.33691500  0.44159700  0.37500000  1.0
  Ni  Ni2858  1  0.33691500  0.77493033  0.37500000  1.0
  Ni  Ni2859  1  0.67024833  0.10826367  0.37500000  1.0
  Ni  Ni2860  1  0.67024833  0.44159700  0.37500000  1.0
  Ni  Ni2861  1  0.67024833  0.77493033  0.37500000  1.0
  Ni  Ni2862  1  0.19765900  0.19159700  0.40000000  1.0
  Ni  Ni2863  1  0.19765900  0.52493033  0.40000000  1.0
  Ni  Ni2864  1  0.19765900  0.85826367  0.40000000  1.0
  Ni  Ni2865  1  0.53099233  0.19159700  0.40000000  1.0
  Ni  Ni2866  1  0.53099233  0.52493033  0.40000000  1.0
  Ni  Ni2867  1  0.53099233  0.85826367  0.40000000  1.0
  Ni  Ni2868  1  0.86432567  0.19159700  0.40000000  1.0
  Ni  Ni2869  1  0.86432567  0.52493033  0.40000000  1.0
  Ni  Ni2870  1  0.86432567  0.85826367  0.40000000  1.0
  Ni  Ni2871  1  0.03099233  0.02493033  0.35000000  1.0
  Ni  Ni2872  1  0.03099233  0.35826367  0.35000000  1.0
  Ni  Ni2873  1  0.03099233  0.69159700  0.35000000  1.0
  Ni  Ni2874  1  0.36432567  0.02493033  0.35000000  1.0
  Ni  Ni2875  1  0.36432567  0.35826367  0.35000000  1.0
  Ni  Ni2876  1  0.36432567  0.69159700  0.35000000  1.0
  Ni  Ni2877  1  0.69765900  0.02493033  0.35000000  1.0
  Ni  Ni2878  1  0.69765900  0.35826367  0.35000000  1.0
  Ni  Ni2879  1  0.69765900  0.69159700  0.35000000  1.0
