# generated using pymatgen
data_HfNi3
_symmetry_space_group_name_H-M   'P 1'
_cell_length_a   15.79980585
_cell_length_b   129.43128654
_cell_length_c   36.86621365
_cell_angle_alpha   97.01164066
_cell_angle_beta   120.00000000
_cell_angle_gamma   86.50074867
_symmetry_Int_Tables_number   1
_chemical_formula_structural   HfNi3
_chemical_formula_sum   'Hf540 Ni1620'
_cell_volume   64802.24512136
_cell_formula_units_Z   540
loop_
 _symmetry_equiv_pos_site_id
 _symmetry_equiv_pos_as_xyz
  1  'x, y, z'
loop_
 _atom_site_type_symbol
 _atom_site_label
 _atom_site_symmetry_multiplicity
 _atom_site_fract_x
 _atom_site_fract_y
 _atom_site_fract_z
 _atom_site_occupancy
  Hf  Hf0  1  0.11111111  0.07564217  0.11990210  1.0
  Hf  Hf1  1  0.11111111  0.40897550  0.11990210  1.0
  Hf  Hf2  1  0.11111111  0.74230883  0.11990210  1.0
  Hf  Hf3  1  0.44444444  0.07564217  0.11990210  1.0
  Hf  Hf4  1  0.44444444  0.40897550  0.11990210  1.0
  Hf  Hf5  1  0.44444444  0.74230883  0.11990210  1.0
  Hf  Hf6  1  0.77777778  0.07564217  0.11990210  1.0
  Hf  Hf7  1  0.77777778  0.40897550  0.11990210  1.0
  Hf  Hf8  1  0.77777778  0.74230883  0.11990210  1.0
  Hf  Hf9  1  0.11111111  0.24230883  0.04847352  1.0
  Hf  Hf10  1  0.11111111  0.57564217  0.04847352  1.0
  Hf  Hf11  1  0.11111111  0.90897550  0.04847352  1.0
  Hf  Hf12  1  0.44444444  0.24230883  0.04847352  1.0
  Hf  Hf13  1  0.44444444  0.57564217  0.04847352  1.0
  Hf  Hf14  1  0.44444444  0.90897550  0.04847352  1.0
  Hf  Hf15  1  0.77777778  0.24230883  0.04847352  1.0
  Hf  Hf16  1  0.77777778  0.57564217  0.04847352  1.0
  Hf  Hf17  1  0.77777778  0.90897550  0.04847352  1.0
  Hf  Hf18  1  0.22222222  0.15897550  0.10799733  1.0
  Hf  Hf19  1  0.22222222  0.49230883  0.10799733  1.0
  Hf  Hf20  1  0.22222222  0.82564217  0.10799733  1.0
  Hf  Hf21  1  0.55555556  0.15897550  0.10799733  1.0
  Hf  Hf22  1  0.55555556  0.49230883  0.10799733  1.0
  Hf  Hf23  1  0.55555556  0.82564217  0.10799733  1.0
  Hf  Hf24  1  0.88888889  0.15897550  0.10799733  1.0
  Hf  Hf25  1  0.88888889  0.49230883  0.10799733  1.0
  Hf  Hf26  1  0.88888889  0.82564217  0.10799733  1.0
  Hf  Hf27  1  0.22222222  0.32564217  0.03656876  1.0
  Hf  Hf28  1  0.22222222  0.65897550  0.03656876  1.0
  Hf  Hf29  1  0.22222222  0.99230883  0.03656876  1.0
  Hf  Hf30  1  0.55555556  0.32564217  0.03656876  1.0
  Hf  Hf31  1  0.55555556  0.65897550  0.03656876  1.0
  Hf  Hf32  1  0.55555556  0.99230883  0.03656876  1.0
  Hf  Hf33  1  0.88888889  0.32564217  0.03656876  1.0
  Hf  Hf34  1  0.88888889  0.65897550  0.03656876  1.0
  Hf  Hf35  1  0.88888889  0.99230883  0.03656876  1.0
  Hf  Hf36  1  0.22222222  0.09102450  0.07887548  1.0
  Hf  Hf37  1  0.22222222  0.42435783  0.07887548  1.0
  Hf  Hf38  1  0.22222222  0.75769117  0.07887548  1.0
  Hf  Hf39  1  0.55555556  0.09102450  0.07887548  1.0
  Hf  Hf40  1  0.55555556  0.42435783  0.07887548  1.0
  Hf  Hf41  1  0.55555556  0.75769117  0.07887548  1.0
  Hf  Hf42  1  0.88888889  0.09102450  0.07887548  1.0
  Hf  Hf43  1  0.88888889  0.42435783  0.07887548  1.0
  Hf  Hf44  1  0.88888889  0.75769117  0.07887548  1.0
  Hf  Hf45  1  0.22222222  0.25769117  0.00744690  1.0
  Hf  Hf46  1  0.22222222  0.59102450  0.00744690  1.0
  Hf  Hf47  1  0.22222222  0.92435783  0.00744690  1.0
  Hf  Hf48  1  0.55555556  0.25769117  0.00744690  1.0
  Hf  Hf49  1  0.55555556  0.59102450  0.00744690  1.0
  Hf  Hf50  1  0.55555556  0.92435783  0.00744690  1.0
  Hf  Hf51  1  0.88888889  0.25769117  0.00744690  1.0
  Hf  Hf52  1  0.88888889  0.59102450  0.00744690  1.0
  Hf  Hf53  1  0.88888889  0.92435783  0.00744690  1.0
  Hf  Hf54  1  0.11111111  0.00769117  0.09078024  1.0
  Hf  Hf55  1  0.11111111  0.34102450  0.09078024  1.0
  Hf  Hf56  1  0.11111111  0.67435783  0.09078024  1.0
  Hf  Hf57  1  0.44444444  0.00769117  0.09078024  1.0
  Hf  Hf58  1  0.44444444  0.34102450  0.09078024  1.0
  Hf  Hf59  1  0.44444444  0.67435783  0.09078024  1.0
  Hf  Hf60  1  0.77777778  0.00769117  0.09078024  1.0
  Hf  Hf61  1  0.77777778  0.34102450  0.09078024  1.0
  Hf  Hf62  1  0.77777778  0.67435783  0.09078024  1.0
  Hf  Hf63  1  0.11111111  0.17435783  0.01935167  1.0
  Hf  Hf64  1  0.11111111  0.50769117  0.01935167  1.0
  Hf  Hf65  1  0.11111111  0.84102450  0.01935167  1.0
  Hf  Hf66  1  0.44444444  0.17435783  0.01935167  1.0
  Hf  Hf67  1  0.44444444  0.50769117  0.01935167  1.0
  Hf  Hf68  1  0.44444444  0.84102450  0.01935167  1.0
  Hf  Hf69  1  0.77777778  0.17435783  0.01935167  1.0
  Hf  Hf70  1  0.77777778  0.50769117  0.01935167  1.0
  Hf  Hf71  1  0.77777778  0.84102450  0.01935167  1.0
  Hf  Hf72  1  0.11111111  0.10851117  0.13398881  1.0
  Hf  Hf73  1  0.11111111  0.44184450  0.13398881  1.0
  Hf  Hf74  1  0.11111111  0.77517783  0.13398881  1.0
  Hf  Hf75  1  0.44444444  0.10851117  0.13398881  1.0
  Hf  Hf76  1  0.44444444  0.44184450  0.13398881  1.0
  Hf  Hf77  1  0.44444444  0.77517783  0.13398881  1.0
  Hf  Hf78  1  0.77777778  0.10851117  0.13398881  1.0
  Hf  Hf79  1  0.77777778  0.44184450  0.13398881  1.0
  Hf  Hf80  1  0.77777778  0.77517783  0.13398881  1.0
  Hf  Hf81  1  0.11111111  0.27517783  0.06256024  1.0
  Hf  Hf82  1  0.11111111  0.60851117  0.06256024  1.0
  Hf  Hf83  1  0.11111111  0.94184450  0.06256024  1.0
  Hf  Hf84  1  0.44444444  0.27517783  0.06256024  1.0
  Hf  Hf85  1  0.44444444  0.60851117  0.06256024  1.0
  Hf  Hf86  1  0.44444444  0.94184450  0.06256024  1.0
  Hf  Hf87  1  0.77777778  0.27517783  0.06256024  1.0
  Hf  Hf88  1  0.77777778  0.60851117  0.06256024  1.0
  Hf  Hf89  1  0.77777778  0.94184450  0.06256024  1.0
  Hf  Hf90  1  0.22222222  0.02517783  0.05065548  1.0
  Hf  Hf91  1  0.22222222  0.35851117  0.05065548  1.0
  Hf  Hf92  1  0.22222222  0.69184450  0.05065548  1.0
  Hf  Hf93  1  0.55555556  0.02517783  0.05065548  1.0
  Hf  Hf94  1  0.55555556  0.35851117  0.05065548  1.0
  Hf  Hf95  1  0.55555556  0.69184450  0.05065548  1.0
  Hf  Hf96  1  0.88888889  0.02517783  0.05065548  1.0
  Hf  Hf97  1  0.88888889  0.35851117  0.05065548  1.0
  Hf  Hf98  1  0.88888889  0.69184450  0.05065548  1.0
  Hf  Hf99  1  0.22222222  0.19184450  0.12208405  1.0
  Hf  Hf100  1  0.22222222  0.52517783  0.12208405  1.0
  Hf  Hf101  1  0.22222222  0.85851117  0.12208405  1.0
  Hf  Hf102  1  0.55555556  0.19184450  0.12208405  1.0
  Hf  Hf103  1  0.55555556  0.52517783  0.12208405  1.0
  Hf  Hf104  1  0.55555556  0.85851117  0.12208405  1.0
  Hf  Hf105  1  0.88888889  0.19184450  0.12208405  1.0
  Hf  Hf106  1  0.88888889  0.52517783  0.12208405  1.0
  Hf  Hf107  1  0.88888889  0.85851117  0.12208405  1.0
  Hf  Hf108  1  0.22222222  0.05815550  0.06478876  1.0
  Hf  Hf109  1  0.22222222  0.39148883  0.06478876  1.0
  Hf  Hf110  1  0.22222222  0.72482217  0.06478876  1.0
  Hf  Hf111  1  0.55555556  0.05815550  0.06478876  1.0
  Hf  Hf112  1  0.55555556  0.39148883  0.06478876  1.0
  Hf  Hf113  1  0.55555556  0.72482217  0.06478876  1.0
  Hf  Hf114  1  0.88888889  0.05815550  0.06478876  1.0
  Hf  Hf115  1  0.88888889  0.39148883  0.06478876  1.0
  Hf  Hf116  1  0.88888889  0.72482217  0.06478876  1.0
  Hf  Hf117  1  0.22222222  0.22482217  0.13621733  1.0
  Hf  Hf118  1  0.22222222  0.55815550  0.13621733  1.0
  Hf  Hf119  1  0.22222222  0.89148883  0.13621733  1.0
  Hf  Hf120  1  0.55555556  0.22482217  0.13621733  1.0
  Hf  Hf121  1  0.55555556  0.55815550  0.13621733  1.0
  Hf  Hf122  1  0.55555556  0.89148883  0.13621733  1.0
  Hf  Hf123  1  0.88888889  0.22482217  0.13621733  1.0
  Hf  Hf124  1  0.88888889  0.55815550  0.13621733  1.0
  Hf  Hf125  1  0.88888889  0.89148883  0.13621733  1.0
  Hf  Hf126  1  0.11111111  0.14148883  0.00526495  1.0
  Hf  Hf127  1  0.11111111  0.47482217  0.00526495  1.0
  Hf  Hf128  1  0.11111111  0.80815550  0.00526495  1.0
  Hf  Hf129  1  0.44444444  0.14148883  0.00526495  1.0
  Hf  Hf130  1  0.44444444  0.47482217  0.00526495  1.0
  Hf  Hf131  1  0.44444444  0.80815550  0.00526495  1.0
  Hf  Hf132  1  0.77777778  0.14148883  0.00526495  1.0
  Hf  Hf133  1  0.77777778  0.47482217  0.00526495  1.0
  Hf  Hf134  1  0.77777778  0.80815550  0.00526495  1.0
  Hf  Hf135  1  0.11111111  0.30815550  0.07669352  1.0
  Hf  Hf136  1  0.11111111  0.64148883  0.07669352  1.0
  Hf  Hf137  1  0.11111111  0.97482217  0.07669352  1.0
  Hf  Hf138  1  0.44444444  0.30815550  0.07669352  1.0
  Hf  Hf139  1  0.44444444  0.64148883  0.07669352  1.0
  Hf  Hf140  1  0.44444444  0.97482217  0.07669352  1.0
  Hf  Hf141  1  0.77777778  0.30815550  0.07669352  1.0
  Hf  Hf142  1  0.77777778  0.64148883  0.07669352  1.0
  Hf  Hf143  1  0.77777778  0.97482217  0.07669352  1.0
  Hf  Hf144  1  0.00000000  0.04166667  0.01010307  1.0
  Hf  Hf145  1  0.00000000  0.37500000  0.01010307  1.0
  Hf  Hf146  1  0.00000000  0.70833333  0.01010307  1.0
  Hf  Hf147  1  0.33333333  0.04166667  0.01010307  1.0
  Hf  Hf148  1  0.33333333  0.37500000  0.01010307  1.0
  Hf  Hf149  1  0.33333333  0.70833333  0.01010307  1.0
  Hf  Hf150  1  0.66666667  0.04166667  0.01010307  1.0
  Hf  Hf151  1  0.66666667  0.37500000  0.01010307  1.0
  Hf  Hf152  1  0.66666667  0.70833333  0.01010307  1.0
  Hf  Hf153  1  0.00000000  0.20833333  0.08153164  1.0
  Hf  Hf154  1  0.00000000  0.54166667  0.08153164  1.0
  Hf  Hf155  1  0.00000000  0.87500000  0.08153164  1.0
  Hf  Hf156  1  0.33333333  0.20833333  0.08153164  1.0
  Hf  Hf157  1  0.33333333  0.54166667  0.08153164  1.0
  Hf  Hf158  1  0.33333333  0.87500000  0.08153164  1.0
  Hf  Hf159  1  0.66666667  0.20833333  0.08153164  1.0
  Hf  Hf160  1  0.66666667  0.54166667  0.08153164  1.0
  Hf  Hf161  1  0.66666667  0.87500000  0.08153164  1.0
  Hf  Hf162  1  0.00000000  0.12500000  0.04581736  1.0
  Hf  Hf163  1  0.00000000  0.45833333  0.04581736  1.0
  Hf  Hf164  1  0.00000000  0.79166667  0.04581736  1.0
  Hf  Hf165  1  0.33333333  0.12500000  0.04581736  1.0
  Hf  Hf166  1  0.33333333  0.45833333  0.04581736  1.0
  Hf  Hf167  1  0.33333333  0.79166667  0.04581736  1.0
  Hf  Hf168  1  0.66666667  0.12500000  0.04581736  1.0
  Hf  Hf169  1  0.66666667  0.45833333  0.04581736  1.0
  Hf  Hf170  1  0.66666667  0.79166667  0.04581736  1.0
  Hf  Hf171  1  0.00000000  0.29166667  0.11724593  1.0
  Hf  Hf172  1  0.00000000  0.62500000  0.11724593  1.0
  Hf  Hf173  1  0.00000000  0.95833333  0.11724593  1.0
  Hf  Hf174  1  0.33333333  0.29166667  0.11724593  1.0
  Hf  Hf175  1  0.33333333  0.62500000  0.11724593  1.0
  Hf  Hf176  1  0.33333333  0.95833333  0.11724593  1.0
  Hf  Hf177  1  0.66666667  0.29166667  0.11724593  1.0
  Hf  Hf178  1  0.66666667  0.62500000  0.11724593  1.0
  Hf  Hf179  1  0.66666667  0.95833333  0.11724593  1.0
  Ni  Ni180  1  0.11184533  0.14173633  0.07695693  1.0
  Ni  Ni181  1  0.11184533  0.47506967  0.07695693  1.0
  Ni  Ni182  1  0.11184533  0.80840300  0.07695693  1.0
  Ni  Ni183  1  0.44517867  0.14173633  0.07695693  1.0
  Ni  Ni184  1  0.44517867  0.47506967  0.07695693  1.0
  Ni  Ni185  1  0.44517867  0.80840300  0.07695693  1.0
  Ni  Ni186  1  0.77851200  0.14173633  0.07695693  1.0
  Ni  Ni187  1  0.77851200  0.47506967  0.07695693  1.0
  Ni  Ni188  1  0.77851200  0.80840300  0.07695693  1.0
  Ni  Ni189  1  0.11184533  0.30840300  0.00552836  1.0
  Ni  Ni190  1  0.11184533  0.64173633  0.00552836  1.0
  Ni  Ni191  1  0.11184533  0.97506967  0.00552836  1.0
  Ni  Ni192  1  0.44517867  0.30840300  0.00552836  1.0
  Ni  Ni193  1  0.44517867  0.64173633  0.00552836  1.0
  Ni  Ni194  1  0.44517867  0.97506967  0.00552836  1.0
  Ni  Ni195  1  0.77851200  0.30840300  0.00552836  1.0
  Ni  Ni196  1  0.77851200  0.64173633  0.00552836  1.0
  Ni  Ni197  1  0.77851200  0.97506967  0.00552836  1.0
  Ni  Ni198  1  0.27741067  0.14173633  0.00505636  1.0
  Ni  Ni199  1  0.27741067  0.47506967  0.00505636  1.0
  Ni  Ni200  1  0.27741067  0.80840300  0.00505636  1.0
  Ni  Ni201  1  0.61074400  0.14173633  0.00505636  1.0
  Ni  Ni202  1  0.61074400  0.47506967  0.00505636  1.0
  Ni  Ni203  1  0.61074400  0.80840300  0.00505636  1.0
  Ni  Ni204  1  0.94407733  0.14173633  0.00505636  1.0
  Ni  Ni205  1  0.94407733  0.47506967  0.00505636  1.0
  Ni  Ni206  1  0.94407733  0.80840300  0.00505636  1.0
  Ni  Ni207  1  0.27741067  0.30840300  0.07648493  1.0
  Ni  Ni208  1  0.27741067  0.64173633  0.07648493  1.0
  Ni  Ni209  1  0.27741067  0.97506967  0.07648493  1.0
  Ni  Ni210  1  0.61074400  0.30840300  0.07648493  1.0
  Ni  Ni211  1  0.61074400  0.64173633  0.07648493  1.0
  Ni  Ni212  1  0.61074400  0.97506967  0.07648493  1.0
  Ni  Ni213  1  0.94407733  0.30840300  0.07648493  1.0
  Ni  Ni214  1  0.94407733  0.64173633  0.07648493  1.0
  Ni  Ni215  1  0.94407733  0.97506967  0.07648493  1.0
  Ni  Ni216  1  0.27741067  0.14173633  0.07695693  1.0
  Ni  Ni217  1  0.27741067  0.47506967  0.07695693  1.0
  Ni  Ni218  1  0.27741067  0.80840300  0.07695693  1.0
  Ni  Ni219  1  0.61074400  0.14173633  0.07695693  1.0
  Ni  Ni220  1  0.61074400  0.47506967  0.07695693  1.0
  Ni  Ni221  1  0.61074400  0.80840300  0.07695693  1.0
  Ni  Ni222  1  0.94407733  0.14173633  0.07695693  1.0
  Ni  Ni223  1  0.94407733  0.47506967  0.07695693  1.0
  Ni  Ni224  1  0.94407733  0.80840300  0.07695693  1.0
  Ni  Ni225  1  0.27741067  0.30840300  0.00552836  1.0
  Ni  Ni226  1  0.27741067  0.64173633  0.00552836  1.0
  Ni  Ni227  1  0.27741067  0.97506967  0.00552836  1.0
  Ni  Ni228  1  0.61074400  0.30840300  0.00552836  1.0
  Ni  Ni229  1  0.61074400  0.64173633  0.00552836  1.0
  Ni  Ni230  1  0.61074400  0.97506967  0.00552836  1.0
  Ni  Ni231  1  0.94407733  0.30840300  0.00552836  1.0
  Ni  Ni232  1  0.94407733  0.64173633  0.00552836  1.0
  Ni  Ni233  1  0.94407733  0.97506967  0.00552836  1.0
  Ni  Ni234  1  0.05592267  0.05840300  0.13616607  1.0
  Ni  Ni235  1  0.05592267  0.39173633  0.13616607  1.0
  Ni  Ni236  1  0.05592267  0.72506967  0.13616607  1.0
  Ni  Ni237  1  0.38925600  0.05840300  0.13616607  1.0
  Ni  Ni238  1  0.38925600  0.39173633  0.13616607  1.0
  Ni  Ni239  1  0.38925600  0.72506967  0.13616607  1.0
  Ni  Ni240  1  0.72258933  0.05840300  0.13616607  1.0
  Ni  Ni241  1  0.72258933  0.39173633  0.13616607  1.0
  Ni  Ni242  1  0.72258933  0.72506967  0.13616607  1.0
  Ni  Ni243  1  0.05592267  0.22506967  0.06473750  1.0
  Ni  Ni244  1  0.05592267  0.55840300  0.06473750  1.0
  Ni  Ni245  1  0.05592267  0.89173633  0.06473750  1.0
  Ni  Ni246  1  0.38925600  0.22506967  0.06473750  1.0
  Ni  Ni247  1  0.38925600  0.55840300  0.06473750  1.0
  Ni  Ni248  1  0.38925600  0.89173633  0.06473750  1.0
  Ni  Ni249  1  0.72258933  0.22506967  0.06473750  1.0
  Ni  Ni250  1  0.72258933  0.55840300  0.06473750  1.0
  Ni  Ni251  1  0.72258933  0.89173633  0.06473750  1.0
  Ni  Ni252  1  0.05592267  0.02493033  0.05086407  1.0
  Ni  Ni253  1  0.05592267  0.35826367  0.05086407  1.0
  Ni  Ni254  1  0.05592267  0.69159700  0.05086407  1.0
  Ni  Ni255  1  0.38925600  0.02493033  0.05086407  1.0
  Ni  Ni256  1  0.38925600  0.35826367  0.05086407  1.0
  Ni  Ni257  1  0.38925600  0.69159700  0.05086407  1.0
  Ni  Ni258  1  0.72258933  0.02493033  0.05086407  1.0
  Ni  Ni259  1  0.72258933  0.35826367  0.05086407  1.0
  Ni  Ni260  1  0.72258933  0.69159700  0.05086407  1.0
  Ni  Ni261  1  0.05592267  0.19159700  0.12229264  1.0
  Ni  Ni262  1  0.05592267  0.52493033  0.12229264  1.0
  Ni  Ni263  1  0.05592267  0.85826367  0.12229264  1.0
  Ni  Ni264  1  0.38925600  0.19159700  0.12229264  1.0
  Ni  Ni265  1  0.38925600  0.52493033  0.12229264  1.0
  Ni  Ni266  1  0.38925600  0.85826367  0.12229264  1.0
  Ni  Ni267  1  0.72258933  0.19159700  0.12229264  1.0
  Ni  Ni268  1  0.72258933  0.52493033  0.12229264  1.0
  Ni  Ni269  1  0.72258933  0.85826367  0.12229264  1.0
  Ni  Ni270  1  0.22148800  0.05840300  0.13616607  1.0
  Ni  Ni271  1  0.22148800  0.39173633  0.13616607  1.0
  Ni  Ni272  1  0.22148800  0.72506967  0.13616607  1.0
  Ni  Ni273  1  0.55482133  0.05840300  0.13616607  1.0
  Ni  Ni274  1  0.55482133  0.39173633  0.13616607  1.0
  Ni  Ni275  1  0.55482133  0.72506967  0.13616607  1.0
  Ni  Ni276  1  0.88815467  0.05840300  0.13616607  1.0
  Ni  Ni277  1  0.88815467  0.39173633  0.13616607  1.0
  Ni  Ni278  1  0.88815467  0.72506967  0.13616607  1.0
  Ni  Ni279  1  0.22148800  0.22506967  0.06473750  1.0
  Ni  Ni280  1  0.22148800  0.55840300  0.06473750  1.0
  Ni  Ni281  1  0.22148800  0.89173633  0.06473750  1.0
  Ni  Ni282  1  0.55482133  0.22506967  0.06473750  1.0
  Ni  Ni283  1  0.55482133  0.55840300  0.06473750  1.0
  Ni  Ni284  1  0.55482133  0.89173633  0.06473750  1.0
  Ni  Ni285  1  0.88815467  0.22506967  0.06473750  1.0
  Ni  Ni286  1  0.88815467  0.55840300  0.06473750  1.0
  Ni  Ni287  1  0.88815467  0.89173633  0.06473750  1.0
  Ni  Ni288  1  0.05592267  0.05840300  0.06520950  1.0
  Ni  Ni289  1  0.05592267  0.39173633  0.06520950  1.0
  Ni  Ni290  1  0.05592267  0.72506967  0.06520950  1.0
  Ni  Ni291  1  0.38925600  0.05840300  0.06520950  1.0
  Ni  Ni292  1  0.38925600  0.39173633  0.06520950  1.0
  Ni  Ni293  1  0.38925600  0.72506967  0.06520950  1.0
  Ni  Ni294  1  0.72258933  0.05840300  0.06520950  1.0
  Ni  Ni295  1  0.72258933  0.39173633  0.06520950  1.0
  Ni  Ni296  1  0.72258933  0.72506967  0.06520950  1.0
  Ni  Ni297  1  0.05592267  0.22506967  0.13663807  1.0
  Ni  Ni298  1  0.05592267  0.55840300  0.13663807  1.0
  Ni  Ni299  1  0.05592267  0.89173633  0.13663807  1.0
  Ni  Ni300  1  0.38925600  0.22506967  0.13663807  1.0
  Ni  Ni301  1  0.38925600  0.55840300  0.13663807  1.0
  Ni  Ni302  1  0.38925600  0.89173633  0.13663807  1.0
  Ni  Ni303  1  0.72258933  0.22506967  0.13663807  1.0
  Ni  Ni304  1  0.72258933  0.55840300  0.13663807  1.0
  Ni  Ni305  1  0.72258933  0.89173633  0.13663807  1.0
  Ni  Ni306  1  0.11184533  0.10826367  0.06261150  1.0
  Ni  Ni307  1  0.11184533  0.44159700  0.06261150  1.0
  Ni  Ni308  1  0.11184533  0.77493033  0.06261150  1.0
  Ni  Ni309  1  0.44517867  0.10826367  0.06261150  1.0
  Ni  Ni310  1  0.44517867  0.44159700  0.06261150  1.0
  Ni  Ni311  1  0.44517867  0.77493033  0.06261150  1.0
  Ni  Ni312  1  0.77851200  0.10826367  0.06261150  1.0
  Ni  Ni313  1  0.77851200  0.44159700  0.06261150  1.0
  Ni  Ni314  1  0.77851200  0.77493033  0.06261150  1.0
  Ni  Ni315  1  0.11184533  0.27493033  0.13404007  1.0
  Ni  Ni316  1  0.11184533  0.60826367  0.13404007  1.0
  Ni  Ni317  1  0.11184533  0.94159700  0.13404007  1.0
  Ni  Ni318  1  0.44517867  0.27493033  0.13404007  1.0
  Ni  Ni319  1  0.44517867  0.60826367  0.13404007  1.0
  Ni  Ni320  1  0.44517867  0.94159700  0.13404007  1.0
  Ni  Ni321  1  0.77851200  0.27493033  0.13404007  1.0
  Ni  Ni322  1  0.77851200  0.60826367  0.13404007  1.0
  Ni  Ni323  1  0.77851200  0.94159700  0.13404007  1.0
  Ni  Ni324  1  0.27741067  0.10826367  0.06261150  1.0
  Ni  Ni325  1  0.27741067  0.44159700  0.06261150  1.0
  Ni  Ni326  1  0.27741067  0.77493033  0.06261150  1.0
  Ni  Ni327  1  0.61074400  0.10826367  0.06261150  1.0
  Ni  Ni328  1  0.61074400  0.44159700  0.06261150  1.0
  Ni  Ni329  1  0.61074400  0.77493033  0.06261150  1.0
  Ni  Ni330  1  0.94407733  0.10826367  0.06261150  1.0
  Ni  Ni331  1  0.94407733  0.44159700  0.06261150  1.0
  Ni  Ni332  1  0.94407733  0.77493033  0.06261150  1.0
  Ni  Ni333  1  0.27741067  0.27493033  0.13404007  1.0
  Ni  Ni334  1  0.27741067  0.60826367  0.13404007  1.0
  Ni  Ni335  1  0.27741067  0.94159700  0.13404007  1.0
  Ni  Ni336  1  0.61074400  0.27493033  0.13404007  1.0
  Ni  Ni337  1  0.61074400  0.60826367  0.13404007  1.0
  Ni  Ni338  1  0.61074400  0.94159700  0.13404007  1.0
  Ni  Ni339  1  0.94407733  0.27493033  0.13404007  1.0
  Ni  Ni340  1  0.94407733  0.60826367  0.13404007  1.0
  Ni  Ni341  1  0.94407733  0.94159700  0.13404007  1.0
  Ni  Ni342  1  0.05592267  0.02493033  0.12182064  1.0
  Ni  Ni343  1  0.05592267  0.35826367  0.12182064  1.0
  Ni  Ni344  1  0.05592267  0.69159700  0.12182064  1.0
  Ni  Ni345  1  0.38925600  0.02493033  0.12182064  1.0
  Ni  Ni346  1  0.38925600  0.35826367  0.12182064  1.0
  Ni  Ni347  1  0.38925600  0.69159700  0.12182064  1.0
  Ni  Ni348  1  0.72258933  0.02493033  0.12182064  1.0
  Ni  Ni349  1  0.72258933  0.35826367  0.12182064  1.0
  Ni  Ni350  1  0.72258933  0.69159700  0.12182064  1.0
  Ni  Ni351  1  0.05592267  0.19159700  0.05039207  1.0
  Ni  Ni352  1  0.05592267  0.52493033  0.05039207  1.0
  Ni  Ni353  1  0.05592267  0.85826367  0.05039207  1.0
  Ni  Ni354  1  0.38925600  0.19159700  0.05039207  1.0
  Ni  Ni355  1  0.38925600  0.52493033  0.05039207  1.0
  Ni  Ni356  1  0.38925600  0.85826367  0.05039207  1.0
  Ni  Ni357  1  0.72258933  0.19159700  0.05039207  1.0
  Ni  Ni358  1  0.72258933  0.52493033  0.05039207  1.0
  Ni  Ni359  1  0.72258933  0.85826367  0.05039207  1.0
  Ni  Ni360  1  0.17021750  0.12500000  0.04886093  1.0
  Ni  Ni361  1  0.17021750  0.45833333  0.04886093  1.0
  Ni  Ni362  1  0.17021750  0.79166667  0.04886093  1.0
  Ni  Ni363  1  0.50355083  0.12500000  0.04886093  1.0
  Ni  Ni364  1  0.50355083  0.45833333  0.04886093  1.0
  Ni  Ni365  1  0.50355083  0.79166667  0.04886093  1.0
  Ni  Ni366  1  0.83688417  0.12500000  0.04886093  1.0
  Ni  Ni367  1  0.83688417  0.45833333  0.04886093  1.0
  Ni  Ni368  1  0.83688417  0.79166667  0.04886093  1.0
  Ni  Ni369  1  0.17021750  0.29166667  0.12028950  1.0
  Ni  Ni370  1  0.17021750  0.62500000  0.12028950  1.0
  Ni  Ni371  1  0.17021750  0.95833333  0.12028950  1.0
  Ni  Ni372  1  0.50355083  0.29166667  0.12028950  1.0
  Ni  Ni373  1  0.50355083  0.62500000  0.12028950  1.0
  Ni  Ni374  1  0.50355083  0.95833333  0.12028950  1.0
  Ni  Ni375  1  0.83688417  0.29166667  0.12028950  1.0
  Ni  Ni376  1  0.83688417  0.62500000  0.12028950  1.0
  Ni  Ni377  1  0.83688417  0.95833333  0.12028950  1.0
  Ni  Ni378  1  0.00710167  0.04166667  0.08305343  1.0
  Ni  Ni379  1  0.00710167  0.37500000  0.08305343  1.0
  Ni  Ni380  1  0.00710167  0.70833333  0.08305343  1.0
  Ni  Ni381  1  0.34043500  0.04166667  0.08305343  1.0
  Ni  Ni382  1  0.34043500  0.37500000  0.08305343  1.0
  Ni  Ni383  1  0.34043500  0.70833333  0.08305343  1.0
  Ni  Ni384  1  0.67376833  0.04166667  0.08305343  1.0
  Ni  Ni385  1  0.67376833  0.37500000  0.08305343  1.0
  Ni  Ni386  1  0.67376833  0.70833333  0.08305343  1.0
  Ni  Ni387  1  0.00710167  0.20833333  0.01162486  1.0
  Ni  Ni388  1  0.00710167  0.54166667  0.01162486  1.0
  Ni  Ni389  1  0.00710167  0.87500000  0.01162486  1.0
  Ni  Ni390  1  0.34043500  0.20833333  0.01162486  1.0
  Ni  Ni391  1  0.34043500  0.54166667  0.01162486  1.0
  Ni  Ni392  1  0.34043500  0.87500000  0.01162486  1.0
  Ni  Ni393  1  0.67376833  0.20833333  0.01162486  1.0
  Ni  Ni394  1  0.67376833  0.54166667  0.01162486  1.0
  Ni  Ni395  1  0.67376833  0.87500000  0.01162486  1.0
  Ni  Ni396  1  0.16311583  0.04166667  0.08305343  1.0
  Ni  Ni397  1  0.16311583  0.37500000  0.08305343  1.0
  Ni  Ni398  1  0.16311583  0.70833333  0.08305343  1.0
  Ni  Ni399  1  0.49644917  0.04166667  0.08305343  1.0
  Ni  Ni400  1  0.49644917  0.37500000  0.08305343  1.0
  Ni  Ni401  1  0.49644917  0.70833333  0.08305343  1.0
  Ni  Ni402  1  0.82978250  0.04166667  0.08305343  1.0
  Ni  Ni403  1  0.82978250  0.37500000  0.08305343  1.0
  Ni  Ni404  1  0.82978250  0.70833333  0.08305343  1.0
  Ni  Ni405  1  0.16311583  0.20833333  0.01162486  1.0
  Ni  Ni406  1  0.16311583  0.54166667  0.01162486  1.0
  Ni  Ni407  1  0.16311583  0.87500000  0.01162486  1.0
  Ni  Ni408  1  0.49644917  0.20833333  0.01162486  1.0
  Ni  Ni409  1  0.49644917  0.54166667  0.01162486  1.0
  Ni  Ni410  1  0.49644917  0.87500000  0.01162486  1.0
  Ni  Ni411  1  0.82978250  0.20833333  0.01162486  1.0
  Ni  Ni412  1  0.82978250  0.54166667  0.01162486  1.0
  Ni  Ni413  1  0.82978250  0.87500000  0.01162486  1.0
  Ni  Ni414  1  0.17021750  0.12500000  0.11572414  1.0
  Ni  Ni415  1  0.17021750  0.45833333  0.11572414  1.0
  Ni  Ni416  1  0.17021750  0.79166667  0.11572414  1.0
  Ni  Ni417  1  0.50355083  0.12500000  0.11572414  1.0
  Ni  Ni418  1  0.50355083  0.45833333  0.11572414  1.0
  Ni  Ni419  1  0.50355083  0.79166667  0.11572414  1.0
  Ni  Ni420  1  0.83688417  0.12500000  0.11572414  1.0
  Ni  Ni421  1  0.83688417  0.45833333  0.11572414  1.0
  Ni  Ni422  1  0.83688417  0.79166667  0.11572414  1.0
  Ni  Ni423  1  0.17021750  0.29166667  0.04429557  1.0
  Ni  Ni424  1  0.17021750  0.62500000  0.04429557  1.0
  Ni  Ni425  1  0.17021750  0.95833333  0.04429557  1.0
  Ni  Ni426  1  0.50355083  0.29166667  0.04429557  1.0
  Ni  Ni427  1  0.50355083  0.62500000  0.04429557  1.0
  Ni  Ni428  1  0.50355083  0.95833333  0.04429557  1.0
  Ni  Ni429  1  0.83688417  0.29166667  0.04429557  1.0
  Ni  Ni430  1  0.83688417  0.62500000  0.04429557  1.0
  Ni  Ni431  1  0.83688417  0.95833333  0.04429557  1.0
  Ni  Ni432  1  0.32623167  0.12500000  0.11572414  1.0
  Ni  Ni433  1  0.32623167  0.45833333  0.11572414  1.0
  Ni  Ni434  1  0.32623167  0.79166667  0.11572414  1.0
  Ni  Ni435  1  0.65956500  0.12500000  0.11572414  1.0
  Ni  Ni436  1  0.65956500  0.45833333  0.11572414  1.0
  Ni  Ni437  1  0.65956500  0.79166667  0.11572414  1.0
  Ni  Ni438  1  0.99289833  0.12500000  0.11572414  1.0
  Ni  Ni439  1  0.99289833  0.45833333  0.11572414  1.0
  Ni  Ni440  1  0.99289833  0.79166667  0.11572414  1.0
  Ni  Ni441  1  0.32623167  0.29166667  0.04429557  1.0
  Ni  Ni442  1  0.32623167  0.62500000  0.04429557  1.0
  Ni  Ni443  1  0.32623167  0.95833333  0.04429557  1.0
  Ni  Ni444  1  0.65956500  0.29166667  0.04429557  1.0
  Ni  Ni445  1  0.65956500  0.62500000  0.04429557  1.0
  Ni  Ni446  1  0.65956500  0.95833333  0.04429557  1.0
  Ni  Ni447  1  0.99289833  0.29166667  0.04429557  1.0
  Ni  Ni448  1  0.99289833  0.62500000  0.04429557  1.0
  Ni  Ni449  1  0.99289833  0.95833333  0.04429557  1.0
  Ni  Ni450  1  0.16311583  0.04166667  0.00705950  1.0
  Ni  Ni451  1  0.16311583  0.37500000  0.00705950  1.0
  Ni  Ni452  1  0.16311583  0.70833333  0.00705950  1.0
  Ni  Ni453  1  0.49644917  0.04166667  0.00705950  1.0
  Ni  Ni454  1  0.49644917  0.37500000  0.00705950  1.0
  Ni  Ni455  1  0.49644917  0.70833333  0.00705950  1.0
  Ni  Ni456  1  0.82978250  0.04166667  0.00705950  1.0
  Ni  Ni457  1  0.82978250  0.37500000  0.00705950  1.0
  Ni  Ni458  1  0.82978250  0.70833333  0.00705950  1.0
  Ni  Ni459  1  0.16311583  0.20833333  0.07848807  1.0
  Ni  Ni460  1  0.16311583  0.54166667  0.07848807  1.0
  Ni  Ni461  1  0.16311583  0.87500000  0.07848807  1.0
  Ni  Ni462  1  0.49644917  0.20833333  0.07848807  1.0
  Ni  Ni463  1  0.49644917  0.54166667  0.07848807  1.0
  Ni  Ni464  1  0.49644917  0.87500000  0.07848807  1.0
  Ni  Ni465  1  0.82978250  0.20833333  0.07848807  1.0
  Ni  Ni466  1  0.82978250  0.54166667  0.07848807  1.0
  Ni  Ni467  1  0.82978250  0.87500000  0.07848807  1.0
  Ni  Ni468  1  0.05209817  0.09186550  0.07627243  1.0
  Ni  Ni469  1  0.05209817  0.42519883  0.07627243  1.0
  Ni  Ni470  1  0.05209817  0.75853217  0.07627243  1.0
  Ni  Ni471  1  0.38543150  0.09186550  0.07627243  1.0
  Ni  Ni472  1  0.38543150  0.42519883  0.07627243  1.0
  Ni  Ni473  1  0.38543150  0.75853217  0.07627243  1.0
  Ni  Ni474  1  0.71876483  0.09186550  0.07627243  1.0
  Ni  Ni475  1  0.71876483  0.42519883  0.07627243  1.0
  Ni  Ni476  1  0.71876483  0.75853217  0.07627243  1.0
  Ni  Ni477  1  0.05209817  0.25853217  0.00484386  1.0
  Ni  Ni478  1  0.05209817  0.59186550  0.00484386  1.0
  Ni  Ni479  1  0.05209817  0.92519883  0.00484386  1.0
  Ni  Ni480  1  0.38543150  0.25853217  0.00484386  1.0
  Ni  Ni481  1  0.38543150  0.59186550  0.00484386  1.0
  Ni  Ni482  1  0.38543150  0.92519883  0.00484386  1.0
  Ni  Ni483  1  0.71876483  0.25853217  0.00484386  1.0
  Ni  Ni484  1  0.71876483  0.59186550  0.00484386  1.0
  Ni  Ni485  1  0.71876483  0.92519883  0.00484386  1.0
  Ni  Ni486  1  0.10419633  0.00853217  0.01823036  1.0
  Ni  Ni487  1  0.10419633  0.34186550  0.01823036  1.0
  Ni  Ni488  1  0.10419633  0.67519883  0.01823036  1.0
  Ni  Ni489  1  0.43752967  0.00853217  0.01823036  1.0
  Ni  Ni490  1  0.43752967  0.34186550  0.01823036  1.0
  Ni  Ni491  1  0.43752967  0.67519883  0.01823036  1.0
  Ni  Ni492  1  0.77086300  0.00853217  0.01823036  1.0
  Ni  Ni493  1  0.77086300  0.34186550  0.01823036  1.0
  Ni  Ni494  1  0.77086300  0.67519883  0.01823036  1.0
  Ni  Ni495  1  0.10419633  0.17519883  0.08965893  1.0
  Ni  Ni496  1  0.10419633  0.50853217  0.08965893  1.0
  Ni  Ni497  1  0.10419633  0.84186550  0.08965893  1.0
  Ni  Ni498  1  0.43752967  0.17519883  0.08965893  1.0
  Ni  Ni499  1  0.43752967  0.50853217  0.08965893  1.0
  Ni  Ni500  1  0.43752967  0.84186550  0.08965893  1.0
  Ni  Ni501  1  0.77086300  0.17519883  0.08965893  1.0
  Ni  Ni502  1  0.77086300  0.50853217  0.08965893  1.0
  Ni  Ni503  1  0.77086300  0.84186550  0.08965893  1.0
  Ni  Ni504  1  0.28123517  0.00853217  0.01823036  1.0
  Ni  Ni505  1  0.28123517  0.34186550  0.01823036  1.0
  Ni  Ni506  1  0.28123517  0.67519883  0.01823036  1.0
  Ni  Ni507  1  0.61456850  0.00853217  0.01823036  1.0
  Ni  Ni508  1  0.61456850  0.34186550  0.01823036  1.0
  Ni  Ni509  1  0.61456850  0.67519883  0.01823036  1.0
  Ni  Ni510  1  0.94790183  0.00853217  0.01823036  1.0
  Ni  Ni511  1  0.94790183  0.34186550  0.01823036  1.0
  Ni  Ni512  1  0.94790183  0.67519883  0.01823036  1.0
  Ni  Ni513  1  0.28123517  0.17519883  0.08965893  1.0
  Ni  Ni514  1  0.28123517  0.50853217  0.08965893  1.0
  Ni  Ni515  1  0.28123517  0.84186550  0.08965893  1.0
  Ni  Ni516  1  0.61456850  0.17519883  0.08965893  1.0
  Ni  Ni517  1  0.61456850  0.50853217  0.08965893  1.0
  Ni  Ni518  1  0.61456850  0.84186550  0.08965893  1.0
  Ni  Ni519  1  0.94790183  0.17519883  0.08965893  1.0
  Ni  Ni520  1  0.94790183  0.50853217  0.08965893  1.0
  Ni  Ni521  1  0.94790183  0.84186550  0.08965893  1.0
  Ni  Ni522  1  0.05209817  0.09186550  0.00928907  1.0
  Ni  Ni523  1  0.05209817  0.42519883  0.00928907  1.0
  Ni  Ni524  1  0.05209817  0.75853217  0.00928907  1.0
  Ni  Ni525  1  0.38543150  0.09186550  0.00928907  1.0
  Ni  Ni526  1  0.38543150  0.42519883  0.00928907  1.0
  Ni  Ni527  1  0.38543150  0.75853217  0.00928907  1.0
  Ni  Ni528  1  0.71876483  0.09186550  0.00928907  1.0
  Ni  Ni529  1  0.71876483  0.42519883  0.00928907  1.0
  Ni  Ni530  1  0.71876483  0.75853217  0.00928907  1.0
  Ni  Ni531  1  0.05209817  0.25853217  0.08071764  1.0
  Ni  Ni532  1  0.05209817  0.59186550  0.08071764  1.0
  Ni  Ni533  1  0.05209817  0.92519883  0.08071764  1.0
  Ni  Ni534  1  0.38543150  0.25853217  0.08071764  1.0
  Ni  Ni535  1  0.38543150  0.59186550  0.08071764  1.0
  Ni  Ni536  1  0.38543150  0.92519883  0.08071764  1.0
  Ni  Ni537  1  0.71876483  0.25853217  0.08071764  1.0
  Ni  Ni538  1  0.71876483  0.59186550  0.08071764  1.0
  Ni  Ni539  1  0.71876483  0.92519883  0.08071764  1.0
  Ni  Ni540  1  0.22913700  0.09186550  0.00928907  1.0
  Ni  Ni541  1  0.22913700  0.42519883  0.00928907  1.0
  Ni  Ni542  1  0.22913700  0.75853217  0.00928907  1.0
  Ni  Ni543  1  0.56247033  0.09186550  0.00928907  1.0
  Ni  Ni544  1  0.56247033  0.42519883  0.00928907  1.0
  Ni  Ni545  1  0.56247033  0.75853217  0.00928907  1.0
  Ni  Ni546  1  0.89580367  0.09186550  0.00928907  1.0
  Ni  Ni547  1  0.89580367  0.42519883  0.00928907  1.0
  Ni  Ni548  1  0.89580367  0.75853217  0.00928907  1.0
  Ni  Ni549  1  0.22913700  0.25853217  0.08071764  1.0
  Ni  Ni550  1  0.22913700  0.59186550  0.08071764  1.0
  Ni  Ni551  1  0.22913700  0.92519883  0.08071764  1.0
  Ni  Ni552  1  0.56247033  0.25853217  0.08071764  1.0
  Ni  Ni553  1  0.56247033  0.59186550  0.08071764  1.0
  Ni  Ni554  1  0.56247033  0.92519883  0.08071764  1.0
  Ni  Ni555  1  0.89580367  0.25853217  0.08071764  1.0
  Ni  Ni556  1  0.89580367  0.59186550  0.08071764  1.0
  Ni  Ni557  1  0.89580367  0.92519883  0.08071764  1.0
  Ni  Ni558  1  0.28123517  0.07480117  0.12250514  1.0
  Ni  Ni559  1  0.28123517  0.40813450  0.12250514  1.0
  Ni  Ni560  1  0.28123517  0.74146783  0.12250514  1.0
  Ni  Ni561  1  0.61456850  0.07480117  0.12250514  1.0
  Ni  Ni562  1  0.61456850  0.40813450  0.12250514  1.0
  Ni  Ni563  1  0.61456850  0.74146783  0.12250514  1.0
  Ni  Ni564  1  0.94790183  0.07480117  0.12250514  1.0
  Ni  Ni565  1  0.94790183  0.40813450  0.12250514  1.0
  Ni  Ni566  1  0.94790183  0.74146783  0.12250514  1.0
  Ni  Ni567  1  0.28123517  0.24146783  0.05107657  1.0
  Ni  Ni568  1  0.28123517  0.57480117  0.05107657  1.0
  Ni  Ni569  1  0.28123517  0.90813450  0.05107657  1.0
  Ni  Ni570  1  0.61456850  0.24146783  0.05107657  1.0
  Ni  Ni571  1  0.61456850  0.57480117  0.05107657  1.0
  Ni  Ni572  1  0.61456850  0.90813450  0.05107657  1.0
  Ni  Ni573  1  0.94790183  0.24146783  0.05107657  1.0
  Ni  Ni574  1  0.94790183  0.57480117  0.05107657  1.0
  Ni  Ni575  1  0.94790183  0.90813450  0.05107657  1.0
  Ni  Ni576  1  0.10419633  0.07480117  0.04663136  1.0
  Ni  Ni577  1  0.10419633  0.40813450  0.04663136  1.0
  Ni  Ni578  1  0.10419633  0.74146783  0.04663136  1.0
  Ni  Ni579  1  0.43752967  0.07480117  0.04663136  1.0
  Ni  Ni580  1  0.43752967  0.40813450  0.04663136  1.0
  Ni  Ni581  1  0.43752967  0.74146783  0.04663136  1.0
  Ni  Ni582  1  0.77086300  0.07480117  0.04663136  1.0
  Ni  Ni583  1  0.77086300  0.40813450  0.04663136  1.0
  Ni  Ni584  1  0.77086300  0.74146783  0.04663136  1.0
  Ni  Ni585  1  0.10419633  0.24146783  0.11805993  1.0
  Ni  Ni586  1  0.10419633  0.57480117  0.11805993  1.0
  Ni  Ni587  1  0.10419633  0.90813450  0.11805993  1.0
  Ni  Ni588  1  0.43752967  0.24146783  0.11805993  1.0
  Ni  Ni589  1  0.43752967  0.57480117  0.11805993  1.0
  Ni  Ni590  1  0.43752967  0.90813450  0.11805993  1.0
  Ni  Ni591  1  0.77086300  0.24146783  0.11805993  1.0
  Ni  Ni592  1  0.77086300  0.57480117  0.11805993  1.0
  Ni  Ni593  1  0.77086300  0.90813450  0.11805993  1.0
  Ni  Ni594  1  0.28123517  0.00853217  0.09410414  1.0
  Ni  Ni595  1  0.28123517  0.34186550  0.09410414  1.0
  Ni  Ni596  1  0.28123517  0.67519883  0.09410414  1.0
  Ni  Ni597  1  0.61456850  0.00853217  0.09410414  1.0
  Ni  Ni598  1  0.61456850  0.34186550  0.09410414  1.0
  Ni  Ni599  1  0.61456850  0.67519883  0.09410414  1.0
  Ni  Ni600  1  0.94790183  0.00853217  0.09410414  1.0
  Ni  Ni601  1  0.94790183  0.34186550  0.09410414  1.0
  Ni  Ni602  1  0.94790183  0.67519883  0.09410414  1.0
  Ni  Ni603  1  0.28123517  0.17519883  0.02267557  1.0
  Ni  Ni604  1  0.28123517  0.50853217  0.02267557  1.0
  Ni  Ni605  1  0.28123517  0.84186550  0.02267557  1.0
  Ni  Ni606  1  0.61456850  0.17519883  0.02267557  1.0
  Ni  Ni607  1  0.61456850  0.50853217  0.02267557  1.0
  Ni  Ni608  1  0.61456850  0.84186550  0.02267557  1.0
  Ni  Ni609  1  0.94790183  0.17519883  0.02267557  1.0
  Ni  Ni610  1  0.94790183  0.50853217  0.02267557  1.0
  Ni  Ni611  1  0.94790183  0.84186550  0.02267557  1.0
  Ni  Ni612  1  0.28123517  0.07480117  0.04663136  1.0
  Ni  Ni613  1  0.28123517  0.40813450  0.04663136  1.0
  Ni  Ni614  1  0.28123517  0.74146783  0.04663136  1.0
  Ni  Ni615  1  0.61456850  0.07480117  0.04663136  1.0
  Ni  Ni616  1  0.61456850  0.40813450  0.04663136  1.0
  Ni  Ni617  1  0.61456850  0.74146783  0.04663136  1.0
  Ni  Ni618  1  0.94790183  0.07480117  0.04663136  1.0
  Ni  Ni619  1  0.94790183  0.40813450  0.04663136  1.0
  Ni  Ni620  1  0.94790183  0.74146783  0.04663136  1.0
  Ni  Ni621  1  0.28123517  0.24146783  0.11805993  1.0
  Ni  Ni622  1  0.28123517  0.57480117  0.11805993  1.0
  Ni  Ni623  1  0.28123517  0.90813450  0.11805993  1.0
  Ni  Ni624  1  0.61456850  0.24146783  0.11805993  1.0
  Ni  Ni625  1  0.61456850  0.57480117  0.11805993  1.0
  Ni  Ni626  1  0.61456850  0.90813450  0.11805993  1.0
  Ni  Ni627  1  0.94790183  0.24146783  0.11805993  1.0
  Ni  Ni628  1  0.94790183  0.57480117  0.11805993  1.0
  Ni  Ni629  1  0.94790183  0.90813450  0.11805993  1.0
  Ni  Ni630  1  0.05209817  0.15813450  0.03769007  1.0
  Ni  Ni631  1  0.05209817  0.49146783  0.03769007  1.0
  Ni  Ni632  1  0.05209817  0.82480117  0.03769007  1.0
  Ni  Ni633  1  0.38543150  0.15813450  0.03769007  1.0
  Ni  Ni634  1  0.38543150  0.49146783  0.03769007  1.0
  Ni  Ni635  1  0.38543150  0.82480117  0.03769007  1.0
  Ni  Ni636  1  0.71876483  0.15813450  0.03769007  1.0
  Ni  Ni637  1  0.71876483  0.49146783  0.03769007  1.0
  Ni  Ni638  1  0.71876483  0.82480117  0.03769007  1.0
  Ni  Ni639  1  0.05209817  0.32480117  0.10911864  1.0
  Ni  Ni640  1  0.05209817  0.65813450  0.10911864  1.0
  Ni  Ni641  1  0.05209817  0.99146783  0.10911864  1.0
  Ni  Ni642  1  0.38543150  0.32480117  0.10911864  1.0
  Ni  Ni643  1  0.38543150  0.65813450  0.10911864  1.0
  Ni  Ni644  1  0.38543150  0.99146783  0.10911864  1.0
  Ni  Ni645  1  0.71876483  0.32480117  0.10911864  1.0
  Ni  Ni646  1  0.71876483  0.65813450  0.10911864  1.0
  Ni  Ni647  1  0.71876483  0.99146783  0.10911864  1.0
  Ni  Ni648  1  0.05209817  0.15813450  0.10467343  1.0
  Ni  Ni649  1  0.05209817  0.49146783  0.10467343  1.0
  Ni  Ni650  1  0.05209817  0.82480117  0.10467343  1.0
  Ni  Ni651  1  0.38543150  0.15813450  0.10467343  1.0
  Ni  Ni652  1  0.38543150  0.49146783  0.10467343  1.0
  Ni  Ni653  1  0.38543150  0.82480117  0.10467343  1.0
  Ni  Ni654  1  0.71876483  0.15813450  0.10467343  1.0
  Ni  Ni655  1  0.71876483  0.49146783  0.10467343  1.0
  Ni  Ni656  1  0.71876483  0.82480117  0.10467343  1.0
  Ni  Ni657  1  0.05209817  0.32480117  0.03324486  1.0
  Ni  Ni658  1  0.05209817  0.65813450  0.03324486  1.0
  Ni  Ni659  1  0.05209817  0.99146783  0.03324486  1.0
  Ni  Ni660  1  0.38543150  0.32480117  0.03324486  1.0
  Ni  Ni661  1  0.38543150  0.65813450  0.03324486  1.0
  Ni  Ni662  1  0.38543150  0.99146783  0.03324486  1.0
  Ni  Ni663  1  0.71876483  0.32480117  0.03324486  1.0
  Ni  Ni664  1  0.71876483  0.65813450  0.03324486  1.0
  Ni  Ni665  1  0.71876483  0.99146783  0.03324486  1.0
  Ni  Ni666  1  0.22913700  0.15813450  0.03769007  1.0
  Ni  Ni667  1  0.22913700  0.49146783  0.03769007  1.0
  Ni  Ni668  1  0.22913700  0.82480117  0.03769007  1.0
  Ni  Ni669  1  0.56247033  0.15813450  0.03769007  1.0
  Ni  Ni670  1  0.56247033  0.49146783  0.03769007  1.0
  Ni  Ni671  1  0.56247033  0.82480117  0.03769007  1.0
  Ni  Ni672  1  0.89580367  0.15813450  0.03769007  1.0
  Ni  Ni673  1  0.89580367  0.49146783  0.03769007  1.0
  Ni  Ni674  1  0.89580367  0.82480117  0.03769007  1.0
  Ni  Ni675  1  0.22913700  0.32480117  0.10911864  1.0
  Ni  Ni676  1  0.22913700  0.65813450  0.10911864  1.0
  Ni  Ni677  1  0.22913700  0.99146783  0.10911864  1.0
  Ni  Ni678  1  0.56247033  0.32480117  0.10911864  1.0
  Ni  Ni679  1  0.56247033  0.65813450  0.10911864  1.0
  Ni  Ni680  1  0.56247033  0.99146783  0.10911864  1.0
  Ni  Ni681  1  0.89580367  0.32480117  0.10911864  1.0
  Ni  Ni682  1  0.89580367  0.65813450  0.10911864  1.0
  Ni  Ni683  1  0.89580367  0.99146783  0.10911864  1.0
  Ni  Ni684  1  0.27741067  0.10826367  0.13356807  1.0
  Ni  Ni685  1  0.27741067  0.44159700  0.13356807  1.0
  Ni  Ni686  1  0.27741067  0.77493033  0.13356807  1.0
  Ni  Ni687  1  0.61074400  0.10826367  0.13356807  1.0
  Ni  Ni688  1  0.61074400  0.44159700  0.13356807  1.0
  Ni  Ni689  1  0.61074400  0.77493033  0.13356807  1.0
  Ni  Ni690  1  0.94407733  0.10826367  0.13356807  1.0
  Ni  Ni691  1  0.94407733  0.44159700  0.13356807  1.0
  Ni  Ni692  1  0.94407733  0.77493033  0.13356807  1.0
  Ni  Ni693  1  0.27741067  0.27493033  0.06213950  1.0
  Ni  Ni694  1  0.27741067  0.60826367  0.06213950  1.0
  Ni  Ni695  1  0.27741067  0.94159700  0.06213950  1.0
  Ni  Ni696  1  0.61074400  0.27493033  0.06213950  1.0
  Ni  Ni697  1  0.61074400  0.60826367  0.06213950  1.0
  Ni  Ni698  1  0.61074400  0.94159700  0.06213950  1.0
  Ni  Ni699  1  0.94407733  0.27493033  0.06213950  1.0
  Ni  Ni700  1  0.94407733  0.60826367  0.06213950  1.0
  Ni  Ni701  1  0.94407733  0.94159700  0.06213950  1.0
  Ni  Ni702  1  0.22148800  0.02493033  0.12182064  1.0
  Ni  Ni703  1  0.22148800  0.35826367  0.12182064  1.0
  Ni  Ni704  1  0.22148800  0.69159700  0.12182064  1.0
  Ni  Ni705  1  0.55482133  0.02493033  0.12182064  1.0
  Ni  Ni706  1  0.55482133  0.35826367  0.12182064  1.0
  Ni  Ni707  1  0.55482133  0.69159700  0.12182064  1.0
  Ni  Ni708  1  0.88815467  0.02493033  0.12182064  1.0
  Ni  Ni709  1  0.88815467  0.35826367  0.12182064  1.0
  Ni  Ni710  1  0.88815467  0.69159700  0.12182064  1.0
  Ni  Ni711  1  0.22148800  0.19159700  0.05039207  1.0
  Ni  Ni712  1  0.22148800  0.52493033  0.05039207  1.0
  Ni  Ni713  1  0.22148800  0.85826367  0.05039207  1.0
  Ni  Ni714  1  0.55482133  0.19159700  0.05039207  1.0
  Ni  Ni715  1  0.55482133  0.52493033  0.05039207  1.0
  Ni  Ni716  1  0.55482133  0.85826367  0.05039207  1.0
  Ni  Ni717  1  0.88815467  0.19159700  0.05039207  1.0
  Ni  Ni718  1  0.88815467  0.52493033  0.05039207  1.0
  Ni  Ni719  1  0.88815467  0.85826367  0.05039207  1.0
  Hf  Hf720  1  0.11111111  0.07564217  0.26275924  1.0
  Hf  Hf721  1  0.11111111  0.40897550  0.26275924  1.0
  Hf  Hf722  1  0.11111111  0.74230883  0.26275924  1.0
  Hf  Hf723  1  0.44444444  0.07564217  0.26275924  1.0
  Hf  Hf724  1  0.44444444  0.40897550  0.26275924  1.0
  Hf  Hf725  1  0.44444444  0.74230883  0.26275924  1.0
  Hf  Hf726  1  0.77777778  0.07564217  0.26275924  1.0
  Hf  Hf727  1  0.77777778  0.40897550  0.26275924  1.0
  Hf  Hf728  1  0.77777778  0.74230883  0.26275924  1.0
  Hf  Hf729  1  0.11111111  0.24230883  0.19133067  1.0
  Hf  Hf730  1  0.11111111  0.57564217  0.19133067  1.0
  Hf  Hf731  1  0.11111111  0.90897550  0.19133067  1.0
  Hf  Hf732  1  0.44444444  0.24230883  0.19133067  1.0
  Hf  Hf733  1  0.44444444  0.57564217  0.19133067  1.0
  Hf  Hf734  1  0.44444444  0.90897550  0.19133067  1.0
  Hf  Hf735  1  0.77777778  0.24230883  0.19133067  1.0
  Hf  Hf736  1  0.77777778  0.57564217  0.19133067  1.0
  Hf  Hf737  1  0.77777778  0.90897550  0.19133067  1.0
  Hf  Hf738  1  0.22222222  0.15897550  0.25085448  1.0
  Hf  Hf739  1  0.22222222  0.49230883  0.25085448  1.0
  Hf  Hf740  1  0.22222222  0.82564217  0.25085448  1.0
  Hf  Hf741  1  0.55555556  0.15897550  0.25085448  1.0
  Hf  Hf742  1  0.55555556  0.49230883  0.25085448  1.0
  Hf  Hf743  1  0.55555556  0.82564217  0.25085448  1.0
  Hf  Hf744  1  0.88888889  0.15897550  0.25085448  1.0
  Hf  Hf745  1  0.88888889  0.49230883  0.25085448  1.0
  Hf  Hf746  1  0.88888889  0.82564217  0.25085448  1.0
  Hf  Hf747  1  0.22222222  0.32564217  0.17942590  1.0
  Hf  Hf748  1  0.22222222  0.65897550  0.17942590  1.0
  Hf  Hf749  1  0.22222222  0.99230883  0.17942590  1.0
  Hf  Hf750  1  0.55555556  0.32564217  0.17942590  1.0
  Hf  Hf751  1  0.55555556  0.65897550  0.17942590  1.0
  Hf  Hf752  1  0.55555556  0.99230883  0.17942590  1.0
  Hf  Hf753  1  0.88888889  0.32564217  0.17942590  1.0
  Hf  Hf754  1  0.88888889  0.65897550  0.17942590  1.0
  Hf  Hf755  1  0.88888889  0.99230883  0.17942590  1.0
  Hf  Hf756  1  0.22222222  0.09102450  0.22173262  1.0
  Hf  Hf757  1  0.22222222  0.42435783  0.22173262  1.0
  Hf  Hf758  1  0.22222222  0.75769117  0.22173262  1.0
  Hf  Hf759  1  0.55555556  0.09102450  0.22173262  1.0
  Hf  Hf760  1  0.55555556  0.42435783  0.22173262  1.0
  Hf  Hf761  1  0.55555556  0.75769117  0.22173262  1.0
  Hf  Hf762  1  0.88888889  0.09102450  0.22173262  1.0
  Hf  Hf763  1  0.88888889  0.42435783  0.22173262  1.0
  Hf  Hf764  1  0.88888889  0.75769117  0.22173262  1.0
  Hf  Hf765  1  0.22222222  0.25769117  0.15030405  1.0
  Hf  Hf766  1  0.22222222  0.59102450  0.15030405  1.0
  Hf  Hf767  1  0.22222222  0.92435783  0.15030405  1.0
  Hf  Hf768  1  0.55555556  0.25769117  0.15030405  1.0
  Hf  Hf769  1  0.55555556  0.59102450  0.15030405  1.0
  Hf  Hf770  1  0.55555556  0.92435783  0.15030405  1.0
  Hf  Hf771  1  0.88888889  0.25769117  0.15030405  1.0
  Hf  Hf772  1  0.88888889  0.59102450  0.15030405  1.0
  Hf  Hf773  1  0.88888889  0.92435783  0.15030405  1.0
  Hf  Hf774  1  0.11111111  0.00769117  0.23363738  1.0
  Hf  Hf775  1  0.11111111  0.34102450  0.23363738  1.0
  Hf  Hf776  1  0.11111111  0.67435783  0.23363738  1.0
  Hf  Hf777  1  0.44444444  0.00769117  0.23363738  1.0
  Hf  Hf778  1  0.44444444  0.34102450  0.23363738  1.0
  Hf  Hf779  1  0.44444444  0.67435783  0.23363738  1.0
  Hf  Hf780  1  0.77777778  0.00769117  0.23363738  1.0
  Hf  Hf781  1  0.77777778  0.34102450  0.23363738  1.0
  Hf  Hf782  1  0.77777778  0.67435783  0.23363738  1.0
  Hf  Hf783  1  0.11111111  0.17435783  0.16220881  1.0
  Hf  Hf784  1  0.11111111  0.50769117  0.16220881  1.0
  Hf  Hf785  1  0.11111111  0.84102450  0.16220881  1.0
  Hf  Hf786  1  0.44444444  0.17435783  0.16220881  1.0
  Hf  Hf787  1  0.44444444  0.50769117  0.16220881  1.0
  Hf  Hf788  1  0.44444444  0.84102450  0.16220881  1.0
  Hf  Hf789  1  0.77777778  0.17435783  0.16220881  1.0
  Hf  Hf790  1  0.77777778  0.50769117  0.16220881  1.0
  Hf  Hf791  1  0.77777778  0.84102450  0.16220881  1.0
  Hf  Hf792  1  0.11111111  0.10851117  0.27684595  1.0
  Hf  Hf793  1  0.11111111  0.44184450  0.27684595  1.0
  Hf  Hf794  1  0.11111111  0.77517783  0.27684595  1.0
  Hf  Hf795  1  0.44444444  0.10851117  0.27684595  1.0
  Hf  Hf796  1  0.44444444  0.44184450  0.27684595  1.0
  Hf  Hf797  1  0.44444444  0.77517783  0.27684595  1.0
  Hf  Hf798  1  0.77777778  0.10851117  0.27684595  1.0
  Hf  Hf799  1  0.77777778  0.44184450  0.27684595  1.0
  Hf  Hf800  1  0.77777778  0.77517783  0.27684595  1.0
  Hf  Hf801  1  0.11111111  0.27517783  0.20541738  1.0
  Hf  Hf802  1  0.11111111  0.60851117  0.20541738  1.0
  Hf  Hf803  1  0.11111111  0.94184450  0.20541738  1.0
  Hf  Hf804  1  0.44444444  0.27517783  0.20541738  1.0
  Hf  Hf805  1  0.44444444  0.60851117  0.20541738  1.0
  Hf  Hf806  1  0.44444444  0.94184450  0.20541738  1.0
  Hf  Hf807  1  0.77777778  0.27517783  0.20541738  1.0
  Hf  Hf808  1  0.77777778  0.60851117  0.20541738  1.0
  Hf  Hf809  1  0.77777778  0.94184450  0.20541738  1.0
  Hf  Hf810  1  0.22222222  0.02517783  0.19351262  1.0
  Hf  Hf811  1  0.22222222  0.35851117  0.19351262  1.0
  Hf  Hf812  1  0.22222222  0.69184450  0.19351262  1.0
  Hf  Hf813  1  0.55555556  0.02517783  0.19351262  1.0
  Hf  Hf814  1  0.55555556  0.35851117  0.19351262  1.0
  Hf  Hf815  1  0.55555556  0.69184450  0.19351262  1.0
  Hf  Hf816  1  0.88888889  0.02517783  0.19351262  1.0
  Hf  Hf817  1  0.88888889  0.35851117  0.19351262  1.0
  Hf  Hf818  1  0.88888889  0.69184450  0.19351262  1.0
  Hf  Hf819  1  0.22222222  0.19184450  0.26494119  1.0
  Hf  Hf820  1  0.22222222  0.52517783  0.26494119  1.0
  Hf  Hf821  1  0.22222222  0.85851117  0.26494119  1.0
  Hf  Hf822  1  0.55555556  0.19184450  0.26494119  1.0
  Hf  Hf823  1  0.55555556  0.52517783  0.26494119  1.0
  Hf  Hf824  1  0.55555556  0.85851117  0.26494119  1.0
  Hf  Hf825  1  0.88888889  0.19184450  0.26494119  1.0
  Hf  Hf826  1  0.88888889  0.52517783  0.26494119  1.0
  Hf  Hf827  1  0.88888889  0.85851117  0.26494119  1.0
  Hf  Hf828  1  0.22222222  0.05815550  0.20764590  1.0
  Hf  Hf829  1  0.22222222  0.39148883  0.20764590  1.0
  Hf  Hf830  1  0.22222222  0.72482217  0.20764590  1.0
  Hf  Hf831  1  0.55555556  0.05815550  0.20764590  1.0
  Hf  Hf832  1  0.55555556  0.39148883  0.20764590  1.0
  Hf  Hf833  1  0.55555556  0.72482217  0.20764590  1.0
  Hf  Hf834  1  0.88888889  0.05815550  0.20764590  1.0
  Hf  Hf835  1  0.88888889  0.39148883  0.20764590  1.0
  Hf  Hf836  1  0.88888889  0.72482217  0.20764590  1.0
  Hf  Hf837  1  0.22222222  0.22482217  0.27907448  1.0
  Hf  Hf838  1  0.22222222  0.55815550  0.27907448  1.0
  Hf  Hf839  1  0.22222222  0.89148883  0.27907448  1.0
  Hf  Hf840  1  0.55555556  0.22482217  0.27907448  1.0
  Hf  Hf841  1  0.55555556  0.55815550  0.27907448  1.0
  Hf  Hf842  1  0.55555556  0.89148883  0.27907448  1.0
  Hf  Hf843  1  0.88888889  0.22482217  0.27907448  1.0
  Hf  Hf844  1  0.88888889  0.55815550  0.27907448  1.0
  Hf  Hf845  1  0.88888889  0.89148883  0.27907448  1.0
  Hf  Hf846  1  0.11111111  0.14148883  0.14812210  1.0
  Hf  Hf847  1  0.11111111  0.47482217  0.14812210  1.0
  Hf  Hf848  1  0.11111111  0.80815550  0.14812210  1.0
  Hf  Hf849  1  0.44444444  0.14148883  0.14812210  1.0
  Hf  Hf850  1  0.44444444  0.47482217  0.14812210  1.0
  Hf  Hf851  1  0.44444444  0.80815550  0.14812210  1.0
  Hf  Hf852  1  0.77777778  0.14148883  0.14812210  1.0
  Hf  Hf853  1  0.77777778  0.47482217  0.14812210  1.0
  Hf  Hf854  1  0.77777778  0.80815550  0.14812210  1.0
  Hf  Hf855  1  0.11111111  0.30815550  0.21955067  1.0
  Hf  Hf856  1  0.11111111  0.64148883  0.21955067  1.0
  Hf  Hf857  1  0.11111111  0.97482217  0.21955067  1.0
  Hf  Hf858  1  0.44444444  0.30815550  0.21955067  1.0
  Hf  Hf859  1  0.44444444  0.64148883  0.21955067  1.0
  Hf  Hf860  1  0.44444444  0.97482217  0.21955067  1.0
  Hf  Hf861  1  0.77777778  0.30815550  0.21955067  1.0
  Hf  Hf862  1  0.77777778  0.64148883  0.21955067  1.0
  Hf  Hf863  1  0.77777778  0.97482217  0.21955067  1.0
  Hf  Hf864  1  0.00000000  0.04166667  0.15296021  1.0
  Hf  Hf865  1  0.00000000  0.37500000  0.15296021  1.0
  Hf  Hf866  1  0.00000000  0.70833333  0.15296021  1.0
  Hf  Hf867  1  0.33333333  0.04166667  0.15296021  1.0
  Hf  Hf868  1  0.33333333  0.37500000  0.15296021  1.0
  Hf  Hf869  1  0.33333333  0.70833333  0.15296021  1.0
  Hf  Hf870  1  0.66666667  0.04166667  0.15296021  1.0
  Hf  Hf871  1  0.66666667  0.37500000  0.15296021  1.0
  Hf  Hf872  1  0.66666667  0.70833333  0.15296021  1.0
  Hf  Hf873  1  0.00000000  0.20833333  0.22438879  1.0
  Hf  Hf874  1  0.00000000  0.54166667  0.22438879  1.0
  Hf  Hf875  1  0.00000000  0.87500000  0.22438879  1.0
  Hf  Hf876  1  0.33333333  0.20833333  0.22438879  1.0
  Hf  Hf877  1  0.33333333  0.54166667  0.22438879  1.0
  Hf  Hf878  1  0.33333333  0.87500000  0.22438879  1.0
  Hf  Hf879  1  0.66666667  0.20833333  0.22438879  1.0
  Hf  Hf880  1  0.66666667  0.54166667  0.22438879  1.0
  Hf  Hf881  1  0.66666667  0.87500000  0.22438879  1.0
  Hf  Hf882  1  0.00000000  0.12500000  0.18867450  1.0
  Hf  Hf883  1  0.00000000  0.45833333  0.18867450  1.0
  Hf  Hf884  1  0.00000000  0.79166667  0.18867450  1.0
  Hf  Hf885  1  0.33333333  0.12500000  0.18867450  1.0
  Hf  Hf886  1  0.33333333  0.45833333  0.18867450  1.0
  Hf  Hf887  1  0.33333333  0.79166667  0.18867450  1.0
  Hf  Hf888  1  0.66666667  0.12500000  0.18867450  1.0
  Hf  Hf889  1  0.66666667  0.45833333  0.18867450  1.0
  Hf  Hf890  1  0.66666667  0.79166667  0.18867450  1.0
  Hf  Hf891  1  0.00000000  0.29166667  0.26010307  1.0
  Hf  Hf892  1  0.00000000  0.62500000  0.26010307  1.0
  Hf  Hf893  1  0.00000000  0.95833333  0.26010307  1.0
  Hf  Hf894  1  0.33333333  0.29166667  0.26010307  1.0
  Hf  Hf895  1  0.33333333  0.62500000  0.26010307  1.0
  Hf  Hf896  1  0.33333333  0.95833333  0.26010307  1.0
  Hf  Hf897  1  0.66666667  0.29166667  0.26010307  1.0
  Hf  Hf898  1  0.66666667  0.62500000  0.26010307  1.0
  Hf  Hf899  1  0.66666667  0.95833333  0.26010307  1.0
  Ni  Ni900  1  0.11184533  0.14173633  0.21981407  1.0
  Ni  Ni901  1  0.11184533  0.47506967  0.21981407  1.0
  Ni  Ni902  1  0.11184533  0.80840300  0.21981407  1.0
  Ni  Ni903  1  0.44517867  0.14173633  0.21981407  1.0
  Ni  Ni904  1  0.44517867  0.47506967  0.21981407  1.0
  Ni  Ni905  1  0.44517867  0.80840300  0.21981407  1.0
  Ni  Ni906  1  0.77851200  0.14173633  0.21981407  1.0
  Ni  Ni907  1  0.77851200  0.47506967  0.21981407  1.0
  Ni  Ni908  1  0.77851200  0.80840300  0.21981407  1.0
  Ni  Ni909  1  0.11184533  0.30840300  0.14838550  1.0
  Ni  Ni910  1  0.11184533  0.64173633  0.14838550  1.0
  Ni  Ni911  1  0.11184533  0.97506967  0.14838550  1.0
  Ni  Ni912  1  0.44517867  0.30840300  0.14838550  1.0
  Ni  Ni913  1  0.44517867  0.64173633  0.14838550  1.0
  Ni  Ni914  1  0.44517867  0.97506967  0.14838550  1.0
  Ni  Ni915  1  0.77851200  0.30840300  0.14838550  1.0
  Ni  Ni916  1  0.77851200  0.64173633  0.14838550  1.0
  Ni  Ni917  1  0.77851200  0.97506967  0.14838550  1.0
  Ni  Ni918  1  0.27741067  0.14173633  0.14791350  1.0
  Ni  Ni919  1  0.27741067  0.47506967  0.14791350  1.0
  Ni  Ni920  1  0.27741067  0.80840300  0.14791350  1.0
  Ni  Ni921  1  0.61074400  0.14173633  0.14791350  1.0
  Ni  Ni922  1  0.61074400  0.47506967  0.14791350  1.0
  Ni  Ni923  1  0.61074400  0.80840300  0.14791350  1.0
  Ni  Ni924  1  0.94407733  0.14173633  0.14791350  1.0
  Ni  Ni925  1  0.94407733  0.47506967  0.14791350  1.0
  Ni  Ni926  1  0.94407733  0.80840300  0.14791350  1.0
  Ni  Ni927  1  0.27741067  0.30840300  0.21934207  1.0
  Ni  Ni928  1  0.27741067  0.64173633  0.21934207  1.0
  Ni  Ni929  1  0.27741067  0.97506967  0.21934207  1.0
  Ni  Ni930  1  0.61074400  0.30840300  0.21934207  1.0
  Ni  Ni931  1  0.61074400  0.64173633  0.21934207  1.0
  Ni  Ni932  1  0.61074400  0.97506967  0.21934207  1.0
  Ni  Ni933  1  0.94407733  0.30840300  0.21934207  1.0
  Ni  Ni934  1  0.94407733  0.64173633  0.21934207  1.0
  Ni  Ni935  1  0.94407733  0.97506967  0.21934207  1.0
  Ni  Ni936  1  0.27741067  0.14173633  0.21981407  1.0
  Ni  Ni937  1  0.27741067  0.47506967  0.21981407  1.0
  Ni  Ni938  1  0.27741067  0.80840300  0.21981407  1.0
  Ni  Ni939  1  0.61074400  0.14173633  0.21981407  1.0
  Ni  Ni940  1  0.61074400  0.47506967  0.21981407  1.0
  Ni  Ni941  1  0.61074400  0.80840300  0.21981407  1.0
  Ni  Ni942  1  0.94407733  0.14173633  0.21981407  1.0
  Ni  Ni943  1  0.94407733  0.47506967  0.21981407  1.0
  Ni  Ni944  1  0.94407733  0.80840300  0.21981407  1.0
  Ni  Ni945  1  0.27741067  0.30840300  0.14838550  1.0
  Ni  Ni946  1  0.27741067  0.64173633  0.14838550  1.0
  Ni  Ni947  1  0.27741067  0.97506967  0.14838550  1.0
  Ni  Ni948  1  0.61074400  0.30840300  0.14838550  1.0
  Ni  Ni949  1  0.61074400  0.64173633  0.14838550  1.0
  Ni  Ni950  1  0.61074400  0.97506967  0.14838550  1.0
  Ni  Ni951  1  0.94407733  0.30840300  0.14838550  1.0
  Ni  Ni952  1  0.94407733  0.64173633  0.14838550  1.0
  Ni  Ni953  1  0.94407733  0.97506967  0.14838550  1.0
  Ni  Ni954  1  0.05592267  0.05840300  0.27902321  1.0
  Ni  Ni955  1  0.05592267  0.39173633  0.27902321  1.0
  Ni  Ni956  1  0.05592267  0.72506967  0.27902321  1.0
  Ni  Ni957  1  0.38925600  0.05840300  0.27902321  1.0
  Ni  Ni958  1  0.38925600  0.39173633  0.27902321  1.0
  Ni  Ni959  1  0.38925600  0.72506967  0.27902321  1.0
  Ni  Ni960  1  0.72258933  0.05840300  0.27902321  1.0
  Ni  Ni961  1  0.72258933  0.39173633  0.27902321  1.0
  Ni  Ni962  1  0.72258933  0.72506967  0.27902321  1.0
  Ni  Ni963  1  0.05592267  0.22506967  0.20759464  1.0
  Ni  Ni964  1  0.05592267  0.55840300  0.20759464  1.0
  Ni  Ni965  1  0.05592267  0.89173633  0.20759464  1.0
  Ni  Ni966  1  0.38925600  0.22506967  0.20759464  1.0
  Ni  Ni967  1  0.38925600  0.55840300  0.20759464  1.0
  Ni  Ni968  1  0.38925600  0.89173633  0.20759464  1.0
  Ni  Ni969  1  0.72258933  0.22506967  0.20759464  1.0
  Ni  Ni970  1  0.72258933  0.55840300  0.20759464  1.0
  Ni  Ni971  1  0.72258933  0.89173633  0.20759464  1.0
  Ni  Ni972  1  0.05592267  0.02493033  0.19372121  1.0
  Ni  Ni973  1  0.05592267  0.35826367  0.19372121  1.0
  Ni  Ni974  1  0.05592267  0.69159700  0.19372121  1.0
  Ni  Ni975  1  0.38925600  0.02493033  0.19372121  1.0
  Ni  Ni976  1  0.38925600  0.35826367  0.19372121  1.0
  Ni  Ni977  1  0.38925600  0.69159700  0.19372121  1.0
  Ni  Ni978  1  0.72258933  0.02493033  0.19372121  1.0
  Ni  Ni979  1  0.72258933  0.35826367  0.19372121  1.0
  Ni  Ni980  1  0.72258933  0.69159700  0.19372121  1.0
  Ni  Ni981  1  0.05592267  0.19159700  0.26514979  1.0
  Ni  Ni982  1  0.05592267  0.52493033  0.26514979  1.0
  Ni  Ni983  1  0.05592267  0.85826367  0.26514979  1.0
  Ni  Ni984  1  0.38925600  0.19159700  0.26514979  1.0
  Ni  Ni985  1  0.38925600  0.52493033  0.26514979  1.0
  Ni  Ni986  1  0.38925600  0.85826367  0.26514979  1.0
  Ni  Ni987  1  0.72258933  0.19159700  0.26514979  1.0
  Ni  Ni988  1  0.72258933  0.52493033  0.26514979  1.0
  Ni  Ni989  1  0.72258933  0.85826367  0.26514979  1.0
  Ni  Ni990  1  0.22148800  0.05840300  0.27902321  1.0
  Ni  Ni991  1  0.22148800  0.39173633  0.27902321  1.0
  Ni  Ni992  1  0.22148800  0.72506967  0.27902321  1.0
  Ni  Ni993  1  0.55482133  0.05840300  0.27902321  1.0
  Ni  Ni994  1  0.55482133  0.39173633  0.27902321  1.0
  Ni  Ni995  1  0.55482133  0.72506967  0.27902321  1.0
  Ni  Ni996  1  0.88815467  0.05840300  0.27902321  1.0
  Ni  Ni997  1  0.88815467  0.39173633  0.27902321  1.0
  Ni  Ni998  1  0.88815467  0.72506967  0.27902321  1.0
  Ni  Ni999  1  0.22148800  0.22506967  0.20759464  1.0
  Ni  Ni1000  1  0.22148800  0.55840300  0.20759464  1.0
  Ni  Ni1001  1  0.22148800  0.89173633  0.20759464  1.0
  Ni  Ni1002  1  0.55482133  0.22506967  0.20759464  1.0
  Ni  Ni1003  1  0.55482133  0.55840300  0.20759464  1.0
  Ni  Ni1004  1  0.55482133  0.89173633  0.20759464  1.0
  Ni  Ni1005  1  0.88815467  0.22506967  0.20759464  1.0
  Ni  Ni1006  1  0.88815467  0.55840300  0.20759464  1.0
  Ni  Ni1007  1  0.88815467  0.89173633  0.20759464  1.0
  Ni  Ni1008  1  0.05592267  0.05840300  0.20806664  1.0
  Ni  Ni1009  1  0.05592267  0.39173633  0.20806664  1.0
  Ni  Ni1010  1  0.05592267  0.72506967  0.20806664  1.0
  Ni  Ni1011  1  0.38925600  0.05840300  0.20806664  1.0
  Ni  Ni1012  1  0.38925600  0.39173633  0.20806664  1.0
  Ni  Ni1013  1  0.38925600  0.72506967  0.20806664  1.0
  Ni  Ni1014  1  0.72258933  0.05840300  0.20806664  1.0
  Ni  Ni1015  1  0.72258933  0.39173633  0.20806664  1.0
  Ni  Ni1016  1  0.72258933  0.72506967  0.20806664  1.0
  Ni  Ni1017  1  0.05592267  0.22506967  0.27949521  1.0
  Ni  Ni1018  1  0.05592267  0.55840300  0.27949521  1.0
  Ni  Ni1019  1  0.05592267  0.89173633  0.27949521  1.0
  Ni  Ni1020  1  0.38925600  0.22506967  0.27949521  1.0
  Ni  Ni1021  1  0.38925600  0.55840300  0.27949521  1.0
  Ni  Ni1022  1  0.38925600  0.89173633  0.27949521  1.0
  Ni  Ni1023  1  0.72258933  0.22506967  0.27949521  1.0
  Ni  Ni1024  1  0.72258933  0.55840300  0.27949521  1.0
  Ni  Ni1025  1  0.72258933  0.89173633  0.27949521  1.0
  Ni  Ni1026  1  0.11184533  0.10826367  0.20546864  1.0
  Ni  Ni1027  1  0.11184533  0.44159700  0.20546864  1.0
  Ni  Ni1028  1  0.11184533  0.77493033  0.20546864  1.0
  Ni  Ni1029  1  0.44517867  0.10826367  0.20546864  1.0
  Ni  Ni1030  1  0.44517867  0.44159700  0.20546864  1.0
  Ni  Ni1031  1  0.44517867  0.77493033  0.20546864  1.0
  Ni  Ni1032  1  0.77851200  0.10826367  0.20546864  1.0
  Ni  Ni1033  1  0.77851200  0.44159700  0.20546864  1.0
  Ni  Ni1034  1  0.77851200  0.77493033  0.20546864  1.0
  Ni  Ni1035  1  0.11184533  0.27493033  0.27689721  1.0
  Ni  Ni1036  1  0.11184533  0.60826367  0.27689721  1.0
  Ni  Ni1037  1  0.11184533  0.94159700  0.27689721  1.0
  Ni  Ni1038  1  0.44517867  0.27493033  0.27689721  1.0
  Ni  Ni1039  1  0.44517867  0.60826367  0.27689721  1.0
  Ni  Ni1040  1  0.44517867  0.94159700  0.27689721  1.0
  Ni  Ni1041  1  0.77851200  0.27493033  0.27689721  1.0
  Ni  Ni1042  1  0.77851200  0.60826367  0.27689721  1.0
  Ni  Ni1043  1  0.77851200  0.94159700  0.27689721  1.0
  Ni  Ni1044  1  0.27741067  0.10826367  0.20546864  1.0
  Ni  Ni1045  1  0.27741067  0.44159700  0.20546864  1.0
  Ni  Ni1046  1  0.27741067  0.77493033  0.20546864  1.0
  Ni  Ni1047  1  0.61074400  0.10826367  0.20546864  1.0
  Ni  Ni1048  1  0.61074400  0.44159700  0.20546864  1.0
  Ni  Ni1049  1  0.61074400  0.77493033  0.20546864  1.0
  Ni  Ni1050  1  0.94407733  0.10826367  0.20546864  1.0
  Ni  Ni1051  1  0.94407733  0.44159700  0.20546864  1.0
  Ni  Ni1052  1  0.94407733  0.77493033  0.20546864  1.0
  Ni  Ni1053  1  0.27741067  0.27493033  0.27689721  1.0
  Ni  Ni1054  1  0.27741067  0.60826367  0.27689721  1.0
  Ni  Ni1055  1  0.27741067  0.94159700  0.27689721  1.0
  Ni  Ni1056  1  0.61074400  0.27493033  0.27689721  1.0
  Ni  Ni1057  1  0.61074400  0.60826367  0.27689721  1.0
  Ni  Ni1058  1  0.61074400  0.94159700  0.27689721  1.0
  Ni  Ni1059  1  0.94407733  0.27493033  0.27689721  1.0
  Ni  Ni1060  1  0.94407733  0.60826367  0.27689721  1.0
  Ni  Ni1061  1  0.94407733  0.94159700  0.27689721  1.0
  Ni  Ni1062  1  0.05592267  0.02493033  0.26467779  1.0
  Ni  Ni1063  1  0.05592267  0.35826367  0.26467779  1.0
  Ni  Ni1064  1  0.05592267  0.69159700  0.26467779  1.0
  Ni  Ni1065  1  0.38925600  0.02493033  0.26467779  1.0
  Ni  Ni1066  1  0.38925600  0.35826367  0.26467779  1.0
  Ni  Ni1067  1  0.38925600  0.69159700  0.26467779  1.0
  Ni  Ni1068  1  0.72258933  0.02493033  0.26467779  1.0
  Ni  Ni1069  1  0.72258933  0.35826367  0.26467779  1.0
  Ni  Ni1070  1  0.72258933  0.69159700  0.26467779  1.0
  Ni  Ni1071  1  0.05592267  0.19159700  0.19324921  1.0
  Ni  Ni1072  1  0.05592267  0.52493033  0.19324921  1.0
  Ni  Ni1073  1  0.05592267  0.85826367  0.19324921  1.0
  Ni  Ni1074  1  0.38925600  0.19159700  0.19324921  1.0
  Ni  Ni1075  1  0.38925600  0.52493033  0.19324921  1.0
  Ni  Ni1076  1  0.38925600  0.85826367  0.19324921  1.0
  Ni  Ni1077  1  0.72258933  0.19159700  0.19324921  1.0
  Ni  Ni1078  1  0.72258933  0.52493033  0.19324921  1.0
  Ni  Ni1079  1  0.72258933  0.85826367  0.19324921  1.0
  Ni  Ni1080  1  0.17021750  0.12500000  0.19171807  1.0
  Ni  Ni1081  1  0.17021750  0.45833333  0.19171807  1.0
  Ni  Ni1082  1  0.17021750  0.79166667  0.19171807  1.0
  Ni  Ni1083  1  0.50355083  0.12500000  0.19171807  1.0
  Ni  Ni1084  1  0.50355083  0.45833333  0.19171807  1.0
  Ni  Ni1085  1  0.50355083  0.79166667  0.19171807  1.0
  Ni  Ni1086  1  0.83688417  0.12500000  0.19171807  1.0
  Ni  Ni1087  1  0.83688417  0.45833333  0.19171807  1.0
  Ni  Ni1088  1  0.83688417  0.79166667  0.19171807  1.0
  Ni  Ni1089  1  0.17021750  0.29166667  0.26314664  1.0
  Ni  Ni1090  1  0.17021750  0.62500000  0.26314664  1.0
  Ni  Ni1091  1  0.17021750  0.95833333  0.26314664  1.0
  Ni  Ni1092  1  0.50355083  0.29166667  0.26314664  1.0
  Ni  Ni1093  1  0.50355083  0.62500000  0.26314664  1.0
  Ni  Ni1094  1  0.50355083  0.95833333  0.26314664  1.0
  Ni  Ni1095  1  0.83688417  0.29166667  0.26314664  1.0
  Ni  Ni1096  1  0.83688417  0.62500000  0.26314664  1.0
  Ni  Ni1097  1  0.83688417  0.95833333  0.26314664  1.0
  Ni  Ni1098  1  0.00710167  0.04166667  0.22591057  1.0
  Ni  Ni1099  1  0.00710167  0.37500000  0.22591057  1.0
  Ni  Ni1100  1  0.00710167  0.70833333  0.22591057  1.0
  Ni  Ni1101  1  0.34043500  0.04166667  0.22591057  1.0
  Ni  Ni1102  1  0.34043500  0.37500000  0.22591057  1.0
  Ni  Ni1103  1  0.34043500  0.70833333  0.22591057  1.0
  Ni  Ni1104  1  0.67376833  0.04166667  0.22591057  1.0
  Ni  Ni1105  1  0.67376833  0.37500000  0.22591057  1.0
  Ni  Ni1106  1  0.67376833  0.70833333  0.22591057  1.0
  Ni  Ni1107  1  0.00710167  0.20833333  0.15448200  1.0
  Ni  Ni1108  1  0.00710167  0.54166667  0.15448200  1.0
  Ni  Ni1109  1  0.00710167  0.87500000  0.15448200  1.0
  Ni  Ni1110  1  0.34043500  0.20833333  0.15448200  1.0
  Ni  Ni1111  1  0.34043500  0.54166667  0.15448200  1.0
  Ni  Ni1112  1  0.34043500  0.87500000  0.15448200  1.0
  Ni  Ni1113  1  0.67376833  0.20833333  0.15448200  1.0
  Ni  Ni1114  1  0.67376833  0.54166667  0.15448200  1.0
  Ni  Ni1115  1  0.67376833  0.87500000  0.15448200  1.0
  Ni  Ni1116  1  0.16311583  0.04166667  0.22591057  1.0
  Ni  Ni1117  1  0.16311583  0.37500000  0.22591057  1.0
  Ni  Ni1118  1  0.16311583  0.70833333  0.22591057  1.0
  Ni  Ni1119  1  0.49644917  0.04166667  0.22591057  1.0
  Ni  Ni1120  1  0.49644917  0.37500000  0.22591057  1.0
  Ni  Ni1121  1  0.49644917  0.70833333  0.22591057  1.0
  Ni  Ni1122  1  0.82978250  0.04166667  0.22591057  1.0
  Ni  Ni1123  1  0.82978250  0.37500000  0.22591057  1.0
  Ni  Ni1124  1  0.82978250  0.70833333  0.22591057  1.0
  Ni  Ni1125  1  0.16311583  0.20833333  0.15448200  1.0
  Ni  Ni1126  1  0.16311583  0.54166667  0.15448200  1.0
  Ni  Ni1127  1  0.16311583  0.87500000  0.15448200  1.0
  Ni  Ni1128  1  0.49644917  0.20833333  0.15448200  1.0
  Ni  Ni1129  1  0.49644917  0.54166667  0.15448200  1.0
  Ni  Ni1130  1  0.49644917  0.87500000  0.15448200  1.0
  Ni  Ni1131  1  0.82978250  0.20833333  0.15448200  1.0
  Ni  Ni1132  1  0.82978250  0.54166667  0.15448200  1.0
  Ni  Ni1133  1  0.82978250  0.87500000  0.15448200  1.0
  Ni  Ni1134  1  0.17021750  0.12500000  0.25858129  1.0
  Ni  Ni1135  1  0.17021750  0.45833333  0.25858129  1.0
  Ni  Ni1136  1  0.17021750  0.79166667  0.25858129  1.0
  Ni  Ni1137  1  0.50355083  0.12500000  0.25858129  1.0
  Ni  Ni1138  1  0.50355083  0.45833333  0.25858129  1.0
  Ni  Ni1139  1  0.50355083  0.79166667  0.25858129  1.0
  Ni  Ni1140  1  0.83688417  0.12500000  0.25858129  1.0
  Ni  Ni1141  1  0.83688417  0.45833333  0.25858129  1.0
  Ni  Ni1142  1  0.83688417  0.79166667  0.25858129  1.0
  Ni  Ni1143  1  0.17021750  0.29166667  0.18715271  1.0
  Ni  Ni1144  1  0.17021750  0.62500000  0.18715271  1.0
  Ni  Ni1145  1  0.17021750  0.95833333  0.18715271  1.0
  Ni  Ni1146  1  0.50355083  0.29166667  0.18715271  1.0
  Ni  Ni1147  1  0.50355083  0.62500000  0.18715271  1.0
  Ni  Ni1148  1  0.50355083  0.95833333  0.18715271  1.0
  Ni  Ni1149  1  0.83688417  0.29166667  0.18715271  1.0
  Ni  Ni1150  1  0.83688417  0.62500000  0.18715271  1.0
  Ni  Ni1151  1  0.83688417  0.95833333  0.18715271  1.0
  Ni  Ni1152  1  0.32623167  0.12500000  0.25858129  1.0
  Ni  Ni1153  1  0.32623167  0.45833333  0.25858129  1.0
  Ni  Ni1154  1  0.32623167  0.79166667  0.25858129  1.0
  Ni  Ni1155  1  0.65956500  0.12500000  0.25858129  1.0
  Ni  Ni1156  1  0.65956500  0.45833333  0.25858129  1.0
  Ni  Ni1157  1  0.65956500  0.79166667  0.25858129  1.0
  Ni  Ni1158  1  0.99289833  0.12500000  0.25858129  1.0
  Ni  Ni1159  1  0.99289833  0.45833333  0.25858129  1.0
  Ni  Ni1160  1  0.99289833  0.79166667  0.25858129  1.0
  Ni  Ni1161  1  0.32623167  0.29166667  0.18715271  1.0
  Ni  Ni1162  1  0.32623167  0.62500000  0.18715271  1.0
  Ni  Ni1163  1  0.32623167  0.95833333  0.18715271  1.0
  Ni  Ni1164  1  0.65956500  0.29166667  0.18715271  1.0
  Ni  Ni1165  1  0.65956500  0.62500000  0.18715271  1.0
  Ni  Ni1166  1  0.65956500  0.95833333  0.18715271  1.0
  Ni  Ni1167  1  0.99289833  0.29166667  0.18715271  1.0
  Ni  Ni1168  1  0.99289833  0.62500000  0.18715271  1.0
  Ni  Ni1169  1  0.99289833  0.95833333  0.18715271  1.0
  Ni  Ni1170  1  0.16311583  0.04166667  0.14991664  1.0
  Ni  Ni1171  1  0.16311583  0.37500000  0.14991664  1.0
  Ni  Ni1172  1  0.16311583  0.70833333  0.14991664  1.0
  Ni  Ni1173  1  0.49644917  0.04166667  0.14991664  1.0
  Ni  Ni1174  1  0.49644917  0.37500000  0.14991664  1.0
  Ni  Ni1175  1  0.49644917  0.70833333  0.14991664  1.0
  Ni  Ni1176  1  0.82978250  0.04166667  0.14991664  1.0
  Ni  Ni1177  1  0.82978250  0.37500000  0.14991664  1.0
  Ni  Ni1178  1  0.82978250  0.70833333  0.14991664  1.0
  Ni  Ni1179  1  0.16311583  0.20833333  0.22134521  1.0
  Ni  Ni1180  1  0.16311583  0.54166667  0.22134521  1.0
  Ni  Ni1181  1  0.16311583  0.87500000  0.22134521  1.0
  Ni  Ni1182  1  0.49644917  0.20833333  0.22134521  1.0
  Ni  Ni1183  1  0.49644917  0.54166667  0.22134521  1.0
  Ni  Ni1184  1  0.49644917  0.87500000  0.22134521  1.0
  Ni  Ni1185  1  0.82978250  0.20833333  0.22134521  1.0
  Ni  Ni1186  1  0.82978250  0.54166667  0.22134521  1.0
  Ni  Ni1187  1  0.82978250  0.87500000  0.22134521  1.0
  Ni  Ni1188  1  0.05209817  0.09186550  0.21912957  1.0
  Ni  Ni1189  1  0.05209817  0.42519883  0.21912957  1.0
  Ni  Ni1190  1  0.05209817  0.75853217  0.21912957  1.0
  Ni  Ni1191  1  0.38543150  0.09186550  0.21912957  1.0
  Ni  Ni1192  1  0.38543150  0.42519883  0.21912957  1.0
  Ni  Ni1193  1  0.38543150  0.75853217  0.21912957  1.0
  Ni  Ni1194  1  0.71876483  0.09186550  0.21912957  1.0
  Ni  Ni1195  1  0.71876483  0.42519883  0.21912957  1.0
  Ni  Ni1196  1  0.71876483  0.75853217  0.21912957  1.0
  Ni  Ni1197  1  0.05209817  0.25853217  0.14770100  1.0
  Ni  Ni1198  1  0.05209817  0.59186550  0.14770100  1.0
  Ni  Ni1199  1  0.05209817  0.92519883  0.14770100  1.0
  Ni  Ni1200  1  0.38543150  0.25853217  0.14770100  1.0
  Ni  Ni1201  1  0.38543150  0.59186550  0.14770100  1.0
  Ni  Ni1202  1  0.38543150  0.92519883  0.14770100  1.0
  Ni  Ni1203  1  0.71876483  0.25853217  0.14770100  1.0
  Ni  Ni1204  1  0.71876483  0.59186550  0.14770100  1.0
  Ni  Ni1205  1  0.71876483  0.92519883  0.14770100  1.0
  Ni  Ni1206  1  0.10419633  0.00853217  0.16108750  1.0
  Ni  Ni1207  1  0.10419633  0.34186550  0.16108750  1.0
  Ni  Ni1208  1  0.10419633  0.67519883  0.16108750  1.0
  Ni  Ni1209  1  0.43752967  0.00853217  0.16108750  1.0
  Ni  Ni1210  1  0.43752967  0.34186550  0.16108750  1.0
  Ni  Ni1211  1  0.43752967  0.67519883  0.16108750  1.0
  Ni  Ni1212  1  0.77086300  0.00853217  0.16108750  1.0
  Ni  Ni1213  1  0.77086300  0.34186550  0.16108750  1.0
  Ni  Ni1214  1  0.77086300  0.67519883  0.16108750  1.0
  Ni  Ni1215  1  0.10419633  0.17519883  0.23251607  1.0
  Ni  Ni1216  1  0.10419633  0.50853217  0.23251607  1.0
  Ni  Ni1217  1  0.10419633  0.84186550  0.23251607  1.0
  Ni  Ni1218  1  0.43752967  0.17519883  0.23251607  1.0
  Ni  Ni1219  1  0.43752967  0.50853217  0.23251607  1.0
  Ni  Ni1220  1  0.43752967  0.84186550  0.23251607  1.0
  Ni  Ni1221  1  0.77086300  0.17519883  0.23251607  1.0
  Ni  Ni1222  1  0.77086300  0.50853217  0.23251607  1.0
  Ni  Ni1223  1  0.77086300  0.84186550  0.23251607  1.0
  Ni  Ni1224  1  0.28123517  0.00853217  0.16108750  1.0
  Ni  Ni1225  1  0.28123517  0.34186550  0.16108750  1.0
  Ni  Ni1226  1  0.28123517  0.67519883  0.16108750  1.0
  Ni  Ni1227  1  0.61456850  0.00853217  0.16108750  1.0
  Ni  Ni1228  1  0.61456850  0.34186550  0.16108750  1.0
  Ni  Ni1229  1  0.61456850  0.67519883  0.16108750  1.0
  Ni  Ni1230  1  0.94790183  0.00853217  0.16108750  1.0
  Ni  Ni1231  1  0.94790183  0.34186550  0.16108750  1.0
  Ni  Ni1232  1  0.94790183  0.67519883  0.16108750  1.0
  Ni  Ni1233  1  0.28123517  0.17519883  0.23251607  1.0
  Ni  Ni1234  1  0.28123517  0.50853217  0.23251607  1.0
  Ni  Ni1235  1  0.28123517  0.84186550  0.23251607  1.0
  Ni  Ni1236  1  0.61456850  0.17519883  0.23251607  1.0
  Ni  Ni1237  1  0.61456850  0.50853217  0.23251607  1.0
  Ni  Ni1238  1  0.61456850  0.84186550  0.23251607  1.0
  Ni  Ni1239  1  0.94790183  0.17519883  0.23251607  1.0
  Ni  Ni1240  1  0.94790183  0.50853217  0.23251607  1.0
  Ni  Ni1241  1  0.94790183  0.84186550  0.23251607  1.0
  Ni  Ni1242  1  0.05209817  0.09186550  0.15214621  1.0
  Ni  Ni1243  1  0.05209817  0.42519883  0.15214621  1.0
  Ni  Ni1244  1  0.05209817  0.75853217  0.15214621  1.0
  Ni  Ni1245  1  0.38543150  0.09186550  0.15214621  1.0
  Ni  Ni1246  1  0.38543150  0.42519883  0.15214621  1.0
  Ni  Ni1247  1  0.38543150  0.75853217  0.15214621  1.0
  Ni  Ni1248  1  0.71876483  0.09186550  0.15214621  1.0
  Ni  Ni1249  1  0.71876483  0.42519883  0.15214621  1.0
  Ni  Ni1250  1  0.71876483  0.75853217  0.15214621  1.0
  Ni  Ni1251  1  0.05209817  0.25853217  0.22357479  1.0
  Ni  Ni1252  1  0.05209817  0.59186550  0.22357479  1.0
  Ni  Ni1253  1  0.05209817  0.92519883  0.22357479  1.0
  Ni  Ni1254  1  0.38543150  0.25853217  0.22357479  1.0
  Ni  Ni1255  1  0.38543150  0.59186550  0.22357479  1.0
  Ni  Ni1256  1  0.38543150  0.92519883  0.22357479  1.0
  Ni  Ni1257  1  0.71876483  0.25853217  0.22357479  1.0
  Ni  Ni1258  1  0.71876483  0.59186550  0.22357479  1.0
  Ni  Ni1259  1  0.71876483  0.92519883  0.22357479  1.0
  Ni  Ni1260  1  0.22913700  0.09186550  0.15214621  1.0
  Ni  Ni1261  1  0.22913700  0.42519883  0.15214621  1.0
  Ni  Ni1262  1  0.22913700  0.75853217  0.15214621  1.0
  Ni  Ni1263  1  0.56247033  0.09186550  0.15214621  1.0
  Ni  Ni1264  1  0.56247033  0.42519883  0.15214621  1.0
  Ni  Ni1265  1  0.56247033  0.75853217  0.15214621  1.0
  Ni  Ni1266  1  0.89580367  0.09186550  0.15214621  1.0
  Ni  Ni1267  1  0.89580367  0.42519883  0.15214621  1.0
  Ni  Ni1268  1  0.89580367  0.75853217  0.15214621  1.0
  Ni  Ni1269  1  0.22913700  0.25853217  0.22357479  1.0
  Ni  Ni1270  1  0.22913700  0.59186550  0.22357479  1.0
  Ni  Ni1271  1  0.22913700  0.92519883  0.22357479  1.0
  Ni  Ni1272  1  0.56247033  0.25853217  0.22357479  1.0
  Ni  Ni1273  1  0.56247033  0.59186550  0.22357479  1.0
  Ni  Ni1274  1  0.56247033  0.92519883  0.22357479  1.0
  Ni  Ni1275  1  0.89580367  0.25853217  0.22357479  1.0
  Ni  Ni1276  1  0.89580367  0.59186550  0.22357479  1.0
  Ni  Ni1277  1  0.89580367  0.92519883  0.22357479  1.0
  Ni  Ni1278  1  0.28123517  0.07480117  0.26536229  1.0
  Ni  Ni1279  1  0.28123517  0.40813450  0.26536229  1.0
  Ni  Ni1280  1  0.28123517  0.74146783  0.26536229  1.0
  Ni  Ni1281  1  0.61456850  0.07480117  0.26536229  1.0
  Ni  Ni1282  1  0.61456850  0.40813450  0.26536229  1.0
  Ni  Ni1283  1  0.61456850  0.74146783  0.26536229  1.0
  Ni  Ni1284  1  0.94790183  0.07480117  0.26536229  1.0
  Ni  Ni1285  1  0.94790183  0.40813450  0.26536229  1.0
  Ni  Ni1286  1  0.94790183  0.74146783  0.26536229  1.0
  Ni  Ni1287  1  0.28123517  0.24146783  0.19393371  1.0
  Ni  Ni1288  1  0.28123517  0.57480117  0.19393371  1.0
  Ni  Ni1289  1  0.28123517  0.90813450  0.19393371  1.0
  Ni  Ni1290  1  0.61456850  0.24146783  0.19393371  1.0
  Ni  Ni1291  1  0.61456850  0.57480117  0.19393371  1.0
  Ni  Ni1292  1  0.61456850  0.90813450  0.19393371  1.0
  Ni  Ni1293  1  0.94790183  0.24146783  0.19393371  1.0
  Ni  Ni1294  1  0.94790183  0.57480117  0.19393371  1.0
  Ni  Ni1295  1  0.94790183  0.90813450  0.19393371  1.0
  Ni  Ni1296  1  0.10419633  0.07480117  0.18948850  1.0
  Ni  Ni1297  1  0.10419633  0.40813450  0.18948850  1.0
  Ni  Ni1298  1  0.10419633  0.74146783  0.18948850  1.0
  Ni  Ni1299  1  0.43752967  0.07480117  0.18948850  1.0
  Ni  Ni1300  1  0.43752967  0.40813450  0.18948850  1.0
  Ni  Ni1301  1  0.43752967  0.74146783  0.18948850  1.0
  Ni  Ni1302  1  0.77086300  0.07480117  0.18948850  1.0
  Ni  Ni1303  1  0.77086300  0.40813450  0.18948850  1.0
  Ni  Ni1304  1  0.77086300  0.74146783  0.18948850  1.0
  Ni  Ni1305  1  0.10419633  0.24146783  0.26091707  1.0
  Ni  Ni1306  1  0.10419633  0.57480117  0.26091707  1.0
  Ni  Ni1307  1  0.10419633  0.90813450  0.26091707  1.0
  Ni  Ni1308  1  0.43752967  0.24146783  0.26091707  1.0
  Ni  Ni1309  1  0.43752967  0.57480117  0.26091707  1.0
  Ni  Ni1310  1  0.43752967  0.90813450  0.26091707  1.0
  Ni  Ni1311  1  0.77086300  0.24146783  0.26091707  1.0
  Ni  Ni1312  1  0.77086300  0.57480117  0.26091707  1.0
  Ni  Ni1313  1  0.77086300  0.90813450  0.26091707  1.0
  Ni  Ni1314  1  0.28123517  0.00853217  0.23696129  1.0
  Ni  Ni1315  1  0.28123517  0.34186550  0.23696129  1.0
  Ni  Ni1316  1  0.28123517  0.67519883  0.23696129  1.0
  Ni  Ni1317  1  0.61456850  0.00853217  0.23696129  1.0
  Ni  Ni1318  1  0.61456850  0.34186550  0.23696129  1.0
  Ni  Ni1319  1  0.61456850  0.67519883  0.23696129  1.0
  Ni  Ni1320  1  0.94790183  0.00853217  0.23696129  1.0
  Ni  Ni1321  1  0.94790183  0.34186550  0.23696129  1.0
  Ni  Ni1322  1  0.94790183  0.67519883  0.23696129  1.0
  Ni  Ni1323  1  0.28123517  0.17519883  0.16553271  1.0
  Ni  Ni1324  1  0.28123517  0.50853217  0.16553271  1.0
  Ni  Ni1325  1  0.28123517  0.84186550  0.16553271  1.0
  Ni  Ni1326  1  0.61456850  0.17519883  0.16553271  1.0
  Ni  Ni1327  1  0.61456850  0.50853217  0.16553271  1.0
  Ni  Ni1328  1  0.61456850  0.84186550  0.16553271  1.0
  Ni  Ni1329  1  0.94790183  0.17519883  0.16553271  1.0
  Ni  Ni1330  1  0.94790183  0.50853217  0.16553271  1.0
  Ni  Ni1331  1  0.94790183  0.84186550  0.16553271  1.0
  Ni  Ni1332  1  0.28123517  0.07480117  0.18948850  1.0
  Ni  Ni1333  1  0.28123517  0.40813450  0.18948850  1.0
  Ni  Ni1334  1  0.28123517  0.74146783  0.18948850  1.0
  Ni  Ni1335  1  0.61456850  0.07480117  0.18948850  1.0
  Ni  Ni1336  1  0.61456850  0.40813450  0.18948850  1.0
  Ni  Ni1337  1  0.61456850  0.74146783  0.18948850  1.0
  Ni  Ni1338  1  0.94790183  0.07480117  0.18948850  1.0
  Ni  Ni1339  1  0.94790183  0.40813450  0.18948850  1.0
  Ni  Ni1340  1  0.94790183  0.74146783  0.18948850  1.0
  Ni  Ni1341  1  0.28123517  0.24146783  0.26091707  1.0
  Ni  Ni1342  1  0.28123517  0.57480117  0.26091707  1.0
  Ni  Ni1343  1  0.28123517  0.90813450  0.26091707  1.0
  Ni  Ni1344  1  0.61456850  0.24146783  0.26091707  1.0
  Ni  Ni1345  1  0.61456850  0.57480117  0.26091707  1.0
  Ni  Ni1346  1  0.61456850  0.90813450  0.26091707  1.0
  Ni  Ni1347  1  0.94790183  0.24146783  0.26091707  1.0
  Ni  Ni1348  1  0.94790183  0.57480117  0.26091707  1.0
  Ni  Ni1349  1  0.94790183  0.90813450  0.26091707  1.0
  Ni  Ni1350  1  0.05209817  0.15813450  0.18054721  1.0
  Ni  Ni1351  1  0.05209817  0.49146783  0.18054721  1.0
  Ni  Ni1352  1  0.05209817  0.82480117  0.18054721  1.0
  Ni  Ni1353  1  0.38543150  0.15813450  0.18054721  1.0
  Ni  Ni1354  1  0.38543150  0.49146783  0.18054721  1.0
  Ni  Ni1355  1  0.38543150  0.82480117  0.18054721  1.0
  Ni  Ni1356  1  0.71876483  0.15813450  0.18054721  1.0
  Ni  Ni1357  1  0.71876483  0.49146783  0.18054721  1.0
  Ni  Ni1358  1  0.71876483  0.82480117  0.18054721  1.0
  Ni  Ni1359  1  0.05209817  0.32480117  0.25197579  1.0
  Ni  Ni1360  1  0.05209817  0.65813450  0.25197579  1.0
  Ni  Ni1361  1  0.05209817  0.99146783  0.25197579  1.0
  Ni  Ni1362  1  0.38543150  0.32480117  0.25197579  1.0
  Ni  Ni1363  1  0.38543150  0.65813450  0.25197579  1.0
  Ni  Ni1364  1  0.38543150  0.99146783  0.25197579  1.0
  Ni  Ni1365  1  0.71876483  0.32480117  0.25197579  1.0
  Ni  Ni1366  1  0.71876483  0.65813450  0.25197579  1.0
  Ni  Ni1367  1  0.71876483  0.99146783  0.25197579  1.0
  Ni  Ni1368  1  0.05209817  0.15813450  0.24753057  1.0
  Ni  Ni1369  1  0.05209817  0.49146783  0.24753057  1.0
  Ni  Ni1370  1  0.05209817  0.82480117  0.24753057  1.0
  Ni  Ni1371  1  0.38543150  0.15813450  0.24753057  1.0
  Ni  Ni1372  1  0.38543150  0.49146783  0.24753057  1.0
  Ni  Ni1373  1  0.38543150  0.82480117  0.24753057  1.0
  Ni  Ni1374  1  0.71876483  0.15813450  0.24753057  1.0
  Ni  Ni1375  1  0.71876483  0.49146783  0.24753057  1.0
  Ni  Ni1376  1  0.71876483  0.82480117  0.24753057  1.0
  Ni  Ni1377  1  0.05209817  0.32480117  0.17610200  1.0
  Ni  Ni1378  1  0.05209817  0.65813450  0.17610200  1.0
  Ni  Ni1379  1  0.05209817  0.99146783  0.17610200  1.0
  Ni  Ni1380  1  0.38543150  0.32480117  0.17610200  1.0
  Ni  Ni1381  1  0.38543150  0.65813450  0.17610200  1.0
  Ni  Ni1382  1  0.38543150  0.99146783  0.17610200  1.0
  Ni  Ni1383  1  0.71876483  0.32480117  0.17610200  1.0
  Ni  Ni1384  1  0.71876483  0.65813450  0.17610200  1.0
  Ni  Ni1385  1  0.71876483  0.99146783  0.17610200  1.0
  Ni  Ni1386  1  0.22913700  0.15813450  0.18054721  1.0
  Ni  Ni1387  1  0.22913700  0.49146783  0.18054721  1.0
  Ni  Ni1388  1  0.22913700  0.82480117  0.18054721  1.0
  Ni  Ni1389  1  0.56247033  0.15813450  0.18054721  1.0
  Ni  Ni1390  1  0.56247033  0.49146783  0.18054721  1.0
  Ni  Ni1391  1  0.56247033  0.82480117  0.18054721  1.0
  Ni  Ni1392  1  0.89580367  0.15813450  0.18054721  1.0
  Ni  Ni1393  1  0.89580367  0.49146783  0.18054721  1.0
  Ni  Ni1394  1  0.89580367  0.82480117  0.18054721  1.0
  Ni  Ni1395  1  0.22913700  0.32480117  0.25197579  1.0
  Ni  Ni1396  1  0.22913700  0.65813450  0.25197579  1.0
  Ni  Ni1397  1  0.22913700  0.99146783  0.25197579  1.0
  Ni  Ni1398  1  0.56247033  0.32480117  0.25197579  1.0
  Ni  Ni1399  1  0.56247033  0.65813450  0.25197579  1.0
  Ni  Ni1400  1  0.56247033  0.99146783  0.25197579  1.0
  Ni  Ni1401  1  0.89580367  0.32480117  0.25197579  1.0
  Ni  Ni1402  1  0.89580367  0.65813450  0.25197579  1.0
  Ni  Ni1403  1  0.89580367  0.99146783  0.25197579  1.0
  Ni  Ni1404  1  0.27741067  0.10826367  0.27642521  1.0
  Ni  Ni1405  1  0.27741067  0.44159700  0.27642521  1.0
  Ni  Ni1406  1  0.27741067  0.77493033  0.27642521  1.0
  Ni  Ni1407  1  0.61074400  0.10826367  0.27642521  1.0
  Ni  Ni1408  1  0.61074400  0.44159700  0.27642521  1.0
  Ni  Ni1409  1  0.61074400  0.77493033  0.27642521  1.0
  Ni  Ni1410  1  0.94407733  0.10826367  0.27642521  1.0
  Ni  Ni1411  1  0.94407733  0.44159700  0.27642521  1.0
  Ni  Ni1412  1  0.94407733  0.77493033  0.27642521  1.0
  Ni  Ni1413  1  0.27741067  0.27493033  0.20499664  1.0
  Ni  Ni1414  1  0.27741067  0.60826367  0.20499664  1.0
  Ni  Ni1415  1  0.27741067  0.94159700  0.20499664  1.0
  Ni  Ni1416  1  0.61074400  0.27493033  0.20499664  1.0
  Ni  Ni1417  1  0.61074400  0.60826367  0.20499664  1.0
  Ni  Ni1418  1  0.61074400  0.94159700  0.20499664  1.0
  Ni  Ni1419  1  0.94407733  0.27493033  0.20499664  1.0
  Ni  Ni1420  1  0.94407733  0.60826367  0.20499664  1.0
  Ni  Ni1421  1  0.94407733  0.94159700  0.20499664  1.0
  Ni  Ni1422  1  0.22148800  0.02493033  0.26467779  1.0
  Ni  Ni1423  1  0.22148800  0.35826367  0.26467779  1.0
  Ni  Ni1424  1  0.22148800  0.69159700  0.26467779  1.0
  Ni  Ni1425  1  0.55482133  0.02493033  0.26467779  1.0
  Ni  Ni1426  1  0.55482133  0.35826367  0.26467779  1.0
  Ni  Ni1427  1  0.55482133  0.69159700  0.26467779  1.0
  Ni  Ni1428  1  0.88815467  0.02493033  0.26467779  1.0
  Ni  Ni1429  1  0.88815467  0.35826367  0.26467779  1.0
  Ni  Ni1430  1  0.88815467  0.69159700  0.26467779  1.0
  Ni  Ni1431  1  0.22148800  0.19159700  0.19324921  1.0
  Ni  Ni1432  1  0.22148800  0.52493033  0.19324921  1.0
  Ni  Ni1433  1  0.22148800  0.85826367  0.19324921  1.0
  Ni  Ni1434  1  0.55482133  0.19159700  0.19324921  1.0
  Ni  Ni1435  1  0.55482133  0.52493033  0.19324921  1.0
  Ni  Ni1436  1  0.55482133  0.85826367  0.19324921  1.0
  Ni  Ni1437  1  0.88815467  0.19159700  0.19324921  1.0
  Ni  Ni1438  1  0.88815467  0.52493033  0.19324921  1.0
  Ni  Ni1439  1  0.88815467  0.85826367  0.19324921  1.0
  Hf  Hf1440  1  0.11111111  0.07564217  0.40561638  1.0
  Hf  Hf1441  1  0.11111111  0.40897550  0.40561638  1.0
  Hf  Hf1442  1  0.11111111  0.74230883  0.40561638  1.0
  Hf  Hf1443  1  0.44444444  0.07564217  0.40561638  1.0
  Hf  Hf1444  1  0.44444444  0.40897550  0.40561638  1.0
  Hf  Hf1445  1  0.44444444  0.74230883  0.40561638  1.0
  Hf  Hf1446  1  0.77777778  0.07564217  0.40561638  1.0
  Hf  Hf1447  1  0.77777778  0.40897550  0.40561638  1.0
  Hf  Hf1448  1  0.77777778  0.74230883  0.40561638  1.0
  Hf  Hf1449  1  0.11111111  0.24230883  0.33418781  1.0
  Hf  Hf1450  1  0.11111111  0.57564217  0.33418781  1.0
  Hf  Hf1451  1  0.11111111  0.90897550  0.33418781  1.0
  Hf  Hf1452  1  0.44444444  0.24230883  0.33418781  1.0
  Hf  Hf1453  1  0.44444444  0.57564217  0.33418781  1.0
  Hf  Hf1454  1  0.44444444  0.90897550  0.33418781  1.0
  Hf  Hf1455  1  0.77777778  0.24230883  0.33418781  1.0
  Hf  Hf1456  1  0.77777778  0.57564217  0.33418781  1.0
  Hf  Hf1457  1  0.77777778  0.90897550  0.33418781  1.0
  Hf  Hf1458  1  0.22222222  0.15897550  0.39371162  1.0
  Hf  Hf1459  1  0.22222222  0.49230883  0.39371162  1.0
  Hf  Hf1460  1  0.22222222  0.82564217  0.39371162  1.0
  Hf  Hf1461  1  0.55555556  0.15897550  0.39371162  1.0
  Hf  Hf1462  1  0.55555556  0.49230883  0.39371162  1.0
  Hf  Hf1463  1  0.55555556  0.82564217  0.39371162  1.0
  Hf  Hf1464  1  0.88888889  0.15897550  0.39371162  1.0
  Hf  Hf1465  1  0.88888889  0.49230883  0.39371162  1.0
  Hf  Hf1466  1  0.88888889  0.82564217  0.39371162  1.0
  Hf  Hf1467  1  0.22222222  0.32564217  0.32228305  1.0
  Hf  Hf1468  1  0.22222222  0.65897550  0.32228305  1.0
  Hf  Hf1469  1  0.22222222  0.99230883  0.32228305  1.0
  Hf  Hf1470  1  0.55555556  0.32564217  0.32228305  1.0
  Hf  Hf1471  1  0.55555556  0.65897550  0.32228305  1.0
  Hf  Hf1472  1  0.55555556  0.99230883  0.32228305  1.0
  Hf  Hf1473  1  0.88888889  0.32564217  0.32228305  1.0
  Hf  Hf1474  1  0.88888889  0.65897550  0.32228305  1.0
  Hf  Hf1475  1  0.88888889  0.99230883  0.32228305  1.0
  Hf  Hf1476  1  0.22222222  0.09102450  0.36458976  1.0
  Hf  Hf1477  1  0.22222222  0.42435783  0.36458976  1.0
  Hf  Hf1478  1  0.22222222  0.75769117  0.36458976  1.0
  Hf  Hf1479  1  0.55555556  0.09102450  0.36458976  1.0
  Hf  Hf1480  1  0.55555556  0.42435783  0.36458976  1.0
  Hf  Hf1481  1  0.55555556  0.75769117  0.36458976  1.0
  Hf  Hf1482  1  0.88888889  0.09102450  0.36458976  1.0
  Hf  Hf1483  1  0.88888889  0.42435783  0.36458976  1.0
  Hf  Hf1484  1  0.88888889  0.75769117  0.36458976  1.0
  Hf  Hf1485  1  0.22222222  0.25769117  0.29316119  1.0
  Hf  Hf1486  1  0.22222222  0.59102450  0.29316119  1.0
  Hf  Hf1487  1  0.22222222  0.92435783  0.29316119  1.0
  Hf  Hf1488  1  0.55555556  0.25769117  0.29316119  1.0
  Hf  Hf1489  1  0.55555556  0.59102450  0.29316119  1.0
  Hf  Hf1490  1  0.55555556  0.92435783  0.29316119  1.0
  Hf  Hf1491  1  0.88888889  0.25769117  0.29316119  1.0
  Hf  Hf1492  1  0.88888889  0.59102450  0.29316119  1.0
  Hf  Hf1493  1  0.88888889  0.92435783  0.29316119  1.0
  Hf  Hf1494  1  0.11111111  0.00769117  0.37649452  1.0
  Hf  Hf1495  1  0.11111111  0.34102450  0.37649452  1.0
  Hf  Hf1496  1  0.11111111  0.67435783  0.37649452  1.0
  Hf  Hf1497  1  0.44444444  0.00769117  0.37649452  1.0
  Hf  Hf1498  1  0.44444444  0.34102450  0.37649452  1.0
  Hf  Hf1499  1  0.44444444  0.67435783  0.37649452  1.0
  Hf  Hf1500  1  0.77777778  0.00769117  0.37649452  1.0
  Hf  Hf1501  1  0.77777778  0.34102450  0.37649452  1.0
  Hf  Hf1502  1  0.77777778  0.67435783  0.37649452  1.0
  Hf  Hf1503  1  0.11111111  0.17435783  0.30506595  1.0
  Hf  Hf1504  1  0.11111111  0.50769117  0.30506595  1.0
  Hf  Hf1505  1  0.11111111  0.84102450  0.30506595  1.0
  Hf  Hf1506  1  0.44444444  0.17435783  0.30506595  1.0
  Hf  Hf1507  1  0.44444444  0.50769117  0.30506595  1.0
  Hf  Hf1508  1  0.44444444  0.84102450  0.30506595  1.0
  Hf  Hf1509  1  0.77777778  0.17435783  0.30506595  1.0
  Hf  Hf1510  1  0.77777778  0.50769117  0.30506595  1.0
  Hf  Hf1511  1  0.77777778  0.84102450  0.30506595  1.0
  Hf  Hf1512  1  0.11111111  0.10851117  0.41970310  1.0
  Hf  Hf1513  1  0.11111111  0.44184450  0.41970310  1.0
  Hf  Hf1514  1  0.11111111  0.77517783  0.41970310  1.0
  Hf  Hf1515  1  0.44444444  0.10851117  0.41970310  1.0
  Hf  Hf1516  1  0.44444444  0.44184450  0.41970310  1.0
  Hf  Hf1517  1  0.44444444  0.77517783  0.41970310  1.0
  Hf  Hf1518  1  0.77777778  0.10851117  0.41970310  1.0
  Hf  Hf1519  1  0.77777778  0.44184450  0.41970310  1.0
  Hf  Hf1520  1  0.77777778  0.77517783  0.41970310  1.0
  Hf  Hf1521  1  0.11111111  0.27517783  0.34827452  1.0
  Hf  Hf1522  1  0.11111111  0.60851117  0.34827452  1.0
  Hf  Hf1523  1  0.11111111  0.94184450  0.34827452  1.0
  Hf  Hf1524  1  0.44444444  0.27517783  0.34827452  1.0
  Hf  Hf1525  1  0.44444444  0.60851117  0.34827452  1.0
  Hf  Hf1526  1  0.44444444  0.94184450  0.34827452  1.0
  Hf  Hf1527  1  0.77777778  0.27517783  0.34827452  1.0
  Hf  Hf1528  1  0.77777778  0.60851117  0.34827452  1.0
  Hf  Hf1529  1  0.77777778  0.94184450  0.34827452  1.0
  Hf  Hf1530  1  0.22222222  0.02517783  0.33636976  1.0
  Hf  Hf1531  1  0.22222222  0.35851117  0.33636976  1.0
  Hf  Hf1532  1  0.22222222  0.69184450  0.33636976  1.0
  Hf  Hf1533  1  0.55555556  0.02517783  0.33636976  1.0
  Hf  Hf1534  1  0.55555556  0.35851117  0.33636976  1.0
  Hf  Hf1535  1  0.55555556  0.69184450  0.33636976  1.0
  Hf  Hf1536  1  0.88888889  0.02517783  0.33636976  1.0
  Hf  Hf1537  1  0.88888889  0.35851117  0.33636976  1.0
  Hf  Hf1538  1  0.88888889  0.69184450  0.33636976  1.0
  Hf  Hf1539  1  0.22222222  0.19184450  0.40779833  1.0
  Hf  Hf1540  1  0.22222222  0.52517783  0.40779833  1.0
  Hf  Hf1541  1  0.22222222  0.85851117  0.40779833  1.0
  Hf  Hf1542  1  0.55555556  0.19184450  0.40779833  1.0
  Hf  Hf1543  1  0.55555556  0.52517783  0.40779833  1.0
  Hf  Hf1544  1  0.55555556  0.85851117  0.40779833  1.0
  Hf  Hf1545  1  0.88888889  0.19184450  0.40779833  1.0
  Hf  Hf1546  1  0.88888889  0.52517783  0.40779833  1.0
  Hf  Hf1547  1  0.88888889  0.85851117  0.40779833  1.0
  Hf  Hf1548  1  0.22222222  0.05815550  0.35050305  1.0
  Hf  Hf1549  1  0.22222222  0.39148883  0.35050305  1.0
  Hf  Hf1550  1  0.22222222  0.72482217  0.35050305  1.0
  Hf  Hf1551  1  0.55555556  0.05815550  0.35050305  1.0
  Hf  Hf1552  1  0.55555556  0.39148883  0.35050305  1.0
  Hf  Hf1553  1  0.55555556  0.72482217  0.35050305  1.0
  Hf  Hf1554  1  0.88888889  0.05815550  0.35050305  1.0
  Hf  Hf1555  1  0.88888889  0.39148883  0.35050305  1.0
  Hf  Hf1556  1  0.88888889  0.72482217  0.35050305  1.0
  Hf  Hf1557  1  0.22222222  0.22482217  0.42193162  1.0
  Hf  Hf1558  1  0.22222222  0.55815550  0.42193162  1.0
  Hf  Hf1559  1  0.22222222  0.89148883  0.42193162  1.0
  Hf  Hf1560  1  0.55555556  0.22482217  0.42193162  1.0
  Hf  Hf1561  1  0.55555556  0.55815550  0.42193162  1.0
  Hf  Hf1562  1  0.55555556  0.89148883  0.42193162  1.0
  Hf  Hf1563  1  0.88888889  0.22482217  0.42193162  1.0
  Hf  Hf1564  1  0.88888889  0.55815550  0.42193162  1.0
  Hf  Hf1565  1  0.88888889  0.89148883  0.42193162  1.0
  Hf  Hf1566  1  0.11111111  0.14148883  0.29097924  1.0
  Hf  Hf1567  1  0.11111111  0.47482217  0.29097924  1.0
  Hf  Hf1568  1  0.11111111  0.80815550  0.29097924  1.0
  Hf  Hf1569  1  0.44444444  0.14148883  0.29097924  1.0
  Hf  Hf1570  1  0.44444444  0.47482217  0.29097924  1.0
  Hf  Hf1571  1  0.44444444  0.80815550  0.29097924  1.0
  Hf  Hf1572  1  0.77777778  0.14148883  0.29097924  1.0
  Hf  Hf1573  1  0.77777778  0.47482217  0.29097924  1.0
  Hf  Hf1574  1  0.77777778  0.80815550  0.29097924  1.0
  Hf  Hf1575  1  0.11111111  0.30815550  0.36240781  1.0
  Hf  Hf1576  1  0.11111111  0.64148883  0.36240781  1.0
  Hf  Hf1577  1  0.11111111  0.97482217  0.36240781  1.0
  Hf  Hf1578  1  0.44444444  0.30815550  0.36240781  1.0
  Hf  Hf1579  1  0.44444444  0.64148883  0.36240781  1.0
  Hf  Hf1580  1  0.44444444  0.97482217  0.36240781  1.0
  Hf  Hf1581  1  0.77777778  0.30815550  0.36240781  1.0
  Hf  Hf1582  1  0.77777778  0.64148883  0.36240781  1.0
  Hf  Hf1583  1  0.77777778  0.97482217  0.36240781  1.0
  Hf  Hf1584  1  0.00000000  0.04166667  0.29581736  1.0
  Hf  Hf1585  1  0.00000000  0.37500000  0.29581736  1.0
  Hf  Hf1586  1  0.00000000  0.70833333  0.29581736  1.0
  Hf  Hf1587  1  0.33333333  0.04166667  0.29581736  1.0
  Hf  Hf1588  1  0.33333333  0.37500000  0.29581736  1.0
  Hf  Hf1589  1  0.33333333  0.70833333  0.29581736  1.0
  Hf  Hf1590  1  0.66666667  0.04166667  0.29581736  1.0
  Hf  Hf1591  1  0.66666667  0.37500000  0.29581736  1.0
  Hf  Hf1592  1  0.66666667  0.70833333  0.29581736  1.0
  Hf  Hf1593  1  0.00000000  0.20833333  0.36724593  1.0
  Hf  Hf1594  1  0.00000000  0.54166667  0.36724593  1.0
  Hf  Hf1595  1  0.00000000  0.87500000  0.36724593  1.0
  Hf  Hf1596  1  0.33333333  0.20833333  0.36724593  1.0
  Hf  Hf1597  1  0.33333333  0.54166667  0.36724593  1.0
  Hf  Hf1598  1  0.33333333  0.87500000  0.36724593  1.0
  Hf  Hf1599  1  0.66666667  0.20833333  0.36724593  1.0
  Hf  Hf1600  1  0.66666667  0.54166667  0.36724593  1.0
  Hf  Hf1601  1  0.66666667  0.87500000  0.36724593  1.0
  Hf  Hf1602  1  0.00000000  0.12500000  0.33153164  1.0
  Hf  Hf1603  1  0.00000000  0.45833333  0.33153164  1.0
  Hf  Hf1604  1  0.00000000  0.79166667  0.33153164  1.0
  Hf  Hf1605  1  0.33333333  0.12500000  0.33153164  1.0
  Hf  Hf1606  1  0.33333333  0.45833333  0.33153164  1.0
  Hf  Hf1607  1  0.33333333  0.79166667  0.33153164  1.0
  Hf  Hf1608  1  0.66666667  0.12500000  0.33153164  1.0
  Hf  Hf1609  1  0.66666667  0.45833333  0.33153164  1.0
  Hf  Hf1610  1  0.66666667  0.79166667  0.33153164  1.0
  Hf  Hf1611  1  0.00000000  0.29166667  0.40296021  1.0
  Hf  Hf1612  1  0.00000000  0.62500000  0.40296021  1.0
  Hf  Hf1613  1  0.00000000  0.95833333  0.40296021  1.0
  Hf  Hf1614  1  0.33333333  0.29166667  0.40296021  1.0
  Hf  Hf1615  1  0.33333333  0.62500000  0.40296021  1.0
  Hf  Hf1616  1  0.33333333  0.95833333  0.40296021  1.0
  Hf  Hf1617  1  0.66666667  0.29166667  0.40296021  1.0
  Hf  Hf1618  1  0.66666667  0.62500000  0.40296021  1.0
  Hf  Hf1619  1  0.66666667  0.95833333  0.40296021  1.0
  Ni  Ni1620  1  0.11184533  0.14173633  0.36267121  1.0
  Ni  Ni1621  1  0.11184533  0.47506967  0.36267121  1.0
  Ni  Ni1622  1  0.11184533  0.80840300  0.36267121  1.0
  Ni  Ni1623  1  0.44517867  0.14173633  0.36267121  1.0
  Ni  Ni1624  1  0.44517867  0.47506967  0.36267121  1.0
  Ni  Ni1625  1  0.44517867  0.80840300  0.36267121  1.0
  Ni  Ni1626  1  0.77851200  0.14173633  0.36267121  1.0
  Ni  Ni1627  1  0.77851200  0.47506967  0.36267121  1.0
  Ni  Ni1628  1  0.77851200  0.80840300  0.36267121  1.0
  Ni  Ni1629  1  0.11184533  0.30840300  0.29124264  1.0
  Ni  Ni1630  1  0.11184533  0.64173633  0.29124264  1.0
  Ni  Ni1631  1  0.11184533  0.97506967  0.29124264  1.0
  Ni  Ni1632  1  0.44517867  0.30840300  0.29124264  1.0
  Ni  Ni1633  1  0.44517867  0.64173633  0.29124264  1.0
  Ni  Ni1634  1  0.44517867  0.97506967  0.29124264  1.0
  Ni  Ni1635  1  0.77851200  0.30840300  0.29124264  1.0
  Ni  Ni1636  1  0.77851200  0.64173633  0.29124264  1.0
  Ni  Ni1637  1  0.77851200  0.97506967  0.29124264  1.0
  Ni  Ni1638  1  0.27741067  0.14173633  0.29077064  1.0
  Ni  Ni1639  1  0.27741067  0.47506967  0.29077064  1.0
  Ni  Ni1640  1  0.27741067  0.80840300  0.29077064  1.0
  Ni  Ni1641  1  0.61074400  0.14173633  0.29077064  1.0
  Ni  Ni1642  1  0.61074400  0.47506967  0.29077064  1.0
  Ni  Ni1643  1  0.61074400  0.80840300  0.29077064  1.0
  Ni  Ni1644  1  0.94407733  0.14173633  0.29077064  1.0
  Ni  Ni1645  1  0.94407733  0.47506967  0.29077064  1.0
  Ni  Ni1646  1  0.94407733  0.80840300  0.29077064  1.0
  Ni  Ni1647  1  0.27741067  0.30840300  0.36219921  1.0
  Ni  Ni1648  1  0.27741067  0.64173633  0.36219921  1.0
  Ni  Ni1649  1  0.27741067  0.97506967  0.36219921  1.0
  Ni  Ni1650  1  0.61074400  0.30840300  0.36219921  1.0
  Ni  Ni1651  1  0.61074400  0.64173633  0.36219921  1.0
  Ni  Ni1652  1  0.61074400  0.97506967  0.36219921  1.0
  Ni  Ni1653  1  0.94407733  0.30840300  0.36219921  1.0
  Ni  Ni1654  1  0.94407733  0.64173633  0.36219921  1.0
  Ni  Ni1655  1  0.94407733  0.97506967  0.36219921  1.0
  Ni  Ni1656  1  0.27741067  0.14173633  0.36267121  1.0
  Ni  Ni1657  1  0.27741067  0.47506967  0.36267121  1.0
  Ni  Ni1658  1  0.27741067  0.80840300  0.36267121  1.0
  Ni  Ni1659  1  0.61074400  0.14173633  0.36267121  1.0
  Ni  Ni1660  1  0.61074400  0.47506967  0.36267121  1.0
  Ni  Ni1661  1  0.61074400  0.80840300  0.36267121  1.0
  Ni  Ni1662  1  0.94407733  0.14173633  0.36267121  1.0
  Ni  Ni1663  1  0.94407733  0.47506967  0.36267121  1.0
  Ni  Ni1664  1  0.94407733  0.80840300  0.36267121  1.0
  Ni  Ni1665  1  0.27741067  0.30840300  0.29124264  1.0
  Ni  Ni1666  1  0.27741067  0.64173633  0.29124264  1.0
  Ni  Ni1667  1  0.27741067  0.97506967  0.29124264  1.0
  Ni  Ni1668  1  0.61074400  0.30840300  0.29124264  1.0
  Ni  Ni1669  1  0.61074400  0.64173633  0.29124264  1.0
  Ni  Ni1670  1  0.61074400  0.97506967  0.29124264  1.0
  Ni  Ni1671  1  0.94407733  0.30840300  0.29124264  1.0
  Ni  Ni1672  1  0.94407733  0.64173633  0.29124264  1.0
  Ni  Ni1673  1  0.94407733  0.97506967  0.29124264  1.0
  Ni  Ni1674  1  0.05592267  0.05840300  0.42188036  1.0
  Ni  Ni1675  1  0.05592267  0.39173633  0.42188036  1.0
  Ni  Ni1676  1  0.05592267  0.72506967  0.42188036  1.0
  Ni  Ni1677  1  0.38925600  0.05840300  0.42188036  1.0
  Ni  Ni1678  1  0.38925600  0.39173633  0.42188036  1.0
  Ni  Ni1679  1  0.38925600  0.72506967  0.42188036  1.0
  Ni  Ni1680  1  0.72258933  0.05840300  0.42188036  1.0
  Ni  Ni1681  1  0.72258933  0.39173633  0.42188036  1.0
  Ni  Ni1682  1  0.72258933  0.72506967  0.42188036  1.0
  Ni  Ni1683  1  0.05592267  0.22506967  0.35045179  1.0
  Ni  Ni1684  1  0.05592267  0.55840300  0.35045179  1.0
  Ni  Ni1685  1  0.05592267  0.89173633  0.35045179  1.0
  Ni  Ni1686  1  0.38925600  0.22506967  0.35045179  1.0
  Ni  Ni1687  1  0.38925600  0.55840300  0.35045179  1.0
  Ni  Ni1688  1  0.38925600  0.89173633  0.35045179  1.0
  Ni  Ni1689  1  0.72258933  0.22506967  0.35045179  1.0
  Ni  Ni1690  1  0.72258933  0.55840300  0.35045179  1.0
  Ni  Ni1691  1  0.72258933  0.89173633  0.35045179  1.0
  Ni  Ni1692  1  0.05592267  0.02493033  0.33657836  1.0
  Ni  Ni1693  1  0.05592267  0.35826367  0.33657836  1.0
  Ni  Ni1694  1  0.05592267  0.69159700  0.33657836  1.0
  Ni  Ni1695  1  0.38925600  0.02493033  0.33657836  1.0
  Ni  Ni1696  1  0.38925600  0.35826367  0.33657836  1.0
  Ni  Ni1697  1  0.38925600  0.69159700  0.33657836  1.0
  Ni  Ni1698  1  0.72258933  0.02493033  0.33657836  1.0
  Ni  Ni1699  1  0.72258933  0.35826367  0.33657836  1.0
  Ni  Ni1700  1  0.72258933  0.69159700  0.33657836  1.0
  Ni  Ni1701  1  0.05592267  0.19159700  0.40800693  1.0
  Ni  Ni1702  1  0.05592267  0.52493033  0.40800693  1.0
  Ni  Ni1703  1  0.05592267  0.85826367  0.40800693  1.0
  Ni  Ni1704  1  0.38925600  0.19159700  0.40800693  1.0
  Ni  Ni1705  1  0.38925600  0.52493033  0.40800693  1.0
  Ni  Ni1706  1  0.38925600  0.85826367  0.40800693  1.0
  Ni  Ni1707  1  0.72258933  0.19159700  0.40800693  1.0
  Ni  Ni1708  1  0.72258933  0.52493033  0.40800693  1.0
  Ni  Ni1709  1  0.72258933  0.85826367  0.40800693  1.0
  Ni  Ni1710  1  0.22148800  0.05840300  0.42188036  1.0
  Ni  Ni1711  1  0.22148800  0.39173633  0.42188036  1.0
  Ni  Ni1712  1  0.22148800  0.72506967  0.42188036  1.0
  Ni  Ni1713  1  0.55482133  0.05840300  0.42188036  1.0
  Ni  Ni1714  1  0.55482133  0.39173633  0.42188036  1.0
  Ni  Ni1715  1  0.55482133  0.72506967  0.42188036  1.0
  Ni  Ni1716  1  0.88815467  0.05840300  0.42188036  1.0
  Ni  Ni1717  1  0.88815467  0.39173633  0.42188036  1.0
  Ni  Ni1718  1  0.88815467  0.72506967  0.42188036  1.0
  Ni  Ni1719  1  0.22148800  0.22506967  0.35045179  1.0
  Ni  Ni1720  1  0.22148800  0.55840300  0.35045179  1.0
  Ni  Ni1721  1  0.22148800  0.89173633  0.35045179  1.0
  Ni  Ni1722  1  0.55482133  0.22506967  0.35045179  1.0
  Ni  Ni1723  1  0.55482133  0.55840300  0.35045179  1.0
  Ni  Ni1724  1  0.55482133  0.89173633  0.35045179  1.0
  Ni  Ni1725  1  0.88815467  0.22506967  0.35045179  1.0
  Ni  Ni1726  1  0.88815467  0.55840300  0.35045179  1.0
  Ni  Ni1727  1  0.88815467  0.89173633  0.35045179  1.0
  Ni  Ni1728  1  0.05592267  0.05840300  0.35092379  1.0
  Ni  Ni1729  1  0.05592267  0.39173633  0.35092379  1.0
  Ni  Ni1730  1  0.05592267  0.72506967  0.35092379  1.0
  Ni  Ni1731  1  0.38925600  0.05840300  0.35092379  1.0
  Ni  Ni1732  1  0.38925600  0.39173633  0.35092379  1.0
  Ni  Ni1733  1  0.38925600  0.72506967  0.35092379  1.0
  Ni  Ni1734  1  0.72258933  0.05840300  0.35092379  1.0
  Ni  Ni1735  1  0.72258933  0.39173633  0.35092379  1.0
  Ni  Ni1736  1  0.72258933  0.72506967  0.35092379  1.0
  Ni  Ni1737  1  0.05592267  0.22506967  0.42235236  1.0
  Ni  Ni1738  1  0.05592267  0.55840300  0.42235236  1.0
  Ni  Ni1739  1  0.05592267  0.89173633  0.42235236  1.0
  Ni  Ni1740  1  0.38925600  0.22506967  0.42235236  1.0
  Ni  Ni1741  1  0.38925600  0.55840300  0.42235236  1.0
  Ni  Ni1742  1  0.38925600  0.89173633  0.42235236  1.0
  Ni  Ni1743  1  0.72258933  0.22506967  0.42235236  1.0
  Ni  Ni1744  1  0.72258933  0.55840300  0.42235236  1.0
  Ni  Ni1745  1  0.72258933  0.89173633  0.42235236  1.0
  Ni  Ni1746  1  0.11184533  0.10826367  0.34832579  1.0
  Ni  Ni1747  1  0.11184533  0.44159700  0.34832579  1.0
  Ni  Ni1748  1  0.11184533  0.77493033  0.34832579  1.0
  Ni  Ni1749  1  0.44517867  0.10826367  0.34832579  1.0
  Ni  Ni1750  1  0.44517867  0.44159700  0.34832579  1.0
  Ni  Ni1751  1  0.44517867  0.77493033  0.34832579  1.0
  Ni  Ni1752  1  0.77851200  0.10826367  0.34832579  1.0
  Ni  Ni1753  1  0.77851200  0.44159700  0.34832579  1.0
  Ni  Ni1754  1  0.77851200  0.77493033  0.34832579  1.0
  Ni  Ni1755  1  0.11184533  0.27493033  0.41975436  1.0
  Ni  Ni1756  1  0.11184533  0.60826367  0.41975436  1.0
  Ni  Ni1757  1  0.11184533  0.94159700  0.41975436  1.0
  Ni  Ni1758  1  0.44517867  0.27493033  0.41975436  1.0
  Ni  Ni1759  1  0.44517867  0.60826367  0.41975436  1.0
  Ni  Ni1760  1  0.44517867  0.94159700  0.41975436  1.0
  Ni  Ni1761  1  0.77851200  0.27493033  0.41975436  1.0
  Ni  Ni1762  1  0.77851200  0.60826367  0.41975436  1.0
  Ni  Ni1763  1  0.77851200  0.94159700  0.41975436  1.0
  Ni  Ni1764  1  0.27741067  0.10826367  0.34832579  1.0
  Ni  Ni1765  1  0.27741067  0.44159700  0.34832579  1.0
  Ni  Ni1766  1  0.27741067  0.77493033  0.34832579  1.0
  Ni  Ni1767  1  0.61074400  0.10826367  0.34832579  1.0
  Ni  Ni1768  1  0.61074400  0.44159700  0.34832579  1.0
  Ni  Ni1769  1  0.61074400  0.77493033  0.34832579  1.0
  Ni  Ni1770  1  0.94407733  0.10826367  0.34832579  1.0
  Ni  Ni1771  1  0.94407733  0.44159700  0.34832579  1.0
  Ni  Ni1772  1  0.94407733  0.77493033  0.34832579  1.0
  Ni  Ni1773  1  0.27741067  0.27493033  0.41975436  1.0
  Ni  Ni1774  1  0.27741067  0.60826367  0.41975436  1.0
  Ni  Ni1775  1  0.27741067  0.94159700  0.41975436  1.0
  Ni  Ni1776  1  0.61074400  0.27493033  0.41975436  1.0
  Ni  Ni1777  1  0.61074400  0.60826367  0.41975436  1.0
  Ni  Ni1778  1  0.61074400  0.94159700  0.41975436  1.0
  Ni  Ni1779  1  0.94407733  0.27493033  0.41975436  1.0
  Ni  Ni1780  1  0.94407733  0.60826367  0.41975436  1.0
  Ni  Ni1781  1  0.94407733  0.94159700  0.41975436  1.0
  Ni  Ni1782  1  0.05592267  0.02493033  0.40753493  1.0
  Ni  Ni1783  1  0.05592267  0.35826367  0.40753493  1.0
  Ni  Ni1784  1  0.05592267  0.69159700  0.40753493  1.0
  Ni  Ni1785  1  0.38925600  0.02493033  0.40753493  1.0
  Ni  Ni1786  1  0.38925600  0.35826367  0.40753493  1.0
  Ni  Ni1787  1  0.38925600  0.69159700  0.40753493  1.0
  Ni  Ni1788  1  0.72258933  0.02493033  0.40753493  1.0
  Ni  Ni1789  1  0.72258933  0.35826367  0.40753493  1.0
  Ni  Ni1790  1  0.72258933  0.69159700  0.40753493  1.0
  Ni  Ni1791  1  0.05592267  0.19159700  0.33610636  1.0
  Ni  Ni1792  1  0.05592267  0.52493033  0.33610636  1.0
  Ni  Ni1793  1  0.05592267  0.85826367  0.33610636  1.0
  Ni  Ni1794  1  0.38925600  0.19159700  0.33610636  1.0
  Ni  Ni1795  1  0.38925600  0.52493033  0.33610636  1.0
  Ni  Ni1796  1  0.38925600  0.85826367  0.33610636  1.0
  Ni  Ni1797  1  0.72258933  0.19159700  0.33610636  1.0
  Ni  Ni1798  1  0.72258933  0.52493033  0.33610636  1.0
  Ni  Ni1799  1  0.72258933  0.85826367  0.33610636  1.0
  Ni  Ni1800  1  0.17021750  0.12500000  0.33457521  1.0
  Ni  Ni1801  1  0.17021750  0.45833333  0.33457521  1.0
  Ni  Ni1802  1  0.17021750  0.79166667  0.33457521  1.0
  Ni  Ni1803  1  0.50355083  0.12500000  0.33457521  1.0
  Ni  Ni1804  1  0.50355083  0.45833333  0.33457521  1.0
  Ni  Ni1805  1  0.50355083  0.79166667  0.33457521  1.0
  Ni  Ni1806  1  0.83688417  0.12500000  0.33457521  1.0
  Ni  Ni1807  1  0.83688417  0.45833333  0.33457521  1.0
  Ni  Ni1808  1  0.83688417  0.79166667  0.33457521  1.0
  Ni  Ni1809  1  0.17021750  0.29166667  0.40600379  1.0
  Ni  Ni1810  1  0.17021750  0.62500000  0.40600379  1.0
  Ni  Ni1811  1  0.17021750  0.95833333  0.40600379  1.0
  Ni  Ni1812  1  0.50355083  0.29166667  0.40600379  1.0
  Ni  Ni1813  1  0.50355083  0.62500000  0.40600379  1.0
  Ni  Ni1814  1  0.50355083  0.95833333  0.40600379  1.0
  Ni  Ni1815  1  0.83688417  0.29166667  0.40600379  1.0
  Ni  Ni1816  1  0.83688417  0.62500000  0.40600379  1.0
  Ni  Ni1817  1  0.83688417  0.95833333  0.40600379  1.0
  Ni  Ni1818  1  0.00710167  0.04166667  0.36876771  1.0
  Ni  Ni1819  1  0.00710167  0.37500000  0.36876771  1.0
  Ni  Ni1820  1  0.00710167  0.70833333  0.36876771  1.0
  Ni  Ni1821  1  0.34043500  0.04166667  0.36876771  1.0
  Ni  Ni1822  1  0.34043500  0.37500000  0.36876771  1.0
  Ni  Ni1823  1  0.34043500  0.70833333  0.36876771  1.0
  Ni  Ni1824  1  0.67376833  0.04166667  0.36876771  1.0
  Ni  Ni1825  1  0.67376833  0.37500000  0.36876771  1.0
  Ni  Ni1826  1  0.67376833  0.70833333  0.36876771  1.0
  Ni  Ni1827  1  0.00710167  0.20833333  0.29733914  1.0
  Ni  Ni1828  1  0.00710167  0.54166667  0.29733914  1.0
  Ni  Ni1829  1  0.00710167  0.87500000  0.29733914  1.0
  Ni  Ni1830  1  0.34043500  0.20833333  0.29733914  1.0
  Ni  Ni1831  1  0.34043500  0.54166667  0.29733914  1.0
  Ni  Ni1832  1  0.34043500  0.87500000  0.29733914  1.0
  Ni  Ni1833  1  0.67376833  0.20833333  0.29733914  1.0
  Ni  Ni1834  1  0.67376833  0.54166667  0.29733914  1.0
  Ni  Ni1835  1  0.67376833  0.87500000  0.29733914  1.0
  Ni  Ni1836  1  0.16311583  0.04166667  0.36876771  1.0
  Ni  Ni1837  1  0.16311583  0.37500000  0.36876771  1.0
  Ni  Ni1838  1  0.16311583  0.70833333  0.36876771  1.0
  Ni  Ni1839  1  0.49644917  0.04166667  0.36876771  1.0
  Ni  Ni1840  1  0.49644917  0.37500000  0.36876771  1.0
  Ni  Ni1841  1  0.49644917  0.70833333  0.36876771  1.0
  Ni  Ni1842  1  0.82978250  0.04166667  0.36876771  1.0
  Ni  Ni1843  1  0.82978250  0.37500000  0.36876771  1.0
  Ni  Ni1844  1  0.82978250  0.70833333  0.36876771  1.0
  Ni  Ni1845  1  0.16311583  0.20833333  0.29733914  1.0
  Ni  Ni1846  1  0.16311583  0.54166667  0.29733914  1.0
  Ni  Ni1847  1  0.16311583  0.87500000  0.29733914  1.0
  Ni  Ni1848  1  0.49644917  0.20833333  0.29733914  1.0
  Ni  Ni1849  1  0.49644917  0.54166667  0.29733914  1.0
  Ni  Ni1850  1  0.49644917  0.87500000  0.29733914  1.0
  Ni  Ni1851  1  0.82978250  0.20833333  0.29733914  1.0
  Ni  Ni1852  1  0.82978250  0.54166667  0.29733914  1.0
  Ni  Ni1853  1  0.82978250  0.87500000  0.29733914  1.0
  Ni  Ni1854  1  0.17021750  0.12500000  0.40143843  1.0
  Ni  Ni1855  1  0.17021750  0.45833333  0.40143843  1.0
  Ni  Ni1856  1  0.17021750  0.79166667  0.40143843  1.0
  Ni  Ni1857  1  0.50355083  0.12500000  0.40143843  1.0
  Ni  Ni1858  1  0.50355083  0.45833333  0.40143843  1.0
  Ni  Ni1859  1  0.50355083  0.79166667  0.40143843  1.0
  Ni  Ni1860  1  0.83688417  0.12500000  0.40143843  1.0
  Ni  Ni1861  1  0.83688417  0.45833333  0.40143843  1.0
  Ni  Ni1862  1  0.83688417  0.79166667  0.40143843  1.0
  Ni  Ni1863  1  0.17021750  0.29166667  0.33000986  1.0
  Ni  Ni1864  1  0.17021750  0.62500000  0.33000986  1.0
  Ni  Ni1865  1  0.17021750  0.95833333  0.33000986  1.0
  Ni  Ni1866  1  0.50355083  0.29166667  0.33000986  1.0
  Ni  Ni1867  1  0.50355083  0.62500000  0.33000986  1.0
  Ni  Ni1868  1  0.50355083  0.95833333  0.33000986  1.0
  Ni  Ni1869  1  0.83688417  0.29166667  0.33000986  1.0
  Ni  Ni1870  1  0.83688417  0.62500000  0.33000986  1.0
  Ni  Ni1871  1  0.83688417  0.95833333  0.33000986  1.0
  Ni  Ni1872  1  0.32623167  0.12500000  0.40143843  1.0
  Ni  Ni1873  1  0.32623167  0.45833333  0.40143843  1.0
  Ni  Ni1874  1  0.32623167  0.79166667  0.40143843  1.0
  Ni  Ni1875  1  0.65956500  0.12500000  0.40143843  1.0
  Ni  Ni1876  1  0.65956500  0.45833333  0.40143843  1.0
  Ni  Ni1877  1  0.65956500  0.79166667  0.40143843  1.0
  Ni  Ni1878  1  0.99289833  0.12500000  0.40143843  1.0
  Ni  Ni1879  1  0.99289833  0.45833333  0.40143843  1.0
  Ni  Ni1880  1  0.99289833  0.79166667  0.40143843  1.0
  Ni  Ni1881  1  0.32623167  0.29166667  0.33000986  1.0
  Ni  Ni1882  1  0.32623167  0.62500000  0.33000986  1.0
  Ni  Ni1883  1  0.32623167  0.95833333  0.33000986  1.0
  Ni  Ni1884  1  0.65956500  0.29166667  0.33000986  1.0
  Ni  Ni1885  1  0.65956500  0.62500000  0.33000986  1.0
  Ni  Ni1886  1  0.65956500  0.95833333  0.33000986  1.0
  Ni  Ni1887  1  0.99289833  0.29166667  0.33000986  1.0
  Ni  Ni1888  1  0.99289833  0.62500000  0.33000986  1.0
  Ni  Ni1889  1  0.99289833  0.95833333  0.33000986  1.0
  Ni  Ni1890  1  0.16311583  0.04166667  0.29277379  1.0
  Ni  Ni1891  1  0.16311583  0.37500000  0.29277379  1.0
  Ni  Ni1892  1  0.16311583  0.70833333  0.29277379  1.0
  Ni  Ni1893  1  0.49644917  0.04166667  0.29277379  1.0
  Ni  Ni1894  1  0.49644917  0.37500000  0.29277379  1.0
  Ni  Ni1895  1  0.49644917  0.70833333  0.29277379  1.0
  Ni  Ni1896  1  0.82978250  0.04166667  0.29277379  1.0
  Ni  Ni1897  1  0.82978250  0.37500000  0.29277379  1.0
  Ni  Ni1898  1  0.82978250  0.70833333  0.29277379  1.0
  Ni  Ni1899  1  0.16311583  0.20833333  0.36420236  1.0
  Ni  Ni1900  1  0.16311583  0.54166667  0.36420236  1.0
  Ni  Ni1901  1  0.16311583  0.87500000  0.36420236  1.0
  Ni  Ni1902  1  0.49644917  0.20833333  0.36420236  1.0
  Ni  Ni1903  1  0.49644917  0.54166667  0.36420236  1.0
  Ni  Ni1904  1  0.49644917  0.87500000  0.36420236  1.0
  Ni  Ni1905  1  0.82978250  0.20833333  0.36420236  1.0
  Ni  Ni1906  1  0.82978250  0.54166667  0.36420236  1.0
  Ni  Ni1907  1  0.82978250  0.87500000  0.36420236  1.0
  Ni  Ni1908  1  0.05209817  0.09186550  0.36198671  1.0
  Ni  Ni1909  1  0.05209817  0.42519883  0.36198671  1.0
  Ni  Ni1910  1  0.05209817  0.75853217  0.36198671  1.0
  Ni  Ni1911  1  0.38543150  0.09186550  0.36198671  1.0
  Ni  Ni1912  1  0.38543150  0.42519883  0.36198671  1.0
  Ni  Ni1913  1  0.38543150  0.75853217  0.36198671  1.0
  Ni  Ni1914  1  0.71876483  0.09186550  0.36198671  1.0
  Ni  Ni1915  1  0.71876483  0.42519883  0.36198671  1.0
  Ni  Ni1916  1  0.71876483  0.75853217  0.36198671  1.0
  Ni  Ni1917  1  0.05209817  0.25853217  0.29055814  1.0
  Ni  Ni1918  1  0.05209817  0.59186550  0.29055814  1.0
  Ni  Ni1919  1  0.05209817  0.92519883  0.29055814  1.0
  Ni  Ni1920  1  0.38543150  0.25853217  0.29055814  1.0
  Ni  Ni1921  1  0.38543150  0.59186550  0.29055814  1.0
  Ni  Ni1922  1  0.38543150  0.92519883  0.29055814  1.0
  Ni  Ni1923  1  0.71876483  0.25853217  0.29055814  1.0
  Ni  Ni1924  1  0.71876483  0.59186550  0.29055814  1.0
  Ni  Ni1925  1  0.71876483  0.92519883  0.29055814  1.0
  Ni  Ni1926  1  0.10419633  0.00853217  0.30394464  1.0
  Ni  Ni1927  1  0.10419633  0.34186550  0.30394464  1.0
  Ni  Ni1928  1  0.10419633  0.67519883  0.30394464  1.0
  Ni  Ni1929  1  0.43752967  0.00853217  0.30394464  1.0
  Ni  Ni1930  1  0.43752967  0.34186550  0.30394464  1.0
  Ni  Ni1931  1  0.43752967  0.67519883  0.30394464  1.0
  Ni  Ni1932  1  0.77086300  0.00853217  0.30394464  1.0
  Ni  Ni1933  1  0.77086300  0.34186550  0.30394464  1.0
  Ni  Ni1934  1  0.77086300  0.67519883  0.30394464  1.0
  Ni  Ni1935  1  0.10419633  0.17519883  0.37537321  1.0
  Ni  Ni1936  1  0.10419633  0.50853217  0.37537321  1.0
  Ni  Ni1937  1  0.10419633  0.84186550  0.37537321  1.0
  Ni  Ni1938  1  0.43752967  0.17519883  0.37537321  1.0
  Ni  Ni1939  1  0.43752967  0.50853217  0.37537321  1.0
  Ni  Ni1940  1  0.43752967  0.84186550  0.37537321  1.0
  Ni  Ni1941  1  0.77086300  0.17519883  0.37537321  1.0
  Ni  Ni1942  1  0.77086300  0.50853217  0.37537321  1.0
  Ni  Ni1943  1  0.77086300  0.84186550  0.37537321  1.0
  Ni  Ni1944  1  0.28123517  0.00853217  0.30394464  1.0
  Ni  Ni1945  1  0.28123517  0.34186550  0.30394464  1.0
  Ni  Ni1946  1  0.28123517  0.67519883  0.30394464  1.0
  Ni  Ni1947  1  0.61456850  0.00853217  0.30394464  1.0
  Ni  Ni1948  1  0.61456850  0.34186550  0.30394464  1.0
  Ni  Ni1949  1  0.61456850  0.67519883  0.30394464  1.0
  Ni  Ni1950  1  0.94790183  0.00853217  0.30394464  1.0
  Ni  Ni1951  1  0.94790183  0.34186550  0.30394464  1.0
  Ni  Ni1952  1  0.94790183  0.67519883  0.30394464  1.0
  Ni  Ni1953  1  0.28123517  0.17519883  0.37537321  1.0
  Ni  Ni1954  1  0.28123517  0.50853217  0.37537321  1.0
  Ni  Ni1955  1  0.28123517  0.84186550  0.37537321  1.0
  Ni  Ni1956  1  0.61456850  0.17519883  0.37537321  1.0
  Ni  Ni1957  1  0.61456850  0.50853217  0.37537321  1.0
  Ni  Ni1958  1  0.61456850  0.84186550  0.37537321  1.0
  Ni  Ni1959  1  0.94790183  0.17519883  0.37537321  1.0
  Ni  Ni1960  1  0.94790183  0.50853217  0.37537321  1.0
  Ni  Ni1961  1  0.94790183  0.84186550  0.37537321  1.0
  Ni  Ni1962  1  0.05209817  0.09186550  0.29500336  1.0
  Ni  Ni1963  1  0.05209817  0.42519883  0.29500336  1.0
  Ni  Ni1964  1  0.05209817  0.75853217  0.29500336  1.0
  Ni  Ni1965  1  0.38543150  0.09186550  0.29500336  1.0
  Ni  Ni1966  1  0.38543150  0.42519883  0.29500336  1.0
  Ni  Ni1967  1  0.38543150  0.75853217  0.29500336  1.0
  Ni  Ni1968  1  0.71876483  0.09186550  0.29500336  1.0
  Ni  Ni1969  1  0.71876483  0.42519883  0.29500336  1.0
  Ni  Ni1970  1  0.71876483  0.75853217  0.29500336  1.0
  Ni  Ni1971  1  0.05209817  0.25853217  0.36643193  1.0
  Ni  Ni1972  1  0.05209817  0.59186550  0.36643193  1.0
  Ni  Ni1973  1  0.05209817  0.92519883  0.36643193  1.0
  Ni  Ni1974  1  0.38543150  0.25853217  0.36643193  1.0
  Ni  Ni1975  1  0.38543150  0.59186550  0.36643193  1.0
  Ni  Ni1976  1  0.38543150  0.92519883  0.36643193  1.0
  Ni  Ni1977  1  0.71876483  0.25853217  0.36643193  1.0
  Ni  Ni1978  1  0.71876483  0.59186550  0.36643193  1.0
  Ni  Ni1979  1  0.71876483  0.92519883  0.36643193  1.0
  Ni  Ni1980  1  0.22913700  0.09186550  0.29500336  1.0
  Ni  Ni1981  1  0.22913700  0.42519883  0.29500336  1.0
  Ni  Ni1982  1  0.22913700  0.75853217  0.29500336  1.0
  Ni  Ni1983  1  0.56247033  0.09186550  0.29500336  1.0
  Ni  Ni1984  1  0.56247033  0.42519883  0.29500336  1.0
  Ni  Ni1985  1  0.56247033  0.75853217  0.29500336  1.0
  Ni  Ni1986  1  0.89580367  0.09186550  0.29500336  1.0
  Ni  Ni1987  1  0.89580367  0.42519883  0.29500336  1.0
  Ni  Ni1988  1  0.89580367  0.75853217  0.29500336  1.0
  Ni  Ni1989  1  0.22913700  0.25853217  0.36643193  1.0
  Ni  Ni1990  1  0.22913700  0.59186550  0.36643193  1.0
  Ni  Ni1991  1  0.22913700  0.92519883  0.36643193  1.0
  Ni  Ni1992  1  0.56247033  0.25853217  0.36643193  1.0
  Ni  Ni1993  1  0.56247033  0.59186550  0.36643193  1.0
  Ni  Ni1994  1  0.56247033  0.92519883  0.36643193  1.0
  Ni  Ni1995  1  0.89580367  0.25853217  0.36643193  1.0
  Ni  Ni1996  1  0.89580367  0.59186550  0.36643193  1.0
  Ni  Ni1997  1  0.89580367  0.92519883  0.36643193  1.0
  Ni  Ni1998  1  0.28123517  0.07480117  0.40821943  1.0
  Ni  Ni1999  1  0.28123517  0.40813450  0.40821943  1.0
  Ni  Ni2000  1  0.28123517  0.74146783  0.40821943  1.0
  Ni  Ni2001  1  0.61456850  0.07480117  0.40821943  1.0
  Ni  Ni2002  1  0.61456850  0.40813450  0.40821943  1.0
  Ni  Ni2003  1  0.61456850  0.74146783  0.40821943  1.0
  Ni  Ni2004  1  0.94790183  0.07480117  0.40821943  1.0
  Ni  Ni2005  1  0.94790183  0.40813450  0.40821943  1.0
  Ni  Ni2006  1  0.94790183  0.74146783  0.40821943  1.0
  Ni  Ni2007  1  0.28123517  0.24146783  0.33679086  1.0
  Ni  Ni2008  1  0.28123517  0.57480117  0.33679086  1.0
  Ni  Ni2009  1  0.28123517  0.90813450  0.33679086  1.0
  Ni  Ni2010  1  0.61456850  0.24146783  0.33679086  1.0
  Ni  Ni2011  1  0.61456850  0.57480117  0.33679086  1.0
  Ni  Ni2012  1  0.61456850  0.90813450  0.33679086  1.0
  Ni  Ni2013  1  0.94790183  0.24146783  0.33679086  1.0
  Ni  Ni2014  1  0.94790183  0.57480117  0.33679086  1.0
  Ni  Ni2015  1  0.94790183  0.90813450  0.33679086  1.0
  Ni  Ni2016  1  0.10419633  0.07480117  0.33234564  1.0
  Ni  Ni2017  1  0.10419633  0.40813450  0.33234564  1.0
  Ni  Ni2018  1  0.10419633  0.74146783  0.33234564  1.0
  Ni  Ni2019  1  0.43752967  0.07480117  0.33234564  1.0
  Ni  Ni2020  1  0.43752967  0.40813450  0.33234564  1.0
  Ni  Ni2021  1  0.43752967  0.74146783  0.33234564  1.0
  Ni  Ni2022  1  0.77086300  0.07480117  0.33234564  1.0
  Ni  Ni2023  1  0.77086300  0.40813450  0.33234564  1.0
  Ni  Ni2024  1  0.77086300  0.74146783  0.33234564  1.0
  Ni  Ni2025  1  0.10419633  0.24146783  0.40377421  1.0
  Ni  Ni2026  1  0.10419633  0.57480117  0.40377421  1.0
  Ni  Ni2027  1  0.10419633  0.90813450  0.40377421  1.0
  Ni  Ni2028  1  0.43752967  0.24146783  0.40377421  1.0
  Ni  Ni2029  1  0.43752967  0.57480117  0.40377421  1.0
  Ni  Ni2030  1  0.43752967  0.90813450  0.40377421  1.0
  Ni  Ni2031  1  0.77086300  0.24146783  0.40377421  1.0
  Ni  Ni2032  1  0.77086300  0.57480117  0.40377421  1.0
  Ni  Ni2033  1  0.77086300  0.90813450  0.40377421  1.0
  Ni  Ni2034  1  0.28123517  0.00853217  0.37981843  1.0
  Ni  Ni2035  1  0.28123517  0.34186550  0.37981843  1.0
  Ni  Ni2036  1  0.28123517  0.67519883  0.37981843  1.0
  Ni  Ni2037  1  0.61456850  0.00853217  0.37981843  1.0
  Ni  Ni2038  1  0.61456850  0.34186550  0.37981843  1.0
  Ni  Ni2039  1  0.61456850  0.67519883  0.37981843  1.0
  Ni  Ni2040  1  0.94790183  0.00853217  0.37981843  1.0
  Ni  Ni2041  1  0.94790183  0.34186550  0.37981843  1.0
  Ni  Ni2042  1  0.94790183  0.67519883  0.37981843  1.0
  Ni  Ni2043  1  0.28123517  0.17519883  0.30838986  1.0
  Ni  Ni2044  1  0.28123517  0.50853217  0.30838986  1.0
  Ni  Ni2045  1  0.28123517  0.84186550  0.30838986  1.0
  Ni  Ni2046  1  0.61456850  0.17519883  0.30838986  1.0
  Ni  Ni2047  1  0.61456850  0.50853217  0.30838986  1.0
  Ni  Ni2048  1  0.61456850  0.84186550  0.30838986  1.0
  Ni  Ni2049  1  0.94790183  0.17519883  0.30838986  1.0
  Ni  Ni2050  1  0.94790183  0.50853217  0.30838986  1.0
  Ni  Ni2051  1  0.94790183  0.84186550  0.30838986  1.0
  Ni  Ni2052  1  0.28123517  0.07480117  0.33234564  1.0
  Ni  Ni2053  1  0.28123517  0.40813450  0.33234564  1.0
  Ni  Ni2054  1  0.28123517  0.74146783  0.33234564  1.0
  Ni  Ni2055  1  0.61456850  0.07480117  0.33234564  1.0
  Ni  Ni2056  1  0.61456850  0.40813450  0.33234564  1.0
  Ni  Ni2057  1  0.61456850  0.74146783  0.33234564  1.0
  Ni  Ni2058  1  0.94790183  0.07480117  0.33234564  1.0
  Ni  Ni2059  1  0.94790183  0.40813450  0.33234564  1.0
  Ni  Ni2060  1  0.94790183  0.74146783  0.33234564  1.0
  Ni  Ni2061  1  0.28123517  0.24146783  0.40377421  1.0
  Ni  Ni2062  1  0.28123517  0.57480117  0.40377421  1.0
  Ni  Ni2063  1  0.28123517  0.90813450  0.40377421  1.0
  Ni  Ni2064  1  0.61456850  0.24146783  0.40377421  1.0
  Ni  Ni2065  1  0.61456850  0.57480117  0.40377421  1.0
  Ni  Ni2066  1  0.61456850  0.90813450  0.40377421  1.0
  Ni  Ni2067  1  0.94790183  0.24146783  0.40377421  1.0
  Ni  Ni2068  1  0.94790183  0.57480117  0.40377421  1.0
  Ni  Ni2069  1  0.94790183  0.90813450  0.40377421  1.0
  Ni  Ni2070  1  0.05209817  0.15813450  0.32340436  1.0
  Ni  Ni2071  1  0.05209817  0.49146783  0.32340436  1.0
  Ni  Ni2072  1  0.05209817  0.82480117  0.32340436  1.0
  Ni  Ni2073  1  0.38543150  0.15813450  0.32340436  1.0
  Ni  Ni2074  1  0.38543150  0.49146783  0.32340436  1.0
  Ni  Ni2075  1  0.38543150  0.82480117  0.32340436  1.0
  Ni  Ni2076  1  0.71876483  0.15813450  0.32340436  1.0
  Ni  Ni2077  1  0.71876483  0.49146783  0.32340436  1.0
  Ni  Ni2078  1  0.71876483  0.82480117  0.32340436  1.0
  Ni  Ni2079  1  0.05209817  0.32480117  0.39483293  1.0
  Ni  Ni2080  1  0.05209817  0.65813450  0.39483293  1.0
  Ni  Ni2081  1  0.05209817  0.99146783  0.39483293  1.0
  Ni  Ni2082  1  0.38543150  0.32480117  0.39483293  1.0
  Ni  Ni2083  1  0.38543150  0.65813450  0.39483293  1.0
  Ni  Ni2084  1  0.38543150  0.99146783  0.39483293  1.0
  Ni  Ni2085  1  0.71876483  0.32480117  0.39483293  1.0
  Ni  Ni2086  1  0.71876483  0.65813450  0.39483293  1.0
  Ni  Ni2087  1  0.71876483  0.99146783  0.39483293  1.0
  Ni  Ni2088  1  0.05209817  0.15813450  0.39038771  1.0
  Ni  Ni2089  1  0.05209817  0.49146783  0.39038771  1.0
  Ni  Ni2090  1  0.05209817  0.82480117  0.39038771  1.0
  Ni  Ni2091  1  0.38543150  0.15813450  0.39038771  1.0
  Ni  Ni2092  1  0.38543150  0.49146783  0.39038771  1.0
  Ni  Ni2093  1  0.38543150  0.82480117  0.39038771  1.0
  Ni  Ni2094  1  0.71876483  0.15813450  0.39038771  1.0
  Ni  Ni2095  1  0.71876483  0.49146783  0.39038771  1.0
  Ni  Ni2096  1  0.71876483  0.82480117  0.39038771  1.0
  Ni  Ni2097  1  0.05209817  0.32480117  0.31895914  1.0
  Ni  Ni2098  1  0.05209817  0.65813450  0.31895914  1.0
  Ni  Ni2099  1  0.05209817  0.99146783  0.31895914  1.0
  Ni  Ni2100  1  0.38543150  0.32480117  0.31895914  1.0
  Ni  Ni2101  1  0.38543150  0.65813450  0.31895914  1.0
  Ni  Ni2102  1  0.38543150  0.99146783  0.31895914  1.0
  Ni  Ni2103  1  0.71876483  0.32480117  0.31895914  1.0
  Ni  Ni2104  1  0.71876483  0.65813450  0.31895914  1.0
  Ni  Ni2105  1  0.71876483  0.99146783  0.31895914  1.0
  Ni  Ni2106  1  0.22913700  0.15813450  0.32340436  1.0
  Ni  Ni2107  1  0.22913700  0.49146783  0.32340436  1.0
  Ni  Ni2108  1  0.22913700  0.82480117  0.32340436  1.0
  Ni  Ni2109  1  0.56247033  0.15813450  0.32340436  1.0
  Ni  Ni2110  1  0.56247033  0.49146783  0.32340436  1.0
  Ni  Ni2111  1  0.56247033  0.82480117  0.32340436  1.0
  Ni  Ni2112  1  0.89580367  0.15813450  0.32340436  1.0
  Ni  Ni2113  1  0.89580367  0.49146783  0.32340436  1.0
  Ni  Ni2114  1  0.89580367  0.82480117  0.32340436  1.0
  Ni  Ni2115  1  0.22913700  0.32480117  0.39483293  1.0
  Ni  Ni2116  1  0.22913700  0.65813450  0.39483293  1.0
  Ni  Ni2117  1  0.22913700  0.99146783  0.39483293  1.0
  Ni  Ni2118  1  0.56247033  0.32480117  0.39483293  1.0
  Ni  Ni2119  1  0.56247033  0.65813450  0.39483293  1.0
  Ni  Ni2120  1  0.56247033  0.99146783  0.39483293  1.0
  Ni  Ni2121  1  0.89580367  0.32480117  0.39483293  1.0
  Ni  Ni2122  1  0.89580367  0.65813450  0.39483293  1.0
  Ni  Ni2123  1  0.89580367  0.99146783  0.39483293  1.0
  Ni  Ni2124  1  0.27741067  0.10826367  0.41928236  1.0
  Ni  Ni2125  1  0.27741067  0.44159700  0.41928236  1.0
  Ni  Ni2126  1  0.27741067  0.77493033  0.41928236  1.0
  Ni  Ni2127  1  0.61074400  0.10826367  0.41928236  1.0
  Ni  Ni2128  1  0.61074400  0.44159700  0.41928236  1.0
  Ni  Ni2129  1  0.61074400  0.77493033  0.41928236  1.0
  Ni  Ni2130  1  0.94407733  0.10826367  0.41928236  1.0
  Ni  Ni2131  1  0.94407733  0.44159700  0.41928236  1.0
  Ni  Ni2132  1  0.94407733  0.77493033  0.41928236  1.0
  Ni  Ni2133  1  0.27741067  0.27493033  0.34785379  1.0
  Ni  Ni2134  1  0.27741067  0.60826367  0.34785379  1.0
  Ni  Ni2135  1  0.27741067  0.94159700  0.34785379  1.0
  Ni  Ni2136  1  0.61074400  0.27493033  0.34785379  1.0
  Ni  Ni2137  1  0.61074400  0.60826367  0.34785379  1.0
  Ni  Ni2138  1  0.61074400  0.94159700  0.34785379  1.0
  Ni  Ni2139  1  0.94407733  0.27493033  0.34785379  1.0
  Ni  Ni2140  1  0.94407733  0.60826367  0.34785379  1.0
  Ni  Ni2141  1  0.94407733  0.94159700  0.34785379  1.0
  Ni  Ni2142  1  0.22148800  0.02493033  0.40753493  1.0
  Ni  Ni2143  1  0.22148800  0.35826367  0.40753493  1.0
  Ni  Ni2144  1  0.22148800  0.69159700  0.40753493  1.0
  Ni  Ni2145  1  0.55482133  0.02493033  0.40753493  1.0
  Ni  Ni2146  1  0.55482133  0.35826367  0.40753493  1.0
  Ni  Ni2147  1  0.55482133  0.69159700  0.40753493  1.0
  Ni  Ni2148  1  0.88815467  0.02493033  0.40753493  1.0
  Ni  Ni2149  1  0.88815467  0.35826367  0.40753493  1.0
  Ni  Ni2150  1  0.88815467  0.69159700  0.40753493  1.0
  Ni  Ni2151  1  0.22148800  0.19159700  0.33610636  1.0
  Ni  Ni2152  1  0.22148800  0.52493033  0.33610636  1.0
  Ni  Ni2153  1  0.22148800  0.85826367  0.33610636  1.0
  Ni  Ni2154  1  0.55482133  0.19159700  0.33610636  1.0
  Ni  Ni2155  1  0.55482133  0.52493033  0.33610636  1.0
  Ni  Ni2156  1  0.55482133  0.85826367  0.33610636  1.0
  Ni  Ni2157  1  0.88815467  0.19159700  0.33610636  1.0
  Ni  Ni2158  1  0.88815467  0.52493033  0.33610636  1.0
  Ni  Ni2159  1  0.88815467  0.85826367  0.33610636  1.0
