# generated using pymatgen
data_HfNi3
_symmetry_space_group_name_H-M   'P 1'
_cell_length_a   41.80235704
_cell_length_b   66.14635200
_cell_length_c   27.86823803
_cell_angle_alpha   92.58724211
_cell_angle_beta   98.21321070
_cell_angle_gamma   103.04420554
_symmetry_Int_Tables_number   1
_chemical_formula_structural   HfNi3
_chemical_formula_sum   'Hf540 Ni1620'
_cell_volume   74059.70871012
_cell_formula_units_Z   540
loop_
 _symmetry_equiv_pos_site_id
 _symmetry_equiv_pos_as_xyz
  1  'x, y, z'
loop_
 _atom_site_type_symbol
 _atom_site_label
 _atom_site_symmetry_multiplicity
 _atom_site_fract_x
 _atom_site_fract_y
 _atom_site_fract_z
 _atom_site_occupancy
  Hf  Hf0  1  0.05112636  0.15128433  0.12010704  1.0
  Hf  Hf1  1  0.05112636  0.48461767  0.12010704  1.0
  Hf  Hf2  1  0.05112636  0.81795100  0.12010704  1.0
  Hf  Hf3  1  0.38445969  0.15128433  0.12010704  1.0
  Hf  Hf4  1  0.38445969  0.48461767  0.12010704  1.0
  Hf  Hf5  1  0.38445969  0.81795100  0.12010704  1.0
  Hf  Hf6  1  0.71779303  0.15128433  0.12010704  1.0
  Hf  Hf7  1  0.71779303  0.48461767  0.12010704  1.0
  Hf  Hf8  1  0.71779303  0.81795100  0.12010704  1.0
  Hf  Hf9  1  0.25945969  0.15128433  0.05760704  1.0
  Hf  Hf10  1  0.25945969  0.48461767  0.05760704  1.0
  Hf  Hf11  1  0.25945969  0.81795100  0.05760704  1.0
  Hf  Hf12  1  0.59279303  0.15128433  0.05760704  1.0
  Hf  Hf13  1  0.59279303  0.48461767  0.05760704  1.0
  Hf  Hf14  1  0.59279303  0.81795100  0.05760704  1.0
  Hf  Hf15  1  0.92612636  0.15128433  0.05760704  1.0
  Hf  Hf16  1  0.92612636  0.48461767  0.05760704  1.0
  Hf  Hf17  1  0.92612636  0.81795100  0.05760704  1.0
  Hf  Hf18  1  0.26640414  0.31795100  0.00552371  1.0
  Hf  Hf19  1  0.26640414  0.65128433  0.00552371  1.0
  Hf  Hf20  1  0.26640414  0.98461767  0.00552371  1.0
  Hf  Hf21  1  0.59973747  0.31795100  0.00552371  1.0
  Hf  Hf22  1  0.59973747  0.65128433  0.00552371  1.0
  Hf  Hf23  1  0.59973747  0.98461767  0.00552371  1.0
  Hf  Hf24  1  0.93307081  0.31795100  0.00552371  1.0
  Hf  Hf25  1  0.93307081  0.65128433  0.00552371  1.0
  Hf  Hf26  1  0.93307081  0.98461767  0.00552371  1.0
  Hf  Hf27  1  0.05807081  0.31795100  0.06802371  1.0
  Hf  Hf28  1  0.05807081  0.65128433  0.06802371  1.0
  Hf  Hf29  1  0.05807081  0.98461767  0.06802371  1.0
  Hf  Hf30  1  0.39140414  0.31795100  0.06802371  1.0
  Hf  Hf31  1  0.39140414  0.65128433  0.06802371  1.0
  Hf  Hf32  1  0.39140414  0.98461767  0.06802371  1.0
  Hf  Hf33  1  0.72473747  0.31795100  0.06802371  1.0
  Hf  Hf34  1  0.72473747  0.65128433  0.06802371  1.0
  Hf  Hf35  1  0.72473747  0.98461767  0.06802371  1.0
  Hf  Hf36  1  0.13210756  0.18204900  0.10504208  1.0
  Hf  Hf37  1  0.13210756  0.51538233  0.10504208  1.0
  Hf  Hf38  1  0.13210756  0.84871567  0.10504208  1.0
  Hf  Hf39  1  0.46544089  0.18204900  0.10504208  1.0
  Hf  Hf40  1  0.46544089  0.51538233  0.10504208  1.0
  Hf  Hf41  1  0.46544089  0.84871567  0.10504208  1.0
  Hf  Hf42  1  0.79877422  0.18204900  0.10504208  1.0
  Hf  Hf43  1  0.79877422  0.51538233  0.10504208  1.0
  Hf  Hf44  1  0.79877422  0.84871567  0.10504208  1.0
  Hf  Hf45  1  0.00710756  0.18204900  0.04254208  1.0
  Hf  Hf46  1  0.00710756  0.51538233  0.04254208  1.0
  Hf  Hf47  1  0.00710756  0.84871567  0.04254208  1.0
  Hf  Hf48  1  0.34044089  0.18204900  0.04254208  1.0
  Hf  Hf49  1  0.34044089  0.51538233  0.04254208  1.0
  Hf  Hf50  1  0.34044089  0.84871567  0.04254208  1.0
  Hf  Hf51  1  0.67377422  0.18204900  0.04254208  1.0
  Hf  Hf52  1  0.67377422  0.51538233  0.04254208  1.0
  Hf  Hf53  1  0.67377422  0.84871567  0.04254208  1.0
  Hf  Hf54  1  0.00016311  0.01538233  0.09462542  1.0
  Hf  Hf55  1  0.00016311  0.34871567  0.09462542  1.0
  Hf  Hf56  1  0.00016311  0.68204900  0.09462542  1.0
  Hf  Hf57  1  0.33349644  0.01538233  0.09462542  1.0
  Hf  Hf58  1  0.33349644  0.34871567  0.09462542  1.0
  Hf  Hf59  1  0.33349644  0.68204900  0.09462542  1.0
  Hf  Hf60  1  0.66682978  0.01538233  0.09462542  1.0
  Hf  Hf61  1  0.66682978  0.34871567  0.09462542  1.0
  Hf  Hf62  1  0.66682978  0.68204900  0.09462542  1.0
  Hf  Hf63  1  0.20849644  0.01538233  0.03212542  1.0
  Hf  Hf64  1  0.20849644  0.34871567  0.03212542  1.0
  Hf  Hf65  1  0.20849644  0.68204900  0.03212542  1.0
  Hf  Hf66  1  0.54182978  0.01538233  0.03212542  1.0
  Hf  Hf67  1  0.54182978  0.34871567  0.03212542  1.0
  Hf  Hf68  1  0.54182978  0.68204900  0.03212542  1.0
  Hf  Hf69  1  0.87516311  0.01538233  0.03212542  1.0
  Hf  Hf70  1  0.87516311  0.34871567  0.03212542  1.0
  Hf  Hf71  1  0.87516311  0.68204900  0.03212542  1.0
  Hf  Hf72  1  0.15911144  0.21702233  0.00743292  1.0
  Hf  Hf73  1  0.15911144  0.55035567  0.00743292  1.0
  Hf  Hf74  1  0.15911144  0.88368900  0.00743292  1.0
  Hf  Hf75  1  0.49244478  0.21702233  0.00743292  1.0
  Hf  Hf76  1  0.49244478  0.55035567  0.00743292  1.0
  Hf  Hf77  1  0.49244478  0.88368900  0.00743292  1.0
  Hf  Hf78  1  0.82577811  0.21702233  0.00743292  1.0
  Hf  Hf79  1  0.82577811  0.55035567  0.00743292  1.0
  Hf  Hf80  1  0.82577811  0.88368900  0.00743292  1.0
  Hf  Hf81  1  0.28411144  0.21702233  0.06993292  1.0
  Hf  Hf82  1  0.28411144  0.55035567  0.06993292  1.0
  Hf  Hf83  1  0.28411144  0.88368900  0.06993292  1.0
  Hf  Hf84  1  0.61744478  0.21702233  0.06993292  1.0
  Hf  Hf85  1  0.61744478  0.55035567  0.06993292  1.0
  Hf  Hf86  1  0.61744478  0.88368900  0.06993292  1.0
  Hf  Hf87  1  0.95077811  0.21702233  0.06993292  1.0
  Hf  Hf88  1  0.95077811  0.55035567  0.06993292  1.0
  Hf  Hf89  1  0.95077811  0.88368900  0.06993292  1.0
  Hf  Hf90  1  0.08272256  0.05035567  0.08034958  1.0
  Hf  Hf91  1  0.08272256  0.38368900  0.08034958  1.0
  Hf  Hf92  1  0.08272256  0.71702233  0.08034958  1.0
  Hf  Hf93  1  0.41605589  0.05035567  0.08034958  1.0
  Hf  Hf94  1  0.41605589  0.38368900  0.08034958  1.0
  Hf  Hf95  1  0.41605589  0.71702233  0.08034958  1.0
  Hf  Hf96  1  0.74938922  0.05035567  0.08034958  1.0
  Hf  Hf97  1  0.74938922  0.38368900  0.08034958  1.0
  Hf  Hf98  1  0.74938922  0.71702233  0.08034958  1.0
  Hf  Hf99  1  0.29105589  0.05035567  0.01784958  1.0
  Hf  Hf100  1  0.29105589  0.38368900  0.01784958  1.0
  Hf  Hf101  1  0.29105589  0.71702233  0.01784958  1.0
  Hf  Hf102  1  0.62438922  0.05035567  0.01784958  1.0
  Hf  Hf103  1  0.62438922  0.38368900  0.01784958  1.0
  Hf  Hf104  1  0.62438922  0.71702233  0.01784958  1.0
  Hf  Hf105  1  0.95772256  0.05035567  0.01784958  1.0
  Hf  Hf106  1  0.95772256  0.38368900  0.01784958  1.0
  Hf  Hf107  1  0.95772256  0.71702233  0.01784958  1.0
  Hf  Hf108  1  0.10745581  0.11631100  0.09271621  1.0
  Hf  Hf109  1  0.10745581  0.44964433  0.09271621  1.0
  Hf  Hf110  1  0.10745581  0.78297767  0.09271621  1.0
  Hf  Hf111  1  0.44078914  0.11631100  0.09271621  1.0
  Hf  Hf112  1  0.44078914  0.44964433  0.09271621  1.0
  Hf  Hf113  1  0.44078914  0.78297767  0.09271621  1.0
  Hf  Hf114  1  0.77412247  0.11631100  0.09271621  1.0
  Hf  Hf115  1  0.77412247  0.44964433  0.09271621  1.0
  Hf  Hf116  1  0.77412247  0.78297767  0.09271621  1.0
  Hf  Hf117  1  0.31578914  0.11631100  0.03021621  1.0
  Hf  Hf118  1  0.31578914  0.44964433  0.03021621  1.0
  Hf  Hf119  1  0.31578914  0.78297767  0.03021621  1.0
  Hf  Hf120  1  0.64912247  0.11631100  0.03021621  1.0
  Hf  Hf121  1  0.64912247  0.44964433  0.03021621  1.0
  Hf  Hf122  1  0.64912247  0.78297767  0.03021621  1.0
  Hf  Hf123  1  0.98245581  0.11631100  0.03021621  1.0
  Hf  Hf124  1  0.98245581  0.44964433  0.03021621  1.0
  Hf  Hf125  1  0.98245581  0.78297767  0.03021621  1.0
  Hf  Hf126  1  0.18384469  0.28297767  0.01979954  1.0
  Hf  Hf127  1  0.18384469  0.61631100  0.01979954  1.0
  Hf  Hf128  1  0.18384469  0.94964433  0.01979954  1.0
  Hf  Hf129  1  0.51717803  0.28297767  0.01979954  1.0
  Hf  Hf130  1  0.51717803  0.61631100  0.01979954  1.0
  Hf  Hf131  1  0.51717803  0.94964433  0.01979954  1.0
  Hf  Hf132  1  0.85051136  0.28297767  0.01979954  1.0
  Hf  Hf133  1  0.85051136  0.61631100  0.01979954  1.0
  Hf  Hf134  1  0.85051136  0.94964433  0.01979954  1.0
  Hf  Hf135  1  0.30884469  0.28297767  0.08229954  1.0
  Hf  Hf136  1  0.30884469  0.61631100  0.08229954  1.0
  Hf  Hf137  1  0.30884469  0.94964433  0.08229954  1.0
  Hf  Hf138  1  0.64217803  0.28297767  0.08229954  1.0
  Hf  Hf139  1  0.64217803  0.61631100  0.08229954  1.0
  Hf  Hf140  1  0.64217803  0.94964433  0.08229954  1.0
  Hf  Hf141  1  0.97551136  0.28297767  0.08229954  1.0
  Hf  Hf142  1  0.97551136  0.61631100  0.08229954  1.0
  Hf  Hf143  1  0.97551136  0.94964433  0.08229954  1.0
  Hf  Hf144  1  0.03953362  0.08333333  0.00319956  1.0
  Hf  Hf145  1  0.03953362  0.41666667  0.00319956  1.0
  Hf  Hf146  1  0.03953362  0.75000000  0.00319956  1.0
  Hf  Hf147  1  0.37286696  0.08333333  0.00319956  1.0
  Hf  Hf148  1  0.37286696  0.41666667  0.00319956  1.0
  Hf  Hf149  1  0.37286696  0.75000000  0.00319956  1.0
  Hf  Hf150  1  0.70620029  0.08333333  0.00319956  1.0
  Hf  Hf151  1  0.70620029  0.41666667  0.00319956  1.0
  Hf  Hf152  1  0.70620029  0.75000000  0.00319956  1.0
  Hf  Hf153  1  0.16453362  0.08333333  0.06569956  1.0
  Hf  Hf154  1  0.16453362  0.41666667  0.06569956  1.0
  Hf  Hf155  1  0.16453362  0.75000000  0.06569956  1.0
  Hf  Hf156  1  0.49786696  0.08333333  0.06569956  1.0
  Hf  Hf157  1  0.49786696  0.41666667  0.06569956  1.0
  Hf  Hf158  1  0.49786696  0.75000000  0.06569956  1.0
  Hf  Hf159  1  0.83120029  0.08333333  0.06569956  1.0
  Hf  Hf160  1  0.83120029  0.41666667  0.06569956  1.0
  Hf  Hf161  1  0.83120029  0.75000000  0.06569956  1.0
  Hf  Hf162  1  0.10203362  0.25000000  0.03444956  1.0
  Hf  Hf163  1  0.10203362  0.58333333  0.03444956  1.0
  Hf  Hf164  1  0.10203363  0.91666667  0.03444956  1.0
  Hf  Hf165  1  0.43536696  0.25000000  0.03444956  1.0
  Hf  Hf166  1  0.43536696  0.58333333  0.03444956  1.0
  Hf  Hf167  1  0.43536696  0.91666667  0.03444956  1.0
  Hf  Hf168  1  0.76870029  0.25000000  0.03444956  1.0
  Hf  Hf169  1  0.76870029  0.58333333  0.03444956  1.0
  Hf  Hf170  1  0.76870029  0.91666667  0.03444956  1.0
  Hf  Hf171  1  0.22703362  0.25000000  0.09694956  1.0
  Hf  Hf172  1  0.22703362  0.58333333  0.09694956  1.0
  Hf  Hf173  1  0.22703362  0.91666667  0.09694956  1.0
  Hf  Hf174  1  0.56036696  0.25000000  0.09694956  1.0
  Hf  Hf175  1  0.56036696  0.58333333  0.09694956  1.0
  Hf  Hf176  1  0.56036696  0.91666667  0.09694956  1.0
  Hf  Hf177  1  0.89370029  0.25000000  0.09694956  1.0
  Hf  Hf178  1  0.89370029  0.58333333  0.09694956  1.0
  Hf  Hf179  1  0.89370029  0.91666667  0.09694956  1.0
  Hf  Hf180  1  0.30112636  0.15128433  0.24510704  1.0
  Hf  Hf181  1  0.30112636  0.48461767  0.24510704  1.0
  Hf  Hf182  1  0.30112636  0.81795100  0.24510704  1.0
  Hf  Hf183  1  0.63445969  0.15128433  0.24510704  1.0
  Hf  Hf184  1  0.63445969  0.48461767  0.24510704  1.0
  Hf  Hf185  1  0.63445969  0.81795100  0.24510704  1.0
  Hf  Hf186  1  0.96779303  0.15128433  0.24510704  1.0
  Hf  Hf187  1  0.96779303  0.48461767  0.24510704  1.0
  Hf  Hf188  1  0.96779303  0.81795100  0.24510704  1.0
  Hf  Hf189  1  0.17612636  0.15128433  0.18260704  1.0
  Hf  Hf190  1  0.17612636  0.48461767  0.18260704  1.0
  Hf  Hf191  1  0.17612636  0.81795100  0.18260704  1.0
  Hf  Hf192  1  0.50945969  0.15128433  0.18260704  1.0
  Hf  Hf193  1  0.50945969  0.48461767  0.18260704  1.0
  Hf  Hf194  1  0.50945969  0.81795100  0.18260704  1.0
  Hf  Hf195  1  0.84279303  0.15128433  0.18260704  1.0
  Hf  Hf196  1  0.84279303  0.48461767  0.18260704  1.0
  Hf  Hf197  1  0.84279303  0.81795100  0.18260704  1.0
  Hf  Hf198  1  0.18307081  0.31795100  0.13052371  1.0
  Hf  Hf199  1  0.18307081  0.65128433  0.13052371  1.0
  Hf  Hf200  1  0.18307081  0.98461767  0.13052371  1.0
  Hf  Hf201  1  0.51640414  0.31795100  0.13052371  1.0
  Hf  Hf202  1  0.51640414  0.65128433  0.13052371  1.0
  Hf  Hf203  1  0.51640414  0.98461767  0.13052371  1.0
  Hf  Hf204  1  0.84973747  0.31795100  0.13052371  1.0
  Hf  Hf205  1  0.84973747  0.65128433  0.13052371  1.0
  Hf  Hf206  1  0.84973747  0.98461767  0.13052371  1.0
  Hf  Hf207  1  0.30807081  0.31795100  0.19302371  1.0
  Hf  Hf208  1  0.30807081  0.65128433  0.19302371  1.0
  Hf  Hf209  1  0.30807081  0.98461767  0.19302371  1.0
  Hf  Hf210  1  0.64140414  0.31795100  0.19302371  1.0
  Hf  Hf211  1  0.64140414  0.65128433  0.19302371  1.0
  Hf  Hf212  1  0.64140414  0.98461767  0.19302371  1.0
  Hf  Hf213  1  0.97473747  0.31795100  0.19302371  1.0
  Hf  Hf214  1  0.97473747  0.65128433  0.19302371  1.0
  Hf  Hf215  1  0.97473747  0.98461767  0.19302371  1.0
  Hf  Hf216  1  0.04877422  0.18204900  0.23004208  1.0
  Hf  Hf217  1  0.04877422  0.51538233  0.23004208  1.0
  Hf  Hf218  1  0.04877422  0.84871567  0.23004208  1.0
  Hf  Hf219  1  0.38210756  0.18204900  0.23004208  1.0
  Hf  Hf220  1  0.38210756  0.51538233  0.23004208  1.0
  Hf  Hf221  1  0.38210756  0.84871567  0.23004208  1.0
  Hf  Hf222  1  0.71544089  0.18204900  0.23004208  1.0
  Hf  Hf223  1  0.71544089  0.51538233  0.23004208  1.0
  Hf  Hf224  1  0.71544089  0.84871567  0.23004208  1.0
  Hf  Hf225  1  0.25710756  0.18204900  0.16754208  1.0
  Hf  Hf226  1  0.25710756  0.51538233  0.16754208  1.0
  Hf  Hf227  1  0.25710756  0.84871567  0.16754208  1.0
  Hf  Hf228  1  0.59044089  0.18204900  0.16754208  1.0
  Hf  Hf229  1  0.59044089  0.51538233  0.16754208  1.0
  Hf  Hf230  1  0.59044089  0.84871567  0.16754208  1.0
  Hf  Hf231  1  0.92377422  0.18204900  0.16754208  1.0
  Hf  Hf232  1  0.92377422  0.51538233  0.16754208  1.0
  Hf  Hf233  1  0.92377422  0.84871567  0.16754208  1.0
  Hf  Hf234  1  0.25016311  0.01538233  0.21962542  1.0
  Hf  Hf235  1  0.25016311  0.34871567  0.21962542  1.0
  Hf  Hf236  1  0.25016311  0.68204900  0.21962542  1.0
  Hf  Hf237  1  0.58349644  0.01538233  0.21962542  1.0
  Hf  Hf238  1  0.58349644  0.34871567  0.21962542  1.0
  Hf  Hf239  1  0.58349644  0.68204900  0.21962542  1.0
  Hf  Hf240  1  0.91682978  0.01538233  0.21962542  1.0
  Hf  Hf241  1  0.91682978  0.34871567  0.21962542  1.0
  Hf  Hf242  1  0.91682978  0.68204900  0.21962542  1.0
  Hf  Hf243  1  0.12516311  0.01538233  0.15712542  1.0
  Hf  Hf244  1  0.12516311  0.34871567  0.15712542  1.0
  Hf  Hf245  1  0.12516311  0.68204900  0.15712542  1.0
  Hf  Hf246  1  0.45849644  0.01538233  0.15712542  1.0
  Hf  Hf247  1  0.45849644  0.34871567  0.15712542  1.0
  Hf  Hf248  1  0.45849644  0.68204900  0.15712542  1.0
  Hf  Hf249  1  0.79182978  0.01538233  0.15712542  1.0
  Hf  Hf250  1  0.79182978  0.34871567  0.15712542  1.0
  Hf  Hf251  1  0.79182978  0.68204900  0.15712542  1.0
  Hf  Hf252  1  0.07577811  0.21702233  0.13243292  1.0
  Hf  Hf253  1  0.07577811  0.55035567  0.13243292  1.0
  Hf  Hf254  1  0.07577811  0.88368900  0.13243292  1.0
  Hf  Hf255  1  0.40911144  0.21702233  0.13243292  1.0
  Hf  Hf256  1  0.40911144  0.55035567  0.13243292  1.0
  Hf  Hf257  1  0.40911144  0.88368900  0.13243292  1.0
  Hf  Hf258  1  0.74244478  0.21702233  0.13243292  1.0
  Hf  Hf259  1  0.74244478  0.55035567  0.13243292  1.0
  Hf  Hf260  1  0.74244478  0.88368900  0.13243292  1.0
  Hf  Hf261  1  0.20077811  0.21702233  0.19493292  1.0
  Hf  Hf262  1  0.20077811  0.55035567  0.19493292  1.0
  Hf  Hf263  1  0.20077811  0.88368900  0.19493292  1.0
  Hf  Hf264  1  0.53411144  0.21702233  0.19493292  1.0
  Hf  Hf265  1  0.53411144  0.55035567  0.19493292  1.0
  Hf  Hf266  1  0.53411144  0.88368900  0.19493292  1.0
  Hf  Hf267  1  0.86744478  0.21702233  0.19493292  1.0
  Hf  Hf268  1  0.86744478  0.55035567  0.19493292  1.0
  Hf  Hf269  1  0.86744478  0.88368900  0.19493292  1.0
  Hf  Hf270  1  0.33272256  0.05035567  0.20534958  1.0
  Hf  Hf271  1  0.33272256  0.38368900  0.20534958  1.0
  Hf  Hf272  1  0.33272256  0.71702233  0.20534958  1.0
  Hf  Hf273  1  0.66605589  0.05035567  0.20534958  1.0
  Hf  Hf274  1  0.66605589  0.38368900  0.20534958  1.0
  Hf  Hf275  1  0.66605589  0.71702233  0.20534958  1.0
  Hf  Hf276  1  0.99938922  0.05035567  0.20534958  1.0
  Hf  Hf277  1  0.99938922  0.38368900  0.20534958  1.0
  Hf  Hf278  1  0.99938922  0.71702233  0.20534958  1.0
  Hf  Hf279  1  0.20772256  0.05035567  0.14284958  1.0
  Hf  Hf280  1  0.20772256  0.38368900  0.14284958  1.0
  Hf  Hf281  1  0.20772256  0.71702233  0.14284958  1.0
  Hf  Hf282  1  0.54105589  0.05035567  0.14284958  1.0
  Hf  Hf283  1  0.54105589  0.38368900  0.14284958  1.0
  Hf  Hf284  1  0.54105589  0.71702233  0.14284958  1.0
  Hf  Hf285  1  0.87438922  0.05035567  0.14284958  1.0
  Hf  Hf286  1  0.87438922  0.38368900  0.14284958  1.0
  Hf  Hf287  1  0.87438922  0.71702233  0.14284958  1.0
  Hf  Hf288  1  0.02412247  0.11631100  0.21771621  1.0
  Hf  Hf289  1  0.02412247  0.44964433  0.21771621  1.0
  Hf  Hf290  1  0.02412247  0.78297767  0.21771621  1.0
  Hf  Hf291  1  0.35745581  0.11631100  0.21771621  1.0
  Hf  Hf292  1  0.35745581  0.44964433  0.21771621  1.0
  Hf  Hf293  1  0.35745581  0.78297767  0.21771621  1.0
  Hf  Hf294  1  0.69078914  0.11631100  0.21771621  1.0
  Hf  Hf295  1  0.69078914  0.44964433  0.21771621  1.0
  Hf  Hf296  1  0.69078914  0.78297767  0.21771621  1.0
  Hf  Hf297  1  0.23245581  0.11631100  0.15521621  1.0
  Hf  Hf298  1  0.23245581  0.44964433  0.15521621  1.0
  Hf  Hf299  1  0.23245581  0.78297767  0.15521621  1.0
  Hf  Hf300  1  0.56578914  0.11631100  0.15521621  1.0
  Hf  Hf301  1  0.56578914  0.44964433  0.15521621  1.0
  Hf  Hf302  1  0.56578914  0.78297767  0.15521621  1.0
  Hf  Hf303  1  0.89912247  0.11631100  0.15521621  1.0
  Hf  Hf304  1  0.89912247  0.44964433  0.15521621  1.0
  Hf  Hf305  1  0.89912247  0.78297767  0.15521621  1.0
  Hf  Hf306  1  0.10051136  0.28297767  0.14479954  1.0
  Hf  Hf307  1  0.10051136  0.61631100  0.14479954  1.0
  Hf  Hf308  1  0.10051136  0.94964433  0.14479954  1.0
  Hf  Hf309  1  0.43384469  0.28297767  0.14479954  1.0
  Hf  Hf310  1  0.43384469  0.61631100  0.14479954  1.0
  Hf  Hf311  1  0.43384469  0.94964433  0.14479954  1.0
  Hf  Hf312  1  0.76717803  0.28297767  0.14479954  1.0
  Hf  Hf313  1  0.76717803  0.61631100  0.14479954  1.0
  Hf  Hf314  1  0.76717803  0.94964433  0.14479954  1.0
  Hf  Hf315  1  0.22551136  0.28297767  0.20729954  1.0
  Hf  Hf316  1  0.22551136  0.61631100  0.20729954  1.0
  Hf  Hf317  1  0.22551136  0.94964433  0.20729954  1.0
  Hf  Hf318  1  0.55884469  0.28297767  0.20729954  1.0
  Hf  Hf319  1  0.55884469  0.61631100  0.20729954  1.0
  Hf  Hf320  1  0.55884469  0.94964433  0.20729954  1.0
  Hf  Hf321  1  0.89217803  0.28297767  0.20729954  1.0
  Hf  Hf322  1  0.89217803  0.61631100  0.20729954  1.0
  Hf  Hf323  1  0.89217803  0.94964433  0.20729954  1.0
  Hf  Hf324  1  0.28953362  0.08333333  0.12819956  1.0
  Hf  Hf325  1  0.28953362  0.41666667  0.12819956  1.0
  Hf  Hf326  1  0.28953362  0.75000000  0.12819956  1.0
  Hf  Hf327  1  0.62286696  0.08333333  0.12819956  1.0
  Hf  Hf328  1  0.62286696  0.41666667  0.12819956  1.0
  Hf  Hf329  1  0.62286696  0.75000000  0.12819956  1.0
  Hf  Hf330  1  0.95620029  0.08333333  0.12819956  1.0
  Hf  Hf331  1  0.95620029  0.41666667  0.12819956  1.0
  Hf  Hf332  1  0.95620029  0.75000000  0.12819956  1.0
  Hf  Hf333  1  0.08120029  0.08333333  0.19069956  1.0
  Hf  Hf334  1  0.08120029  0.41666667  0.19069956  1.0
  Hf  Hf335  1  0.08120029  0.75000000  0.19069956  1.0
  Hf  Hf336  1  0.41453362  0.08333333  0.19069956  1.0
  Hf  Hf337  1  0.41453362  0.41666667  0.19069956  1.0
  Hf  Hf338  1  0.41453362  0.75000000  0.19069956  1.0
  Hf  Hf339  1  0.74786696  0.08333333  0.19069956  1.0
  Hf  Hf340  1  0.74786696  0.41666667  0.19069956  1.0
  Hf  Hf341  1  0.74786696  0.75000000  0.19069956  1.0
  Hf  Hf342  1  0.01870029  0.25000000  0.15944956  1.0
  Hf  Hf343  1  0.01870029  0.58333333  0.15944956  1.0
  Hf  Hf344  1  0.01870029  0.91666667  0.15944956  1.0
  Hf  Hf345  1  0.35203362  0.25000000  0.15944956  1.0
  Hf  Hf346  1  0.35203363  0.58333333  0.15944956  1.0
  Hf  Hf347  1  0.35203362  0.91666667  0.15944956  1.0
  Hf  Hf348  1  0.68536696  0.25000000  0.15944956  1.0
  Hf  Hf349  1  0.68536696  0.58333333  0.15944956  1.0
  Hf  Hf350  1  0.68536696  0.91666667  0.15944956  1.0
  Hf  Hf351  1  0.14370029  0.25000000  0.22194956  1.0
  Hf  Hf352  1  0.14370029  0.58333333  0.22194956  1.0
  Hf  Hf353  1  0.14370029  0.91666667  0.22194956  1.0
  Hf  Hf354  1  0.47703362  0.25000000  0.22194956  1.0
  Hf  Hf355  1  0.47703362  0.58333333  0.22194956  1.0
  Hf  Hf356  1  0.47703362  0.91666667  0.22194956  1.0
  Hf  Hf357  1  0.81036696  0.25000000  0.22194956  1.0
  Hf  Hf358  1  0.81036696  0.58333333  0.22194956  1.0
  Hf  Hf359  1  0.81036696  0.91666667  0.22194956  1.0
  Hf  Hf360  1  0.21779303  0.15128433  0.37010704  1.0
  Hf  Hf361  1  0.21779303  0.48461767  0.37010704  1.0
  Hf  Hf362  1  0.21779303  0.81795100  0.37010704  1.0
  Hf  Hf363  1  0.55112636  0.15128433  0.37010704  1.0
  Hf  Hf364  1  0.55112636  0.48461767  0.37010704  1.0
  Hf  Hf365  1  0.55112636  0.81795100  0.37010704  1.0
  Hf  Hf366  1  0.88445969  0.15128433  0.37010704  1.0
  Hf  Hf367  1  0.88445969  0.48461767  0.37010704  1.0
  Hf  Hf368  1  0.88445969  0.81795100  0.37010704  1.0
  Hf  Hf369  1  0.09279303  0.15128433  0.30760704  1.0
  Hf  Hf370  1  0.09279303  0.48461767  0.30760704  1.0
  Hf  Hf371  1  0.09279303  0.81795100  0.30760704  1.0
  Hf  Hf372  1  0.42612636  0.15128433  0.30760704  1.0
  Hf  Hf373  1  0.42612636  0.48461767  0.30760704  1.0
  Hf  Hf374  1  0.42612636  0.81795100  0.30760704  1.0
  Hf  Hf375  1  0.75945969  0.15128433  0.30760704  1.0
  Hf  Hf376  1  0.75945969  0.48461767  0.30760704  1.0
  Hf  Hf377  1  0.75945969  0.81795100  0.30760704  1.0
  Hf  Hf378  1  0.09973747  0.31795100  0.25552371  1.0
  Hf  Hf379  1  0.09973747  0.65128433  0.25552371  1.0
  Hf  Hf380  1  0.09973747  0.98461767  0.25552371  1.0
  Hf  Hf381  1  0.43307081  0.31795100  0.25552371  1.0
  Hf  Hf382  1  0.43307081  0.65128433  0.25552371  1.0
  Hf  Hf383  1  0.43307081  0.98461767  0.25552371  1.0
  Hf  Hf384  1  0.76640414  0.31795100  0.25552371  1.0
  Hf  Hf385  1  0.76640414  0.65128433  0.25552371  1.0
  Hf  Hf386  1  0.76640414  0.98461767  0.25552371  1.0
  Hf  Hf387  1  0.22473747  0.31795100  0.31802371  1.0
  Hf  Hf388  1  0.22473747  0.65128433  0.31802371  1.0
  Hf  Hf389  1  0.22473747  0.98461767  0.31802371  1.0
  Hf  Hf390  1  0.55807081  0.31795100  0.31802371  1.0
  Hf  Hf391  1  0.55807081  0.65128433  0.31802371  1.0
  Hf  Hf392  1  0.55807081  0.98461767  0.31802371  1.0
  Hf  Hf393  1  0.89140414  0.31795100  0.31802371  1.0
  Hf  Hf394  1  0.89140414  0.65128433  0.31802371  1.0
  Hf  Hf395  1  0.89140414  0.98461767  0.31802371  1.0
  Hf  Hf396  1  0.29877422  0.18204900  0.35504208  1.0
  Hf  Hf397  1  0.29877422  0.51538233  0.35504208  1.0
  Hf  Hf398  1  0.29877422  0.84871567  0.35504208  1.0
  Hf  Hf399  1  0.63210756  0.18204900  0.35504208  1.0
  Hf  Hf400  1  0.63210756  0.51538233  0.35504208  1.0
  Hf  Hf401  1  0.63210756  0.84871567  0.35504208  1.0
  Hf  Hf402  1  0.96544089  0.18204900  0.35504208  1.0
  Hf  Hf403  1  0.96544089  0.51538233  0.35504208  1.0
  Hf  Hf404  1  0.96544089  0.84871567  0.35504208  1.0
  Hf  Hf405  1  0.17377422  0.18204900  0.29254208  1.0
  Hf  Hf406  1  0.17377422  0.51538233  0.29254208  1.0
  Hf  Hf407  1  0.17377422  0.84871567  0.29254208  1.0
  Hf  Hf408  1  0.50710756  0.18204900  0.29254208  1.0
  Hf  Hf409  1  0.50710756  0.51538233  0.29254208  1.0
  Hf  Hf410  1  0.50710756  0.84871567  0.29254208  1.0
  Hf  Hf411  1  0.84044089  0.18204900  0.29254208  1.0
  Hf  Hf412  1  0.84044089  0.51538233  0.29254208  1.0
  Hf  Hf413  1  0.84044089  0.84871567  0.29254208  1.0
  Hf  Hf414  1  0.16682978  0.01538233  0.34462542  1.0
  Hf  Hf415  1  0.16682978  0.34871567  0.34462542  1.0
  Hf  Hf416  1  0.16682978  0.68204900  0.34462542  1.0
  Hf  Hf417  1  0.50016311  0.01538233  0.34462542  1.0
  Hf  Hf418  1  0.50016311  0.34871567  0.34462542  1.0
  Hf  Hf419  1  0.50016311  0.68204900  0.34462542  1.0
  Hf  Hf420  1  0.83349644  0.01538233  0.34462542  1.0
  Hf  Hf421  1  0.83349644  0.34871567  0.34462542  1.0
  Hf  Hf422  1  0.83349644  0.68204900  0.34462542  1.0
  Hf  Hf423  1  0.04182978  0.01538233  0.28212542  1.0
  Hf  Hf424  1  0.04182978  0.34871567  0.28212542  1.0
  Hf  Hf425  1  0.04182978  0.68204900  0.28212542  1.0
  Hf  Hf426  1  0.37516311  0.01538233  0.28212542  1.0
  Hf  Hf427  1  0.37516311  0.34871567  0.28212542  1.0
  Hf  Hf428  1  0.37516311  0.68204900  0.28212542  1.0
  Hf  Hf429  1  0.70849644  0.01538233  0.28212542  1.0
  Hf  Hf430  1  0.70849644  0.34871567  0.28212542  1.0
  Hf  Hf431  1  0.70849644  0.68204900  0.28212542  1.0
  Hf  Hf432  1  0.32577811  0.21702233  0.25743292  1.0
  Hf  Hf433  1  0.32577811  0.55035567  0.25743292  1.0
  Hf  Hf434  1  0.32577811  0.88368900  0.25743292  1.0
  Hf  Hf435  1  0.65911144  0.21702233  0.25743292  1.0
  Hf  Hf436  1  0.65911144  0.55035567  0.25743292  1.0
  Hf  Hf437  1  0.65911144  0.88368900  0.25743292  1.0
  Hf  Hf438  1  0.99244478  0.21702233  0.25743292  1.0
  Hf  Hf439  1  0.99244478  0.55035567  0.25743292  1.0
  Hf  Hf440  1  0.99244478  0.88368900  0.25743292  1.0
  Hf  Hf441  1  0.11744478  0.21702233  0.31993292  1.0
  Hf  Hf442  1  0.11744478  0.55035567  0.31993292  1.0
  Hf  Hf443  1  0.11744478  0.88368900  0.31993292  1.0
  Hf  Hf444  1  0.45077811  0.21702233  0.31993292  1.0
  Hf  Hf445  1  0.45077811  0.55035567  0.31993292  1.0
  Hf  Hf446  1  0.45077811  0.88368900  0.31993292  1.0
  Hf  Hf447  1  0.78411144  0.21702233  0.31993292  1.0
  Hf  Hf448  1  0.78411144  0.55035567  0.31993292  1.0
  Hf  Hf449  1  0.78411144  0.88368900  0.31993292  1.0
  Hf  Hf450  1  0.24938922  0.05035567  0.33034958  1.0
  Hf  Hf451  1  0.24938922  0.38368900  0.33034958  1.0
  Hf  Hf452  1  0.24938922  0.71702233  0.33034958  1.0
  Hf  Hf453  1  0.58272256  0.05035567  0.33034958  1.0
  Hf  Hf454  1  0.58272256  0.38368900  0.33034958  1.0
  Hf  Hf455  1  0.58272256  0.71702233  0.33034958  1.0
  Hf  Hf456  1  0.91605589  0.05035567  0.33034958  1.0
  Hf  Hf457  1  0.91605589  0.38368900  0.33034958  1.0
  Hf  Hf458  1  0.91605589  0.71702233  0.33034958  1.0
  Hf  Hf459  1  0.12438922  0.05035567  0.26784958  1.0
  Hf  Hf460  1  0.12438922  0.38368900  0.26784958  1.0
  Hf  Hf461  1  0.12438922  0.71702233  0.26784958  1.0
  Hf  Hf462  1  0.45772256  0.05035567  0.26784958  1.0
  Hf  Hf463  1  0.45772256  0.38368900  0.26784958  1.0
  Hf  Hf464  1  0.45772256  0.71702233  0.26784958  1.0
  Hf  Hf465  1  0.79105589  0.05035567  0.26784958  1.0
  Hf  Hf466  1  0.79105589  0.38368900  0.26784958  1.0
  Hf  Hf467  1  0.79105589  0.71702233  0.26784958  1.0
  Hf  Hf468  1  0.27412247  0.11631100  0.34271621  1.0
  Hf  Hf469  1  0.27412247  0.44964433  0.34271621  1.0
  Hf  Hf470  1  0.27412247  0.78297767  0.34271621  1.0
  Hf  Hf471  1  0.60745581  0.11631100  0.34271621  1.0
  Hf  Hf472  1  0.60745581  0.44964433  0.34271621  1.0
  Hf  Hf473  1  0.60745581  0.78297767  0.34271621  1.0
  Hf  Hf474  1  0.94078914  0.11631100  0.34271621  1.0
  Hf  Hf475  1  0.94078914  0.44964433  0.34271621  1.0
  Hf  Hf476  1  0.94078914  0.78297767  0.34271621  1.0
  Hf  Hf477  1  0.14912247  0.11631100  0.28021621  1.0
  Hf  Hf478  1  0.14912247  0.44964433  0.28021621  1.0
  Hf  Hf479  1  0.14912247  0.78297767  0.28021621  1.0
  Hf  Hf480  1  0.48245581  0.11631100  0.28021621  1.0
  Hf  Hf481  1  0.48245581  0.44964433  0.28021621  1.0
  Hf  Hf482  1  0.48245581  0.78297767  0.28021621  1.0
  Hf  Hf483  1  0.81578914  0.11631100  0.28021621  1.0
  Hf  Hf484  1  0.81578914  0.44964433  0.28021621  1.0
  Hf  Hf485  1  0.81578914  0.78297767  0.28021621  1.0
  Hf  Hf486  1  0.01717803  0.28297767  0.26979954  1.0
  Hf  Hf487  1  0.01717803  0.61631100  0.26979954  1.0
  Hf  Hf488  1  0.01717803  0.94964433  0.26979954  1.0
  Hf  Hf489  1  0.35051136  0.28297767  0.26979954  1.0
  Hf  Hf490  1  0.35051136  0.61631100  0.26979954  1.0
  Hf  Hf491  1  0.35051136  0.94964433  0.26979954  1.0
  Hf  Hf492  1  0.68384469  0.28297767  0.26979954  1.0
  Hf  Hf493  1  0.68384469  0.61631100  0.26979954  1.0
  Hf  Hf494  1  0.68384469  0.94964433  0.26979954  1.0
  Hf  Hf495  1  0.14217803  0.28297767  0.33229954  1.0
  Hf  Hf496  1  0.14217803  0.61631100  0.33229954  1.0
  Hf  Hf497  1  0.14217803  0.94964433  0.33229954  1.0
  Hf  Hf498  1  0.47551136  0.28297767  0.33229954  1.0
  Hf  Hf499  1  0.47551136  0.61631100  0.33229954  1.0
  Hf  Hf500  1  0.47551136  0.94964433  0.33229954  1.0
  Hf  Hf501  1  0.80884469  0.28297767  0.33229954  1.0
  Hf  Hf502  1  0.80884469  0.61631100  0.33229954  1.0
  Hf  Hf503  1  0.80884469  0.94964433  0.33229954  1.0
  Hf  Hf504  1  0.20620029  0.08333333  0.25319956  1.0
  Hf  Hf505  1  0.20620029  0.41666667  0.25319956  1.0
  Hf  Hf506  1  0.20620029  0.75000000  0.25319956  1.0
  Hf  Hf507  1  0.53953362  0.08333333  0.25319956  1.0
  Hf  Hf508  1  0.53953362  0.41666667  0.25319956  1.0
  Hf  Hf509  1  0.53953362  0.75000000  0.25319956  1.0
  Hf  Hf510  1  0.87286696  0.08333333  0.25319956  1.0
  Hf  Hf511  1  0.87286696  0.41666667  0.25319956  1.0
  Hf  Hf512  1  0.87286696  0.75000000  0.25319956  1.0
  Hf  Hf513  1  0.33120029  0.08333333  0.31569956  1.0
  Hf  Hf514  1  0.33120029  0.41666667  0.31569956  1.0
  Hf  Hf515  1  0.33120029  0.75000000  0.31569956  1.0
  Hf  Hf516  1  0.66453362  0.08333333  0.31569956  1.0
  Hf  Hf517  1  0.66453362  0.41666667  0.31569956  1.0
  Hf  Hf518  1  0.66453362  0.75000000  0.31569956  1.0
  Hf  Hf519  1  0.99786696  0.08333333  0.31569956  1.0
  Hf  Hf520  1  0.99786696  0.41666667  0.31569956  1.0
  Hf  Hf521  1  0.99786696  0.75000000  0.31569956  1.0
  Hf  Hf522  1  0.26870029  0.25000000  0.28444956  1.0
  Hf  Hf523  1  0.26870029  0.58333333  0.28444956  1.0
  Hf  Hf524  1  0.26870029  0.91666667  0.28444956  1.0
  Hf  Hf525  1  0.60203362  0.25000000  0.28444956  1.0
  Hf  Hf526  1  0.60203362  0.58333333  0.28444956  1.0
  Hf  Hf527  1  0.60203362  0.91666667  0.28444956  1.0
  Hf  Hf528  1  0.93536696  0.25000000  0.28444956  1.0
  Hf  Hf529  1  0.93536696  0.58333333  0.28444956  1.0
  Hf  Hf530  1  0.93536696  0.91666667  0.28444956  1.0
  Hf  Hf531  1  0.06036696  0.25000000  0.34694956  1.0
  Hf  Hf532  1  0.06036696  0.58333333  0.34694956  1.0
  Hf  Hf533  1  0.06036696  0.91666667  0.34694956  1.0
  Hf  Hf534  1  0.39370029  0.25000000  0.34694956  1.0
  Hf  Hf535  1  0.39370029  0.58333333  0.34694956  1.0
  Hf  Hf536  1  0.39370029  0.91666667  0.34694956  1.0
  Hf  Hf537  1  0.72703362  0.25000000  0.34694956  1.0
  Hf  Hf538  1  0.72703362  0.58333333  0.34694956  1.0
  Hf  Hf539  1  0.72703362  0.91666667  0.34694956  1.0
  Ni  Ni540  1  0.14254721  0.28347267  0.08266769  1.0
  Ni  Ni541  1  0.14254721  0.61680600  0.08266769  1.0
  Ni  Ni542  1  0.14254721  0.95013933  0.08266769  1.0
  Ni  Ni543  1  0.47588054  0.28347267  0.08266769  1.0
  Ni  Ni544  1  0.47588054  0.61680600  0.08266769  1.0
  Ni  Ni545  1  0.47588054  0.95013933  0.08266769  1.0
  Ni  Ni546  1  0.80921387  0.28347267  0.08266769  1.0
  Ni  Ni547  1  0.80921387  0.61680600  0.08266769  1.0
  Ni  Ni548  1  0.80921387  0.95013933  0.08266769  1.0
  Ni  Ni549  1  0.01754721  0.28347267  0.02016769  1.0
  Ni  Ni550  1  0.01754721  0.61680600  0.02016769  1.0
  Ni  Ni551  1  0.01754721  0.95013933  0.02016769  1.0
  Ni  Ni552  1  0.35088054  0.28347267  0.02016769  1.0
  Ni  Ni553  1  0.35088054  0.61680600  0.02016769  1.0
  Ni  Ni554  1  0.35088054  0.95013933  0.02016769  1.0
  Ni  Ni555  1  0.68421387  0.28347267  0.02016769  1.0
  Ni  Ni556  1  0.68421387  0.61680600  0.02016769  1.0
  Ni  Ni557  1  0.68421387  0.95013933  0.02016769  1.0
  Ni  Ni558  1  0.24657621  0.28347267  0.05079819  1.0
  Ni  Ni559  1  0.24657621  0.61680600  0.05079819  1.0
  Ni  Ni560  1  0.24657621  0.95013933  0.05079819  1.0
  Ni  Ni561  1  0.57990954  0.28347267  0.05079819  1.0
  Ni  Ni562  1  0.57990954  0.61680600  0.05079819  1.0
  Ni  Ni563  1  0.57990954  0.95013933  0.05079819  1.0
  Ni  Ni564  1  0.91324288  0.28347267  0.05079819  1.0
  Ni  Ni565  1  0.91324287  0.61680600  0.05079819  1.0
  Ni  Ni566  1  0.91324287  0.95013933  0.05079819  1.0
  Ni  Ni567  1  0.03824288  0.28347267  0.11329819  1.0
  Ni  Ni568  1  0.03824287  0.61680600  0.11329819  1.0
  Ni  Ni569  1  0.03824288  0.95013933  0.11329819  1.0
  Ni  Ni570  1  0.37157621  0.28347267  0.11329819  1.0
  Ni  Ni571  1  0.37157621  0.61680600  0.11329819  1.0
  Ni  Ni572  1  0.37157621  0.95013933  0.11329819  1.0
  Ni  Ni573  1  0.70490954  0.28347267  0.11329819  1.0
  Ni  Ni574  1  0.70490954  0.61680600  0.11329819  1.0
  Ni  Ni575  1  0.70490954  0.95013933  0.11329819  1.0
  Ni  Ni576  1  0.20463421  0.28347267  0.11371119  1.0
  Ni  Ni577  1  0.20463421  0.61680600  0.11371119  1.0
  Ni  Ni578  1  0.20463421  0.95013933  0.11371119  1.0
  Ni  Ni579  1  0.53796754  0.28347267  0.11371119  1.0
  Ni  Ni580  1  0.53796754  0.61680600  0.11371119  1.0
  Ni  Ni581  1  0.53796754  0.95013933  0.11371119  1.0
  Ni  Ni582  1  0.87130087  0.28347267  0.11371119  1.0
  Ni  Ni583  1  0.87130087  0.61680600  0.11371119  1.0
  Ni  Ni584  1  0.87130087  0.95013933  0.11371119  1.0
  Ni  Ni585  1  0.07963421  0.28347267  0.05121119  1.0
  Ni  Ni586  1  0.07963421  0.61680600  0.05121119  1.0
  Ni  Ni587  1  0.07963421  0.95013933  0.05121119  1.0
  Ni  Ni588  1  0.41296754  0.28347267  0.05121119  1.0
  Ni  Ni589  1  0.41296754  0.61680600  0.05121119  1.0
  Ni  Ni590  1  0.41296754  0.95013933  0.05121119  1.0
  Ni  Ni591  1  0.74630087  0.28347267  0.05121119  1.0
  Ni  Ni592  1  0.74630087  0.61680600  0.05121119  1.0
  Ni  Ni593  1  0.74630087  0.95013933  0.05121119  1.0
  Ni  Ni594  1  0.00370421  0.11680600  0.12399019  1.0
  Ni  Ni595  1  0.00370421  0.45013933  0.12399019  1.0
  Ni  Ni596  1  0.00370421  0.78347267  0.12399019  1.0
  Ni  Ni597  1  0.33703754  0.11680600  0.12399019  1.0
  Ni  Ni598  1  0.33703754  0.45013933  0.12399019  1.0
  Ni  Ni599  1  0.33703754  0.78347267  0.12399019  1.0
  Ni  Ni600  1  0.67037087  0.11680600  0.12399019  1.0
  Ni  Ni601  1  0.67037087  0.45013933  0.12399019  1.0
  Ni  Ni602  1  0.67037087  0.78347267  0.12399019  1.0
  Ni  Ni603  1  0.21203754  0.11680600  0.06149019  1.0
  Ni  Ni604  1  0.21203754  0.45013933  0.06149019  1.0
  Ni  Ni605  1  0.21203754  0.78347267  0.06149019  1.0
  Ni  Ni606  1  0.54537087  0.11680600  0.06149019  1.0
  Ni  Ni607  1  0.54537087  0.45013933  0.06149019  1.0
  Ni  Ni608  1  0.54537087  0.78347267  0.06149019  1.0
  Ni  Ni609  1  0.87870421  0.11680600  0.06149019  1.0
  Ni  Ni610  1  0.87870421  0.45013933  0.06149019  1.0
  Ni  Ni611  1  0.87870421  0.78347267  0.06149019  1.0
  Ni  Ni612  1  0.01999104  0.04986067  0.04935094  1.0
  Ni  Ni613  1  0.01999104  0.38319400  0.04935094  1.0
  Ni  Ni614  1  0.01999104  0.71652733  0.04935094  1.0
  Ni  Ni615  1  0.35332437  0.04986067  0.04935094  1.0
  Ni  Ni616  1  0.35332438  0.38319400  0.04935094  1.0
  Ni  Ni617  1  0.35332438  0.71652733  0.04935094  1.0
  Ni  Ni618  1  0.68665771  0.04986067  0.04935094  1.0
  Ni  Ni619  1  0.68665771  0.38319400  0.04935094  1.0
  Ni  Ni620  1  0.68665771  0.71652733  0.04935094  1.0
  Ni  Ni621  1  0.14499104  0.04986067  0.11185094  1.0
  Ni  Ni622  1  0.14499104  0.38319400  0.11185094  1.0
  Ni  Ni623  1  0.14499104  0.71652733  0.11185094  1.0
  Ni  Ni624  1  0.47832437  0.04986067  0.11185094  1.0
  Ni  Ni625  1  0.47832437  0.38319400  0.11185094  1.0
  Ni  Ni626  1  0.47832437  0.71652733  0.11185094  1.0
  Ni  Ni627  1  0.81165771  0.04986067  0.11185094  1.0
  Ni  Ni628  1  0.81165771  0.38319400  0.11185094  1.0
  Ni  Ni629  1  0.81165771  0.71652733  0.11185094  1.0
  Ni  Ni630  1  0.14912454  0.11680600  0.03003369  1.0
  Ni  Ni631  1  0.14912454  0.45013933  0.03003369  1.0
  Ni  Ni632  1  0.14912454  0.78347267  0.03003369  1.0
  Ni  Ni633  1  0.48245787  0.11680600  0.03003369  1.0
  Ni  Ni634  1  0.48245787  0.45013933  0.03003369  1.0
  Ni  Ni635  1  0.48245787  0.78347267  0.03003369  1.0
  Ni  Ni636  1  0.81579121  0.11680600  0.03003369  1.0
  Ni  Ni637  1  0.81579121  0.45013933  0.03003369  1.0
  Ni  Ni638  1  0.81579121  0.78347267  0.03003369  1.0
  Ni  Ni639  1  0.27412454  0.11680600  0.09253369  1.0
  Ni  Ni640  1  0.27412454  0.45013933  0.09253369  1.0
  Ni  Ni641  1  0.27412454  0.78347267  0.09253369  1.0
  Ni  Ni642  1  0.60745788  0.11680600  0.09253369  1.0
  Ni  Ni643  1  0.60745788  0.45013933  0.09253369  1.0
  Ni  Ni644  1  0.60745787  0.78347267  0.09253369  1.0
  Ni  Ni645  1  0.94079121  0.11680600  0.09253369  1.0
  Ni  Ni646  1  0.94079121  0.45013933  0.09253369  1.0
  Ni  Ni647  1  0.94079121  0.78347267  0.09253369  1.0
  Ni  Ni648  1  0.04509554  0.11680600  0.06190319  1.0
  Ni  Ni649  1  0.04509554  0.45013933  0.06190319  1.0
  Ni  Ni650  1  0.04509554  0.78347267  0.06190319  1.0
  Ni  Ni651  1  0.37842887  0.11680600  0.06190319  1.0
  Ni  Ni652  1  0.37842887  0.45013933  0.06190319  1.0
  Ni  Ni653  1  0.37842887  0.78347267  0.06190319  1.0
  Ni  Ni654  1  0.71176221  0.11680600  0.06190319  1.0
  Ni  Ni655  1  0.71176221  0.45013933  0.06190319  1.0
  Ni  Ni656  1  0.71176221  0.78347267  0.06190319  1.0
  Ni  Ni657  1  0.17009554  0.11680600  0.12440319  1.0
  Ni  Ni658  1  0.17009554  0.45013933  0.12440319  1.0
  Ni  Ni659  1  0.17009554  0.78347267  0.12440319  1.0
  Ni  Ni660  1  0.50342887  0.11680600  0.12440319  1.0
  Ni  Ni661  1  0.50342887  0.45013933  0.12440319  1.0
  Ni  Ni662  1  0.50342887  0.78347267  0.12440319  1.0
  Ni  Ni663  1  0.83676221  0.11680600  0.12440319  1.0
  Ni  Ni664  1  0.83676221  0.45013933  0.12440319  1.0
  Ni  Ni665  1  0.83676221  0.78347267  0.12440319  1.0
  Ni  Ni666  1  0.11744271  0.21652733  0.07011544  1.0
  Ni  Ni667  1  0.11744271  0.54986067  0.07011544  1.0
  Ni  Ni668  1  0.11744271  0.88319400  0.07011544  1.0
  Ni  Ni669  1  0.45077604  0.21652733  0.07011544  1.0
  Ni  Ni670  1  0.45077604  0.54986067  0.07011544  1.0
  Ni  Ni671  1  0.45077604  0.88319400  0.07011544  1.0
  Ni  Ni672  1  0.78410937  0.21652733  0.07011544  1.0
  Ni  Ni673  1  0.78410937  0.54986067  0.07011544  1.0
  Ni  Ni674  1  0.78410937  0.88319400  0.07011544  1.0
  Ni  Ni675  1  0.32577604  0.21652733  0.00761544  1.0
  Ni  Ni676  1  0.32577604  0.54986067  0.00761544  1.0
  Ni  Ni677  1  0.32577604  0.88319400  0.00761544  1.0
  Ni  Ni678  1  0.65910937  0.21652733  0.00761544  1.0
  Ni  Ni679  1  0.65910937  0.54986067  0.00761544  1.0
  Ni  Ni680  1  0.65910937  0.88319400  0.00761544  1.0
  Ni  Ni681  1  0.99244271  0.21652733  0.00761544  1.0
  Ni  Ni682  1  0.99244271  0.54986067  0.00761544  1.0
  Ni  Ni683  1  0.99244271  0.88319400  0.00761544  1.0
  Ni  Ni684  1  0.17952971  0.21652733  0.10115894  1.0
  Ni  Ni685  1  0.17952971  0.54986067  0.10115894  1.0
  Ni  Ni686  1  0.17952971  0.88319400  0.10115894  1.0
  Ni  Ni687  1  0.51286304  0.21652733  0.10115894  1.0
  Ni  Ni688  1  0.51286304  0.54986067  0.10115894  1.0
  Ni  Ni689  1  0.51286304  0.88319400  0.10115894  1.0
  Ni  Ni690  1  0.84619637  0.21652733  0.10115894  1.0
  Ni  Ni691  1  0.84619637  0.54986067  0.10115894  1.0
  Ni  Ni692  1  0.84619637  0.88319400  0.10115894  1.0
  Ni  Ni693  1  0.05452971  0.21652733  0.03865894  1.0
  Ni  Ni694  1  0.05452971  0.54986067  0.03865894  1.0
  Ni  Ni695  1  0.05452971  0.88319400  0.03865894  1.0
  Ni  Ni696  1  0.38786304  0.21652733  0.03865894  1.0
  Ni  Ni697  1  0.38786304  0.54986067  0.03865894  1.0
  Ni  Ni698  1  0.38786304  0.88319400  0.03865894  1.0
  Ni  Ni699  1  0.72119637  0.21652733  0.03865894  1.0
  Ni  Ni700  1  0.72119637  0.54986067  0.03865894  1.0
  Ni  Ni701  1  0.72119637  0.88319400  0.03865894  1.0
  Ni  Ni702  1  0.31193304  0.04986067  0.11143794  1.0
  Ni  Ni703  1  0.31193304  0.38319400  0.11143794  1.0
  Ni  Ni704  1  0.31193304  0.71652733  0.11143794  1.0
  Ni  Ni705  1  0.64526637  0.04986067  0.11143794  1.0
  Ni  Ni706  1  0.64526638  0.38319400  0.11143794  1.0
  Ni  Ni707  1  0.64526637  0.71652733  0.11143794  1.0
  Ni  Ni708  1  0.97859971  0.04986067  0.11143794  1.0
  Ni  Ni709  1  0.97859971  0.38319400  0.11143794  1.0
  Ni  Ni710  1  0.97859971  0.71652733  0.11143794  1.0
  Ni  Ni711  1  0.18693304  0.04986067  0.04893794  1.0
  Ni  Ni712  1  0.18693304  0.38319400  0.04893794  1.0
  Ni  Ni713  1  0.18693304  0.71652733  0.04893794  1.0
  Ni  Ni714  1  0.52026638  0.04986067  0.04893794  1.0
  Ni  Ni715  1  0.52026637  0.38319400  0.04893794  1.0
  Ni  Ni716  1  0.52026637  0.71652733  0.04893794  1.0
  Ni  Ni717  1  0.85359971  0.04986067  0.04893794  1.0
  Ni  Ni718  1  0.85359971  0.38319400  0.04893794  1.0
  Ni  Ni719  1  0.85359971  0.71652733  0.04893794  1.0
  Ni  Ni720  1  0.16408977  0.25000000  0.06902847  1.0
  Ni  Ni721  1  0.16408977  0.58333333  0.06902847  1.0
  Ni  Ni722  1  0.16408977  0.91666667  0.06902847  1.0
  Ni  Ni723  1  0.49742310  0.25000000  0.06902847  1.0
  Ni  Ni724  1  0.49742310  0.58333333  0.06902847  1.0
  Ni  Ni725  1  0.49742310  0.91666667  0.06902847  1.0
  Ni  Ni726  1  0.83075644  0.25000000  0.06902847  1.0
  Ni  Ni727  1  0.83075644  0.58333333  0.06902847  1.0
  Ni  Ni728  1  0.83075644  0.91666667  0.06902847  1.0
  Ni  Ni729  1  0.03908977  0.25000000  0.00652847  1.0
  Ni  Ni730  1  0.03908977  0.58333333  0.00652847  1.0
  Ni  Ni731  1  0.03908977  0.91666667  0.00652847  1.0
  Ni  Ni732  1  0.37242310  0.25000000  0.00652847  1.0
  Ni  Ni733  1  0.37242310  0.58333333  0.00652847  1.0
  Ni  Ni734  1  0.37242310  0.91666667  0.00652847  1.0
  Ni  Ni735  1  0.70575644  0.25000000  0.00652847  1.0
  Ni  Ni736  1  0.70575644  0.58333333  0.00652847  1.0
  Ni  Ni737  1  0.70575644  0.91666667  0.00652847  1.0
  Ni  Ni738  1  0.33297571  0.08333333  0.06836269  1.0
  Ni  Ni739  1  0.33297571  0.41666667  0.06836269  1.0
  Ni  Ni740  1  0.33297571  0.75000000  0.06836269  1.0
  Ni  Ni741  1  0.66630904  0.08333333  0.06836269  1.0
  Ni  Ni742  1  0.66630904  0.41666667  0.06836269  1.0
  Ni  Ni743  1  0.66630904  0.75000000  0.06836269  1.0
  Ni  Ni744  1  0.99964237  0.08333333  0.06836269  1.0
  Ni  Ni745  1  0.99964238  0.41666667  0.06836269  1.0
  Ni  Ni746  1  0.99964237  0.75000000  0.06836269  1.0
  Ni  Ni747  1  0.20797571  0.08333333  0.00586269  1.0
  Ni  Ni748  1  0.20797571  0.41666667  0.00586269  1.0
  Ni  Ni749  1  0.20797571  0.75000000  0.00586269  1.0
  Ni  Ni750  1  0.54130904  0.08333333  0.00586269  1.0
  Ni  Ni751  1  0.54130904  0.41666667  0.00586269  1.0
  Ni  Ni752  1  0.54130904  0.75000000  0.00586269  1.0
  Ni  Ni753  1  0.87464237  0.08333333  0.00586269  1.0
  Ni  Ni754  1  0.87464237  0.41666667  0.00586269  1.0
  Ni  Ni755  1  0.87464237  0.75000000  0.00586269  1.0
  Ni  Ni756  1  0.05814769  0.08333333  0.09761534  1.0
  Ni  Ni757  1  0.05814769  0.41666667  0.09761534  1.0
  Ni  Ni758  1  0.05814769  0.75000000  0.09761534  1.0
  Ni  Ni759  1  0.39148102  0.08333333  0.09761534  1.0
  Ni  Ni760  1  0.39148102  0.41666667  0.09761534  1.0
  Ni  Ni761  1  0.39148102  0.75000000  0.09761534  1.0
  Ni  Ni762  1  0.72481435  0.08333333  0.09761534  1.0
  Ni  Ni763  1  0.72481435  0.41666667  0.09761534  1.0
  Ni  Ni764  1  0.72481435  0.75000000  0.09761534  1.0
  Ni  Ni765  1  0.26648102  0.08333333  0.03511534  1.0
  Ni  Ni766  1  0.26648102  0.41666667  0.03511534  1.0
  Ni  Ni767  1  0.26648102  0.75000000  0.03511534  1.0
  Ni  Ni768  1  0.59981435  0.08333333  0.03511534  1.0
  Ni  Ni769  1  0.59981435  0.41666667  0.03511534  1.0
  Ni  Ni770  1  0.59981435  0.75000000  0.03511534  1.0
  Ni  Ni771  1  0.93314769  0.08333333  0.03511534  1.0
  Ni  Ni772  1  0.93314769  0.41666667  0.03511534  1.0
  Ni  Ni773  1  0.93314769  0.75000000  0.03511534  1.0
  Ni  Ni774  1  0.20841956  0.25000000  0.00253378  1.0
  Ni  Ni775  1  0.20841956  0.58333333  0.00253378  1.0
  Ni  Ni776  1  0.20841956  0.91666667  0.00253378  1.0
  Ni  Ni777  1  0.54175290  0.25000000  0.00253378  1.0
  Ni  Ni778  1  0.54175290  0.58333333  0.00253378  1.0
  Ni  Ni779  1  0.54175290  0.91666667  0.00253378  1.0
  Ni  Ni780  1  0.87508623  0.25000000  0.00253378  1.0
  Ni  Ni781  1  0.87508623  0.58333333  0.00253378  1.0
  Ni  Ni782  1  0.87508623  0.91666667  0.00253378  1.0
  Ni  Ni783  1  0.00008623  0.25000000  0.06503378  1.0
  Ni  Ni784  1  0.00008623  0.58333333  0.06503378  1.0
  Ni  Ni785  1  0.00008623  0.91666667  0.06503378  1.0
  Ni  Ni786  1  0.33341956  0.25000000  0.06503378  1.0
  Ni  Ni787  1  0.33341956  0.58333333  0.06503378  1.0
  Ni  Ni788  1  0.33341956  0.91666667  0.06503378  1.0
  Ni  Ni789  1  0.66675290  0.25000000  0.06503378  1.0
  Ni  Ni790  1  0.66675290  0.58333333  0.06503378  1.0
  Ni  Ni791  1  0.66675290  0.91666667  0.06503378  1.0
  Ni  Ni792  1  0.26692487  0.25000000  0.03178644  1.0
  Ni  Ni793  1  0.26692487  0.58333333  0.03178644  1.0
  Ni  Ni794  1  0.26692487  0.91666667  0.03178644  1.0
  Ni  Ni795  1  0.60025821  0.25000000  0.03178644  1.0
  Ni  Ni796  1  0.60025821  0.58333333  0.03178644  1.0
  Ni  Ni797  1  0.60025821  0.91666667  0.03178644  1.0
  Ni  Ni798  1  0.93359154  0.25000000  0.03178644  1.0
  Ni  Ni799  1  0.93359154  0.58333333  0.03178644  1.0
  Ni  Ni800  1  0.93359154  0.91666667  0.03178644  1.0
  Ni  Ni801  1  0.05859154  0.25000000  0.09428644  1.0
  Ni  Ni802  1  0.05859154  0.58333333  0.09428644  1.0
  Ni  Ni803  1  0.05859154  0.91666667  0.09428644  1.0
  Ni  Ni804  1  0.39192487  0.25000000  0.09428644  1.0
  Ni  Ni805  1  0.39192487  0.58333333  0.09428644  1.0
  Ni  Ni806  1  0.39192487  0.91666667  0.09428644  1.0
  Ni  Ni807  1  0.72525821  0.25000000  0.09428644  1.0
  Ni  Ni808  1  0.72525821  0.58333333  0.09428644  1.0
  Ni  Ni809  1  0.72525821  0.91666667  0.09428644  1.0
  Ni  Ni810  1  0.10247748  0.08333333  0.03112066  1.0
  Ni  Ni811  1  0.10247748  0.41666667  0.03112066  1.0
  Ni  Ni812  1  0.10247748  0.75000000  0.03112066  1.0
  Ni  Ni813  1  0.43581081  0.08333333  0.03112066  1.0
  Ni  Ni814  1  0.43581081  0.41666667  0.03112066  1.0
  Ni  Ni815  1  0.43581081  0.75000000  0.03112066  1.0
  Ni  Ni816  1  0.76914415  0.08333333  0.03112066  1.0
  Ni  Ni817  1  0.76914415  0.41666667  0.03112066  1.0
  Ni  Ni818  1  0.76914415  0.75000000  0.03112066  1.0
  Ni  Ni819  1  0.22747748  0.08333333  0.09362066  1.0
  Ni  Ni820  1  0.22747748  0.41666667  0.09362066  1.0
  Ni  Ni821  1  0.22747748  0.75000000  0.09362066  1.0
  Ni  Ni822  1  0.56081081  0.08333333  0.09362066  1.0
  Ni  Ni823  1  0.56081081  0.41666667  0.09362066  1.0
  Ni  Ni824  1  0.56081081  0.75000000  0.09362066  1.0
  Ni  Ni825  1  0.89414415  0.08333333  0.09362066  1.0
  Ni  Ni826  1  0.89414415  0.41666667  0.09362066  1.0
  Ni  Ni827  1  0.89414415  0.75000000  0.09362066  1.0
  Ni  Ni828  1  0.07067048  0.18373100  0.07086616  1.0
  Ni  Ni829  1  0.07067048  0.51706433  0.07086616  1.0
  Ni  Ni830  1  0.07067048  0.85039767  0.07086616  1.0
  Ni  Ni831  1  0.40400381  0.18373100  0.07086616  1.0
  Ni  Ni832  1  0.40400381  0.51706433  0.07086616  1.0
  Ni  Ni833  1  0.40400381  0.85039767  0.07086616  1.0
  Ni  Ni834  1  0.73733715  0.18373100  0.07086616  1.0
  Ni  Ni835  1  0.73733715  0.51706433  0.07086616  1.0
  Ni  Ni836  1  0.73733715  0.85039767  0.07086616  1.0
  Ni  Ni837  1  0.27900381  0.18373100  0.00836616  1.0
  Ni  Ni838  1  0.27900381  0.51706433  0.00836616  1.0
  Ni  Ni839  1  0.27900381  0.85039767  0.00836616  1.0
  Ni  Ni840  1  0.61233715  0.18373100  0.00836616  1.0
  Ni  Ni841  1  0.61233715  0.51706433  0.00836616  1.0
  Ni  Ni842  1  0.61233715  0.85039767  0.00836616  1.0
  Ni  Ni843  1  0.94567048  0.18373100  0.00836616  1.0
  Ni  Ni844  1  0.94567048  0.51706433  0.00836616  1.0
  Ni  Ni845  1  0.94567048  0.85039767  0.00836616  1.0
  Ni  Ni846  1  0.04073183  0.01706433  0.02984775  1.0
  Ni  Ni847  1  0.04073183  0.35039767  0.02984775  1.0
  Ni  Ni848  1  0.04073183  0.68373100  0.02984775  1.0
  Ni  Ni849  1  0.37406517  0.01706433  0.02984775  1.0
  Ni  Ni850  1  0.37406517  0.35039767  0.02984775  1.0
  Ni  Ni851  1  0.37406517  0.68373100  0.02984775  1.0
  Ni  Ni852  1  0.70739850  0.01706433  0.02984775  1.0
  Ni  Ni853  1  0.70739850  0.35039767  0.02984775  1.0
  Ni  Ni854  1  0.70739850  0.68373100  0.02984775  1.0
  Ni  Ni855  1  0.16573183  0.01706433  0.09234775  1.0
  Ni  Ni856  1  0.16573183  0.35039767  0.09234775  1.0
  Ni  Ni857  1  0.16573183  0.68373100  0.09234775  1.0
  Ni  Ni858  1  0.49906517  0.01706433  0.09234775  1.0
  Ni  Ni859  1  0.49906517  0.35039767  0.09234775  1.0
  Ni  Ni860  1  0.49906517  0.68373100  0.09234775  1.0
  Ni  Ni861  1  0.83239850  0.01706433  0.09234775  1.0
  Ni  Ni862  1  0.83239850  0.35039767  0.09234775  1.0
  Ni  Ni863  1  0.83239850  0.68373100  0.09234775  1.0
  Ni  Ni864  1  0.10712140  0.01706433  0.06304253  1.0
  Ni  Ni865  1  0.10712140  0.35039767  0.06304253  1.0
  Ni  Ni866  1  0.10712140  0.68373100  0.06304253  1.0
  Ni  Ni867  1  0.44045473  0.01706433  0.06304253  1.0
  Ni  Ni868  1  0.44045473  0.35039767  0.06304253  1.0
  Ni  Ni869  1  0.44045473  0.68373100  0.06304253  1.0
  Ni  Ni870  1  0.77378806  0.01706433  0.06304253  1.0
  Ni  Ni871  1  0.77378806  0.35039767  0.06304253  1.0
  Ni  Ni872  1  0.77378806  0.68373100  0.06304253  1.0
  Ni  Ni873  1  0.31545473  0.01706433  0.00054253  1.0
  Ni  Ni874  1  0.31545473  0.35039767  0.00054253  1.0
  Ni  Ni875  1  0.31545473  0.68373100  0.00054253  1.0
  Ni  Ni876  1  0.64878806  0.01706433  0.00054253  1.0
  Ni  Ni877  1  0.64878806  0.35039767  0.00054253  1.0
  Ni  Ni878  1  0.64878806  0.68373100  0.00054253  1.0
  Ni  Ni879  1  0.98212140  0.01706433  0.00054253  1.0
  Ni  Ni880  1  0.98212140  0.35039767  0.00054253  1.0
  Ni  Ni881  1  0.98212140  0.68373100  0.00054253  1.0
  Ni  Ni882  1  0.10974410  0.18373100  0.01225572  1.0
  Ni  Ni883  1  0.10974410  0.51706433  0.01225572  1.0
  Ni  Ni884  1  0.10974410  0.85039767  0.01225572  1.0
  Ni  Ni885  1  0.44307744  0.18373100  0.01225572  1.0
  Ni  Ni886  1  0.44307744  0.51706433  0.01225572  1.0
  Ni  Ni887  1  0.44307744  0.85039767  0.01225572  1.0
  Ni  Ni888  1  0.77641077  0.18373100  0.01225572  1.0
  Ni  Ni889  1  0.77641077  0.51706433  0.01225572  1.0
  Ni  Ni890  1  0.77641077  0.85039767  0.01225572  1.0
  Ni  Ni891  1  0.23474410  0.18373100  0.07475572  1.0
  Ni  Ni892  1  0.23474410  0.51706433  0.07475572  1.0
  Ni  Ni893  1  0.23474410  0.85039767  0.07475572  1.0
  Ni  Ni894  1  0.56807744  0.18373100  0.07475572  1.0
  Ni  Ni895  1  0.56807744  0.51706433  0.07475572  1.0
  Ni  Ni896  1  0.56807744  0.85039767  0.07475572  1.0
  Ni  Ni897  1  0.90141077  0.18373100  0.07475572  1.0
  Ni  Ni898  1  0.90141077  0.51706433  0.07475572  1.0
  Ni  Ni899  1  0.90141077  0.85039767  0.07475572  1.0
  Ni  Ni900  1  0.17613367  0.18373100  0.04545050  1.0
  Ni  Ni901  1  0.17613367  0.51706433  0.04545050  1.0
  Ni  Ni902  1  0.17613367  0.85039767  0.04545050  1.0
  Ni  Ni903  1  0.50946700  0.18373100  0.04545050  1.0
  Ni  Ni904  1  0.50946700  0.51706433  0.04545050  1.0
  Ni  Ni905  1  0.50946700  0.85039767  0.04545050  1.0
  Ni  Ni906  1  0.84280033  0.18373100  0.04545050  1.0
  Ni  Ni907  1  0.84280033  0.51706433  0.04545050  1.0
  Ni  Ni908  1  0.84280033  0.85039767  0.04545050  1.0
  Ni  Ni909  1  0.30113367  0.18373100  0.10795050  1.0
  Ni  Ni910  1  0.30113367  0.51706433  0.10795050  1.0
  Ni  Ni911  1  0.30113367  0.85039767  0.10795050  1.0
  Ni  Ni912  1  0.63446700  0.18373100  0.10795050  1.0
  Ni  Ni913  1  0.63446700  0.51706433  0.10795050  1.0
  Ni  Ni914  1  0.63446700  0.85039767  0.10795050  1.0
  Ni  Ni915  1  0.96780033  0.18373100  0.10795050  1.0
  Ni  Ni916  1  0.96780033  0.51706433  0.10795050  1.0
  Ni  Ni917  1  0.96780033  0.85039767  0.10795050  1.0
  Ni  Ni918  1  0.19589677  0.14960233  0.02928297  1.0
  Ni  Ni919  1  0.19589677  0.48293567  0.02928297  1.0
  Ni  Ni920  1  0.19589677  0.81626900  0.02928297  1.0
  Ni  Ni921  1  0.52923010  0.14960233  0.02928297  1.0
  Ni  Ni922  1  0.52923010  0.48293567  0.02928297  1.0
  Ni  Ni923  1  0.52923010  0.81626900  0.02928297  1.0
  Ni  Ni924  1  0.86256344  0.14960233  0.02928297  1.0
  Ni  Ni925  1  0.86256344  0.48293567  0.02928297  1.0
  Ni  Ni926  1  0.86256344  0.81626900  0.02928297  1.0
  Ni  Ni927  1  0.32089677  0.14960233  0.09178297  1.0
  Ni  Ni928  1  0.32089677  0.48293567  0.09178297  1.0
  Ni  Ni929  1  0.32089677  0.81626900  0.09178297  1.0
  Ni  Ni930  1  0.65423010  0.14960233  0.09178297  1.0
  Ni  Ni931  1  0.65423010  0.48293567  0.09178297  1.0
  Ni  Ni932  1  0.65423010  0.81626900  0.09178297  1.0
  Ni  Ni933  1  0.98756344  0.14960233  0.09178297  1.0
  Ni  Ni934  1  0.98756344  0.48293567  0.09178297  1.0
  Ni  Ni935  1  0.98756344  0.81626900  0.09178297  1.0
  Ni  Ni936  1  0.09043358  0.14960233  0.05469863  1.0
  Ni  Ni937  1  0.09043358  0.48293567  0.05469863  1.0
  Ni  Ni938  1  0.09043358  0.81626900  0.05469862  1.0
  Ni  Ni939  1  0.42376692  0.14960233  0.05469863  1.0
  Ni  Ni940  1  0.42376692  0.48293567  0.05469863  1.0
  Ni  Ni941  1  0.42376692  0.81626900  0.05469863  1.0
  Ni  Ni942  1  0.75710025  0.14960233  0.05469863  1.0
  Ni  Ni943  1  0.75710025  0.48293567  0.05469863  1.0
  Ni  Ni944  1  0.75710025  0.81626900  0.05469863  1.0
  Ni  Ni945  1  0.21543358  0.14960233  0.11719863  1.0
  Ni  Ni946  1  0.21543358  0.48293567  0.11719863  1.0
  Ni  Ni947  1  0.21543358  0.81626900  0.11719863  1.0
  Ni  Ni948  1  0.54876692  0.14960233  0.11719863  1.0
  Ni  Ni949  1  0.54876692  0.48293567  0.11719863  1.0
  Ni  Ni950  1  0.54876692  0.81626900  0.11719863  1.0
  Ni  Ni951  1  0.88210025  0.14960233  0.11719863  1.0
  Ni  Ni952  1  0.88210025  0.48293567  0.11719863  1.0
  Ni  Ni953  1  0.88210025  0.81626900  0.11719863  1.0
  Ni  Ni954  1  0.14619502  0.01706433  0.00443209  1.0
  Ni  Ni955  1  0.14619502  0.35039767  0.00443209  1.0
  Ni  Ni956  1  0.14619502  0.68373100  0.00443209  1.0
  Ni  Ni957  1  0.47952835  0.01706433  0.00443209  1.0
  Ni  Ni958  1  0.47952835  0.35039767  0.00443209  1.0
  Ni  Ni959  1  0.47952835  0.68373100  0.00443209  1.0
  Ni  Ni960  1  0.81286169  0.01706433  0.00443209  1.0
  Ni  Ni961  1  0.81286169  0.35039767  0.00443209  1.0
  Ni  Ni962  1  0.81286169  0.68373100  0.00443209  1.0
  Ni  Ni963  1  0.27119502  0.01706433  0.06693209  1.0
  Ni  Ni964  1  0.27119502  0.35039767  0.06693209  1.0
  Ni  Ni965  1  0.27119502  0.68373100  0.06693209  1.0
  Ni  Ni966  1  0.60452835  0.01706433  0.06693209  1.0
  Ni  Ni967  1  0.60452835  0.35039767  0.06693209  1.0
  Ni  Ni968  1  0.60452835  0.68373100  0.06693209  1.0
  Ni  Ni969  1  0.93786169  0.01706433  0.06693209  1.0
  Ni  Ni970  1  0.93786169  0.35039767  0.06693209  1.0
  Ni  Ni971  1  0.93786169  0.68373100  0.06693209  1.0
  Ni  Ni972  1  0.15682315  0.14960233  0.08789341  1.0
  Ni  Ni973  1  0.15682315  0.48293567  0.08789341  1.0
  Ni  Ni974  1  0.15682315  0.81626900  0.08789341  1.0
  Ni  Ni975  1  0.49015648  0.14960233  0.08789341  1.0
  Ni  Ni976  1  0.49015648  0.48293567  0.08789341  1.0
  Ni  Ni977  1  0.49015648  0.81626900  0.08789341  1.0
  Ni  Ni978  1  0.82348981  0.14960233  0.08789341  1.0
  Ni  Ni979  1  0.82348981  0.48293567  0.08789341  1.0
  Ni  Ni980  1  0.82348981  0.81626900  0.08789341  1.0
  Ni  Ni981  1  0.03182315  0.14960233  0.02539341  1.0
  Ni  Ni982  1  0.03182315  0.48293567  0.02539341  1.0
  Ni  Ni983  1  0.03182315  0.81626900  0.02539341  1.0
  Ni  Ni984  1  0.36515648  0.14960233  0.02539341  1.0
  Ni  Ni985  1  0.36515648  0.48293567  0.02539341  1.0
  Ni  Ni986  1  0.36515648  0.81626900  0.02539341  1.0
  Ni  Ni987  1  0.69848981  0.14960233  0.02539341  1.0
  Ni  Ni988  1  0.69848981  0.48293567  0.02539341  1.0
  Ni  Ni989  1  0.69848981  0.81626900  0.02539341  1.0
  Ni  Ni990  1  0.15944585  0.31626900  0.03710659  1.0
  Ni  Ni991  1  0.15944585  0.64960233  0.03710659  1.0
  Ni  Ni992  1  0.15944585  0.98293567  0.03710659  1.0
  Ni  Ni993  1  0.49277919  0.31626900  0.03710659  1.0
  Ni  Ni994  1  0.49277919  0.64960233  0.03710659  1.0
  Ni  Ni995  1  0.49277919  0.98293567  0.03710659  1.0
  Ni  Ni996  1  0.82611252  0.31626900  0.03710659  1.0
  Ni  Ni997  1  0.82611252  0.64960233  0.03710659  1.0
  Ni  Ni998  1  0.82611252  0.98293567  0.03710659  1.0
  Ni  Ni999  1  0.28444585  0.31626900  0.09960659  1.0
  Ni  Ni1000  1  0.28444585  0.64960233  0.09960659  1.0
  Ni  Ni1001  1  0.28444585  0.98293567  0.09960659  1.0
  Ni  Ni1002  1  0.61777919  0.31626900  0.09960659  1.0
  Ni  Ni1003  1  0.61777919  0.64960233  0.09960659  1.0
  Ni  Ni1004  1  0.61777919  0.98293567  0.09960659  1.0
  Ni  Ni1005  1  0.95111252  0.31626900  0.09960659  1.0
  Ni  Ni1006  1  0.95111252  0.64960233  0.09960659  1.0
  Ni  Ni1007  1  0.95111252  0.98293567  0.09960659  1.0
  Ni  Ni1008  1  0.12037223  0.31626900  0.09571703  1.0
  Ni  Ni1009  1  0.12037223  0.64960233  0.09571703  1.0
  Ni  Ni1010  1  0.12037223  0.98293567  0.09571703  1.0
  Ni  Ni1011  1  0.45370556  0.31626900  0.09571703  1.0
  Ni  Ni1012  1  0.45370556  0.64960233  0.09571703  1.0
  Ni  Ni1013  1  0.45370556  0.98293567  0.09571703  1.0
  Ni  Ni1014  1  0.78703890  0.31626900  0.09571703  1.0
  Ni  Ni1015  1  0.78703890  0.64960233  0.09571703  1.0
  Ni  Ni1016  1  0.78703890  0.98293567  0.09571703  1.0
  Ni  Ni1017  1  0.32870556  0.31626900  0.03321703  1.0
  Ni  Ni1018  1  0.32870556  0.64960233  0.03321703  1.0
  Ni  Ni1019  1  0.32870556  0.98293567  0.03321703  1.0
  Ni  Ni1020  1  0.66203890  0.31626900  0.03321703  1.0
  Ni  Ni1021  1  0.66203890  0.64960233  0.03321703  1.0
  Ni  Ni1022  1  0.66203890  0.98293567  0.03321703  1.0
  Ni  Ni1023  1  0.99537223  0.31626900  0.03321703  1.0
  Ni  Ni1024  1  0.99537223  0.64960233  0.03321703  1.0
  Ni  Ni1025  1  0.99537223  0.98293567  0.03321703  1.0
  Ni  Ni1026  1  0.22583542  0.31626900  0.07030138  1.0
  Ni  Ni1027  1  0.22583542  0.64960233  0.07030138  1.0
  Ni  Ni1028  1  0.22583542  0.98293567  0.07030137  1.0
  Ni  Ni1029  1  0.55916875  0.31626900  0.07030138  1.0
  Ni  Ni1030  1  0.55916875  0.64960233  0.07030138  1.0
  Ni  Ni1031  1  0.55916875  0.98293567  0.07030138  1.0
  Ni  Ni1032  1  0.89250208  0.31626900  0.07030138  1.0
  Ni  Ni1033  1  0.89250208  0.64960233  0.07030137  1.0
  Ni  Ni1034  1  0.89250208  0.98293567  0.07030138  1.0
  Ni  Ni1035  1  0.10083542  0.31626900  0.00780138  1.0
  Ni  Ni1036  1  0.10083542  0.64960233  0.00780137  1.0
  Ni  Ni1037  1  0.10083542  0.98293567  0.00780137  1.0
  Ni  Ni1038  1  0.43416875  0.31626900  0.00780137  1.0
  Ni  Ni1039  1  0.43416875  0.64960233  0.00780138  1.0
  Ni  Ni1040  1  0.43416875  0.98293567  0.00780137  1.0
  Ni  Ni1041  1  0.76750208  0.31626900  0.00780138  1.0
  Ni  Ni1042  1  0.76750208  0.64960233  0.00780137  1.0
  Ni  Ni1043  1  0.76750208  0.98293567  0.00780137  1.0
  Ni  Ni1044  1  0.22147171  0.21652733  0.03824594  1.0
  Ni  Ni1045  1  0.22147171  0.54986067  0.03824594  1.0
  Ni  Ni1046  1  0.22147171  0.88319400  0.03824594  1.0
  Ni  Ni1047  1  0.55480504  0.21652733  0.03824594  1.0
  Ni  Ni1048  1  0.55480504  0.54986067  0.03824594  1.0
  Ni  Ni1049  1  0.55480504  0.88319400  0.03824594  1.0
  Ni  Ni1050  1  0.88813837  0.21652733  0.03824594  1.0
  Ni  Ni1051  1  0.88813837  0.54986067  0.03824594  1.0
  Ni  Ni1052  1  0.88813837  0.88319400  0.03824594  1.0
  Ni  Ni1053  1  0.01313837  0.21652733  0.10074594  1.0
  Ni  Ni1054  1  0.01313837  0.54986067  0.10074594  1.0
  Ni  Ni1055  1  0.01313837  0.88319400  0.10074594  1.0
  Ni  Ni1056  1  0.34647171  0.21652733  0.10074594  1.0
  Ni  Ni1057  1  0.34647171  0.54986067  0.10074594  1.0
  Ni  Ni1058  1  0.34647171  0.88319400  0.10074594  1.0
  Ni  Ni1059  1  0.67980504  0.21652733  0.10074594  1.0
  Ni  Ni1060  1  0.67980504  0.54986067  0.10074594  1.0
  Ni  Ni1061  1  0.67980504  0.88319400  0.10074594  1.0
  Ni  Ni1062  1  0.12402004  0.04986067  0.01748144  1.0
  Ni  Ni1063  1  0.12402004  0.38319400  0.01748144  1.0
  Ni  Ni1064  1  0.12402004  0.71652733  0.01748144  1.0
  Ni  Ni1065  1  0.45735338  0.04986067  0.01748144  1.0
  Ni  Ni1066  1  0.45735338  0.38319400  0.01748144  1.0
  Ni  Ni1067  1  0.45735338  0.71652733  0.01748144  1.0
  Ni  Ni1068  1  0.79068671  0.04986067  0.01748144  1.0
  Ni  Ni1069  1  0.79068671  0.38319400  0.01748144  1.0
  Ni  Ni1070  1  0.79068671  0.71652733  0.01748144  1.0
  Ni  Ni1071  1  0.24902004  0.04986067  0.07998144  1.0
  Ni  Ni1072  1  0.24902004  0.38319400  0.07998144  1.0
  Ni  Ni1073  1  0.24902004  0.71652733  0.07998144  1.0
  Ni  Ni1074  1  0.58235338  0.04986067  0.07998144  1.0
  Ni  Ni1075  1  0.58235337  0.38319400  0.07998144  1.0
  Ni  Ni1076  1  0.58235337  0.71652733  0.07998144  1.0
  Ni  Ni1077  1  0.91568671  0.04986067  0.07998144  1.0
  Ni  Ni1078  1  0.91568671  0.38319400  0.07998144  1.0
  Ni  Ni1079  1  0.91568671  0.71652733  0.07998144  1.0
  Ni  Ni1080  1  0.05921387  0.28347267  0.20766769  1.0
  Ni  Ni1081  1  0.05921387  0.61680600  0.20766769  1.0
  Ni  Ni1082  1  0.05921387  0.95013933  0.20766769  1.0
  Ni  Ni1083  1  0.39254721  0.28347267  0.20766769  1.0
  Ni  Ni1084  1  0.39254721  0.61680600  0.20766769  1.0
  Ni  Ni1085  1  0.39254721  0.95013933  0.20766769  1.0
  Ni  Ni1086  1  0.72588054  0.28347267  0.20766769  1.0
  Ni  Ni1087  1  0.72588054  0.61680600  0.20766769  1.0
  Ni  Ni1088  1  0.72588054  0.95013933  0.20766769  1.0
  Ni  Ni1089  1  0.26754721  0.28347267  0.14516769  1.0
  Ni  Ni1090  1  0.26754721  0.61680600  0.14516769  1.0
  Ni  Ni1091  1  0.26754721  0.95013933  0.14516769  1.0
  Ni  Ni1092  1  0.60088054  0.28347267  0.14516769  1.0
  Ni  Ni1093  1  0.60088054  0.61680600  0.14516769  1.0
  Ni  Ni1094  1  0.60088054  0.95013933  0.14516769  1.0
  Ni  Ni1095  1  0.93421388  0.28347267  0.14516769  1.0
  Ni  Ni1096  1  0.93421387  0.61680600  0.14516769  1.0
  Ni  Ni1097  1  0.93421387  0.95013933  0.14516769  1.0
  Ni  Ni1098  1  0.16324287  0.28347267  0.17579819  1.0
  Ni  Ni1099  1  0.16324287  0.61680600  0.17579819  1.0
  Ni  Ni1100  1  0.16324287  0.95013933  0.17579819  1.0
  Ni  Ni1101  1  0.49657621  0.28347267  0.17579819  1.0
  Ni  Ni1102  1  0.49657621  0.61680600  0.17579819  1.0
  Ni  Ni1103  1  0.49657621  0.95013933  0.17579819  1.0
  Ni  Ni1104  1  0.82990954  0.28347267  0.17579819  1.0
  Ni  Ni1105  1  0.82990954  0.61680600  0.17579819  1.0
  Ni  Ni1106  1  0.82990954  0.95013933  0.17579819  1.0
  Ni  Ni1107  1  0.28824288  0.28347267  0.23829819  1.0
  Ni  Ni1108  1  0.28824287  0.61680600  0.23829819  1.0
  Ni  Ni1109  1  0.28824288  0.95013933  0.23829819  1.0
  Ni  Ni1110  1  0.62157621  0.28347267  0.23829819  1.0
  Ni  Ni1111  1  0.62157621  0.61680600  0.23829819  1.0
  Ni  Ni1112  1  0.62157621  0.95013933  0.23829819  1.0
  Ni  Ni1113  1  0.95490954  0.28347267  0.23829819  1.0
  Ni  Ni1114  1  0.95490954  0.61680600  0.23829819  1.0
  Ni  Ni1115  1  0.95490954  0.95013933  0.23829819  1.0
  Ni  Ni1116  1  0.12130087  0.28347267  0.23871119  1.0
  Ni  Ni1117  1  0.12130087  0.61680600  0.23871119  1.0
  Ni  Ni1118  1  0.12130087  0.95013933  0.23871119  1.0
  Ni  Ni1119  1  0.45463421  0.28347267  0.23871119  1.0
  Ni  Ni1120  1  0.45463421  0.61680600  0.23871119  1.0
  Ni  Ni1121  1  0.45463421  0.95013933  0.23871119  1.0
  Ni  Ni1122  1  0.78796754  0.28347267  0.23871119  1.0
  Ni  Ni1123  1  0.78796754  0.61680600  0.23871119  1.0
  Ni  Ni1124  1  0.78796754  0.95013933  0.23871119  1.0
  Ni  Ni1125  1  0.32963421  0.28347267  0.17621119  1.0
  Ni  Ni1126  1  0.32963421  0.61680600  0.17621119  1.0
  Ni  Ni1127  1  0.32963421  0.95013933  0.17621119  1.0
  Ni  Ni1128  1  0.66296754  0.28347267  0.17621119  1.0
  Ni  Ni1129  1  0.66296754  0.61680600  0.17621119  1.0
  Ni  Ni1130  1  0.66296754  0.95013933  0.17621119  1.0
  Ni  Ni1131  1  0.99630087  0.28347267  0.17621119  1.0
  Ni  Ni1132  1  0.99630087  0.61680600  0.17621119  1.0
  Ni  Ni1133  1  0.99630087  0.95013933  0.17621119  1.0
  Ni  Ni1134  1  0.25370421  0.11680600  0.24899019  1.0
  Ni  Ni1135  1  0.25370421  0.45013933  0.24899019  1.0
  Ni  Ni1136  1  0.25370421  0.78347267  0.24899019  1.0
  Ni  Ni1137  1  0.58703754  0.11680600  0.24899019  1.0
  Ni  Ni1138  1  0.58703754  0.45013933  0.24899019  1.0
  Ni  Ni1139  1  0.58703754  0.78347267  0.24899019  1.0
  Ni  Ni1140  1  0.92037087  0.11680600  0.24899019  1.0
  Ni  Ni1141  1  0.92037087  0.45013933  0.24899019  1.0
  Ni  Ni1142  1  0.92037087  0.78347267  0.24899019  1.0
  Ni  Ni1143  1  0.12870421  0.11680600  0.18649019  1.0
  Ni  Ni1144  1  0.12870421  0.45013933  0.18649019  1.0
  Ni  Ni1145  1  0.12870421  0.78347267  0.18649019  1.0
  Ni  Ni1146  1  0.46203754  0.11680600  0.18649019  1.0
  Ni  Ni1147  1  0.46203754  0.45013933  0.18649019  1.0
  Ni  Ni1148  1  0.46203754  0.78347267  0.18649019  1.0
  Ni  Ni1149  1  0.79537087  0.11680600  0.18649019  1.0
  Ni  Ni1150  1  0.79537087  0.45013933  0.18649019  1.0
  Ni  Ni1151  1  0.79537087  0.78347267  0.18649019  1.0
  Ni  Ni1152  1  0.26999104  0.04986067  0.17435094  1.0
  Ni  Ni1153  1  0.26999104  0.38319400  0.17435094  1.0
  Ni  Ni1154  1  0.26999104  0.71652733  0.17435094  1.0
  Ni  Ni1155  1  0.60332438  0.04986067  0.17435094  1.0
  Ni  Ni1156  1  0.60332437  0.38319400  0.17435094  1.0
  Ni  Ni1157  1  0.60332437  0.71652733  0.17435094  1.0
  Ni  Ni1158  1  0.93665771  0.04986067  0.17435094  1.0
  Ni  Ni1159  1  0.93665771  0.38319400  0.17435094  1.0
  Ni  Ni1160  1  0.93665771  0.71652733  0.17435094  1.0
  Ni  Ni1161  1  0.06165771  0.04986067  0.23685094  1.0
  Ni  Ni1162  1  0.06165771  0.38319400  0.23685094  1.0
  Ni  Ni1163  1  0.06165771  0.71652733  0.23685094  1.0
  Ni  Ni1164  1  0.39499104  0.04986067  0.23685094  1.0
  Ni  Ni1165  1  0.39499104  0.38319400  0.23685094  1.0
  Ni  Ni1166  1  0.39499104  0.71652733  0.23685094  1.0
  Ni  Ni1167  1  0.72832437  0.04986067  0.23685094  1.0
  Ni  Ni1168  1  0.72832437  0.38319400  0.23685094  1.0
  Ni  Ni1169  1  0.72832437  0.71652733  0.23685094  1.0
  Ni  Ni1170  1  0.06579121  0.11680600  0.15503369  1.0
  Ni  Ni1171  1  0.06579121  0.45013933  0.15503369  1.0
  Ni  Ni1172  1  0.06579121  0.78347267  0.15503369  1.0
  Ni  Ni1173  1  0.39912454  0.11680600  0.15503369  1.0
  Ni  Ni1174  1  0.39912454  0.45013933  0.15503369  1.0
  Ni  Ni1175  1  0.39912454  0.78347267  0.15503369  1.0
  Ni  Ni1176  1  0.73245788  0.11680600  0.15503369  1.0
  Ni  Ni1177  1  0.73245788  0.45013933  0.15503369  1.0
  Ni  Ni1178  1  0.73245787  0.78347267  0.15503369  1.0
  Ni  Ni1179  1  0.19079121  0.11680600  0.21753369  1.0
  Ni  Ni1180  1  0.19079121  0.45013933  0.21753369  1.0
  Ni  Ni1181  1  0.19079121  0.78347267  0.21753369  1.0
  Ni  Ni1182  1  0.52412454  0.11680600  0.21753369  1.0
  Ni  Ni1183  1  0.52412454  0.45013933  0.21753369  1.0
  Ni  Ni1184  1  0.52412454  0.78347267  0.21753369  1.0
  Ni  Ni1185  1  0.85745788  0.11680600  0.21753369  1.0
  Ni  Ni1186  1  0.85745788  0.45013933  0.21753369  1.0
  Ni  Ni1187  1  0.85745787  0.78347267  0.21753369  1.0
  Ni  Ni1188  1  0.29509554  0.11680600  0.18690319  1.0
  Ni  Ni1189  1  0.29509554  0.45013933  0.18690319  1.0
  Ni  Ni1190  1  0.29509554  0.78347267  0.18690319  1.0
  Ni  Ni1191  1  0.62842887  0.11680600  0.18690319  1.0
  Ni  Ni1192  1  0.62842887  0.45013933  0.18690319  1.0
  Ni  Ni1193  1  0.62842887  0.78347267  0.18690319  1.0
  Ni  Ni1194  1  0.96176221  0.11680600  0.18690319  1.0
  Ni  Ni1195  1  0.96176221  0.45013933  0.18690319  1.0
  Ni  Ni1196  1  0.96176221  0.78347267  0.18690319  1.0
  Ni  Ni1197  1  0.08676221  0.11680600  0.24940319  1.0
  Ni  Ni1198  1  0.08676221  0.45013933  0.24940319  1.0
  Ni  Ni1199  1  0.08676221  0.78347267  0.24940319  1.0
  Ni  Ni1200  1  0.42009554  0.11680600  0.24940319  1.0
  Ni  Ni1201  1  0.42009554  0.45013933  0.24940319  1.0
  Ni  Ni1202  1  0.42009554  0.78347267  0.24940319  1.0
  Ni  Ni1203  1  0.75342887  0.11680600  0.24940319  1.0
  Ni  Ni1204  1  0.75342887  0.45013933  0.24940319  1.0
  Ni  Ni1205  1  0.75342887  0.78347267  0.24940319  1.0
  Ni  Ni1206  1  0.03410937  0.21652733  0.19511544  1.0
  Ni  Ni1207  1  0.03410937  0.54986067  0.19511544  1.0
  Ni  Ni1208  1  0.03410937  0.88319400  0.19511544  1.0
  Ni  Ni1209  1  0.36744271  0.21652733  0.19511544  1.0
  Ni  Ni1210  1  0.36744271  0.54986067  0.19511544  1.0
  Ni  Ni1211  1  0.36744271  0.88319400  0.19511544  1.0
  Ni  Ni1212  1  0.70077604  0.21652733  0.19511544  1.0
  Ni  Ni1213  1  0.70077604  0.54986067  0.19511544  1.0
  Ni  Ni1214  1  0.70077604  0.88319400  0.19511544  1.0
  Ni  Ni1215  1  0.24244271  0.21652733  0.13261544  1.0
  Ni  Ni1216  1  0.24244271  0.54986067  0.13261544  1.0
  Ni  Ni1217  1  0.24244271  0.88319400  0.13261544  1.0
  Ni  Ni1218  1  0.57577604  0.21652733  0.13261544  1.0
  Ni  Ni1219  1  0.57577604  0.54986067  0.13261544  1.0
  Ni  Ni1220  1  0.57577604  0.88319400  0.13261544  1.0
  Ni  Ni1221  1  0.90910937  0.21652733  0.13261544  1.0
  Ni  Ni1222  1  0.90910937  0.54986067  0.13261544  1.0
  Ni  Ni1223  1  0.90910937  0.88319400  0.13261544  1.0
  Ni  Ni1224  1  0.09619637  0.21652733  0.22615894  1.0
  Ni  Ni1225  1  0.09619637  0.54986067  0.22615894  1.0
  Ni  Ni1226  1  0.09619637  0.88319400  0.22615894  1.0
  Ni  Ni1227  1  0.42952971  0.21652733  0.22615894  1.0
  Ni  Ni1228  1  0.42952971  0.54986067  0.22615894  1.0
  Ni  Ni1229  1  0.42952971  0.88319400  0.22615894  1.0
  Ni  Ni1230  1  0.76286304  0.21652733  0.22615894  1.0
  Ni  Ni1231  1  0.76286304  0.54986067  0.22615894  1.0
  Ni  Ni1232  1  0.76286304  0.88319400  0.22615894  1.0
  Ni  Ni1233  1  0.30452971  0.21652733  0.16365894  1.0
  Ni  Ni1234  1  0.30452971  0.54986067  0.16365894  1.0
  Ni  Ni1235  1  0.30452971  0.88319400  0.16365894  1.0
  Ni  Ni1236  1  0.63786304  0.21652733  0.16365894  1.0
  Ni  Ni1237  1  0.63786304  0.54986067  0.16365894  1.0
  Ni  Ni1238  1  0.63786304  0.88319400  0.16365894  1.0
  Ni  Ni1239  1  0.97119637  0.21652733  0.16365894  1.0
  Ni  Ni1240  1  0.97119637  0.54986067  0.16365894  1.0
  Ni  Ni1241  1  0.97119637  0.88319400  0.16365894  1.0
  Ni  Ni1242  1  0.22859971  0.04986067  0.23643794  1.0
  Ni  Ni1243  1  0.22859971  0.38319400  0.23643794  1.0
  Ni  Ni1244  1  0.22859971  0.71652733  0.23643794  1.0
  Ni  Ni1245  1  0.56193304  0.04986067  0.23643794  1.0
  Ni  Ni1246  1  0.56193304  0.38319400  0.23643794  1.0
  Ni  Ni1247  1  0.56193304  0.71652733  0.23643794  1.0
  Ni  Ni1248  1  0.89526637  0.04986067  0.23643794  1.0
  Ni  Ni1249  1  0.89526637  0.38319400  0.23643794  1.0
  Ni  Ni1250  1  0.89526637  0.71652733  0.23643794  1.0
  Ni  Ni1251  1  0.10359971  0.04986067  0.17393794  1.0
  Ni  Ni1252  1  0.10359971  0.38319400  0.17393794  1.0
  Ni  Ni1253  1  0.10359971  0.71652733  0.17393794  1.0
  Ni  Ni1254  1  0.43693304  0.04986067  0.17393794  1.0
  Ni  Ni1255  1  0.43693304  0.38319400  0.17393794  1.0
  Ni  Ni1256  1  0.43693304  0.71652733  0.17393794  1.0
  Ni  Ni1257  1  0.77026637  0.04986067  0.17393794  1.0
  Ni  Ni1258  1  0.77026637  0.38319400  0.17393794  1.0
  Ni  Ni1259  1  0.77026637  0.71652733  0.17393794  1.0
  Ni  Ni1260  1  0.08075644  0.25000000  0.19402847  1.0
  Ni  Ni1261  1  0.08075644  0.58333333  0.19402847  1.0
  Ni  Ni1262  1  0.08075644  0.91666667  0.19402847  1.0
  Ni  Ni1263  1  0.41408977  0.25000000  0.19402847  1.0
  Ni  Ni1264  1  0.41408977  0.58333333  0.19402847  1.0
  Ni  Ni1265  1  0.41408977  0.91666667  0.19402847  1.0
  Ni  Ni1266  1  0.74742310  0.25000000  0.19402847  1.0
  Ni  Ni1267  1  0.74742310  0.58333333  0.19402847  1.0
  Ni  Ni1268  1  0.74742310  0.91666667  0.19402847  1.0
  Ni  Ni1269  1  0.28908977  0.25000000  0.13152847  1.0
  Ni  Ni1270  1  0.28908977  0.58333333  0.13152847  1.0
  Ni  Ni1271  1  0.28908977  0.91666667  0.13152847  1.0
  Ni  Ni1272  1  0.62242310  0.25000000  0.13152847  1.0
  Ni  Ni1273  1  0.62242310  0.58333333  0.13152847  1.0
  Ni  Ni1274  1  0.62242310  0.91666667  0.13152847  1.0
  Ni  Ni1275  1  0.95575644  0.25000000  0.13152847  1.0
  Ni  Ni1276  1  0.95575644  0.58333333  0.13152847  1.0
  Ni  Ni1277  1  0.95575644  0.91666667  0.13152847  1.0
  Ni  Ni1278  1  0.24964237  0.08333333  0.19336269  1.0
  Ni  Ni1279  1  0.24964237  0.41666667  0.19336269  1.0
  Ni  Ni1280  1  0.24964237  0.75000000  0.19336269  1.0
  Ni  Ni1281  1  0.58297571  0.08333333  0.19336269  1.0
  Ni  Ni1282  1  0.58297571  0.41666667  0.19336269  1.0
  Ni  Ni1283  1  0.58297571  0.75000000  0.19336269  1.0
  Ni  Ni1284  1  0.91630904  0.08333333  0.19336269  1.0
  Ni  Ni1285  1  0.91630904  0.41666667  0.19336269  1.0
  Ni  Ni1286  1  0.91630904  0.75000000  0.19336269  1.0
  Ni  Ni1287  1  0.12464237  0.08333333  0.13086269  1.0
  Ni  Ni1288  1  0.12464237  0.41666667  0.13086269  1.0
  Ni  Ni1289  1  0.12464237  0.75000000  0.13086269  1.0
  Ni  Ni1290  1  0.45797571  0.08333333  0.13086269  1.0
  Ni  Ni1291  1  0.45797571  0.41666667  0.13086269  1.0
  Ni  Ni1292  1  0.45797571  0.75000000  0.13086269  1.0
  Ni  Ni1293  1  0.79130904  0.08333333  0.13086269  1.0
  Ni  Ni1294  1  0.79130904  0.41666667  0.13086269  1.0
  Ni  Ni1295  1  0.79130904  0.75000000  0.13086269  1.0
  Ni  Ni1296  1  0.30814769  0.08333333  0.22261534  1.0
  Ni  Ni1297  1  0.30814769  0.41666667  0.22261534  1.0
  Ni  Ni1298  1  0.30814769  0.75000000  0.22261534  1.0
  Ni  Ni1299  1  0.64148102  0.08333333  0.22261534  1.0
  Ni  Ni1300  1  0.64148102  0.41666667  0.22261534  1.0
  Ni  Ni1301  1  0.64148102  0.75000000  0.22261534  1.0
  Ni  Ni1302  1  0.97481435  0.08333333  0.22261534  1.0
  Ni  Ni1303  1  0.97481435  0.41666667  0.22261534  1.0
  Ni  Ni1304  1  0.97481435  0.75000000  0.22261534  1.0
  Ni  Ni1305  1  0.18314769  0.08333333  0.16011534  1.0
  Ni  Ni1306  1  0.18314769  0.41666667  0.16011534  1.0
  Ni  Ni1307  1  0.18314769  0.75000000  0.16011534  1.0
  Ni  Ni1308  1  0.51648102  0.08333333  0.16011534  1.0
  Ni  Ni1309  1  0.51648102  0.41666667  0.16011534  1.0
  Ni  Ni1310  1  0.51648102  0.75000000  0.16011534  1.0
  Ni  Ni1311  1  0.84981435  0.08333333  0.16011534  1.0
  Ni  Ni1312  1  0.84981435  0.41666667  0.16011534  1.0
  Ni  Ni1313  1  0.84981435  0.75000000  0.16011534  1.0
  Ni  Ni1314  1  0.12508623  0.25000000  0.12753378  1.0
  Ni  Ni1315  1  0.12508623  0.58333333  0.12753378  1.0
  Ni  Ni1316  1  0.12508623  0.91666667  0.12753378  1.0
  Ni  Ni1317  1  0.45841956  0.25000000  0.12753378  1.0
  Ni  Ni1318  1  0.45841956  0.58333333  0.12753378  1.0
  Ni  Ni1319  1  0.45841956  0.91666667  0.12753378  1.0
  Ni  Ni1320  1  0.79175290  0.25000000  0.12753378  1.0
  Ni  Ni1321  1  0.79175290  0.58333333  0.12753378  1.0
  Ni  Ni1322  1  0.79175290  0.91666667  0.12753378  1.0
  Ni  Ni1323  1  0.25008623  0.25000000  0.19003378  1.0
  Ni  Ni1324  1  0.25008623  0.58333333  0.19003378  1.0
  Ni  Ni1325  1  0.25008623  0.91666667  0.19003378  1.0
  Ni  Ni1326  1  0.58341956  0.25000000  0.19003378  1.0
  Ni  Ni1327  1  0.58341956  0.58333333  0.19003378  1.0
  Ni  Ni1328  1  0.58341956  0.91666667  0.19003378  1.0
  Ni  Ni1329  1  0.91675290  0.25000000  0.19003378  1.0
  Ni  Ni1330  1  0.91675290  0.58333333  0.19003378  1.0
  Ni  Ni1331  1  0.91675290  0.91666667  0.19003378  1.0
  Ni  Ni1332  1  0.18359154  0.25000000  0.15678644  1.0
  Ni  Ni1333  1  0.18359154  0.58333333  0.15678644  1.0
  Ni  Ni1334  1  0.18359154  0.91666667  0.15678644  1.0
  Ni  Ni1335  1  0.51692487  0.25000000  0.15678644  1.0
  Ni  Ni1336  1  0.51692487  0.58333333  0.15678644  1.0
  Ni  Ni1337  1  0.51692487  0.91666667  0.15678644  1.0
  Ni  Ni1338  1  0.85025821  0.25000000  0.15678644  1.0
  Ni  Ni1339  1  0.85025821  0.58333333  0.15678644  1.0
  Ni  Ni1340  1  0.85025821  0.91666667  0.15678644  1.0
  Ni  Ni1341  1  0.30859154  0.25000000  0.21928644  1.0
  Ni  Ni1342  1  0.30859154  0.58333333  0.21928644  1.0
  Ni  Ni1343  1  0.30859154  0.91666667  0.21928644  1.0
  Ni  Ni1344  1  0.64192487  0.25000000  0.21928644  1.0
  Ni  Ni1345  1  0.64192487  0.58333333  0.21928644  1.0
  Ni  Ni1346  1  0.64192487  0.91666667  0.21928644  1.0
  Ni  Ni1347  1  0.97525821  0.25000000  0.21928644  1.0
  Ni  Ni1348  1  0.97525821  0.58333333  0.21928644  1.0
  Ni  Ni1349  1  0.97525821  0.91666667  0.21928644  1.0
  Ni  Ni1350  1  0.01914415  0.08333333  0.15612066  1.0
  Ni  Ni1351  1  0.01914415  0.41666667  0.15612066  1.0
  Ni  Ni1352  1  0.01914415  0.75000000  0.15612066  1.0
  Ni  Ni1353  1  0.35247748  0.08333333  0.15612066  1.0
  Ni  Ni1354  1  0.35247748  0.41666667  0.15612066  1.0
  Ni  Ni1355  1  0.35247748  0.75000000  0.15612066  1.0
  Ni  Ni1356  1  0.68581081  0.08333333  0.15612066  1.0
  Ni  Ni1357  1  0.68581081  0.41666667  0.15612066  1.0
  Ni  Ni1358  1  0.68581081  0.75000000  0.15612066  1.0
  Ni  Ni1359  1  0.14414415  0.08333333  0.21862066  1.0
  Ni  Ni1360  1  0.14414415  0.41666667  0.21862066  1.0
  Ni  Ni1361  1  0.14414415  0.75000000  0.21862066  1.0
  Ni  Ni1362  1  0.47747748  0.08333333  0.21862066  1.0
  Ni  Ni1363  1  0.47747748  0.41666667  0.21862066  1.0
  Ni  Ni1364  1  0.47747748  0.75000000  0.21862066  1.0
  Ni  Ni1365  1  0.81081081  0.08333333  0.21862066  1.0
  Ni  Ni1366  1  0.81081081  0.41666667  0.21862066  1.0
  Ni  Ni1367  1  0.81081081  0.75000000  0.21862066  1.0
  Ni  Ni1368  1  0.32067048  0.18373100  0.19586616  1.0
  Ni  Ni1369  1  0.32067048  0.51706433  0.19586616  1.0
  Ni  Ni1370  1  0.32067048  0.85039767  0.19586616  1.0
  Ni  Ni1371  1  0.65400381  0.18373100  0.19586616  1.0
  Ni  Ni1372  1  0.65400381  0.51706433  0.19586616  1.0
  Ni  Ni1373  1  0.65400381  0.85039767  0.19586616  1.0
  Ni  Ni1374  1  0.98733715  0.18373100  0.19586616  1.0
  Ni  Ni1375  1  0.98733715  0.51706433  0.19586616  1.0
  Ni  Ni1376  1  0.98733715  0.85039767  0.19586616  1.0
  Ni  Ni1377  1  0.19567048  0.18373100  0.13336616  1.0
  Ni  Ni1378  1  0.19567048  0.51706433  0.13336616  1.0
  Ni  Ni1379  1  0.19567048  0.85039767  0.13336616  1.0
  Ni  Ni1380  1  0.52900381  0.18373100  0.13336616  1.0
  Ni  Ni1381  1  0.52900381  0.51706433  0.13336616  1.0
  Ni  Ni1382  1  0.52900381  0.85039767  0.13336616  1.0
  Ni  Ni1383  1  0.86233715  0.18373100  0.13336616  1.0
  Ni  Ni1384  1  0.86233715  0.51706433  0.13336616  1.0
  Ni  Ni1385  1  0.86233715  0.85039767  0.13336616  1.0
  Ni  Ni1386  1  0.29073183  0.01706433  0.15484775  1.0
  Ni  Ni1387  1  0.29073183  0.35039767  0.15484775  1.0
  Ni  Ni1388  1  0.29073183  0.68373100  0.15484775  1.0
  Ni  Ni1389  1  0.62406517  0.01706433  0.15484775  1.0
  Ni  Ni1390  1  0.62406517  0.35039767  0.15484775  1.0
  Ni  Ni1391  1  0.62406517  0.68373100  0.15484775  1.0
  Ni  Ni1392  1  0.95739850  0.01706433  0.15484775  1.0
  Ni  Ni1393  1  0.95739850  0.35039767  0.15484775  1.0
  Ni  Ni1394  1  0.95739850  0.68373100  0.15484775  1.0
  Ni  Ni1395  1  0.08239850  0.01706433  0.21734775  1.0
  Ni  Ni1396  1  0.08239850  0.35039767  0.21734775  1.0
  Ni  Ni1397  1  0.08239850  0.68373100  0.21734775  1.0
  Ni  Ni1398  1  0.41573183  0.01706433  0.21734775  1.0
  Ni  Ni1399  1  0.41573183  0.35039767  0.21734775  1.0
  Ni  Ni1400  1  0.41573183  0.68373100  0.21734775  1.0
  Ni  Ni1401  1  0.74906517  0.01706433  0.21734775  1.0
  Ni  Ni1402  1  0.74906517  0.35039767  0.21734775  1.0
  Ni  Ni1403  1  0.74906517  0.68373100  0.21734775  1.0
  Ni  Ni1404  1  0.02378806  0.01706433  0.18804253  1.0
  Ni  Ni1405  1  0.02378806  0.35039767  0.18804253  1.0
  Ni  Ni1406  1  0.02378806  0.68373100  0.18804253  1.0
  Ni  Ni1407  1  0.35712140  0.01706433  0.18804253  1.0
  Ni  Ni1408  1  0.35712140  0.35039767  0.18804253  1.0
  Ni  Ni1409  1  0.35712140  0.68373100  0.18804253  1.0
  Ni  Ni1410  1  0.69045473  0.01706433  0.18804253  1.0
  Ni  Ni1411  1  0.69045473  0.35039767  0.18804253  1.0
  Ni  Ni1412  1  0.69045473  0.68373100  0.18804253  1.0
  Ni  Ni1413  1  0.23212140  0.01706433  0.12554253  1.0
  Ni  Ni1414  1  0.23212140  0.35039767  0.12554253  1.0
  Ni  Ni1415  1  0.23212140  0.68373100  0.12554253  1.0
  Ni  Ni1416  1  0.56545473  0.01706433  0.12554253  1.0
  Ni  Ni1417  1  0.56545473  0.35039767  0.12554253  1.0
  Ni  Ni1418  1  0.56545473  0.68373100  0.12554253  1.0
  Ni  Ni1419  1  0.89878806  0.01706433  0.12554253  1.0
  Ni  Ni1420  1  0.89878806  0.35039767  0.12554253  1.0
  Ni  Ni1421  1  0.89878806  0.68373100  0.12554253  1.0
  Ni  Ni1422  1  0.02641077  0.18373100  0.13725572  1.0
  Ni  Ni1423  1  0.02641077  0.51706433  0.13725572  1.0
  Ni  Ni1424  1  0.02641077  0.85039767  0.13725572  1.0
  Ni  Ni1425  1  0.35974410  0.18373100  0.13725572  1.0
  Ni  Ni1426  1  0.35974410  0.51706433  0.13725572  1.0
  Ni  Ni1427  1  0.35974410  0.85039767  0.13725572  1.0
  Ni  Ni1428  1  0.69307744  0.18373100  0.13725572  1.0
  Ni  Ni1429  1  0.69307744  0.51706433  0.13725572  1.0
  Ni  Ni1430  1  0.69307744  0.85039767  0.13725572  1.0
  Ni  Ni1431  1  0.15141077  0.18373100  0.19975572  1.0
  Ni  Ni1432  1  0.15141077  0.51706433  0.19975572  1.0
  Ni  Ni1433  1  0.15141077  0.85039767  0.19975572  1.0
  Ni  Ni1434  1  0.48474410  0.18373100  0.19975572  1.0
  Ni  Ni1435  1  0.48474410  0.51706433  0.19975572  1.0
  Ni  Ni1436  1  0.48474410  0.85039767  0.19975572  1.0
  Ni  Ni1437  1  0.81807744  0.18373100  0.19975572  1.0
  Ni  Ni1438  1  0.81807744  0.51706433  0.19975572  1.0
  Ni  Ni1439  1  0.81807744  0.85039767  0.19975572  1.0
  Ni  Ni1440  1  0.09280033  0.18373100  0.17045050  1.0
  Ni  Ni1441  1  0.09280033  0.51706433  0.17045050  1.0
  Ni  Ni1442  1  0.09280033  0.85039767  0.17045050  1.0
  Ni  Ni1443  1  0.42613367  0.18373100  0.17045050  1.0
  Ni  Ni1444  1  0.42613367  0.51706433  0.17045050  1.0
  Ni  Ni1445  1  0.42613367  0.85039767  0.17045050  1.0
  Ni  Ni1446  1  0.75946700  0.18373100  0.17045050  1.0
  Ni  Ni1447  1  0.75946700  0.51706433  0.17045050  1.0
  Ni  Ni1448  1  0.75946700  0.85039767  0.17045050  1.0
  Ni  Ni1449  1  0.21780033  0.18373100  0.23295050  1.0
  Ni  Ni1450  1  0.21780033  0.51706433  0.23295050  1.0
  Ni  Ni1451  1  0.21780033  0.85039767  0.23295050  1.0
  Ni  Ni1452  1  0.55113367  0.18373100  0.23295050  1.0
  Ni  Ni1453  1  0.55113367  0.51706433  0.23295050  1.0
  Ni  Ni1454  1  0.55113367  0.85039767  0.23295050  1.0
  Ni  Ni1455  1  0.88446700  0.18373100  0.23295050  1.0
  Ni  Ni1456  1  0.88446700  0.51706433  0.23295050  1.0
  Ni  Ni1457  1  0.88446700  0.85039767  0.23295050  1.0
  Ni  Ni1458  1  0.11256344  0.14960233  0.15428297  1.0
  Ni  Ni1459  1  0.11256344  0.48293567  0.15428297  1.0
  Ni  Ni1460  1  0.11256344  0.81626900  0.15428297  1.0
  Ni  Ni1461  1  0.44589677  0.14960233  0.15428297  1.0
  Ni  Ni1462  1  0.44589677  0.48293567  0.15428297  1.0
  Ni  Ni1463  1  0.44589677  0.81626900  0.15428297  1.0
  Ni  Ni1464  1  0.77923010  0.14960233  0.15428297  1.0
  Ni  Ni1465  1  0.77923010  0.48293567  0.15428297  1.0
  Ni  Ni1466  1  0.77923010  0.81626900  0.15428297  1.0
  Ni  Ni1467  1  0.23756344  0.14960233  0.21678297  1.0
  Ni  Ni1468  1  0.23756344  0.48293567  0.21678297  1.0
  Ni  Ni1469  1  0.23756344  0.81626900  0.21678297  1.0
  Ni  Ni1470  1  0.57089677  0.14960233  0.21678297  1.0
  Ni  Ni1471  1  0.57089677  0.48293567  0.21678297  1.0
  Ni  Ni1472  1  0.57089677  0.81626900  0.21678297  1.0
  Ni  Ni1473  1  0.90423010  0.14960233  0.21678297  1.0
  Ni  Ni1474  1  0.90423010  0.48293567  0.21678297  1.0
  Ni  Ni1475  1  0.90423010  0.81626900  0.21678297  1.0
  Ni  Ni1476  1  0.00710025  0.14960233  0.17969863  1.0
  Ni  Ni1477  1  0.00710025  0.48293567  0.17969863  1.0
  Ni  Ni1478  1  0.00710025  0.81626900  0.17969863  1.0
  Ni  Ni1479  1  0.34043358  0.14960233  0.17969863  1.0
  Ni  Ni1480  1  0.34043358  0.48293567  0.17969863  1.0
  Ni  Ni1481  1  0.34043358  0.81626900  0.17969863  1.0
  Ni  Ni1482  1  0.67376692  0.14960233  0.17969863  1.0
  Ni  Ni1483  1  0.67376692  0.48293567  0.17969863  1.0
  Ni  Ni1484  1  0.67376692  0.81626900  0.17969863  1.0
  Ni  Ni1485  1  0.13210025  0.14960233  0.24219862  1.0
  Ni  Ni1486  1  0.13210025  0.48293567  0.24219862  1.0
  Ni  Ni1487  1  0.13210025  0.81626900  0.24219862  1.0
  Ni  Ni1488  1  0.46543358  0.14960233  0.24219862  1.0
  Ni  Ni1489  1  0.46543358  0.48293567  0.24219862  1.0
  Ni  Ni1490  1  0.46543358  0.81626900  0.24219862  1.0
  Ni  Ni1491  1  0.79876692  0.14960233  0.24219862  1.0
  Ni  Ni1492  1  0.79876692  0.48293567  0.24219862  1.0
  Ni  Ni1493  1  0.79876692  0.81626900  0.24219862  1.0
  Ni  Ni1494  1  0.06286169  0.01706433  0.12943209  1.0
  Ni  Ni1495  1  0.06286169  0.35039767  0.12943209  1.0
  Ni  Ni1496  1  0.06286169  0.68373100  0.12943209  1.0
  Ni  Ni1497  1  0.39619502  0.01706433  0.12943209  1.0
  Ni  Ni1498  1  0.39619502  0.35039767  0.12943209  1.0
  Ni  Ni1499  1  0.39619502  0.68373100  0.12943209  1.0
  Ni  Ni1500  1  0.72952835  0.01706433  0.12943209  1.0
  Ni  Ni1501  1  0.72952835  0.35039767  0.12943209  1.0
  Ni  Ni1502  1  0.72952835  0.68373100  0.12943209  1.0
  Ni  Ni1503  1  0.18786169  0.01706433  0.19193209  1.0
  Ni  Ni1504  1  0.18786169  0.35039767  0.19193209  1.0
  Ni  Ni1505  1  0.18786169  0.68373100  0.19193209  1.0
  Ni  Ni1506  1  0.52119502  0.01706433  0.19193209  1.0
  Ni  Ni1507  1  0.52119502  0.35039767  0.19193209  1.0
  Ni  Ni1508  1  0.52119502  0.68373100  0.19193209  1.0
  Ni  Ni1509  1  0.85452835  0.01706433  0.19193209  1.0
  Ni  Ni1510  1  0.85452835  0.35039767  0.19193209  1.0
  Ni  Ni1511  1  0.85452835  0.68373100  0.19193209  1.0
  Ni  Ni1512  1  0.07348981  0.14960233  0.21289341  1.0
  Ni  Ni1513  1  0.07348981  0.48293567  0.21289341  1.0
  Ni  Ni1514  1  0.07348981  0.81626900  0.21289341  1.0
  Ni  Ni1515  1  0.40682315  0.14960233  0.21289341  1.0
  Ni  Ni1516  1  0.40682315  0.48293567  0.21289341  1.0
  Ni  Ni1517  1  0.40682315  0.81626900  0.21289341  1.0
  Ni  Ni1518  1  0.74015648  0.14960233  0.21289341  1.0
  Ni  Ni1519  1  0.74015648  0.48293567  0.21289341  1.0
  Ni  Ni1520  1  0.74015648  0.81626900  0.21289341  1.0
  Ni  Ni1521  1  0.28182315  0.14960233  0.15039341  1.0
  Ni  Ni1522  1  0.28182315  0.48293567  0.15039341  1.0
  Ni  Ni1523  1  0.28182315  0.81626900  0.15039341  1.0
  Ni  Ni1524  1  0.61515648  0.14960233  0.15039341  1.0
  Ni  Ni1525  1  0.61515648  0.48293567  0.15039341  1.0
  Ni  Ni1526  1  0.61515648  0.81626900  0.15039341  1.0
  Ni  Ni1527  1  0.94848981  0.14960233  0.15039341  1.0
  Ni  Ni1528  1  0.94848981  0.48293567  0.15039341  1.0
  Ni  Ni1529  1  0.94848981  0.81626900  0.15039341  1.0
  Ni  Ni1530  1  0.07611252  0.31626900  0.16210659  1.0
  Ni  Ni1531  1  0.07611252  0.64960233  0.16210659  1.0
  Ni  Ni1532  1  0.07611252  0.98293567  0.16210659  1.0
  Ni  Ni1533  1  0.40944585  0.31626900  0.16210659  1.0
  Ni  Ni1534  1  0.40944585  0.64960233  0.16210659  1.0
  Ni  Ni1535  1  0.40944585  0.98293567  0.16210659  1.0
  Ni  Ni1536  1  0.74277919  0.31626900  0.16210659  1.0
  Ni  Ni1537  1  0.74277919  0.64960233  0.16210659  1.0
  Ni  Ni1538  1  0.74277919  0.98293567  0.16210659  1.0
  Ni  Ni1539  1  0.20111252  0.31626900  0.22460659  1.0
  Ni  Ni1540  1  0.20111252  0.64960233  0.22460659  1.0
  Ni  Ni1541  1  0.20111252  0.98293567  0.22460659  1.0
  Ni  Ni1542  1  0.53444585  0.31626900  0.22460659  1.0
  Ni  Ni1543  1  0.53444585  0.64960233  0.22460659  1.0
  Ni  Ni1544  1  0.53444585  0.98293567  0.22460659  1.0
  Ni  Ni1545  1  0.86777919  0.31626900  0.22460659  1.0
  Ni  Ni1546  1  0.86777919  0.64960233  0.22460659  1.0
  Ni  Ni1547  1  0.86777919  0.98293567  0.22460659  1.0
  Ni  Ni1548  1  0.03703890  0.31626900  0.22071703  1.0
  Ni  Ni1549  1  0.03703890  0.64960233  0.22071703  1.0
  Ni  Ni1550  1  0.03703890  0.98293567  0.22071703  1.0
  Ni  Ni1551  1  0.37037223  0.31626900  0.22071703  1.0
  Ni  Ni1552  1  0.37037223  0.64960233  0.22071703  1.0
  Ni  Ni1553  1  0.37037223  0.98293567  0.22071703  1.0
  Ni  Ni1554  1  0.70370556  0.31626900  0.22071703  1.0
  Ni  Ni1555  1  0.70370556  0.64960233  0.22071703  1.0
  Ni  Ni1556  1  0.70370556  0.98293567  0.22071703  1.0
  Ni  Ni1557  1  0.24537223  0.31626900  0.15821703  1.0
  Ni  Ni1558  1  0.24537223  0.64960233  0.15821703  1.0
  Ni  Ni1559  1  0.24537223  0.98293567  0.15821703  1.0
  Ni  Ni1560  1  0.57870556  0.31626900  0.15821703  1.0
  Ni  Ni1561  1  0.57870556  0.64960233  0.15821703  1.0
  Ni  Ni1562  1  0.57870556  0.98293567  0.15821703  1.0
  Ni  Ni1563  1  0.91203890  0.31626900  0.15821703  1.0
  Ni  Ni1564  1  0.91203890  0.64960233  0.15821703  1.0
  Ni  Ni1565  1  0.91203890  0.98293567  0.15821703  1.0
  Ni  Ni1566  1  0.14250208  0.31626900  0.19530137  1.0
  Ni  Ni1567  1  0.14250208  0.64960233  0.19530137  1.0
  Ni  Ni1568  1  0.14250208  0.98293567  0.19530137  1.0
  Ni  Ni1569  1  0.47583542  0.31626900  0.19530138  1.0
  Ni  Ni1570  1  0.47583542  0.64960233  0.19530138  1.0
  Ni  Ni1571  1  0.47583542  0.98293567  0.19530137  1.0
  Ni  Ni1572  1  0.80916875  0.31626900  0.19530137  1.0
  Ni  Ni1573  1  0.80916875  0.64960233  0.19530137  1.0
  Ni  Ni1574  1  0.80916875  0.98293567  0.19530137  1.0
  Ni  Ni1575  1  0.01750208  0.31626900  0.13280137  1.0
  Ni  Ni1576  1  0.01750208  0.64960233  0.13280138  1.0
  Ni  Ni1577  1  0.01750208  0.98293567  0.13280137  1.0
  Ni  Ni1578  1  0.35083542  0.31626900  0.13280138  1.0
  Ni  Ni1579  1  0.35083542  0.64960233  0.13280137  1.0
  Ni  Ni1580  1  0.35083542  0.98293567  0.13280138  1.0
  Ni  Ni1581  1  0.68416875  0.31626900  0.13280138  1.0
  Ni  Ni1582  1  0.68416875  0.64960233  0.13280137  1.0
  Ni  Ni1583  1  0.68416875  0.98293567  0.13280138  1.0
  Ni  Ni1584  1  0.13813837  0.21652733  0.16324594  1.0
  Ni  Ni1585  1  0.13813837  0.54986067  0.16324594  1.0
  Ni  Ni1586  1  0.13813837  0.88319400  0.16324594  1.0
  Ni  Ni1587  1  0.47147171  0.21652733  0.16324594  1.0
  Ni  Ni1588  1  0.47147171  0.54986067  0.16324594  1.0
  Ni  Ni1589  1  0.47147171  0.88319400  0.16324594  1.0
  Ni  Ni1590  1  0.80480504  0.21652733  0.16324594  1.0
  Ni  Ni1591  1  0.80480504  0.54986067  0.16324594  1.0
  Ni  Ni1592  1  0.80480504  0.88319400  0.16324594  1.0
  Ni  Ni1593  1  0.26313837  0.21652733  0.22574594  1.0
  Ni  Ni1594  1  0.26313837  0.54986067  0.22574594  1.0
  Ni  Ni1595  1  0.26313837  0.88319400  0.22574594  1.0
  Ni  Ni1596  1  0.59647171  0.21652733  0.22574594  1.0
  Ni  Ni1597  1  0.59647171  0.54986067  0.22574594  1.0
  Ni  Ni1598  1  0.59647171  0.88319400  0.22574594  1.0
  Ni  Ni1599  1  0.92980504  0.21652733  0.22574594  1.0
  Ni  Ni1600  1  0.92980504  0.54986067  0.22574594  1.0
  Ni  Ni1601  1  0.92980504  0.88319400  0.22574594  1.0
  Ni  Ni1602  1  0.04068671  0.04986067  0.14248144  1.0
  Ni  Ni1603  1  0.04068671  0.38319400  0.14248144  1.0
  Ni  Ni1604  1  0.04068671  0.71652733  0.14248144  1.0
  Ni  Ni1605  1  0.37402004  0.04986067  0.14248144  1.0
  Ni  Ni1606  1  0.37402004  0.38319400  0.14248144  1.0
  Ni  Ni1607  1  0.37402004  0.71652733  0.14248144  1.0
  Ni  Ni1608  1  0.70735338  0.04986067  0.14248144  1.0
  Ni  Ni1609  1  0.70735338  0.38319400  0.14248144  1.0
  Ni  Ni1610  1  0.70735338  0.71652733  0.14248144  1.0
  Ni  Ni1611  1  0.16568671  0.04986067  0.20498144  1.0
  Ni  Ni1612  1  0.16568671  0.38319400  0.20498144  1.0
  Ni  Ni1613  1  0.16568671  0.71652733  0.20498144  1.0
  Ni  Ni1614  1  0.49902004  0.04986067  0.20498144  1.0
  Ni  Ni1615  1  0.49902004  0.38319400  0.20498144  1.0
  Ni  Ni1616  1  0.49902004  0.71652733  0.20498144  1.0
  Ni  Ni1617  1  0.83235338  0.04986067  0.20498144  1.0
  Ni  Ni1618  1  0.83235338  0.38319400  0.20498144  1.0
  Ni  Ni1619  1  0.83235338  0.71652733  0.20498144  1.0
  Ni  Ni1620  1  0.30921387  0.28347267  0.33266769  1.0
  Ni  Ni1621  1  0.30921387  0.61680600  0.33266769  1.0
  Ni  Ni1622  1  0.30921387  0.95013933  0.33266769  1.0
  Ni  Ni1623  1  0.64254721  0.28347267  0.33266769  1.0
  Ni  Ni1624  1  0.64254721  0.61680600  0.33266769  1.0
  Ni  Ni1625  1  0.64254721  0.95013933  0.33266769  1.0
  Ni  Ni1626  1  0.97588054  0.28347267  0.33266769  1.0
  Ni  Ni1627  1  0.97588054  0.61680600  0.33266769  1.0
  Ni  Ni1628  1  0.97588054  0.95013933  0.33266769  1.0
  Ni  Ni1629  1  0.18421388  0.28347267  0.27016769  1.0
  Ni  Ni1630  1  0.18421388  0.61680600  0.27016769  1.0
  Ni  Ni1631  1  0.18421388  0.95013933  0.27016769  1.0
  Ni  Ni1632  1  0.51754721  0.28347267  0.27016769  1.0
  Ni  Ni1633  1  0.51754721  0.61680600  0.27016769  1.0
  Ni  Ni1634  1  0.51754721  0.95013933  0.27016769  1.0
  Ni  Ni1635  1  0.85088054  0.28347267  0.27016769  1.0
  Ni  Ni1636  1  0.85088054  0.61680600  0.27016769  1.0
  Ni  Ni1637  1  0.85088054  0.95013933  0.27016769  1.0
  Ni  Ni1638  1  0.07990954  0.28347267  0.30079819  1.0
  Ni  Ni1639  1  0.07990954  0.61680600  0.30079819  1.0
  Ni  Ni1640  1  0.07990954  0.95013933  0.30079819  1.0
  Ni  Ni1641  1  0.41324287  0.28347267  0.30079819  1.0
  Ni  Ni1642  1  0.41324287  0.61680600  0.30079819  1.0
  Ni  Ni1643  1  0.41324287  0.95013933  0.30079819  1.0
  Ni  Ni1644  1  0.74657621  0.28347267  0.30079819  1.0
  Ni  Ni1645  1  0.74657621  0.61680600  0.30079819  1.0
  Ni  Ni1646  1  0.74657621  0.95013933  0.30079819  1.0
  Ni  Ni1647  1  0.20490954  0.28347267  0.36329819  1.0
  Ni  Ni1648  1  0.20490954  0.61680600  0.36329819  1.0
  Ni  Ni1649  1  0.20490954  0.95013933  0.36329819  1.0
  Ni  Ni1650  1  0.53824287  0.28347267  0.36329819  1.0
  Ni  Ni1651  1  0.53824287  0.61680600  0.36329819  1.0
  Ni  Ni1652  1  0.53824287  0.95013933  0.36329819  1.0
  Ni  Ni1653  1  0.87157621  0.28347267  0.36329819  1.0
  Ni  Ni1654  1  0.87157621  0.61680600  0.36329819  1.0
  Ni  Ni1655  1  0.87157621  0.95013933  0.36329819  1.0
  Ni  Ni1656  1  0.03796754  0.28347267  0.36371119  1.0
  Ni  Ni1657  1  0.03796754  0.61680600  0.36371119  1.0
  Ni  Ni1658  1  0.03796754  0.95013933  0.36371119  1.0
  Ni  Ni1659  1  0.37130087  0.28347267  0.36371119  1.0
  Ni  Ni1660  1  0.37130087  0.61680600  0.36371119  1.0
  Ni  Ni1661  1  0.37130087  0.95013933  0.36371119  1.0
  Ni  Ni1662  1  0.70463421  0.28347267  0.36371119  1.0
  Ni  Ni1663  1  0.70463421  0.61680600  0.36371119  1.0
  Ni  Ni1664  1  0.70463421  0.95013933  0.36371119  1.0
  Ni  Ni1665  1  0.24630087  0.28347267  0.30121119  1.0
  Ni  Ni1666  1  0.24630087  0.61680600  0.30121119  1.0
  Ni  Ni1667  1  0.24630087  0.95013933  0.30121119  1.0
  Ni  Ni1668  1  0.57963421  0.28347267  0.30121119  1.0
  Ni  Ni1669  1  0.57963421  0.61680600  0.30121119  1.0
  Ni  Ni1670  1  0.57963421  0.95013933  0.30121119  1.0
  Ni  Ni1671  1  0.91296754  0.28347267  0.30121119  1.0
  Ni  Ni1672  1  0.91296754  0.61680600  0.30121119  1.0
  Ni  Ni1673  1  0.91296754  0.95013933  0.30121119  1.0
  Ni  Ni1674  1  0.17037087  0.11680600  0.37399019  1.0
  Ni  Ni1675  1  0.17037087  0.45013933  0.37399019  1.0
  Ni  Ni1676  1  0.17037087  0.78347267  0.37399019  1.0
  Ni  Ni1677  1  0.50370421  0.11680600  0.37399019  1.0
  Ni  Ni1678  1  0.50370421  0.45013933  0.37399019  1.0
  Ni  Ni1679  1  0.50370421  0.78347267  0.37399019  1.0
  Ni  Ni1680  1  0.83703754  0.11680600  0.37399019  1.0
  Ni  Ni1681  1  0.83703754  0.45013933  0.37399019  1.0
  Ni  Ni1682  1  0.83703754  0.78347267  0.37399019  1.0
  Ni  Ni1683  1  0.04537087  0.11680600  0.31149019  1.0
  Ni  Ni1684  1  0.04537087  0.45013933  0.31149019  1.0
  Ni  Ni1685  1  0.04537087  0.78347267  0.31149019  1.0
  Ni  Ni1686  1  0.37870421  0.11680600  0.31149019  1.0
  Ni  Ni1687  1  0.37870421  0.45013933  0.31149019  1.0
  Ni  Ni1688  1  0.37870421  0.78347267  0.31149019  1.0
  Ni  Ni1689  1  0.71203754  0.11680600  0.31149019  1.0
  Ni  Ni1690  1  0.71203754  0.45013933  0.31149019  1.0
  Ni  Ni1691  1  0.71203754  0.78347267  0.31149019  1.0
  Ni  Ni1692  1  0.18665771  0.04986067  0.29935094  1.0
  Ni  Ni1693  1  0.18665771  0.38319400  0.29935094  1.0
  Ni  Ni1694  1  0.18665771  0.71652733  0.29935094  1.0
  Ni  Ni1695  1  0.51999104  0.04986067  0.29935094  1.0
  Ni  Ni1696  1  0.51999104  0.38319400  0.29935094  1.0
  Ni  Ni1697  1  0.51999104  0.71652733  0.29935094  1.0
  Ni  Ni1698  1  0.85332437  0.04986067  0.29935094  1.0
  Ni  Ni1699  1  0.85332437  0.38319400  0.29935094  1.0
  Ni  Ni1700  1  0.85332437  0.71652733  0.29935094  1.0
  Ni  Ni1701  1  0.31165771  0.04986067  0.36185094  1.0
  Ni  Ni1702  1  0.31165771  0.38319400  0.36185094  1.0
  Ni  Ni1703  1  0.31165771  0.71652733  0.36185094  1.0
  Ni  Ni1704  1  0.64499104  0.04986067  0.36185094  1.0
  Ni  Ni1705  1  0.64499104  0.38319400  0.36185094  1.0
  Ni  Ni1706  1  0.64499104  0.71652733  0.36185094  1.0
  Ni  Ni1707  1  0.97832437  0.04986067  0.36185094  1.0
  Ni  Ni1708  1  0.97832438  0.38319400  0.36185094  1.0
  Ni  Ni1709  1  0.97832437  0.71652733  0.36185094  1.0
  Ni  Ni1710  1  0.31579121  0.11680600  0.28003369  1.0
  Ni  Ni1711  1  0.31579121  0.45013933  0.28003369  1.0
  Ni  Ni1712  1  0.31579121  0.78347267  0.28003369  1.0
  Ni  Ni1713  1  0.64912454  0.11680600  0.28003369  1.0
  Ni  Ni1714  1  0.64912454  0.45013933  0.28003369  1.0
  Ni  Ni1715  1  0.64912454  0.78347267  0.28003369  1.0
  Ni  Ni1716  1  0.98245788  0.11680600  0.28003369  1.0
  Ni  Ni1717  1  0.98245788  0.45013933  0.28003369  1.0
  Ni  Ni1718  1  0.98245787  0.78347267  0.28003369  1.0
  Ni  Ni1719  1  0.10745787  0.11680600  0.34253369  1.0
  Ni  Ni1720  1  0.10745788  0.45013933  0.34253369  1.0
  Ni  Ni1721  1  0.10745787  0.78347267  0.34253369  1.0
  Ni  Ni1722  1  0.44079121  0.11680600  0.34253369  1.0
  Ni  Ni1723  1  0.44079121  0.45013933  0.34253369  1.0
  Ni  Ni1724  1  0.44079121  0.78347267  0.34253369  1.0
  Ni  Ni1725  1  0.77412454  0.11680600  0.34253369  1.0
  Ni  Ni1726  1  0.77412454  0.45013933  0.34253369  1.0
  Ni  Ni1727  1  0.77412454  0.78347267  0.34253369  1.0
  Ni  Ni1728  1  0.21176221  0.11680600  0.31190319  1.0
  Ni  Ni1729  1  0.21176221  0.45013933  0.31190319  1.0
  Ni  Ni1730  1  0.21176221  0.78347267  0.31190319  1.0
  Ni  Ni1731  1  0.54509554  0.11680600  0.31190319  1.0
  Ni  Ni1732  1  0.54509554  0.45013933  0.31190319  1.0
  Ni  Ni1733  1  0.54509554  0.78347267  0.31190319  1.0
  Ni  Ni1734  1  0.87842887  0.11680600  0.31190319  1.0
  Ni  Ni1735  1  0.87842887  0.45013933  0.31190319  1.0
  Ni  Ni1736  1  0.87842887  0.78347267  0.31190319  1.0
  Ni  Ni1737  1  0.00342887  0.11680600  0.37440319  1.0
  Ni  Ni1738  1  0.00342887  0.45013933  0.37440319  1.0
  Ni  Ni1739  1  0.00342887  0.78347267  0.37440319  1.0
  Ni  Ni1740  1  0.33676221  0.11680600  0.37440319  1.0
  Ni  Ni1741  1  0.33676221  0.45013933  0.37440319  1.0
  Ni  Ni1742  1  0.33676221  0.78347267  0.37440319  1.0
  Ni  Ni1743  1  0.67009554  0.11680600  0.37440319  1.0
  Ni  Ni1744  1  0.67009554  0.45013933  0.37440319  1.0
  Ni  Ni1745  1  0.67009554  0.78347267  0.37440319  1.0
  Ni  Ni1746  1  0.28410937  0.21652733  0.32011544  1.0
  Ni  Ni1747  1  0.28410937  0.54986067  0.32011544  1.0
  Ni  Ni1748  1  0.28410937  0.88319400  0.32011544  1.0
  Ni  Ni1749  1  0.61744271  0.21652733  0.32011544  1.0
  Ni  Ni1750  1  0.61744271  0.54986067  0.32011544  1.0
  Ni  Ni1751  1  0.61744271  0.88319400  0.32011544  1.0
  Ni  Ni1752  1  0.95077604  0.21652733  0.32011544  1.0
  Ni  Ni1753  1  0.95077604  0.54986067  0.32011544  1.0
  Ni  Ni1754  1  0.95077604  0.88319400  0.32011544  1.0
  Ni  Ni1755  1  0.15910937  0.21652733  0.25761544  1.0
  Ni  Ni1756  1  0.15910937  0.54986067  0.25761544  1.0
  Ni  Ni1757  1  0.15910937  0.88319400  0.25761544  1.0
  Ni  Ni1758  1  0.49244271  0.21652733  0.25761544  1.0
  Ni  Ni1759  1  0.49244271  0.54986067  0.25761544  1.0
  Ni  Ni1760  1  0.49244271  0.88319400  0.25761544  1.0
  Ni  Ni1761  1  0.82577604  0.21652733  0.25761544  1.0
  Ni  Ni1762  1  0.82577604  0.54986067  0.25761544  1.0
  Ni  Ni1763  1  0.82577604  0.88319400  0.25761544  1.0
  Ni  Ni1764  1  0.01286304  0.21652733  0.35115894  1.0
  Ni  Ni1765  1  0.01286304  0.54986067  0.35115894  1.0
  Ni  Ni1766  1  0.01286304  0.88319400  0.35115894  1.0
  Ni  Ni1767  1  0.34619637  0.21652733  0.35115894  1.0
  Ni  Ni1768  1  0.34619637  0.54986067  0.35115894  1.0
  Ni  Ni1769  1  0.34619637  0.88319400  0.35115894  1.0
  Ni  Ni1770  1  0.67952971  0.21652733  0.35115894  1.0
  Ni  Ni1771  1  0.67952971  0.54986067  0.35115894  1.0
  Ni  Ni1772  1  0.67952971  0.88319400  0.35115894  1.0
  Ni  Ni1773  1  0.22119637  0.21652733  0.28865894  1.0
  Ni  Ni1774  1  0.22119637  0.54986067  0.28865894  1.0
  Ni  Ni1775  1  0.22119637  0.88319400  0.28865894  1.0
  Ni  Ni1776  1  0.55452971  0.21652733  0.28865894  1.0
  Ni  Ni1777  1  0.55452971  0.54986067  0.28865894  1.0
  Ni  Ni1778  1  0.55452971  0.88319400  0.28865894  1.0
  Ni  Ni1779  1  0.88786304  0.21652733  0.28865894  1.0
  Ni  Ni1780  1  0.88786304  0.54986067  0.28865894  1.0
  Ni  Ni1781  1  0.88786304  0.88319400  0.28865894  1.0
  Ni  Ni1782  1  0.14526638  0.04986067  0.36143794  1.0
  Ni  Ni1783  1  0.14526638  0.38319400  0.36143794  1.0
  Ni  Ni1784  1  0.14526638  0.71652733  0.36143794  1.0
  Ni  Ni1785  1  0.47859971  0.04986067  0.36143794  1.0
  Ni  Ni1786  1  0.47859971  0.38319400  0.36143794  1.0
  Ni  Ni1787  1  0.47859971  0.71652733  0.36143794  1.0
  Ni  Ni1788  1  0.81193304  0.04986067  0.36143794  1.0
  Ni  Ni1789  1  0.81193304  0.38319400  0.36143794  1.0
  Ni  Ni1790  1  0.81193304  0.71652733  0.36143794  1.0
  Ni  Ni1791  1  0.02026637  0.04986067  0.29893794  1.0
  Ni  Ni1792  1  0.02026637  0.38319400  0.29893794  1.0
  Ni  Ni1793  1  0.02026637  0.71652733  0.29893794  1.0
  Ni  Ni1794  1  0.35359971  0.04986067  0.29893794  1.0
  Ni  Ni1795  1  0.35359971  0.38319400  0.29893794  1.0
  Ni  Ni1796  1  0.35359971  0.71652733  0.29893794  1.0
  Ni  Ni1797  1  0.68693304  0.04986067  0.29893794  1.0
  Ni  Ni1798  1  0.68693304  0.38319400  0.29893794  1.0
  Ni  Ni1799  1  0.68693304  0.71652733  0.29893794  1.0
  Ni  Ni1800  1  0.33075644  0.25000000  0.31902847  1.0
  Ni  Ni1801  1  0.33075644  0.58333333  0.31902847  1.0
  Ni  Ni1802  1  0.33075644  0.91666667  0.31902847  1.0
  Ni  Ni1803  1  0.66408977  0.25000000  0.31902847  1.0
  Ni  Ni1804  1  0.66408977  0.58333333  0.31902847  1.0
  Ni  Ni1805  1  0.66408977  0.91666667  0.31902847  1.0
  Ni  Ni1806  1  0.99742310  0.25000000  0.31902847  1.0
  Ni  Ni1807  1  0.99742310  0.58333333  0.31902847  1.0
  Ni  Ni1808  1  0.99742310  0.91666667  0.31902847  1.0
  Ni  Ni1809  1  0.20575644  0.25000000  0.25652847  1.0
  Ni  Ni1810  1  0.20575644  0.58333333  0.25652847  1.0
  Ni  Ni1811  1  0.20575644  0.91666667  0.25652847  1.0
  Ni  Ni1812  1  0.53908977  0.25000000  0.25652847  1.0
  Ni  Ni1813  1  0.53908977  0.58333333  0.25652847  1.0
  Ni  Ni1814  1  0.53908977  0.91666667  0.25652847  1.0
  Ni  Ni1815  1  0.87242310  0.25000000  0.25652847  1.0
  Ni  Ni1816  1  0.87242310  0.58333333  0.25652847  1.0
  Ni  Ni1817  1  0.87242310  0.91666667  0.25652847  1.0
  Ni  Ni1818  1  0.16630904  0.08333333  0.31836269  1.0
  Ni  Ni1819  1  0.16630904  0.41666667  0.31836269  1.0
  Ni  Ni1820  1  0.16630904  0.75000000  0.31836269  1.0
  Ni  Ni1821  1  0.49964237  0.08333333  0.31836269  1.0
  Ni  Ni1822  1  0.49964237  0.41666667  0.31836269  1.0
  Ni  Ni1823  1  0.49964237  0.75000000  0.31836269  1.0
  Ni  Ni1824  1  0.83297571  0.08333333  0.31836269  1.0
  Ni  Ni1825  1  0.83297571  0.41666667  0.31836269  1.0
  Ni  Ni1826  1  0.83297571  0.75000000  0.31836269  1.0
  Ni  Ni1827  1  0.04130904  0.08333333  0.25586269  1.0
  Ni  Ni1828  1  0.04130904  0.41666667  0.25586269  1.0
  Ni  Ni1829  1  0.04130904  0.75000000  0.25586269  1.0
  Ni  Ni1830  1  0.37464237  0.08333333  0.25586269  1.0
  Ni  Ni1831  1  0.37464237  0.41666667  0.25586269  1.0
  Ni  Ni1832  1  0.37464237  0.75000000  0.25586269  1.0
  Ni  Ni1833  1  0.70797571  0.08333333  0.25586269  1.0
  Ni  Ni1834  1  0.70797571  0.41666667  0.25586269  1.0
  Ni  Ni1835  1  0.70797571  0.75000000  0.25586269  1.0
  Ni  Ni1836  1  0.22481435  0.08333333  0.34761534  1.0
  Ni  Ni1837  1  0.22481435  0.41666667  0.34761534  1.0
  Ni  Ni1838  1  0.22481435  0.75000000  0.34761534  1.0
  Ni  Ni1839  1  0.55814769  0.08333333  0.34761534  1.0
  Ni  Ni1840  1  0.55814769  0.41666667  0.34761534  1.0
  Ni  Ni1841  1  0.55814769  0.75000000  0.34761534  1.0
  Ni  Ni1842  1  0.89148102  0.08333333  0.34761534  1.0
  Ni  Ni1843  1  0.89148102  0.41666667  0.34761534  1.0
  Ni  Ni1844  1  0.89148102  0.75000000  0.34761534  1.0
  Ni  Ni1845  1  0.09981435  0.08333333  0.28511534  1.0
  Ni  Ni1846  1  0.09981435  0.41666667  0.28511534  1.0
  Ni  Ni1847  1  0.09981435  0.75000000  0.28511534  1.0
  Ni  Ni1848  1  0.43314769  0.08333333  0.28511534  1.0
  Ni  Ni1849  1  0.43314769  0.41666667  0.28511534  1.0
  Ni  Ni1850  1  0.43314769  0.75000000  0.28511534  1.0
  Ni  Ni1851  1  0.76648102  0.08333333  0.28511534  1.0
  Ni  Ni1852  1  0.76648102  0.41666667  0.28511534  1.0
  Ni  Ni1853  1  0.76648102  0.75000000  0.28511534  1.0
  Ni  Ni1854  1  0.04175290  0.25000000  0.25253378  1.0
  Ni  Ni1855  1  0.04175290  0.58333333  0.25253378  1.0
  Ni  Ni1856  1  0.04175290  0.91666667  0.25253378  1.0
  Ni  Ni1857  1  0.37508623  0.25000000  0.25253378  1.0
  Ni  Ni1858  1  0.37508623  0.58333333  0.25253378  1.0
  Ni  Ni1859  1  0.37508623  0.91666667  0.25253378  1.0
  Ni  Ni1860  1  0.70841956  0.25000000  0.25253378  1.0
  Ni  Ni1861  1  0.70841956  0.58333333  0.25253378  1.0
  Ni  Ni1862  1  0.70841956  0.91666667  0.25253378  1.0
  Ni  Ni1863  1  0.16675290  0.25000000  0.31503378  1.0
  Ni  Ni1864  1  0.16675290  0.58333333  0.31503378  1.0
  Ni  Ni1865  1  0.16675290  0.91666667  0.31503378  1.0
  Ni  Ni1866  1  0.50008623  0.25000000  0.31503378  1.0
  Ni  Ni1867  1  0.50008623  0.58333333  0.31503378  1.0
  Ni  Ni1868  1  0.50008623  0.91666667  0.31503378  1.0
  Ni  Ni1869  1  0.83341956  0.25000000  0.31503378  1.0
  Ni  Ni1870  1  0.83341956  0.58333333  0.31503378  1.0
  Ni  Ni1871  1  0.83341956  0.91666667  0.31503378  1.0
  Ni  Ni1872  1  0.10025821  0.25000000  0.28178644  1.0
  Ni  Ni1873  1  0.10025821  0.58333333  0.28178644  1.0
  Ni  Ni1874  1  0.10025821  0.91666667  0.28178644  1.0
  Ni  Ni1875  1  0.43359154  0.25000000  0.28178644  1.0
  Ni  Ni1876  1  0.43359154  0.58333333  0.28178644  1.0
  Ni  Ni1877  1  0.43359154  0.91666667  0.28178644  1.0
  Ni  Ni1878  1  0.76692487  0.25000000  0.28178644  1.0
  Ni  Ni1879  1  0.76692487  0.58333333  0.28178644  1.0
  Ni  Ni1880  1  0.76692487  0.91666667  0.28178644  1.0
  Ni  Ni1881  1  0.22525821  0.25000000  0.34428644  1.0
  Ni  Ni1882  1  0.22525821  0.58333333  0.34428644  1.0
  Ni  Ni1883  1  0.22525821  0.91666667  0.34428644  1.0
  Ni  Ni1884  1  0.55859154  0.25000000  0.34428644  1.0
  Ni  Ni1885  1  0.55859154  0.58333333  0.34428644  1.0
  Ni  Ni1886  1  0.55859154  0.91666667  0.34428644  1.0
  Ni  Ni1887  1  0.89192487  0.25000000  0.34428644  1.0
  Ni  Ni1888  1  0.89192487  0.58333333  0.34428644  1.0
  Ni  Ni1889  1  0.89192487  0.91666667  0.34428644  1.0
  Ni  Ni1890  1  0.26914415  0.08333333  0.28112066  1.0
  Ni  Ni1891  1  0.26914415  0.41666667  0.28112066  1.0
  Ni  Ni1892  1  0.26914415  0.75000000  0.28112066  1.0
  Ni  Ni1893  1  0.60247748  0.08333333  0.28112066  1.0
  Ni  Ni1894  1  0.60247748  0.41666667  0.28112066  1.0
  Ni  Ni1895  1  0.60247748  0.75000000  0.28112066  1.0
  Ni  Ni1896  1  0.93581081  0.08333333  0.28112066  1.0
  Ni  Ni1897  1  0.93581081  0.41666667  0.28112066  1.0
  Ni  Ni1898  1  0.93581081  0.75000000  0.28112066  1.0
  Ni  Ni1899  1  0.06081081  0.08333333  0.34362066  1.0
  Ni  Ni1900  1  0.06081081  0.41666667  0.34362066  1.0
  Ni  Ni1901  1  0.06081081  0.75000000  0.34362066  1.0
  Ni  Ni1902  1  0.39414415  0.08333333  0.34362066  1.0
  Ni  Ni1903  1  0.39414415  0.41666667  0.34362066  1.0
  Ni  Ni1904  1  0.39414415  0.75000000  0.34362066  1.0
  Ni  Ni1905  1  0.72747748  0.08333333  0.34362066  1.0
  Ni  Ni1906  1  0.72747748  0.41666667  0.34362066  1.0
  Ni  Ni1907  1  0.72747748  0.75000000  0.34362066  1.0
  Ni  Ni1908  1  0.23733715  0.18373100  0.32086616  1.0
  Ni  Ni1909  1  0.23733715  0.51706433  0.32086616  1.0
  Ni  Ni1910  1  0.23733715  0.85039767  0.32086616  1.0
  Ni  Ni1911  1  0.57067048  0.18373100  0.32086616  1.0
  Ni  Ni1912  1  0.57067048  0.51706433  0.32086616  1.0
  Ni  Ni1913  1  0.57067048  0.85039767  0.32086616  1.0
  Ni  Ni1914  1  0.90400381  0.18373100  0.32086616  1.0
  Ni  Ni1915  1  0.90400381  0.51706433  0.32086616  1.0
  Ni  Ni1916  1  0.90400381  0.85039767  0.32086616  1.0
  Ni  Ni1917  1  0.11233715  0.18373100  0.25836616  1.0
  Ni  Ni1918  1  0.11233715  0.51706433  0.25836616  1.0
  Ni  Ni1919  1  0.11233715  0.85039767  0.25836616  1.0
  Ni  Ni1920  1  0.44567048  0.18373100  0.25836616  1.0
  Ni  Ni1921  1  0.44567048  0.51706433  0.25836616  1.0
  Ni  Ni1922  1  0.44567048  0.85039767  0.25836616  1.0
  Ni  Ni1923  1  0.77900381  0.18373100  0.25836616  1.0
  Ni  Ni1924  1  0.77900381  0.51706433  0.25836616  1.0
  Ni  Ni1925  1  0.77900381  0.85039767  0.25836616  1.0
  Ni  Ni1926  1  0.20739850  0.01706433  0.27984775  1.0
  Ni  Ni1927  1  0.20739850  0.35039767  0.27984775  1.0
  Ni  Ni1928  1  0.20739850  0.68373100  0.27984775  1.0
  Ni  Ni1929  1  0.54073183  0.01706433  0.27984775  1.0
  Ni  Ni1930  1  0.54073183  0.35039767  0.27984775  1.0
  Ni  Ni1931  1  0.54073183  0.68373100  0.27984775  1.0
  Ni  Ni1932  1  0.87406517  0.01706433  0.27984775  1.0
  Ni  Ni1933  1  0.87406517  0.35039767  0.27984775  1.0
  Ni  Ni1934  1  0.87406517  0.68373100  0.27984775  1.0
  Ni  Ni1935  1  0.33239850  0.01706433  0.34234775  1.0
  Ni  Ni1936  1  0.33239850  0.35039767  0.34234775  1.0
  Ni  Ni1937  1  0.33239850  0.68373100  0.34234775  1.0
  Ni  Ni1938  1  0.66573183  0.01706433  0.34234775  1.0
  Ni  Ni1939  1  0.66573183  0.35039767  0.34234775  1.0
  Ni  Ni1940  1  0.66573183  0.68373100  0.34234775  1.0
  Ni  Ni1941  1  0.99906517  0.01706433  0.34234775  1.0
  Ni  Ni1942  1  0.99906517  0.35039767  0.34234775  1.0
  Ni  Ni1943  1  0.99906517  0.68373100  0.34234775  1.0
  Ni  Ni1944  1  0.27378806  0.01706433  0.31304253  1.0
  Ni  Ni1945  1  0.27378806  0.35039767  0.31304253  1.0
  Ni  Ni1946  1  0.27378806  0.68373100  0.31304253  1.0
  Ni  Ni1947  1  0.60712140  0.01706433  0.31304253  1.0
  Ni  Ni1948  1  0.60712140  0.35039767  0.31304253  1.0
  Ni  Ni1949  1  0.60712140  0.68373100  0.31304253  1.0
  Ni  Ni1950  1  0.94045473  0.01706433  0.31304253  1.0
  Ni  Ni1951  1  0.94045473  0.35039767  0.31304253  1.0
  Ni  Ni1952  1  0.94045473  0.68373100  0.31304253  1.0
  Ni  Ni1953  1  0.14878806  0.01706433  0.25054253  1.0
  Ni  Ni1954  1  0.14878806  0.35039767  0.25054253  1.0
  Ni  Ni1955  1  0.14878806  0.68373100  0.25054253  1.0
  Ni  Ni1956  1  0.48212140  0.01706433  0.25054253  1.0
  Ni  Ni1957  1  0.48212140  0.35039767  0.25054253  1.0
  Ni  Ni1958  1  0.48212140  0.68373100  0.25054253  1.0
  Ni  Ni1959  1  0.81545473  0.01706433  0.25054253  1.0
  Ni  Ni1960  1  0.81545473  0.35039767  0.25054253  1.0
  Ni  Ni1961  1  0.81545473  0.68373100  0.25054253  1.0
  Ni  Ni1962  1  0.27641077  0.18373100  0.26225572  1.0
  Ni  Ni1963  1  0.27641077  0.51706433  0.26225572  1.0
  Ni  Ni1964  1  0.27641077  0.85039767  0.26225572  1.0
  Ni  Ni1965  1  0.60974410  0.18373100  0.26225572  1.0
  Ni  Ni1966  1  0.60974410  0.51706433  0.26225572  1.0
  Ni  Ni1967  1  0.60974410  0.85039767  0.26225572  1.0
  Ni  Ni1968  1  0.94307744  0.18373100  0.26225572  1.0
  Ni  Ni1969  1  0.94307744  0.51706433  0.26225572  1.0
  Ni  Ni1970  1  0.94307744  0.85039767  0.26225572  1.0
  Ni  Ni1971  1  0.06807744  0.18373100  0.32475572  1.0
  Ni  Ni1972  1  0.06807744  0.51706433  0.32475572  1.0
  Ni  Ni1973  1  0.06807744  0.85039767  0.32475572  1.0
  Ni  Ni1974  1  0.40141077  0.18373100  0.32475572  1.0
  Ni  Ni1975  1  0.40141077  0.51706433  0.32475572  1.0
  Ni  Ni1976  1  0.40141077  0.85039767  0.32475572  1.0
  Ni  Ni1977  1  0.73474410  0.18373100  0.32475572  1.0
  Ni  Ni1978  1  0.73474410  0.51706433  0.32475572  1.0
  Ni  Ni1979  1  0.73474410  0.85039767  0.32475572  1.0
  Ni  Ni1980  1  0.00946700  0.18373100  0.29545050  1.0
  Ni  Ni1981  1  0.00946700  0.51706433  0.29545050  1.0
  Ni  Ni1982  1  0.00946700  0.85039767  0.29545050  1.0
  Ni  Ni1983  1  0.34280033  0.18373100  0.29545050  1.0
  Ni  Ni1984  1  0.34280033  0.51706433  0.29545050  1.0
  Ni  Ni1985  1  0.34280033  0.85039767  0.29545050  1.0
  Ni  Ni1986  1  0.67613367  0.18373100  0.29545050  1.0
  Ni  Ni1987  1  0.67613367  0.51706433  0.29545050  1.0
  Ni  Ni1988  1  0.67613367  0.85039767  0.29545050  1.0
  Ni  Ni1989  1  0.13446700  0.18373100  0.35795050  1.0
  Ni  Ni1990  1  0.13446700  0.51706433  0.35795050  1.0
  Ni  Ni1991  1  0.13446700  0.85039767  0.35795050  1.0
  Ni  Ni1992  1  0.46780033  0.18373100  0.35795050  1.0
  Ni  Ni1993  1  0.46780033  0.51706433  0.35795050  1.0
  Ni  Ni1994  1  0.46780033  0.85039767  0.35795050  1.0
  Ni  Ni1995  1  0.80113367  0.18373100  0.35795050  1.0
  Ni  Ni1996  1  0.80113367  0.51706433  0.35795050  1.0
  Ni  Ni1997  1  0.80113367  0.85039767  0.35795050  1.0
  Ni  Ni1998  1  0.02923010  0.14960233  0.27928297  1.0
  Ni  Ni1999  1  0.02923010  0.48293567  0.27928297  1.0
  Ni  Ni2000  1  0.02923010  0.81626900  0.27928297  1.0
  Ni  Ni2001  1  0.36256344  0.14960233  0.27928297  1.0
  Ni  Ni2002  1  0.36256344  0.48293567  0.27928297  1.0
  Ni  Ni2003  1  0.36256344  0.81626900  0.27928297  1.0
  Ni  Ni2004  1  0.69589677  0.14960233  0.27928297  1.0
  Ni  Ni2005  1  0.69589677  0.48293567  0.27928297  1.0
  Ni  Ni2006  1  0.69589677  0.81626900  0.27928297  1.0
  Ni  Ni2007  1  0.15423010  0.14960233  0.34178297  1.0
  Ni  Ni2008  1  0.15423010  0.48293567  0.34178297  1.0
  Ni  Ni2009  1  0.15423010  0.81626900  0.34178297  1.0
  Ni  Ni2010  1  0.48756344  0.14960233  0.34178297  1.0
  Ni  Ni2011  1  0.48756344  0.48293567  0.34178297  1.0
  Ni  Ni2012  1  0.48756344  0.81626900  0.34178297  1.0
  Ni  Ni2013  1  0.82089677  0.14960233  0.34178297  1.0
  Ni  Ni2014  1  0.82089677  0.48293567  0.34178297  1.0
  Ni  Ni2015  1  0.82089677  0.81626900  0.34178297  1.0
  Ni  Ni2016  1  0.25710025  0.14960233  0.30469863  1.0
  Ni  Ni2017  1  0.25710025  0.48293567  0.30469863  1.0
  Ni  Ni2018  1  0.25710025  0.81626900  0.30469863  1.0
  Ni  Ni2019  1  0.59043358  0.14960233  0.30469863  1.0
  Ni  Ni2020  1  0.59043358  0.48293567  0.30469863  1.0
  Ni  Ni2021  1  0.59043358  0.81626900  0.30469863  1.0
  Ni  Ni2022  1  0.92376692  0.14960233  0.30469863  1.0
  Ni  Ni2023  1  0.92376692  0.48293567  0.30469863  1.0
  Ni  Ni2024  1  0.92376692  0.81626900  0.30469863  1.0
  Ni  Ni2025  1  0.04876692  0.14960233  0.36719862  1.0
  Ni  Ni2026  1  0.04876692  0.48293567  0.36719863  1.0
  Ni  Ni2027  1  0.04876692  0.81626900  0.36719862  1.0
  Ni  Ni2028  1  0.38210025  0.14960233  0.36719862  1.0
  Ni  Ni2029  1  0.38210025  0.48293567  0.36719863  1.0
  Ni  Ni2030  1  0.38210025  0.81626900  0.36719862  1.0
  Ni  Ni2031  1  0.71543358  0.14960233  0.36719862  1.0
  Ni  Ni2032  1  0.71543358  0.48293567  0.36719862  1.0
  Ni  Ni2033  1  0.71543358  0.81626900  0.36719862  1.0
  Ni  Ni2034  1  0.31286169  0.01706433  0.25443209  1.0
  Ni  Ni2035  1  0.31286169  0.35039767  0.25443209  1.0
  Ni  Ni2036  1  0.31286169  0.68373100  0.25443209  1.0
  Ni  Ni2037  1  0.64619502  0.01706433  0.25443209  1.0
  Ni  Ni2038  1  0.64619502  0.35039767  0.25443209  1.0
  Ni  Ni2039  1  0.64619502  0.68373100  0.25443209  1.0
  Ni  Ni2040  1  0.97952835  0.01706433  0.25443209  1.0
  Ni  Ni2041  1  0.97952835  0.35039767  0.25443209  1.0
  Ni  Ni2042  1  0.97952835  0.68373100  0.25443209  1.0
  Ni  Ni2043  1  0.10452835  0.01706433  0.31693209  1.0
  Ni  Ni2044  1  0.10452835  0.35039767  0.31693209  1.0
  Ni  Ni2045  1  0.10452835  0.68373100  0.31693209  1.0
  Ni  Ni2046  1  0.43786169  0.01706433  0.31693209  1.0
  Ni  Ni2047  1  0.43786169  0.35039767  0.31693209  1.0
  Ni  Ni2048  1  0.43786169  0.68373100  0.31693209  1.0
  Ni  Ni2049  1  0.77119502  0.01706433  0.31693209  1.0
  Ni  Ni2050  1  0.77119502  0.35039767  0.31693209  1.0
  Ni  Ni2051  1  0.77119502  0.68373100  0.31693209  1.0
  Ni  Ni2052  1  0.32348981  0.14960233  0.33789341  1.0
  Ni  Ni2053  1  0.32348981  0.48293567  0.33789341  1.0
  Ni  Ni2054  1  0.32348981  0.81626900  0.33789341  1.0
  Ni  Ni2055  1  0.65682315  0.14960233  0.33789341  1.0
  Ni  Ni2056  1  0.65682315  0.48293567  0.33789341  1.0
  Ni  Ni2057  1  0.65682315  0.81626900  0.33789341  1.0
  Ni  Ni2058  1  0.99015648  0.14960233  0.33789341  1.0
  Ni  Ni2059  1  0.99015648  0.48293567  0.33789341  1.0
  Ni  Ni2060  1  0.99015648  0.81626900  0.33789341  1.0
  Ni  Ni2061  1  0.19848981  0.14960233  0.27539341  1.0
  Ni  Ni2062  1  0.19848981  0.48293567  0.27539341  1.0
  Ni  Ni2063  1  0.19848981  0.81626900  0.27539341  1.0
  Ni  Ni2064  1  0.53182315  0.14960233  0.27539341  1.0
  Ni  Ni2065  1  0.53182315  0.48293567  0.27539341  1.0
  Ni  Ni2066  1  0.53182315  0.81626900  0.27539341  1.0
  Ni  Ni2067  1  0.86515648  0.14960233  0.27539341  1.0
  Ni  Ni2068  1  0.86515648  0.48293567  0.27539341  1.0
  Ni  Ni2069  1  0.86515648  0.81626900  0.27539341  1.0
  Ni  Ni2070  1  0.32611252  0.31626900  0.28710659  1.0
  Ni  Ni2071  1  0.32611252  0.64960233  0.28710659  1.0
  Ni  Ni2072  1  0.32611252  0.98293567  0.28710659  1.0
  Ni  Ni2073  1  0.65944585  0.31626900  0.28710659  1.0
  Ni  Ni2074  1  0.65944585  0.64960233  0.28710659  1.0
  Ni  Ni2075  1  0.65944585  0.98293567  0.28710659  1.0
  Ni  Ni2076  1  0.99277919  0.31626900  0.28710659  1.0
  Ni  Ni2077  1  0.99277919  0.64960233  0.28710659  1.0
  Ni  Ni2078  1  0.99277919  0.98293567  0.28710659  1.0
  Ni  Ni2079  1  0.11777919  0.31626900  0.34960659  1.0
  Ni  Ni2080  1  0.11777919  0.64960233  0.34960659  1.0
  Ni  Ni2081  1  0.11777919  0.98293567  0.34960659  1.0
  Ni  Ni2082  1  0.45111252  0.31626900  0.34960659  1.0
  Ni  Ni2083  1  0.45111252  0.64960233  0.34960659  1.0
  Ni  Ni2084  1  0.45111252  0.98293567  0.34960659  1.0
  Ni  Ni2085  1  0.78444585  0.31626900  0.34960659  1.0
  Ni  Ni2086  1  0.78444585  0.64960233  0.34960659  1.0
  Ni  Ni2087  1  0.78444585  0.98293567  0.34960659  1.0
  Ni  Ni2088  1  0.28703890  0.31626900  0.34571703  1.0
  Ni  Ni2089  1  0.28703890  0.64960233  0.34571703  1.0
  Ni  Ni2090  1  0.28703890  0.98293567  0.34571703  1.0
  Ni  Ni2091  1  0.62037223  0.31626900  0.34571703  1.0
  Ni  Ni2092  1  0.62037223  0.64960233  0.34571703  1.0
  Ni  Ni2093  1  0.62037223  0.98293567  0.34571703  1.0
  Ni  Ni2094  1  0.95370556  0.31626900  0.34571703  1.0
  Ni  Ni2095  1  0.95370556  0.64960233  0.34571703  1.0
  Ni  Ni2096  1  0.95370556  0.98293567  0.34571703  1.0
  Ni  Ni2097  1  0.16203890  0.31626900  0.28321703  1.0
  Ni  Ni2098  1  0.16203890  0.64960233  0.28321703  1.0
  Ni  Ni2099  1  0.16203890  0.98293567  0.28321703  1.0
  Ni  Ni2100  1  0.49537223  0.31626900  0.28321703  1.0
  Ni  Ni2101  1  0.49537223  0.64960233  0.28321703  1.0
  Ni  Ni2102  1  0.49537223  0.98293567  0.28321703  1.0
  Ni  Ni2103  1  0.82870556  0.31626900  0.28321703  1.0
  Ni  Ni2104  1  0.82870556  0.64960233  0.28321703  1.0
  Ni  Ni2105  1  0.82870556  0.98293567  0.28321703  1.0
  Ni  Ni2106  1  0.05916875  0.31626900  0.32030137  1.0
  Ni  Ni2107  1  0.05916875  0.64960233  0.32030137  1.0
  Ni  Ni2108  1  0.05916875  0.98293567  0.32030137  1.0
  Ni  Ni2109  1  0.39250208  0.31626900  0.32030137  1.0
  Ni  Ni2110  1  0.39250208  0.64960233  0.32030137  1.0
  Ni  Ni2111  1  0.39250208  0.98293567  0.32030137  1.0
  Ni  Ni2112  1  0.72583542  0.31626900  0.32030137  1.0
  Ni  Ni2113  1  0.72583542  0.64960233  0.32030137  1.0
  Ni  Ni2114  1  0.72583542  0.98293567  0.32030137  1.0
  Ni  Ni2115  1  0.26750208  0.31626900  0.25780137  1.0
  Ni  Ni2116  1  0.26750208  0.64960233  0.25780137  1.0
  Ni  Ni2117  1  0.26750208  0.98293567  0.25780138  1.0
  Ni  Ni2118  1  0.60083542  0.31626900  0.25780138  1.0
  Ni  Ni2119  1  0.60083542  0.64960233  0.25780137  1.0
  Ni  Ni2120  1  0.60083542  0.98293567  0.25780137  1.0
  Ni  Ni2121  1  0.93416875  0.31626900  0.25780138  1.0
  Ni  Ni2122  1  0.93416875  0.64960233  0.25780137  1.0
  Ni  Ni2123  1  0.93416875  0.98293567  0.25780138  1.0
  Ni  Ni2124  1  0.05480504  0.21652733  0.28824594  1.0
  Ni  Ni2125  1  0.05480504  0.54986067  0.28824594  1.0
  Ni  Ni2126  1  0.05480504  0.88319400  0.28824594  1.0
  Ni  Ni2127  1  0.38813837  0.21652733  0.28824594  1.0
  Ni  Ni2128  1  0.38813837  0.54986067  0.28824594  1.0
  Ni  Ni2129  1  0.38813837  0.88319400  0.28824594  1.0
  Ni  Ni2130  1  0.72147171  0.21652733  0.28824594  1.0
  Ni  Ni2131  1  0.72147171  0.54986067  0.28824594  1.0
  Ni  Ni2132  1  0.72147171  0.88319400  0.28824594  1.0
  Ni  Ni2133  1  0.17980504  0.21652733  0.35074594  1.0
  Ni  Ni2134  1  0.17980504  0.54986067  0.35074594  1.0
  Ni  Ni2135  1  0.17980504  0.88319400  0.35074594  1.0
  Ni  Ni2136  1  0.51313837  0.21652733  0.35074594  1.0
  Ni  Ni2137  1  0.51313837  0.54986067  0.35074594  1.0
  Ni  Ni2138  1  0.51313837  0.88319400  0.35074594  1.0
  Ni  Ni2139  1  0.84647171  0.21652733  0.35074594  1.0
  Ni  Ni2140  1  0.84647171  0.54986067  0.35074594  1.0
  Ni  Ni2141  1  0.84647171  0.88319400  0.35074594  1.0
  Ni  Ni2142  1  0.29068671  0.04986067  0.26748144  1.0
  Ni  Ni2143  1  0.29068671  0.38319400  0.26748144  1.0
  Ni  Ni2144  1  0.29068671  0.71652733  0.26748144  1.0
  Ni  Ni2145  1  0.62402004  0.04986067  0.26748144  1.0
  Ni  Ni2146  1  0.62402004  0.38319400  0.26748144  1.0
  Ni  Ni2147  1  0.62402004  0.71652733  0.26748144  1.0
  Ni  Ni2148  1  0.95735337  0.04986067  0.26748144  1.0
  Ni  Ni2149  1  0.95735338  0.38319400  0.26748144  1.0
  Ni  Ni2150  1  0.95735337  0.71652733  0.26748144  1.0
  Ni  Ni2151  1  0.08235338  0.04986067  0.32998144  1.0
  Ni  Ni2152  1  0.08235338  0.38319400  0.32998144  1.0
  Ni  Ni2153  1  0.08235338  0.71652733  0.32998144  1.0
  Ni  Ni2154  1  0.41568671  0.04986067  0.32998144  1.0
  Ni  Ni2155  1  0.41568671  0.38319400  0.32998144  1.0
  Ni  Ni2156  1  0.41568671  0.71652733  0.32998144  1.0
  Ni  Ni2157  1  0.74902004  0.04986067  0.32998144  1.0
  Ni  Ni2158  1  0.74902004  0.38319400  0.32998144  1.0
  Ni  Ni2159  1  0.74902004  0.71652733  0.32998144  1.0
