# generated using pymatgen
data_In3Ni7
_symmetry_space_group_name_H-M   'P 1'
_cell_length_a   33.59501681
_cell_length_b   50.63771576
_cell_length_c   29.20193841
_cell_angle_alpha   93.84219833
_cell_angle_beta   92.82046339
_cell_angle_gamma   97.42005721
_symmetry_Int_Tables_number   1
_chemical_formula_structural   In3Ni7
_chemical_formula_sum   'In432 Ni1008'
_cell_volume   49066.76596893
_cell_formula_units_Z   144
loop_
 _symmetry_equiv_pos_site_id
 _symmetry_equiv_pos_as_xyz
  1  'x, y, z'
loop_
 _atom_site_type_symbol
 _atom_site_label
 _atom_site_symmetry_multiplicity
 _atom_site_fract_x
 _atom_site_fract_y
 _atom_site_fract_z
 _atom_site_occupancy
  In  In0  1  0.29460267  0.11886995  0.07728585  1.0
  In  In1  1  0.29460267  0.45220328  0.07728585  1.0
  In  In2  1  0.29460267  0.78553662  0.07728585  1.0
  In  In3  1  0.62793600  0.11886995  0.07728585  1.0
  In  In4  1  0.62793600  0.45220328  0.07728585  1.0
  In  In5  1  0.62793600  0.78553662  0.07728585  1.0
  In  In6  1  0.96126933  0.11886995  0.07728585  1.0
  In  In7  1  0.96126933  0.45220328  0.07728585  1.0
  In  In8  1  0.96126933  0.78553662  0.07728585  1.0
  In  In9  1  0.12793600  0.31886995  0.17728585  1.0
  In  In10  1  0.12793600  0.65220328  0.17728585  1.0
  In  In11  1  0.12793600  0.98553662  0.17728585  1.0
  In  In12  1  0.46126933  0.31886995  0.17728585  1.0
  In  In13  1  0.46126933  0.65220328  0.17728585  1.0
  In  In14  1  0.46126933  0.98553662  0.17728585  1.0
  In  In15  1  0.79460267  0.31886995  0.17728585  1.0
  In  In16  1  0.79460267  0.65220328  0.17728585  1.0
  In  In17  1  0.79460267  0.98553662  0.17728585  1.0
  In  In18  1  0.03873067  0.27980542  0.11874025  1.0
  In  In19  1  0.03873067  0.61313875  0.11874025  1.0
  In  In20  1  0.03873067  0.94647208  0.11874025  1.0
  In  In21  1  0.37206400  0.27980542  0.11874025  1.0
  In  In22  1  0.37206400  0.61313875  0.11874025  1.0
  In  In23  1  0.37206400  0.94647208  0.11874025  1.0
  In  In24  1  0.70539733  0.27980542  0.11874025  1.0
  In  In25  1  0.70539733  0.61313875  0.11874025  1.0
  In  In26  1  0.70539733  0.94647208  0.11874025  1.0
  In  In27  1  0.20539733  0.07980542  0.01874025  1.0
  In  In28  1  0.20539733  0.41313875  0.01874025  1.0
  In  In29  1  0.20539733  0.74647208  0.01874025  1.0
  In  In30  1  0.53873067  0.07980542  0.01874025  1.0
  In  In31  1  0.53873067  0.41313875  0.01874025  1.0
  In  In32  1  0.53873067  0.74647208  0.01874025  1.0
  In  In33  1  0.87206400  0.07980542  0.01874025  1.0
  In  In34  1  0.87206400  0.41313875  0.01874025  1.0
  In  In35  1  0.87206400  0.74647208  0.01874025  1.0
  In  In36  1  0.04548917  0.10204962  0.15484335  1.0
  In  In37  1  0.04548917  0.43538295  0.15484335  1.0
  In  In38  1  0.04548917  0.76871628  0.15484335  1.0
  In  In39  1  0.37882250  0.10204962  0.15484335  1.0
  In  In40  1  0.37882250  0.43538295  0.15484335  1.0
  In  In41  1  0.37882250  0.76871628  0.15484335  1.0
  In  In42  1  0.71215583  0.10204962  0.15484335  1.0
  In  In43  1  0.71215583  0.43538295  0.15484335  1.0
  In  In44  1  0.71215583  0.76871628  0.15484335  1.0
  In  In45  1  0.21215583  0.23538295  0.05484335  1.0
  In  In46  1  0.21215583  0.56871628  0.05484335  1.0
  In  In47  1  0.21215583  0.90204962  0.05484335  1.0
  In  In48  1  0.54548917  0.23538295  0.05484335  1.0
  In  In49  1  0.54548917  0.56871628  0.05484335  1.0
  In  In50  1  0.54548917  0.90204962  0.05484335  1.0
  In  In51  1  0.87882250  0.23538295  0.05484335  1.0
  In  In52  1  0.87882250  0.56871628  0.05484335  1.0
  In  In53  1  0.87882250  0.90204962  0.05484335  1.0
  In  In54  1  0.28784417  0.29662575  0.04118275  1.0
  In  In55  1  0.28784417  0.62995908  0.04118275  1.0
  In  In56  1  0.28784417  0.96329242  0.04118275  1.0
  In  In57  1  0.62117750  0.29662575  0.04118275  1.0
  In  In58  1  0.62117750  0.62995908  0.04118275  1.0
  In  In59  1  0.62117750  0.96329242  0.04118275  1.0
  In  In60  1  0.95451083  0.29662575  0.04118275  1.0
  In  In61  1  0.95451083  0.62995908  0.04118275  1.0
  In  In62  1  0.95451083  0.96329242  0.04118275  1.0
  In  In63  1  0.12117750  0.16329242  0.14118275  1.0
  In  In64  1  0.12117750  0.49662575  0.14118275  1.0
  In  In65  1  0.12117750  0.82995908  0.14118275  1.0
  In  In66  1  0.45451083  0.16329242  0.14118275  1.0
  In  In67  1  0.45451083  0.49662575  0.14118275  1.0
  In  In68  1  0.45451083  0.82995908  0.14118275  1.0
  In  In69  1  0.78784417  0.16329242  0.14118275  1.0
  In  In70  1  0.78784417  0.49662575  0.14118275  1.0
  In  In71  1  0.78784417  0.82995908  0.14118275  1.0
  In  In72  1  0.31949917  0.21681862  0.13749935  1.0
  In  In73  1  0.31949917  0.55015195  0.13749935  1.0
  In  In74  1  0.31949917  0.88348528  0.13749935  1.0
  In  In75  1  0.65283250  0.21681862  0.13749935  1.0
  In  In76  1  0.65283250  0.55015195  0.13749935  1.0
  In  In77  1  0.65283250  0.88348528  0.13749935  1.0
  In  In78  1  0.98616583  0.21681862  0.13749935  1.0
  In  In79  1  0.98616583  0.55015195  0.13749935  1.0
  In  In80  1  0.98616583  0.88348528  0.13749935  1.0
  In  In81  1  0.15283250  0.01681862  0.03749935  1.0
  In  In82  1  0.15283250  0.35015195  0.03749935  1.0
  In  In83  1  0.15283250  0.68348528  0.03749935  1.0
  In  In84  1  0.48616583  0.01681862  0.03749935  1.0
  In  In85  1  0.48616583  0.35015195  0.03749935  1.0
  In  In86  1  0.48616583  0.68348528  0.03749935  1.0
  In  In87  1  0.81949917  0.01681862  0.03749935  1.0
  In  In88  1  0.81949917  0.35015195  0.03749935  1.0
  In  In89  1  0.81949917  0.68348528  0.03749935  1.0
  In  In90  1  0.01383417  0.18185675  0.05852675  1.0
  In  In91  1  0.01383417  0.51519008  0.05852675  1.0
  In  In92  1  0.01383417  0.84852342  0.05852675  1.0
  In  In93  1  0.34716750  0.18185675  0.05852675  1.0
  In  In94  1  0.34716750  0.51519008  0.05852675  1.0
  In  In95  1  0.34716750  0.84852342  0.05852675  1.0
  In  In96  1  0.68050083  0.18185675  0.05852675  1.0
  In  In97  1  0.68050083  0.51519008  0.05852675  1.0
  In  In98  1  0.68050083  0.84852342  0.05852675  1.0
  In  In99  1  0.18050083  0.04852342  0.15852675  1.0
  In  In100  1  0.18050083  0.38185675  0.15852675  1.0
  In  In101  1  0.18050083  0.71519008  0.15852675  1.0
  In  In102  1  0.51383417  0.04852342  0.15852675  1.0
  In  In103  1  0.51383417  0.38185675  0.15852675  1.0
  In  In104  1  0.51383417  0.71519008  0.15852675  1.0
  In  In105  1  0.84716750  0.04852342  0.15852675  1.0
  In  In106  1  0.84716750  0.38185675  0.15852675  1.0
  In  In107  1  0.84716750  0.71519008  0.15852675  1.0
  In  In108  1  0.08510883  0.13573682  0.02747295  1.0
  In  In109  1  0.08510883  0.46907015  0.02747295  1.0
  In  In110  1  0.08510883  0.80240348  0.02747295  1.0
  In  In111  1  0.41844217  0.13573682  0.02747295  1.0
  In  In112  1  0.41844217  0.46907015  0.02747295  1.0
  In  In113  1  0.41844217  0.80240348  0.02747295  1.0
  In  In114  1  0.75177550  0.13573682  0.02747295  1.0
  In  In115  1  0.75177550  0.46907015  0.02747295  1.0
  In  In116  1  0.75177550  0.80240348  0.02747295  1.0
  In  In117  1  0.25177550  0.00240348  0.12747295  1.0
  In  In118  1  0.25177550  0.33573682  0.12747295  1.0
  In  In119  1  0.25177550  0.66907015  0.12747295  1.0
  In  In120  1  0.58510883  0.00240348  0.12747295  1.0
  In  In121  1  0.58510883  0.33573682  0.12747295  1.0
  In  In122  1  0.58510883  0.66907015  0.12747295  1.0
  In  In123  1  0.91844217  0.00240348  0.12747295  1.0
  In  In124  1  0.91844217  0.33573682  0.12747295  1.0
  In  In125  1  0.91844217  0.66907015  0.12747295  1.0
  In  In126  1  0.24822450  0.26293855  0.16855315  1.0
  In  In127  1  0.24822450  0.59627188  0.16855315  1.0
  In  In128  1  0.24822450  0.92960522  0.16855315  1.0
  In  In129  1  0.58155783  0.26293855  0.16855315  1.0
  In  In130  1  0.58155783  0.59627188  0.16855315  1.0
  In  In131  1  0.58155783  0.92960522  0.16855315  1.0
  In  In132  1  0.91489117  0.26293855  0.16855315  1.0
  In  In133  1  0.91489117  0.59627188  0.16855315  1.0
  In  In134  1  0.91489117  0.92960522  0.16855315  1.0
  In  In135  1  0.08155783  0.06293855  0.06855315  1.0
  In  In136  1  0.08155783  0.39627188  0.06855315  1.0
  In  In137  1  0.08155783  0.72960522  0.06855315  1.0
  In  In138  1  0.41489117  0.06293855  0.06855315  1.0
  In  In139  1  0.41489117  0.39627188  0.06855315  1.0
  In  In140  1  0.41489117  0.72960522  0.06855315  1.0
  In  In141  1  0.74822450  0.06293855  0.06855315  1.0
  In  In142  1  0.74822450  0.39627188  0.06855315  1.0
  In  In143  1  0.74822450  0.72960522  0.06855315  1.0
  In  In144  1  0.18956100  0.20720888  0.18708365  1.0
  In  In145  1  0.18956100  0.54054222  0.18708365  1.0
  In  In146  1  0.18956100  0.87387555  0.18708365  1.0
  In  In147  1  0.52289433  0.20720888  0.18708365  1.0
  In  In148  1  0.52289433  0.54054222  0.18708365  1.0
  In  In149  1  0.52289433  0.87387555  0.18708365  1.0
  In  In150  1  0.85622767  0.20720888  0.18708365  1.0
  In  In151  1  0.85622767  0.54054222  0.18708365  1.0
  In  In152  1  0.85622767  0.87387555  0.18708365  1.0
  In  In153  1  0.02289433  0.00720888  0.08708365  1.0
  In  In154  1  0.02289433  0.34054222  0.08708365  1.0
  In  In155  1  0.02289433  0.67387555  0.08708365  1.0
  In  In156  1  0.35622767  0.00720888  0.08708365  1.0
  In  In157  1  0.35622767  0.34054222  0.08708365  1.0
  In  In158  1  0.35622767  0.67387555  0.08708365  1.0
  In  In159  1  0.68956100  0.00720888  0.08708365  1.0
  In  In160  1  0.68956100  0.34054222  0.08708365  1.0
  In  In161  1  0.68956100  0.67387555  0.08708365  1.0
  In  In162  1  0.14377233  0.19146648  0.00894245  1.0
  In  In163  1  0.14377233  0.52479982  0.00894245  1.0
  In  In164  1  0.14377233  0.85813315  0.00894245  1.0
  In  In165  1  0.47710567  0.19146648  0.00894245  1.0
  In  In166  1  0.47710567  0.52479982  0.00894245  1.0
  In  In167  1  0.47710567  0.85813315  0.00894245  1.0
  In  In168  1  0.81043900  0.19146648  0.00894245  1.0
  In  In169  1  0.81043900  0.52479982  0.00894245  1.0
  In  In170  1  0.81043900  0.85813315  0.00894245  1.0
  In  In171  1  0.31043900  0.05813315  0.10894245  1.0
  In  In172  1  0.31043900  0.39146648  0.10894245  1.0
  In  In173  1  0.31043900  0.72479982  0.10894245  1.0
  In  In174  1  0.64377233  0.05813315  0.10894245  1.0
  In  In175  1  0.64377233  0.39146648  0.10894245  1.0
  In  In176  1  0.64377233  0.72479982  0.10894245  1.0
  In  In177  1  0.97710567  0.05813315  0.10894245  1.0
  In  In178  1  0.97710567  0.39146648  0.10894245  1.0
  In  In179  1  0.97710567  0.72479982  0.10894245  1.0
  In  In180  1  0.32561533  0.15361635  0.17044305  1.0
  In  In181  1  0.32561533  0.48694968  0.17044305  1.0
  In  In182  1  0.32561533  0.82028302  0.17044305  1.0
  In  In183  1  0.65894867  0.15361635  0.17044305  1.0
  In  In184  1  0.65894867  0.48694968  0.17044305  1.0
  In  In185  1  0.65894867  0.82028302  0.17044305  1.0
  In  In186  1  0.99228200  0.15361635  0.17044305  1.0
  In  In187  1  0.99228200  0.48694968  0.17044305  1.0
  In  In188  1  0.99228200  0.82028302  0.17044305  1.0
  In  In189  1  0.15894867  0.28694968  0.07044305  1.0
  In  In190  1  0.15894867  0.62028302  0.07044305  1.0
  In  In191  1  0.15894867  0.95361635  0.07044305  1.0
  In  In192  1  0.49228200  0.28694968  0.07044305  1.0
  In  In193  1  0.49228200  0.62028302  0.07044305  1.0
  In  In194  1  0.49228200  0.95361635  0.07044305  1.0
  In  In195  1  0.82561533  0.28694968  0.07044305  1.0
  In  In196  1  0.82561533  0.62028302  0.07044305  1.0
  In  In197  1  0.82561533  0.95361635  0.07044305  1.0
  In  In198  1  0.00771800  0.24505902  0.02558305  1.0
  In  In199  1  0.00771800  0.57839235  0.02558305  1.0
  In  In200  1  0.00771800  0.91172568  0.02558305  1.0
  In  In201  1  0.34105133  0.24505902  0.02558305  1.0
  In  In202  1  0.34105133  0.57839235  0.02558305  1.0
  In  In203  1  0.34105133  0.91172568  0.02558305  1.0
  In  In204  1  0.67438467  0.24505902  0.02558305  1.0
  In  In205  1  0.67438467  0.57839235  0.02558305  1.0
  In  In206  1  0.67438467  0.91172568  0.02558305  1.0
  In  In207  1  0.17438467  0.11172568  0.12558305  1.0
  In  In208  1  0.17438467  0.44505902  0.12558305  1.0
  In  In209  1  0.17438467  0.77839235  0.12558305  1.0
  In  In210  1  0.50771800  0.11172568  0.12558305  1.0
  In  In211  1  0.50771800  0.44505902  0.12558305  1.0
  In  In212  1  0.50771800  0.77839235  0.12558305  1.0
  In  In213  1  0.84105133  0.11172568  0.12558305  1.0
  In  In214  1  0.84105133  0.44505902  0.12558305  1.0
  In  In215  1  0.84105133  0.77839235  0.12558305  1.0
  In  In216  1  0.29460267  0.18553662  0.27728585  1.0
  In  In217  1  0.29460267  0.51886995  0.27728585  1.0
  In  In218  1  0.29460267  0.85220328  0.27728585  1.0
  In  In219  1  0.62793600  0.18553662  0.27728585  1.0
  In  In220  1  0.62793600  0.51886995  0.27728585  1.0
  In  In221  1  0.62793600  0.85220328  0.27728585  1.0
  In  In222  1  0.96126933  0.18553662  0.27728585  1.0
  In  In223  1  0.96126933  0.51886995  0.27728585  1.0
  In  In224  1  0.96126933  0.85220328  0.27728585  1.0
  In  In225  1  0.12793600  0.05220328  0.37728585  1.0
  In  In226  1  0.12793600  0.38553662  0.37728585  1.0
  In  In227  1  0.12793600  0.71886995  0.37728585  1.0
  In  In228  1  0.46126933  0.05220328  0.37728585  1.0
  In  In229  1  0.46126933  0.38553662  0.37728585  1.0
  In  In230  1  0.46126933  0.71886995  0.37728585  1.0
  In  In231  1  0.79460267  0.05220328  0.37728585  1.0
  In  In232  1  0.79460267  0.38553662  0.37728585  1.0
  In  In233  1  0.79460267  0.71886995  0.37728585  1.0
  In  In234  1  0.03873067  0.01313875  0.31874025  1.0
  In  In235  1  0.03873067  0.34647208  0.31874025  1.0
  In  In236  1  0.03873067  0.67980542  0.31874025  1.0
  In  In237  1  0.37206400  0.01313875  0.31874025  1.0
  In  In238  1  0.37206400  0.34647208  0.31874025  1.0
  In  In239  1  0.37206400  0.67980542  0.31874025  1.0
  In  In240  1  0.70539733  0.01313875  0.31874025  1.0
  In  In241  1  0.70539733  0.34647208  0.31874025  1.0
  In  In242  1  0.70539733  0.67980542  0.31874025  1.0
  In  In243  1  0.20539733  0.14647208  0.21874025  1.0
  In  In244  1  0.20539733  0.47980542  0.21874025  1.0
  In  In245  1  0.20539733  0.81313875  0.21874025  1.0
  In  In246  1  0.53873067  0.14647208  0.21874025  1.0
  In  In247  1  0.53873067  0.47980542  0.21874025  1.0
  In  In248  1  0.53873067  0.81313875  0.21874025  1.0
  In  In249  1  0.87206400  0.14647208  0.21874025  1.0
  In  In250  1  0.87206400  0.47980542  0.21874025  1.0
  In  In251  1  0.87206400  0.81313875  0.21874025  1.0
  In  In252  1  0.04548917  0.16871628  0.35484335  1.0
  In  In253  1  0.04548917  0.50204962  0.35484335  1.0
  In  In254  1  0.04548917  0.83538295  0.35484335  1.0
  In  In255  1  0.37882250  0.16871628  0.35484335  1.0
  In  In256  1  0.37882250  0.50204962  0.35484335  1.0
  In  In257  1  0.37882250  0.83538295  0.35484335  1.0
  In  In258  1  0.71215583  0.16871628  0.35484335  1.0
  In  In259  1  0.71215583  0.50204962  0.35484335  1.0
  In  In260  1  0.71215583  0.83538295  0.35484335  1.0
  In  In261  1  0.21215583  0.30204962  0.25484335  1.0
  In  In262  1  0.21215583  0.63538295  0.25484335  1.0
  In  In263  1  0.21215583  0.96871628  0.25484335  1.0
  In  In264  1  0.54548917  0.30204962  0.25484335  1.0
  In  In265  1  0.54548917  0.63538295  0.25484335  1.0
  In  In266  1  0.54548917  0.96871628  0.25484335  1.0
  In  In267  1  0.87882250  0.30204962  0.25484335  1.0
  In  In268  1  0.87882250  0.63538295  0.25484335  1.0
  In  In269  1  0.87882250  0.96871628  0.25484335  1.0
  In  In270  1  0.28784417  0.02995908  0.24118275  1.0
  In  In271  1  0.28784417  0.36329242  0.24118275  1.0
  In  In272  1  0.28784417  0.69662575  0.24118275  1.0
  In  In273  1  0.62117750  0.02995908  0.24118275  1.0
  In  In274  1  0.62117750  0.36329242  0.24118275  1.0
  In  In275  1  0.62117750  0.69662575  0.24118275  1.0
  In  In276  1  0.95451083  0.02995908  0.24118275  1.0
  In  In277  1  0.95451083  0.36329242  0.24118275  1.0
  In  In278  1  0.95451083  0.69662575  0.24118275  1.0
  In  In279  1  0.12117750  0.22995908  0.34118275  1.0
  In  In280  1  0.12117750  0.56329242  0.34118275  1.0
  In  In281  1  0.12117750  0.89662575  0.34118275  1.0
  In  In282  1  0.45451083  0.22995908  0.34118275  1.0
  In  In283  1  0.45451083  0.56329242  0.34118275  1.0
  In  In284  1  0.45451083  0.89662575  0.34118275  1.0
  In  In285  1  0.78784417  0.22995908  0.34118275  1.0
  In  In286  1  0.78784417  0.56329242  0.34118275  1.0
  In  In287  1  0.78784417  0.89662575  0.34118275  1.0
  In  In288  1  0.31949917  0.28348528  0.33749935  1.0
  In  In289  1  0.31949917  0.61681862  0.33749935  1.0
  In  In290  1  0.31949917  0.95015195  0.33749935  1.0
  In  In291  1  0.65283250  0.28348528  0.33749935  1.0
  In  In292  1  0.65283250  0.61681862  0.33749935  1.0
  In  In293  1  0.65283250  0.95015195  0.33749935  1.0
  In  In294  1  0.98616583  0.28348528  0.33749935  1.0
  In  In295  1  0.98616583  0.61681862  0.33749935  1.0
  In  In296  1  0.98616583  0.95015195  0.33749935  1.0
  In  In297  1  0.15283250  0.08348528  0.23749935  1.0
  In  In298  1  0.15283250  0.41681862  0.23749935  1.0
  In  In299  1  0.15283250  0.75015195  0.23749935  1.0
  In  In300  1  0.48616583  0.08348528  0.23749935  1.0
  In  In301  1  0.48616583  0.41681862  0.23749935  1.0
  In  In302  1  0.48616583  0.75015195  0.23749935  1.0
  In  In303  1  0.81949917  0.08348528  0.23749935  1.0
  In  In304  1  0.81949917  0.41681862  0.23749935  1.0
  In  In305  1  0.81949917  0.75015195  0.23749935  1.0
  In  In306  1  0.01383417  0.24852342  0.25852675  1.0
  In  In307  1  0.01383417  0.58185675  0.25852675  1.0
  In  In308  1  0.01383417  0.91519008  0.25852675  1.0
  In  In309  1  0.34716750  0.24852342  0.25852675  1.0
  In  In310  1  0.34716750  0.58185675  0.25852675  1.0
  In  In311  1  0.34716750  0.91519008  0.25852675  1.0
  In  In312  1  0.68050083  0.24852342  0.25852675  1.0
  In  In313  1  0.68050083  0.58185675  0.25852675  1.0
  In  In314  1  0.68050083  0.91519008  0.25852675  1.0
  In  In315  1  0.18050083  0.11519008  0.35852675  1.0
  In  In316  1  0.18050083  0.44852342  0.35852675  1.0
  In  In317  1  0.18050083  0.78185675  0.35852675  1.0
  In  In318  1  0.51383417  0.11519008  0.35852675  1.0
  In  In319  1  0.51383417  0.44852342  0.35852675  1.0
  In  In320  1  0.51383417  0.78185675  0.35852675  1.0
  In  In321  1  0.84716750  0.11519008  0.35852675  1.0
  In  In322  1  0.84716750  0.44852342  0.35852675  1.0
  In  In323  1  0.84716750  0.78185675  0.35852675  1.0
  In  In324  1  0.08510883  0.20240348  0.22747295  1.0
  In  In325  1  0.08510883  0.53573682  0.22747295  1.0
  In  In326  1  0.08510883  0.86907015  0.22747295  1.0
  In  In327  1  0.41844217  0.20240348  0.22747295  1.0
  In  In328  1  0.41844217  0.53573682  0.22747295  1.0
  In  In329  1  0.41844217  0.86907015  0.22747295  1.0
  In  In330  1  0.75177550  0.20240348  0.22747295  1.0
  In  In331  1  0.75177550  0.53573682  0.22747295  1.0
  In  In332  1  0.75177550  0.86907015  0.22747295  1.0
  In  In333  1  0.25177550  0.06907015  0.32747295  1.0
  In  In334  1  0.25177550  0.40240348  0.32747295  1.0
  In  In335  1  0.25177550  0.73573682  0.32747295  1.0
  In  In336  1  0.58510883  0.06907015  0.32747295  1.0
  In  In337  1  0.58510883  0.40240348  0.32747295  1.0
  In  In338  1  0.58510883  0.73573682  0.32747295  1.0
  In  In339  1  0.91844217  0.06907015  0.32747295  1.0
  In  In340  1  0.91844217  0.40240348  0.32747295  1.0
  In  In341  1  0.91844217  0.73573682  0.32747295  1.0
  In  In342  1  0.24822450  0.32960522  0.36855315  1.0
  In  In343  1  0.24822450  0.66293855  0.36855315  1.0
  In  In344  1  0.24822450  0.99627188  0.36855315  1.0
  In  In345  1  0.58155783  0.32960522  0.36855315  1.0
  In  In346  1  0.58155783  0.66293855  0.36855315  1.0
  In  In347  1  0.58155783  0.99627188  0.36855315  1.0
  In  In348  1  0.91489117  0.32960522  0.36855315  1.0
  In  In349  1  0.91489117  0.66293855  0.36855315  1.0
  In  In350  1  0.91489117  0.99627188  0.36855315  1.0
  In  In351  1  0.08155783  0.12960522  0.26855315  1.0
  In  In352  1  0.08155783  0.46293855  0.26855315  1.0
  In  In353  1  0.08155783  0.79627188  0.26855315  1.0
  In  In354  1  0.41489117  0.12960522  0.26855315  1.0
  In  In355  1  0.41489117  0.46293855  0.26855315  1.0
  In  In356  1  0.41489117  0.79627188  0.26855315  1.0
  In  In357  1  0.74822450  0.12960522  0.26855315  1.0
  In  In358  1  0.74822450  0.46293855  0.26855315  1.0
  In  In359  1  0.74822450  0.79627188  0.26855315  1.0
  In  In360  1  0.18956100  0.27387555  0.38708365  1.0
  In  In361  1  0.18956100  0.60720888  0.38708365  1.0
  In  In362  1  0.18956100  0.94054222  0.38708365  1.0
  In  In363  1  0.52289433  0.27387555  0.38708365  1.0
  In  In364  1  0.52289433  0.60720888  0.38708365  1.0
  In  In365  1  0.52289433  0.94054222  0.38708365  1.0
  In  In366  1  0.85622767  0.27387555  0.38708365  1.0
  In  In367  1  0.85622767  0.60720888  0.38708365  1.0
  In  In368  1  0.85622767  0.94054222  0.38708365  1.0
  In  In369  1  0.02289433  0.07387555  0.28708365  1.0
  In  In370  1  0.02289433  0.40720888  0.28708365  1.0
  In  In371  1  0.02289433  0.74054222  0.28708365  1.0
  In  In372  1  0.35622767  0.07387555  0.28708365  1.0
  In  In373  1  0.35622767  0.40720888  0.28708365  1.0
  In  In374  1  0.35622767  0.74054222  0.28708365  1.0
  In  In375  1  0.68956100  0.07387555  0.28708365  1.0
  In  In376  1  0.68956100  0.40720888  0.28708365  1.0
  In  In377  1  0.68956100  0.74054222  0.28708365  1.0
  In  In378  1  0.14377233  0.25813315  0.20894245  1.0
  In  In379  1  0.14377233  0.59146648  0.20894245  1.0
  In  In380  1  0.14377233  0.92479982  0.20894245  1.0
  In  In381  1  0.47710567  0.25813315  0.20894245  1.0
  In  In382  1  0.47710567  0.59146648  0.20894245  1.0
  In  In383  1  0.47710567  0.92479982  0.20894245  1.0
  In  In384  1  0.81043900  0.25813315  0.20894245  1.0
  In  In385  1  0.81043900  0.59146648  0.20894245  1.0
  In  In386  1  0.81043900  0.92479982  0.20894245  1.0
  In  In387  1  0.31043900  0.12479982  0.30894245  1.0
  In  In388  1  0.31043900  0.45813315  0.30894245  1.0
  In  In389  1  0.31043900  0.79146648  0.30894245  1.0
  In  In390  1  0.64377233  0.12479982  0.30894245  1.0
  In  In391  1  0.64377233  0.45813315  0.30894245  1.0
  In  In392  1  0.64377233  0.79146648  0.30894245  1.0
  In  In393  1  0.97710567  0.12479982  0.30894245  1.0
  In  In394  1  0.97710567  0.45813315  0.30894245  1.0
  In  In395  1  0.97710567  0.79146648  0.30894245  1.0
  In  In396  1  0.32561533  0.22028302  0.37044305  1.0
  In  In397  1  0.32561533  0.55361635  0.37044305  1.0
  In  In398  1  0.32561533  0.88694968  0.37044305  1.0
  In  In399  1  0.65894867  0.22028302  0.37044305  1.0
  In  In400  1  0.65894867  0.55361635  0.37044305  1.0
  In  In401  1  0.65894867  0.88694968  0.37044305  1.0
  In  In402  1  0.99228200  0.22028302  0.37044305  1.0
  In  In403  1  0.99228200  0.55361635  0.37044305  1.0
  In  In404  1  0.99228200  0.88694968  0.37044305  1.0
  In  In405  1  0.15894867  0.02028302  0.27044305  1.0
  In  In406  1  0.15894867  0.35361635  0.27044305  1.0
  In  In407  1  0.15894867  0.68694968  0.27044305  1.0
  In  In408  1  0.49228200  0.02028302  0.27044305  1.0
  In  In409  1  0.49228200  0.35361635  0.27044305  1.0
  In  In410  1  0.49228200  0.68694968  0.27044305  1.0
  In  In411  1  0.82561533  0.02028302  0.27044305  1.0
  In  In412  1  0.82561533  0.35361635  0.27044305  1.0
  In  In413  1  0.82561533  0.68694968  0.27044305  1.0
  In  In414  1  0.00771800  0.31172568  0.22558305  1.0
  In  In415  1  0.00771800  0.64505902  0.22558305  1.0
  In  In416  1  0.00771800  0.97839235  0.22558305  1.0
  In  In417  1  0.34105133  0.31172568  0.22558305  1.0
  In  In418  1  0.34105133  0.64505902  0.22558305  1.0
  In  In419  1  0.34105133  0.97839235  0.22558305  1.0
  In  In420  1  0.67438467  0.31172568  0.22558305  1.0
  In  In421  1  0.67438467  0.64505902  0.22558305  1.0
  In  In422  1  0.67438467  0.97839235  0.22558305  1.0
  In  In423  1  0.17438467  0.17839235  0.32558305  1.0
  In  In424  1  0.17438467  0.51172568  0.32558305  1.0
  In  In425  1  0.17438467  0.84505902  0.32558305  1.0
  In  In426  1  0.50771800  0.17839235  0.32558305  1.0
  In  In427  1  0.50771800  0.51172568  0.32558305  1.0
  In  In428  1  0.50771800  0.84505902  0.32558305  1.0
  In  In429  1  0.84105133  0.17839235  0.32558305  1.0
  In  In430  1  0.84105133  0.51172568  0.32558305  1.0
  In  In431  1  0.84105133  0.84505902  0.32558305  1.0
  Ni  Ni432  1  0.24199600  0.21135262  0.12407885  1.0
  Ni  Ni433  1  0.24199600  0.54468595  0.12407885  1.0
  Ni  Ni434  1  0.24199600  0.87801928  0.12407885  1.0
  Ni  Ni435  1  0.57532933  0.21135262  0.12407885  1.0
  Ni  Ni436  1  0.57532933  0.54468595  0.12407885  1.0
  Ni  Ni437  1  0.57532933  0.87801928  0.12407885  1.0
  Ni  Ni438  1  0.90866267  0.21135262  0.12407885  1.0
  Ni  Ni439  1  0.90866267  0.54468595  0.12407885  1.0
  Ni  Ni440  1  0.90866267  0.87801928  0.12407885  1.0
  Ni  Ni441  1  0.07532933  0.01135262  0.02407885  1.0
  Ni  Ni442  1  0.07532933  0.34468595  0.02407885  1.0
  Ni  Ni443  1  0.07532933  0.67801928  0.02407885  1.0
  Ni  Ni444  1  0.40866267  0.01135262  0.02407885  1.0
  Ni  Ni445  1  0.40866267  0.34468595  0.02407885  1.0
  Ni  Ni446  1  0.40866267  0.67801928  0.02407885  1.0
  Ni  Ni447  1  0.74199600  0.01135262  0.02407885  1.0
  Ni  Ni448  1  0.74199600  0.34468595  0.02407885  1.0
  Ni  Ni449  1  0.74199600  0.67801928  0.02407885  1.0
  Ni  Ni450  1  0.09133733  0.18732275  0.07194725  1.0
  Ni  Ni451  1  0.09133733  0.52065608  0.07194725  1.0
  Ni  Ni452  1  0.09133733  0.85398942  0.07194725  1.0
  Ni  Ni453  1  0.42467067  0.18732275  0.07194725  1.0
  Ni  Ni454  1  0.42467067  0.52065608  0.07194725  1.0
  Ni  Ni455  1  0.42467067  0.85398942  0.07194725  1.0
  Ni  Ni456  1  0.75800400  0.18732275  0.07194725  1.0
  Ni  Ni457  1  0.75800400  0.52065608  0.07194725  1.0
  Ni  Ni458  1  0.75800400  0.85398942  0.07194725  1.0
  Ni  Ni459  1  0.25800400  0.05398942  0.17194725  1.0
  Ni  Ni460  1  0.25800400  0.38732275  0.17194725  1.0
  Ni  Ni461  1  0.25800400  0.72065608  0.17194725  1.0
  Ni  Ni462  1  0.59133733  0.05398942  0.17194725  1.0
  Ni  Ni463  1  0.59133733  0.38732275  0.17194725  1.0
  Ni  Ni464  1  0.59133733  0.72065608  0.17194725  1.0
  Ni  Ni465  1  0.92467067  0.05398942  0.17194725  1.0
  Ni  Ni466  1  0.92467067  0.38732275  0.17194725  1.0
  Ni  Ni467  1  0.92467067  0.72065608  0.17194725  1.0
  Ni  Ni468  1  0.29437033  0.09973175  0.16575325  1.0
  Ni  Ni469  1  0.29437033  0.43306508  0.16575325  1.0
  Ni  Ni470  1  0.29437033  0.76639842  0.16575325  1.0
  Ni  Ni471  1  0.62770367  0.09973175  0.16575325  1.0
  Ni  Ni472  1  0.62770367  0.43306508  0.16575325  1.0
  Ni  Ni473  1  0.62770367  0.76639842  0.16575325  1.0
  Ni  Ni474  1  0.96103700  0.09973175  0.16575325  1.0
  Ni  Ni475  1  0.96103700  0.43306508  0.16575325  1.0
  Ni  Ni476  1  0.96103700  0.76639842  0.16575325  1.0
  Ni  Ni477  1  0.12770367  0.23306508  0.06575325  1.0
  Ni  Ni478  1  0.12770367  0.56639842  0.06575325  1.0
  Ni  Ni479  1  0.12770367  0.89973175  0.06575325  1.0
  Ni  Ni480  1  0.46103700  0.23306508  0.06575325  1.0
  Ni  Ni481  1  0.46103700  0.56639842  0.06575325  1.0
  Ni  Ni482  1  0.46103700  0.89973175  0.06575325  1.0
  Ni  Ni483  1  0.79437033  0.23306508  0.06575325  1.0
  Ni  Ni484  1  0.79437033  0.56639842  0.06575325  1.0
  Ni  Ni485  1  0.79437033  0.89973175  0.06575325  1.0
  Ni  Ni486  1  0.03896300  0.29894362  0.03027285  1.0
  Ni  Ni487  1  0.03896300  0.63227695  0.03027285  1.0
  Ni  Ni488  1  0.03896300  0.96561028  0.03027285  1.0
  Ni  Ni489  1  0.37229633  0.29894362  0.03027285  1.0
  Ni  Ni490  1  0.37229633  0.63227695  0.03027285  1.0
  Ni  Ni491  1  0.37229633  0.96561028  0.03027285  1.0
  Ni  Ni492  1  0.70562967  0.29894362  0.03027285  1.0
  Ni  Ni493  1  0.70562967  0.63227695  0.03027285  1.0
  Ni  Ni494  1  0.70562967  0.96561028  0.03027285  1.0
  Ni  Ni495  1  0.20562967  0.16561028  0.13027285  1.0
  Ni  Ni496  1  0.20562967  0.49894362  0.13027285  1.0
  Ni  Ni497  1  0.20562967  0.83227695  0.13027285  1.0
  Ni  Ni498  1  0.53896300  0.16561028  0.13027285  1.0
  Ni  Ni499  1  0.53896300  0.49894362  0.13027285  1.0
  Ni  Ni500  1  0.53896300  0.83227695  0.13027285  1.0
  Ni  Ni501  1  0.87229633  0.16561028  0.13027285  1.0
  Ni  Ni502  1  0.87229633  0.49894362  0.13027285  1.0
  Ni  Ni503  1  0.87229633  0.83227695  0.13027285  1.0
  Ni  Ni504  1  0.06591133  0.15154528  0.19445885  1.0
  Ni  Ni505  1  0.06591133  0.48487862  0.19445885  1.0
  Ni  Ni506  1  0.06591133  0.81821195  0.19445885  1.0
  Ni  Ni507  1  0.39924467  0.15154528  0.19445885  1.0
  Ni  Ni508  1  0.39924467  0.48487862  0.19445885  1.0
  Ni  Ni509  1  0.39924467  0.81821195  0.19445885  1.0
  Ni  Ni510  1  0.73257800  0.15154528  0.19445885  1.0
  Ni  Ni511  1  0.73257800  0.48487862  0.19445885  1.0
  Ni  Ni512  1  0.73257800  0.81821195  0.19445885  1.0
  Ni  Ni513  1  0.23257800  0.28487862  0.09445885  1.0
  Ni  Ni514  1  0.23257800  0.61821195  0.09445885  1.0
  Ni  Ni515  1  0.23257800  0.95154528  0.09445885  1.0
  Ni  Ni516  1  0.56591133  0.28487862  0.09445885  1.0
  Ni  Ni517  1  0.56591133  0.61821195  0.09445885  1.0
  Ni  Ni518  1  0.56591133  0.95154528  0.09445885  1.0
  Ni  Ni519  1  0.89924467  0.28487862  0.09445885  1.0
  Ni  Ni520  1  0.89924467  0.61821195  0.09445885  1.0
  Ni  Ni521  1  0.89924467  0.95154528  0.09445885  1.0
  Ni  Ni522  1  0.26742200  0.24713008  0.00156725  1.0
  Ni  Ni523  1  0.26742200  0.58046342  0.00156725  1.0
  Ni  Ni524  1  0.26742200  0.91379675  0.00156725  1.0
  Ni  Ni525  1  0.60075533  0.24713008  0.00156725  1.0
  Ni  Ni526  1  0.60075533  0.58046342  0.00156725  1.0
  Ni  Ni527  1  0.60075533  0.91379675  0.00156725  1.0
  Ni  Ni528  1  0.93408867  0.24713008  0.00156725  1.0
  Ni  Ni529  1  0.93408867  0.58046342  0.00156725  1.0
  Ni  Ni530  1  0.93408867  0.91379675  0.00156725  1.0
  Ni  Ni531  1  0.10075533  0.11379675  0.10156725  1.0
  Ni  Ni532  1  0.10075533  0.44713008  0.10156725  1.0
  Ni  Ni533  1  0.10075533  0.78046342  0.10156725  1.0
  Ni  Ni534  1  0.43408867  0.11379675  0.10156725  1.0
  Ni  Ni535  1  0.43408867  0.44713008  0.10156725  1.0
  Ni  Ni536  1  0.43408867  0.78046342  0.10156725  1.0
  Ni  Ni537  1  0.76742200  0.11379675  0.10156725  1.0
  Ni  Ni538  1  0.76742200  0.44713008  0.10156725  1.0
  Ni  Ni539  1  0.76742200  0.78046342  0.10156725  1.0
  Ni  Ni540  1  0.00845500  0.13480195  0.01537885  1.0
  Ni  Ni541  1  0.00845500  0.46813528  0.01537885  1.0
  Ni  Ni542  1  0.00845500  0.80146862  0.01537885  1.0
  Ni  Ni543  1  0.34178833  0.13480195  0.01537885  1.0
  Ni  Ni544  1  0.34178833  0.46813528  0.01537885  1.0
  Ni  Ni545  1  0.34178833  0.80146862  0.01537885  1.0
  Ni  Ni546  1  0.67512167  0.13480195  0.01537885  1.0
  Ni  Ni547  1  0.67512167  0.46813528  0.01537885  1.0
  Ni  Ni548  1  0.67512167  0.80146862  0.01537885  1.0
  Ni  Ni549  1  0.17512167  0.00146862  0.11537885  1.0
  Ni  Ni550  1  0.17512167  0.33480195  0.11537885  1.0
  Ni  Ni551  1  0.17512167  0.66813528  0.11537885  1.0
  Ni  Ni552  1  0.50845500  0.00146862  0.11537885  1.0
  Ni  Ni553  1  0.50845500  0.33480195  0.11537885  1.0
  Ni  Ni554  1  0.50845500  0.66813528  0.11537885  1.0
  Ni  Ni555  1  0.84178833  0.00146862  0.11537885  1.0
  Ni  Ni556  1  0.84178833  0.33480195  0.11537885  1.0
  Ni  Ni557  1  0.84178833  0.66813528  0.11537885  1.0
  Ni  Ni558  1  0.32487833  0.26387342  0.18064725  1.0
  Ni  Ni559  1  0.32487833  0.59720675  0.18064725  1.0
  Ni  Ni560  1  0.32487833  0.93054008  0.18064725  1.0
  Ni  Ni561  1  0.65821167  0.26387342  0.18064725  1.0
  Ni  Ni562  1  0.65821167  0.59720675  0.18064725  1.0
  Ni  Ni563  1  0.65821167  0.93054008  0.18064725  1.0
  Ni  Ni564  1  0.99154500  0.26387342  0.18064725  1.0
  Ni  Ni565  1  0.99154500  0.59720675  0.18064725  1.0
  Ni  Ni566  1  0.99154500  0.93054008  0.18064725  1.0
  Ni  Ni567  1  0.15821167  0.06387342  0.08064725  1.0
  Ni  Ni568  1  0.15821167  0.39720675  0.08064725  1.0
  Ni  Ni569  1  0.15821167  0.73054008  0.08064725  1.0
  Ni  Ni570  1  0.49154500  0.06387342  0.08064725  1.0
  Ni  Ni571  1  0.49154500  0.39720675  0.08064725  1.0
  Ni  Ni572  1  0.49154500  0.73054008  0.08064725  1.0
  Ni  Ni573  1  0.82487833  0.06387342  0.08064725  1.0
  Ni  Ni574  1  0.82487833  0.39720675  0.08064725  1.0
  Ni  Ni575  1  0.82487833  0.73054008  0.08064725  1.0
  Ni  Ni576  1  0.27547517  0.15976622  0.01672015  1.0
  Ni  Ni577  1  0.27547517  0.49309955  0.01672015  1.0
  Ni  Ni578  1  0.27547517  0.82643288  0.01672015  1.0
  Ni  Ni579  1  0.60880850  0.15976622  0.01672015  1.0
  Ni  Ni580  1  0.60880850  0.49309955  0.01672015  1.0
  Ni  Ni581  1  0.60880850  0.82643288  0.01672015  1.0
  Ni  Ni582  1  0.94214183  0.15976622  0.01672015  1.0
  Ni  Ni583  1  0.94214183  0.49309955  0.01672015  1.0
  Ni  Ni584  1  0.94214183  0.82643288  0.01672015  1.0
  Ni  Ni585  1  0.10880850  0.02643288  0.11672015  1.0
  Ni  Ni586  1  0.10880850  0.35976622  0.11672015  1.0
  Ni  Ni587  1  0.10880850  0.69309955  0.11672015  1.0
  Ni  Ni588  1  0.44214183  0.02643288  0.11672015  1.0
  Ni  Ni589  1  0.44214183  0.35976622  0.11672015  1.0
  Ni  Ni590  1  0.44214183  0.69309955  0.11672015  1.0
  Ni  Ni591  1  0.77547517  0.02643288  0.11672015  1.0
  Ni  Ni592  1  0.77547517  0.35976622  0.11672015  1.0
  Ni  Ni593  1  0.77547517  0.69309955  0.11672015  1.0
  Ni  Ni594  1  0.05785817  0.23890915  0.17930595  1.0
  Ni  Ni595  1  0.05785817  0.57224248  0.17930595  1.0
  Ni  Ni596  1  0.05785817  0.90557582  0.17930595  1.0
  Ni  Ni597  1  0.39119150  0.23890915  0.17930595  1.0
  Ni  Ni598  1  0.39119150  0.57224248  0.17930595  1.0
  Ni  Ni599  1  0.39119150  0.90557582  0.17930595  1.0
  Ni  Ni600  1  0.72452483  0.23890915  0.17930595  1.0
  Ni  Ni601  1  0.72452483  0.57224248  0.17930595  1.0
  Ni  Ni602  1  0.72452483  0.90557582  0.17930595  1.0
  Ni  Ni603  1  0.22452483  0.03890915  0.07930595  1.0
  Ni  Ni604  1  0.22452483  0.37224248  0.07930595  1.0
  Ni  Ni605  1  0.22452483  0.70557582  0.07930595  1.0
  Ni  Ni606  1  0.55785817  0.03890915  0.07930595  1.0
  Ni  Ni607  1  0.55785817  0.37224248  0.07930595  1.0
  Ni  Ni608  1  0.55785817  0.70557582  0.07930595  1.0
  Ni  Ni609  1  0.89119150  0.03890915  0.07930595  1.0
  Ni  Ni610  1  0.89119150  0.37224248  0.07930595  1.0
  Ni  Ni611  1  0.89119150  0.70557582  0.07930595  1.0
  Ni  Ni612  1  0.05054200  0.18969335  0.14383705  1.0
  Ni  Ni613  1  0.05054200  0.52302668  0.14383705  1.0
  Ni  Ni614  1  0.05054200  0.85636002  0.14383705  1.0
  Ni  Ni615  1  0.38387533  0.18969335  0.14383705  1.0
  Ni  Ni616  1  0.38387533  0.52302668  0.14383705  1.0
  Ni  Ni617  1  0.38387533  0.85636002  0.14383705  1.0
  Ni  Ni618  1  0.71720867  0.18969335  0.14383705  1.0
  Ni  Ni619  1  0.71720867  0.52302668  0.14383705  1.0
  Ni  Ni620  1  0.71720867  0.85636002  0.14383705  1.0
  Ni  Ni621  1  0.21720867  0.32302668  0.04383705  1.0
  Ni  Ni622  1  0.21720867  0.65636002  0.04383705  1.0
  Ni  Ni623  1  0.21720867  0.98969335  0.04383705  1.0
  Ni  Ni624  1  0.55054200  0.32302668  0.04383705  1.0
  Ni  Ni625  1  0.55054200  0.65636002  0.04383705  1.0
  Ni  Ni626  1  0.55054200  0.98969335  0.04383705  1.0
  Ni  Ni627  1  0.88387533  0.32302668  0.04383705  1.0
  Ni  Ni628  1  0.88387533  0.65636002  0.04383705  1.0
  Ni  Ni629  1  0.88387533  0.98969335  0.04383705  1.0
  Ni  Ni630  1  0.28279133  0.20898202  0.05218905  1.0
  Ni  Ni631  1  0.28279133  0.54231535  0.05218905  1.0
  Ni  Ni632  1  0.28279133  0.87564868  0.05218905  1.0
  Ni  Ni633  1  0.61612467  0.20898202  0.05218905  1.0
  Ni  Ni634  1  0.61612467  0.54231535  0.05218905  1.0
  Ni  Ni635  1  0.61612467  0.87564868  0.05218905  1.0
  Ni  Ni636  1  0.94945800  0.20898202  0.05218905  1.0
  Ni  Ni637  1  0.94945800  0.54231535  0.05218905  1.0
  Ni  Ni638  1  0.94945800  0.87564868  0.05218905  1.0
  Ni  Ni639  1  0.11612467  0.07564868  0.15218905  1.0
  Ni  Ni640  1  0.11612467  0.40898202  0.15218905  1.0
  Ni  Ni641  1  0.11612467  0.74231535  0.15218905  1.0
  Ni  Ni642  1  0.44945800  0.07564868  0.15218905  1.0
  Ni  Ni643  1  0.44945800  0.40898202  0.15218905  1.0
  Ni  Ni644  1  0.44945800  0.74231535  0.15218905  1.0
  Ni  Ni645  1  0.78279133  0.07564868  0.15218905  1.0
  Ni  Ni646  1  0.78279133  0.40898202  0.15218905  1.0
  Ni  Ni647  1  0.78279133  0.74231535  0.15218905  1.0
  Ni  Ni648  1  0.11015283  0.26616215  0.13065995  1.0
  Ni  Ni649  1  0.11015283  0.59949548  0.13065995  1.0
  Ni  Ni650  1  0.11015283  0.93282882  0.13065995  1.0
  Ni  Ni651  1  0.44348617  0.26616215  0.13065995  1.0
  Ni  Ni652  1  0.44348617  0.59949548  0.13065995  1.0
  Ni  Ni653  1  0.44348617  0.93282882  0.13065995  1.0
  Ni  Ni654  1  0.77681950  0.26616215  0.13065995  1.0
  Ni  Ni655  1  0.77681950  0.59949548  0.13065995  1.0
  Ni  Ni656  1  0.77681950  0.93282882  0.13065995  1.0
  Ni  Ni657  1  0.27681950  0.06616215  0.03065995  1.0
  Ni  Ni658  1  0.27681950  0.39949548  0.03065995  1.0
  Ni  Ni659  1  0.27681950  0.73282882  0.03065995  1.0
  Ni  Ni660  1  0.61015283  0.06616215  0.03065995  1.0
  Ni  Ni661  1  0.61015283  0.39949548  0.03065995  1.0
  Ni  Ni662  1  0.61015283  0.73282882  0.03065995  1.0
  Ni  Ni663  1  0.94348617  0.06616215  0.03065995  1.0
  Ni  Ni664  1  0.94348617  0.39949548  0.03065995  1.0
  Ni  Ni665  1  0.94348617  0.73282882  0.03065995  1.0
  Ni  Ni666  1  0.22318050  0.13251322  0.06536615  1.0
  Ni  Ni667  1  0.22318050  0.46584655  0.06536615  1.0
  Ni  Ni668  1  0.22318050  0.79917988  0.06536615  1.0
  Ni  Ni669  1  0.55651383  0.13251322  0.06536615  1.0
  Ni  Ni670  1  0.55651383  0.46584655  0.06536615  1.0
  Ni  Ni671  1  0.55651383  0.79917988  0.06536615  1.0
  Ni  Ni672  1  0.88984717  0.13251322  0.06536615  1.0
  Ni  Ni673  1  0.88984717  0.46584655  0.06536615  1.0
  Ni  Ni674  1  0.88984717  0.79917988  0.06536615  1.0
  Ni  Ni675  1  0.05651383  0.33251322  0.16536615  1.0
  Ni  Ni676  1  0.05651383  0.66584655  0.16536615  1.0
  Ni  Ni677  1  0.05651383  0.99917988  0.16536615  1.0
  Ni  Ni678  1  0.38984717  0.33251322  0.16536615  1.0
  Ni  Ni679  1  0.38984717  0.66584655  0.16536615  1.0
  Ni  Ni680  1  0.38984717  0.99917988  0.16536615  1.0
  Ni  Ni681  1  0.72318050  0.33251322  0.16536615  1.0
  Ni  Ni682  1  0.72318050  0.66584655  0.16536615  1.0
  Ni  Ni683  1  0.72318050  0.99917988  0.16536615  1.0
  Ni  Ni684  1  0.01073250  0.04790128  0.03008235  1.0
  Ni  Ni685  1  0.01073250  0.38123462  0.03008235  1.0
  Ni  Ni686  1  0.01073250  0.71456795  0.03008235  1.0
  Ni  Ni687  1  0.34406583  0.04790128  0.03008235  1.0
  Ni  Ni688  1  0.34406583  0.38123462  0.03008235  1.0
  Ni  Ni689  1  0.34406583  0.71456795  0.03008235  1.0
  Ni  Ni690  1  0.67739917  0.04790128  0.03008235  1.0
  Ni  Ni691  1  0.67739917  0.38123462  0.03008235  1.0
  Ni  Ni692  1  0.67739917  0.71456795  0.03008235  1.0
  Ni  Ni693  1  0.17739917  0.24790128  0.13008235  1.0
  Ni  Ni694  1  0.17739917  0.58123462  0.13008235  1.0
  Ni  Ni695  1  0.17739917  0.91456795  0.13008235  1.0
  Ni  Ni696  1  0.51073250  0.24790128  0.13008235  1.0
  Ni  Ni697  1  0.51073250  0.58123462  0.13008235  1.0
  Ni  Ni698  1  0.51073250  0.91456795  0.13008235  1.0
  Ni  Ni699  1  0.84406583  0.24790128  0.13008235  1.0
  Ni  Ni700  1  0.84406583  0.58123462  0.13008235  1.0
  Ni  Ni701  1  0.84406583  0.91456795  0.13008235  1.0
  Ni  Ni702  1  0.32260083  0.01744075  0.16594375  1.0
  Ni  Ni703  1  0.32260083  0.35077408  0.16594375  1.0
  Ni  Ni704  1  0.32260083  0.68410742  0.16594375  1.0
  Ni  Ni705  1  0.65593417  0.01744075  0.16594375  1.0
  Ni  Ni706  1  0.65593417  0.35077408  0.16594375  1.0
  Ni  Ni707  1  0.65593417  0.68410742  0.16594375  1.0
  Ni  Ni708  1  0.98926750  0.01744075  0.16594375  1.0
  Ni  Ni709  1  0.98926750  0.35077408  0.16594375  1.0
  Ni  Ni710  1  0.98926750  0.68410742  0.16594375  1.0
  Ni  Ni711  1  0.15593417  0.15077408  0.06594375  1.0
  Ni  Ni712  1  0.15593417  0.48410742  0.06594375  1.0
  Ni  Ni713  1  0.15593417  0.81744075  0.06594375  1.0
  Ni  Ni714  1  0.48926750  0.15077408  0.06594375  1.0
  Ni  Ni715  1  0.48926750  0.48410742  0.06594375  1.0
  Ni  Ni716  1  0.48926750  0.81744075  0.06594375  1.0
  Ni  Ni717  1  0.82260083  0.15077408  0.06594375  1.0
  Ni  Ni718  1  0.82260083  0.48410742  0.06594375  1.0
  Ni  Ni719  1  0.82260083  0.81744075  0.06594375  1.0
  Ni  Ni720  1  0.08333333  0.26600435  0.04801305  1.0
  Ni  Ni721  1  0.08333333  0.59933768  0.04801305  1.0
  Ni  Ni722  1  0.08333333  0.93267102  0.04801305  1.0
  Ni  Ni723  1  0.41666667  0.26600435  0.04801305  1.0
  Ni  Ni724  1  0.41666667  0.59933768  0.04801305  1.0
  Ni  Ni725  1  0.41666667  0.93267102  0.04801305  1.0
  Ni  Ni726  1  0.75000000  0.26600435  0.04801305  1.0
  Ni  Ni727  1  0.75000000  0.59933768  0.04801305  1.0
  Ni  Ni728  1  0.75000000  0.93267102  0.04801305  1.0
  Ni  Ni729  1  0.25000000  0.13267102  0.14801305  1.0
  Ni  Ni730  1  0.25000000  0.46600435  0.14801305  1.0
  Ni  Ni731  1  0.25000000  0.79933768  0.14801305  1.0
  Ni  Ni732  1  0.58333333  0.13267102  0.14801305  1.0
  Ni  Ni733  1  0.58333333  0.46600435  0.14801305  1.0
  Ni  Ni734  1  0.58333333  0.79933768  0.14801305  1.0
  Ni  Ni735  1  0.91666667  0.13267102  0.14801305  1.0
  Ni  Ni736  1  0.91666667  0.46600435  0.14801305  1.0
  Ni  Ni737  1  0.91666667  0.79933768  0.14801305  1.0
  Ni  Ni738  1  0.04252833  0.14356475  0.10260125  1.0
  Ni  Ni739  1  0.04252833  0.47689808  0.10260125  1.0
  Ni  Ni740  1  0.04252833  0.81023142  0.10260125  1.0
  Ni  Ni741  1  0.37586167  0.14356475  0.10260125  1.0
  Ni  Ni742  1  0.37586167  0.47689808  0.10260125  1.0
  Ni  Ni743  1  0.37586167  0.81023142  0.10260125  1.0
  Ni  Ni744  1  0.70919500  0.14356475  0.10260125  1.0
  Ni  Ni745  1  0.70919500  0.47689808  0.10260125  1.0
  Ni  Ni746  1  0.70919500  0.81023142  0.10260125  1.0
  Ni  Ni747  1  0.20919500  0.27689808  0.00260125  1.0
  Ni  Ni748  1  0.20919500  0.61023142  0.00260125  1.0
  Ni  Ni749  1  0.20919500  0.94356475  0.00260125  1.0
  Ni  Ni750  1  0.54252833  0.27689808  0.00260125  1.0
  Ni  Ni751  1  0.54252833  0.61023142  0.00260125  1.0
  Ni  Ni752  1  0.54252833  0.94356475  0.00260125  1.0
  Ni  Ni753  1  0.87586167  0.27689808  0.00260125  1.0
  Ni  Ni754  1  0.87586167  0.61023142  0.00260125  1.0
  Ni  Ni755  1  0.87586167  0.94356475  0.00260125  1.0
  Ni  Ni756  1  0.29080500  0.25511062  0.09342485  1.0
  Ni  Ni757  1  0.29080500  0.58844395  0.09342485  1.0
  Ni  Ni758  1  0.29080500  0.92177728  0.09342485  1.0
  Ni  Ni759  1  0.62413833  0.25511062  0.09342485  1.0
  Ni  Ni760  1  0.62413833  0.58844395  0.09342485  1.0
  Ni  Ni761  1  0.62413833  0.92177728  0.09342485  1.0
  Ni  Ni762  1  0.95747167  0.25511062  0.09342485  1.0
  Ni  Ni763  1  0.95747167  0.58844395  0.09342485  1.0
  Ni  Ni764  1  0.95747167  0.92177728  0.09342485  1.0
  Ni  Ni765  1  0.12413833  0.12177728  0.19342485  1.0
  Ni  Ni766  1  0.12413833  0.45511062  0.19342485  1.0
  Ni  Ni767  1  0.12413833  0.78844395  0.19342485  1.0
  Ni  Ni768  1  0.45747167  0.12177728  0.19342485  1.0
  Ni  Ni769  1  0.45747167  0.45511062  0.19342485  1.0
  Ni  Ni770  1  0.45747167  0.78844395  0.19342485  1.0
  Ni  Ni771  1  0.79080500  0.12177728  0.19342485  1.0
  Ni  Ni772  1  0.79080500  0.45511062  0.19342485  1.0
  Ni  Ni773  1  0.79080500  0.78844395  0.19342485  1.0
  Ni  Ni774  1  0.05828550  0.22843388  0.09403915  1.0
  Ni  Ni775  1  0.05828550  0.56176722  0.09403915  1.0
  Ni  Ni776  1  0.05828550  0.89510055  0.09403915  1.0
  Ni  Ni777  1  0.39161883  0.22843388  0.09403915  1.0
  Ni  Ni778  1  0.39161883  0.56176722  0.09403915  1.0
  Ni  Ni779  1  0.39161883  0.89510055  0.09403915  1.0
  Ni  Ni780  1  0.72495217  0.22843388  0.09403915  1.0
  Ni  Ni781  1  0.72495217  0.56176722  0.09403915  1.0
  Ni  Ni782  1  0.72495217  0.89510055  0.09403915  1.0
  Ni  Ni783  1  0.22495217  0.09510055  0.19403915  1.0
  Ni  Ni784  1  0.22495217  0.42843388  0.19403915  1.0
  Ni  Ni785  1  0.22495217  0.76176722  0.19403915  1.0
  Ni  Ni786  1  0.55828550  0.09510055  0.19403915  1.0
  Ni  Ni787  1  0.55828550  0.42843388  0.19403915  1.0
  Ni  Ni788  1  0.55828550  0.76176722  0.19403915  1.0
  Ni  Ni789  1  0.89161883  0.09510055  0.19403915  1.0
  Ni  Ni790  1  0.89161883  0.42843388  0.19403915  1.0
  Ni  Ni791  1  0.89161883  0.76176722  0.19403915  1.0
  Ni  Ni792  1  0.27504783  0.17024148  0.10198695  1.0
  Ni  Ni793  1  0.27504783  0.50357482  0.10198695  1.0
  Ni  Ni794  1  0.27504783  0.83690815  0.10198695  1.0
  Ni  Ni795  1  0.60838117  0.17024148  0.10198695  1.0
  Ni  Ni796  1  0.60838117  0.50357482  0.10198695  1.0
  Ni  Ni797  1  0.60838117  0.83690815  0.10198695  1.0
  Ni  Ni798  1  0.94171450  0.17024148  0.10198695  1.0
  Ni  Ni799  1  0.94171450  0.50357482  0.10198695  1.0
  Ni  Ni800  1  0.94171450  0.83690815  0.10198695  1.0
  Ni  Ni801  1  0.10838117  0.30357482  0.00198695  1.0
  Ni  Ni802  1  0.10838117  0.63690815  0.00198695  1.0
  Ni  Ni803  1  0.10838117  0.97024148  0.00198695  1.0
  Ni  Ni804  1  0.44171450  0.30357482  0.00198695  1.0
  Ni  Ni805  1  0.44171450  0.63690815  0.00198695  1.0
  Ni  Ni806  1  0.44171450  0.97024148  0.00198695  1.0
  Ni  Ni807  1  0.77504783  0.30357482  0.00198695  1.0
  Ni  Ni808  1  0.77504783  0.63690815  0.00198695  1.0
  Ni  Ni809  1  0.77504783  0.97024148  0.00198695  1.0
  Ni  Ni810  1  0.02487717  0.09606802  0.06220455  1.0
  Ni  Ni811  1  0.02487717  0.42940135  0.06220455  1.0
  Ni  Ni812  1  0.02487717  0.76273468  0.06220455  1.0
  Ni  Ni813  1  0.35821050  0.09606802  0.06220455  1.0
  Ni  Ni814  1  0.35821050  0.42940135  0.06220455  1.0
  Ni  Ni815  1  0.35821050  0.76273468  0.06220455  1.0
  Ni  Ni816  1  0.69154383  0.09606802  0.06220455  1.0
  Ni  Ni817  1  0.69154383  0.42940135  0.06220455  1.0
  Ni  Ni818  1  0.69154383  0.76273468  0.06220455  1.0
  Ni  Ni819  1  0.19154383  0.29606802  0.16220455  1.0
  Ni  Ni820  1  0.19154383  0.62940135  0.16220455  1.0
  Ni  Ni821  1  0.19154383  0.96273468  0.16220455  1.0
  Ni  Ni822  1  0.52487717  0.29606802  0.16220455  1.0
  Ni  Ni823  1  0.52487717  0.62940135  0.16220455  1.0
  Ni  Ni824  1  0.52487717  0.96273468  0.16220455  1.0
  Ni  Ni825  1  0.85821050  0.29606802  0.16220455  1.0
  Ni  Ni826  1  0.85821050  0.62940135  0.16220455  1.0
  Ni  Ni827  1  0.85821050  0.96273468  0.16220455  1.0
  Ni  Ni828  1  0.30845617  0.30260735  0.13382155  1.0
  Ni  Ni829  1  0.30845617  0.63594068  0.13382155  1.0
  Ni  Ni830  1  0.30845617  0.96927402  0.13382155  1.0
  Ni  Ni831  1  0.64178950  0.30260735  0.13382155  1.0
  Ni  Ni832  1  0.64178950  0.63594068  0.13382155  1.0
  Ni  Ni833  1  0.64178950  0.96927402  0.13382155  1.0
  Ni  Ni834  1  0.97512283  0.30260735  0.13382155  1.0
  Ni  Ni835  1  0.97512283  0.63594068  0.13382155  1.0
  Ni  Ni836  1  0.97512283  0.96927402  0.13382155  1.0
  Ni  Ni837  1  0.14178950  0.10260735  0.03382155  1.0
  Ni  Ni838  1  0.14178950  0.43594068  0.03382155  1.0
  Ni  Ni839  1  0.14178950  0.76927402  0.03382155  1.0
  Ni  Ni840  1  0.47512283  0.10260735  0.03382155  1.0
  Ni  Ni841  1  0.47512283  0.43594068  0.03382155  1.0
  Ni  Ni842  1  0.47512283  0.76927402  0.03382155  1.0
  Ni  Ni843  1  0.80845617  0.10260735  0.03382155  1.0
  Ni  Ni844  1  0.80845617  0.43594068  0.03382155  1.0
  Ni  Ni845  1  0.80845617  0.76927402  0.03382155  1.0
  Ni  Ni846  1  0.11527850  0.21823555  0.14440015  1.0
  Ni  Ni847  1  0.11527850  0.55156888  0.14440015  1.0
  Ni  Ni848  1  0.11527850  0.88490222  0.14440015  1.0
  Ni  Ni849  1  0.44861183  0.21823555  0.14440015  1.0
  Ni  Ni850  1  0.44861183  0.55156888  0.14440015  1.0
  Ni  Ni851  1  0.44861183  0.88490222  0.14440015  1.0
  Ni  Ni852  1  0.78194517  0.21823555  0.14440015  1.0
  Ni  Ni853  1  0.78194517  0.55156888  0.14440015  1.0
  Ni  Ni854  1  0.78194517  0.88490222  0.14440015  1.0
  Ni  Ni855  1  0.28194517  0.01823555  0.04440015  1.0
  Ni  Ni856  1  0.28194517  0.35156888  0.04440015  1.0
  Ni  Ni857  1  0.28194517  0.68490222  0.04440015  1.0
  Ni  Ni858  1  0.61527850  0.01823555  0.04440015  1.0
  Ni  Ni859  1  0.61527850  0.35156888  0.04440015  1.0
  Ni  Ni860  1  0.61527850  0.68490222  0.04440015  1.0
  Ni  Ni861  1  0.94861183  0.01823555  0.04440015  1.0
  Ni  Ni862  1  0.94861183  0.35156888  0.04440015  1.0
  Ni  Ni863  1  0.94861183  0.68490222  0.04440015  1.0
  Ni  Ni864  1  0.21805483  0.18043982  0.05162595  1.0
  Ni  Ni865  1  0.21805483  0.51377315  0.05162595  1.0
  Ni  Ni866  1  0.21805483  0.84710648  0.05162595  1.0
  Ni  Ni867  1  0.55138817  0.18043982  0.05162595  1.0
  Ni  Ni868  1  0.55138817  0.51377315  0.05162595  1.0
  Ni  Ni869  1  0.55138817  0.84710648  0.05162595  1.0
  Ni  Ni870  1  0.88472150  0.18043982  0.05162595  1.0
  Ni  Ni871  1  0.88472150  0.51377315  0.05162595  1.0
  Ni  Ni872  1  0.88472150  0.84710648  0.05162595  1.0
  Ni  Ni873  1  0.05138817  0.04710648  0.15162595  1.0
  Ni  Ni874  1  0.05138817  0.38043982  0.15162595  1.0
  Ni  Ni875  1  0.05138817  0.71377315  0.15162595  1.0
  Ni  Ni876  1  0.38472150  0.04710648  0.15162595  1.0
  Ni  Ni877  1  0.38472150  0.38043982  0.15162595  1.0
  Ni  Ni878  1  0.38472150  0.71377315  0.15162595  1.0
  Ni  Ni879  1  0.71805483  0.04710648  0.15162595  1.0
  Ni  Ni880  1  0.71805483  0.38043982  0.15162595  1.0
  Ni  Ni881  1  0.71805483  0.71377315  0.15162595  1.0
  Ni  Ni882  1  0.16666667  0.19933768  0.09801305  1.0
  Ni  Ni883  1  0.16666667  0.53267102  0.09801305  1.0
  Ni  Ni884  1  0.16666667  0.86600435  0.09801305  1.0
  Ni  Ni885  1  0.50000000  0.19933768  0.09801305  1.0
  Ni  Ni886  1  0.50000000  0.53267102  0.09801305  1.0
  Ni  Ni887  1  0.50000000  0.86600435  0.09801305  1.0
  Ni  Ni888  1  0.83333333  0.19933768  0.09801305  1.0
  Ni  Ni889  1  0.83333333  0.53267102  0.09801305  1.0
  Ni  Ni890  1  0.83333333  0.86600435  0.09801305  1.0
  Ni  Ni891  1  0.00000000  0.06600435  0.19801305  1.0
  Ni  Ni892  1  0.00000000  0.39933768  0.19801305  1.0
  Ni  Ni893  1  0.00000000  0.73267102  0.19801305  1.0
  Ni  Ni894  1  0.33333333  0.06600435  0.19801305  1.0
  Ni  Ni895  1  0.33333333  0.39933768  0.19801305  1.0
  Ni  Ni896  1  0.33333333  0.73267102  0.19801305  1.0
  Ni  Ni897  1  0.66666667  0.06600435  0.19801305  1.0
  Ni  Ni898  1  0.66666667  0.39933768  0.19801305  1.0
  Ni  Ni899  1  0.66666667  0.73267102  0.19801305  1.0
  Ni  Ni900  1  0.26362350  0.18018915  0.18708595  1.0
  Ni  Ni901  1  0.26362350  0.51352248  0.18708595  1.0
  Ni  Ni902  1  0.26362350  0.84685582  0.18708595  1.0
  Ni  Ni903  1  0.59695683  0.18018915  0.18708595  1.0
  Ni  Ni904  1  0.59695683  0.51352248  0.18708595  1.0
  Ni  Ni905  1  0.59695683  0.84685582  0.18708595  1.0
  Ni  Ni906  1  0.93029017  0.18018915  0.18708595  1.0
  Ni  Ni907  1  0.93029017  0.51352248  0.18708595  1.0
  Ni  Ni908  1  0.93029017  0.84685582  0.18708595  1.0
  Ni  Ni909  1  0.09695683  0.31352248  0.08708595  1.0
  Ni  Ni910  1  0.09695683  0.64685582  0.08708595  1.0
  Ni  Ni911  1  0.09695683  0.98018915  0.08708595  1.0
  Ni  Ni912  1  0.43029017  0.31352248  0.08708595  1.0
  Ni  Ni913  1  0.43029017  0.64685582  0.08708595  1.0
  Ni  Ni914  1  0.43029017  0.98018915  0.08708595  1.0
  Ni  Ni915  1  0.76362350  0.31352248  0.08708595  1.0
  Ni  Ni916  1  0.76362350  0.64685582  0.08708595  1.0
  Ni  Ni917  1  0.76362350  0.98018915  0.08708595  1.0
  Ni  Ni918  1  0.06970983  0.21848622  0.00894015  1.0
  Ni  Ni919  1  0.06970983  0.55181955  0.00894015  1.0
  Ni  Ni920  1  0.06970983  0.88515288  0.00894015  1.0
  Ni  Ni921  1  0.40304317  0.21848622  0.00894015  1.0
  Ni  Ni922  1  0.40304317  0.55181955  0.00894015  1.0
  Ni  Ni923  1  0.40304317  0.88515288  0.00894015  1.0
  Ni  Ni924  1  0.73637650  0.21848622  0.00894015  1.0
  Ni  Ni925  1  0.73637650  0.55181955  0.00894015  1.0
  Ni  Ni926  1  0.73637650  0.88515288  0.00894015  1.0
  Ni  Ni927  1  0.23637650  0.08515288  0.10894015  1.0
  Ni  Ni928  1  0.23637650  0.41848622  0.10894015  1.0
  Ni  Ni929  1  0.23637650  0.75181955  0.10894015  1.0
  Ni  Ni930  1  0.56970983  0.08515288  0.10894015  1.0
  Ni  Ni931  1  0.56970983  0.41848622  0.10894015  1.0
  Ni  Ni932  1  0.56970983  0.75181955  0.10894015  1.0
  Ni  Ni933  1  0.90304317  0.08515288  0.10894015  1.0
  Ni  Ni934  1  0.90304317  0.41848622  0.10894015  1.0
  Ni  Ni935  1  0.90304317  0.75181955  0.10894015  1.0
  Ni  Ni936  1  0.24199600  0.27801928  0.32407885  1.0
  Ni  Ni937  1  0.24199600  0.61135262  0.32407885  1.0
  Ni  Ni938  1  0.24199600  0.94468595  0.32407885  1.0
  Ni  Ni939  1  0.57532933  0.27801928  0.32407885  1.0
  Ni  Ni940  1  0.57532933  0.61135262  0.32407885  1.0
  Ni  Ni941  1  0.57532933  0.94468595  0.32407885  1.0
  Ni  Ni942  1  0.90866267  0.27801928  0.32407885  1.0
  Ni  Ni943  1  0.90866267  0.61135262  0.32407885  1.0
  Ni  Ni944  1  0.90866267  0.94468595  0.32407885  1.0
  Ni  Ni945  1  0.07532933  0.07801928  0.22407885  1.0
  Ni  Ni946  1  0.07532933  0.41135262  0.22407885  1.0
  Ni  Ni947  1  0.07532933  0.74468595  0.22407885  1.0
  Ni  Ni948  1  0.40866267  0.07801928  0.22407885  1.0
  Ni  Ni949  1  0.40866267  0.41135262  0.22407885  1.0
  Ni  Ni950  1  0.40866267  0.74468595  0.22407885  1.0
  Ni  Ni951  1  0.74199600  0.07801928  0.22407885  1.0
  Ni  Ni952  1  0.74199600  0.41135262  0.22407885  1.0
  Ni  Ni953  1  0.74199600  0.74468595  0.22407885  1.0
  Ni  Ni954  1  0.09133733  0.25398942  0.27194725  1.0
  Ni  Ni955  1  0.09133733  0.58732275  0.27194725  1.0
  Ni  Ni956  1  0.09133733  0.92065608  0.27194725  1.0
  Ni  Ni957  1  0.42467067  0.25398942  0.27194725  1.0
  Ni  Ni958  1  0.42467067  0.58732275  0.27194725  1.0
  Ni  Ni959  1  0.42467067  0.92065608  0.27194725  1.0
  Ni  Ni960  1  0.75800400  0.25398942  0.27194725  1.0
  Ni  Ni961  1  0.75800400  0.58732275  0.27194725  1.0
  Ni  Ni962  1  0.75800400  0.92065608  0.27194725  1.0
  Ni  Ni963  1  0.25800400  0.12065608  0.37194725  1.0
  Ni  Ni964  1  0.25800400  0.45398942  0.37194725  1.0
  Ni  Ni965  1  0.25800400  0.78732275  0.37194725  1.0
  Ni  Ni966  1  0.59133733  0.12065608  0.37194725  1.0
  Ni  Ni967  1  0.59133733  0.45398942  0.37194725  1.0
  Ni  Ni968  1  0.59133733  0.78732275  0.37194725  1.0
  Ni  Ni969  1  0.92467067  0.12065608  0.37194725  1.0
  Ni  Ni970  1  0.92467067  0.45398942  0.37194725  1.0
  Ni  Ni971  1  0.92467067  0.78732275  0.37194725  1.0
  Ni  Ni972  1  0.29437033  0.16639842  0.36575325  1.0
  Ni  Ni973  1  0.29437033  0.49973175  0.36575325  1.0
  Ni  Ni974  1  0.29437033  0.83306508  0.36575325  1.0
  Ni  Ni975  1  0.62770367  0.16639842  0.36575325  1.0
  Ni  Ni976  1  0.62770367  0.49973175  0.36575325  1.0
  Ni  Ni977  1  0.62770367  0.83306508  0.36575325  1.0
  Ni  Ni978  1  0.96103700  0.16639842  0.36575325  1.0
  Ni  Ni979  1  0.96103700  0.49973175  0.36575325  1.0
  Ni  Ni980  1  0.96103700  0.83306508  0.36575325  1.0
  Ni  Ni981  1  0.12770367  0.29973175  0.26575325  1.0
  Ni  Ni982  1  0.12770367  0.63306508  0.26575325  1.0
  Ni  Ni983  1  0.12770367  0.96639842  0.26575325  1.0
  Ni  Ni984  1  0.46103700  0.29973175  0.26575325  1.0
  Ni  Ni985  1  0.46103700  0.63306508  0.26575325  1.0
  Ni  Ni986  1  0.46103700  0.96639842  0.26575325  1.0
  Ni  Ni987  1  0.79437033  0.29973175  0.26575325  1.0
  Ni  Ni988  1  0.79437033  0.63306508  0.26575325  1.0
  Ni  Ni989  1  0.79437033  0.96639842  0.26575325  1.0
  Ni  Ni990  1  0.03896300  0.03227695  0.23027285  1.0
  Ni  Ni991  1  0.03896300  0.36561028  0.23027285  1.0
  Ni  Ni992  1  0.03896300  0.69894362  0.23027285  1.0
  Ni  Ni993  1  0.37229633  0.03227695  0.23027285  1.0
  Ni  Ni994  1  0.37229633  0.36561028  0.23027285  1.0
  Ni  Ni995  1  0.37229633  0.69894362  0.23027285  1.0
  Ni  Ni996  1  0.70562967  0.03227695  0.23027285  1.0
  Ni  Ni997  1  0.70562967  0.36561028  0.23027285  1.0
  Ni  Ni998  1  0.70562967  0.69894362  0.23027285  1.0
  Ni  Ni999  1  0.20562967  0.23227695  0.33027285  1.0
  Ni  Ni1000  1  0.20562967  0.56561028  0.33027285  1.0
  Ni  Ni1001  1  0.20562967  0.89894362  0.33027285  1.0
  Ni  Ni1002  1  0.53896300  0.23227695  0.33027285  1.0
  Ni  Ni1003  1  0.53896300  0.56561028  0.33027285  1.0
  Ni  Ni1004  1  0.53896300  0.89894362  0.33027285  1.0
  Ni  Ni1005  1  0.87229633  0.23227695  0.33027285  1.0
  Ni  Ni1006  1  0.87229633  0.56561028  0.33027285  1.0
  Ni  Ni1007  1  0.87229633  0.89894362  0.33027285  1.0
  Ni  Ni1008  1  0.06591133  0.21821195  0.39445885  1.0
  Ni  Ni1009  1  0.06591133  0.55154528  0.39445885  1.0
  Ni  Ni1010  1  0.06591133  0.88487862  0.39445885  1.0
  Ni  Ni1011  1  0.39924467  0.21821195  0.39445885  1.0
  Ni  Ni1012  1  0.39924467  0.55154528  0.39445885  1.0
  Ni  Ni1013  1  0.39924467  0.88487862  0.39445885  1.0
  Ni  Ni1014  1  0.73257800  0.21821195  0.39445885  1.0
  Ni  Ni1015  1  0.73257800  0.55154528  0.39445885  1.0
  Ni  Ni1016  1  0.73257800  0.88487862  0.39445885  1.0
  Ni  Ni1017  1  0.23257800  0.01821195  0.29445885  1.0
  Ni  Ni1018  1  0.23257800  0.35154528  0.29445885  1.0
  Ni  Ni1019  1  0.23257800  0.68487862  0.29445885  1.0
  Ni  Ni1020  1  0.56591133  0.01821195  0.29445885  1.0
  Ni  Ni1021  1  0.56591133  0.35154528  0.29445885  1.0
  Ni  Ni1022  1  0.56591133  0.68487862  0.29445885  1.0
  Ni  Ni1023  1  0.89924467  0.01821195  0.29445885  1.0
  Ni  Ni1024  1  0.89924467  0.35154528  0.29445885  1.0
  Ni  Ni1025  1  0.89924467  0.68487862  0.29445885  1.0
  Ni  Ni1026  1  0.26742200  0.31379675  0.20156725  1.0
  Ni  Ni1027  1  0.26742200  0.64713008  0.20156725  1.0
  Ni  Ni1028  1  0.26742200  0.98046342  0.20156725  1.0
  Ni  Ni1029  1  0.60075533  0.31379675  0.20156725  1.0
  Ni  Ni1030  1  0.60075533  0.64713008  0.20156725  1.0
  Ni  Ni1031  1  0.60075533  0.98046342  0.20156725  1.0
  Ni  Ni1032  1  0.93408867  0.31379675  0.20156725  1.0
  Ni  Ni1033  1  0.93408867  0.64713008  0.20156725  1.0
  Ni  Ni1034  1  0.93408867  0.98046342  0.20156725  1.0
  Ni  Ni1035  1  0.10075533  0.18046342  0.30156725  1.0
  Ni  Ni1036  1  0.10075533  0.51379675  0.30156725  1.0
  Ni  Ni1037  1  0.10075533  0.84713008  0.30156725  1.0
  Ni  Ni1038  1  0.43408867  0.18046342  0.30156725  1.0
  Ni  Ni1039  1  0.43408867  0.51379675  0.30156725  1.0
  Ni  Ni1040  1  0.43408867  0.84713008  0.30156725  1.0
  Ni  Ni1041  1  0.76742200  0.18046342  0.30156725  1.0
  Ni  Ni1042  1  0.76742200  0.51379675  0.30156725  1.0
  Ni  Ni1043  1  0.76742200  0.84713008  0.30156725  1.0
  Ni  Ni1044  1  0.00845500  0.20146862  0.21537885  1.0
  Ni  Ni1045  1  0.00845500  0.53480195  0.21537885  1.0
  Ni  Ni1046  1  0.00845500  0.86813528  0.21537885  1.0
  Ni  Ni1047  1  0.34178833  0.20146862  0.21537885  1.0
  Ni  Ni1048  1  0.34178833  0.53480195  0.21537885  1.0
  Ni  Ni1049  1  0.34178833  0.86813528  0.21537885  1.0
  Ni  Ni1050  1  0.67512167  0.20146862  0.21537885  1.0
  Ni  Ni1051  1  0.67512167  0.53480195  0.21537885  1.0
  Ni  Ni1052  1  0.67512167  0.86813528  0.21537885  1.0
  Ni  Ni1053  1  0.17512167  0.06813528  0.31537885  1.0
  Ni  Ni1054  1  0.17512167  0.40146862  0.31537885  1.0
  Ni  Ni1055  1  0.17512167  0.73480195  0.31537885  1.0
  Ni  Ni1056  1  0.50845500  0.06813528  0.31537885  1.0
  Ni  Ni1057  1  0.50845500  0.40146862  0.31537885  1.0
  Ni  Ni1058  1  0.50845500  0.73480195  0.31537885  1.0
  Ni  Ni1059  1  0.84178833  0.06813528  0.31537885  1.0
  Ni  Ni1060  1  0.84178833  0.40146862  0.31537885  1.0
  Ni  Ni1061  1  0.84178833  0.73480195  0.31537885  1.0
  Ni  Ni1062  1  0.32487833  0.33054008  0.38064725  1.0
  Ni  Ni1063  1  0.32487833  0.66387342  0.38064725  1.0
  Ni  Ni1064  1  0.32487833  0.99720675  0.38064725  1.0
  Ni  Ni1065  1  0.65821167  0.33054008  0.38064725  1.0
  Ni  Ni1066  1  0.65821167  0.66387342  0.38064725  1.0
  Ni  Ni1067  1  0.65821167  0.99720675  0.38064725  1.0
  Ni  Ni1068  1  0.99154500  0.33054008  0.38064725  1.0
  Ni  Ni1069  1  0.99154500  0.66387342  0.38064725  1.0
  Ni  Ni1070  1  0.99154500  0.99720675  0.38064725  1.0
  Ni  Ni1071  1  0.15821167  0.13054008  0.28064725  1.0
  Ni  Ni1072  1  0.15821167  0.46387342  0.28064725  1.0
  Ni  Ni1073  1  0.15821167  0.79720675  0.28064725  1.0
  Ni  Ni1074  1  0.49154500  0.13054008  0.28064725  1.0
  Ni  Ni1075  1  0.49154500  0.46387342  0.28064725  1.0
  Ni  Ni1076  1  0.49154500  0.79720675  0.28064725  1.0
  Ni  Ni1077  1  0.82487833  0.13054008  0.28064725  1.0
  Ni  Ni1078  1  0.82487833  0.46387342  0.28064725  1.0
  Ni  Ni1079  1  0.82487833  0.79720675  0.28064725  1.0
  Ni  Ni1080  1  0.27547517  0.22643288  0.21672015  1.0
  Ni  Ni1081  1  0.27547517  0.55976622  0.21672015  1.0
  Ni  Ni1082  1  0.27547517  0.89309955  0.21672015  1.0
  Ni  Ni1083  1  0.60880850  0.22643288  0.21672015  1.0
  Ni  Ni1084  1  0.60880850  0.55976622  0.21672015  1.0
  Ni  Ni1085  1  0.60880850  0.89309955  0.21672015  1.0
  Ni  Ni1086  1  0.94214183  0.22643288  0.21672015  1.0
  Ni  Ni1087  1  0.94214183  0.55976622  0.21672015  1.0
  Ni  Ni1088  1  0.94214183  0.89309955  0.21672015  1.0
  Ni  Ni1089  1  0.10880850  0.09309955  0.31672015  1.0
  Ni  Ni1090  1  0.10880850  0.42643288  0.31672015  1.0
  Ni  Ni1091  1  0.10880850  0.75976622  0.31672015  1.0
  Ni  Ni1092  1  0.44214183  0.09309955  0.31672015  1.0
  Ni  Ni1093  1  0.44214183  0.42643288  0.31672015  1.0
  Ni  Ni1094  1  0.44214183  0.75976622  0.31672015  1.0
  Ni  Ni1095  1  0.77547517  0.09309955  0.31672015  1.0
  Ni  Ni1096  1  0.77547517  0.42643288  0.31672015  1.0
  Ni  Ni1097  1  0.77547517  0.75976622  0.31672015  1.0
  Ni  Ni1098  1  0.05785817  0.30557582  0.37930595  1.0
  Ni  Ni1099  1  0.05785817  0.63890915  0.37930595  1.0
  Ni  Ni1100  1  0.05785817  0.97224248  0.37930595  1.0
  Ni  Ni1101  1  0.39119150  0.30557582  0.37930595  1.0
  Ni  Ni1102  1  0.39119150  0.63890915  0.37930595  1.0
  Ni  Ni1103  1  0.39119150  0.97224248  0.37930595  1.0
  Ni  Ni1104  1  0.72452483  0.30557582  0.37930595  1.0
  Ni  Ni1105  1  0.72452483  0.63890915  0.37930595  1.0
  Ni  Ni1106  1  0.72452483  0.97224248  0.37930595  1.0
  Ni  Ni1107  1  0.22452483  0.10557582  0.27930595  1.0
  Ni  Ni1108  1  0.22452483  0.43890915  0.27930595  1.0
  Ni  Ni1109  1  0.22452483  0.77224248  0.27930595  1.0
  Ni  Ni1110  1  0.55785817  0.10557582  0.27930595  1.0
  Ni  Ni1111  1  0.55785817  0.43890915  0.27930595  1.0
  Ni  Ni1112  1  0.55785817  0.77224248  0.27930595  1.0
  Ni  Ni1113  1  0.89119150  0.10557582  0.27930595  1.0
  Ni  Ni1114  1  0.89119150  0.43890915  0.27930595  1.0
  Ni  Ni1115  1  0.89119150  0.77224248  0.27930595  1.0
  Ni  Ni1116  1  0.05054200  0.25636002  0.34383705  1.0
  Ni  Ni1117  1  0.05054200  0.58969335  0.34383705  1.0
  Ni  Ni1118  1  0.05054200  0.92302668  0.34383705  1.0
  Ni  Ni1119  1  0.38387533  0.25636002  0.34383705  1.0
  Ni  Ni1120  1  0.38387533  0.58969335  0.34383705  1.0
  Ni  Ni1121  1  0.38387533  0.92302668  0.34383705  1.0
  Ni  Ni1122  1  0.71720867  0.25636002  0.34383705  1.0
  Ni  Ni1123  1  0.71720867  0.58969335  0.34383705  1.0
  Ni  Ni1124  1  0.71720867  0.92302668  0.34383705  1.0
  Ni  Ni1125  1  0.21720867  0.05636002  0.24383705  1.0
  Ni  Ni1126  1  0.21720867  0.38969335  0.24383705  1.0
  Ni  Ni1127  1  0.21720867  0.72302668  0.24383705  1.0
  Ni  Ni1128  1  0.55054200  0.05636002  0.24383705  1.0
  Ni  Ni1129  1  0.55054200  0.38969335  0.24383705  1.0
  Ni  Ni1130  1  0.55054200  0.72302668  0.24383705  1.0
  Ni  Ni1131  1  0.88387533  0.05636002  0.24383705  1.0
  Ni  Ni1132  1  0.88387533  0.38969335  0.24383705  1.0
  Ni  Ni1133  1  0.88387533  0.72302668  0.24383705  1.0
  Ni  Ni1134  1  0.28279133  0.27564868  0.25218905  1.0
  Ni  Ni1135  1  0.28279133  0.60898202  0.25218905  1.0
  Ni  Ni1136  1  0.28279133  0.94231535  0.25218905  1.0
  Ni  Ni1137  1  0.61612467  0.27564868  0.25218905  1.0
  Ni  Ni1138  1  0.61612467  0.60898202  0.25218905  1.0
  Ni  Ni1139  1  0.61612467  0.94231535  0.25218905  1.0
  Ni  Ni1140  1  0.94945800  0.27564868  0.25218905  1.0
  Ni  Ni1141  1  0.94945800  0.60898202  0.25218905  1.0
  Ni  Ni1142  1  0.94945800  0.94231535  0.25218905  1.0
  Ni  Ni1143  1  0.11612467  0.14231535  0.35218905  1.0
  Ni  Ni1144  1  0.11612467  0.47564868  0.35218905  1.0
  Ni  Ni1145  1  0.11612467  0.80898202  0.35218905  1.0
  Ni  Ni1146  1  0.44945800  0.14231535  0.35218905  1.0
  Ni  Ni1147  1  0.44945800  0.47564868  0.35218905  1.0
  Ni  Ni1148  1  0.44945800  0.80898202  0.35218905  1.0
  Ni  Ni1149  1  0.78279133  0.14231535  0.35218905  1.0
  Ni  Ni1150  1  0.78279133  0.47564868  0.35218905  1.0
  Ni  Ni1151  1  0.78279133  0.80898202  0.35218905  1.0
  Ni  Ni1152  1  0.11015283  0.33282882  0.33065995  1.0
  Ni  Ni1153  1  0.11015283  0.66616215  0.33065995  1.0
  Ni  Ni1154  1  0.11015283  0.99949548  0.33065995  1.0
  Ni  Ni1155  1  0.44348617  0.33282882  0.33065995  1.0
  Ni  Ni1156  1  0.44348617  0.66616215  0.33065995  1.0
  Ni  Ni1157  1  0.44348617  0.99949548  0.33065995  1.0
  Ni  Ni1158  1  0.77681950  0.33282882  0.33065995  1.0
  Ni  Ni1159  1  0.77681950  0.66616215  0.33065995  1.0
  Ni  Ni1160  1  0.77681950  0.99949548  0.33065995  1.0
  Ni  Ni1161  1  0.27681950  0.13282882  0.23065995  1.0
  Ni  Ni1162  1  0.27681950  0.46616215  0.23065995  1.0
  Ni  Ni1163  1  0.27681950  0.79949548  0.23065995  1.0
  Ni  Ni1164  1  0.61015283  0.13282882  0.23065995  1.0
  Ni  Ni1165  1  0.61015283  0.46616215  0.23065995  1.0
  Ni  Ni1166  1  0.61015283  0.79949548  0.23065995  1.0
  Ni  Ni1167  1  0.94348617  0.13282882  0.23065995  1.0
  Ni  Ni1168  1  0.94348617  0.46616215  0.23065995  1.0
  Ni  Ni1169  1  0.94348617  0.79949548  0.23065995  1.0
  Ni  Ni1170  1  0.22318050  0.19917988  0.26536615  1.0
  Ni  Ni1171  1  0.22318050  0.53251322  0.26536615  1.0
  Ni  Ni1172  1  0.22318050  0.86584655  0.26536615  1.0
  Ni  Ni1173  1  0.55651383  0.19917988  0.26536615  1.0
  Ni  Ni1174  1  0.55651383  0.53251322  0.26536615  1.0
  Ni  Ni1175  1  0.55651383  0.86584655  0.26536615  1.0
  Ni  Ni1176  1  0.88984717  0.19917988  0.26536615  1.0
  Ni  Ni1177  1  0.88984717  0.53251322  0.26536615  1.0
  Ni  Ni1178  1  0.88984717  0.86584655  0.26536615  1.0
  Ni  Ni1179  1  0.05651383  0.06584655  0.36536615  1.0
  Ni  Ni1180  1  0.05651383  0.39917988  0.36536615  1.0
  Ni  Ni1181  1  0.05651383  0.73251322  0.36536615  1.0
  Ni  Ni1182  1  0.38984717  0.06584655  0.36536615  1.0
  Ni  Ni1183  1  0.38984717  0.39917988  0.36536615  1.0
  Ni  Ni1184  1  0.38984717  0.73251322  0.36536615  1.0
  Ni  Ni1185  1  0.72318050  0.06584655  0.36536615  1.0
  Ni  Ni1186  1  0.72318050  0.39917988  0.36536615  1.0
  Ni  Ni1187  1  0.72318050  0.73251322  0.36536615  1.0
  Ni  Ni1188  1  0.01073250  0.11456795  0.23008235  1.0
  Ni  Ni1189  1  0.01073250  0.44790128  0.23008235  1.0
  Ni  Ni1190  1  0.01073250  0.78123462  0.23008235  1.0
  Ni  Ni1191  1  0.34406583  0.11456795  0.23008235  1.0
  Ni  Ni1192  1  0.34406583  0.44790128  0.23008235  1.0
  Ni  Ni1193  1  0.34406583  0.78123462  0.23008235  1.0
  Ni  Ni1194  1  0.67739917  0.11456795  0.23008235  1.0
  Ni  Ni1195  1  0.67739917  0.44790128  0.23008235  1.0
  Ni  Ni1196  1  0.67739917  0.78123462  0.23008235  1.0
  Ni  Ni1197  1  0.17739917  0.31456795  0.33008235  1.0
  Ni  Ni1198  1  0.17739917  0.64790128  0.33008235  1.0
  Ni  Ni1199  1  0.17739917  0.98123462  0.33008235  1.0
  Ni  Ni1200  1  0.51073250  0.31456795  0.33008235  1.0
  Ni  Ni1201  1  0.51073250  0.64790128  0.33008235  1.0
  Ni  Ni1202  1  0.51073250  0.98123462  0.33008235  1.0
  Ni  Ni1203  1  0.84406583  0.31456795  0.33008235  1.0
  Ni  Ni1204  1  0.84406583  0.64790128  0.33008235  1.0
  Ni  Ni1205  1  0.84406583  0.98123462  0.33008235  1.0
  Ni  Ni1206  1  0.32260083  0.08410742  0.36594375  1.0
  Ni  Ni1207  1  0.32260083  0.41744075  0.36594375  1.0
  Ni  Ni1208  1  0.32260083  0.75077408  0.36594375  1.0
  Ni  Ni1209  1  0.65593417  0.08410742  0.36594375  1.0
  Ni  Ni1210  1  0.65593417  0.41744075  0.36594375  1.0
  Ni  Ni1211  1  0.65593417  0.75077408  0.36594375  1.0
  Ni  Ni1212  1  0.98926750  0.08410742  0.36594375  1.0
  Ni  Ni1213  1  0.98926750  0.41744075  0.36594375  1.0
  Ni  Ni1214  1  0.98926750  0.75077408  0.36594375  1.0
  Ni  Ni1215  1  0.15593417  0.21744075  0.26594375  1.0
  Ni  Ni1216  1  0.15593417  0.55077408  0.26594375  1.0
  Ni  Ni1217  1  0.15593417  0.88410742  0.26594375  1.0
  Ni  Ni1218  1  0.48926750  0.21744075  0.26594375  1.0
  Ni  Ni1219  1  0.48926750  0.55077408  0.26594375  1.0
  Ni  Ni1220  1  0.48926750  0.88410742  0.26594375  1.0
  Ni  Ni1221  1  0.82260083  0.21744075  0.26594375  1.0
  Ni  Ni1222  1  0.82260083  0.55077408  0.26594375  1.0
  Ni  Ni1223  1  0.82260083  0.88410742  0.26594375  1.0
  Ni  Ni1224  1  0.08333333  0.33267102  0.24801305  1.0
  Ni  Ni1225  1  0.08333333  0.66600435  0.24801305  1.0
  Ni  Ni1226  1  0.08333333  0.99933768  0.24801305  1.0
  Ni  Ni1227  1  0.41666667  0.33267102  0.24801305  1.0
  Ni  Ni1228  1  0.41666667  0.66600435  0.24801305  1.0
  Ni  Ni1229  1  0.41666667  0.99933768  0.24801305  1.0
  Ni  Ni1230  1  0.75000000  0.33267102  0.24801305  1.0
  Ni  Ni1231  1  0.75000000  0.66600435  0.24801305  1.0
  Ni  Ni1232  1  0.75000000  0.99933768  0.24801305  1.0
  Ni  Ni1233  1  0.25000000  0.19933768  0.34801305  1.0
  Ni  Ni1234  1  0.25000000  0.53267102  0.34801305  1.0
  Ni  Ni1235  1  0.25000000  0.86600435  0.34801305  1.0
  Ni  Ni1236  1  0.58333333  0.19933768  0.34801305  1.0
  Ni  Ni1237  1  0.58333333  0.53267102  0.34801305  1.0
  Ni  Ni1238  1  0.58333333  0.86600435  0.34801305  1.0
  Ni  Ni1239  1  0.91666667  0.19933768  0.34801305  1.0
  Ni  Ni1240  1  0.91666667  0.53267102  0.34801305  1.0
  Ni  Ni1241  1  0.91666667  0.86600435  0.34801305  1.0
  Ni  Ni1242  1  0.04252833  0.21023142  0.30260125  1.0
  Ni  Ni1243  1  0.04252833  0.54356475  0.30260125  1.0
  Ni  Ni1244  1  0.04252833  0.87689808  0.30260125  1.0
  Ni  Ni1245  1  0.37586167  0.21023142  0.30260125  1.0
  Ni  Ni1246  1  0.37586167  0.54356475  0.30260125  1.0
  Ni  Ni1247  1  0.37586167  0.87689808  0.30260125  1.0
  Ni  Ni1248  1  0.70919500  0.21023142  0.30260125  1.0
  Ni  Ni1249  1  0.70919500  0.54356475  0.30260125  1.0
  Ni  Ni1250  1  0.70919500  0.87689808  0.30260125  1.0
  Ni  Ni1251  1  0.20919500  0.01023142  0.20260125  1.0
  Ni  Ni1252  1  0.20919500  0.34356475  0.20260125  1.0
  Ni  Ni1253  1  0.20919500  0.67689808  0.20260125  1.0
  Ni  Ni1254  1  0.54252833  0.01023142  0.20260125  1.0
  Ni  Ni1255  1  0.54252833  0.34356475  0.20260125  1.0
  Ni  Ni1256  1  0.54252833  0.67689808  0.20260125  1.0
  Ni  Ni1257  1  0.87586167  0.01023142  0.20260125  1.0
  Ni  Ni1258  1  0.87586167  0.34356475  0.20260125  1.0
  Ni  Ni1259  1  0.87586167  0.67689808  0.20260125  1.0
  Ni  Ni1260  1  0.29080500  0.32177728  0.29342485  1.0
  Ni  Ni1261  1  0.29080500  0.65511062  0.29342485  1.0
  Ni  Ni1262  1  0.29080500  0.98844395  0.29342485  1.0
  Ni  Ni1263  1  0.62413833  0.32177728  0.29342485  1.0
  Ni  Ni1264  1  0.62413833  0.65511062  0.29342485  1.0
  Ni  Ni1265  1  0.62413833  0.98844395  0.29342485  1.0
  Ni  Ni1266  1  0.95747167  0.32177728  0.29342485  1.0
  Ni  Ni1267  1  0.95747167  0.65511062  0.29342485  1.0
  Ni  Ni1268  1  0.95747167  0.98844395  0.29342485  1.0
  Ni  Ni1269  1  0.12413833  0.18844395  0.39342485  1.0
  Ni  Ni1270  1  0.12413833  0.52177728  0.39342485  1.0
  Ni  Ni1271  1  0.12413833  0.85511062  0.39342485  1.0
  Ni  Ni1272  1  0.45747167  0.18844395  0.39342485  1.0
  Ni  Ni1273  1  0.45747167  0.52177728  0.39342485  1.0
  Ni  Ni1274  1  0.45747167  0.85511062  0.39342485  1.0
  Ni  Ni1275  1  0.79080500  0.18844395  0.39342485  1.0
  Ni  Ni1276  1  0.79080500  0.52177728  0.39342485  1.0
  Ni  Ni1277  1  0.79080500  0.85511062  0.39342485  1.0
  Ni  Ni1278  1  0.05828550  0.29510055  0.29403915  1.0
  Ni  Ni1279  1  0.05828550  0.62843388  0.29403915  1.0
  Ni  Ni1280  1  0.05828550  0.96176722  0.29403915  1.0
  Ni  Ni1281  1  0.39161883  0.29510055  0.29403915  1.0
  Ni  Ni1282  1  0.39161883  0.62843388  0.29403915  1.0
  Ni  Ni1283  1  0.39161883  0.96176722  0.29403915  1.0
  Ni  Ni1284  1  0.72495217  0.29510055  0.29403915  1.0
  Ni  Ni1285  1  0.72495217  0.62843388  0.29403915  1.0
  Ni  Ni1286  1  0.72495217  0.96176722  0.29403915  1.0
  Ni  Ni1287  1  0.22495217  0.16176722  0.39403915  1.0
  Ni  Ni1288  1  0.22495217  0.49510055  0.39403915  1.0
  Ni  Ni1289  1  0.22495217  0.82843388  0.39403915  1.0
  Ni  Ni1290  1  0.55828550  0.16176722  0.39403915  1.0
  Ni  Ni1291  1  0.55828550  0.49510055  0.39403915  1.0
  Ni  Ni1292  1  0.55828550  0.82843388  0.39403915  1.0
  Ni  Ni1293  1  0.89161883  0.16176722  0.39403915  1.0
  Ni  Ni1294  1  0.89161883  0.49510055  0.39403915  1.0
  Ni  Ni1295  1  0.89161883  0.82843388  0.39403915  1.0
  Ni  Ni1296  1  0.27504783  0.23690815  0.30198695  1.0
  Ni  Ni1297  1  0.27504783  0.57024148  0.30198695  1.0
  Ni  Ni1298  1  0.27504783  0.90357482  0.30198695  1.0
  Ni  Ni1299  1  0.60838117  0.23690815  0.30198695  1.0
  Ni  Ni1300  1  0.60838117  0.57024148  0.30198695  1.0
  Ni  Ni1301  1  0.60838117  0.90357482  0.30198695  1.0
  Ni  Ni1302  1  0.94171450  0.23690815  0.30198695  1.0
  Ni  Ni1303  1  0.94171450  0.57024148  0.30198695  1.0
  Ni  Ni1304  1  0.94171450  0.90357482  0.30198695  1.0
  Ni  Ni1305  1  0.10838117  0.03690815  0.20198695  1.0
  Ni  Ni1306  1  0.10838117  0.37024148  0.20198695  1.0
  Ni  Ni1307  1  0.10838117  0.70357482  0.20198695  1.0
  Ni  Ni1308  1  0.44171450  0.03690815  0.20198695  1.0
  Ni  Ni1309  1  0.44171450  0.37024148  0.20198695  1.0
  Ni  Ni1310  1  0.44171450  0.70357482  0.20198695  1.0
  Ni  Ni1311  1  0.77504783  0.03690815  0.20198695  1.0
  Ni  Ni1312  1  0.77504783  0.37024148  0.20198695  1.0
  Ni  Ni1313  1  0.77504783  0.70357482  0.20198695  1.0
  Ni  Ni1314  1  0.02487717  0.16273468  0.26220455  1.0
  Ni  Ni1315  1  0.02487717  0.49606802  0.26220455  1.0
  Ni  Ni1316  1  0.02487717  0.82940135  0.26220455  1.0
  Ni  Ni1317  1  0.35821050  0.16273468  0.26220455  1.0
  Ni  Ni1318  1  0.35821050  0.49606802  0.26220455  1.0
  Ni  Ni1319  1  0.35821050  0.82940135  0.26220455  1.0
  Ni  Ni1320  1  0.69154383  0.16273468  0.26220455  1.0
  Ni  Ni1321  1  0.69154383  0.49606802  0.26220455  1.0
  Ni  Ni1322  1  0.69154383  0.82940135  0.26220455  1.0
  Ni  Ni1323  1  0.19154383  0.02940135  0.36220455  1.0
  Ni  Ni1324  1  0.19154383  0.36273468  0.36220455  1.0
  Ni  Ni1325  1  0.19154383  0.69606802  0.36220455  1.0
  Ni  Ni1326  1  0.52487717  0.02940135  0.36220455  1.0
  Ni  Ni1327  1  0.52487717  0.36273468  0.36220455  1.0
  Ni  Ni1328  1  0.52487717  0.69606802  0.36220455  1.0
  Ni  Ni1329  1  0.85821050  0.02940135  0.36220455  1.0
  Ni  Ni1330  1  0.85821050  0.36273468  0.36220455  1.0
  Ni  Ni1331  1  0.85821050  0.69606802  0.36220455  1.0
  Ni  Ni1332  1  0.30845617  0.03594068  0.33382155  1.0
  Ni  Ni1333  1  0.30845617  0.36927402  0.33382155  1.0
  Ni  Ni1334  1  0.30845617  0.70260735  0.33382155  1.0
  Ni  Ni1335  1  0.64178950  0.03594068  0.33382155  1.0
  Ni  Ni1336  1  0.64178950  0.36927402  0.33382155  1.0
  Ni  Ni1337  1  0.64178950  0.70260735  0.33382155  1.0
  Ni  Ni1338  1  0.97512283  0.03594068  0.33382155  1.0
  Ni  Ni1339  1  0.97512283  0.36927402  0.33382155  1.0
  Ni  Ni1340  1  0.97512283  0.70260735  0.33382155  1.0
  Ni  Ni1341  1  0.14178950  0.16927402  0.23382155  1.0
  Ni  Ni1342  1  0.14178950  0.50260735  0.23382155  1.0
  Ni  Ni1343  1  0.14178950  0.83594068  0.23382155  1.0
  Ni  Ni1344  1  0.47512283  0.16927402  0.23382155  1.0
  Ni  Ni1345  1  0.47512283  0.50260735  0.23382155  1.0
  Ni  Ni1346  1  0.47512283  0.83594068  0.23382155  1.0
  Ni  Ni1347  1  0.80845617  0.16927402  0.23382155  1.0
  Ni  Ni1348  1  0.80845617  0.50260735  0.23382155  1.0
  Ni  Ni1349  1  0.80845617  0.83594068  0.23382155  1.0
  Ni  Ni1350  1  0.11527850  0.28490222  0.34440015  1.0
  Ni  Ni1351  1  0.11527850  0.61823555  0.34440015  1.0
  Ni  Ni1352  1  0.11527850  0.95156888  0.34440015  1.0
  Ni  Ni1353  1  0.44861183  0.28490222  0.34440015  1.0
  Ni  Ni1354  1  0.44861183  0.61823555  0.34440015  1.0
  Ni  Ni1355  1  0.44861183  0.95156888  0.34440015  1.0
  Ni  Ni1356  1  0.78194517  0.28490222  0.34440015  1.0
  Ni  Ni1357  1  0.78194517  0.61823555  0.34440015  1.0
  Ni  Ni1358  1  0.78194517  0.95156888  0.34440015  1.0
  Ni  Ni1359  1  0.28194517  0.08490222  0.24440015  1.0
  Ni  Ni1360  1  0.28194517  0.41823555  0.24440015  1.0
  Ni  Ni1361  1  0.28194517  0.75156888  0.24440015  1.0
  Ni  Ni1362  1  0.61527850  0.08490222  0.24440015  1.0
  Ni  Ni1363  1  0.61527850  0.41823555  0.24440015  1.0
  Ni  Ni1364  1  0.61527850  0.75156888  0.24440015  1.0
  Ni  Ni1365  1  0.94861183  0.08490222  0.24440015  1.0
  Ni  Ni1366  1  0.94861183  0.41823555  0.24440015  1.0
  Ni  Ni1367  1  0.94861183  0.75156888  0.24440015  1.0
  Ni  Ni1368  1  0.21805483  0.24710648  0.25162595  1.0
  Ni  Ni1369  1  0.21805483  0.58043982  0.25162595  1.0
  Ni  Ni1370  1  0.21805483  0.91377315  0.25162595  1.0
  Ni  Ni1371  1  0.55138817  0.24710648  0.25162595  1.0
  Ni  Ni1372  1  0.55138817  0.58043982  0.25162595  1.0
  Ni  Ni1373  1  0.55138817  0.91377315  0.25162595  1.0
  Ni  Ni1374  1  0.88472150  0.24710648  0.25162595  1.0
  Ni  Ni1375  1  0.88472150  0.58043982  0.25162595  1.0
  Ni  Ni1376  1  0.88472150  0.91377315  0.25162595  1.0
  Ni  Ni1377  1  0.05138817  0.11377315  0.35162595  1.0
  Ni  Ni1378  1  0.05138817  0.44710648  0.35162595  1.0
  Ni  Ni1379  1  0.05138817  0.78043982  0.35162595  1.0
  Ni  Ni1380  1  0.38472150  0.11377315  0.35162595  1.0
  Ni  Ni1381  1  0.38472150  0.44710648  0.35162595  1.0
  Ni  Ni1382  1  0.38472150  0.78043982  0.35162595  1.0
  Ni  Ni1383  1  0.71805483  0.11377315  0.35162595  1.0
  Ni  Ni1384  1  0.71805483  0.44710648  0.35162595  1.0
  Ni  Ni1385  1  0.71805483  0.78043982  0.35162595  1.0
  Ni  Ni1386  1  0.16666667  0.26600435  0.29801305  1.0
  Ni  Ni1387  1  0.16666667  0.59933768  0.29801305  1.0
  Ni  Ni1388  1  0.16666667  0.93267102  0.29801305  1.0
  Ni  Ni1389  1  0.50000000  0.26600435  0.29801305  1.0
  Ni  Ni1390  1  0.50000000  0.59933768  0.29801305  1.0
  Ni  Ni1391  1  0.50000000  0.93267102  0.29801305  1.0
  Ni  Ni1392  1  0.83333333  0.26600435  0.29801305  1.0
  Ni  Ni1393  1  0.83333333  0.59933768  0.29801305  1.0
  Ni  Ni1394  1  0.83333333  0.93267102  0.29801305  1.0
  Ni  Ni1395  1  0.00000000  0.13267102  0.39801305  1.0
  Ni  Ni1396  1  0.00000000  0.46600435  0.39801305  1.0
  Ni  Ni1397  1  0.00000000  0.79933768  0.39801305  1.0
  Ni  Ni1398  1  0.33333333  0.13267102  0.39801305  1.0
  Ni  Ni1399  1  0.33333333  0.46600435  0.39801305  1.0
  Ni  Ni1400  1  0.33333333  0.79933768  0.39801305  1.0
  Ni  Ni1401  1  0.66666667  0.13267102  0.39801305  1.0
  Ni  Ni1402  1  0.66666667  0.46600435  0.39801305  1.0
  Ni  Ni1403  1  0.66666667  0.79933768  0.39801305  1.0
  Ni  Ni1404  1  0.26362350  0.24685582  0.38708595  1.0
  Ni  Ni1405  1  0.26362350  0.58018915  0.38708595  1.0
  Ni  Ni1406  1  0.26362350  0.91352248  0.38708595  1.0
  Ni  Ni1407  1  0.59695683  0.24685582  0.38708595  1.0
  Ni  Ni1408  1  0.59695683  0.58018915  0.38708595  1.0
  Ni  Ni1409  1  0.59695683  0.91352248  0.38708595  1.0
  Ni  Ni1410  1  0.93029017  0.24685582  0.38708595  1.0
  Ni  Ni1411  1  0.93029017  0.58018915  0.38708595  1.0
  Ni  Ni1412  1  0.93029017  0.91352248  0.38708595  1.0
  Ni  Ni1413  1  0.09695683  0.04685582  0.28708595  1.0
  Ni  Ni1414  1  0.09695683  0.38018915  0.28708595  1.0
  Ni  Ni1415  1  0.09695683  0.71352248  0.28708595  1.0
  Ni  Ni1416  1  0.43029017  0.04685582  0.28708595  1.0
  Ni  Ni1417  1  0.43029017  0.38018915  0.28708595  1.0
  Ni  Ni1418  1  0.43029017  0.71352248  0.28708595  1.0
  Ni  Ni1419  1  0.76362350  0.04685582  0.28708595  1.0
  Ni  Ni1420  1  0.76362350  0.38018915  0.28708595  1.0
  Ni  Ni1421  1  0.76362350  0.71352248  0.28708595  1.0
  Ni  Ni1422  1  0.06970983  0.28515288  0.20894015  1.0
  Ni  Ni1423  1  0.06970983  0.61848622  0.20894015  1.0
  Ni  Ni1424  1  0.06970983  0.95181955  0.20894015  1.0
  Ni  Ni1425  1  0.40304317  0.28515288  0.20894015  1.0
  Ni  Ni1426  1  0.40304317  0.61848622  0.20894015  1.0
  Ni  Ni1427  1  0.40304317  0.95181955  0.20894015  1.0
  Ni  Ni1428  1  0.73637650  0.28515288  0.20894015  1.0
  Ni  Ni1429  1  0.73637650  0.61848622  0.20894015  1.0
  Ni  Ni1430  1  0.73637650  0.95181955  0.20894015  1.0
  Ni  Ni1431  1  0.23637650  0.15181955  0.30894015  1.0
  Ni  Ni1432  1  0.23637650  0.48515288  0.30894015  1.0
  Ni  Ni1433  1  0.23637650  0.81848622  0.30894015  1.0
  Ni  Ni1434  1  0.56970983  0.15181955  0.30894015  1.0
  Ni  Ni1435  1  0.56970983  0.48515288  0.30894015  1.0
  Ni  Ni1436  1  0.56970983  0.81848622  0.30894015  1.0
  Ni  Ni1437  1  0.90304317  0.15181955  0.30894015  1.0
  Ni  Ni1438  1  0.90304317  0.48515288  0.30894015  1.0
  Ni  Ni1439  1  0.90304317  0.81848622  0.30894015  1.0
