# generated using pymatgen
data_In3Ni7
_symmetry_space_group_name_H-M   'P 1'
_cell_length_a   19.64121600
_cell_length_b   57.18733182
_cell_length_c   35.76609988
_cell_angle_alpha   80.15564423
_cell_angle_beta   90.28802039
_cell_angle_gamma   97.32236387
_symmetry_Int_Tables_number   1
_chemical_formula_structural   In3Ni7
_chemical_formula_sum   'In432 Ni1008'
_cell_volume   39253.41277514
_cell_formula_units_Z   144
loop_
 _symmetry_equiv_pos_site_id
 _symmetry_equiv_pos_as_xyz
  1  'x, y, z'
loop_
 _atom_site_type_symbol
 _atom_site_label
 _atom_site_symmetry_multiplicity
 _atom_site_fract_x
 _atom_site_fract_y
 _atom_site_fract_z
 _atom_site_occupancy
  In  In0  1  0.22522933  0.10074733  0.21201275  1.0
  In  In1  1  0.22522933  0.43408067  0.21201275  1.0
  In  In2  1  0.22522933  0.76741400  0.21201275  1.0
  In  In3  1  0.55856267  0.10074733  0.21201275  1.0
  In  In4  1  0.55856267  0.43408067  0.21201275  1.0
  In  In5  1  0.55856267  0.76741400  0.21201275  1.0
  In  In6  1  0.89189600  0.10074733  0.21201275  1.0
  In  In7  1  0.89189600  0.43408067  0.21201275  1.0
  In  In8  1  0.89189600  0.76741400  0.21201275  1.0
  In  In9  1  0.22522933  0.26741400  0.08701275  1.0
  In  In10  1  0.22522933  0.60074733  0.08701275  1.0
  In  In11  1  0.22522933  0.93408067  0.08701275  1.0
  In  In12  1  0.55856267  0.26741400  0.08701275  1.0
  In  In13  1  0.55856267  0.60074733  0.08701275  1.0
  In  In14  1  0.55856267  0.93408067  0.08701275  1.0
  In  In15  1  0.89189600  0.26741400  0.08701275  1.0
  In  In16  1  0.89189600  0.60074733  0.08701275  1.0
  In  In17  1  0.89189600  0.93408067  0.08701275  1.0
  In  In18  1  0.10810400  0.06591933  0.15656775  1.0
  In  In19  1  0.10810400  0.39925267  0.15656775  1.0
  In  In20  1  0.10810400  0.73258600  0.15656775  1.0
  In  In21  1  0.44143733  0.06591933  0.15656775  1.0
  In  In22  1  0.44143733  0.39925267  0.15656775  1.0
  In  In23  1  0.44143733  0.73258600  0.15656775  1.0
  In  In24  1  0.77477067  0.06591933  0.15656775  1.0
  In  In25  1  0.77477067  0.39925267  0.15656775  1.0
  In  In26  1  0.77477067  0.73258600  0.15656775  1.0
  In  In27  1  0.10810400  0.23258600  0.03156775  1.0
  In  In28  1  0.10810400  0.56591933  0.03156775  1.0
  In  In29  1  0.10810400  0.89925267  0.03156775  1.0
  In  In30  1  0.44143733  0.23258600  0.03156775  1.0
  In  In31  1  0.44143733  0.56591933  0.03156775  1.0
  In  In32  1  0.44143733  0.89925267  0.03156775  1.0
  In  In33  1  0.77477067  0.23258600  0.03156775  1.0
  In  In34  1  0.77477067  0.56591933  0.03156775  1.0
  In  In35  1  0.77477067  0.89925267  0.03156775  1.0
  In  In36  1  0.31181900  0.16419367  0.19558825  1.0
  In  In37  1  0.31181900  0.49752700  0.19558825  1.0
  In  In38  1  0.31181900  0.83086033  0.19558825  1.0
  In  In39  1  0.64515233  0.16419367  0.19558825  1.0
  In  In40  1  0.64515233  0.49752700  0.19558825  1.0
  In  In41  1  0.64515233  0.83086033  0.19558825  1.0
  In  In42  1  0.97848567  0.16419367  0.19558825  1.0
  In  In43  1  0.97848567  0.49752700  0.19558825  1.0
  In  In44  1  0.97848567  0.83086033  0.19558825  1.0
  In  In45  1  0.31181900  0.33086033  0.07058825  1.0
  In  In46  1  0.31181900  0.66419367  0.07058825  1.0
  In  In47  1  0.31181900  0.99752700  0.07058825  1.0
  In  In48  1  0.64515233  0.33086033  0.07058825  1.0
  In  In49  1  0.64515233  0.66419367  0.07058825  1.0
  In  In50  1  0.64515233  0.99752700  0.07058825  1.0
  In  In51  1  0.97848567  0.33086033  0.07058825  1.0
  In  In52  1  0.97848567  0.66419367  0.07058825  1.0
  In  In53  1  0.97848567  0.99752700  0.07058825  1.0
  In  In54  1  0.02151433  0.00247300  0.17299225  1.0
  In  In55  1  0.02151433  0.33580633  0.17299225  1.0
  In  In56  1  0.02151433  0.66913967  0.17299225  1.0
  In  In57  1  0.35484767  0.00247300  0.17299225  1.0
  In  In58  1  0.35484767  0.33580633  0.17299225  1.0
  In  In59  1  0.35484767  0.66913967  0.17299225  1.0
  In  In60  1  0.68818100  0.00247300  0.17299225  1.0
  In  In61  1  0.68818100  0.33580633  0.17299225  1.0
  In  In62  1  0.68818100  0.66913967  0.17299225  1.0
  In  In63  1  0.02151433  0.16913967  0.04799225  1.0
  In  In64  1  0.02151433  0.50247300  0.04799225  1.0
  In  In65  1  0.02151433  0.83580633  0.04799225  1.0
  In  In66  1  0.35484767  0.16913967  0.04799225  1.0
  In  In67  1  0.35484767  0.50247300  0.04799225  1.0
  In  In68  1  0.35484767  0.83580633  0.04799225  1.0
  In  In69  1  0.68818100  0.16913967  0.04799225  1.0
  In  In70  1  0.68818100  0.50247300  0.04799225  1.0
  In  In71  1  0.68818100  0.83580633  0.04799225  1.0
  In  In72  1  0.07012933  0.07425683  0.05896112  1.0
  In  In73  1  0.07012933  0.40759017  0.05896112  1.0
  In  In74  1  0.07012933  0.74092350  0.05896112  1.0
  In  In75  1  0.40346267  0.07425683  0.05896113  1.0
  In  In76  1  0.40346267  0.40759017  0.05896112  1.0
  In  In77  1  0.40346267  0.74092350  0.05896112  1.0
  In  In78  1  0.73679600  0.07425683  0.05896113  1.0
  In  In79  1  0.73679600  0.40759017  0.05896113  1.0
  In  In80  1  0.73679600  0.74092350  0.05896113  1.0
  In  In81  1  0.07012933  0.24092350  0.18396113  1.0
  In  In82  1  0.07012933  0.57425683  0.18396113  1.0
  In  In83  1  0.07012933  0.90759017  0.18396113  1.0
  In  In84  1  0.40346267  0.24092350  0.18396113  1.0
  In  In85  1  0.40346267  0.57425683  0.18396113  1.0
  In  In86  1  0.40346267  0.90759017  0.18396113  1.0
  In  In87  1  0.73679600  0.24092350  0.18396113  1.0
  In  In88  1  0.73679600  0.57425683  0.18396113  1.0
  In  In89  1  0.73679600  0.90759017  0.18396113  1.0
  In  In90  1  0.26320400  0.09240983  0.05961937  1.0
  In  In91  1  0.26320400  0.42574317  0.05961938  1.0
  In  In92  1  0.26320400  0.75907650  0.05961937  1.0
  In  In93  1  0.59653733  0.09240983  0.05961937  1.0
  In  In94  1  0.59653733  0.42574317  0.05961937  1.0
  In  In95  1  0.59653733  0.75907650  0.05961937  1.0
  In  In96  1  0.92987067  0.09240983  0.05961937  1.0
  In  In97  1  0.92987067  0.42574317  0.05961937  1.0
  In  In98  1  0.92987067  0.75907650  0.05961938  1.0
  In  In99  1  0.26320400  0.25907650  0.18461938  1.0
  In  In100  1  0.26320400  0.59240983  0.18461937  1.0
  In  In101  1  0.26320400  0.92574317  0.18461937  1.0
  In  In102  1  0.59653733  0.25907650  0.18461938  1.0
  In  In103  1  0.59653733  0.59240983  0.18461937  1.0
  In  In104  1  0.59653733  0.92574317  0.18461938  1.0
  In  In105  1  0.92987067  0.25907650  0.18461938  1.0
  In  In106  1  0.92987067  0.59240983  0.18461938  1.0
  In  In107  1  0.92987067  0.92574317  0.18461938  1.0
  In  In108  1  0.17567900  0.14593150  0.04610763  1.0
  In  In109  1  0.17567900  0.47926483  0.04610762  1.0
  In  In110  1  0.17567900  0.81259817  0.04610762  1.0
  In  In111  1  0.50901233  0.14593150  0.04610763  1.0
  In  In112  1  0.50901233  0.47926483  0.04610763  1.0
  In  In113  1  0.50901233  0.81259817  0.04610762  1.0
  In  In114  1  0.84234567  0.14593150  0.04610763  1.0
  In  In115  1  0.84234567  0.47926483  0.04610763  1.0
  In  In116  1  0.84234567  0.81259817  0.04610762  1.0
  In  In117  1  0.17567900  0.31259817  0.17110762  1.0
  In  In118  1  0.17567900  0.64593150  0.17110762  1.0
  In  In119  1  0.17567900  0.97926483  0.17110762  1.0
  In  In120  1  0.50901233  0.31259817  0.17110762  1.0
  In  In121  1  0.50901233  0.64593150  0.17110762  1.0
  In  In122  1  0.50901233  0.97926483  0.17110762  1.0
  In  In123  1  0.84234567  0.31259817  0.17110762  1.0
  In  In124  1  0.84234567  0.64593150  0.17110762  1.0
  In  In125  1  0.84234567  0.97926483  0.17110762  1.0
  In  In126  1  0.15765433  0.02073517  0.07247288  1.0
  In  In127  1  0.15765433  0.35406850  0.07247287  1.0
  In  In128  1  0.15765433  0.68740183  0.07247288  1.0
  In  In129  1  0.49098767  0.02073517  0.07247288  1.0
  In  In130  1  0.49098767  0.35406850  0.07247288  1.0
  In  In131  1  0.49098767  0.68740183  0.07247287  1.0
  In  In132  1  0.82432100  0.02073517  0.07247288  1.0
  In  In133  1  0.82432100  0.35406850  0.07247287  1.0
  In  In134  1  0.82432100  0.68740183  0.07247287  1.0
  In  In135  1  0.15765433  0.18740183  0.19747288  1.0
  In  In136  1  0.15765433  0.52073517  0.19747287  1.0
  In  In137  1  0.15765433  0.85406850  0.19747287  1.0
  In  In138  1  0.49098767  0.18740183  0.19747287  1.0
  In  In139  1  0.49098767  0.52073517  0.19747288  1.0
  In  In140  1  0.49098767  0.85406850  0.19747287  1.0
  In  In141  1  0.82432100  0.18740183  0.19747287  1.0
  In  In142  1  0.82432100  0.52073517  0.19747287  1.0
  In  In143  1  0.82432100  0.85406850  0.19747287  1.0
  In  In144  1  0.12663200  0.02235667  0.23082925  1.0
  In  In145  1  0.12663200  0.35569000  0.23082925  1.0
  In  In146  1  0.12663200  0.68902333  0.23082925  1.0
  In  In147  1  0.45996533  0.02235667  0.23082925  1.0
  In  In148  1  0.45996533  0.35569000  0.23082925  1.0
  In  In149  1  0.45996533  0.68902333  0.23082925  1.0
  In  In150  1  0.79329867  0.02235667  0.23082925  1.0
  In  In151  1  0.79329867  0.35569000  0.23082925  1.0
  In  In152  1  0.79329867  0.68902333  0.23082925  1.0
  In  In153  1  0.12663200  0.18902333  0.10582925  1.0
  In  In154  1  0.12663200  0.52235667  0.10582925  1.0
  In  In155  1  0.12663200  0.85569000  0.10582925  1.0
  In  In156  1  0.45996533  0.18902333  0.10582925  1.0
  In  In157  1  0.45996533  0.52235667  0.10582925  1.0
  In  In158  1  0.45996533  0.85569000  0.10582925  1.0
  In  In159  1  0.79329867  0.18902333  0.10582925  1.0
  In  In160  1  0.79329867  0.52235667  0.10582925  1.0
  In  In161  1  0.79329867  0.85569000  0.10582925  1.0
  In  In162  1  0.20670133  0.14431000  0.13775125  1.0
  In  In163  1  0.20670133  0.47764333  0.13775125  1.0
  In  In164  1  0.20670133  0.81097667  0.13775125  1.0
  In  In165  1  0.54003467  0.14431000  0.13775125  1.0
  In  In166  1  0.54003467  0.47764333  0.13775125  1.0
  In  In167  1  0.54003467  0.81097667  0.13775125  1.0
  In  In168  1  0.87336800  0.14431000  0.13775125  1.0
  In  In169  1  0.87336800  0.47764333  0.13775125  1.0
  In  In170  1  0.87336800  0.81097667  0.13775125  1.0
  In  In171  1  0.20670133  0.31097667  0.01275125  1.0
  In  In172  1  0.20670133  0.64431000  0.01275125  1.0
  In  In173  1  0.20670133  0.97764333  0.01275125  1.0
  In  In174  1  0.54003467  0.31097667  0.01275125  1.0
  In  In175  1  0.54003467  0.64431000  0.01275125  1.0
  In  In176  1  0.54003467  0.97764333  0.01275125  1.0
  In  In177  1  0.87336800  0.31097667  0.01275125  1.0
  In  In178  1  0.87336800  0.64431000  0.01275125  1.0
  In  In179  1  0.87336800  0.97764333  0.01275125  1.0
  In  In180  1  0.05085200  0.11440667  0.22779825  1.0
  In  In181  1  0.05085200  0.44774000  0.22779825  1.0
  In  In182  1  0.05085200  0.78107333  0.22779825  1.0
  In  In183  1  0.38418533  0.11440667  0.22779825  1.0
  In  In184  1  0.38418533  0.44774000  0.22779825  1.0
  In  In185  1  0.38418533  0.78107333  0.22779825  1.0
  In  In186  1  0.71751867  0.11440667  0.22779825  1.0
  In  In187  1  0.71751867  0.44774000  0.22779825  1.0
  In  In188  1  0.71751867  0.78107333  0.22779825  1.0
  In  In189  1  0.05085200  0.28107333  0.10279825  1.0
  In  In190  1  0.05085200  0.61440667  0.10279825  1.0
  In  In191  1  0.05085200  0.94774000  0.10279825  1.0
  In  In192  1  0.38418533  0.28107333  0.10279825  1.0
  In  In193  1  0.38418533  0.61440667  0.10279825  1.0
  In  In194  1  0.38418533  0.94774000  0.10279825  1.0
  In  In195  1  0.71751867  0.28107333  0.10279825  1.0
  In  In196  1  0.71751867  0.61440667  0.10279825  1.0
  In  In197  1  0.71751867  0.94774000  0.10279825  1.0
  In  In198  1  0.28248133  0.05226000  0.14078225  1.0
  In  In199  1  0.28248133  0.38559333  0.14078225  1.0
  In  In200  1  0.28248133  0.71892667  0.14078225  1.0
  In  In201  1  0.61581467  0.05226000  0.14078225  1.0
  In  In202  1  0.61581467  0.38559333  0.14078225  1.0
  In  In203  1  0.61581467  0.71892667  0.14078225  1.0
  In  In204  1  0.94914800  0.05226000  0.14078225  1.0
  In  In205  1  0.94914800  0.38559333  0.14078225  1.0
  In  In206  1  0.94914800  0.71892667  0.14078225  1.0
  In  In207  1  0.28248133  0.21892667  0.01578225  1.0
  In  In208  1  0.28248133  0.55226000  0.01578225  1.0
  In  In209  1  0.28248133  0.88559333  0.01578225  1.0
  In  In210  1  0.61581467  0.21892667  0.01578225  1.0
  In  In211  1  0.61581467  0.55226000  0.01578225  1.0
  In  In212  1  0.61581467  0.88559333  0.01578225  1.0
  In  In213  1  0.94914800  0.21892667  0.01578225  1.0
  In  In214  1  0.94914800  0.55226000  0.01578225  1.0
  In  In215  1  0.94914800  0.88559333  0.01578225  1.0
  Ni  Ni216  1  0.04676933  0.03600150  0.02878088  1.0
  Ni  Ni217  1  0.04676933  0.36933483  0.02878087  1.0
  Ni  Ni218  1  0.04676933  0.70266817  0.02878087  1.0
  Ni  Ni219  1  0.38010267  0.03600150  0.02878088  1.0
  Ni  Ni220  1  0.38010267  0.36933483  0.02878088  1.0
  Ni  Ni221  1  0.38010267  0.70266817  0.02878087  1.0
  Ni  Ni222  1  0.71343600  0.03600150  0.02878088  1.0
  Ni  Ni223  1  0.71343600  0.36933483  0.02878087  1.0
  Ni  Ni224  1  0.71343600  0.70266817  0.02878087  1.0
  Ni  Ni225  1  0.04676933  0.20266817  0.15378088  1.0
  Ni  Ni226  1  0.04676933  0.53600150  0.15378087  1.0
  Ni  Ni227  1  0.04676933  0.86933483  0.15378088  1.0
  Ni  Ni228  1  0.38010267  0.20266817  0.15378087  1.0
  Ni  Ni229  1  0.38010267  0.53600150  0.15378088  1.0
  Ni  Ni230  1  0.38010267  0.86933483  0.15378087  1.0
  Ni  Ni231  1  0.71343600  0.20266817  0.15378088  1.0
  Ni  Ni232  1  0.71343600  0.53600150  0.15378088  1.0
  Ni  Ni233  1  0.71343600  0.86933483  0.15378088  1.0
  Ni  Ni234  1  0.28656400  0.13066517  0.08979962  1.0
  Ni  Ni235  1  0.28656400  0.46399850  0.08979963  1.0
  Ni  Ni236  1  0.28656400  0.79733183  0.08979962  1.0
  Ni  Ni237  1  0.61989733  0.13066517  0.08979962  1.0
  Ni  Ni238  1  0.61989733  0.46399850  0.08979963  1.0
  Ni  Ni239  1  0.61989733  0.79733183  0.08979962  1.0
  Ni  Ni240  1  0.95323067  0.13066517  0.08979962  1.0
  Ni  Ni241  1  0.95323067  0.46399850  0.08979962  1.0
  Ni  Ni242  1  0.95323067  0.79733183  0.08979962  1.0
  Ni  Ni243  1  0.28656400  0.29733183  0.21479962  1.0
  Ni  Ni244  1  0.28656400  0.63066517  0.21479962  1.0
  Ni  Ni245  1  0.28656400  0.96399850  0.21479962  1.0
  Ni  Ni246  1  0.61989733  0.29733183  0.21479962  1.0
  Ni  Ni247  1  0.61989733  0.63066517  0.21479962  1.0
  Ni  Ni248  1  0.61989733  0.96399850  0.21479962  1.0
  Ni  Ni249  1  0.95323067  0.29733183  0.21479962  1.0
  Ni  Ni250  1  0.95323067  0.63066517  0.21479962  1.0
  Ni  Ni251  1  0.95323067  0.96399850  0.21479963  1.0
  Ni  Ni252  1  0.32404767  0.12494483  0.15721988  1.0
  Ni  Ni253  1  0.32404767  0.45827817  0.15721988  1.0
  Ni  Ni254  1  0.32404767  0.79161150  0.15721988  1.0
  Ni  Ni255  1  0.65738100  0.12494483  0.15721988  1.0
  Ni  Ni256  1  0.65738100  0.45827817  0.15721988  1.0
  Ni  Ni257  1  0.65738100  0.79161150  0.15721987  1.0
  Ni  Ni258  1  0.99071433  0.12494483  0.15721988  1.0
  Ni  Ni259  1  0.99071433  0.45827817  0.15721988  1.0
  Ni  Ni260  1  0.99071433  0.79161150  0.15721987  1.0
  Ni  Ni261  1  0.32404767  0.29161150  0.03221988  1.0
  Ni  Ni262  1  0.32404767  0.62494483  0.03221988  1.0
  Ni  Ni263  1  0.32404767  0.95827817  0.03221988  1.0
  Ni  Ni264  1  0.65738100  0.29161150  0.03221988  1.0
  Ni  Ni265  1  0.65738100  0.62494483  0.03221988  1.0
  Ni  Ni266  1  0.65738100  0.95827817  0.03221987  1.0
  Ni  Ni267  1  0.99071433  0.29161150  0.03221988  1.0
  Ni  Ni268  1  0.99071433  0.62494483  0.03221987  1.0
  Ni  Ni269  1  0.99071433  0.95827817  0.03221987  1.0
  Ni  Ni270  1  0.00928567  0.04172183  0.21136062  1.0
  Ni  Ni271  1  0.00928567  0.37505517  0.21136062  1.0
  Ni  Ni272  1  0.00928567  0.70838850  0.21136063  1.0
  Ni  Ni273  1  0.34261900  0.04172183  0.21136062  1.0
  Ni  Ni274  1  0.34261900  0.37505517  0.21136062  1.0
  Ni  Ni275  1  0.34261900  0.70838850  0.21136062  1.0
  Ni  Ni276  1  0.67595233  0.04172183  0.21136062  1.0
  Ni  Ni277  1  0.67595233  0.37505517  0.21136062  1.0
  Ni  Ni278  1  0.67595233  0.70838850  0.21136062  1.0
  Ni  Ni279  1  0.00928567  0.20838850  0.08636062  1.0
  Ni  Ni280  1  0.00928567  0.54172183  0.08636062  1.0
  Ni  Ni281  1  0.00928567  0.87505517  0.08636062  1.0
  Ni  Ni282  1  0.34261900  0.20838850  0.08636062  1.0
  Ni  Ni283  1  0.34261900  0.54172183  0.08636062  1.0
  Ni  Ni284  1  0.34261900  0.87505517  0.08636062  1.0
  Ni  Ni285  1  0.67595233  0.20838850  0.08636062  1.0
  Ni  Ni286  1  0.67595233  0.54172183  0.08636062  1.0
  Ni  Ni287  1  0.67595233  0.87505517  0.08636062  1.0
  Ni  Ni288  1  0.08080200  0.15625950  0.24407337  1.0
  Ni  Ni289  1  0.08080200  0.48959283  0.24407337  1.0
  Ni  Ni290  1  0.08080200  0.82292617  0.24407337  1.0
  Ni  Ni291  1  0.41413533  0.15625950  0.24407337  1.0
  Ni  Ni292  1  0.41413533  0.48959283  0.24407337  1.0
  Ni  Ni293  1  0.41413533  0.82292617  0.24407337  1.0
  Ni  Ni294  1  0.74746867  0.15625950  0.24407337  1.0
  Ni  Ni295  1  0.74746867  0.48959283  0.24407337  1.0
  Ni  Ni296  1  0.74746867  0.82292617  0.24407337  1.0
  Ni  Ni297  1  0.08080200  0.32292617  0.11907337  1.0
  Ni  Ni298  1  0.08080200  0.65625950  0.11907337  1.0
  Ni  Ni299  1  0.08080200  0.98959283  0.11907338  1.0
  Ni  Ni300  1  0.41413533  0.32292617  0.11907337  1.0
  Ni  Ni301  1  0.41413533  0.65625950  0.11907337  1.0
  Ni  Ni302  1  0.41413533  0.98959283  0.11907337  1.0
  Ni  Ni303  1  0.74746867  0.32292617  0.11907337  1.0
  Ni  Ni304  1  0.74746867  0.65625950  0.11907337  1.0
  Ni  Ni305  1  0.74746867  0.98959283  0.11907337  1.0
  Ni  Ni306  1  0.25253133  0.01040717  0.12450712  1.0
  Ni  Ni307  1  0.25253133  0.34374050  0.12450712  1.0
  Ni  Ni308  1  0.25253133  0.67707383  0.12450713  1.0
  Ni  Ni309  1  0.58586467  0.01040717  0.12450712  1.0
  Ni  Ni310  1  0.58586467  0.34374050  0.12450712  1.0
  Ni  Ni311  1  0.58586467  0.67707383  0.12450712  1.0
  Ni  Ni312  1  0.91919800  0.01040717  0.12450712  1.0
  Ni  Ni313  1  0.91919800  0.34374050  0.12450712  1.0
  Ni  Ni314  1  0.91919800  0.67707383  0.12450712  1.0
  Ni  Ni315  1  0.25253133  0.17707383  0.24950712  1.0
  Ni  Ni316  1  0.25253133  0.51040717  0.24950712  1.0
  Ni  Ni317  1  0.25253133  0.84374050  0.24950712  1.0
  Ni  Ni318  1  0.58586467  0.17707383  0.24950712  1.0
  Ni  Ni319  1  0.58586467  0.51040717  0.24950712  1.0
  Ni  Ni320  1  0.58586467  0.84374050  0.24950712  1.0
  Ni  Ni321  1  0.91919800  0.17707383  0.24950712  1.0
  Ni  Ni322  1  0.91919800  0.51040717  0.24950712  1.0
  Ni  Ni323  1  0.91919800  0.84374050  0.24950712  1.0
  Ni  Ni324  1  0.15861867  0.10605633  0.02084600  1.0
  Ni  Ni325  1  0.15861867  0.43938967  0.02084600  1.0
  Ni  Ni326  1  0.15861867  0.77272300  0.02084600  1.0
  Ni  Ni327  1  0.49195200  0.10605633  0.02084600  1.0
  Ni  Ni328  1  0.49195200  0.43938967  0.02084600  1.0
  Ni  Ni329  1  0.49195200  0.77272300  0.02084600  1.0
  Ni  Ni330  1  0.82528533  0.10605633  0.02084600  1.0
  Ni  Ni331  1  0.82528533  0.43938967  0.02084600  1.0
  Ni  Ni332  1  0.82528533  0.77272300  0.02084600  1.0
  Ni  Ni333  1  0.15861867  0.27272300  0.14584600  1.0
  Ni  Ni334  1  0.15861867  0.60605633  0.14584600  1.0
  Ni  Ni335  1  0.15861867  0.93938967  0.14584600  1.0
  Ni  Ni336  1  0.49195200  0.27272300  0.14584600  1.0
  Ni  Ni337  1  0.49195200  0.60605633  0.14584600  1.0
  Ni  Ni338  1  0.49195200  0.93938967  0.14584600  1.0
  Ni  Ni339  1  0.82528533  0.27272300  0.14584600  1.0
  Ni  Ni340  1  0.82528533  0.60605633  0.14584600  1.0
  Ni  Ni341  1  0.82528533  0.93938967  0.14584600  1.0
  Ni  Ni342  1  0.17471467  0.06061033  0.09773450  1.0
  Ni  Ni343  1  0.17471467  0.39394367  0.09773450  1.0
  Ni  Ni344  1  0.17471467  0.72727700  0.09773450  1.0
  Ni  Ni345  1  0.50804800  0.06061033  0.09773450  1.0
  Ni  Ni346  1  0.50804800  0.39394367  0.09773450  1.0
  Ni  Ni347  1  0.50804800  0.72727700  0.09773450  1.0
  Ni  Ni348  1  0.84138133  0.06061033  0.09773450  1.0
  Ni  Ni349  1  0.84138133  0.39394367  0.09773450  1.0
  Ni  Ni350  1  0.84138133  0.72727700  0.09773450  1.0
  Ni  Ni351  1  0.17471467  0.22727700  0.22273450  1.0
  Ni  Ni352  1  0.17471467  0.56061033  0.22273450  1.0
  Ni  Ni353  1  0.17471467  0.89394367  0.22273450  1.0
  Ni  Ni354  1  0.50804800  0.22727700  0.22273450  1.0
  Ni  Ni355  1  0.50804800  0.56061033  0.22273450  1.0
  Ni  Ni356  1  0.50804800  0.89394367  0.22273450  1.0
  Ni  Ni357  1  0.84138133  0.22727700  0.22273450  1.0
  Ni  Ni358  1  0.84138133  0.56061033  0.22273450  1.0
  Ni  Ni359  1  0.84138133  0.89394367  0.22273450  1.0
  Ni  Ni360  1  0.18537133  0.06064117  0.02356037  1.0
  Ni  Ni361  1  0.18537133  0.39397450  0.02356037  1.0
  Ni  Ni362  1  0.18537133  0.72730783  0.02356037  1.0
  Ni  Ni363  1  0.51870467  0.06064117  0.02356037  1.0
  Ni  Ni364  1  0.51870467  0.39397450  0.02356038  1.0
  Ni  Ni365  1  0.51870467  0.72730783  0.02356037  1.0
  Ni  Ni366  1  0.85203800  0.06064117  0.02356037  1.0
  Ni  Ni367  1  0.85203800  0.39397450  0.02356038  1.0
  Ni  Ni368  1  0.85203800  0.72730783  0.02356037  1.0
  Ni  Ni369  1  0.18537133  0.22730783  0.14856038  1.0
  Ni  Ni370  1  0.18537133  0.56064117  0.14856038  1.0
  Ni  Ni371  1  0.18537133  0.89397450  0.14856038  1.0
  Ni  Ni372  1  0.51870467  0.22730783  0.14856038  1.0
  Ni  Ni373  1  0.51870467  0.56064117  0.14856038  1.0
  Ni  Ni374  1  0.51870467  0.89397450  0.14856038  1.0
  Ni  Ni375  1  0.85203800  0.22730783  0.14856038  1.0
  Ni  Ni376  1  0.85203800  0.56064117  0.14856038  1.0
  Ni  Ni377  1  0.85203800  0.89397450  0.14856038  1.0
  Ni  Ni378  1  0.14796200  0.10602550  0.09502013  1.0
  Ni  Ni379  1  0.14796200  0.43935883  0.09502013  1.0
  Ni  Ni380  1  0.14796200  0.77269217  0.09502013  1.0
  Ni  Ni381  1  0.48129533  0.10602550  0.09502012  1.0
  Ni  Ni382  1  0.48129533  0.43935883  0.09502012  1.0
  Ni  Ni383  1  0.48129533  0.77269217  0.09502013  1.0
  Ni  Ni384  1  0.81462867  0.10602550  0.09502013  1.0
  Ni  Ni385  1  0.81462867  0.43935883  0.09502012  1.0
  Ni  Ni386  1  0.81462867  0.77269217  0.09502013  1.0
  Ni  Ni387  1  0.14796200  0.27269217  0.22002013  1.0
  Ni  Ni388  1  0.14796200  0.60602550  0.22002012  1.0
  Ni  Ni389  1  0.14796200  0.93935883  0.22002013  1.0
  Ni  Ni390  1  0.48129533  0.27269217  0.22002013  1.0
  Ni  Ni391  1  0.48129533  0.60602550  0.22002013  1.0
  Ni  Ni392  1  0.48129533  0.93935883  0.22002012  1.0
  Ni  Ni393  1  0.81462867  0.27269217  0.22002012  1.0
  Ni  Ni394  1  0.81462867  0.60602550  0.22002012  1.0
  Ni  Ni395  1  0.81462867  0.93935883  0.22002012  1.0
  Ni  Ni396  1  0.05145433  0.12106383  0.05020963  1.0
  Ni  Ni397  1  0.05145433  0.45439717  0.05020962  1.0
  Ni  Ni398  1  0.05145433  0.78773050  0.05020962  1.0
  Ni  Ni399  1  0.38478767  0.12106383  0.05020963  1.0
  Ni  Ni400  1  0.38478767  0.45439717  0.05020963  1.0
  Ni  Ni401  1  0.38478767  0.78773050  0.05020963  1.0
  Ni  Ni402  1  0.71812100  0.12106383  0.05020963  1.0
  Ni  Ni403  1  0.71812100  0.45439717  0.05020962  1.0
  Ni  Ni404  1  0.71812100  0.78773050  0.05020963  1.0
  Ni  Ni405  1  0.05145433  0.28773050  0.17520963  1.0
  Ni  Ni406  1  0.05145433  0.62106383  0.17520962  1.0
  Ni  Ni407  1  0.05145433  0.95439717  0.17520963  1.0
  Ni  Ni408  1  0.38478767  0.28773050  0.17520963  1.0
  Ni  Ni409  1  0.38478767  0.62106383  0.17520963  1.0
  Ni  Ni410  1  0.38478767  0.95439717  0.17520962  1.0
  Ni  Ni411  1  0.71812100  0.28773050  0.17520963  1.0
  Ni  Ni412  1  0.71812100  0.62106383  0.17520963  1.0
  Ni  Ni413  1  0.71812100  0.95439717  0.17520963  1.0
  Ni  Ni414  1  0.28187900  0.04560283  0.06837088  1.0
  Ni  Ni415  1  0.28187900  0.37893617  0.06837087  1.0
  Ni  Ni416  1  0.28187900  0.71226950  0.06837087  1.0
  Ni  Ni417  1  0.61521233  0.04560283  0.06837088  1.0
  Ni  Ni418  1  0.61521233  0.37893617  0.06837087  1.0
  Ni  Ni419  1  0.61521233  0.71226950  0.06837087  1.0
  Ni  Ni420  1  0.94854567  0.04560283  0.06837088  1.0
  Ni  Ni421  1  0.94854567  0.37893617  0.06837087  1.0
  Ni  Ni422  1  0.94854567  0.71226950  0.06837087  1.0
  Ni  Ni423  1  0.28187900  0.21226950  0.19337087  1.0
  Ni  Ni424  1  0.28187900  0.54560283  0.19337087  1.0
  Ni  Ni425  1  0.28187900  0.87893617  0.19337087  1.0
  Ni  Ni426  1  0.61521233  0.21226950  0.19337087  1.0
  Ni  Ni427  1  0.61521233  0.54560283  0.19337087  1.0
  Ni  Ni428  1  0.61521233  0.87893617  0.19337087  1.0
  Ni  Ni429  1  0.94854567  0.21226950  0.19337087  1.0
  Ni  Ni430  1  0.94854567  0.54560283  0.19337088  1.0
  Ni  Ni431  1  0.94854567  0.87893617  0.19337087  1.0
  Ni  Ni432  1  0.11035367  0.11043867  0.16353250  1.0
  Ni  Ni433  1  0.11035367  0.44377200  0.16353250  1.0
  Ni  Ni434  1  0.11035367  0.77710533  0.16353250  1.0
  Ni  Ni435  1  0.44368700  0.11043867  0.16353250  1.0
  Ni  Ni436  1  0.44368700  0.44377200  0.16353250  1.0
  Ni  Ni437  1  0.44368700  0.77710533  0.16353250  1.0
  Ni  Ni438  1  0.77702033  0.11043867  0.16353250  1.0
  Ni  Ni439  1  0.77702033  0.44377200  0.16353250  1.0
  Ni  Ni440  1  0.77702033  0.77710533  0.16353250  1.0
  Ni  Ni441  1  0.11035367  0.27710533  0.03853250  1.0
  Ni  Ni442  1  0.11035367  0.61043867  0.03853250  1.0
  Ni  Ni443  1  0.11035367  0.94377200  0.03853250  1.0
  Ni  Ni444  1  0.44368700  0.27710533  0.03853250  1.0
  Ni  Ni445  1  0.44368700  0.61043867  0.03853250  1.0
  Ni  Ni446  1  0.44368700  0.94377200  0.03853250  1.0
  Ni  Ni447  1  0.77702033  0.27710533  0.03853250  1.0
  Ni  Ni448  1  0.77702033  0.61043867  0.03853250  1.0
  Ni  Ni449  1  0.77702033  0.94377200  0.03853250  1.0
  Ni  Ni450  1  0.22297967  0.05622800  0.20504800  1.0
  Ni  Ni451  1  0.22297967  0.38956133  0.20504800  1.0
  Ni  Ni452  1  0.22297967  0.72289467  0.20504800  1.0
  Ni  Ni453  1  0.55631300  0.05622800  0.20504800  1.0
  Ni  Ni454  1  0.55631300  0.38956133  0.20504800  1.0
  Ni  Ni455  1  0.55631300  0.72289467  0.20504800  1.0
  Ni  Ni456  1  0.88964633  0.05622800  0.20504800  1.0
  Ni  Ni457  1  0.88964633  0.38956133  0.20504800  1.0
  Ni  Ni458  1  0.88964633  0.72289467  0.20504800  1.0
  Ni  Ni459  1  0.22297967  0.22289467  0.08004800  1.0
  Ni  Ni460  1  0.22297967  0.55622800  0.08004800  1.0
  Ni  Ni461  1  0.22297967  0.88956133  0.08004800  1.0
  Ni  Ni462  1  0.55631300  0.22289467  0.08004800  1.0
  Ni  Ni463  1  0.55631300  0.55622800  0.08004800  1.0
  Ni  Ni464  1  0.55631300  0.88956133  0.08004800  1.0
  Ni  Ni465  1  0.88964633  0.22289467  0.08004800  1.0
  Ni  Ni466  1  0.88964633  0.55622800  0.08004800  1.0
  Ni  Ni467  1  0.88964633  0.88956133  0.08004800  1.0
  Ni  Ni468  1  0.09132267  0.15309600  0.16842300  1.0
  Ni  Ni469  1  0.09132267  0.48642933  0.16842300  1.0
  Ni  Ni470  1  0.09132267  0.81976267  0.16842300  1.0
  Ni  Ni471  1  0.42465600  0.15309600  0.16842300  1.0
  Ni  Ni472  1  0.42465600  0.48642933  0.16842300  1.0
  Ni  Ni473  1  0.42465600  0.81976267  0.16842300  1.0
  Ni  Ni474  1  0.75798933  0.15309600  0.16842300  1.0
  Ni  Ni475  1  0.75798933  0.48642933  0.16842300  1.0
  Ni  Ni476  1  0.75798933  0.81976267  0.16842300  1.0
  Ni  Ni477  1  0.09132267  0.31976267  0.04342300  1.0
  Ni  Ni478  1  0.09132267  0.65309600  0.04342300  1.0
  Ni  Ni479  1  0.09132267  0.98642933  0.04342300  1.0
  Ni  Ni480  1  0.42465600  0.31976267  0.04342300  1.0
  Ni  Ni481  1  0.42465600  0.65309600  0.04342300  1.0
  Ni  Ni482  1  0.42465600  0.98642933  0.04342300  1.0
  Ni  Ni483  1  0.75798933  0.31976267  0.04342300  1.0
  Ni  Ni484  1  0.75798933  0.65309600  0.04342300  1.0
  Ni  Ni485  1  0.75798933  0.98642933  0.04342300  1.0
  Ni  Ni486  1  0.24201067  0.01357067  0.20015750  1.0
  Ni  Ni487  1  0.24201067  0.34690400  0.20015750  1.0
  Ni  Ni488  1  0.24201067  0.68023733  0.20015750  1.0
  Ni  Ni489  1  0.57534400  0.01357067  0.20015750  1.0
  Ni  Ni490  1  0.57534400  0.34690400  0.20015750  1.0
  Ni  Ni491  1  0.57534400  0.68023733  0.20015750  1.0
  Ni  Ni492  1  0.90867733  0.01357067  0.20015750  1.0
  Ni  Ni493  1  0.90867733  0.34690400  0.20015750  1.0
  Ni  Ni494  1  0.90867733  0.68023733  0.20015750  1.0
  Ni  Ni495  1  0.24201067  0.18023733  0.07515750  1.0
  Ni  Ni496  1  0.24201067  0.51357067  0.07515750  1.0
  Ni  Ni497  1  0.24201067  0.84690400  0.07515750  1.0
  Ni  Ni498  1  0.57534400  0.18023733  0.07515750  1.0
  Ni  Ni499  1  0.57534400  0.51357067  0.07515750  1.0
  Ni  Ni500  1  0.57534400  0.84690400  0.07515750  1.0
  Ni  Ni501  1  0.90867733  0.18023733  0.07515750  1.0
  Ni  Ni502  1  0.90867733  0.51357067  0.07515750  1.0
  Ni  Ni503  1  0.90867733  0.84690400  0.07515750  1.0
  Ni  Ni504  1  0.00000000  0.08333333  0.18429025  1.0
  Ni  Ni505  1  0.00000000  0.41666667  0.18429025  1.0
  Ni  Ni506  1  0.00000000  0.75000000  0.18429025  1.0
  Ni  Ni507  1  0.33333333  0.08333333  0.18429025  1.0
  Ni  Ni508  1  0.33333333  0.41666667  0.18429025  1.0
  Ni  Ni509  1  0.33333333  0.75000000  0.18429025  1.0
  Ni  Ni510  1  0.66666667  0.08333333  0.18429025  1.0
  Ni  Ni511  1  0.66666667  0.41666667  0.18429025  1.0
  Ni  Ni512  1  0.66666667  0.75000000  0.18429025  1.0
  Ni  Ni513  1  0.00000000  0.25000000  0.05929025  1.0
  Ni  Ni514  1  0.00000000  0.58333333  0.05929025  1.0
  Ni  Ni515  1  0.00000000  0.91666667  0.05929025  1.0
  Ni  Ni516  1  0.33333333  0.25000000  0.05929025  1.0
  Ni  Ni517  1  0.33333333  0.58333333  0.05929025  1.0
  Ni  Ni518  1  0.33333333  0.91666667  0.05929025  1.0
  Ni  Ni519  1  0.66666667  0.25000000  0.05929025  1.0
  Ni  Ni520  1  0.66666667  0.58333333  0.05929025  1.0
  Ni  Ni521  1  0.66666667  0.91666667  0.05929025  1.0
  Ni  Ni522  1  0.28367800  0.13324867  0.01077325  1.0
  Ni  Ni523  1  0.28367800  0.46658200  0.01077325  1.0
  Ni  Ni524  1  0.28367800  0.79991533  0.01077325  1.0
  Ni  Ni525  1  0.61701133  0.13324867  0.01077325  1.0
  Ni  Ni526  1  0.61701133  0.46658200  0.01077325  1.0
  Ni  Ni527  1  0.61701133  0.79991533  0.01077325  1.0
  Ni  Ni528  1  0.95034467  0.13324867  0.01077325  1.0
  Ni  Ni529  1  0.95034467  0.46658200  0.01077325  1.0
  Ni  Ni530  1  0.95034467  0.79991533  0.01077325  1.0
  Ni  Ni531  1  0.28367800  0.29991533  0.13577325  1.0
  Ni  Ni532  1  0.28367800  0.63324867  0.13577325  1.0
  Ni  Ni533  1  0.28367800  0.96658200  0.13577325  1.0
  Ni  Ni534  1  0.61701133  0.29991533  0.13577325  1.0
  Ni  Ni535  1  0.61701133  0.63324867  0.13577325  1.0
  Ni  Ni536  1  0.61701133  0.96658200  0.13577325  1.0
  Ni  Ni537  1  0.95034467  0.29991533  0.13577325  1.0
  Ni  Ni538  1  0.95034467  0.63324867  0.13577325  1.0
  Ni  Ni539  1  0.95034467  0.96658200  0.13577325  1.0
  Ni  Ni540  1  0.04965533  0.03341800  0.10780725  1.0
  Ni  Ni541  1  0.04965533  0.36675133  0.10780725  1.0
  Ni  Ni542  1  0.04965533  0.70008467  0.10780725  1.0
  Ni  Ni543  1  0.38298867  0.03341800  0.10780725  1.0
  Ni  Ni544  1  0.38298867  0.36675133  0.10780725  1.0
  Ni  Ni545  1  0.38298867  0.70008467  0.10780725  1.0
  Ni  Ni546  1  0.71632200  0.03341800  0.10780725  1.0
  Ni  Ni547  1  0.71632200  0.36675133  0.10780725  1.0
  Ni  Ni548  1  0.71632200  0.70008467  0.10780725  1.0
  Ni  Ni549  1  0.04965533  0.20008467  0.23280725  1.0
  Ni  Ni550  1  0.04965533  0.53341800  0.23280725  1.0
  Ni  Ni551  1  0.04965533  0.86675133  0.23280725  1.0
  Ni  Ni552  1  0.38298867  0.20008467  0.23280725  1.0
  Ni  Ni553  1  0.38298867  0.53341800  0.23280725  1.0
  Ni  Ni554  1  0.38298867  0.86675133  0.23280725  1.0
  Ni  Ni555  1  0.71632200  0.20008467  0.23280725  1.0
  Ni  Ni556  1  0.71632200  0.53341800  0.23280725  1.0
  Ni  Ni557  1  0.71632200  0.86675133  0.23280725  1.0
  Ni  Ni558  1  0.02379767  0.09726567  0.11537075  1.0
  Ni  Ni559  1  0.02379767  0.43059900  0.11537075  1.0
  Ni  Ni560  1  0.02379767  0.76393233  0.11537075  1.0
  Ni  Ni561  1  0.35713100  0.09726567  0.11537075  1.0
  Ni  Ni562  1  0.35713100  0.43059900  0.11537075  1.0
  Ni  Ni563  1  0.35713100  0.76393233  0.11537075  1.0
  Ni  Ni564  1  0.69046433  0.09726567  0.11537075  1.0
  Ni  Ni565  1  0.69046433  0.43059900  0.11537075  1.0
  Ni  Ni566  1  0.69046433  0.76393233  0.11537075  1.0
  Ni  Ni567  1  0.02379767  0.26393233  0.24037075  1.0
  Ni  Ni568  1  0.02379767  0.59726567  0.24037075  1.0
  Ni  Ni569  1  0.02379767  0.93059900  0.24037075  1.0
  Ni  Ni570  1  0.35713100  0.26393233  0.24037075  1.0
  Ni  Ni571  1  0.35713100  0.59726567  0.24037075  1.0
  Ni  Ni572  1  0.35713100  0.93059900  0.24037075  1.0
  Ni  Ni573  1  0.69046433  0.26393233  0.24037075  1.0
  Ni  Ni574  1  0.69046433  0.59726567  0.24037075  1.0
  Ni  Ni575  1  0.69046433  0.93059900  0.24037075  1.0
  Ni  Ni576  1  0.30953567  0.06940100  0.00320975  1.0
  Ni  Ni577  1  0.30953567  0.40273433  0.00320975  1.0
  Ni  Ni578  1  0.30953567  0.73606767  0.00320975  1.0
  Ni  Ni579  1  0.64286900  0.06940100  0.00320975  1.0
  Ni  Ni580  1  0.64286900  0.40273433  0.00320975  1.0
  Ni  Ni581  1  0.64286900  0.73606767  0.00320975  1.0
  Ni  Ni582  1  0.97620233  0.06940100  0.00320975  1.0
  Ni  Ni583  1  0.97620233  0.40273433  0.00320975  1.0
  Ni  Ni584  1  0.97620233  0.73606767  0.00320975  1.0
  Ni  Ni585  1  0.30953567  0.23606767  0.12820975  1.0
  Ni  Ni586  1  0.30953567  0.56940100  0.12820975  1.0
  Ni  Ni587  1  0.30953567  0.90273433  0.12820975  1.0
  Ni  Ni588  1  0.64286900  0.23606767  0.12820975  1.0
  Ni  Ni589  1  0.64286900  0.56940100  0.12820975  1.0
  Ni  Ni590  1  0.64286900  0.90273433  0.12820975  1.0
  Ni  Ni591  1  0.97620233  0.23606767  0.12820975  1.0
  Ni  Ni592  1  0.97620233  0.56940100  0.12820975  1.0
  Ni  Ni593  1  0.97620233  0.90273433  0.12820975  1.0
  Ni  Ni594  1  0.18231900  0.14143867  0.21586900  1.0
  Ni  Ni595  1  0.18231900  0.47477200  0.21586900  1.0
  Ni  Ni596  1  0.18231900  0.80810533  0.21586900  1.0
  Ni  Ni597  1  0.51565233  0.14143867  0.21586900  1.0
  Ni  Ni598  1  0.51565233  0.47477200  0.21586900  1.0
  Ni  Ni599  1  0.51565233  0.80810533  0.21586900  1.0
  Ni  Ni600  1  0.84898567  0.14143867  0.21586900  1.0
  Ni  Ni601  1  0.84898567  0.47477200  0.21586900  1.0
  Ni  Ni602  1  0.84898567  0.80810533  0.21586900  1.0
  Ni  Ni603  1  0.18231900  0.30810533  0.09086900  1.0
  Ni  Ni604  1  0.18231900  0.64143867  0.09086900  1.0
  Ni  Ni605  1  0.18231900  0.97477200  0.09086900  1.0
  Ni  Ni606  1  0.51565233  0.30810533  0.09086900  1.0
  Ni  Ni607  1  0.51565233  0.64143867  0.09086900  1.0
  Ni  Ni608  1  0.51565233  0.97477200  0.09086900  1.0
  Ni  Ni609  1  0.84898567  0.30810533  0.09086900  1.0
  Ni  Ni610  1  0.84898567  0.64143867  0.09086900  1.0
  Ni  Ni611  1  0.84898567  0.97477200  0.09086900  1.0
  Ni  Ni612  1  0.15101433  0.02522800  0.15271150  1.0
  Ni  Ni613  1  0.15101433  0.35856133  0.15271150  1.0
  Ni  Ni614  1  0.15101433  0.69189467  0.15271150  1.0
  Ni  Ni615  1  0.48434767  0.02522800  0.15271150  1.0
  Ni  Ni616  1  0.48434767  0.35856133  0.15271150  1.0
  Ni  Ni617  1  0.48434767  0.69189467  0.15271150  1.0
  Ni  Ni618  1  0.81768100  0.02522800  0.15271150  1.0
  Ni  Ni619  1  0.81768100  0.35856133  0.15271150  1.0
  Ni  Ni620  1  0.81768100  0.69189467  0.15271150  1.0
  Ni  Ni621  1  0.15101433  0.19189467  0.02771150  1.0
  Ni  Ni622  1  0.15101433  0.52522800  0.02771150  1.0
  Ni  Ni623  1  0.15101433  0.85856133  0.02771150  1.0
  Ni  Ni624  1  0.48434767  0.19189467  0.02771150  1.0
  Ni  Ni625  1  0.48434767  0.52522800  0.02771150  1.0
  Ni  Ni626  1  0.48434767  0.85856133  0.02771150  1.0
  Ni  Ni627  1  0.81768100  0.19189467  0.02771150  1.0
  Ni  Ni628  1  0.81768100  0.52522800  0.02771150  1.0
  Ni  Ni629  1  0.81768100  0.85856133  0.02771150  1.0
  Ni  Ni630  1  0.08074733  0.13925483  0.10638462  1.0
  Ni  Ni631  1  0.08074733  0.47258817  0.10638462  1.0
  Ni  Ni632  1  0.08074733  0.80592150  0.10638462  1.0
  Ni  Ni633  1  0.41408067  0.13925483  0.10638462  1.0
  Ni  Ni634  1  0.41408067  0.47258817  0.10638462  1.0
  Ni  Ni635  1  0.41408067  0.80592150  0.10638462  1.0
  Ni  Ni636  1  0.74741400  0.13925483  0.10638462  1.0
  Ni  Ni637  1  0.74741400  0.47258817  0.10638462  1.0
  Ni  Ni638  1  0.74741400  0.80592150  0.10638462  1.0
  Ni  Ni639  1  0.08074733  0.30592150  0.23138462  1.0
  Ni  Ni640  1  0.08074733  0.63925483  0.23138462  1.0
  Ni  Ni641  1  0.08074733  0.97258817  0.23138463  1.0
  Ni  Ni642  1  0.41408067  0.30592150  0.23138462  1.0
  Ni  Ni643  1  0.41408067  0.63925483  0.23138462  1.0
  Ni  Ni644  1  0.41408067  0.97258817  0.23138463  1.0
  Ni  Ni645  1  0.74741400  0.30592150  0.23138462  1.0
  Ni  Ni646  1  0.74741400  0.63925483  0.23138463  1.0
  Ni  Ni647  1  0.74741400  0.97258817  0.23138462  1.0
  Ni  Ni648  1  0.25258600  0.02741183  0.01219588  1.0
  Ni  Ni649  1  0.25258600  0.36074517  0.01219588  1.0
  Ni  Ni650  1  0.25258600  0.69407850  0.01219587  1.0
  Ni  Ni651  1  0.58591933  0.02741183  0.01219588  1.0
  Ni  Ni652  1  0.58591933  0.36074517  0.01219588  1.0
  Ni  Ni653  1  0.58591933  0.69407850  0.01219587  1.0
  Ni  Ni654  1  0.91925267  0.02741183  0.01219588  1.0
  Ni  Ni655  1  0.91925267  0.36074517  0.01219588  1.0
  Ni  Ni656  1  0.91925267  0.69407850  0.01219588  1.0
  Ni  Ni657  1  0.25258600  0.19407850  0.13719588  1.0
  Ni  Ni658  1  0.25258600  0.52741183  0.13719588  1.0
  Ni  Ni659  1  0.25258600  0.86074517  0.13719587  1.0
  Ni  Ni660  1  0.58591933  0.19407850  0.13719588  1.0
  Ni  Ni661  1  0.58591933  0.52741183  0.13719588  1.0
  Ni  Ni662  1  0.58591933  0.86074517  0.13719588  1.0
  Ni  Ni663  1  0.91925267  0.19407850  0.13719588  1.0
  Ni  Ni664  1  0.91925267  0.52741183  0.13719588  1.0
  Ni  Ni665  1  0.91925267  0.86074517  0.13719588  1.0
  Ni  Ni666  1  0.00000000  0.16666667  0.12179025  1.0
  Ni  Ni667  1  0.00000000  0.50000000  0.12179025  1.0
  Ni  Ni668  1  0.00000000  0.83333333  0.12179025  1.0
  Ni  Ni669  1  0.33333333  0.16666667  0.12179025  1.0
  Ni  Ni670  1  0.33333333  0.50000000  0.12179025  1.0
  Ni  Ni671  1  0.33333333  0.83333333  0.12179025  1.0
  Ni  Ni672  1  0.66666667  0.16666667  0.12179025  1.0
  Ni  Ni673  1  0.66666667  0.50000000  0.12179025  1.0
  Ni  Ni674  1  0.66666667  0.83333333  0.12179025  1.0
  Ni  Ni675  1  0.00000000  0.00000000  0.24679025  1.0
  Ni  Ni676  1  0.00000000  0.33333333  0.24679025  1.0
  Ni  Ni677  1  0.00000000  0.66666667  0.24679025  1.0
  Ni  Ni678  1  0.33333333  0.00000000  0.24679025  1.0
  Ni  Ni679  1  0.33333333  0.33333333  0.24679025  1.0
  Ni  Ni680  1  0.33333333  0.66666667  0.24679025  1.0
  Ni  Ni681  1  0.66666667  0.00000000  0.24679025  1.0
  Ni  Ni682  1  0.66666667  0.33333333  0.24679025  1.0
  Ni  Ni683  1  0.66666667  0.66666667  0.24679025  1.0
  Ni  Ni684  1  0.09961533  0.07289817  0.22820462  1.0
  Ni  Ni685  1  0.09961533  0.40623150  0.22820462  1.0
  Ni  Ni686  1  0.09961533  0.73956483  0.22820462  1.0
  Ni  Ni687  1  0.43294867  0.07289817  0.22820462  1.0
  Ni  Ni688  1  0.43294867  0.40623150  0.22820462  1.0
  Ni  Ni689  1  0.43294867  0.73956483  0.22820463  1.0
  Ni  Ni690  1  0.76628200  0.07289817  0.22820462  1.0
  Ni  Ni691  1  0.76628200  0.40623150  0.22820463  1.0
  Ni  Ni692  1  0.76628200  0.73956483  0.22820463  1.0
  Ni  Ni693  1  0.09961533  0.23956483  0.10320463  1.0
  Ni  Ni694  1  0.09961533  0.57289817  0.10320462  1.0
  Ni  Ni695  1  0.09961533  0.90623150  0.10320462  1.0
  Ni  Ni696  1  0.43294867  0.23956483  0.10320463  1.0
  Ni  Ni697  1  0.43294867  0.57289817  0.10320462  1.0
  Ni  Ni698  1  0.43294867  0.90623150  0.10320462  1.0
  Ni  Ni699  1  0.76628200  0.23956483  0.10320462  1.0
  Ni  Ni700  1  0.76628200  0.57289817  0.10320462  1.0
  Ni  Ni701  1  0.76628200  0.90623150  0.10320462  1.0
  Ni  Ni702  1  0.23371800  0.09376850  0.14037587  1.0
  Ni  Ni703  1  0.23371800  0.42710183  0.14037588  1.0
  Ni  Ni704  1  0.23371800  0.76043517  0.14037587  1.0
  Ni  Ni705  1  0.56705133  0.09376850  0.14037587  1.0
  Ni  Ni706  1  0.56705133  0.42710183  0.14037587  1.0
  Ni  Ni707  1  0.56705133  0.76043517  0.14037588  1.0
  Ni  Ni708  1  0.90038467  0.09376850  0.14037588  1.0
  Ni  Ni709  1  0.90038467  0.42710183  0.14037588  1.0
  Ni  Ni710  1  0.90038467  0.76043517  0.14037588  1.0
  Ni  Ni711  1  0.23371800  0.26043517  0.01537587  1.0
  Ni  Ni712  1  0.23371800  0.59376850  0.01537587  1.0
  Ni  Ni713  1  0.23371800  0.92710183  0.01537587  1.0
  Ni  Ni714  1  0.56705133  0.26043517  0.01537587  1.0
  Ni  Ni715  1  0.56705133  0.59376850  0.01537587  1.0
  Ni  Ni716  1  0.56705133  0.92710183  0.01537587  1.0
  Ni  Ni717  1  0.90038467  0.26043517  0.01537587  1.0
  Ni  Ni718  1  0.90038467  0.59376850  0.01537587  1.0
  Ni  Ni719  1  0.90038467  0.92710183  0.01537587  1.0
  In  In720  1  0.22522933  0.10074733  0.46201275  1.0
  In  In721  1  0.22522933  0.43408067  0.46201275  1.0
  In  In722  1  0.22522933  0.76741400  0.46201275  1.0
  In  In723  1  0.55856267  0.10074733  0.46201275  1.0
  In  In724  1  0.55856267  0.43408067  0.46201275  1.0
  In  In725  1  0.55856267  0.76741400  0.46201275  1.0
  In  In726  1  0.89189600  0.10074733  0.46201275  1.0
  In  In727  1  0.89189600  0.43408067  0.46201275  1.0
  In  In728  1  0.89189600  0.76741400  0.46201275  1.0
  In  In729  1  0.22522933  0.26741400  0.33701275  1.0
  In  In730  1  0.22522933  0.60074733  0.33701275  1.0
  In  In731  1  0.22522933  0.93408067  0.33701275  1.0
  In  In732  1  0.55856267  0.26741400  0.33701275  1.0
  In  In733  1  0.55856267  0.60074733  0.33701275  1.0
  In  In734  1  0.55856267  0.93408067  0.33701275  1.0
  In  In735  1  0.89189600  0.26741400  0.33701275  1.0
  In  In736  1  0.89189600  0.60074733  0.33701275  1.0
  In  In737  1  0.89189600  0.93408067  0.33701275  1.0
  In  In738  1  0.10810400  0.06591933  0.40656775  1.0
  In  In739  1  0.10810400  0.39925267  0.40656775  1.0
  In  In740  1  0.10810400  0.73258600  0.40656775  1.0
  In  In741  1  0.44143733  0.06591933  0.40656775  1.0
  In  In742  1  0.44143733  0.39925267  0.40656775  1.0
  In  In743  1  0.44143733  0.73258600  0.40656775  1.0
  In  In744  1  0.77477067  0.06591933  0.40656775  1.0
  In  In745  1  0.77477067  0.39925267  0.40656775  1.0
  In  In746  1  0.77477067  0.73258600  0.40656775  1.0
  In  In747  1  0.10810400  0.23258600  0.28156775  1.0
  In  In748  1  0.10810400  0.56591933  0.28156775  1.0
  In  In749  1  0.10810400  0.89925267  0.28156775  1.0
  In  In750  1  0.44143733  0.23258600  0.28156775  1.0
  In  In751  1  0.44143733  0.56591933  0.28156775  1.0
  In  In752  1  0.44143733  0.89925267  0.28156775  1.0
  In  In753  1  0.77477067  0.23258600  0.28156775  1.0
  In  In754  1  0.77477067  0.56591933  0.28156775  1.0
  In  In755  1  0.77477067  0.89925267  0.28156775  1.0
  In  In756  1  0.31181900  0.16419367  0.44558825  1.0
  In  In757  1  0.31181900  0.49752700  0.44558825  1.0
  In  In758  1  0.31181900  0.83086033  0.44558825  1.0
  In  In759  1  0.64515233  0.16419367  0.44558825  1.0
  In  In760  1  0.64515233  0.49752700  0.44558825  1.0
  In  In761  1  0.64515233  0.83086033  0.44558825  1.0
  In  In762  1  0.97848567  0.16419367  0.44558825  1.0
  In  In763  1  0.97848567  0.49752700  0.44558825  1.0
  In  In764  1  0.97848567  0.83086033  0.44558825  1.0
  In  In765  1  0.31181900  0.33086033  0.32058825  1.0
  In  In766  1  0.31181900  0.66419367  0.32058825  1.0
  In  In767  1  0.31181900  0.99752700  0.32058825  1.0
  In  In768  1  0.64515233  0.33086033  0.32058825  1.0
  In  In769  1  0.64515233  0.66419367  0.32058825  1.0
  In  In770  1  0.64515233  0.99752700  0.32058825  1.0
  In  In771  1  0.97848567  0.33086033  0.32058825  1.0
  In  In772  1  0.97848567  0.66419367  0.32058825  1.0
  In  In773  1  0.97848567  0.99752700  0.32058825  1.0
  In  In774  1  0.02151433  0.00247300  0.42299225  1.0
  In  In775  1  0.02151433  0.33580633  0.42299225  1.0
  In  In776  1  0.02151433  0.66913967  0.42299225  1.0
  In  In777  1  0.35484767  0.00247300  0.42299225  1.0
  In  In778  1  0.35484767  0.33580633  0.42299225  1.0
  In  In779  1  0.35484767  0.66913967  0.42299225  1.0
  In  In780  1  0.68818100  0.00247300  0.42299225  1.0
  In  In781  1  0.68818100  0.33580633  0.42299225  1.0
  In  In782  1  0.68818100  0.66913967  0.42299225  1.0
  In  In783  1  0.02151433  0.16913967  0.29799225  1.0
  In  In784  1  0.02151433  0.50247300  0.29799225  1.0
  In  In785  1  0.02151433  0.83580633  0.29799225  1.0
  In  In786  1  0.35484767  0.16913967  0.29799225  1.0
  In  In787  1  0.35484767  0.50247300  0.29799225  1.0
  In  In788  1  0.35484767  0.83580633  0.29799225  1.0
  In  In789  1  0.68818100  0.16913967  0.29799225  1.0
  In  In790  1  0.68818100  0.50247300  0.29799225  1.0
  In  In791  1  0.68818100  0.83580633  0.29799225  1.0
  In  In792  1  0.07012933  0.07425683  0.30896112  1.0
  In  In793  1  0.07012933  0.40759017  0.30896112  1.0
  In  In794  1  0.07012933  0.74092350  0.30896112  1.0
  In  In795  1  0.40346267  0.07425683  0.30896112  1.0
  In  In796  1  0.40346267  0.40759017  0.30896112  1.0
  In  In797  1  0.40346267  0.74092350  0.30896112  1.0
  In  In798  1  0.73679600  0.07425683  0.30896112  1.0
  In  In799  1  0.73679600  0.40759017  0.30896112  1.0
  In  In800  1  0.73679600  0.74092350  0.30896112  1.0
  In  In801  1  0.07012933  0.24092350  0.43396113  1.0
  In  In802  1  0.07012933  0.57425683  0.43396113  1.0
  In  In803  1  0.07012933  0.90759017  0.43396113  1.0
  In  In804  1  0.40346267  0.24092350  0.43396113  1.0
  In  In805  1  0.40346267  0.57425683  0.43396113  1.0
  In  In806  1  0.40346267  0.90759017  0.43396113  1.0
  In  In807  1  0.73679600  0.24092350  0.43396113  1.0
  In  In808  1  0.73679600  0.57425683  0.43396113  1.0
  In  In809  1  0.73679600  0.90759017  0.43396113  1.0
  In  In810  1  0.26320400  0.09240983  0.30961938  1.0
  In  In811  1  0.26320400  0.42574317  0.30961937  1.0
  In  In812  1  0.26320400  0.75907650  0.30961938  1.0
  In  In813  1  0.59653733  0.09240983  0.30961937  1.0
  In  In814  1  0.59653733  0.42574317  0.30961938  1.0
  In  In815  1  0.59653733  0.75907650  0.30961937  1.0
  In  In816  1  0.92987067  0.09240983  0.30961937  1.0
  In  In817  1  0.92987067  0.42574317  0.30961938  1.0
  In  In818  1  0.92987067  0.75907650  0.30961937  1.0
  In  In819  1  0.26320400  0.25907650  0.43461937  1.0
  In  In820  1  0.26320400  0.59240983  0.43461937  1.0
  In  In821  1  0.26320400  0.92574317  0.43461938  1.0
  In  In822  1  0.59653733  0.25907650  0.43461938  1.0
  In  In823  1  0.59653733  0.59240983  0.43461937  1.0
  In  In824  1  0.59653733  0.92574317  0.43461938  1.0
  In  In825  1  0.92987067  0.25907650  0.43461937  1.0
  In  In826  1  0.92987067  0.59240983  0.43461937  1.0
  In  In827  1  0.92987067  0.92574317  0.43461937  1.0
  In  In828  1  0.17567900  0.14593150  0.29610762  1.0
  In  In829  1  0.17567900  0.47926483  0.29610762  1.0
  In  In830  1  0.17567900  0.81259817  0.29610762  1.0
  In  In831  1  0.50901233  0.14593150  0.29610762  1.0
  In  In832  1  0.50901233  0.47926483  0.29610762  1.0
  In  In833  1  0.50901233  0.81259817  0.29610762  1.0
  In  In834  1  0.84234567  0.14593150  0.29610762  1.0
  In  In835  1  0.84234567  0.47926483  0.29610762  1.0
  In  In836  1  0.84234567  0.81259817  0.29610762  1.0
  In  In837  1  0.17567900  0.31259817  0.42110762  1.0
  In  In838  1  0.17567900  0.64593150  0.42110762  1.0
  In  In839  1  0.17567900  0.97926483  0.42110762  1.0
  In  In840  1  0.50901233  0.31259817  0.42110762  1.0
  In  In841  1  0.50901233  0.64593150  0.42110762  1.0
  In  In842  1  0.50901233  0.97926483  0.42110762  1.0
  In  In843  1  0.84234567  0.31259817  0.42110762  1.0
  In  In844  1  0.84234567  0.64593150  0.42110762  1.0
  In  In845  1  0.84234567  0.97926483  0.42110762  1.0
  In  In846  1  0.15765433  0.02073517  0.32247287  1.0
  In  In847  1  0.15765433  0.35406850  0.32247287  1.0
  In  In848  1  0.15765433  0.68740183  0.32247287  1.0
  In  In849  1  0.49098767  0.02073517  0.32247287  1.0
  In  In850  1  0.49098767  0.35406850  0.32247287  1.0
  In  In851  1  0.49098767  0.68740183  0.32247287  1.0
  In  In852  1  0.82432100  0.02073517  0.32247287  1.0
  In  In853  1  0.82432100  0.35406850  0.32247287  1.0
  In  In854  1  0.82432100  0.68740183  0.32247288  1.0
  In  In855  1  0.15765433  0.18740183  0.44747287  1.0
  In  In856  1  0.15765433  0.52073517  0.44747287  1.0
  In  In857  1  0.15765433  0.85406850  0.44747287  1.0
  In  In858  1  0.49098767  0.18740183  0.44747287  1.0
  In  In859  1  0.49098767  0.52073517  0.44747287  1.0
  In  In860  1  0.49098767  0.85406850  0.44747287  1.0
  In  In861  1  0.82432100  0.18740183  0.44747287  1.0
  In  In862  1  0.82432100  0.52073517  0.44747287  1.0
  In  In863  1  0.82432100  0.85406850  0.44747288  1.0
  In  In864  1  0.12663200  0.02235667  0.48082925  1.0
  In  In865  1  0.12663200  0.35569000  0.48082925  1.0
  In  In866  1  0.12663200  0.68902333  0.48082925  1.0
  In  In867  1  0.45996533  0.02235667  0.48082925  1.0
  In  In868  1  0.45996533  0.35569000  0.48082925  1.0
  In  In869  1  0.45996533  0.68902333  0.48082925  1.0
  In  In870  1  0.79329867  0.02235667  0.48082925  1.0
  In  In871  1  0.79329867  0.35569000  0.48082925  1.0
  In  In872  1  0.79329867  0.68902333  0.48082925  1.0
  In  In873  1  0.12663200  0.18902333  0.35582925  1.0
  In  In874  1  0.12663200  0.52235667  0.35582925  1.0
  In  In875  1  0.12663200  0.85569000  0.35582925  1.0
  In  In876  1  0.45996533  0.18902333  0.35582925  1.0
  In  In877  1  0.45996533  0.52235667  0.35582925  1.0
  In  In878  1  0.45996533  0.85569000  0.35582925  1.0
  In  In879  1  0.79329867  0.18902333  0.35582925  1.0
  In  In880  1  0.79329867  0.52235667  0.35582925  1.0
  In  In881  1  0.79329867  0.85569000  0.35582925  1.0
  In  In882  1  0.20670133  0.14431000  0.38775125  1.0
  In  In883  1  0.20670133  0.47764333  0.38775125  1.0
  In  In884  1  0.20670133  0.81097667  0.38775125  1.0
  In  In885  1  0.54003467  0.14431000  0.38775125  1.0
  In  In886  1  0.54003467  0.47764333  0.38775125  1.0
  In  In887  1  0.54003467  0.81097667  0.38775125  1.0
  In  In888  1  0.87336800  0.14431000  0.38775125  1.0
  In  In889  1  0.87336800  0.47764333  0.38775125  1.0
  In  In890  1  0.87336800  0.81097667  0.38775125  1.0
  In  In891  1  0.20670133  0.31097667  0.26275125  1.0
  In  In892  1  0.20670133  0.64431000  0.26275125  1.0
  In  In893  1  0.20670133  0.97764333  0.26275125  1.0
  In  In894  1  0.54003467  0.31097667  0.26275125  1.0
  In  In895  1  0.54003467  0.64431000  0.26275125  1.0
  In  In896  1  0.54003467  0.97764333  0.26275125  1.0
  In  In897  1  0.87336800  0.31097667  0.26275125  1.0
  In  In898  1  0.87336800  0.64431000  0.26275125  1.0
  In  In899  1  0.87336800  0.97764333  0.26275125  1.0
  In  In900  1  0.05085200  0.11440667  0.47779825  1.0
  In  In901  1  0.05085200  0.44774000  0.47779825  1.0
  In  In902  1  0.05085200  0.78107333  0.47779825  1.0
  In  In903  1  0.38418533  0.11440667  0.47779825  1.0
  In  In904  1  0.38418533  0.44774000  0.47779825  1.0
  In  In905  1  0.38418533  0.78107333  0.47779825  1.0
  In  In906  1  0.71751867  0.11440667  0.47779825  1.0
  In  In907  1  0.71751867  0.44774000  0.47779825  1.0
  In  In908  1  0.71751867  0.78107333  0.47779825  1.0
  In  In909  1  0.05085200  0.28107333  0.35279825  1.0
  In  In910  1  0.05085200  0.61440667  0.35279825  1.0
  In  In911  1  0.05085200  0.94774000  0.35279825  1.0
  In  In912  1  0.38418533  0.28107333  0.35279825  1.0
  In  In913  1  0.38418533  0.61440667  0.35279825  1.0
  In  In914  1  0.38418533  0.94774000  0.35279825  1.0
  In  In915  1  0.71751867  0.28107333  0.35279825  1.0
  In  In916  1  0.71751867  0.61440667  0.35279825  1.0
  In  In917  1  0.71751867  0.94774000  0.35279825  1.0
  In  In918  1  0.28248133  0.05226000  0.39078225  1.0
  In  In919  1  0.28248133  0.38559333  0.39078225  1.0
  In  In920  1  0.28248133  0.71892667  0.39078225  1.0
  In  In921  1  0.61581467  0.05226000  0.39078225  1.0
  In  In922  1  0.61581467  0.38559333  0.39078225  1.0
  In  In923  1  0.61581467  0.71892667  0.39078225  1.0
  In  In924  1  0.94914800  0.05226000  0.39078225  1.0
  In  In925  1  0.94914800  0.38559333  0.39078225  1.0
  In  In926  1  0.94914800  0.71892667  0.39078225  1.0
  In  In927  1  0.28248133  0.21892667  0.26578225  1.0
  In  In928  1  0.28248133  0.55226000  0.26578225  1.0
  In  In929  1  0.28248133  0.88559333  0.26578225  1.0
  In  In930  1  0.61581467  0.21892667  0.26578225  1.0
  In  In931  1  0.61581467  0.55226000  0.26578225  1.0
  In  In932  1  0.61581467  0.88559333  0.26578225  1.0
  In  In933  1  0.94914800  0.21892667  0.26578225  1.0
  In  In934  1  0.94914800  0.55226000  0.26578225  1.0
  In  In935  1  0.94914800  0.88559333  0.26578225  1.0
  Ni  Ni936  1  0.04676933  0.03600150  0.27878087  1.0
  Ni  Ni937  1  0.04676933  0.36933483  0.27878087  1.0
  Ni  Ni938  1  0.04676933  0.70266817  0.27878087  1.0
  Ni  Ni939  1  0.38010267  0.03600150  0.27878087  1.0
  Ni  Ni940  1  0.38010267  0.36933483  0.27878087  1.0
  Ni  Ni941  1  0.38010267  0.70266817  0.27878087  1.0
  Ni  Ni942  1  0.71343600  0.03600150  0.27878087  1.0
  Ni  Ni943  1  0.71343600  0.36933483  0.27878087  1.0
  Ni  Ni944  1  0.71343600  0.70266817  0.27878087  1.0
  Ni  Ni945  1  0.04676933  0.20266817  0.40378088  1.0
  Ni  Ni946  1  0.04676933  0.53600150  0.40378088  1.0
  Ni  Ni947  1  0.04676933  0.86933483  0.40378088  1.0
  Ni  Ni948  1  0.38010267  0.20266817  0.40378088  1.0
  Ni  Ni949  1  0.38010267  0.53600150  0.40378087  1.0
  Ni  Ni950  1  0.38010267  0.86933483  0.40378088  1.0
  Ni  Ni951  1  0.71343600  0.20266817  0.40378087  1.0
  Ni  Ni952  1  0.71343600  0.53600150  0.40378088  1.0
  Ni  Ni953  1  0.71343600  0.86933483  0.40378088  1.0
  Ni  Ni954  1  0.28656400  0.13066517  0.33979962  1.0
  Ni  Ni955  1  0.28656400  0.46399850  0.33979962  1.0
  Ni  Ni956  1  0.28656400  0.79733183  0.33979962  1.0
  Ni  Ni957  1  0.61989733  0.13066517  0.33979962  1.0
  Ni  Ni958  1  0.61989733  0.46399850  0.33979963  1.0
  Ni  Ni959  1  0.61989733  0.79733183  0.33979962  1.0
  Ni  Ni960  1  0.95323067  0.13066517  0.33979962  1.0
  Ni  Ni961  1  0.95323067  0.46399850  0.33979962  1.0
  Ni  Ni962  1  0.95323067  0.79733183  0.33979962  1.0
  Ni  Ni963  1  0.28656400  0.29733183  0.46479962  1.0
  Ni  Ni964  1  0.28656400  0.63066517  0.46479963  1.0
  Ni  Ni965  1  0.28656400  0.96399850  0.46479962  1.0
  Ni  Ni966  1  0.61989733  0.29733183  0.46479962  1.0
  Ni  Ni967  1  0.61989733  0.63066517  0.46479962  1.0
  Ni  Ni968  1  0.61989733  0.96399850  0.46479962  1.0
  Ni  Ni969  1  0.95323067  0.29733183  0.46479962  1.0
  Ni  Ni970  1  0.95323067  0.63066517  0.46479962  1.0
  Ni  Ni971  1  0.95323067  0.96399850  0.46479962  1.0
  Ni  Ni972  1  0.32404767  0.12494483  0.40721988  1.0
  Ni  Ni973  1  0.32404767  0.45827817  0.40721988  1.0
  Ni  Ni974  1  0.32404767  0.79161150  0.40721988  1.0
  Ni  Ni975  1  0.65738100  0.12494483  0.40721988  1.0
  Ni  Ni976  1  0.65738100  0.45827817  0.40721988  1.0
  Ni  Ni977  1  0.65738100  0.79161150  0.40721988  1.0
  Ni  Ni978  1  0.99071433  0.12494483  0.40721988  1.0
  Ni  Ni979  1  0.99071433  0.45827817  0.40721988  1.0
  Ni  Ni980  1  0.99071433  0.79161150  0.40721988  1.0
  Ni  Ni981  1  0.32404767  0.29161150  0.28221987  1.0
  Ni  Ni982  1  0.32404767  0.62494483  0.28221987  1.0
  Ni  Ni983  1  0.32404767  0.95827817  0.28221987  1.0
  Ni  Ni984  1  0.65738100  0.29161150  0.28221987  1.0
  Ni  Ni985  1  0.65738100  0.62494483  0.28221988  1.0
  Ni  Ni986  1  0.65738100  0.95827817  0.28221987  1.0
  Ni  Ni987  1  0.99071433  0.29161150  0.28221987  1.0
  Ni  Ni988  1  0.99071433  0.62494483  0.28221987  1.0
  Ni  Ni989  1  0.99071433  0.95827817  0.28221987  1.0
  Ni  Ni990  1  0.00928567  0.04172183  0.46136063  1.0
  Ni  Ni991  1  0.00928567  0.37505517  0.46136063  1.0
  Ni  Ni992  1  0.00928567  0.70838850  0.46136063  1.0
  Ni  Ni993  1  0.34261900  0.04172183  0.46136063  1.0
  Ni  Ni994  1  0.34261900  0.37505517  0.46136062  1.0
  Ni  Ni995  1  0.34261900  0.70838850  0.46136062  1.0
  Ni  Ni996  1  0.67595233  0.04172183  0.46136063  1.0
  Ni  Ni997  1  0.67595233  0.37505517  0.46136062  1.0
  Ni  Ni998  1  0.67595233  0.70838850  0.46136062  1.0
  Ni  Ni999  1  0.00928567  0.20838850  0.33636062  1.0
  Ni  Ni1000  1  0.00928567  0.54172183  0.33636062  1.0
  Ni  Ni1001  1  0.00928567  0.87505517  0.33636062  1.0
  Ni  Ni1002  1  0.34261900  0.20838850  0.33636062  1.0
  Ni  Ni1003  1  0.34261900  0.54172183  0.33636062  1.0
  Ni  Ni1004  1  0.34261900  0.87505517  0.33636062  1.0
  Ni  Ni1005  1  0.67595233  0.20838850  0.33636062  1.0
  Ni  Ni1006  1  0.67595233  0.54172183  0.33636062  1.0
  Ni  Ni1007  1  0.67595233  0.87505517  0.33636062  1.0
  Ni  Ni1008  1  0.08080200  0.15625950  0.49407338  1.0
  Ni  Ni1009  1  0.08080200  0.48959283  0.49407338  1.0
  Ni  Ni1010  1  0.08080200  0.82292617  0.49407337  1.0
  Ni  Ni1011  1  0.41413533  0.15625950  0.49407338  1.0
  Ni  Ni1012  1  0.41413533  0.48959283  0.49407337  1.0
  Ni  Ni1013  1  0.41413533  0.82292617  0.49407337  1.0
  Ni  Ni1014  1  0.74746867  0.15625950  0.49407337  1.0
  Ni  Ni1015  1  0.74746867  0.48959283  0.49407337  1.0
  Ni  Ni1016  1  0.74746867  0.82292617  0.49407337  1.0
  Ni  Ni1017  1  0.08080200  0.32292617  0.36907337  1.0
  Ni  Ni1018  1  0.08080200  0.65625950  0.36907337  1.0
  Ni  Ni1019  1  0.08080200  0.98959283  0.36907337  1.0
  Ni  Ni1020  1  0.41413533  0.32292617  0.36907337  1.0
  Ni  Ni1021  1  0.41413533  0.65625950  0.36907337  1.0
  Ni  Ni1022  1  0.41413533  0.98959283  0.36907337  1.0
  Ni  Ni1023  1  0.74746867  0.32292617  0.36907337  1.0
  Ni  Ni1024  1  0.74746867  0.65625950  0.36907337  1.0
  Ni  Ni1025  1  0.74746867  0.98959283  0.36907338  1.0
  Ni  Ni1026  1  0.25253133  0.01040717  0.37450712  1.0
  Ni  Ni1027  1  0.25253133  0.34374050  0.37450712  1.0
  Ni  Ni1028  1  0.25253133  0.67707383  0.37450712  1.0
  Ni  Ni1029  1  0.58586467  0.01040717  0.37450712  1.0
  Ni  Ni1030  1  0.58586467  0.34374050  0.37450712  1.0
  Ni  Ni1031  1  0.58586467  0.67707383  0.37450712  1.0
  Ni  Ni1032  1  0.91919800  0.01040717  0.37450712  1.0
  Ni  Ni1033  1  0.91919800  0.34374050  0.37450712  1.0
  Ni  Ni1034  1  0.91919800  0.67707383  0.37450712  1.0
  Ni  Ni1035  1  0.25253133  0.17707383  0.49950712  1.0
  Ni  Ni1036  1  0.25253133  0.51040717  0.49950712  1.0
  Ni  Ni1037  1  0.25253133  0.84374050  0.49950712  1.0
  Ni  Ni1038  1  0.58586467  0.17707383  0.49950712  1.0
  Ni  Ni1039  1  0.58586467  0.51040717  0.49950712  1.0
  Ni  Ni1040  1  0.58586467  0.84374050  0.49950713  1.0
  Ni  Ni1041  1  0.91919800  0.17707383  0.49950712  1.0
  Ni  Ni1042  1  0.91919800  0.51040717  0.49950712  1.0
  Ni  Ni1043  1  0.91919800  0.84374050  0.49950713  1.0
  Ni  Ni1044  1  0.15861867  0.10605633  0.27084600  1.0
  Ni  Ni1045  1  0.15861867  0.43938967  0.27084600  1.0
  Ni  Ni1046  1  0.15861867  0.77272300  0.27084600  1.0
  Ni  Ni1047  1  0.49195200  0.10605633  0.27084600  1.0
  Ni  Ni1048  1  0.49195200  0.43938967  0.27084600  1.0
  Ni  Ni1049  1  0.49195200  0.77272300  0.27084600  1.0
  Ni  Ni1050  1  0.82528533  0.10605633  0.27084600  1.0
  Ni  Ni1051  1  0.82528533  0.43938967  0.27084600  1.0
  Ni  Ni1052  1  0.82528533  0.77272300  0.27084600  1.0
  Ni  Ni1053  1  0.15861867  0.27272300  0.39584600  1.0
  Ni  Ni1054  1  0.15861867  0.60605633  0.39584600  1.0
  Ni  Ni1055  1  0.15861867  0.93938967  0.39584600  1.0
  Ni  Ni1056  1  0.49195200  0.27272300  0.39584600  1.0
  Ni  Ni1057  1  0.49195200  0.60605633  0.39584600  1.0
  Ni  Ni1058  1  0.49195200  0.93938967  0.39584600  1.0
  Ni  Ni1059  1  0.82528533  0.27272300  0.39584600  1.0
  Ni  Ni1060  1  0.82528533  0.60605633  0.39584600  1.0
  Ni  Ni1061  1  0.82528533  0.93938967  0.39584600  1.0
  Ni  Ni1062  1  0.17471467  0.06061033  0.34773450  1.0
  Ni  Ni1063  1  0.17471467  0.39394367  0.34773450  1.0
  Ni  Ni1064  1  0.17471467  0.72727700  0.34773450  1.0
  Ni  Ni1065  1  0.50804800  0.06061033  0.34773450  1.0
  Ni  Ni1066  1  0.50804800  0.39394367  0.34773450  1.0
  Ni  Ni1067  1  0.50804800  0.72727700  0.34773450  1.0
  Ni  Ni1068  1  0.84138133  0.06061033  0.34773450  1.0
  Ni  Ni1069  1  0.84138133  0.39394367  0.34773450  1.0
  Ni  Ni1070  1  0.84138133  0.72727700  0.34773450  1.0
  Ni  Ni1071  1  0.17471467  0.22727700  0.47273450  1.0
  Ni  Ni1072  1  0.17471467  0.56061033  0.47273450  1.0
  Ni  Ni1073  1  0.17471467  0.89394367  0.47273450  1.0
  Ni  Ni1074  1  0.50804800  0.22727700  0.47273450  1.0
  Ni  Ni1075  1  0.50804800  0.56061033  0.47273450  1.0
  Ni  Ni1076  1  0.50804800  0.89394367  0.47273450  1.0
  Ni  Ni1077  1  0.84138133  0.22727700  0.47273450  1.0
  Ni  Ni1078  1  0.84138133  0.56061033  0.47273450  1.0
  Ni  Ni1079  1  0.84138133  0.89394367  0.47273450  1.0
  Ni  Ni1080  1  0.18537133  0.06064117  0.27356038  1.0
  Ni  Ni1081  1  0.18537133  0.39397450  0.27356038  1.0
  Ni  Ni1082  1  0.18537133  0.72730783  0.27356037  1.0
  Ni  Ni1083  1  0.51870467  0.06064117  0.27356038  1.0
  Ni  Ni1084  1  0.51870467  0.39397450  0.27356038  1.0
  Ni  Ni1085  1  0.51870467  0.72730783  0.27356038  1.0
  Ni  Ni1086  1  0.85203800  0.06064117  0.27356038  1.0
  Ni  Ni1087  1  0.85203800  0.39397450  0.27356038  1.0
  Ni  Ni1088  1  0.85203800  0.72730783  0.27356037  1.0
  Ni  Ni1089  1  0.18537133  0.22730783  0.39856038  1.0
  Ni  Ni1090  1  0.18537133  0.56064117  0.39856038  1.0
  Ni  Ni1091  1  0.18537133  0.89397450  0.39856038  1.0
  Ni  Ni1092  1  0.51870467  0.22730783  0.39856038  1.0
  Ni  Ni1093  1  0.51870467  0.56064117  0.39856038  1.0
  Ni  Ni1094  1  0.51870467  0.89397450  0.39856038  1.0
  Ni  Ni1095  1  0.85203800  0.22730783  0.39856038  1.0
  Ni  Ni1096  1  0.85203800  0.56064117  0.39856038  1.0
  Ni  Ni1097  1  0.85203800  0.89397450  0.39856038  1.0
  Ni  Ni1098  1  0.14796200  0.10602550  0.34502013  1.0
  Ni  Ni1099  1  0.14796200  0.43935883  0.34502013  1.0
  Ni  Ni1100  1  0.14796200  0.77269217  0.34502012  1.0
  Ni  Ni1101  1  0.48129533  0.10602550  0.34502012  1.0
  Ni  Ni1102  1  0.48129533  0.43935883  0.34502012  1.0
  Ni  Ni1103  1  0.48129533  0.77269217  0.34502013  1.0
  Ni  Ni1104  1  0.81462867  0.10602550  0.34502012  1.0
  Ni  Ni1105  1  0.81462867  0.43935883  0.34502012  1.0
  Ni  Ni1106  1  0.81462867  0.77269217  0.34502012  1.0
  Ni  Ni1107  1  0.14796200  0.27269217  0.47002013  1.0
  Ni  Ni1108  1  0.14796200  0.60602550  0.47002013  1.0
  Ni  Ni1109  1  0.14796200  0.93935883  0.47002012  1.0
  Ni  Ni1110  1  0.48129533  0.27269217  0.47002013  1.0
  Ni  Ni1111  1  0.48129533  0.60602550  0.47002013  1.0
  Ni  Ni1112  1  0.48129533  0.93935883  0.47002013  1.0
  Ni  Ni1113  1  0.81462867  0.27269217  0.47002013  1.0
  Ni  Ni1114  1  0.81462867  0.60602550  0.47002013  1.0
  Ni  Ni1115  1  0.81462867  0.93935883  0.47002013  1.0
  Ni  Ni1116  1  0.05145433  0.12106383  0.30020963  1.0
  Ni  Ni1117  1  0.05145433  0.45439717  0.30020963  1.0
  Ni  Ni1118  1  0.05145433  0.78773050  0.30020963  1.0
  Ni  Ni1119  1  0.38478767  0.12106383  0.30020962  1.0
  Ni  Ni1120  1  0.38478767  0.45439717  0.30020963  1.0
  Ni  Ni1121  1  0.38478767  0.78773050  0.30020962  1.0
  Ni  Ni1122  1  0.71812100  0.12106383  0.30020962  1.0
  Ni  Ni1123  1  0.71812100  0.45439717  0.30020963  1.0
  Ni  Ni1124  1  0.71812100  0.78773050  0.30020963  1.0
  Ni  Ni1125  1  0.05145433  0.28773050  0.42520963  1.0
  Ni  Ni1126  1  0.05145433  0.62106383  0.42520963  1.0
  Ni  Ni1127  1  0.05145433  0.95439717  0.42520963  1.0
  Ni  Ni1128  1  0.38478767  0.28773050  0.42520963  1.0
  Ni  Ni1129  1  0.38478767  0.62106383  0.42520962  1.0
  Ni  Ni1130  1  0.38478767  0.95439717  0.42520963  1.0
  Ni  Ni1131  1  0.71812100  0.28773050  0.42520963  1.0
  Ni  Ni1132  1  0.71812100  0.62106383  0.42520963  1.0
  Ni  Ni1133  1  0.71812100  0.95439717  0.42520963  1.0
  Ni  Ni1134  1  0.28187900  0.04560283  0.31837087  1.0
  Ni  Ni1135  1  0.28187900  0.37893617  0.31837087  1.0
  Ni  Ni1136  1  0.28187900  0.71226950  0.31837087  1.0
  Ni  Ni1137  1  0.61521233  0.04560283  0.31837087  1.0
  Ni  Ni1138  1  0.61521233  0.37893617  0.31837087  1.0
  Ni  Ni1139  1  0.61521233  0.71226950  0.31837087  1.0
  Ni  Ni1140  1  0.94854567  0.04560283  0.31837087  1.0
  Ni  Ni1141  1  0.94854567  0.37893617  0.31837087  1.0
  Ni  Ni1142  1  0.94854567  0.71226950  0.31837087  1.0
  Ni  Ni1143  1  0.28187900  0.21226950  0.44337087  1.0
  Ni  Ni1144  1  0.28187900  0.54560283  0.44337088  1.0
  Ni  Ni1145  1  0.28187900  0.87893617  0.44337087  1.0
  Ni  Ni1146  1  0.61521233  0.21226950  0.44337087  1.0
  Ni  Ni1147  1  0.61521233  0.54560283  0.44337087  1.0
  Ni  Ni1148  1  0.61521233  0.87893617  0.44337087  1.0
  Ni  Ni1149  1  0.94854567  0.21226950  0.44337087  1.0
  Ni  Ni1150  1  0.94854567  0.54560283  0.44337088  1.0
  Ni  Ni1151  1  0.94854567  0.87893617  0.44337087  1.0
  Ni  Ni1152  1  0.11035367  0.11043867  0.41353250  1.0
  Ni  Ni1153  1  0.11035367  0.44377200  0.41353250  1.0
  Ni  Ni1154  1  0.11035367  0.77710533  0.41353250  1.0
  Ni  Ni1155  1  0.44368700  0.11043867  0.41353250  1.0
  Ni  Ni1156  1  0.44368700  0.44377200  0.41353250  1.0
  Ni  Ni1157  1  0.44368700  0.77710533  0.41353250  1.0
  Ni  Ni1158  1  0.77702033  0.11043867  0.41353250  1.0
  Ni  Ni1159  1  0.77702033  0.44377200  0.41353250  1.0
  Ni  Ni1160  1  0.77702033  0.77710533  0.41353250  1.0
  Ni  Ni1161  1  0.11035367  0.27710533  0.28853250  1.0
  Ni  Ni1162  1  0.11035367  0.61043867  0.28853250  1.0
  Ni  Ni1163  1  0.11035367  0.94377200  0.28853250  1.0
  Ni  Ni1164  1  0.44368700  0.27710533  0.28853250  1.0
  Ni  Ni1165  1  0.44368700  0.61043867  0.28853250  1.0
  Ni  Ni1166  1  0.44368700  0.94377200  0.28853250  1.0
  Ni  Ni1167  1  0.77702033  0.27710533  0.28853250  1.0
  Ni  Ni1168  1  0.77702033  0.61043867  0.28853250  1.0
  Ni  Ni1169  1  0.77702033  0.94377200  0.28853250  1.0
  Ni  Ni1170  1  0.22297967  0.05622800  0.45504800  1.0
  Ni  Ni1171  1  0.22297967  0.38956133  0.45504800  1.0
  Ni  Ni1172  1  0.22297967  0.72289467  0.45504800  1.0
  Ni  Ni1173  1  0.55631300  0.05622800  0.45504800  1.0
  Ni  Ni1174  1  0.55631300  0.38956133  0.45504800  1.0
  Ni  Ni1175  1  0.55631300  0.72289467  0.45504800  1.0
  Ni  Ni1176  1  0.88964633  0.05622800  0.45504800  1.0
  Ni  Ni1177  1  0.88964633  0.38956133  0.45504800  1.0
  Ni  Ni1178  1  0.88964633  0.72289467  0.45504800  1.0
  Ni  Ni1179  1  0.22297967  0.22289467  0.33004800  1.0
  Ni  Ni1180  1  0.22297967  0.55622800  0.33004800  1.0
  Ni  Ni1181  1  0.22297967  0.88956133  0.33004800  1.0
  Ni  Ni1182  1  0.55631300  0.22289467  0.33004800  1.0
  Ni  Ni1183  1  0.55631300  0.55622800  0.33004800  1.0
  Ni  Ni1184  1  0.55631300  0.88956133  0.33004800  1.0
  Ni  Ni1185  1  0.88964633  0.22289467  0.33004800  1.0
  Ni  Ni1186  1  0.88964633  0.55622800  0.33004800  1.0
  Ni  Ni1187  1  0.88964633  0.88956133  0.33004800  1.0
  Ni  Ni1188  1  0.09132267  0.15309600  0.41842300  1.0
  Ni  Ni1189  1  0.09132267  0.48642933  0.41842300  1.0
  Ni  Ni1190  1  0.09132267  0.81976267  0.41842300  1.0
  Ni  Ni1191  1  0.42465600  0.15309600  0.41842300  1.0
  Ni  Ni1192  1  0.42465600  0.48642933  0.41842300  1.0
  Ni  Ni1193  1  0.42465600  0.81976267  0.41842300  1.0
  Ni  Ni1194  1  0.75798933  0.15309600  0.41842300  1.0
  Ni  Ni1195  1  0.75798933  0.48642933  0.41842300  1.0
  Ni  Ni1196  1  0.75798933  0.81976267  0.41842300  1.0
  Ni  Ni1197  1  0.09132267  0.31976267  0.29342300  1.0
  Ni  Ni1198  1  0.09132267  0.65309600  0.29342300  1.0
  Ni  Ni1199  1  0.09132267  0.98642933  0.29342300  1.0
  Ni  Ni1200  1  0.42465600  0.31976267  0.29342300  1.0
  Ni  Ni1201  1  0.42465600  0.65309600  0.29342300  1.0
  Ni  Ni1202  1  0.42465600  0.98642933  0.29342300  1.0
  Ni  Ni1203  1  0.75798933  0.31976267  0.29342300  1.0
  Ni  Ni1204  1  0.75798933  0.65309600  0.29342300  1.0
  Ni  Ni1205  1  0.75798933  0.98642933  0.29342300  1.0
  Ni  Ni1206  1  0.24201067  0.01357067  0.45015750  1.0
  Ni  Ni1207  1  0.24201067  0.34690400  0.45015750  1.0
  Ni  Ni1208  1  0.24201067  0.68023733  0.45015750  1.0
  Ni  Ni1209  1  0.57534400  0.01357067  0.45015750  1.0
  Ni  Ni1210  1  0.57534400  0.34690400  0.45015750  1.0
  Ni  Ni1211  1  0.57534400  0.68023733  0.45015750  1.0
  Ni  Ni1212  1  0.90867733  0.01357067  0.45015750  1.0
  Ni  Ni1213  1  0.90867733  0.34690400  0.45015750  1.0
  Ni  Ni1214  1  0.90867733  0.68023733  0.45015750  1.0
  Ni  Ni1215  1  0.24201067  0.18023733  0.32515750  1.0
  Ni  Ni1216  1  0.24201067  0.51357067  0.32515750  1.0
  Ni  Ni1217  1  0.24201067  0.84690400  0.32515750  1.0
  Ni  Ni1218  1  0.57534400  0.18023733  0.32515750  1.0
  Ni  Ni1219  1  0.57534400  0.51357067  0.32515750  1.0
  Ni  Ni1220  1  0.57534400  0.84690400  0.32515750  1.0
  Ni  Ni1221  1  0.90867733  0.18023733  0.32515750  1.0
  Ni  Ni1222  1  0.90867733  0.51357067  0.32515750  1.0
  Ni  Ni1223  1  0.90867733  0.84690400  0.32515750  1.0
  Ni  Ni1224  1  0.00000000  0.08333333  0.43429025  1.0
  Ni  Ni1225  1  0.00000000  0.41666667  0.43429025  1.0
  Ni  Ni1226  1  0.00000000  0.75000000  0.43429025  1.0
  Ni  Ni1227  1  0.33333333  0.08333333  0.43429025  1.0
  Ni  Ni1228  1  0.33333333  0.41666667  0.43429025  1.0
  Ni  Ni1229  1  0.33333333  0.75000000  0.43429025  1.0
  Ni  Ni1230  1  0.66666667  0.08333333  0.43429025  1.0
  Ni  Ni1231  1  0.66666667  0.41666667  0.43429025  1.0
  Ni  Ni1232  1  0.66666667  0.75000000  0.43429025  1.0
  Ni  Ni1233  1  0.00000000  0.25000000  0.30929025  1.0
  Ni  Ni1234  1  0.00000000  0.58333333  0.30929025  1.0
  Ni  Ni1235  1  0.00000000  0.91666667  0.30929025  1.0
  Ni  Ni1236  1  0.33333333  0.25000000  0.30929025  1.0
  Ni  Ni1237  1  0.33333333  0.58333333  0.30929025  1.0
  Ni  Ni1238  1  0.33333333  0.91666667  0.30929025  1.0
  Ni  Ni1239  1  0.66666667  0.25000000  0.30929025  1.0
  Ni  Ni1240  1  0.66666667  0.58333333  0.30929025  1.0
  Ni  Ni1241  1  0.66666667  0.91666667  0.30929025  1.0
  Ni  Ni1242  1  0.28367800  0.13324867  0.26077325  1.0
  Ni  Ni1243  1  0.28367800  0.46658200  0.26077325  1.0
  Ni  Ni1244  1  0.28367800  0.79991533  0.26077325  1.0
  Ni  Ni1245  1  0.61701133  0.13324867  0.26077325  1.0
  Ni  Ni1246  1  0.61701133  0.46658200  0.26077325  1.0
  Ni  Ni1247  1  0.61701133  0.79991533  0.26077325  1.0
  Ni  Ni1248  1  0.95034467  0.13324867  0.26077325  1.0
  Ni  Ni1249  1  0.95034467  0.46658200  0.26077325  1.0
  Ni  Ni1250  1  0.95034467  0.79991533  0.26077325  1.0
  Ni  Ni1251  1  0.28367800  0.29991533  0.38577325  1.0
  Ni  Ni1252  1  0.28367800  0.63324867  0.38577325  1.0
  Ni  Ni1253  1  0.28367800  0.96658200  0.38577325  1.0
  Ni  Ni1254  1  0.61701133  0.29991533  0.38577325  1.0
  Ni  Ni1255  1  0.61701133  0.63324867  0.38577325  1.0
  Ni  Ni1256  1  0.61701133  0.96658200  0.38577325  1.0
  Ni  Ni1257  1  0.95034467  0.29991533  0.38577325  1.0
  Ni  Ni1258  1  0.95034467  0.63324867  0.38577325  1.0
  Ni  Ni1259  1  0.95034467  0.96658200  0.38577325  1.0
  Ni  Ni1260  1  0.04965533  0.03341800  0.35780725  1.0
  Ni  Ni1261  1  0.04965533  0.36675133  0.35780725  1.0
  Ni  Ni1262  1  0.04965533  0.70008467  0.35780725  1.0
  Ni  Ni1263  1  0.38298867  0.03341800  0.35780725  1.0
  Ni  Ni1264  1  0.38298867  0.36675133  0.35780725  1.0
  Ni  Ni1265  1  0.38298867  0.70008467  0.35780725  1.0
  Ni  Ni1266  1  0.71632200  0.03341800  0.35780725  1.0
  Ni  Ni1267  1  0.71632200  0.36675133  0.35780725  1.0
  Ni  Ni1268  1  0.71632200  0.70008467  0.35780725  1.0
  Ni  Ni1269  1  0.04965533  0.20008467  0.48280725  1.0
  Ni  Ni1270  1  0.04965533  0.53341800  0.48280725  1.0
  Ni  Ni1271  1  0.04965533  0.86675133  0.48280725  1.0
  Ni  Ni1272  1  0.38298867  0.20008467  0.48280725  1.0
  Ni  Ni1273  1  0.38298867  0.53341800  0.48280725  1.0
  Ni  Ni1274  1  0.38298867  0.86675133  0.48280725  1.0
  Ni  Ni1275  1  0.71632200  0.20008467  0.48280725  1.0
  Ni  Ni1276  1  0.71632200  0.53341800  0.48280725  1.0
  Ni  Ni1277  1  0.71632200  0.86675133  0.48280725  1.0
  Ni  Ni1278  1  0.02379767  0.09726567  0.36537075  1.0
  Ni  Ni1279  1  0.02379767  0.43059900  0.36537075  1.0
  Ni  Ni1280  1  0.02379767  0.76393233  0.36537075  1.0
  Ni  Ni1281  1  0.35713100  0.09726567  0.36537075  1.0
  Ni  Ni1282  1  0.35713100  0.43059900  0.36537075  1.0
  Ni  Ni1283  1  0.35713100  0.76393233  0.36537075  1.0
  Ni  Ni1284  1  0.69046433  0.09726567  0.36537075  1.0
  Ni  Ni1285  1  0.69046433  0.43059900  0.36537075  1.0
  Ni  Ni1286  1  0.69046433  0.76393233  0.36537075  1.0
  Ni  Ni1287  1  0.02379767  0.26393233  0.49037075  1.0
  Ni  Ni1288  1  0.02379767  0.59726567  0.49037075  1.0
  Ni  Ni1289  1  0.02379767  0.93059900  0.49037075  1.0
  Ni  Ni1290  1  0.35713100  0.26393233  0.49037075  1.0
  Ni  Ni1291  1  0.35713100  0.59726567  0.49037075  1.0
  Ni  Ni1292  1  0.35713100  0.93059900  0.49037075  1.0
  Ni  Ni1293  1  0.69046433  0.26393233  0.49037075  1.0
  Ni  Ni1294  1  0.69046433  0.59726567  0.49037075  1.0
  Ni  Ni1295  1  0.69046433  0.93059900  0.49037075  1.0
  Ni  Ni1296  1  0.30953567  0.06940100  0.25320975  1.0
  Ni  Ni1297  1  0.30953567  0.40273433  0.25320975  1.0
  Ni  Ni1298  1  0.30953567  0.73606767  0.25320975  1.0
  Ni  Ni1299  1  0.64286900  0.06940100  0.25320975  1.0
  Ni  Ni1300  1  0.64286900  0.40273433  0.25320975  1.0
  Ni  Ni1301  1  0.64286900  0.73606767  0.25320975  1.0
  Ni  Ni1302  1  0.97620233  0.06940100  0.25320975  1.0
  Ni  Ni1303  1  0.97620233  0.40273433  0.25320975  1.0
  Ni  Ni1304  1  0.97620233  0.73606767  0.25320975  1.0
  Ni  Ni1305  1  0.30953567  0.23606767  0.37820975  1.0
  Ni  Ni1306  1  0.30953567  0.56940100  0.37820975  1.0
  Ni  Ni1307  1  0.30953567  0.90273433  0.37820975  1.0
  Ni  Ni1308  1  0.64286900  0.23606767  0.37820975  1.0
  Ni  Ni1309  1  0.64286900  0.56940100  0.37820975  1.0
  Ni  Ni1310  1  0.64286900  0.90273433  0.37820975  1.0
  Ni  Ni1311  1  0.97620233  0.23606767  0.37820975  1.0
  Ni  Ni1312  1  0.97620233  0.56940100  0.37820975  1.0
  Ni  Ni1313  1  0.97620233  0.90273433  0.37820975  1.0
  Ni  Ni1314  1  0.18231900  0.14143867  0.46586900  1.0
  Ni  Ni1315  1  0.18231900  0.47477200  0.46586900  1.0
  Ni  Ni1316  1  0.18231900  0.80810533  0.46586900  1.0
  Ni  Ni1317  1  0.51565233  0.14143867  0.46586900  1.0
  Ni  Ni1318  1  0.51565233  0.47477200  0.46586900  1.0
  Ni  Ni1319  1  0.51565233  0.80810533  0.46586900  1.0
  Ni  Ni1320  1  0.84898567  0.14143867  0.46586900  1.0
  Ni  Ni1321  1  0.84898567  0.47477200  0.46586900  1.0
  Ni  Ni1322  1  0.84898567  0.80810533  0.46586900  1.0
  Ni  Ni1323  1  0.18231900  0.30810533  0.34086900  1.0
  Ni  Ni1324  1  0.18231900  0.64143867  0.34086900  1.0
  Ni  Ni1325  1  0.18231900  0.97477200  0.34086900  1.0
  Ni  Ni1326  1  0.51565233  0.30810533  0.34086900  1.0
  Ni  Ni1327  1  0.51565233  0.64143867  0.34086900  1.0
  Ni  Ni1328  1  0.51565233  0.97477200  0.34086900  1.0
  Ni  Ni1329  1  0.84898567  0.30810533  0.34086900  1.0
  Ni  Ni1330  1  0.84898567  0.64143867  0.34086900  1.0
  Ni  Ni1331  1  0.84898567  0.97477200  0.34086900  1.0
  Ni  Ni1332  1  0.15101433  0.02522800  0.40271150  1.0
  Ni  Ni1333  1  0.15101433  0.35856133  0.40271150  1.0
  Ni  Ni1334  1  0.15101433  0.69189467  0.40271150  1.0
  Ni  Ni1335  1  0.48434767  0.02522800  0.40271150  1.0
  Ni  Ni1336  1  0.48434767  0.35856133  0.40271150  1.0
  Ni  Ni1337  1  0.48434767  0.69189467  0.40271150  1.0
  Ni  Ni1338  1  0.81768100  0.02522800  0.40271150  1.0
  Ni  Ni1339  1  0.81768100  0.35856133  0.40271150  1.0
  Ni  Ni1340  1  0.81768100  0.69189467  0.40271150  1.0
  Ni  Ni1341  1  0.15101433  0.19189467  0.27771150  1.0
  Ni  Ni1342  1  0.15101433  0.52522800  0.27771150  1.0
  Ni  Ni1343  1  0.15101433  0.85856133  0.27771150  1.0
  Ni  Ni1344  1  0.48434767  0.19189467  0.27771150  1.0
  Ni  Ni1345  1  0.48434767  0.52522800  0.27771150  1.0
  Ni  Ni1346  1  0.48434767  0.85856133  0.27771150  1.0
  Ni  Ni1347  1  0.81768100  0.19189467  0.27771150  1.0
  Ni  Ni1348  1  0.81768100  0.52522800  0.27771150  1.0
  Ni  Ni1349  1  0.81768100  0.85856133  0.27771150  1.0
  Ni  Ni1350  1  0.08074733  0.13925483  0.35638462  1.0
  Ni  Ni1351  1  0.08074733  0.47258817  0.35638462  1.0
  Ni  Ni1352  1  0.08074733  0.80592150  0.35638462  1.0
  Ni  Ni1353  1  0.41408067  0.13925483  0.35638462  1.0
  Ni  Ni1354  1  0.41408067  0.47258817  0.35638463  1.0
  Ni  Ni1355  1  0.41408067  0.80592150  0.35638462  1.0
  Ni  Ni1356  1  0.74741400  0.13925483  0.35638462  1.0
  Ni  Ni1357  1  0.74741400  0.47258817  0.35638462  1.0
  Ni  Ni1358  1  0.74741400  0.80592150  0.35638462  1.0
  Ni  Ni1359  1  0.08074733  0.30592150  0.48138462  1.0
  Ni  Ni1360  1  0.08074733  0.63925483  0.48138462  1.0
  Ni  Ni1361  1  0.08074733  0.97258817  0.48138462  1.0
  Ni  Ni1362  1  0.41408067  0.30592150  0.48138462  1.0
  Ni  Ni1363  1  0.41408067  0.63925483  0.48138462  1.0
  Ni  Ni1364  1  0.41408067  0.97258817  0.48138462  1.0
  Ni  Ni1365  1  0.74741400  0.30592150  0.48138462  1.0
  Ni  Ni1366  1  0.74741400  0.63925483  0.48138462  1.0
  Ni  Ni1367  1  0.74741400  0.97258817  0.48138462  1.0
  Ni  Ni1368  1  0.25258600  0.02741183  0.26219587  1.0
  Ni  Ni1369  1  0.25258600  0.36074517  0.26219587  1.0
  Ni  Ni1370  1  0.25258600  0.69407850  0.26219587  1.0
  Ni  Ni1371  1  0.58591933  0.02741183  0.26219587  1.0
  Ni  Ni1372  1  0.58591933  0.36074517  0.26219587  1.0
  Ni  Ni1373  1  0.58591933  0.69407850  0.26219587  1.0
  Ni  Ni1374  1  0.91925267  0.02741183  0.26219587  1.0
  Ni  Ni1375  1  0.91925267  0.36074517  0.26219587  1.0
  Ni  Ni1376  1  0.91925267  0.69407850  0.26219588  1.0
  Ni  Ni1377  1  0.25258600  0.19407850  0.38719588  1.0
  Ni  Ni1378  1  0.25258600  0.52741183  0.38719588  1.0
  Ni  Ni1379  1  0.25258600  0.86074517  0.38719588  1.0
  Ni  Ni1380  1  0.58591933  0.19407850  0.38719588  1.0
  Ni  Ni1381  1  0.58591933  0.52741183  0.38719588  1.0
  Ni  Ni1382  1  0.58591933  0.86074517  0.38719588  1.0
  Ni  Ni1383  1  0.91925267  0.19407850  0.38719588  1.0
  Ni  Ni1384  1  0.91925267  0.52741183  0.38719588  1.0
  Ni  Ni1385  1  0.91925267  0.86074517  0.38719588  1.0
  Ni  Ni1386  1  0.00000000  0.16666667  0.37179025  1.0
  Ni  Ni1387  1  0.00000000  0.50000000  0.37179025  1.0
  Ni  Ni1388  1  0.00000000  0.83333333  0.37179025  1.0
  Ni  Ni1389  1  0.33333333  0.16666667  0.37179025  1.0
  Ni  Ni1390  1  0.33333333  0.50000000  0.37179025  1.0
  Ni  Ni1391  1  0.33333333  0.83333333  0.37179025  1.0
  Ni  Ni1392  1  0.66666667  0.16666667  0.37179025  1.0
  Ni  Ni1393  1  0.66666667  0.50000000  0.37179025  1.0
  Ni  Ni1394  1  0.66666667  0.83333333  0.37179025  1.0
  Ni  Ni1395  1  0.00000000  0.00000000  0.49679025  1.0
  Ni  Ni1396  1  0.00000000  0.33333333  0.49679025  1.0
  Ni  Ni1397  1  0.00000000  0.66666667  0.49679025  1.0
  Ni  Ni1398  1  0.33333333  0.00000000  0.49679025  1.0
  Ni  Ni1399  1  0.33333333  0.33333333  0.49679025  1.0
  Ni  Ni1400  1  0.33333333  0.66666667  0.49679025  1.0
  Ni  Ni1401  1  0.66666667  0.00000000  0.49679025  1.0
  Ni  Ni1402  1  0.66666667  0.33333333  0.49679025  1.0
  Ni  Ni1403  1  0.66666667  0.66666667  0.49679025  1.0
  Ni  Ni1404  1  0.09961533  0.07289817  0.47820463  1.0
  Ni  Ni1405  1  0.09961533  0.40623150  0.47820462  1.0
  Ni  Ni1406  1  0.09961533  0.73956483  0.47820462  1.0
  Ni  Ni1407  1  0.43294867  0.07289817  0.47820462  1.0
  Ni  Ni1408  1  0.43294867  0.40623150  0.47820462  1.0
  Ni  Ni1409  1  0.43294867  0.73956483  0.47820463  1.0
  Ni  Ni1410  1  0.76628200  0.07289817  0.47820462  1.0
  Ni  Ni1411  1  0.76628200  0.40623150  0.47820462  1.0
  Ni  Ni1412  1  0.76628200  0.73956483  0.47820462  1.0
  Ni  Ni1413  1  0.09961533  0.23956483  0.35320462  1.0
  Ni  Ni1414  1  0.09961533  0.57289817  0.35320462  1.0
  Ni  Ni1415  1  0.09961533  0.90623150  0.35320462  1.0
  Ni  Ni1416  1  0.43294867  0.23956483  0.35320462  1.0
  Ni  Ni1417  1  0.43294867  0.57289817  0.35320462  1.0
  Ni  Ni1418  1  0.43294867  0.90623150  0.35320462  1.0
  Ni  Ni1419  1  0.76628200  0.23956483  0.35320462  1.0
  Ni  Ni1420  1  0.76628200  0.57289817  0.35320462  1.0
  Ni  Ni1421  1  0.76628200  0.90623150  0.35320462  1.0
  Ni  Ni1422  1  0.23371800  0.09376850  0.39037588  1.0
  Ni  Ni1423  1  0.23371800  0.42710183  0.39037588  1.0
  Ni  Ni1424  1  0.23371800  0.76043517  0.39037587  1.0
  Ni  Ni1425  1  0.56705133  0.09376850  0.39037587  1.0
  Ni  Ni1426  1  0.56705133  0.42710183  0.39037587  1.0
  Ni  Ni1427  1  0.56705133  0.76043517  0.39037588  1.0
  Ni  Ni1428  1  0.90038467  0.09376850  0.39037587  1.0
  Ni  Ni1429  1  0.90038467  0.42710183  0.39037587  1.0
  Ni  Ni1430  1  0.90038467  0.76043517  0.39037588  1.0
  Ni  Ni1431  1  0.23371800  0.26043517  0.26537587  1.0
  Ni  Ni1432  1  0.23371800  0.59376850  0.26537587  1.0
  Ni  Ni1433  1  0.23371800  0.92710183  0.26537587  1.0
  Ni  Ni1434  1  0.56705133  0.26043517  0.26537587  1.0
  Ni  Ni1435  1  0.56705133  0.59376850  0.26537587  1.0
  Ni  Ni1436  1  0.56705133  0.92710183  0.26537587  1.0
  Ni  Ni1437  1  0.90038467  0.26043517  0.26537587  1.0
  Ni  Ni1438  1  0.90038467  0.59376850  0.26537587  1.0
  Ni  Ni1439  1  0.90038467  0.92710183  0.26537587  1.0
