# generated using pymatgen
data_In3Ni7
_symmetry_space_group_name_H-M   'P 1'
_cell_length_a   57.03871178
_cell_length_b   33.34092986
_cell_length_c   32.73536000
_cell_angle_alpha   118.80433312
_cell_angle_beta   109.85376759
_cell_angle_gamma   94.43498077
_symmetry_Int_Tables_number   1
_chemical_formula_structural   In3Ni7
_chemical_formula_sum   'In432 Ni1008'
_cell_volume   49066.76596893
_cell_formula_units_Z   144
loop_
 _symmetry_equiv_pos_site_id
 _symmetry_equiv_pos_as_xyz
  1  'x, y, z'
loop_
 _atom_site_type_symbol
 _atom_site_label
 _atom_site_symmetry_multiplicity
 _atom_site_fract_x
 _atom_site_fract_y
 _atom_site_fract_z
 _atom_site_occupancy
  In  In0  1  0.02718867  0.20149467  0.19448305  1.0
  In  In1  1  0.02718867  0.53482800  0.19448305  1.0
  In  In2  1  0.02718867  0.86816133  0.19448305  1.0
  In  In3  1  0.36052200  0.20149467  0.19448305  1.0
  In  In4  1  0.36052200  0.53482800  0.19448305  1.0
  In  In5  1  0.36052200  0.86816133  0.19448305  1.0
  In  In6  1  0.69385533  0.20149467  0.19448305  1.0
  In  In7  1  0.69385533  0.53482800  0.19448305  1.0
  In  In8  1  0.69385533  0.86816133  0.19448305  1.0
  In  In9  1  0.19385533  0.20149467  0.09448305  1.0
  In  In10  1  0.19385533  0.53482800  0.09448305  1.0
  In  In11  1  0.19385533  0.86816133  0.09448305  1.0
  In  In12  1  0.52718867  0.20149467  0.09448305  1.0
  In  In13  1  0.52718867  0.53482800  0.09448305  1.0
  In  In14  1  0.52718867  0.86816133  0.09448305  1.0
  In  In15  1  0.86052200  0.20149467  0.09448305  1.0
  In  In16  1  0.86052200  0.53482800  0.09448305  1.0
  In  In17  1  0.86052200  0.86816133  0.09448305  1.0
  In  In18  1  0.13947800  0.13183867  0.09033825  1.0
  In  In19  1  0.13947800  0.46517200  0.09033825  1.0
  In  In20  1  0.13947800  0.79850533  0.09033825  1.0
  In  In21  1  0.47281133  0.13183867  0.09033825  1.0
  In  In22  1  0.47281133  0.46517200  0.09033825  1.0
  In  In23  1  0.47281133  0.79850533  0.09033825  1.0
  In  In24  1  0.80614467  0.13183867  0.09033825  1.0
  In  In25  1  0.80614467  0.46517200  0.09033825  1.0
  In  In26  1  0.80614467  0.79850533  0.09033825  1.0
  In  In27  1  0.30614467  0.13183867  0.19033825  1.0
  In  In28  1  0.30614467  0.46517200  0.19033825  1.0
  In  In29  1  0.30614467  0.79850533  0.19033825  1.0
  In  In30  1  0.63947800  0.13183867  0.19033825  1.0
  In  In31  1  0.63947800  0.46517200  0.19033825  1.0
  In  In32  1  0.63947800  0.79850533  0.19033825  1.0
  In  In33  1  0.97281133  0.13183867  0.19033825  1.0
  In  In34  1  0.97281133  0.46517200  0.19033825  1.0
  In  In35  1  0.97281133  0.79850533  0.19033825  1.0
  In  In36  1  0.04796217  0.32838733  0.03112895  1.0
  In  In37  1  0.04796217  0.66172067  0.03112895  1.0
  In  In38  1  0.04796217  0.99505400  0.03112895  1.0
  In  In39  1  0.38129550  0.32838733  0.03112895  1.0
  In  In40  1  0.38129550  0.66172067  0.03112895  1.0
  In  In41  1  0.38129550  0.99505400  0.03112895  1.0
  In  In42  1  0.71462883  0.32838733  0.03112895  1.0
  In  In43  1  0.71462883  0.66172067  0.03112895  1.0
  In  In44  1  0.71462883  0.99505400  0.03112895  1.0
  In  In45  1  0.21462883  0.32838733  0.13112895  1.0
  In  In46  1  0.21462883  0.66172067  0.13112895  1.0
  In  In47  1  0.21462883  0.99505400  0.13112895  1.0
  In  In48  1  0.54796217  0.32838733  0.13112895  1.0
  In  In49  1  0.54796217  0.66172067  0.13112895  1.0
  In  In50  1  0.54796217  0.99505400  0.13112895  1.0
  In  In51  1  0.88129550  0.32838733  0.13112895  1.0
  In  In52  1  0.88129550  0.66172067  0.13112895  1.0
  In  In53  1  0.88129550  0.99505400  0.13112895  1.0
  In  In54  1  0.11870450  0.00494600  0.05369235  1.0
  In  In55  1  0.11870450  0.33827933  0.05369235  1.0
  In  In56  1  0.11870450  0.67161267  0.05369235  1.0
  In  In57  1  0.45203783  0.00494600  0.05369235  1.0
  In  In58  1  0.45203783  0.33827933  0.05369235  1.0
  In  In59  1  0.45203783  0.67161267  0.05369235  1.0
  In  In60  1  0.78537117  0.00494600  0.05369235  1.0
  In  In61  1  0.78537117  0.33827933  0.05369235  1.0
  In  In62  1  0.78537117  0.67161267  0.05369235  1.0
  In  In63  1  0.28537117  0.00494600  0.15369235  1.0
  In  In64  1  0.28537117  0.33827933  0.15369235  1.0
  In  In65  1  0.28537117  0.67161267  0.15369235  1.0
  In  In66  1  0.61870450  0.00494600  0.15369235  1.0
  In  In67  1  0.61870450  0.33827933  0.15369235  1.0
  In  In68  1  0.61870450  0.67161267  0.15369235  1.0
  In  In69  1  0.95203783  0.00494600  0.15369235  1.0
  In  In70  1  0.95203783  0.33827933  0.15369235  1.0
  In  In71  1  0.95203783  0.67161267  0.15369235  1.0
  In  In72  1  0.07857567  0.14851367  0.08658665  1.0
  In  In73  1  0.07857567  0.48184700  0.08658665  1.0
  In  In74  1  0.07857567  0.81518033  0.08658665  1.0
  In  In75  1  0.41190900  0.14851367  0.08658665  1.0
  In  In76  1  0.41190900  0.48184700  0.08658665  1.0
  In  In77  1  0.41190900  0.81518033  0.08658665  1.0
  In  In78  1  0.74524233  0.14851367  0.08658665  1.0
  In  In79  1  0.74524233  0.48184700  0.08658665  1.0
  In  In80  1  0.74524233  0.81518033  0.08658665  1.0
  In  In81  1  0.24524233  0.14851367  0.18658665  1.0
  In  In82  1  0.24524233  0.48184700  0.18658665  1.0
  In  In83  1  0.24524233  0.81518033  0.18658665  1.0
  In  In84  1  0.57857567  0.14851367  0.18658665  1.0
  In  In85  1  0.57857567  0.48184700  0.18658665  1.0
  In  In86  1  0.57857567  0.81518033  0.18658665  1.0
  In  In87  1  0.91190900  0.14851367  0.18658665  1.0
  In  In88  1  0.91190900  0.48184700  0.18658665  1.0
  In  In89  1  0.91190900  0.81518033  0.18658665  1.0
  In  In90  1  0.08809100  0.18481967  0.19823465  1.0
  In  In91  1  0.08809100  0.51815300  0.19823465  1.0
  In  In92  1  0.08809100  0.85148633  0.19823465  1.0
  In  In93  1  0.42142433  0.18481967  0.19823465  1.0
  In  In94  1  0.42142433  0.51815300  0.19823465  1.0
  In  In95  1  0.42142433  0.85148633  0.19823465  1.0
  In  In96  1  0.75475767  0.18481967  0.19823465  1.0
  In  In97  1  0.75475767  0.51815300  0.19823465  1.0
  In  In98  1  0.75475767  0.85148633  0.19823465  1.0
  In  In99  1  0.25475767  0.18481967  0.09823465  1.0
  In  In100  1  0.25475767  0.51815300  0.09823465  1.0
  In  In101  1  0.25475767  0.85148633  0.09823465  1.0
  In  In102  1  0.58809100  0.18481967  0.09823465  1.0
  In  In103  1  0.58809100  0.51815300  0.09823465  1.0
  In  In104  1  0.58809100  0.85148633  0.09823465  1.0
  In  In105  1  0.92142433  0.18481967  0.09823465  1.0
  In  In106  1  0.92142433  0.51815300  0.09823465  1.0
  In  In107  1  0.92142433  0.85148633  0.09823465  1.0
  In  In108  1  0.10584400  0.29186300  0.12562745  1.0
  In  In109  1  0.10584400  0.62519633  0.12562745  1.0
  In  In110  1  0.10584400  0.95852967  0.12562745  1.0
  In  In111  1  0.43917733  0.29186300  0.12562745  1.0
  In  In112  1  0.43917733  0.62519633  0.12562745  1.0
  In  In113  1  0.43917733  0.95852967  0.12562745  1.0
  In  In114  1  0.77251067  0.29186300  0.12562745  1.0
  In  In115  1  0.77251067  0.62519633  0.12562745  1.0
  In  In116  1  0.77251067  0.95852967  0.12562745  1.0
  In  In117  1  0.27251067  0.29186300  0.02562745  1.0
  In  In118  1  0.27251067  0.62519633  0.02562745  1.0
  In  In119  1  0.27251067  0.95852967  0.02562745  1.0
  In  In120  1  0.60584400  0.29186300  0.02562745  1.0
  In  In121  1  0.60584400  0.62519633  0.02562745  1.0
  In  In122  1  0.60584400  0.95852967  0.02562745  1.0
  In  In123  1  0.93917733  0.29186300  0.02562745  1.0
  In  In124  1  0.93917733  0.62519633  0.02562745  1.0
  In  In125  1  0.93917733  0.95852967  0.02562745  1.0
  In  In126  1  0.06082267  0.04147033  0.15919385  1.0
  In  In127  1  0.06082267  0.37480367  0.15919385  1.0
  In  In128  1  0.06082267  0.70813700  0.15919385  1.0
  In  In129  1  0.39415600  0.04147033  0.15919385  1.0
  In  In130  1  0.39415600  0.37480367  0.15919385  1.0
  In  In131  1  0.39415600  0.70813700  0.15919385  1.0
  In  In132  1  0.72748933  0.04147033  0.15919385  1.0
  In  In133  1  0.72748933  0.37480367  0.15919385  1.0
  In  In134  1  0.72748933  0.70813700  0.15919385  1.0
  In  In135  1  0.22748933  0.04147033  0.05919385  1.0
  In  In136  1  0.22748933  0.37480367  0.05919385  1.0
  In  In137  1  0.22748933  0.70813700  0.05919385  1.0
  In  In138  1  0.56082267  0.04147033  0.05919385  1.0
  In  In139  1  0.56082267  0.37480367  0.05919385  1.0
  In  In140  1  0.56082267  0.70813700  0.05919385  1.0
  In  In141  1  0.89415600  0.04147033  0.05919385  1.0
  In  In142  1  0.89415600  0.37480367  0.05919385  1.0
  In  In143  1  0.89415600  0.70813700  0.05919385  1.0
  In  In144  1  0.00053767  0.04471333  0.14358205  1.0
  In  In145  1  0.00053767  0.37804667  0.14358205  1.0
  In  In146  1  0.00053767  0.71138000  0.14358205  1.0
  In  In147  1  0.33387100  0.04471333  0.14358205  1.0
  In  In148  1  0.33387100  0.37804667  0.14358205  1.0
  In  In149  1  0.33387100  0.71138000  0.14358205  1.0
  In  In150  1  0.66720433  0.04471333  0.14358205  1.0
  In  In151  1  0.66720433  0.37804667  0.14358205  1.0
  In  In152  1  0.66720433  0.71138000  0.14358205  1.0
  In  In153  1  0.16720433  0.04471333  0.04358205  1.0
  In  In154  1  0.16720433  0.37804667  0.04358205  1.0
  In  In155  1  0.16720433  0.71138000  0.04358205  1.0
  In  In156  1  0.50053767  0.04471333  0.04358205  1.0
  In  In157  1  0.50053767  0.37804667  0.04358205  1.0
  In  In158  1  0.50053767  0.71138000  0.04358205  1.0
  In  In159  1  0.83387100  0.04471333  0.04358205  1.0
  In  In160  1  0.83387100  0.37804667  0.04358205  1.0
  In  In161  1  0.83387100  0.71138000  0.04358205  1.0
  In  In162  1  0.16612900  0.28862000  0.14123925  1.0
  In  In163  1  0.16612900  0.62195333  0.14123925  1.0
  In  In164  1  0.16612900  0.95528667  0.14123925  1.0
  In  In165  1  0.49946233  0.28862000  0.14123925  1.0
  In  In166  1  0.49946233  0.62195333  0.14123925  1.0
  In  In167  1  0.49946233  0.95528667  0.14123925  1.0
  In  In168  1  0.83279567  0.28862000  0.14123925  1.0
  In  In169  1  0.83279567  0.62195333  0.14123925  1.0
  In  In170  1  0.83279567  0.95528667  0.14123925  1.0
  In  In171  1  0.33279567  0.28862000  0.04123925  1.0
  In  In172  1  0.33279567  0.62195333  0.04123925  1.0
  In  In173  1  0.33279567  0.95528667  0.04123925  1.0
  In  In174  1  0.66612900  0.28862000  0.04123925  1.0
  In  In175  1  0.66612900  0.62195333  0.04123925  1.0
  In  In176  1  0.66612900  0.95528667  0.04123925  1.0
  In  In177  1  0.99946233  0.28862000  0.04123925  1.0
  In  In178  1  0.99946233  0.62195333  0.04123925  1.0
  In  In179  1  0.99946233  0.95528667  0.04123925  1.0
  In  In180  1  0.04454200  0.22881333  0.12591265  1.0
  In  In181  1  0.04454200  0.56214667  0.12591265  1.0
  In  In182  1  0.04454200  0.89548000  0.12591265  1.0
  In  In183  1  0.37787533  0.22881333  0.12591265  1.0
  In  In184  1  0.37787533  0.56214667  0.12591265  1.0
  In  In185  1  0.37787533  0.89548000  0.12591265  1.0
  In  In186  1  0.71120867  0.22881333  0.12591265  1.0
  In  In187  1  0.71120867  0.56214667  0.12591265  1.0
  In  In188  1  0.71120867  0.89548000  0.12591265  1.0
  In  In189  1  0.21120867  0.22881333  0.02591265  1.0
  In  In190  1  0.21120867  0.56214667  0.02591265  1.0
  In  In191  1  0.21120867  0.89548000  0.02591265  1.0
  In  In192  1  0.54454200  0.22881333  0.02591265  1.0
  In  In193  1  0.54454200  0.56214667  0.02591265  1.0
  In  In194  1  0.54454200  0.89548000  0.02591265  1.0
  In  In195  1  0.87787533  0.22881333  0.02591265  1.0
  In  In196  1  0.87787533  0.56214667  0.02591265  1.0
  In  In197  1  0.87787533  0.89548000  0.02591265  1.0
  In  In198  1  0.12212467  0.10452000  0.15890865  1.0
  In  In199  1  0.12212467  0.43785333  0.15890865  1.0
  In  In200  1  0.12212467  0.77118667  0.15890865  1.0
  In  In201  1  0.45545800  0.10452000  0.15890865  1.0
  In  In202  1  0.45545800  0.43785333  0.15890865  1.0
  In  In203  1  0.45545800  0.77118667  0.15890865  1.0
  In  In204  1  0.78879133  0.10452000  0.15890865  1.0
  In  In205  1  0.78879133  0.43785333  0.15890865  1.0
  In  In206  1  0.78879133  0.77118667  0.15890865  1.0
  In  In207  1  0.28879133  0.10452000  0.05890865  1.0
  In  In208  1  0.28879133  0.43785333  0.05890865  1.0
  In  In209  1  0.28879133  0.77118667  0.05890865  1.0
  In  In210  1  0.62212467  0.10452000  0.05890865  1.0
  In  In211  1  0.62212467  0.43785333  0.05890865  1.0
  In  In212  1  0.62212467  0.77118667  0.05890865  1.0
  In  In213  1  0.95545800  0.10452000  0.05890865  1.0
  In  In214  1  0.95545800  0.43785333  0.05890865  1.0
  In  In215  1  0.95545800  0.77118667  0.05890865  1.0
  Ni  Ni216  1  0.03932783  0.07200300  0.03114755  1.0
  Ni  Ni217  1  0.03932783  0.40533633  0.03114755  1.0
  Ni  Ni218  1  0.03932783  0.73866967  0.03114755  1.0
  Ni  Ni219  1  0.37266117  0.07200300  0.03114755  1.0
  Ni  Ni220  1  0.37266117  0.40533633  0.03114755  1.0
  Ni  Ni221  1  0.37266117  0.73866967  0.03114755  1.0
  Ni  Ni222  1  0.70599450  0.07200300  0.03114755  1.0
  Ni  Ni223  1  0.70599450  0.40533633  0.03114755  1.0
  Ni  Ni224  1  0.70599450  0.73866967  0.03114755  1.0
  Ni  Ni225  1  0.20599450  0.07200300  0.13114755  1.0
  Ni  Ni226  1  0.20599450  0.40533633  0.13114755  1.0
  Ni  Ni227  1  0.20599450  0.73866967  0.13114755  1.0
  Ni  Ni228  1  0.53932783  0.07200300  0.13114755  1.0
  Ni  Ni229  1  0.53932783  0.40533633  0.13114755  1.0
  Ni  Ni230  1  0.53932783  0.73866967  0.13114755  1.0
  Ni  Ni231  1  0.87266117  0.07200300  0.13114755  1.0
  Ni  Ni232  1  0.87266117  0.40533633  0.13114755  1.0
  Ni  Ni233  1  0.87266117  0.73866967  0.13114755  1.0
  Ni  Ni234  1  0.12733883  0.26133033  0.05367375  1.0
  Ni  Ni235  1  0.12733883  0.59466367  0.05367375  1.0
  Ni  Ni236  1  0.12733883  0.92799700  0.05367375  1.0
  Ni  Ni237  1  0.46067217  0.26133033  0.05367375  1.0
  Ni  Ni238  1  0.46067217  0.59466367  0.05367375  1.0
  Ni  Ni239  1  0.46067217  0.92799700  0.05367375  1.0
  Ni  Ni240  1  0.79400550  0.26133033  0.05367375  1.0
  Ni  Ni241  1  0.79400550  0.59466367  0.05367375  1.0
  Ni  Ni242  1  0.79400550  0.92799700  0.05367375  1.0
  Ni  Ni243  1  0.29400550  0.26133033  0.15367375  1.0
  Ni  Ni244  1  0.29400550  0.59466367  0.15367375  1.0
  Ni  Ni245  1  0.29400550  0.92799700  0.15367375  1.0
  Ni  Ni246  1  0.62733883  0.26133033  0.15367375  1.0
  Ni  Ni247  1  0.62733883  0.59466367  0.15367375  1.0
  Ni  Ni248  1  0.62733883  0.92799700  0.15367375  1.0
  Ni  Ni249  1  0.96067217  0.26133033  0.15367375  1.0
  Ni  Ni250  1  0.96067217  0.59466367  0.15367375  1.0
  Ni  Ni251  1  0.96067217  0.92799700  0.15367375  1.0
  Ni  Ni252  1  0.00275883  0.24988967  0.14957115  1.0
  Ni  Ni253  1  0.00275883  0.58322300  0.14957115  1.0
  Ni  Ni254  1  0.00275883  0.91655633  0.14957115  1.0
  Ni  Ni255  1  0.33609217  0.24988967  0.14957115  1.0
  Ni  Ni256  1  0.33609217  0.58322300  0.14957115  1.0
  Ni  Ni257  1  0.33609217  0.91655633  0.14957115  1.0
  Ni  Ni258  1  0.66942550  0.24988967  0.14957115  1.0
  Ni  Ni259  1  0.66942550  0.58322300  0.14957115  1.0
  Ni  Ni260  1  0.66942550  0.91655633  0.14957115  1.0
  Ni  Ni261  1  0.16942550  0.24988967  0.04957115  1.0
  Ni  Ni262  1  0.16942550  0.58322300  0.04957115  1.0
  Ni  Ni263  1  0.16942550  0.91655633  0.04957115  1.0
  Ni  Ni264  1  0.50275883  0.24988967  0.04957115  1.0
  Ni  Ni265  1  0.50275883  0.58322300  0.04957115  1.0
  Ni  Ni266  1  0.50275883  0.91655633  0.04957115  1.0
  Ni  Ni267  1  0.83609217  0.24988967  0.04957115  1.0
  Ni  Ni268  1  0.83609217  0.58322300  0.04957115  1.0
  Ni  Ni269  1  0.83609217  0.91655633  0.04957115  1.0
  Ni  Ni270  1  0.16390783  0.08344367  0.13525015  1.0
  Ni  Ni271  1  0.16390783  0.41677700  0.13525015  1.0
  Ni  Ni272  1  0.16390783  0.75011033  0.13525015  1.0
  Ni  Ni273  1  0.49724117  0.08344367  0.13525015  1.0
  Ni  Ni274  1  0.49724117  0.41677700  0.13525015  1.0
  Ni  Ni275  1  0.49724117  0.75011033  0.13525015  1.0
  Ni  Ni276  1  0.83057450  0.08344367  0.13525015  1.0
  Ni  Ni277  1  0.83057450  0.41677700  0.13525015  1.0
  Ni  Ni278  1  0.83057450  0.75011033  0.13525015  1.0
  Ni  Ni279  1  0.33057450  0.08344367  0.03525015  1.0
  Ni  Ni280  1  0.33057450  0.41677700  0.03525015  1.0
  Ni  Ni281  1  0.33057450  0.75011033  0.03525015  1.0
  Ni  Ni282  1  0.66390783  0.08344367  0.03525015  1.0
  Ni  Ni283  1  0.66390783  0.41677700  0.03525015  1.0
  Ni  Ni284  1  0.66390783  0.75011033  0.03525015  1.0
  Ni  Ni285  1  0.99724117  0.08344367  0.03525015  1.0
  Ni  Ni286  1  0.99724117  0.41677700  0.03525015  1.0
  Ni  Ni287  1  0.99724117  0.75011033  0.03525015  1.0
  Ni  Ni288  1  0.07631850  0.31251900  0.17723195  1.0
  Ni  Ni289  1  0.07631850  0.64585233  0.17723195  1.0
  Ni  Ni290  1  0.07631850  0.97918567  0.17723195  1.0
  Ni  Ni291  1  0.40965183  0.31251900  0.17723195  1.0
  Ni  Ni292  1  0.40965183  0.64585233  0.17723195  1.0
  Ni  Ni293  1  0.40965183  0.97918567  0.17723195  1.0
  Ni  Ni294  1  0.74298517  0.31251900  0.17723195  1.0
  Ni  Ni295  1  0.74298517  0.64585233  0.17723195  1.0
  Ni  Ni296  1  0.74298517  0.97918567  0.17723195  1.0
  Ni  Ni297  1  0.24298517  0.31251900  0.07723195  1.0
  Ni  Ni298  1  0.24298517  0.64585233  0.07723195  1.0
  Ni  Ni299  1  0.24298517  0.97918567  0.07723195  1.0
  Ni  Ni300  1  0.57631850  0.31251900  0.07723195  1.0
  Ni  Ni301  1  0.57631850  0.64585233  0.07723195  1.0
  Ni  Ni302  1  0.57631850  0.97918567  0.07723195  1.0
  Ni  Ni303  1  0.90965183  0.31251900  0.07723195  1.0
  Ni  Ni304  1  0.90965183  0.64585233  0.07723195  1.0
  Ni  Ni305  1  0.90965183  0.97918567  0.07723195  1.0
  Ni  Ni306  1  0.09034817  0.02081433  0.10758935  1.0
  Ni  Ni307  1  0.09034817  0.35414767  0.10758935  1.0
  Ni  Ni308  1  0.09034817  0.68748100  0.10758935  1.0
  Ni  Ni309  1  0.42368150  0.02081433  0.10758935  1.0
  Ni  Ni310  1  0.42368150  0.35414767  0.10758935  1.0
  Ni  Ni311  1  0.42368150  0.68748100  0.10758935  1.0
  Ni  Ni312  1  0.75701483  0.02081433  0.10758935  1.0
  Ni  Ni313  1  0.75701483  0.35414767  0.10758935  1.0
  Ni  Ni314  1  0.75701483  0.68748100  0.10758935  1.0
  Ni  Ni315  1  0.25701483  0.02081433  0.00758935  1.0
  Ni  Ni316  1  0.25701483  0.35414767  0.00758935  1.0
  Ni  Ni317  1  0.25701483  0.68748100  0.00758935  1.0
  Ni  Ni318  1  0.59034817  0.02081433  0.00758935  1.0
  Ni  Ni319  1  0.59034817  0.35414767  0.00758935  1.0
  Ni  Ni320  1  0.59034817  0.68748100  0.00758935  1.0
  Ni  Ni321  1  0.92368150  0.02081433  0.00758935  1.0
  Ni  Ni322  1  0.92368150  0.35414767  0.00758935  1.0
  Ni  Ni323  1  0.92368150  0.68748100  0.00758935  1.0
  Ni  Ni324  1  0.06906533  0.21211267  0.06594625  1.0
  Ni  Ni325  1  0.06906533  0.54544600  0.06594625  1.0
  Ni  Ni326  1  0.06906533  0.87877933  0.06594625  1.0
  Ni  Ni327  1  0.40239867  0.21211267  0.06594625  1.0
  Ni  Ni328  1  0.40239867  0.54544600  0.06594625  1.0
  Ni  Ni329  1  0.40239867  0.87877933  0.06594625  1.0
  Ni  Ni330  1  0.73573200  0.21211267  0.06594625  1.0
  Ni  Ni331  1  0.73573200  0.54544600  0.06594625  1.0
  Ni  Ni332  1  0.73573200  0.87877933  0.06594625  1.0
  Ni  Ni333  1  0.23573200  0.21211267  0.16594625  1.0
  Ni  Ni334  1  0.23573200  0.54544600  0.16594625  1.0
  Ni  Ni335  1  0.23573200  0.87877933  0.16594625  1.0
  Ni  Ni336  1  0.56906533  0.21211267  0.16594625  1.0
  Ni  Ni337  1  0.56906533  0.54544600  0.16594625  1.0
  Ni  Ni338  1  0.56906533  0.87877933  0.16594625  1.0
  Ni  Ni339  1  0.90239867  0.21211267  0.16594625  1.0
  Ni  Ni340  1  0.90239867  0.54544600  0.16594625  1.0
  Ni  Ni341  1  0.90239867  0.87877933  0.16594625  1.0
  Ni  Ni342  1  0.09760133  0.12122067  0.01887505  1.0
  Ni  Ni343  1  0.09760133  0.45455400  0.01887505  1.0
  Ni  Ni344  1  0.09760133  0.78788733  0.01887505  1.0
  Ni  Ni345  1  0.43093467  0.12122067  0.01887505  1.0
  Ni  Ni346  1  0.43093467  0.45455400  0.01887505  1.0
  Ni  Ni347  1  0.43093467  0.78788733  0.01887505  1.0
  Ni  Ni348  1  0.76426800  0.12122067  0.01887505  1.0
  Ni  Ni349  1  0.76426800  0.45455400  0.01887505  1.0
  Ni  Ni350  1  0.76426800  0.78788733  0.01887505  1.0
  Ni  Ni351  1  0.26426800  0.12122067  0.11887505  1.0
  Ni  Ni352  1  0.26426800  0.45455400  0.11887505  1.0
  Ni  Ni353  1  0.26426800  0.78788733  0.11887505  1.0
  Ni  Ni354  1  0.59760133  0.12122067  0.11887505  1.0
  Ni  Ni355  1  0.59760133  0.45455400  0.11887505  1.0
  Ni  Ni356  1  0.59760133  0.78788733  0.11887505  1.0
  Ni  Ni357  1  0.93093467  0.12122067  0.11887505  1.0
  Ni  Ni358  1  0.93093467  0.45455400  0.11887505  1.0
  Ni  Ni359  1  0.93093467  0.78788733  0.11887505  1.0
  Ni  Ni360  1  0.04816733  0.12128233  0.18285765  1.0
  Ni  Ni361  1  0.04816733  0.45461567  0.18285765  1.0
  Ni  Ni362  1  0.04816733  0.78794900  0.18285765  1.0
  Ni  Ni363  1  0.38150067  0.12128233  0.18285765  1.0
  Ni  Ni364  1  0.38150067  0.45461567  0.18285765  1.0
  Ni  Ni365  1  0.38150067  0.78794900  0.18285765  1.0
  Ni  Ni366  1  0.71483400  0.12128233  0.18285765  1.0
  Ni  Ni367  1  0.71483400  0.45461567  0.18285765  1.0
  Ni  Ni368  1  0.71483400  0.78794900  0.18285765  1.0
  Ni  Ni369  1  0.21483400  0.12128233  0.08285765  1.0
  Ni  Ni370  1  0.21483400  0.45461567  0.08285765  1.0
  Ni  Ni371  1  0.21483400  0.78794900  0.08285765  1.0
  Ni  Ni372  1  0.54816733  0.12128233  0.08285765  1.0
  Ni  Ni373  1  0.54816733  0.45461567  0.08285765  1.0
  Ni  Ni374  1  0.54816733  0.78794900  0.08285765  1.0
  Ni  Ni375  1  0.88150067  0.12128233  0.08285765  1.0
  Ni  Ni376  1  0.88150067  0.45461567  0.08285765  1.0
  Ni  Ni377  1  0.88150067  0.78794900  0.08285765  1.0
  Ni  Ni378  1  0.11849933  0.21205100  0.10196365  1.0
  Ni  Ni379  1  0.11849933  0.54538433  0.10196365  1.0
  Ni  Ni380  1  0.11849933  0.87871767  0.10196365  1.0
  Ni  Ni381  1  0.45183267  0.21205100  0.10196365  1.0
  Ni  Ni382  1  0.45183267  0.54538433  0.10196365  1.0
  Ni  Ni383  1  0.45183267  0.87871767  0.10196365  1.0
  Ni  Ni384  1  0.78516600  0.21205100  0.10196365  1.0
  Ni  Ni385  1  0.78516600  0.54538433  0.10196365  1.0
  Ni  Ni386  1  0.78516600  0.87871767  0.10196365  1.0
  Ni  Ni387  1  0.28516600  0.21205100  0.00196365  1.0
  Ni  Ni388  1  0.28516600  0.54538433  0.00196365  1.0
  Ni  Ni389  1  0.28516600  0.87871767  0.00196365  1.0
  Ni  Ni390  1  0.61849933  0.21205100  0.00196365  1.0
  Ni  Ni391  1  0.61849933  0.54538433  0.00196365  1.0
  Ni  Ni392  1  0.61849933  0.87871767  0.00196365  1.0
  Ni  Ni393  1  0.95183267  0.21205100  0.00196365  1.0
  Ni  Ni394  1  0.95183267  0.54538433  0.00196365  1.0
  Ni  Ni395  1  0.95183267  0.87871767  0.00196365  1.0
  Ni  Ni396  1  0.09614483  0.24212767  0.16450155  1.0
  Ni  Ni397  1  0.09614483  0.57546100  0.16450155  1.0
  Ni  Ni398  1  0.09614483  0.90879433  0.16450155  1.0
  Ni  Ni399  1  0.42947817  0.24212767  0.16450155  1.0
  Ni  Ni400  1  0.42947817  0.57546100  0.16450155  1.0
  Ni  Ni401  1  0.42947817  0.90879433  0.16450155  1.0
  Ni  Ni402  1  0.76281150  0.24212767  0.16450155  1.0
  Ni  Ni403  1  0.76281150  0.57546100  0.16450155  1.0
  Ni  Ni404  1  0.76281150  0.90879433  0.16450155  1.0
  Ni  Ni405  1  0.26281150  0.24212767  0.06450155  1.0
  Ni  Ni406  1  0.26281150  0.57546100  0.06450155  1.0
  Ni  Ni407  1  0.26281150  0.90879433  0.06450155  1.0
  Ni  Ni408  1  0.59614483  0.24212767  0.06450155  1.0
  Ni  Ni409  1  0.59614483  0.57546100  0.06450155  1.0
  Ni  Ni410  1  0.59614483  0.90879433  0.06450155  1.0
  Ni  Ni411  1  0.92947817  0.24212767  0.06450155  1.0
  Ni  Ni412  1  0.92947817  0.57546100  0.06450155  1.0
  Ni  Ni413  1  0.92947817  0.90879433  0.06450155  1.0
  Ni  Ni414  1  0.07052183  0.09120567  0.12031975  1.0
  Ni  Ni415  1  0.07052183  0.42453900  0.12031975  1.0
  Ni  Ni416  1  0.07052183  0.75787233  0.12031975  1.0
  Ni  Ni417  1  0.40385517  0.09120567  0.12031975  1.0
  Ni  Ni418  1  0.40385517  0.42453900  0.12031975  1.0
  Ni  Ni419  1  0.40385517  0.75787233  0.12031975  1.0
  Ni  Ni420  1  0.73718850  0.09120567  0.12031975  1.0
  Ni  Ni421  1  0.73718850  0.42453900  0.12031975  1.0
  Ni  Ni422  1  0.73718850  0.75787233  0.12031975  1.0
  Ni  Ni423  1  0.23718850  0.09120567  0.02031975  1.0
  Ni  Ni424  1  0.23718850  0.42453900  0.02031975  1.0
  Ni  Ni425  1  0.23718850  0.75787233  0.02031975  1.0
  Ni  Ni426  1  0.57052183  0.09120567  0.02031975  1.0
  Ni  Ni427  1  0.57052183  0.42453900  0.02031975  1.0
  Ni  Ni428  1  0.57052183  0.75787233  0.02031975  1.0
  Ni  Ni429  1  0.90385517  0.09120567  0.02031975  1.0
  Ni  Ni430  1  0.90385517  0.42453900  0.02031975  1.0
  Ni  Ni431  1  0.90385517  0.75787233  0.02031975  1.0
  Ni  Ni432  1  0.16638083  0.22087733  0.15855335  1.0
  Ni  Ni433  1  0.16638083  0.55421067  0.15855335  1.0
  Ni  Ni434  1  0.16638083  0.88754400  0.15855335  1.0
  Ni  Ni435  1  0.49971417  0.22087733  0.15855335  1.0
  Ni  Ni436  1  0.49971417  0.55421067  0.15855335  1.0
  Ni  Ni437  1  0.49971417  0.88754400  0.15855335  1.0
  Ni  Ni438  1  0.83304750  0.22087733  0.15855335  1.0
  Ni  Ni439  1  0.83304750  0.55421067  0.15855335  1.0
  Ni  Ni440  1  0.83304750  0.88754400  0.15855335  1.0
  Ni  Ni441  1  0.33304750  0.22087733  0.05855335  1.0
  Ni  Ni442  1  0.33304750  0.55421067  0.05855335  1.0
  Ni  Ni443  1  0.33304750  0.88754400  0.05855335  1.0
  Ni  Ni444  1  0.66638083  0.22087733  0.05855335  1.0
  Ni  Ni445  1  0.66638083  0.55421067  0.05855335  1.0
  Ni  Ni446  1  0.66638083  0.88754400  0.05855335  1.0
  Ni  Ni447  1  0.99971417  0.22087733  0.05855335  1.0
  Ni  Ni448  1  0.99971417  0.55421067  0.05855335  1.0
  Ni  Ni449  1  0.99971417  0.88754400  0.05855335  1.0
  Ni  Ni450  1  0.00028583  0.11245600  0.12626795  1.0
  Ni  Ni451  1  0.00028583  0.44578933  0.12626795  1.0
  Ni  Ni452  1  0.00028583  0.77912267  0.12626795  1.0
  Ni  Ni453  1  0.33361917  0.11245600  0.12626795  1.0
  Ni  Ni454  1  0.33361917  0.44578933  0.12626795  1.0
  Ni  Ni455  1  0.33361917  0.77912267  0.12626795  1.0
  Ni  Ni456  1  0.66695250  0.11245600  0.12626795  1.0
  Ni  Ni457  1  0.66695250  0.44578933  0.12626795  1.0
  Ni  Ni458  1  0.66695250  0.77912267  0.12626795  1.0
  Ni  Ni459  1  0.16695250  0.11245600  0.02626795  1.0
  Ni  Ni460  1  0.16695250  0.44578933  0.02626795  1.0
  Ni  Ni461  1  0.16695250  0.77912267  0.02626795  1.0
  Ni  Ni462  1  0.50028583  0.11245600  0.02626795  1.0
  Ni  Ni463  1  0.50028583  0.44578933  0.02626795  1.0
  Ni  Ni464  1  0.50028583  0.77912267  0.02626795  1.0
  Ni  Ni465  1  0.83361917  0.11245600  0.02626795  1.0
  Ni  Ni466  1  0.83361917  0.44578933  0.02626795  1.0
  Ni  Ni467  1  0.83361917  0.77912267  0.02626795  1.0
  Ni  Ni468  1  0.02430317  0.30619200  0.13591415  1.0
  Ni  Ni469  1  0.02430317  0.63952533  0.13591415  1.0
  Ni  Ni470  1  0.02430317  0.97285867  0.13591415  1.0
  Ni  Ni471  1  0.35763650  0.30619200  0.13591415  1.0
  Ni  Ni472  1  0.35763650  0.63952533  0.13591415  1.0
  Ni  Ni473  1  0.35763650  0.97285867  0.13591415  1.0
  Ni  Ni474  1  0.69096983  0.30619200  0.13591415  1.0
  Ni  Ni475  1  0.69096983  0.63952533  0.13591415  1.0
  Ni  Ni476  1  0.69096983  0.97285867  0.13591415  1.0
  Ni  Ni477  1  0.19096983  0.30619200  0.03591415  1.0
  Ni  Ni478  1  0.19096983  0.63952533  0.03591415  1.0
  Ni  Ni479  1  0.19096983  0.97285867  0.03591415  1.0
  Ni  Ni480  1  0.52430317  0.30619200  0.03591415  1.0
  Ni  Ni481  1  0.52430317  0.63952533  0.03591415  1.0
  Ni  Ni482  1  0.52430317  0.97285867  0.03591415  1.0
  Ni  Ni483  1  0.85763650  0.30619200  0.03591415  1.0
  Ni  Ni484  1  0.85763650  0.63952533  0.03591415  1.0
  Ni  Ni485  1  0.85763650  0.97285867  0.03591415  1.0
  Ni  Ni486  1  0.14236350  0.02714133  0.14890715  1.0
  Ni  Ni487  1  0.14236350  0.36047467  0.14890715  1.0
  Ni  Ni488  1  0.14236350  0.69380800  0.14890715  1.0
  Ni  Ni489  1  0.47569683  0.02714133  0.14890715  1.0
  Ni  Ni490  1  0.47569683  0.36047467  0.14890715  1.0
  Ni  Ni491  1  0.47569683  0.69380800  0.14890715  1.0
  Ni  Ni492  1  0.80903017  0.02714133  0.14890715  1.0
  Ni  Ni493  1  0.80903017  0.36047467  0.14890715  1.0
  Ni  Ni494  1  0.80903017  0.69380800  0.14890715  1.0
  Ni  Ni495  1  0.30903017  0.02714133  0.04890715  1.0
  Ni  Ni496  1  0.30903017  0.36047467  0.04890715  1.0
  Ni  Ni497  1  0.30903017  0.69380800  0.04890715  1.0
  Ni  Ni498  1  0.64236350  0.02714133  0.04890715  1.0
  Ni  Ni499  1  0.64236350  0.36047467  0.04890715  1.0
  Ni  Ni500  1  0.64236350  0.69380800  0.04890715  1.0
  Ni  Ni501  1  0.97569683  0.02714133  0.04890715  1.0
  Ni  Ni502  1  0.97569683  0.36047467  0.04890715  1.0
  Ni  Ni503  1  0.97569683  0.69380800  0.04890715  1.0
  Ni  Ni504  1  0.16666667  0.16666667  0.19241065  1.0
  Ni  Ni505  1  0.16666667  0.50000000  0.19241065  1.0
  Ni  Ni506  1  0.16666667  0.83333333  0.19241065  1.0
  Ni  Ni507  1  0.50000000  0.16666667  0.19241065  1.0
  Ni  Ni508  1  0.50000000  0.50000000  0.19241065  1.0
  Ni  Ni509  1  0.50000000  0.83333333  0.19241065  1.0
  Ni  Ni510  1  0.83333333  0.16666667  0.19241065  1.0
  Ni  Ni511  1  0.83333333  0.50000000  0.19241065  1.0
  Ni  Ni512  1  0.83333333  0.83333333  0.19241065  1.0
  Ni  Ni513  1  0.00000000  0.16666667  0.09241065  1.0
  Ni  Ni514  1  0.00000000  0.50000000  0.09241065  1.0
  Ni  Ni515  1  0.00000000  0.83333333  0.09241065  1.0
  Ni  Ni516  1  0.33333333  0.16666667  0.09241065  1.0
  Ni  Ni517  1  0.33333333  0.50000000  0.09241065  1.0
  Ni  Ni518  1  0.33333333  0.83333333  0.09241065  1.0
  Ni  Ni519  1  0.66666667  0.16666667  0.09241065  1.0
  Ni  Ni520  1  0.66666667  0.50000000  0.09241065  1.0
  Ni  Ni521  1  0.66666667  0.83333333  0.09241065  1.0
  Ni  Ni522  1  0.07594633  0.26649733  0.02767005  1.0
  Ni  Ni523  1  0.07594633  0.59983067  0.02767005  1.0
  Ni  Ni524  1  0.07594633  0.93316400  0.02767005  1.0
  Ni  Ni525  1  0.40927967  0.26649733  0.02767005  1.0
  Ni  Ni526  1  0.40927967  0.59983067  0.02767005  1.0
  Ni  Ni527  1  0.40927967  0.93316400  0.02767005  1.0
  Ni  Ni528  1  0.74261300  0.26649733  0.02767005  1.0
  Ni  Ni529  1  0.74261300  0.59983067  0.02767005  1.0
  Ni  Ni530  1  0.74261300  0.93316400  0.02767005  1.0
  Ni  Ni531  1  0.24261300  0.26649733  0.12767005  1.0
  Ni  Ni532  1  0.24261300  0.59983067  0.12767005  1.0
  Ni  Ni533  1  0.24261300  0.93316400  0.12767005  1.0
  Ni  Ni534  1  0.57594633  0.26649733  0.12767005  1.0
  Ni  Ni535  1  0.57594633  0.59983067  0.12767005  1.0
  Ni  Ni536  1  0.57594633  0.93316400  0.12767005  1.0
  Ni  Ni537  1  0.90927967  0.26649733  0.12767005  1.0
  Ni  Ni538  1  0.90927967  0.59983067  0.12767005  1.0
  Ni  Ni539  1  0.90927967  0.93316400  0.12767005  1.0
  Ni  Ni540  1  0.09072033  0.06683600  0.05715125  1.0
  Ni  Ni541  1  0.09072033  0.40016933  0.05715125  1.0
  Ni  Ni542  1  0.09072033  0.73350267  0.05715125  1.0
  Ni  Ni543  1  0.42405367  0.06683600  0.05715125  1.0
  Ni  Ni544  1  0.42405367  0.40016933  0.05715125  1.0
  Ni  Ni545  1  0.42405367  0.73350267  0.05715125  1.0
  Ni  Ni546  1  0.75738700  0.06683600  0.05715125  1.0
  Ni  Ni547  1  0.75738700  0.40016933  0.05715125  1.0
  Ni  Ni548  1  0.75738700  0.73350267  0.05715125  1.0
  Ni  Ni549  1  0.25738700  0.06683600  0.15715125  1.0
  Ni  Ni550  1  0.25738700  0.40016933  0.15715125  1.0
  Ni  Ni551  1  0.25738700  0.73350267  0.15715125  1.0
  Ni  Ni552  1  0.59072033  0.06683600  0.15715125  1.0
  Ni  Ni553  1  0.59072033  0.40016933  0.15715125  1.0
  Ni  Ni554  1  0.59072033  0.73350267  0.15715125  1.0
  Ni  Ni555  1  0.92405367  0.06683600  0.15715125  1.0
  Ni  Ni556  1  0.92405367  0.40016933  0.15715125  1.0
  Ni  Ni557  1  0.92405367  0.73350267  0.15715125  1.0
  Ni  Ni558  1  0.12768650  0.19453133  0.17146275  1.0
  Ni  Ni559  1  0.12768650  0.52786467  0.17146275  1.0
  Ni  Ni560  1  0.12768650  0.86119800  0.17146275  1.0
  Ni  Ni561  1  0.46101983  0.19453133  0.17146275  1.0
  Ni  Ni562  1  0.46101983  0.52786467  0.17146275  1.0
  Ni  Ni563  1  0.46101983  0.86119800  0.17146275  1.0
  Ni  Ni564  1  0.79435317  0.19453133  0.17146275  1.0
  Ni  Ni565  1  0.79435317  0.52786467  0.17146275  1.0
  Ni  Ni566  1  0.79435317  0.86119800  0.17146275  1.0
  Ni  Ni567  1  0.29435317  0.19453133  0.07146275  1.0
  Ni  Ni568  1  0.29435317  0.52786467  0.07146275  1.0
  Ni  Ni569  1  0.29435317  0.86119800  0.07146275  1.0
  Ni  Ni570  1  0.62768650  0.19453133  0.07146275  1.0
  Ni  Ni571  1  0.62768650  0.52786467  0.07146275  1.0
  Ni  Ni572  1  0.62768650  0.86119800  0.07146275  1.0
  Ni  Ni573  1  0.96101983  0.19453133  0.07146275  1.0
  Ni  Ni574  1  0.96101983  0.52786467  0.07146275  1.0
  Ni  Ni575  1  0.96101983  0.86119800  0.07146275  1.0
  Ni  Ni576  1  0.03898017  0.13880200  0.11335855  1.0
  Ni  Ni577  1  0.03898017  0.47213533  0.11335855  1.0
  Ni  Ni578  1  0.03898017  0.80546867  0.11335855  1.0
  Ni  Ni579  1  0.37231350  0.13880200  0.11335855  1.0
  Ni  Ni580  1  0.37231350  0.47213533  0.11335855  1.0
  Ni  Ni581  1  0.37231350  0.80546867  0.11335855  1.0
  Ni  Ni582  1  0.70564683  0.13880200  0.11335855  1.0
  Ni  Ni583  1  0.70564683  0.47213533  0.11335855  1.0
  Ni  Ni584  1  0.70564683  0.80546867  0.11335855  1.0
  Ni  Ni585  1  0.20564683  0.13880200  0.01335855  1.0
  Ni  Ni586  1  0.20564683  0.47213533  0.01335855  1.0
  Ni  Ni587  1  0.20564683  0.80546867  0.01335855  1.0
  Ni  Ni588  1  0.53898017  0.13880200  0.01335855  1.0
  Ni  Ni589  1  0.53898017  0.47213533  0.01335855  1.0
  Ni  Ni590  1  0.53898017  0.80546867  0.01335855  1.0
  Ni  Ni591  1  0.87231350  0.13880200  0.01335855  1.0
  Ni  Ni592  1  0.87231350  0.47213533  0.01335855  1.0
  Ni  Ni593  1  0.87231350  0.80546867  0.01335855  1.0
  Ni  Ni594  1  0.05010517  0.28287733  0.08280875  1.0
  Ni  Ni595  1  0.05010517  0.61621067  0.08280875  1.0
  Ni  Ni596  1  0.05010517  0.94954400  0.08280875  1.0
  Ni  Ni597  1  0.38343850  0.28287733  0.08280875  1.0
  Ni  Ni598  1  0.38343850  0.61621067  0.08280875  1.0
  Ni  Ni599  1  0.38343850  0.94954400  0.08280875  1.0
  Ni  Ni600  1  0.71677183  0.28287733  0.08280875  1.0
  Ni  Ni601  1  0.71677183  0.61621067  0.08280875  1.0
  Ni  Ni602  1  0.71677183  0.94954400  0.08280875  1.0
  Ni  Ni603  1  0.21677183  0.28287733  0.18280875  1.0
  Ni  Ni604  1  0.21677183  0.61621067  0.18280875  1.0
  Ni  Ni605  1  0.21677183  0.94954400  0.18280875  1.0
  Ni  Ni606  1  0.55010517  0.28287733  0.18280875  1.0
  Ni  Ni607  1  0.55010517  0.61621067  0.18280875  1.0
  Ni  Ni608  1  0.55010517  0.94954400  0.18280875  1.0
  Ni  Ni609  1  0.88343850  0.28287733  0.18280875  1.0
  Ni  Ni610  1  0.88343850  0.61621067  0.18280875  1.0
  Ni  Ni611  1  0.88343850  0.94954400  0.18280875  1.0
  Ni  Ni612  1  0.11656150  0.05045600  0.00201255  1.0
  Ni  Ni613  1  0.11656150  0.38378933  0.00201255  1.0
  Ni  Ni614  1  0.11656150  0.71712267  0.00201255  1.0
  Ni  Ni615  1  0.44989483  0.05045600  0.00201255  1.0
  Ni  Ni616  1  0.44989483  0.38378933  0.00201255  1.0
  Ni  Ni617  1  0.44989483  0.71712267  0.00201255  1.0
  Ni  Ni618  1  0.78322817  0.05045600  0.00201255  1.0
  Ni  Ni619  1  0.78322817  0.38378933  0.00201255  1.0
  Ni  Ni620  1  0.78322817  0.71712267  0.00201255  1.0
  Ni  Ni621  1  0.28322817  0.05045600  0.10201255  1.0
  Ni  Ni622  1  0.28322817  0.38378933  0.10201255  1.0
  Ni  Ni623  1  0.28322817  0.71712267  0.10201255  1.0
  Ni  Ni624  1  0.61656150  0.05045600  0.10201255  1.0
  Ni  Ni625  1  0.61656150  0.38378933  0.10201255  1.0
  Ni  Ni626  1  0.61656150  0.71712267  0.10201255  1.0
  Ni  Ni627  1  0.94989483  0.05045600  0.10201255  1.0
  Ni  Ni628  1  0.94989483  0.38378933  0.10201255  1.0
  Ni  Ni629  1  0.94989483  0.71712267  0.10201255  1.0
  Ni  Ni630  1  0.14269033  0.27850967  0.19668225  1.0
  Ni  Ni631  1  0.14269033  0.61184300  0.19668225  1.0
  Ni  Ni632  1  0.14269033  0.94517633  0.19668225  1.0
  Ni  Ni633  1  0.47602367  0.27850967  0.19668225  1.0
  Ni  Ni634  1  0.47602367  0.61184300  0.19668225  1.0
  Ni  Ni635  1  0.47602367  0.94517633  0.19668225  1.0
  Ni  Ni636  1  0.80935700  0.27850967  0.19668225  1.0
  Ni  Ni637  1  0.80935700  0.61184300  0.19668225  1.0
  Ni  Ni638  1  0.80935700  0.94517633  0.19668225  1.0
  Ni  Ni639  1  0.30935700  0.27850967  0.09668225  1.0
  Ni  Ni640  1  0.30935700  0.61184300  0.09668225  1.0
  Ni  Ni641  1  0.30935700  0.94517633  0.09668225  1.0
  Ni  Ni642  1  0.64269033  0.27850967  0.09668225  1.0
  Ni  Ni643  1  0.64269033  0.61184300  0.09668225  1.0
  Ni  Ni644  1  0.64269033  0.94517633  0.09668225  1.0
  Ni  Ni645  1  0.97602367  0.27850967  0.09668225  1.0
  Ni  Ni646  1  0.97602367  0.61184300  0.09668225  1.0
  Ni  Ni647  1  0.97602367  0.94517633  0.09668225  1.0
  Ni  Ni648  1  0.02397633  0.05482367  0.08813905  1.0
  Ni  Ni649  1  0.02397633  0.38815700  0.08813905  1.0
  Ni  Ni650  1  0.02397633  0.72149033  0.08813905  1.0
  Ni  Ni651  1  0.35730967  0.05482367  0.08813905  1.0
  Ni  Ni652  1  0.35730967  0.38815700  0.08813905  1.0
  Ni  Ni653  1  0.35730967  0.72149033  0.08813905  1.0
  Ni  Ni654  1  0.69064300  0.05482367  0.08813905  1.0
  Ni  Ni655  1  0.69064300  0.38815700  0.08813905  1.0
  Ni  Ni656  1  0.69064300  0.72149033  0.08813905  1.0
  Ni  Ni657  1  0.19064300  0.05482367  0.18813905  1.0
  Ni  Ni658  1  0.19064300  0.38815700  0.18813905  1.0
  Ni  Ni659  1  0.19064300  0.72149033  0.18813905  1.0
  Ni  Ni660  1  0.52397633  0.05482367  0.18813905  1.0
  Ni  Ni661  1  0.52397633  0.38815700  0.18813905  1.0
  Ni  Ni662  1  0.52397633  0.72149033  0.18813905  1.0
  Ni  Ni663  1  0.85730967  0.05482367  0.18813905  1.0
  Ni  Ni664  1  0.85730967  0.38815700  0.18813905  1.0
  Ni  Ni665  1  0.85730967  0.72149033  0.18813905  1.0
  Ni  Ni666  1  0.16666667  0.00000000  0.09241065  1.0
  Ni  Ni667  1  0.16666667  0.33333333  0.09241065  1.0
  Ni  Ni668  1  0.16666667  0.66666667  0.09241065  1.0
  Ni  Ni669  1  0.50000000  0.00000000  0.09241065  1.0
  Ni  Ni670  1  0.50000000  0.33333333  0.09241065  1.0
  Ni  Ni671  1  0.50000000  0.66666667  0.09241065  1.0
  Ni  Ni672  1  0.83333333  0.00000000  0.09241065  1.0
  Ni  Ni673  1  0.83333333  0.33333333  0.09241065  1.0
  Ni  Ni674  1  0.83333333  0.66666667  0.09241065  1.0
  Ni  Ni675  1  0.00000000  0.00000000  0.19241065  1.0
  Ni  Ni676  1  0.00000000  0.33333333  0.19241065  1.0
  Ni  Ni677  1  0.00000000  0.66666667  0.19241065  1.0
  Ni  Ni678  1  0.33333333  0.00000000  0.19241065  1.0
  Ni  Ni679  1  0.33333333  0.33333333  0.19241065  1.0
  Ni  Ni680  1  0.33333333  0.66666667  0.19241065  1.0
  Ni  Ni681  1  0.66666667  0.00000000  0.19241065  1.0
  Ni  Ni682  1  0.66666667  0.33333333  0.19241065  1.0
  Ni  Ni683  1  0.66666667  0.66666667  0.19241065  1.0
  Ni  Ni684  1  0.02405867  0.14579633  0.03455445  1.0
  Ni  Ni685  1  0.02405867  0.47912967  0.03455445  1.0
  Ni  Ni686  1  0.02405867  0.81246300  0.03455445  1.0
  Ni  Ni687  1  0.35739200  0.14579633  0.03455445  1.0
  Ni  Ni688  1  0.35739200  0.47912967  0.03455445  1.0
  Ni  Ni689  1  0.35739200  0.81246300  0.03455445  1.0
  Ni  Ni690  1  0.69072533  0.14579633  0.03455445  1.0
  Ni  Ni691  1  0.69072533  0.47912967  0.03455445  1.0
  Ni  Ni692  1  0.69072533  0.81246300  0.03455445  1.0
  Ni  Ni693  1  0.19072533  0.14579633  0.13455445  1.0
  Ni  Ni694  1  0.19072533  0.47912967  0.13455445  1.0
  Ni  Ni695  1  0.19072533  0.81246300  0.13455445  1.0
  Ni  Ni696  1  0.52405867  0.14579633  0.13455445  1.0
  Ni  Ni697  1  0.52405867  0.47912967  0.13455445  1.0
  Ni  Ni698  1  0.52405867  0.81246300  0.13455445  1.0
  Ni  Ni699  1  0.85739200  0.14579633  0.13455445  1.0
  Ni  Ni700  1  0.85739200  0.47912967  0.13455445  1.0
  Ni  Ni701  1  0.85739200  0.81246300  0.13455445  1.0
  Ni  Ni702  1  0.14260800  0.18753700  0.05026685  1.0
  Ni  Ni703  1  0.14260800  0.52087033  0.05026685  1.0
  Ni  Ni704  1  0.14260800  0.85420367  0.05026685  1.0
  Ni  Ni705  1  0.47594133  0.18753700  0.05026685  1.0
  Ni  Ni706  1  0.47594133  0.52087033  0.05026685  1.0
  Ni  Ni707  1  0.47594133  0.85420367  0.05026685  1.0
  Ni  Ni708  1  0.80927467  0.18753700  0.05026685  1.0
  Ni  Ni709  1  0.80927467  0.52087033  0.05026685  1.0
  Ni  Ni710  1  0.80927467  0.85420367  0.05026685  1.0
  Ni  Ni711  1  0.30927467  0.18753700  0.15026685  1.0
  Ni  Ni712  1  0.30927467  0.52087033  0.15026685  1.0
  Ni  Ni713  1  0.30927467  0.85420367  0.15026685  1.0
  Ni  Ni714  1  0.64260800  0.18753700  0.15026685  1.0
  Ni  Ni715  1  0.64260800  0.52087033  0.15026685  1.0
  Ni  Ni716  1  0.64260800  0.85420367  0.15026685  1.0
  Ni  Ni717  1  0.97594133  0.18753700  0.15026685  1.0
  Ni  Ni718  1  0.97594133  0.52087033  0.15026685  1.0
  Ni  Ni719  1  0.97594133  0.85420367  0.15026685  1.0
  In  In720  1  0.02718867  0.20149467  0.39448305  1.0
  In  In721  1  0.02718867  0.53482800  0.39448305  1.0
  In  In722  1  0.02718867  0.86816133  0.39448305  1.0
  In  In723  1  0.36052200  0.20149467  0.39448305  1.0
  In  In724  1  0.36052200  0.53482800  0.39448305  1.0
  In  In725  1  0.36052200  0.86816133  0.39448305  1.0
  In  In726  1  0.69385533  0.20149467  0.39448305  1.0
  In  In727  1  0.69385533  0.53482800  0.39448305  1.0
  In  In728  1  0.69385533  0.86816133  0.39448305  1.0
  In  In729  1  0.19385533  0.20149467  0.29448305  1.0
  In  In730  1  0.19385533  0.53482800  0.29448305  1.0
  In  In731  1  0.19385533  0.86816133  0.29448305  1.0
  In  In732  1  0.52718867  0.20149467  0.29448305  1.0
  In  In733  1  0.52718867  0.53482800  0.29448305  1.0
  In  In734  1  0.52718867  0.86816133  0.29448305  1.0
  In  In735  1  0.86052200  0.20149467  0.29448305  1.0
  In  In736  1  0.86052200  0.53482800  0.29448305  1.0
  In  In737  1  0.86052200  0.86816133  0.29448305  1.0
  In  In738  1  0.13947800  0.13183867  0.29033825  1.0
  In  In739  1  0.13947800  0.46517200  0.29033825  1.0
  In  In740  1  0.13947800  0.79850533  0.29033825  1.0
  In  In741  1  0.47281133  0.13183867  0.29033825  1.0
  In  In742  1  0.47281133  0.46517200  0.29033825  1.0
  In  In743  1  0.47281133  0.79850533  0.29033825  1.0
  In  In744  1  0.80614467  0.13183867  0.29033825  1.0
  In  In745  1  0.80614467  0.46517200  0.29033825  1.0
  In  In746  1  0.80614467  0.79850533  0.29033825  1.0
  In  In747  1  0.30614467  0.13183867  0.39033825  1.0
  In  In748  1  0.30614467  0.46517200  0.39033825  1.0
  In  In749  1  0.30614467  0.79850533  0.39033825  1.0
  In  In750  1  0.63947800  0.13183867  0.39033825  1.0
  In  In751  1  0.63947800  0.46517200  0.39033825  1.0
  In  In752  1  0.63947800  0.79850533  0.39033825  1.0
  In  In753  1  0.97281133  0.13183867  0.39033825  1.0
  In  In754  1  0.97281133  0.46517200  0.39033825  1.0
  In  In755  1  0.97281133  0.79850533  0.39033825  1.0
  In  In756  1  0.04796217  0.32838733  0.23112895  1.0
  In  In757  1  0.04796217  0.66172067  0.23112895  1.0
  In  In758  1  0.04796217  0.99505400  0.23112895  1.0
  In  In759  1  0.38129550  0.32838733  0.23112895  1.0
  In  In760  1  0.38129550  0.66172067  0.23112895  1.0
  In  In761  1  0.38129550  0.99505400  0.23112895  1.0
  In  In762  1  0.71462883  0.32838733  0.23112895  1.0
  In  In763  1  0.71462883  0.66172067  0.23112895  1.0
  In  In764  1  0.71462883  0.99505400  0.23112895  1.0
  In  In765  1  0.21462883  0.32838733  0.33112895  1.0
  In  In766  1  0.21462883  0.66172067  0.33112895  1.0
  In  In767  1  0.21462883  0.99505400  0.33112895  1.0
  In  In768  1  0.54796217  0.32838733  0.33112895  1.0
  In  In769  1  0.54796217  0.66172067  0.33112895  1.0
  In  In770  1  0.54796217  0.99505400  0.33112895  1.0
  In  In771  1  0.88129550  0.32838733  0.33112895  1.0
  In  In772  1  0.88129550  0.66172067  0.33112895  1.0
  In  In773  1  0.88129550  0.99505400  0.33112895  1.0
  In  In774  1  0.11870450  0.00494600  0.25369235  1.0
  In  In775  1  0.11870450  0.33827933  0.25369235  1.0
  In  In776  1  0.11870450  0.67161267  0.25369235  1.0
  In  In777  1  0.45203783  0.00494600  0.25369235  1.0
  In  In778  1  0.45203783  0.33827933  0.25369235  1.0
  In  In779  1  0.45203783  0.67161267  0.25369235  1.0
  In  In780  1  0.78537117  0.00494600  0.25369235  1.0
  In  In781  1  0.78537117  0.33827933  0.25369235  1.0
  In  In782  1  0.78537117  0.67161267  0.25369235  1.0
  In  In783  1  0.28537117  0.00494600  0.35369235  1.0
  In  In784  1  0.28537117  0.33827933  0.35369235  1.0
  In  In785  1  0.28537117  0.67161267  0.35369235  1.0
  In  In786  1  0.61870450  0.00494600  0.35369235  1.0
  In  In787  1  0.61870450  0.33827933  0.35369235  1.0
  In  In788  1  0.61870450  0.67161267  0.35369235  1.0
  In  In789  1  0.95203783  0.00494600  0.35369235  1.0
  In  In790  1  0.95203783  0.33827933  0.35369235  1.0
  In  In791  1  0.95203783  0.67161267  0.35369235  1.0
  In  In792  1  0.07857567  0.14851367  0.28658665  1.0
  In  In793  1  0.07857567  0.48184700  0.28658665  1.0
  In  In794  1  0.07857567  0.81518033  0.28658665  1.0
  In  In795  1  0.41190900  0.14851367  0.28658665  1.0
  In  In796  1  0.41190900  0.48184700  0.28658665  1.0
  In  In797  1  0.41190900  0.81518033  0.28658665  1.0
  In  In798  1  0.74524233  0.14851367  0.28658665  1.0
  In  In799  1  0.74524233  0.48184700  0.28658665  1.0
  In  In800  1  0.74524233  0.81518033  0.28658665  1.0
  In  In801  1  0.24524233  0.14851367  0.38658665  1.0
  In  In802  1  0.24524233  0.48184700  0.38658665  1.0
  In  In803  1  0.24524233  0.81518033  0.38658665  1.0
  In  In804  1  0.57857567  0.14851367  0.38658665  1.0
  In  In805  1  0.57857567  0.48184700  0.38658665  1.0
  In  In806  1  0.57857567  0.81518033  0.38658665  1.0
  In  In807  1  0.91190900  0.14851367  0.38658665  1.0
  In  In808  1  0.91190900  0.48184700  0.38658665  1.0
  In  In809  1  0.91190900  0.81518033  0.38658665  1.0
  In  In810  1  0.08809100  0.18481967  0.39823465  1.0
  In  In811  1  0.08809100  0.51815300  0.39823465  1.0
  In  In812  1  0.08809100  0.85148633  0.39823465  1.0
  In  In813  1  0.42142433  0.18481967  0.39823465  1.0
  In  In814  1  0.42142433  0.51815300  0.39823465  1.0
  In  In815  1  0.42142433  0.85148633  0.39823465  1.0
  In  In816  1  0.75475767  0.18481967  0.39823465  1.0
  In  In817  1  0.75475767  0.51815300  0.39823465  1.0
  In  In818  1  0.75475767  0.85148633  0.39823465  1.0
  In  In819  1  0.25475767  0.18481967  0.29823465  1.0
  In  In820  1  0.25475767  0.51815300  0.29823465  1.0
  In  In821  1  0.25475767  0.85148633  0.29823465  1.0
  In  In822  1  0.58809100  0.18481967  0.29823465  1.0
  In  In823  1  0.58809100  0.51815300  0.29823465  1.0
  In  In824  1  0.58809100  0.85148633  0.29823465  1.0
  In  In825  1  0.92142433  0.18481967  0.29823465  1.0
  In  In826  1  0.92142433  0.51815300  0.29823465  1.0
  In  In827  1  0.92142433  0.85148633  0.29823465  1.0
  In  In828  1  0.10584400  0.29186300  0.32562745  1.0
  In  In829  1  0.10584400  0.62519633  0.32562745  1.0
  In  In830  1  0.10584400  0.95852967  0.32562745  1.0
  In  In831  1  0.43917733  0.29186300  0.32562745  1.0
  In  In832  1  0.43917733  0.62519633  0.32562745  1.0
  In  In833  1  0.43917733  0.95852967  0.32562745  1.0
  In  In834  1  0.77251067  0.29186300  0.32562745  1.0
  In  In835  1  0.77251067  0.62519633  0.32562745  1.0
  In  In836  1  0.77251067  0.95852967  0.32562745  1.0
  In  In837  1  0.27251067  0.29186300  0.22562745  1.0
  In  In838  1  0.27251067  0.62519633  0.22562745  1.0
  In  In839  1  0.27251067  0.95852967  0.22562745  1.0
  In  In840  1  0.60584400  0.29186300  0.22562745  1.0
  In  In841  1  0.60584400  0.62519633  0.22562745  1.0
  In  In842  1  0.60584400  0.95852967  0.22562745  1.0
  In  In843  1  0.93917733  0.29186300  0.22562745  1.0
  In  In844  1  0.93917733  0.62519633  0.22562745  1.0
  In  In845  1  0.93917733  0.95852967  0.22562745  1.0
  In  In846  1  0.06082267  0.04147033  0.35919385  1.0
  In  In847  1  0.06082267  0.37480367  0.35919385  1.0
  In  In848  1  0.06082267  0.70813700  0.35919385  1.0
  In  In849  1  0.39415600  0.04147033  0.35919385  1.0
  In  In850  1  0.39415600  0.37480367  0.35919385  1.0
  In  In851  1  0.39415600  0.70813700  0.35919385  1.0
  In  In852  1  0.72748933  0.04147033  0.35919385  1.0
  In  In853  1  0.72748933  0.37480367  0.35919385  1.0
  In  In854  1  0.72748933  0.70813700  0.35919385  1.0
  In  In855  1  0.22748933  0.04147033  0.25919385  1.0
  In  In856  1  0.22748933  0.37480367  0.25919385  1.0
  In  In857  1  0.22748933  0.70813700  0.25919385  1.0
  In  In858  1  0.56082267  0.04147033  0.25919385  1.0
  In  In859  1  0.56082267  0.37480367  0.25919385  1.0
  In  In860  1  0.56082267  0.70813700  0.25919385  1.0
  In  In861  1  0.89415600  0.04147033  0.25919385  1.0
  In  In862  1  0.89415600  0.37480367  0.25919385  1.0
  In  In863  1  0.89415600  0.70813700  0.25919385  1.0
  In  In864  1  0.00053767  0.04471333  0.34358205  1.0
  In  In865  1  0.00053767  0.37804667  0.34358205  1.0
  In  In866  1  0.00053767  0.71138000  0.34358205  1.0
  In  In867  1  0.33387100  0.04471333  0.34358205  1.0
  In  In868  1  0.33387100  0.37804667  0.34358205  1.0
  In  In869  1  0.33387100  0.71138000  0.34358205  1.0
  In  In870  1  0.66720433  0.04471333  0.34358205  1.0
  In  In871  1  0.66720433  0.37804667  0.34358205  1.0
  In  In872  1  0.66720433  0.71138000  0.34358205  1.0
  In  In873  1  0.16720433  0.04471333  0.24358205  1.0
  In  In874  1  0.16720433  0.37804667  0.24358205  1.0
  In  In875  1  0.16720433  0.71138000  0.24358205  1.0
  In  In876  1  0.50053767  0.04471333  0.24358205  1.0
  In  In877  1  0.50053767  0.37804667  0.24358205  1.0
  In  In878  1  0.50053767  0.71138000  0.24358205  1.0
  In  In879  1  0.83387100  0.04471333  0.24358205  1.0
  In  In880  1  0.83387100  0.37804667  0.24358205  1.0
  In  In881  1  0.83387100  0.71138000  0.24358205  1.0
  In  In882  1  0.16612900  0.28862000  0.34123925  1.0
  In  In883  1  0.16612900  0.62195333  0.34123925  1.0
  In  In884  1  0.16612900  0.95528667  0.34123925  1.0
  In  In885  1  0.49946233  0.28862000  0.34123925  1.0
  In  In886  1  0.49946233  0.62195333  0.34123925  1.0
  In  In887  1  0.49946233  0.95528667  0.34123925  1.0
  In  In888  1  0.83279567  0.28862000  0.34123925  1.0
  In  In889  1  0.83279567  0.62195333  0.34123925  1.0
  In  In890  1  0.83279567  0.95528667  0.34123925  1.0
  In  In891  1  0.33279567  0.28862000  0.24123925  1.0
  In  In892  1  0.33279567  0.62195333  0.24123925  1.0
  In  In893  1  0.33279567  0.95528667  0.24123925  1.0
  In  In894  1  0.66612900  0.28862000  0.24123925  1.0
  In  In895  1  0.66612900  0.62195333  0.24123925  1.0
  In  In896  1  0.66612900  0.95528667  0.24123925  1.0
  In  In897  1  0.99946233  0.28862000  0.24123925  1.0
  In  In898  1  0.99946233  0.62195333  0.24123925  1.0
  In  In899  1  0.99946233  0.95528667  0.24123925  1.0
  In  In900  1  0.04454200  0.22881333  0.32591265  1.0
  In  In901  1  0.04454200  0.56214667  0.32591265  1.0
  In  In902  1  0.04454200  0.89548000  0.32591265  1.0
  In  In903  1  0.37787533  0.22881333  0.32591265  1.0
  In  In904  1  0.37787533  0.56214667  0.32591265  1.0
  In  In905  1  0.37787533  0.89548000  0.32591265  1.0
  In  In906  1  0.71120867  0.22881333  0.32591265  1.0
  In  In907  1  0.71120867  0.56214667  0.32591265  1.0
  In  In908  1  0.71120867  0.89548000  0.32591265  1.0
  In  In909  1  0.21120867  0.22881333  0.22591265  1.0
  In  In910  1  0.21120867  0.56214667  0.22591265  1.0
  In  In911  1  0.21120867  0.89548000  0.22591265  1.0
  In  In912  1  0.54454200  0.22881333  0.22591265  1.0
  In  In913  1  0.54454200  0.56214667  0.22591265  1.0
  In  In914  1  0.54454200  0.89548000  0.22591265  1.0
  In  In915  1  0.87787533  0.22881333  0.22591265  1.0
  In  In916  1  0.87787533  0.56214667  0.22591265  1.0
  In  In917  1  0.87787533  0.89548000  0.22591265  1.0
  In  In918  1  0.12212467  0.10452000  0.35890865  1.0
  In  In919  1  0.12212467  0.43785333  0.35890865  1.0
  In  In920  1  0.12212467  0.77118667  0.35890865  1.0
  In  In921  1  0.45545800  0.10452000  0.35890865  1.0
  In  In922  1  0.45545800  0.43785333  0.35890865  1.0
  In  In923  1  0.45545800  0.77118667  0.35890865  1.0
  In  In924  1  0.78879133  0.10452000  0.35890865  1.0
  In  In925  1  0.78879133  0.43785333  0.35890865  1.0
  In  In926  1  0.78879133  0.77118667  0.35890865  1.0
  In  In927  1  0.28879133  0.10452000  0.25890865  1.0
  In  In928  1  0.28879133  0.43785333  0.25890865  1.0
  In  In929  1  0.28879133  0.77118667  0.25890865  1.0
  In  In930  1  0.62212467  0.10452000  0.25890865  1.0
  In  In931  1  0.62212467  0.43785333  0.25890865  1.0
  In  In932  1  0.62212467  0.77118667  0.25890865  1.0
  In  In933  1  0.95545800  0.10452000  0.25890865  1.0
  In  In934  1  0.95545800  0.43785333  0.25890865  1.0
  In  In935  1  0.95545800  0.77118667  0.25890865  1.0
  Ni  Ni936  1  0.03932783  0.07200300  0.23114755  1.0
  Ni  Ni937  1  0.03932783  0.40533633  0.23114755  1.0
  Ni  Ni938  1  0.03932783  0.73866967  0.23114755  1.0
  Ni  Ni939  1  0.37266117  0.07200300  0.23114755  1.0
  Ni  Ni940  1  0.37266117  0.40533633  0.23114755  1.0
  Ni  Ni941  1  0.37266117  0.73866967  0.23114755  1.0
  Ni  Ni942  1  0.70599450  0.07200300  0.23114755  1.0
  Ni  Ni943  1  0.70599450  0.40533633  0.23114755  1.0
  Ni  Ni944  1  0.70599450  0.73866967  0.23114755  1.0
  Ni  Ni945  1  0.20599450  0.07200300  0.33114755  1.0
  Ni  Ni946  1  0.20599450  0.40533633  0.33114755  1.0
  Ni  Ni947  1  0.20599450  0.73866967  0.33114755  1.0
  Ni  Ni948  1  0.53932783  0.07200300  0.33114755  1.0
  Ni  Ni949  1  0.53932783  0.40533633  0.33114755  1.0
  Ni  Ni950  1  0.53932783  0.73866967  0.33114755  1.0
  Ni  Ni951  1  0.87266117  0.07200300  0.33114755  1.0
  Ni  Ni952  1  0.87266117  0.40533633  0.33114755  1.0
  Ni  Ni953  1  0.87266117  0.73866967  0.33114755  1.0
  Ni  Ni954  1  0.12733883  0.26133033  0.25367375  1.0
  Ni  Ni955  1  0.12733883  0.59466367  0.25367375  1.0
  Ni  Ni956  1  0.12733883  0.92799700  0.25367375  1.0
  Ni  Ni957  1  0.46067217  0.26133033  0.25367375  1.0
  Ni  Ni958  1  0.46067217  0.59466367  0.25367375  1.0
  Ni  Ni959  1  0.46067217  0.92799700  0.25367375  1.0
  Ni  Ni960  1  0.79400550  0.26133033  0.25367375  1.0
  Ni  Ni961  1  0.79400550  0.59466367  0.25367375  1.0
  Ni  Ni962  1  0.79400550  0.92799700  0.25367375  1.0
  Ni  Ni963  1  0.29400550  0.26133033  0.35367375  1.0
  Ni  Ni964  1  0.29400550  0.59466367  0.35367375  1.0
  Ni  Ni965  1  0.29400550  0.92799700  0.35367375  1.0
  Ni  Ni966  1  0.62733883  0.26133033  0.35367375  1.0
  Ni  Ni967  1  0.62733883  0.59466367  0.35367375  1.0
  Ni  Ni968  1  0.62733883  0.92799700  0.35367375  1.0
  Ni  Ni969  1  0.96067217  0.26133033  0.35367375  1.0
  Ni  Ni970  1  0.96067217  0.59466367  0.35367375  1.0
  Ni  Ni971  1  0.96067217  0.92799700  0.35367375  1.0
  Ni  Ni972  1  0.00275883  0.24988967  0.34957115  1.0
  Ni  Ni973  1  0.00275883  0.58322300  0.34957115  1.0
  Ni  Ni974  1  0.00275883  0.91655633  0.34957115  1.0
  Ni  Ni975  1  0.33609217  0.24988967  0.34957115  1.0
  Ni  Ni976  1  0.33609217  0.58322300  0.34957115  1.0
  Ni  Ni977  1  0.33609217  0.91655633  0.34957115  1.0
  Ni  Ni978  1  0.66942550  0.24988967  0.34957115  1.0
  Ni  Ni979  1  0.66942550  0.58322300  0.34957115  1.0
  Ni  Ni980  1  0.66942550  0.91655633  0.34957115  1.0
  Ni  Ni981  1  0.16942550  0.24988967  0.24957115  1.0
  Ni  Ni982  1  0.16942550  0.58322300  0.24957115  1.0
  Ni  Ni983  1  0.16942550  0.91655633  0.24957115  1.0
  Ni  Ni984  1  0.50275883  0.24988967  0.24957115  1.0
  Ni  Ni985  1  0.50275883  0.58322300  0.24957115  1.0
  Ni  Ni986  1  0.50275883  0.91655633  0.24957115  1.0
  Ni  Ni987  1  0.83609217  0.24988967  0.24957115  1.0
  Ni  Ni988  1  0.83609217  0.58322300  0.24957115  1.0
  Ni  Ni989  1  0.83609217  0.91655633  0.24957115  1.0
  Ni  Ni990  1  0.16390783  0.08344367  0.33525015  1.0
  Ni  Ni991  1  0.16390783  0.41677700  0.33525015  1.0
  Ni  Ni992  1  0.16390783  0.75011033  0.33525015  1.0
  Ni  Ni993  1  0.49724117  0.08344367  0.33525015  1.0
  Ni  Ni994  1  0.49724117  0.41677700  0.33525015  1.0
  Ni  Ni995  1  0.49724117  0.75011033  0.33525015  1.0
  Ni  Ni996  1  0.83057450  0.08344367  0.33525015  1.0
  Ni  Ni997  1  0.83057450  0.41677700  0.33525015  1.0
  Ni  Ni998  1  0.83057450  0.75011033  0.33525015  1.0
  Ni  Ni999  1  0.33057450  0.08344367  0.23525015  1.0
  Ni  Ni1000  1  0.33057450  0.41677700  0.23525015  1.0
  Ni  Ni1001  1  0.33057450  0.75011033  0.23525015  1.0
  Ni  Ni1002  1  0.66390783  0.08344367  0.23525015  1.0
  Ni  Ni1003  1  0.66390783  0.41677700  0.23525015  1.0
  Ni  Ni1004  1  0.66390783  0.75011033  0.23525015  1.0
  Ni  Ni1005  1  0.99724117  0.08344367  0.23525015  1.0
  Ni  Ni1006  1  0.99724117  0.41677700  0.23525015  1.0
  Ni  Ni1007  1  0.99724117  0.75011033  0.23525015  1.0
  Ni  Ni1008  1  0.07631850  0.31251900  0.37723195  1.0
  Ni  Ni1009  1  0.07631850  0.64585233  0.37723195  1.0
  Ni  Ni1010  1  0.07631850  0.97918567  0.37723195  1.0
  Ni  Ni1011  1  0.40965183  0.31251900  0.37723195  1.0
  Ni  Ni1012  1  0.40965183  0.64585233  0.37723195  1.0
  Ni  Ni1013  1  0.40965183  0.97918567  0.37723195  1.0
  Ni  Ni1014  1  0.74298517  0.31251900  0.37723195  1.0
  Ni  Ni1015  1  0.74298517  0.64585233  0.37723195  1.0
  Ni  Ni1016  1  0.74298517  0.97918567  0.37723195  1.0
  Ni  Ni1017  1  0.24298517  0.31251900  0.27723195  1.0
  Ni  Ni1018  1  0.24298517  0.64585233  0.27723195  1.0
  Ni  Ni1019  1  0.24298517  0.97918567  0.27723195  1.0
  Ni  Ni1020  1  0.57631850  0.31251900  0.27723195  1.0
  Ni  Ni1021  1  0.57631850  0.64585233  0.27723195  1.0
  Ni  Ni1022  1  0.57631850  0.97918567  0.27723195  1.0
  Ni  Ni1023  1  0.90965183  0.31251900  0.27723195  1.0
  Ni  Ni1024  1  0.90965183  0.64585233  0.27723195  1.0
  Ni  Ni1025  1  0.90965183  0.97918567  0.27723195  1.0
  Ni  Ni1026  1  0.09034817  0.02081433  0.30758935  1.0
  Ni  Ni1027  1  0.09034817  0.35414767  0.30758935  1.0
  Ni  Ni1028  1  0.09034817  0.68748100  0.30758935  1.0
  Ni  Ni1029  1  0.42368150  0.02081433  0.30758935  1.0
  Ni  Ni1030  1  0.42368150  0.35414767  0.30758935  1.0
  Ni  Ni1031  1  0.42368150  0.68748100  0.30758935  1.0
  Ni  Ni1032  1  0.75701483  0.02081433  0.30758935  1.0
  Ni  Ni1033  1  0.75701483  0.35414767  0.30758935  1.0
  Ni  Ni1034  1  0.75701483  0.68748100  0.30758935  1.0
  Ni  Ni1035  1  0.25701483  0.02081433  0.20758935  1.0
  Ni  Ni1036  1  0.25701483  0.35414767  0.20758935  1.0
  Ni  Ni1037  1  0.25701483  0.68748100  0.20758935  1.0
  Ni  Ni1038  1  0.59034817  0.02081433  0.20758935  1.0
  Ni  Ni1039  1  0.59034817  0.35414767  0.20758935  1.0
  Ni  Ni1040  1  0.59034817  0.68748100  0.20758935  1.0
  Ni  Ni1041  1  0.92368150  0.02081433  0.20758935  1.0
  Ni  Ni1042  1  0.92368150  0.35414767  0.20758935  1.0
  Ni  Ni1043  1  0.92368150  0.68748100  0.20758935  1.0
  Ni  Ni1044  1  0.06906533  0.21211267  0.26594625  1.0
  Ni  Ni1045  1  0.06906533  0.54544600  0.26594625  1.0
  Ni  Ni1046  1  0.06906533  0.87877933  0.26594625  1.0
  Ni  Ni1047  1  0.40239867  0.21211267  0.26594625  1.0
  Ni  Ni1048  1  0.40239867  0.54544600  0.26594625  1.0
  Ni  Ni1049  1  0.40239867  0.87877933  0.26594625  1.0
  Ni  Ni1050  1  0.73573200  0.21211267  0.26594625  1.0
  Ni  Ni1051  1  0.73573200  0.54544600  0.26594625  1.0
  Ni  Ni1052  1  0.73573200  0.87877933  0.26594625  1.0
  Ni  Ni1053  1  0.23573200  0.21211267  0.36594625  1.0
  Ni  Ni1054  1  0.23573200  0.54544600  0.36594625  1.0
  Ni  Ni1055  1  0.23573200  0.87877933  0.36594625  1.0
  Ni  Ni1056  1  0.56906533  0.21211267  0.36594625  1.0
  Ni  Ni1057  1  0.56906533  0.54544600  0.36594625  1.0
  Ni  Ni1058  1  0.56906533  0.87877933  0.36594625  1.0
  Ni  Ni1059  1  0.90239867  0.21211267  0.36594625  1.0
  Ni  Ni1060  1  0.90239867  0.54544600  0.36594625  1.0
  Ni  Ni1061  1  0.90239867  0.87877933  0.36594625  1.0
  Ni  Ni1062  1  0.09760133  0.12122067  0.21887505  1.0
  Ni  Ni1063  1  0.09760133  0.45455400  0.21887505  1.0
  Ni  Ni1064  1  0.09760133  0.78788733  0.21887505  1.0
  Ni  Ni1065  1  0.43093467  0.12122067  0.21887505  1.0
  Ni  Ni1066  1  0.43093467  0.45455400  0.21887505  1.0
  Ni  Ni1067  1  0.43093467  0.78788733  0.21887505  1.0
  Ni  Ni1068  1  0.76426800  0.12122067  0.21887505  1.0
  Ni  Ni1069  1  0.76426800  0.45455400  0.21887505  1.0
  Ni  Ni1070  1  0.76426800  0.78788733  0.21887505  1.0
  Ni  Ni1071  1  0.26426800  0.12122067  0.31887505  1.0
  Ni  Ni1072  1  0.26426800  0.45455400  0.31887505  1.0
  Ni  Ni1073  1  0.26426800  0.78788733  0.31887505  1.0
  Ni  Ni1074  1  0.59760133  0.12122067  0.31887505  1.0
  Ni  Ni1075  1  0.59760133  0.45455400  0.31887505  1.0
  Ni  Ni1076  1  0.59760133  0.78788733  0.31887505  1.0
  Ni  Ni1077  1  0.93093467  0.12122067  0.31887505  1.0
  Ni  Ni1078  1  0.93093467  0.45455400  0.31887505  1.0
  Ni  Ni1079  1  0.93093467  0.78788733  0.31887505  1.0
  Ni  Ni1080  1  0.04816733  0.12128233  0.38285765  1.0
  Ni  Ni1081  1  0.04816733  0.45461567  0.38285765  1.0
  Ni  Ni1082  1  0.04816733  0.78794900  0.38285765  1.0
  Ni  Ni1083  1  0.38150067  0.12128233  0.38285765  1.0
  Ni  Ni1084  1  0.38150067  0.45461567  0.38285765  1.0
  Ni  Ni1085  1  0.38150067  0.78794900  0.38285765  1.0
  Ni  Ni1086  1  0.71483400  0.12128233  0.38285765  1.0
  Ni  Ni1087  1  0.71483400  0.45461567  0.38285765  1.0
  Ni  Ni1088  1  0.71483400  0.78794900  0.38285765  1.0
  Ni  Ni1089  1  0.21483400  0.12128233  0.28285765  1.0
  Ni  Ni1090  1  0.21483400  0.45461567  0.28285765  1.0
  Ni  Ni1091  1  0.21483400  0.78794900  0.28285765  1.0
  Ni  Ni1092  1  0.54816733  0.12128233  0.28285765  1.0
  Ni  Ni1093  1  0.54816733  0.45461567  0.28285765  1.0
  Ni  Ni1094  1  0.54816733  0.78794900  0.28285765  1.0
  Ni  Ni1095  1  0.88150067  0.12128233  0.28285765  1.0
  Ni  Ni1096  1  0.88150067  0.45461567  0.28285765  1.0
  Ni  Ni1097  1  0.88150067  0.78794900  0.28285765  1.0
  Ni  Ni1098  1  0.11849933  0.21205100  0.30196365  1.0
  Ni  Ni1099  1  0.11849933  0.54538433  0.30196365  1.0
  Ni  Ni1100  1  0.11849933  0.87871767  0.30196365  1.0
  Ni  Ni1101  1  0.45183267  0.21205100  0.30196365  1.0
  Ni  Ni1102  1  0.45183267  0.54538433  0.30196365  1.0
  Ni  Ni1103  1  0.45183267  0.87871767  0.30196365  1.0
  Ni  Ni1104  1  0.78516600  0.21205100  0.30196365  1.0
  Ni  Ni1105  1  0.78516600  0.54538433  0.30196365  1.0
  Ni  Ni1106  1  0.78516600  0.87871767  0.30196365  1.0
  Ni  Ni1107  1  0.28516600  0.21205100  0.20196365  1.0
  Ni  Ni1108  1  0.28516600  0.54538433  0.20196365  1.0
  Ni  Ni1109  1  0.28516600  0.87871767  0.20196365  1.0
  Ni  Ni1110  1  0.61849933  0.21205100  0.20196365  1.0
  Ni  Ni1111  1  0.61849933  0.54538433  0.20196365  1.0
  Ni  Ni1112  1  0.61849933  0.87871767  0.20196365  1.0
  Ni  Ni1113  1  0.95183267  0.21205100  0.20196365  1.0
  Ni  Ni1114  1  0.95183267  0.54538433  0.20196365  1.0
  Ni  Ni1115  1  0.95183267  0.87871767  0.20196365  1.0
  Ni  Ni1116  1  0.09614483  0.24212767  0.36450155  1.0
  Ni  Ni1117  1  0.09614483  0.57546100  0.36450155  1.0
  Ni  Ni1118  1  0.09614483  0.90879433  0.36450155  1.0
  Ni  Ni1119  1  0.42947817  0.24212767  0.36450155  1.0
  Ni  Ni1120  1  0.42947817  0.57546100  0.36450155  1.0
  Ni  Ni1121  1  0.42947817  0.90879433  0.36450155  1.0
  Ni  Ni1122  1  0.76281150  0.24212767  0.36450155  1.0
  Ni  Ni1123  1  0.76281150  0.57546100  0.36450155  1.0
  Ni  Ni1124  1  0.76281150  0.90879433  0.36450155  1.0
  Ni  Ni1125  1  0.26281150  0.24212767  0.26450155  1.0
  Ni  Ni1126  1  0.26281150  0.57546100  0.26450155  1.0
  Ni  Ni1127  1  0.26281150  0.90879433  0.26450155  1.0
  Ni  Ni1128  1  0.59614483  0.24212767  0.26450155  1.0
  Ni  Ni1129  1  0.59614483  0.57546100  0.26450155  1.0
  Ni  Ni1130  1  0.59614483  0.90879433  0.26450155  1.0
  Ni  Ni1131  1  0.92947817  0.24212767  0.26450155  1.0
  Ni  Ni1132  1  0.92947817  0.57546100  0.26450155  1.0
  Ni  Ni1133  1  0.92947817  0.90879433  0.26450155  1.0
  Ni  Ni1134  1  0.07052183  0.09120567  0.32031975  1.0
  Ni  Ni1135  1  0.07052183  0.42453900  0.32031975  1.0
  Ni  Ni1136  1  0.07052183  0.75787233  0.32031975  1.0
  Ni  Ni1137  1  0.40385517  0.09120567  0.32031975  1.0
  Ni  Ni1138  1  0.40385517  0.42453900  0.32031975  1.0
  Ni  Ni1139  1  0.40385517  0.75787233  0.32031975  1.0
  Ni  Ni1140  1  0.73718850  0.09120567  0.32031975  1.0
  Ni  Ni1141  1  0.73718850  0.42453900  0.32031975  1.0
  Ni  Ni1142  1  0.73718850  0.75787233  0.32031975  1.0
  Ni  Ni1143  1  0.23718850  0.09120567  0.22031975  1.0
  Ni  Ni1144  1  0.23718850  0.42453900  0.22031975  1.0
  Ni  Ni1145  1  0.23718850  0.75787233  0.22031975  1.0
  Ni  Ni1146  1  0.57052183  0.09120567  0.22031975  1.0
  Ni  Ni1147  1  0.57052183  0.42453900  0.22031975  1.0
  Ni  Ni1148  1  0.57052183  0.75787233  0.22031975  1.0
  Ni  Ni1149  1  0.90385517  0.09120567  0.22031975  1.0
  Ni  Ni1150  1  0.90385517  0.42453900  0.22031975  1.0
  Ni  Ni1151  1  0.90385517  0.75787233  0.22031975  1.0
  Ni  Ni1152  1  0.16638083  0.22087733  0.35855335  1.0
  Ni  Ni1153  1  0.16638083  0.55421067  0.35855335  1.0
  Ni  Ni1154  1  0.16638083  0.88754400  0.35855335  1.0
  Ni  Ni1155  1  0.49971417  0.22087733  0.35855335  1.0
  Ni  Ni1156  1  0.49971417  0.55421067  0.35855335  1.0
  Ni  Ni1157  1  0.49971417  0.88754400  0.35855335  1.0
  Ni  Ni1158  1  0.83304750  0.22087733  0.35855335  1.0
  Ni  Ni1159  1  0.83304750  0.55421067  0.35855335  1.0
  Ni  Ni1160  1  0.83304750  0.88754400  0.35855335  1.0
  Ni  Ni1161  1  0.33304750  0.22087733  0.25855335  1.0
  Ni  Ni1162  1  0.33304750  0.55421067  0.25855335  1.0
  Ni  Ni1163  1  0.33304750  0.88754400  0.25855335  1.0
  Ni  Ni1164  1  0.66638083  0.22087733  0.25855335  1.0
  Ni  Ni1165  1  0.66638083  0.55421067  0.25855335  1.0
  Ni  Ni1166  1  0.66638083  0.88754400  0.25855335  1.0
  Ni  Ni1167  1  0.99971417  0.22087733  0.25855335  1.0
  Ni  Ni1168  1  0.99971417  0.55421067  0.25855335  1.0
  Ni  Ni1169  1  0.99971417  0.88754400  0.25855335  1.0
  Ni  Ni1170  1  0.00028583  0.11245600  0.32626795  1.0
  Ni  Ni1171  1  0.00028583  0.44578933  0.32626795  1.0
  Ni  Ni1172  1  0.00028583  0.77912267  0.32626795  1.0
  Ni  Ni1173  1  0.33361917  0.11245600  0.32626795  1.0
  Ni  Ni1174  1  0.33361917  0.44578933  0.32626795  1.0
  Ni  Ni1175  1  0.33361917  0.77912267  0.32626795  1.0
  Ni  Ni1176  1  0.66695250  0.11245600  0.32626795  1.0
  Ni  Ni1177  1  0.66695250  0.44578933  0.32626795  1.0
  Ni  Ni1178  1  0.66695250  0.77912267  0.32626795  1.0
  Ni  Ni1179  1  0.16695250  0.11245600  0.22626795  1.0
  Ni  Ni1180  1  0.16695250  0.44578933  0.22626795  1.0
  Ni  Ni1181  1  0.16695250  0.77912267  0.22626795  1.0
  Ni  Ni1182  1  0.50028583  0.11245600  0.22626795  1.0
  Ni  Ni1183  1  0.50028583  0.44578933  0.22626795  1.0
  Ni  Ni1184  1  0.50028583  0.77912267  0.22626795  1.0
  Ni  Ni1185  1  0.83361917  0.11245600  0.22626795  1.0
  Ni  Ni1186  1  0.83361917  0.44578933  0.22626795  1.0
  Ni  Ni1187  1  0.83361917  0.77912267  0.22626795  1.0
  Ni  Ni1188  1  0.02430317  0.30619200  0.33591415  1.0
  Ni  Ni1189  1  0.02430317  0.63952533  0.33591415  1.0
  Ni  Ni1190  1  0.02430317  0.97285867  0.33591415  1.0
  Ni  Ni1191  1  0.35763650  0.30619200  0.33591415  1.0
  Ni  Ni1192  1  0.35763650  0.63952533  0.33591415  1.0
  Ni  Ni1193  1  0.35763650  0.97285867  0.33591415  1.0
  Ni  Ni1194  1  0.69096983  0.30619200  0.33591415  1.0
  Ni  Ni1195  1  0.69096983  0.63952533  0.33591415  1.0
  Ni  Ni1196  1  0.69096983  0.97285867  0.33591415  1.0
  Ni  Ni1197  1  0.19096983  0.30619200  0.23591415  1.0
  Ni  Ni1198  1  0.19096983  0.63952533  0.23591415  1.0
  Ni  Ni1199  1  0.19096983  0.97285867  0.23591415  1.0
  Ni  Ni1200  1  0.52430317  0.30619200  0.23591415  1.0
  Ni  Ni1201  1  0.52430317  0.63952533  0.23591415  1.0
  Ni  Ni1202  1  0.52430317  0.97285867  0.23591415  1.0
  Ni  Ni1203  1  0.85763650  0.30619200  0.23591415  1.0
  Ni  Ni1204  1  0.85763650  0.63952533  0.23591415  1.0
  Ni  Ni1205  1  0.85763650  0.97285867  0.23591415  1.0
  Ni  Ni1206  1  0.14236350  0.02714133  0.34890715  1.0
  Ni  Ni1207  1  0.14236350  0.36047467  0.34890715  1.0
  Ni  Ni1208  1  0.14236350  0.69380800  0.34890715  1.0
  Ni  Ni1209  1  0.47569683  0.02714133  0.34890715  1.0
  Ni  Ni1210  1  0.47569683  0.36047467  0.34890715  1.0
  Ni  Ni1211  1  0.47569683  0.69380800  0.34890715  1.0
  Ni  Ni1212  1  0.80903017  0.02714133  0.34890715  1.0
  Ni  Ni1213  1  0.80903017  0.36047467  0.34890715  1.0
  Ni  Ni1214  1  0.80903017  0.69380800  0.34890715  1.0
  Ni  Ni1215  1  0.30903017  0.02714133  0.24890715  1.0
  Ni  Ni1216  1  0.30903017  0.36047467  0.24890715  1.0
  Ni  Ni1217  1  0.30903017  0.69380800  0.24890715  1.0
  Ni  Ni1218  1  0.64236350  0.02714133  0.24890715  1.0
  Ni  Ni1219  1  0.64236350  0.36047467  0.24890715  1.0
  Ni  Ni1220  1  0.64236350  0.69380800  0.24890715  1.0
  Ni  Ni1221  1  0.97569683  0.02714133  0.24890715  1.0
  Ni  Ni1222  1  0.97569683  0.36047467  0.24890715  1.0
  Ni  Ni1223  1  0.97569683  0.69380800  0.24890715  1.0
  Ni  Ni1224  1  0.16666667  0.16666667  0.39241065  1.0
  Ni  Ni1225  1  0.16666667  0.50000000  0.39241065  1.0
  Ni  Ni1226  1  0.16666667  0.83333333  0.39241065  1.0
  Ni  Ni1227  1  0.50000000  0.16666667  0.39241065  1.0
  Ni  Ni1228  1  0.50000000  0.50000000  0.39241065  1.0
  Ni  Ni1229  1  0.50000000  0.83333333  0.39241065  1.0
  Ni  Ni1230  1  0.83333333  0.16666667  0.39241065  1.0
  Ni  Ni1231  1  0.83333333  0.50000000  0.39241065  1.0
  Ni  Ni1232  1  0.83333333  0.83333333  0.39241065  1.0
  Ni  Ni1233  1  0.00000000  0.16666667  0.29241065  1.0
  Ni  Ni1234  1  0.00000000  0.50000000  0.29241065  1.0
  Ni  Ni1235  1  0.00000000  0.83333333  0.29241065  1.0
  Ni  Ni1236  1  0.33333333  0.16666667  0.29241065  1.0
  Ni  Ni1237  1  0.33333333  0.50000000  0.29241065  1.0
  Ni  Ni1238  1  0.33333333  0.83333333  0.29241065  1.0
  Ni  Ni1239  1  0.66666667  0.16666667  0.29241065  1.0
  Ni  Ni1240  1  0.66666667  0.50000000  0.29241065  1.0
  Ni  Ni1241  1  0.66666667  0.83333333  0.29241065  1.0
  Ni  Ni1242  1  0.07594633  0.26649733  0.22767005  1.0
  Ni  Ni1243  1  0.07594633  0.59983067  0.22767005  1.0
  Ni  Ni1244  1  0.07594633  0.93316400  0.22767005  1.0
  Ni  Ni1245  1  0.40927967  0.26649733  0.22767005  1.0
  Ni  Ni1246  1  0.40927967  0.59983067  0.22767005  1.0
  Ni  Ni1247  1  0.40927967  0.93316400  0.22767005  1.0
  Ni  Ni1248  1  0.74261300  0.26649733  0.22767005  1.0
  Ni  Ni1249  1  0.74261300  0.59983067  0.22767005  1.0
  Ni  Ni1250  1  0.74261300  0.93316400  0.22767005  1.0
  Ni  Ni1251  1  0.24261300  0.26649733  0.32767005  1.0
  Ni  Ni1252  1  0.24261300  0.59983067  0.32767005  1.0
  Ni  Ni1253  1  0.24261300  0.93316400  0.32767005  1.0
  Ni  Ni1254  1  0.57594633  0.26649733  0.32767005  1.0
  Ni  Ni1255  1  0.57594633  0.59983067  0.32767005  1.0
  Ni  Ni1256  1  0.57594633  0.93316400  0.32767005  1.0
  Ni  Ni1257  1  0.90927967  0.26649733  0.32767005  1.0
  Ni  Ni1258  1  0.90927967  0.59983067  0.32767005  1.0
  Ni  Ni1259  1  0.90927967  0.93316400  0.32767005  1.0
  Ni  Ni1260  1  0.09072033  0.06683600  0.25715125  1.0
  Ni  Ni1261  1  0.09072033  0.40016933  0.25715125  1.0
  Ni  Ni1262  1  0.09072033  0.73350267  0.25715125  1.0
  Ni  Ni1263  1  0.42405367  0.06683600  0.25715125  1.0
  Ni  Ni1264  1  0.42405367  0.40016933  0.25715125  1.0
  Ni  Ni1265  1  0.42405367  0.73350267  0.25715125  1.0
  Ni  Ni1266  1  0.75738700  0.06683600  0.25715125  1.0
  Ni  Ni1267  1  0.75738700  0.40016933  0.25715125  1.0
  Ni  Ni1268  1  0.75738700  0.73350267  0.25715125  1.0
  Ni  Ni1269  1  0.25738700  0.06683600  0.35715125  1.0
  Ni  Ni1270  1  0.25738700  0.40016933  0.35715125  1.0
  Ni  Ni1271  1  0.25738700  0.73350267  0.35715125  1.0
  Ni  Ni1272  1  0.59072033  0.06683600  0.35715125  1.0
  Ni  Ni1273  1  0.59072033  0.40016933  0.35715125  1.0
  Ni  Ni1274  1  0.59072033  0.73350267  0.35715125  1.0
  Ni  Ni1275  1  0.92405367  0.06683600  0.35715125  1.0
  Ni  Ni1276  1  0.92405367  0.40016933  0.35715125  1.0
  Ni  Ni1277  1  0.92405367  0.73350267  0.35715125  1.0
  Ni  Ni1278  1  0.12768650  0.19453133  0.37146275  1.0
  Ni  Ni1279  1  0.12768650  0.52786467  0.37146275  1.0
  Ni  Ni1280  1  0.12768650  0.86119800  0.37146275  1.0
  Ni  Ni1281  1  0.46101983  0.19453133  0.37146275  1.0
  Ni  Ni1282  1  0.46101983  0.52786467  0.37146275  1.0
  Ni  Ni1283  1  0.46101983  0.86119800  0.37146275  1.0
  Ni  Ni1284  1  0.79435317  0.19453133  0.37146275  1.0
  Ni  Ni1285  1  0.79435317  0.52786467  0.37146275  1.0
  Ni  Ni1286  1  0.79435317  0.86119800  0.37146275  1.0
  Ni  Ni1287  1  0.29435317  0.19453133  0.27146275  1.0
  Ni  Ni1288  1  0.29435317  0.52786467  0.27146275  1.0
  Ni  Ni1289  1  0.29435317  0.86119800  0.27146275  1.0
  Ni  Ni1290  1  0.62768650  0.19453133  0.27146275  1.0
  Ni  Ni1291  1  0.62768650  0.52786467  0.27146275  1.0
  Ni  Ni1292  1  0.62768650  0.86119800  0.27146275  1.0
  Ni  Ni1293  1  0.96101983  0.19453133  0.27146275  1.0
  Ni  Ni1294  1  0.96101983  0.52786467  0.27146275  1.0
  Ni  Ni1295  1  0.96101983  0.86119800  0.27146275  1.0
  Ni  Ni1296  1  0.03898017  0.13880200  0.31335855  1.0
  Ni  Ni1297  1  0.03898017  0.47213533  0.31335855  1.0
  Ni  Ni1298  1  0.03898017  0.80546867  0.31335855  1.0
  Ni  Ni1299  1  0.37231350  0.13880200  0.31335855  1.0
  Ni  Ni1300  1  0.37231350  0.47213533  0.31335855  1.0
  Ni  Ni1301  1  0.37231350  0.80546867  0.31335855  1.0
  Ni  Ni1302  1  0.70564683  0.13880200  0.31335855  1.0
  Ni  Ni1303  1  0.70564683  0.47213533  0.31335855  1.0
  Ni  Ni1304  1  0.70564683  0.80546867  0.31335855  1.0
  Ni  Ni1305  1  0.20564683  0.13880200  0.21335855  1.0
  Ni  Ni1306  1  0.20564683  0.47213533  0.21335855  1.0
  Ni  Ni1307  1  0.20564683  0.80546867  0.21335855  1.0
  Ni  Ni1308  1  0.53898017  0.13880200  0.21335855  1.0
  Ni  Ni1309  1  0.53898017  0.47213533  0.21335855  1.0
  Ni  Ni1310  1  0.53898017  0.80546867  0.21335855  1.0
  Ni  Ni1311  1  0.87231350  0.13880200  0.21335855  1.0
  Ni  Ni1312  1  0.87231350  0.47213533  0.21335855  1.0
  Ni  Ni1313  1  0.87231350  0.80546867  0.21335855  1.0
  Ni  Ni1314  1  0.05010517  0.28287733  0.28280875  1.0
  Ni  Ni1315  1  0.05010517  0.61621067  0.28280875  1.0
  Ni  Ni1316  1  0.05010517  0.94954400  0.28280875  1.0
  Ni  Ni1317  1  0.38343850  0.28287733  0.28280875  1.0
  Ni  Ni1318  1  0.38343850  0.61621067  0.28280875  1.0
  Ni  Ni1319  1  0.38343850  0.94954400  0.28280875  1.0
  Ni  Ni1320  1  0.71677183  0.28287733  0.28280875  1.0
  Ni  Ni1321  1  0.71677183  0.61621067  0.28280875  1.0
  Ni  Ni1322  1  0.71677183  0.94954400  0.28280875  1.0
  Ni  Ni1323  1  0.21677183  0.28287733  0.38280875  1.0
  Ni  Ni1324  1  0.21677183  0.61621067  0.38280875  1.0
  Ni  Ni1325  1  0.21677183  0.94954400  0.38280875  1.0
  Ni  Ni1326  1  0.55010517  0.28287733  0.38280875  1.0
  Ni  Ni1327  1  0.55010517  0.61621067  0.38280875  1.0
  Ni  Ni1328  1  0.55010517  0.94954400  0.38280875  1.0
  Ni  Ni1329  1  0.88343850  0.28287733  0.38280875  1.0
  Ni  Ni1330  1  0.88343850  0.61621067  0.38280875  1.0
  Ni  Ni1331  1  0.88343850  0.94954400  0.38280875  1.0
  Ni  Ni1332  1  0.11656150  0.05045600  0.20201255  1.0
  Ni  Ni1333  1  0.11656150  0.38378933  0.20201255  1.0
  Ni  Ni1334  1  0.11656150  0.71712267  0.20201255  1.0
  Ni  Ni1335  1  0.44989483  0.05045600  0.20201255  1.0
  Ni  Ni1336  1  0.44989483  0.38378933  0.20201255  1.0
  Ni  Ni1337  1  0.44989483  0.71712267  0.20201255  1.0
  Ni  Ni1338  1  0.78322817  0.05045600  0.20201255  1.0
  Ni  Ni1339  1  0.78322817  0.38378933  0.20201255  1.0
  Ni  Ni1340  1  0.78322817  0.71712267  0.20201255  1.0
  Ni  Ni1341  1  0.28322817  0.05045600  0.30201255  1.0
  Ni  Ni1342  1  0.28322817  0.38378933  0.30201255  1.0
  Ni  Ni1343  1  0.28322817  0.71712267  0.30201255  1.0
  Ni  Ni1344  1  0.61656150  0.05045600  0.30201255  1.0
  Ni  Ni1345  1  0.61656150  0.38378933  0.30201255  1.0
  Ni  Ni1346  1  0.61656150  0.71712267  0.30201255  1.0
  Ni  Ni1347  1  0.94989483  0.05045600  0.30201255  1.0
  Ni  Ni1348  1  0.94989483  0.38378933  0.30201255  1.0
  Ni  Ni1349  1  0.94989483  0.71712267  0.30201255  1.0
  Ni  Ni1350  1  0.14269033  0.27850967  0.39668225  1.0
  Ni  Ni1351  1  0.14269033  0.61184300  0.39668225  1.0
  Ni  Ni1352  1  0.14269033  0.94517633  0.39668225  1.0
  Ni  Ni1353  1  0.47602367  0.27850967  0.39668225  1.0
  Ni  Ni1354  1  0.47602367  0.61184300  0.39668225  1.0
  Ni  Ni1355  1  0.47602367  0.94517633  0.39668225  1.0
  Ni  Ni1356  1  0.80935700  0.27850967  0.39668225  1.0
  Ni  Ni1357  1  0.80935700  0.61184300  0.39668225  1.0
  Ni  Ni1358  1  0.80935700  0.94517633  0.39668225  1.0
  Ni  Ni1359  1  0.30935700  0.27850967  0.29668225  1.0
  Ni  Ni1360  1  0.30935700  0.61184300  0.29668225  1.0
  Ni  Ni1361  1  0.30935700  0.94517633  0.29668225  1.0
  Ni  Ni1362  1  0.64269033  0.27850967  0.29668225  1.0
  Ni  Ni1363  1  0.64269033  0.61184300  0.29668225  1.0
  Ni  Ni1364  1  0.64269033  0.94517633  0.29668225  1.0
  Ni  Ni1365  1  0.97602367  0.27850967  0.29668225  1.0
  Ni  Ni1366  1  0.97602367  0.61184300  0.29668225  1.0
  Ni  Ni1367  1  0.97602367  0.94517633  0.29668225  1.0
  Ni  Ni1368  1  0.02397633  0.05482367  0.28813905  1.0
  Ni  Ni1369  1  0.02397633  0.38815700  0.28813905  1.0
  Ni  Ni1370  1  0.02397633  0.72149033  0.28813905  1.0
  Ni  Ni1371  1  0.35730967  0.05482367  0.28813905  1.0
  Ni  Ni1372  1  0.35730967  0.38815700  0.28813905  1.0
  Ni  Ni1373  1  0.35730967  0.72149033  0.28813905  1.0
  Ni  Ni1374  1  0.69064300  0.05482367  0.28813905  1.0
  Ni  Ni1375  1  0.69064300  0.38815700  0.28813905  1.0
  Ni  Ni1376  1  0.69064300  0.72149033  0.28813905  1.0
  Ni  Ni1377  1  0.19064300  0.05482367  0.38813905  1.0
  Ni  Ni1378  1  0.19064300  0.38815700  0.38813905  1.0
  Ni  Ni1379  1  0.19064300  0.72149033  0.38813905  1.0
  Ni  Ni1380  1  0.52397633  0.05482367  0.38813905  1.0
  Ni  Ni1381  1  0.52397633  0.38815700  0.38813905  1.0
  Ni  Ni1382  1  0.52397633  0.72149033  0.38813905  1.0
  Ni  Ni1383  1  0.85730967  0.05482367  0.38813905  1.0
  Ni  Ni1384  1  0.85730967  0.38815700  0.38813905  1.0
  Ni  Ni1385  1  0.85730967  0.72149033  0.38813905  1.0
  Ni  Ni1386  1  0.16666667  0.00000000  0.29241065  1.0
  Ni  Ni1387  1  0.16666667  0.33333333  0.29241065  1.0
  Ni  Ni1388  1  0.16666667  0.66666667  0.29241065  1.0
  Ni  Ni1389  1  0.50000000  0.00000000  0.29241065  1.0
  Ni  Ni1390  1  0.50000000  0.33333333  0.29241065  1.0
  Ni  Ni1391  1  0.50000000  0.66666667  0.29241065  1.0
  Ni  Ni1392  1  0.83333333  0.00000000  0.29241065  1.0
  Ni  Ni1393  1  0.83333333  0.33333333  0.29241065  1.0
  Ni  Ni1394  1  0.83333333  0.66666667  0.29241065  1.0
  Ni  Ni1395  1  0.00000000  0.00000000  0.39241065  1.0
  Ni  Ni1396  1  0.00000000  0.33333333  0.39241065  1.0
  Ni  Ni1397  1  0.00000000  0.66666667  0.39241065  1.0
  Ni  Ni1398  1  0.33333333  0.00000000  0.39241065  1.0
  Ni  Ni1399  1  0.33333333  0.33333333  0.39241065  1.0
  Ni  Ni1400  1  0.33333333  0.66666667  0.39241065  1.0
  Ni  Ni1401  1  0.66666667  0.00000000  0.39241065  1.0
  Ni  Ni1402  1  0.66666667  0.33333333  0.39241065  1.0
  Ni  Ni1403  1  0.66666667  0.66666667  0.39241065  1.0
  Ni  Ni1404  1  0.02405867  0.14579633  0.23455445  1.0
  Ni  Ni1405  1  0.02405867  0.47912967  0.23455445  1.0
  Ni  Ni1406  1  0.02405867  0.81246300  0.23455445  1.0
  Ni  Ni1407  1  0.35739200  0.14579633  0.23455445  1.0
  Ni  Ni1408  1  0.35739200  0.47912967  0.23455445  1.0
  Ni  Ni1409  1  0.35739200  0.81246300  0.23455445  1.0
  Ni  Ni1410  1  0.69072533  0.14579633  0.23455445  1.0
  Ni  Ni1411  1  0.69072533  0.47912967  0.23455445  1.0
  Ni  Ni1412  1  0.69072533  0.81246300  0.23455445  1.0
  Ni  Ni1413  1  0.19072533  0.14579633  0.33455445  1.0
  Ni  Ni1414  1  0.19072533  0.47912967  0.33455445  1.0
  Ni  Ni1415  1  0.19072533  0.81246300  0.33455445  1.0
  Ni  Ni1416  1  0.52405867  0.14579633  0.33455445  1.0
  Ni  Ni1417  1  0.52405867  0.47912967  0.33455445  1.0
  Ni  Ni1418  1  0.52405867  0.81246300  0.33455445  1.0
  Ni  Ni1419  1  0.85739200  0.14579633  0.33455445  1.0
  Ni  Ni1420  1  0.85739200  0.47912967  0.33455445  1.0
  Ni  Ni1421  1  0.85739200  0.81246300  0.33455445  1.0
  Ni  Ni1422  1  0.14260800  0.18753700  0.25026685  1.0
  Ni  Ni1423  1  0.14260800  0.52087033  0.25026685  1.0
  Ni  Ni1424  1  0.14260800  0.85420367  0.25026685  1.0
  Ni  Ni1425  1  0.47594133  0.18753700  0.25026685  1.0
  Ni  Ni1426  1  0.47594133  0.52087033  0.25026685  1.0
  Ni  Ni1427  1  0.47594133  0.85420367  0.25026685  1.0
  Ni  Ni1428  1  0.80927467  0.18753700  0.25026685  1.0
  Ni  Ni1429  1  0.80927467  0.52087033  0.25026685  1.0
  Ni  Ni1430  1  0.80927467  0.85420367  0.25026685  1.0
  Ni  Ni1431  1  0.30927467  0.18753700  0.35026685  1.0
  Ni  Ni1432  1  0.30927467  0.52087033  0.35026685  1.0
  Ni  Ni1433  1  0.30927467  0.85420367  0.35026685  1.0
  Ni  Ni1434  1  0.64260800  0.18753700  0.35026685  1.0
  Ni  Ni1435  1  0.64260800  0.52087033  0.35026685  1.0
  Ni  Ni1436  1  0.64260800  0.85420367  0.35026685  1.0
  Ni  Ni1437  1  0.97594133  0.18753700  0.35026685  1.0
  Ni  Ni1438  1  0.97594133  0.52087033  0.35026685  1.0
  Ni  Ni1439  1  0.97594133  0.85420367  0.35026685  1.0
