# generated using pymatgen
data_In3Ni7
_symmetry_space_group_name_H-M   'P 1'
_cell_length_a   40.74565619
_cell_length_b   45.20164725
_cell_length_c   27.32080831
_cell_angle_alpha   91.91234861
_cell_angle_beta   100.92948861
_cell_angle_gamma   83.31514034
_symmetry_Int_Tables_number   1
_chemical_formula_structural   In3Ni7
_chemical_formula_sum   'In432 Ni1008'
_cell_volume   49066.76596893
_cell_formula_units_Z   144
loop_
 _symmetry_equiv_pos_site_id
 _symmetry_equiv_pos_as_xyz
  1  'x, y, z'
loop_
 _atom_site_type_symbol
 _atom_site_label
 _atom_site_symmetry_multiplicity
 _atom_site_fract_x
 _atom_site_fract_y
 _atom_site_fract_z
 _atom_site_occupancy
  In  In0  1  0.14340977  0.25977467  0.18596270  1.0
  In  In1  1  0.14340977  0.59310800  0.18596270  1.0
  In  In2  1  0.14340977  0.92644133  0.18596270  1.0
  In  In3  1  0.47674310  0.25977467  0.18596270  1.0
  In  In4  1  0.47674310  0.59310800  0.18596270  1.0
  In  In5  1  0.47674310  0.92644133  0.18596270  1.0
  In  In6  1  0.81007643  0.25977467  0.18596270  1.0
  In  In7  1  0.81007643  0.59310800  0.18596270  1.0
  In  In8  1  0.81007643  0.92644133  0.18596270  1.0
  In  In9  1  0.01007643  0.09310800  0.08596270  1.0
  In  In10  1  0.01007643  0.42644133  0.08596270  1.0
  In  In11  1  0.01007643  0.75977467  0.08596270  1.0
  In  In12  1  0.34340977  0.09310800  0.08596270  1.0
  In  In13  1  0.34340977  0.42644133  0.08596270  1.0
  In  In14  1  0.34340977  0.75977467  0.08596270  1.0
  In  In15  1  0.67674310  0.09310800  0.08596270  1.0
  In  In16  1  0.67674310  0.42644133  0.08596270  1.0
  In  In17  1  0.67674310  0.75977467  0.08596270  1.0
  In  In18  1  0.12468230  0.07355867  0.00976110  1.0
  In  In19  1  0.12468230  0.40689200  0.00976110  1.0
  In  In20  1  0.12468230  0.74022533  0.00976110  1.0
  In  In21  1  0.45801563  0.07355867  0.00976110  1.0
  In  In22  1  0.45801563  0.40689200  0.00976110  1.0
  In  In23  1  0.45801563  0.74022533  0.00976110  1.0
  In  In24  1  0.79134897  0.07355867  0.00976110  1.0
  In  In25  1  0.79134897  0.40689200  0.00976110  1.0
  In  In26  1  0.79134897  0.74022533  0.00976110  1.0
  In  In27  1  0.25801563  0.24022533  0.10976110  1.0
  In  In28  1  0.25801563  0.57355867  0.10976110  1.0
  In  In29  1  0.25801563  0.90689200  0.10976110  1.0
  In  In30  1  0.59134897  0.24022533  0.10976110  1.0
  In  In31  1  0.59134897  0.57355867  0.10976110  1.0
  In  In32  1  0.59134897  0.90689200  0.10976110  1.0
  In  In33  1  0.92468230  0.24022533  0.10976110  1.0
  In  In34  1  0.92468230  0.57355867  0.10976110  1.0
  In  In35  1  0.92468230  0.90689200  0.10976110  1.0
  In  In36  1  0.09335183  0.21710183  0.08347700  1.0
  In  In37  1  0.09335183  0.55043517  0.08347700  1.0
  In  In38  1  0.09335183  0.88376850  0.08347700  1.0
  In  In39  1  0.42668517  0.21710183  0.08347700  1.0
  In  In40  1  0.42668517  0.55043517  0.08347700  1.0
  In  In41  1  0.42668517  0.88376850  0.08347700  1.0
  In  In42  1  0.76001850  0.21710183  0.08347700  1.0
  In  In43  1  0.76001850  0.55043517  0.08347700  1.0
  In  In44  1  0.76001850  0.88376850  0.08347700  1.0
  In  In45  1  0.22668517  0.05043517  0.18347700  1.0
  In  In46  1  0.22668517  0.38376850  0.18347700  1.0
  In  In47  1  0.22668517  0.71710183  0.18347700  1.0
  In  In48  1  0.56001850  0.05043517  0.18347700  1.0
  In  In49  1  0.56001850  0.38376850  0.18347700  1.0
  In  In50  1  0.56001850  0.71710183  0.18347700  1.0
  In  In51  1  0.89335183  0.05043517  0.18347700  1.0
  In  In52  1  0.89335183  0.38376850  0.18347700  1.0
  In  In53  1  0.89335183  0.71710183  0.18347700  1.0
  In  In54  1  0.17474023  0.11623150  0.11224680  1.0
  In  In55  1  0.17474023  0.44956483  0.11224680  1.0
  In  In56  1  0.17474023  0.78289817  0.11224680  1.0
  In  In57  1  0.50807357  0.11623150  0.11224680  1.0
  In  In58  1  0.50807357  0.44956483  0.11224680  1.0
  In  In59  1  0.50807357  0.78289817  0.11224680  1.0
  In  In60  1  0.84140690  0.11623150  0.11224680  1.0
  In  In61  1  0.84140690  0.44956483  0.11224680  1.0
  In  In62  1  0.84140690  0.78289817  0.11224680  1.0
  In  In63  1  0.04140690  0.28289817  0.01224680  1.0
  In  In64  1  0.04140690  0.61623150  0.01224680  1.0
  In  In65  1  0.04140690  0.94956483  0.01224680  1.0
  In  In66  1  0.37474023  0.28289817  0.01224680  1.0
  In  In67  1  0.37474023  0.61623150  0.01224680  1.0
  In  In68  1  0.37474023  0.94956483  0.01224680  1.0
  In  In69  1  0.70807357  0.28289817  0.01224680  1.0
  In  In70  1  0.70807357  0.61623150  0.01224680  1.0
  In  In71  1  0.70807357  0.94956483  0.01224680  1.0
  In  In72  1  0.15913923  0.00431883  0.06408480  1.0
  In  In73  1  0.15913923  0.33765217  0.06408480  1.0
  In  In74  1  0.15913923  0.67098550  0.06408480  1.0
  In  In75  1  0.49247257  0.00431883  0.06408480  1.0
  In  In76  1  0.49247257  0.33765217  0.06408480  1.0
  In  In77  1  0.49247257  0.67098550  0.06408480  1.0
  In  In78  1  0.82580590  0.00431883  0.06408480  1.0
  In  In79  1  0.82580590  0.33765217  0.06408480  1.0
  In  In80  1  0.82580590  0.67098550  0.06408480  1.0
  In  In81  1  0.29247257  0.17098550  0.16408480  1.0
  In  In82  1  0.29247257  0.50431883  0.16408480  1.0
  In  In83  1  0.29247257  0.83765217  0.16408480  1.0
  In  In84  1  0.62580590  0.17098550  0.16408480  1.0
  In  In85  1  0.62580590  0.50431883  0.16408480  1.0
  In  In86  1  0.62580590  0.83765217  0.16408480  1.0
  In  In87  1  0.95913923  0.17098550  0.16408480  1.0
  In  In88  1  0.95913923  0.50431883  0.16408480  1.0
  In  In89  1  0.95913923  0.83765217  0.16408480  1.0
  In  In90  1  0.10895283  0.32901450  0.13163900  1.0
  In  In91  1  0.10895283  0.66234783  0.13163900  1.0
  In  In92  1  0.10895283  0.99568117  0.13163900  1.0
  In  In93  1  0.44228617  0.32901450  0.13163900  1.0
  In  In94  1  0.44228617  0.66234783  0.13163900  1.0
  In  In95  1  0.44228617  0.99568117  0.13163900  1.0
  In  In96  1  0.77561950  0.32901450  0.13163900  1.0
  In  In97  1  0.77561950  0.66234783  0.13163900  1.0
  In  In98  1  0.77561950  0.99568117  0.13163900  1.0
  In  In99  1  0.30895283  0.16234783  0.03163900  1.0
  In  In100  1  0.30895283  0.49568117  0.03163900  1.0
  In  In101  1  0.30895283  0.82901450  0.03163900  1.0
  In  In102  1  0.64228617  0.16234783  0.03163900  1.0
  In  In103  1  0.64228617  0.49568117  0.03163900  1.0
  In  In104  1  0.64228617  0.82901450  0.03163900  1.0
  In  In105  1  0.97561950  0.16234783  0.03163900  1.0
  In  In106  1  0.97561950  0.49568117  0.03163900  1.0
  In  In107  1  0.97561950  0.82901450  0.03163900  1.0
  In  In108  1  0.03442810  0.29324583  0.14138920  1.0
  In  In109  1  0.03442810  0.62657917  0.14138920  1.0
  In  In110  1  0.03442810  0.95991250  0.14138920  1.0
  In  In111  1  0.36776143  0.29324583  0.14138920  1.0
  In  In112  1  0.36776143  0.62657917  0.14138920  1.0
  In  In113  1  0.36776143  0.95991250  0.14138920  1.0
  In  In114  1  0.70109477  0.29324583  0.14138920  1.0
  In  In115  1  0.70109477  0.62657917  0.14138920  1.0
  In  In116  1  0.70109477  0.95991250  0.14138920  1.0
  In  In117  1  0.23442810  0.12657917  0.04138920  1.0
  In  In118  1  0.23442810  0.45991250  0.04138920  1.0
  In  In119  1  0.23442810  0.79324583  0.04138920  1.0
  In  In120  1  0.56776143  0.12657917  0.04138920  1.0
  In  In121  1  0.56776143  0.45991250  0.04138920  1.0
  In  In122  1  0.56776143  0.79324583  0.04138920  1.0
  In  In123  1  0.90109477  0.12657917  0.04138920  1.0
  In  In124  1  0.90109477  0.45991250  0.04138920  1.0
  In  In125  1  0.90109477  0.79324583  0.04138920  1.0
  In  In126  1  0.23366397  0.04008750  0.05433460  1.0
  In  In127  1  0.23366397  0.37342083  0.05433460  1.0
  In  In128  1  0.23366397  0.70675417  0.05433460  1.0
  In  In129  1  0.56699730  0.04008750  0.05433460  1.0
  In  In130  1  0.56699730  0.37342083  0.05433460  1.0
  In  In131  1  0.56699730  0.70675417  0.05433460  1.0
  In  In132  1  0.90033063  0.04008750  0.05433460  1.0
  In  In133  1  0.90033063  0.37342083  0.05433460  1.0
  In  In134  1  0.90033063  0.70675417  0.05433460  1.0
  In  In135  1  0.03366397  0.20675417  0.15433460  1.0
  In  In136  1  0.03366397  0.54008750  0.15433460  1.0
  In  In137  1  0.03366397  0.87342083  0.15433460  1.0
  In  In138  1  0.36699730  0.20675417  0.15433460  1.0
  In  In139  1  0.36699730  0.54008750  0.15433460  1.0
  In  In140  1  0.36699730  0.87342083  0.15433460  1.0
  In  In141  1  0.70033063  0.20675417  0.15433460  1.0
  In  In142  1  0.70033063  0.54008750  0.15433460  1.0
  In  In143  1  0.70033063  0.87342083  0.15433460  1.0
  In  In144  1  0.27439030  0.31151433  0.10814610  1.0
  In  In145  1  0.27439030  0.64484767  0.10814610  1.0
  In  In146  1  0.27439030  0.97818100  0.10814610  1.0
  In  In147  1  0.60772363  0.31151433  0.10814610  1.0
  In  In148  1  0.60772363  0.64484767  0.10814610  1.0
  In  In149  1  0.60772363  0.97818100  0.10814610  1.0
  In  In150  1  0.94105697  0.31151433  0.10814610  1.0
  In  In151  1  0.94105697  0.64484767  0.10814610  1.0
  In  In152  1  0.94105697  0.97818100  0.10814610  1.0
  In  In153  1  0.14105697  0.14484767  0.00814610  1.0
  In  In154  1  0.14105697  0.47818100  0.00814610  1.0
  In  In155  1  0.14105697  0.81151433  0.00814610  1.0
  In  In156  1  0.47439030  0.14484767  0.00814610  1.0
  In  In157  1  0.47439030  0.47818100  0.00814610  1.0
  In  In158  1  0.47439030  0.81151433  0.00814610  1.0
  In  In159  1  0.80772363  0.14484767  0.00814610  1.0
  In  In160  1  0.80772363  0.47818100  0.00814610  1.0
  In  In161  1  0.80772363  0.81151433  0.00814610  1.0
  In  In162  1  0.32703510  0.02181900  0.08757770  1.0
  In  In163  1  0.32703510  0.35515233  0.08757770  1.0
  In  In164  1  0.32703510  0.68848567  0.08757770  1.0
  In  In165  1  0.66036843  0.02181900  0.08757770  1.0
  In  In166  1  0.66036843  0.35515233  0.08757770  1.0
  In  In167  1  0.66036843  0.68848567  0.08757770  1.0
  In  In168  1  0.99370177  0.02181900  0.08757770  1.0
  In  In169  1  0.99370177  0.35515233  0.08757770  1.0
  In  In170  1  0.99370177  0.68848567  0.08757770  1.0
  In  In171  1  0.12703510  0.18848567  0.18757770  1.0
  In  In172  1  0.12703510  0.52181900  0.18757770  1.0
  In  In173  1  0.12703510  0.85515233  0.18757770  1.0
  In  In174  1  0.46036843  0.18848567  0.18757770  1.0
  In  In175  1  0.46036843  0.52181900  0.18757770  1.0
  In  In176  1  0.46036843  0.85515233  0.18757770  1.0
  In  In177  1  0.79370177  0.18848567  0.18757770  1.0
  In  In178  1  0.79370177  0.52181900  0.18757770  1.0
  In  In179  1  0.79370177  0.85515233  0.18757770  1.0
  In  In180  1  0.15039083  0.26346867  0.07198150  1.0
  In  In181  1  0.15039083  0.59680200  0.07198150  1.0
  In  In182  1  0.15039083  0.93013533  0.07198150  1.0
  In  In183  1  0.48372417  0.26346867  0.07198150  1.0
  In  In184  1  0.48372417  0.59680200  0.07198150  1.0
  In  In185  1  0.48372417  0.93013533  0.07198150  1.0
  In  In186  1  0.81705750  0.26346867  0.07198150  1.0
  In  In187  1  0.81705750  0.59680200  0.07198150  1.0
  In  In188  1  0.81705750  0.93013533  0.07198150  1.0
  In  In189  1  0.28372417  0.09680200  0.17198150  1.0
  In  In190  1  0.28372417  0.43013533  0.17198150  1.0
  In  In191  1  0.28372417  0.76346867  0.17198150  1.0
  In  In192  1  0.61705750  0.09680200  0.17198150  1.0
  In  In193  1  0.61705750  0.43013533  0.17198150  1.0
  In  In194  1  0.61705750  0.76346867  0.17198150  1.0
  In  In195  1  0.95039083  0.09680200  0.17198150  1.0
  In  In196  1  0.95039083  0.43013533  0.17198150  1.0
  In  In197  1  0.95039083  0.76346867  0.17198150  1.0
  In  In198  1  0.11770123  0.06986467  0.12374230  1.0
  In  In199  1  0.11770123  0.40319800  0.12374230  1.0
  In  In200  1  0.11770123  0.73653133  0.12374230  1.0
  In  In201  1  0.45103457  0.06986467  0.12374230  1.0
  In  In202  1  0.45103457  0.40319800  0.12374230  1.0
  In  In203  1  0.45103457  0.73653133  0.12374230  1.0
  In  In204  1  0.78436790  0.06986467  0.12374230  1.0
  In  In205  1  0.78436790  0.40319800  0.12374230  1.0
  In  In206  1  0.78436790  0.73653133  0.12374230  1.0
  In  In207  1  0.31770123  0.23653133  0.02374230  1.0
  In  In208  1  0.31770123  0.56986467  0.02374230  1.0
  In  In209  1  0.31770123  0.90319800  0.02374230  1.0
  In  In210  1  0.65103457  0.23653133  0.02374230  1.0
  In  In211  1  0.65103457  0.56986467  0.02374230  1.0
  In  In212  1  0.65103457  0.90319800  0.02374230  1.0
  In  In213  1  0.98436790  0.23653133  0.02374230  1.0
  In  In214  1  0.98436790  0.56986467  0.02374230  1.0
  In  In215  1  0.98436790  0.90319800  0.02374230  1.0
  In  In216  1  0.07674310  0.25977467  0.38596270  1.0
  In  In217  1  0.07674310  0.59310800  0.38596270  1.0
  In  In218  1  0.07674310  0.92644133  0.38596270  1.0
  In  In219  1  0.41007643  0.25977467  0.38596270  1.0
  In  In220  1  0.41007643  0.59310800  0.38596270  1.0
  In  In221  1  0.41007643  0.92644133  0.38596270  1.0
  In  In222  1  0.74340977  0.25977467  0.38596270  1.0
  In  In223  1  0.74340977  0.59310800  0.38596270  1.0
  In  In224  1  0.74340977  0.92644133  0.38596270  1.0
  In  In225  1  0.27674310  0.09310800  0.28596270  1.0
  In  In226  1  0.27674310  0.42644133  0.28596270  1.0
  In  In227  1  0.27674310  0.75977467  0.28596270  1.0
  In  In228  1  0.61007643  0.09310800  0.28596270  1.0
  In  In229  1  0.61007643  0.42644133  0.28596270  1.0
  In  In230  1  0.61007643  0.75977467  0.28596270  1.0
  In  In231  1  0.94340977  0.09310800  0.28596270  1.0
  In  In232  1  0.94340977  0.42644133  0.28596270  1.0
  In  In233  1  0.94340977  0.75977467  0.28596270  1.0
  In  In234  1  0.05801563  0.07355867  0.20976110  1.0
  In  In235  1  0.05801563  0.40689200  0.20976110  1.0
  In  In236  1  0.05801563  0.74022533  0.20976110  1.0
  In  In237  1  0.39134897  0.07355867  0.20976110  1.0
  In  In238  1  0.39134897  0.40689200  0.20976110  1.0
  In  In239  1  0.39134897  0.74022533  0.20976110  1.0
  In  In240  1  0.72468230  0.07355867  0.20976110  1.0
  In  In241  1  0.72468230  0.40689200  0.20976110  1.0
  In  In242  1  0.72468230  0.74022533  0.20976110  1.0
  In  In243  1  0.19134897  0.24022533  0.30976110  1.0
  In  In244  1  0.19134897  0.57355867  0.30976110  1.0
  In  In245  1  0.19134897  0.90689200  0.30976110  1.0
  In  In246  1  0.52468230  0.24022533  0.30976110  1.0
  In  In247  1  0.52468230  0.57355867  0.30976110  1.0
  In  In248  1  0.52468230  0.90689200  0.30976110  1.0
  In  In249  1  0.85801563  0.24022533  0.30976110  1.0
  In  In250  1  0.85801563  0.57355867  0.30976110  1.0
  In  In251  1  0.85801563  0.90689200  0.30976110  1.0
  In  In252  1  0.02668517  0.21710183  0.28347700  1.0
  In  In253  1  0.02668517  0.55043517  0.28347700  1.0
  In  In254  1  0.02668517  0.88376850  0.28347700  1.0
  In  In255  1  0.36001850  0.21710183  0.28347700  1.0
  In  In256  1  0.36001850  0.55043517  0.28347700  1.0
  In  In257  1  0.36001850  0.88376850  0.28347700  1.0
  In  In258  1  0.69335183  0.21710183  0.28347700  1.0
  In  In259  1  0.69335183  0.55043517  0.28347700  1.0
  In  In260  1  0.69335183  0.88376850  0.28347700  1.0
  In  In261  1  0.16001850  0.05043517  0.38347700  1.0
  In  In262  1  0.16001850  0.38376850  0.38347700  1.0
  In  In263  1  0.16001850  0.71710183  0.38347700  1.0
  In  In264  1  0.49335183  0.05043517  0.38347700  1.0
  In  In265  1  0.49335183  0.38376850  0.38347700  1.0
  In  In266  1  0.49335183  0.71710183  0.38347700  1.0
  In  In267  1  0.82668517  0.05043517  0.38347700  1.0
  In  In268  1  0.82668517  0.38376850  0.38347700  1.0
  In  In269  1  0.82668517  0.71710183  0.38347700  1.0
  In  In270  1  0.10807357  0.11623150  0.31224680  1.0
  In  In271  1  0.10807357  0.44956483  0.31224680  1.0
  In  In272  1  0.10807357  0.78289817  0.31224680  1.0
  In  In273  1  0.44140690  0.11623150  0.31224680  1.0
  In  In274  1  0.44140690  0.44956483  0.31224680  1.0
  In  In275  1  0.44140690  0.78289817  0.31224680  1.0
  In  In276  1  0.77474023  0.11623150  0.31224680  1.0
  In  In277  1  0.77474023  0.44956483  0.31224680  1.0
  In  In278  1  0.77474023  0.78289817  0.31224680  1.0
  In  In279  1  0.30807357  0.28289817  0.21224680  1.0
  In  In280  1  0.30807357  0.61623150  0.21224680  1.0
  In  In281  1  0.30807357  0.94956483  0.21224680  1.0
  In  In282  1  0.64140690  0.28289817  0.21224680  1.0
  In  In283  1  0.64140690  0.61623150  0.21224680  1.0
  In  In284  1  0.64140690  0.94956483  0.21224680  1.0
  In  In285  1  0.97474023  0.28289817  0.21224680  1.0
  In  In286  1  0.97474023  0.61623150  0.21224680  1.0
  In  In287  1  0.97474023  0.94956483  0.21224680  1.0
  In  In288  1  0.09247257  0.00431883  0.26408480  1.0
  In  In289  1  0.09247257  0.33765217  0.26408480  1.0
  In  In290  1  0.09247257  0.67098550  0.26408480  1.0
  In  In291  1  0.42580590  0.00431883  0.26408480  1.0
  In  In292  1  0.42580590  0.33765217  0.26408480  1.0
  In  In293  1  0.42580590  0.67098550  0.26408480  1.0
  In  In294  1  0.75913923  0.00431883  0.26408480  1.0
  In  In295  1  0.75913923  0.33765217  0.26408480  1.0
  In  In296  1  0.75913923  0.67098550  0.26408480  1.0
  In  In297  1  0.22580590  0.17098550  0.36408480  1.0
  In  In298  1  0.22580590  0.50431883  0.36408480  1.0
  In  In299  1  0.22580590  0.83765217  0.36408480  1.0
  In  In300  1  0.55913923  0.17098550  0.36408480  1.0
  In  In301  1  0.55913923  0.50431883  0.36408480  1.0
  In  In302  1  0.55913923  0.83765217  0.36408480  1.0
  In  In303  1  0.89247257  0.17098550  0.36408480  1.0
  In  In304  1  0.89247257  0.50431883  0.36408480  1.0
  In  In305  1  0.89247257  0.83765217  0.36408480  1.0
  In  In306  1  0.04228617  0.32901450  0.33163900  1.0
  In  In307  1  0.04228617  0.66234783  0.33163900  1.0
  In  In308  1  0.04228617  0.99568117  0.33163900  1.0
  In  In309  1  0.37561950  0.32901450  0.33163900  1.0
  In  In310  1  0.37561950  0.66234783  0.33163900  1.0
  In  In311  1  0.37561950  0.99568117  0.33163900  1.0
  In  In312  1  0.70895283  0.32901450  0.33163900  1.0
  In  In313  1  0.70895283  0.66234783  0.33163900  1.0
  In  In314  1  0.70895283  0.99568117  0.33163900  1.0
  In  In315  1  0.24228617  0.16234783  0.23163900  1.0
  In  In316  1  0.24228617  0.49568117  0.23163900  1.0
  In  In317  1  0.24228617  0.82901450  0.23163900  1.0
  In  In318  1  0.57561950  0.16234783  0.23163900  1.0
  In  In319  1  0.57561950  0.49568117  0.23163900  1.0
  In  In320  1  0.57561950  0.82901450  0.23163900  1.0
  In  In321  1  0.90895283  0.16234783  0.23163900  1.0
  In  In322  1  0.90895283  0.49568117  0.23163900  1.0
  In  In323  1  0.90895283  0.82901450  0.23163900  1.0
  In  In324  1  0.30109477  0.29324583  0.34138920  1.0
  In  In325  1  0.30109477  0.62657917  0.34138920  1.0
  In  In326  1  0.30109477  0.95991250  0.34138920  1.0
  In  In327  1  0.63442810  0.29324583  0.34138920  1.0
  In  In328  1  0.63442810  0.62657917  0.34138920  1.0
  In  In329  1  0.63442810  0.95991250  0.34138920  1.0
  In  In330  1  0.96776143  0.29324583  0.34138920  1.0
  In  In331  1  0.96776143  0.62657917  0.34138920  1.0
  In  In332  1  0.96776143  0.95991250  0.34138920  1.0
  In  In333  1  0.16776143  0.12657917  0.24138920  1.0
  In  In334  1  0.16776143  0.45991250  0.24138920  1.0
  In  In335  1  0.16776143  0.79324583  0.24138920  1.0
  In  In336  1  0.50109477  0.12657917  0.24138920  1.0
  In  In337  1  0.50109477  0.45991250  0.24138920  1.0
  In  In338  1  0.50109477  0.79324583  0.24138920  1.0
  In  In339  1  0.83442810  0.12657917  0.24138920  1.0
  In  In340  1  0.83442810  0.45991250  0.24138920  1.0
  In  In341  1  0.83442810  0.79324583  0.24138920  1.0
  In  In342  1  0.16699730  0.04008750  0.25433460  1.0
  In  In343  1  0.16699730  0.37342083  0.25433460  1.0
  In  In344  1  0.16699730  0.70675417  0.25433460  1.0
  In  In345  1  0.50033063  0.04008750  0.25433460  1.0
  In  In346  1  0.50033063  0.37342083  0.25433460  1.0
  In  In347  1  0.50033063  0.70675417  0.25433460  1.0
  In  In348  1  0.83366397  0.04008750  0.25433460  1.0
  In  In349  1  0.83366397  0.37342083  0.25433460  1.0
  In  In350  1  0.83366397  0.70675417  0.25433460  1.0
  In  In351  1  0.30033063  0.20675417  0.35433460  1.0
  In  In352  1  0.30033063  0.54008750  0.35433460  1.0
  In  In353  1  0.30033063  0.87342083  0.35433460  1.0
  In  In354  1  0.63366397  0.20675417  0.35433460  1.0
  In  In355  1  0.63366397  0.54008750  0.35433460  1.0
  In  In356  1  0.63366397  0.87342083  0.35433460  1.0
  In  In357  1  0.96699730  0.20675417  0.35433460  1.0
  In  In358  1  0.96699730  0.54008750  0.35433460  1.0
  In  In359  1  0.96699730  0.87342083  0.35433460  1.0
  In  In360  1  0.20772363  0.31151433  0.30814610  1.0
  In  In361  1  0.20772363  0.64484767  0.30814610  1.0
  In  In362  1  0.20772363  0.97818100  0.30814610  1.0
  In  In363  1  0.54105697  0.31151433  0.30814610  1.0
  In  In364  1  0.54105697  0.64484767  0.30814610  1.0
  In  In365  1  0.54105697  0.97818100  0.30814610  1.0
  In  In366  1  0.87439030  0.31151433  0.30814610  1.0
  In  In367  1  0.87439030  0.64484767  0.30814610  1.0
  In  In368  1  0.87439030  0.97818100  0.30814610  1.0
  In  In369  1  0.07439030  0.14484767  0.20814610  1.0
  In  In370  1  0.07439030  0.47818100  0.20814610  1.0
  In  In371  1  0.07439030  0.81151433  0.20814610  1.0
  In  In372  1  0.40772363  0.14484767  0.20814610  1.0
  In  In373  1  0.40772363  0.47818100  0.20814610  1.0
  In  In374  1  0.40772363  0.81151433  0.20814610  1.0
  In  In375  1  0.74105697  0.14484767  0.20814610  1.0
  In  In376  1  0.74105697  0.47818100  0.20814610  1.0
  In  In377  1  0.74105697  0.81151433  0.20814610  1.0
  In  In378  1  0.26036843  0.02181900  0.28757770  1.0
  In  In379  1  0.26036843  0.35515233  0.28757770  1.0
  In  In380  1  0.26036843  0.68848567  0.28757770  1.0
  In  In381  1  0.59370177  0.02181900  0.28757770  1.0
  In  In382  1  0.59370177  0.35515233  0.28757770  1.0
  In  In383  1  0.59370177  0.68848567  0.28757770  1.0
  In  In384  1  0.92703510  0.02181900  0.28757770  1.0
  In  In385  1  0.92703510  0.35515233  0.28757770  1.0
  In  In386  1  0.92703510  0.68848567  0.28757770  1.0
  In  In387  1  0.06036843  0.18848567  0.38757770  1.0
  In  In388  1  0.06036843  0.52181900  0.38757770  1.0
  In  In389  1  0.06036843  0.85515233  0.38757770  1.0
  In  In390  1  0.39370177  0.18848567  0.38757770  1.0
  In  In391  1  0.39370177  0.52181900  0.38757770  1.0
  In  In392  1  0.39370177  0.85515233  0.38757770  1.0
  In  In393  1  0.72703510  0.18848567  0.38757770  1.0
  In  In394  1  0.72703510  0.52181900  0.38757770  1.0
  In  In395  1  0.72703510  0.85515233  0.38757770  1.0
  In  In396  1  0.08372417  0.26346867  0.27198150  1.0
  In  In397  1  0.08372417  0.59680200  0.27198150  1.0
  In  In398  1  0.08372417  0.93013533  0.27198150  1.0
  In  In399  1  0.41705750  0.26346867  0.27198150  1.0
  In  In400  1  0.41705750  0.59680200  0.27198150  1.0
  In  In401  1  0.41705750  0.93013533  0.27198150  1.0
  In  In402  1  0.75039083  0.26346867  0.27198150  1.0
  In  In403  1  0.75039083  0.59680200  0.27198150  1.0
  In  In404  1  0.75039083  0.93013533  0.27198150  1.0
  In  In405  1  0.21705750  0.09680200  0.37198150  1.0
  In  In406  1  0.21705750  0.43013533  0.37198150  1.0
  In  In407  1  0.21705750  0.76346867  0.37198150  1.0
  In  In408  1  0.55039083  0.09680200  0.37198150  1.0
  In  In409  1  0.55039083  0.43013533  0.37198150  1.0
  In  In410  1  0.55039083  0.76346867  0.37198150  1.0
  In  In411  1  0.88372417  0.09680200  0.37198150  1.0
  In  In412  1  0.88372417  0.43013533  0.37198150  1.0
  In  In413  1  0.88372417  0.76346867  0.37198150  1.0
  In  In414  1  0.05103457  0.06986467  0.32374230  1.0
  In  In415  1  0.05103457  0.40319800  0.32374230  1.0
  In  In416  1  0.05103457  0.73653133  0.32374230  1.0
  In  In417  1  0.38436790  0.06986467  0.32374230  1.0
  In  In418  1  0.38436790  0.40319800  0.32374230  1.0
  In  In419  1  0.38436790  0.73653133  0.32374230  1.0
  In  In420  1  0.71770123  0.06986467  0.32374230  1.0
  In  In421  1  0.71770123  0.40319800  0.32374230  1.0
  In  In422  1  0.71770123  0.73653133  0.32374230  1.0
  In  In423  1  0.25103457  0.23653133  0.22374230  1.0
  In  In424  1  0.25103457  0.56986467  0.22374230  1.0
  In  In425  1  0.25103457  0.90319800  0.22374230  1.0
  In  In426  1  0.58436790  0.23653133  0.22374230  1.0
  In  In427  1  0.58436790  0.56986467  0.22374230  1.0
  In  In428  1  0.58436790  0.90319800  0.22374230  1.0
  In  In429  1  0.91770123  0.23653133  0.22374230  1.0
  In  In430  1  0.91770123  0.56986467  0.22374230  1.0
  In  In431  1  0.91770123  0.90319800  0.22374230  1.0
  Ni  Ni432  1  0.21646977  0.00332633  0.12460270  1.0
  Ni  Ni433  1  0.21646977  0.33665967  0.12460270  1.0
  Ni  Ni434  1  0.21646977  0.66999300  0.12460270  1.0
  Ni  Ni435  1  0.54980310  0.00332633  0.12460270  1.0
  Ni  Ni436  1  0.54980310  0.33665967  0.12460270  1.0
  Ni  Ni437  1  0.54980310  0.66999300  0.12460270  1.0
  Ni  Ni438  1  0.88313643  0.00332633  0.12460270  1.0
  Ni  Ni439  1  0.88313643  0.33665967  0.12460270  1.0
  Ni  Ni440  1  0.88313643  0.66999300  0.12460270  1.0
  Ni  Ni441  1  0.08313643  0.16999300  0.02460270  1.0
  Ni  Ni442  1  0.08313643  0.50332633  0.02460270  1.0
  Ni  Ni443  1  0.08313643  0.83665967  0.02460270  1.0
  Ni  Ni444  1  0.41646977  0.16999300  0.02460270  1.0
  Ni  Ni445  1  0.41646977  0.50332633  0.02460270  1.0
  Ni  Ni446  1  0.41646977  0.83665967  0.02460270  1.0
  Ni  Ni447  1  0.74980310  0.16999300  0.02460270  1.0
  Ni  Ni448  1  0.74980310  0.50332633  0.02460270  1.0
  Ni  Ni449  1  0.74980310  0.83665967  0.02460270  1.0
  Ni  Ni450  1  0.05162230  0.33000700  0.07112110  1.0
  Ni  Ni451  1  0.05162230  0.66334033  0.07112110  1.0
  Ni  Ni452  1  0.05162230  0.99667367  0.07112110  1.0
  Ni  Ni453  1  0.38495563  0.33000700  0.07112110  1.0
  Ni  Ni454  1  0.38495563  0.66334033  0.07112110  1.0
  Ni  Ni455  1  0.38495563  0.99667367  0.07112110  1.0
  Ni  Ni456  1  0.71828897  0.33000700  0.07112110  1.0
  Ni  Ni457  1  0.71828897  0.66334033  0.07112110  1.0
  Ni  Ni458  1  0.71828897  0.99667367  0.07112110  1.0
  Ni  Ni459  1  0.18495563  0.16334033  0.17112110  1.0
  Ni  Ni460  1  0.18495563  0.49667367  0.17112110  1.0
  Ni  Ni461  1  0.18495563  0.83000700  0.17112110  1.0
  Ni  Ni462  1  0.51828897  0.16334033  0.17112110  1.0
  Ni  Ni463  1  0.51828897  0.49667367  0.17112110  1.0
  Ni  Ni464  1  0.51828897  0.83000700  0.17112110  1.0
  Ni  Ni465  1  0.85162230  0.16334033  0.17112110  1.0
  Ni  Ni466  1  0.85162230  0.49667367  0.17112110  1.0
  Ni  Ni467  1  0.85162230  0.83000700  0.17112110  1.0
  Ni  Ni468  1  0.16335930  0.21114733  0.12681110  1.0
  Ni  Ni469  1  0.16335930  0.54448067  0.12681110  1.0
  Ni  Ni470  1  0.16335930  0.87781400  0.12681110  1.0
  Ni  Ni471  1  0.49669263  0.21114733  0.12681110  1.0
  Ni  Ni472  1  0.49669263  0.54448067  0.12681110  1.0
  Ni  Ni473  1  0.49669263  0.87781400  0.12681110  1.0
  Ni  Ni474  1  0.83002597  0.21114733  0.12681110  1.0
  Ni  Ni475  1  0.83002597  0.54448067  0.12681110  1.0
  Ni  Ni476  1  0.83002597  0.87781400  0.12681110  1.0
  Ni  Ni477  1  0.03002597  0.04448067  0.02681110  1.0
  Ni  Ni478  1  0.03002597  0.37781400  0.02681110  1.0
  Ni  Ni479  1  0.03002597  0.71114733  0.02681110  1.0
  Ni  Ni480  1  0.36335930  0.04448067  0.02681110  1.0
  Ni  Ni481  1  0.36335930  0.37781400  0.02681110  1.0
  Ni  Ni482  1  0.36335930  0.71114733  0.02681110  1.0
  Ni  Ni483  1  0.69669263  0.04448067  0.02681110  1.0
  Ni  Ni484  1  0.69669263  0.37781400  0.02681110  1.0
  Ni  Ni485  1  0.69669263  0.71114733  0.02681110  1.0
  Ni  Ni486  1  0.10473277  0.12218600  0.06891270  1.0
  Ni  Ni487  1  0.10473277  0.45551933  0.06891270  1.0
  Ni  Ni488  1  0.10473277  0.78885267  0.06891270  1.0
  Ni  Ni489  1  0.43806610  0.12218600  0.06891270  1.0
  Ni  Ni490  1  0.43806610  0.45551933  0.06891270  1.0
  Ni  Ni491  1  0.43806610  0.78885267  0.06891270  1.0
  Ni  Ni492  1  0.77139943  0.12218600  0.06891270  1.0
  Ni  Ni493  1  0.77139943  0.45551933  0.06891270  1.0
  Ni  Ni494  1  0.77139943  0.78885267  0.06891270  1.0
  Ni  Ni495  1  0.23806610  0.28885267  0.16891270  1.0
  Ni  Ni496  1  0.23806610  0.62218600  0.16891270  1.0
  Ni  Ni497  1  0.23806610  0.95551933  0.16891270  1.0
  Ni  Ni498  1  0.57139943  0.28885267  0.16891270  1.0
  Ni  Ni499  1  0.57139943  0.62218600  0.16891270  1.0
  Ni  Ni500  1  0.57139943  0.95551933  0.16891270  1.0
  Ni  Ni501  1  0.90473277  0.28885267  0.16891270  1.0
  Ni  Ni502  1  0.90473277  0.62218600  0.16891270  1.0
  Ni  Ni503  1  0.90473277  0.95551933  0.16891270  1.0
  Ni  Ni504  1  0.09747737  0.25339233  0.00983390  1.0
  Ni  Ni505  1  0.09747737  0.58672567  0.00983390  1.0
  Ni  Ni506  1  0.09747737  0.92005900  0.00983390  1.0
  Ni  Ni507  1  0.43081070  0.25339233  0.00983390  1.0
  Ni  Ni508  1  0.43081070  0.58672567  0.00983390  1.0
  Ni  Ni509  1  0.43081070  0.92005900  0.00983390  1.0
  Ni  Ni510  1  0.76414403  0.25339233  0.00983390  1.0
  Ni  Ni511  1  0.76414403  0.58672567  0.00983390  1.0
  Ni  Ni512  1  0.76414403  0.92005900  0.00983390  1.0
  Ni  Ni513  1  0.23081070  0.08672567  0.10983390  1.0
  Ni  Ni514  1  0.23081070  0.42005900  0.10983390  1.0
  Ni  Ni515  1  0.23081070  0.75339233  0.10983390  1.0
  Ni  Ni516  1  0.56414403  0.08672567  0.10983390  1.0
  Ni  Ni517  1  0.56414403  0.42005900  0.10983390  1.0
  Ni  Ni518  1  0.56414403  0.75339233  0.10983390  1.0
  Ni  Ni519  1  0.89747737  0.08672567  0.10983390  1.0
  Ni  Ni520  1  0.89747737  0.42005900  0.10983390  1.0
  Ni  Ni521  1  0.89747737  0.75339233  0.10983390  1.0
  Ni  Ni522  1  0.17061470  0.07994100  0.18588990  1.0
  Ni  Ni523  1  0.17061470  0.41327433  0.18588990  1.0
  Ni  Ni524  1  0.17061470  0.74660767  0.18588990  1.0
  Ni  Ni525  1  0.50394803  0.07994100  0.18588990  1.0
  Ni  Ni526  1  0.50394803  0.41327433  0.18588990  1.0
  Ni  Ni527  1  0.50394803  0.74660767  0.18588990  1.0
  Ni  Ni528  1  0.83728137  0.07994100  0.18588990  1.0
  Ni  Ni529  1  0.83728137  0.41327433  0.18588990  1.0
  Ni  Ni530  1  0.83728137  0.74660767  0.18588990  1.0
  Ni  Ni531  1  0.03728137  0.24660767  0.08588990  1.0
  Ni  Ni532  1  0.03728137  0.57994100  0.08588990  1.0
  Ni  Ni533  1  0.03728137  0.91327433  0.08588990  1.0
  Ni  Ni534  1  0.37061470  0.24660767  0.08588990  1.0
  Ni  Ni535  1  0.37061470  0.57994100  0.08588990  1.0
  Ni  Ni536  1  0.37061470  0.91327433  0.08588990  1.0
  Ni  Ni537  1  0.70394803  0.24660767  0.08588990  1.0
  Ni  Ni538  1  0.70394803  0.57994100  0.08588990  1.0
  Ni  Ni539  1  0.70394803  0.91327433  0.08588990  1.0
  Ni  Ni540  1  0.09233910  0.29634233  0.19761770  1.0
  Ni  Ni541  1  0.09233910  0.62967567  0.19761770  1.0
  Ni  Ni542  1  0.09233910  0.96300900  0.19761770  1.0
  Ni  Ni543  1  0.42567243  0.29634233  0.19761770  1.0
  Ni  Ni544  1  0.42567243  0.62967567  0.19761770  1.0
  Ni  Ni545  1  0.42567243  0.96300900  0.19761770  1.0
  Ni  Ni546  1  0.75900577  0.29634233  0.19761770  1.0
  Ni  Ni547  1  0.75900577  0.62967567  0.19761770  1.0
  Ni  Ni548  1  0.75900577  0.96300900  0.19761770  1.0
  Ni  Ni549  1  0.29233910  0.12967567  0.09761770  1.0
  Ni  Ni550  1  0.29233910  0.46300900  0.09761770  1.0
  Ni  Ni551  1  0.29233910  0.79634233  0.09761770  1.0
  Ni  Ni552  1  0.62567243  0.12967567  0.09761770  1.0
  Ni  Ni553  1  0.62567243  0.46300900  0.09761770  1.0
  Ni  Ni554  1  0.62567243  0.79634233  0.09761770  1.0
  Ni  Ni555  1  0.95900577  0.12967567  0.09761770  1.0
  Ni  Ni556  1  0.95900577  0.46300900  0.09761770  1.0
  Ni  Ni557  1  0.95900577  0.79634233  0.09761770  1.0
  Ni  Ni558  1  0.10908630  0.03699100  0.19810610  1.0
  Ni  Ni559  1  0.10908630  0.37032433  0.19810610  1.0
  Ni  Ni560  1  0.10908630  0.70365767  0.19810610  1.0
  Ni  Ni561  1  0.44241963  0.03699100  0.19810610  1.0
  Ni  Ni562  1  0.44241963  0.37032433  0.19810610  1.0
  Ni  Ni563  1  0.44241963  0.70365767  0.19810610  1.0
  Ni  Ni564  1  0.77575297  0.03699100  0.19810610  1.0
  Ni  Ni565  1  0.77575297  0.37032433  0.19810610  1.0
  Ni  Ni566  1  0.77575297  0.70365767  0.19810610  1.0
  Ni  Ni567  1  0.30908630  0.20365767  0.09810610  1.0
  Ni  Ni568  1  0.30908630  0.53699100  0.09810610  1.0
  Ni  Ni569  1  0.30908630  0.87032433  0.09810610  1.0
  Ni  Ni570  1  0.64241963  0.20365767  0.09810610  1.0
  Ni  Ni571  1  0.64241963  0.53699100  0.09810610  1.0
  Ni  Ni572  1  0.64241963  0.87032433  0.09810610  1.0
  Ni  Ni573  1  0.97575297  0.20365767  0.09810610  1.0
  Ni  Ni574  1  0.97575297  0.53699100  0.09810610  1.0
  Ni  Ni575  1  0.97575297  0.87032433  0.09810610  1.0
  Ni  Ni576  1  0.21740683  0.32085950  0.02135400  1.0
  Ni  Ni577  1  0.21740683  0.65419283  0.02135400  1.0
  Ni  Ni578  1  0.21740683  0.98752617  0.02135400  1.0
  Ni  Ni579  1  0.55074017  0.32085950  0.02135400  1.0
  Ni  Ni580  1  0.55074017  0.65419283  0.02135400  1.0
  Ni  Ni581  1  0.55074017  0.98752617  0.02135400  1.0
  Ni  Ni582  1  0.88407350  0.32085950  0.02135400  1.0
  Ni  Ni583  1  0.88407350  0.65419283  0.02135400  1.0
  Ni  Ni584  1  0.88407350  0.98752617  0.02135400  1.0
  Ni  Ni585  1  0.01740683  0.15419283  0.12135400  1.0
  Ni  Ni586  1  0.01740683  0.48752617  0.12135400  1.0
  Ni  Ni587  1  0.01740683  0.82085950  0.12135400  1.0
  Ni  Ni588  1  0.35074017  0.15419283  0.12135400  1.0
  Ni  Ni589  1  0.35074017  0.48752617  0.12135400  1.0
  Ni  Ni590  1  0.35074017  0.82085950  0.12135400  1.0
  Ni  Ni591  1  0.68407350  0.15419283  0.12135400  1.0
  Ni  Ni592  1  0.68407350  0.48752617  0.12135400  1.0
  Ni  Ni593  1  0.68407350  0.82085950  0.12135400  1.0
  Ni  Ni594  1  0.05068523  0.01247383  0.17436980  1.0
  Ni  Ni595  1  0.05068523  0.34580717  0.17436980  1.0
  Ni  Ni596  1  0.05068523  0.67914050  0.17436980  1.0
  Ni  Ni597  1  0.38401857  0.01247383  0.17436980  1.0
  Ni  Ni598  1  0.38401857  0.34580717  0.17436980  1.0
  Ni  Ni599  1  0.38401857  0.67914050  0.17436980  1.0
  Ni  Ni600  1  0.71735190  0.01247383  0.17436980  1.0
  Ni  Ni601  1  0.71735190  0.34580717  0.17436980  1.0
  Ni  Ni602  1  0.71735190  0.67914050  0.17436980  1.0
  Ni  Ni603  1  0.25068523  0.17914050  0.07436980  1.0
  Ni  Ni604  1  0.25068523  0.51247383  0.07436980  1.0
  Ni  Ni605  1  0.25068523  0.84580717  0.07436980  1.0
  Ni  Ni606  1  0.58401857  0.17914050  0.07436980  1.0
  Ni  Ni607  1  0.58401857  0.51247383  0.07436980  1.0
  Ni  Ni608  1  0.58401857  0.84580717  0.07436980  1.0
  Ni  Ni609  1  0.91735190  0.17914050  0.07436980  1.0
  Ni  Ni610  1  0.91735190  0.51247383  0.07436980  1.0
  Ni  Ni611  1  0.91735190  0.84580717  0.07436980  1.0
  Ni  Ni612  1  0.10390330  0.30841433  0.03666410  1.0
  Ni  Ni613  1  0.10390330  0.64174767  0.03666410  1.0
  Ni  Ni614  1  0.10390330  0.97508100  0.03666410  1.0
  Ni  Ni615  1  0.43723663  0.30841433  0.03666410  1.0
  Ni  Ni616  1  0.43723663  0.64174767  0.03666410  1.0
  Ni  Ni617  1  0.43723663  0.97508100  0.03666410  1.0
  Ni  Ni618  1  0.77056997  0.30841433  0.03666410  1.0
  Ni  Ni619  1  0.77056997  0.64174767  0.03666410  1.0
  Ni  Ni620  1  0.77056997  0.97508100  0.03666410  1.0
  Ni  Ni621  1  0.23723663  0.14174767  0.13666410  1.0
  Ni  Ni622  1  0.23723663  0.47508100  0.13666410  1.0
  Ni  Ni623  1  0.23723663  0.80841433  0.13666410  1.0
  Ni  Ni624  1  0.57056997  0.14174767  0.13666410  1.0
  Ni  Ni625  1  0.57056997  0.47508100  0.13666410  1.0
  Ni  Ni626  1  0.57056997  0.80841433  0.13666410  1.0
  Ni  Ni627  1  0.90390330  0.14174767  0.13666410  1.0
  Ni  Ni628  1  0.90390330  0.47508100  0.13666410  1.0
  Ni  Ni629  1  0.90390330  0.80841433  0.13666410  1.0
  Ni  Ni630  1  0.16418877  0.02491900  0.15905970  1.0
  Ni  Ni631  1  0.16418877  0.35825233  0.15905970  1.0
  Ni  Ni632  1  0.16418877  0.69158567  0.15905970  1.0
  Ni  Ni633  1  0.49752210  0.02491900  0.15905970  1.0
  Ni  Ni634  1  0.49752210  0.35825233  0.15905970  1.0
  Ni  Ni635  1  0.49752210  0.69158567  0.15905970  1.0
  Ni  Ni636  1  0.83085543  0.02491900  0.15905970  1.0
  Ni  Ni637  1  0.83085543  0.35825233  0.15905970  1.0
  Ni  Ni638  1  0.83085543  0.69158567  0.15905970  1.0
  Ni  Ni639  1  0.03085543  0.19158567  0.05905970  1.0
  Ni  Ni640  1  0.03085543  0.52491900  0.05905970  1.0
  Ni  Ni641  1  0.03085543  0.85825233  0.05905970  1.0
  Ni  Ni642  1  0.36418877  0.19158567  0.05905970  1.0
  Ni  Ni643  1  0.36418877  0.52491900  0.05905970  1.0
  Ni  Ni644  1  0.36418877  0.85825233  0.05905970  1.0
  Ni  Ni645  1  0.69752210  0.19158567  0.05905970  1.0
  Ni  Ni646  1  0.69752210  0.52491900  0.05905970  1.0
  Ni  Ni647  1  0.69752210  0.85825233  0.05905970  1.0
  Ni  Ni648  1  0.00132783  0.05594217  0.16555800  1.0
  Ni  Ni649  1  0.00132783  0.38927550  0.16555800  1.0
  Ni  Ni650  1  0.00132783  0.72260883  0.16555800  1.0
  Ni  Ni651  1  0.33466117  0.05594217  0.16555800  1.0
  Ni  Ni652  1  0.33466117  0.38927550  0.16555800  1.0
  Ni  Ni653  1  0.33466117  0.72260883  0.16555800  1.0
  Ni  Ni654  1  0.66799450  0.05594217  0.16555800  1.0
  Ni  Ni655  1  0.66799450  0.38927550  0.16555800  1.0
  Ni  Ni656  1  0.66799450  0.72260883  0.16555800  1.0
  Ni  Ni657  1  0.20132783  0.22260883  0.06555800  1.0
  Ni  Ni658  1  0.20132783  0.55594217  0.06555800  1.0
  Ni  Ni659  1  0.20132783  0.88927550  0.06555800  1.0
  Ni  Ni660  1  0.53466117  0.22260883  0.06555800  1.0
  Ni  Ni661  1  0.53466117  0.55594217  0.06555800  1.0
  Ni  Ni662  1  0.53466117  0.88927550  0.06555800  1.0
  Ni  Ni663  1  0.86799450  0.22260883  0.06555800  1.0
  Ni  Ni664  1  0.86799450  0.55594217  0.06555800  1.0
  Ni  Ni665  1  0.86799450  0.88927550  0.06555800  1.0
  Ni  Ni666  1  0.26676423  0.27739117  0.03016580  1.0
  Ni  Ni667  1  0.26676423  0.61072450  0.03016580  1.0
  Ni  Ni668  1  0.26676423  0.94405783  0.03016580  1.0
  Ni  Ni669  1  0.60009757  0.27739117  0.03016580  1.0
  Ni  Ni670  1  0.60009757  0.61072450  0.03016580  1.0
  Ni  Ni671  1  0.60009757  0.94405783  0.03016580  1.0
  Ni  Ni672  1  0.93343090  0.27739117  0.03016580  1.0
  Ni  Ni673  1  0.93343090  0.61072450  0.03016580  1.0
  Ni  Ni674  1  0.93343090  0.94405783  0.03016580  1.0
  Ni  Ni675  1  0.06676423  0.11072450  0.13016580  1.0
  Ni  Ni676  1  0.06676423  0.44405783  0.13016580  1.0
  Ni  Ni677  1  0.06676423  0.77739117  0.13016580  1.0
  Ni  Ni678  1  0.40009757  0.11072450  0.13016580  1.0
  Ni  Ni679  1  0.40009757  0.44405783  0.13016580  1.0
  Ni  Ni680  1  0.40009757  0.77739117  0.13016580  1.0
  Ni  Ni681  1  0.73343090  0.11072450  0.13016580  1.0
  Ni  Ni682  1  0.73343090  0.44405783  0.13016580  1.0
  Ni  Ni683  1  0.73343090  0.77739117  0.13016580  1.0
  Ni  Ni684  1  0.14372457  0.20454050  0.03662880  1.0
  Ni  Ni685  1  0.14372457  0.53787383  0.03662880  1.0
  Ni  Ni686  1  0.14372457  0.87120717  0.03662880  1.0
  Ni  Ni687  1  0.47705790  0.20454050  0.03662880  1.0
  Ni  Ni688  1  0.47705790  0.53787383  0.03662880  1.0
  Ni  Ni689  1  0.47705790  0.87120717  0.03662880  1.0
  Ni  Ni690  1  0.81039123  0.20454050  0.03662880  1.0
  Ni  Ni691  1  0.81039123  0.53787383  0.03662880  1.0
  Ni  Ni692  1  0.81039123  0.87120717  0.03662880  1.0
  Ni  Ni693  1  0.27705790  0.03787383  0.13662880  1.0
  Ni  Ni694  1  0.27705790  0.37120717  0.13662880  1.0
  Ni  Ni695  1  0.27705790  0.70454050  0.13662880  1.0
  Ni  Ni696  1  0.61039123  0.03787383  0.13662880  1.0
  Ni  Ni697  1  0.61039123  0.37120717  0.13662880  1.0
  Ni  Ni698  1  0.61039123  0.70454050  0.13662880  1.0
  Ni  Ni699  1  0.94372457  0.03787383  0.13662880  1.0
  Ni  Ni700  1  0.94372457  0.37120717  0.13662880  1.0
  Ni  Ni701  1  0.94372457  0.70454050  0.13662880  1.0
  Ni  Ni702  1  0.12436750  0.12879283  0.15909500  1.0
  Ni  Ni703  1  0.12436750  0.46212617  0.15909500  1.0
  Ni  Ni704  1  0.12436750  0.79545950  0.15909500  1.0
  Ni  Ni705  1  0.45770083  0.12879283  0.15909500  1.0
  Ni  Ni706  1  0.45770083  0.46212617  0.15909500  1.0
  Ni  Ni707  1  0.45770083  0.79545950  0.15909500  1.0
  Ni  Ni708  1  0.79103417  0.12879283  0.15909500  1.0
  Ni  Ni709  1  0.79103417  0.46212617  0.15909500  1.0
  Ni  Ni710  1  0.79103417  0.79545950  0.15909500  1.0
  Ni  Ni711  1  0.32436750  0.29545950  0.05909500  1.0
  Ni  Ni712  1  0.32436750  0.62879283  0.05909500  1.0
  Ni  Ni713  1  0.32436750  0.96212617  0.05909500  1.0
  Ni  Ni714  1  0.65770083  0.29545950  0.05909500  1.0
  Ni  Ni715  1  0.65770083  0.62879283  0.05909500  1.0
  Ni  Ni716  1  0.65770083  0.96212617  0.05909500  1.0
  Ni  Ni717  1  0.99103417  0.29545950  0.05909500  1.0
  Ni  Ni718  1  0.99103417  0.62879283  0.05909500  1.0
  Ni  Ni719  1  0.99103417  0.96212617  0.05909500  1.0
  Ni  Ni720  1  0.06737937  0.08333333  0.04786190  1.0
  Ni  Ni721  1  0.06737937  0.41666667  0.04786190  1.0
  Ni  Ni722  1  0.06737937  0.75000000  0.04786190  1.0
  Ni  Ni723  1  0.40071270  0.08333333  0.04786190  1.0
  Ni  Ni724  1  0.40071270  0.41666667  0.04786190  1.0
  Ni  Ni725  1  0.40071270  0.75000000  0.04786190  1.0
  Ni  Ni726  1  0.73404603  0.08333333  0.04786190  1.0
  Ni  Ni727  1  0.73404603  0.41666667  0.04786190  1.0
  Ni  Ni728  1  0.73404603  0.75000000  0.04786190  1.0
  Ni  Ni729  1  0.20071270  0.25000000  0.14786190  1.0
  Ni  Ni730  1  0.20071270  0.58333333  0.14786190  1.0
  Ni  Ni731  1  0.20071270  0.91666667  0.14786190  1.0
  Ni  Ni732  1  0.53404603  0.25000000  0.14786190  1.0
  Ni  Ni733  1  0.53404603  0.58333333  0.14786190  1.0
  Ni  Ni734  1  0.53404603  0.91666667  0.14786190  1.0
  Ni  Ni735  1  0.86737937  0.25000000  0.14786190  1.0
  Ni  Ni736  1  0.86737937  0.58333333  0.14786190  1.0
  Ni  Ni737  1  0.86737937  0.91666667  0.14786190  1.0
  Ni  Ni738  1  0.09009230  0.27603100  0.10213810  1.0
  Ni  Ni739  1  0.09009230  0.60936433  0.10213810  1.0
  Ni  Ni740  1  0.09009230  0.94269767  0.10213810  1.0
  Ni  Ni741  1  0.42342563  0.27603100  0.10213810  1.0
  Ni  Ni742  1  0.42342563  0.60936433  0.10213810  1.0
  Ni  Ni743  1  0.42342563  0.94269767  0.10213810  1.0
  Ni  Ni744  1  0.75675897  0.27603100  0.10213810  1.0
  Ni  Ni745  1  0.75675897  0.60936433  0.10213810  1.0
  Ni  Ni746  1  0.75675897  0.94269767  0.10213810  1.0
  Ni  Ni747  1  0.29009230  0.10936433  0.00213810  1.0
  Ni  Ni748  1  0.29009230  0.44269767  0.00213810  1.0
  Ni  Ni749  1  0.29009230  0.77603100  0.00213810  1.0
  Ni  Ni750  1  0.62342563  0.10936433  0.00213810  1.0
  Ni  Ni751  1  0.62342563  0.44269767  0.00213810  1.0
  Ni  Ni752  1  0.62342563  0.77603100  0.00213810  1.0
  Ni  Ni753  1  0.95675897  0.10936433  0.00213810  1.0
  Ni  Ni754  1  0.95675897  0.44269767  0.00213810  1.0
  Ni  Ni755  1  0.95675897  0.77603100  0.00213810  1.0
  Ni  Ni756  1  0.17799977  0.05730233  0.09358570  1.0
  Ni  Ni757  1  0.17799977  0.39063567  0.09358570  1.0
  Ni  Ni758  1  0.17799977  0.72396900  0.09358570  1.0
  Ni  Ni759  1  0.51133310  0.05730233  0.09358570  1.0
  Ni  Ni760  1  0.51133310  0.39063567  0.09358570  1.0
  Ni  Ni761  1  0.51133310  0.72396900  0.09358570  1.0
  Ni  Ni762  1  0.84466643  0.05730233  0.09358570  1.0
  Ni  Ni763  1  0.84466643  0.39063567  0.09358570  1.0
  Ni  Ni764  1  0.84466643  0.72396900  0.09358570  1.0
  Ni  Ni765  1  0.31133310  0.22396900  0.19358570  1.0
  Ni  Ni766  1  0.31133310  0.55730233  0.19358570  1.0
  Ni  Ni767  1  0.31133310  0.89063567  0.19358570  1.0
  Ni  Ni768  1  0.64466643  0.22396900  0.19358570  1.0
  Ni  Ni769  1  0.64466643  0.55730233  0.19358570  1.0
  Ni  Ni770  1  0.64466643  0.89063567  0.19358570  1.0
  Ni  Ni771  1  0.97799977  0.22396900  0.19358570  1.0
  Ni  Ni772  1  0.97799977  0.55730233  0.19358570  1.0
  Ni  Ni773  1  0.97799977  0.89063567  0.19358570  1.0
  Ni  Ni774  1  0.09217717  0.03042083  0.04861200  1.0
  Ni  Ni775  1  0.09217717  0.36375417  0.04861200  1.0
  Ni  Ni776  1  0.09217717  0.69708750  0.04861200  1.0
  Ni  Ni777  1  0.42551050  0.03042083  0.04861200  1.0
  Ni  Ni778  1  0.42551050  0.36375417  0.04861200  1.0
  Ni  Ni779  1  0.42551050  0.69708750  0.04861200  1.0
  Ni  Ni780  1  0.75884383  0.03042083  0.04861200  1.0
  Ni  Ni781  1  0.75884383  0.36375417  0.04861200  1.0
  Ni  Ni782  1  0.75884383  0.69708750  0.04861200  1.0
  Ni  Ni783  1  0.22551050  0.19708750  0.14861200  1.0
  Ni  Ni784  1  0.22551050  0.53042083  0.14861200  1.0
  Ni  Ni785  1  0.22551050  0.86375417  0.14861200  1.0
  Ni  Ni786  1  0.55884383  0.19708750  0.14861200  1.0
  Ni  Ni787  1  0.55884383  0.53042083  0.14861200  1.0
  Ni  Ni788  1  0.55884383  0.86375417  0.14861200  1.0
  Ni  Ni789  1  0.89217717  0.19708750  0.14861200  1.0
  Ni  Ni790  1  0.89217717  0.53042083  0.14861200  1.0
  Ni  Ni791  1  0.89217717  0.86375417  0.14861200  1.0
  Ni  Ni792  1  0.17591490  0.30291250  0.14711180  1.0
  Ni  Ni793  1  0.17591490  0.63624583  0.14711180  1.0
  Ni  Ni794  1  0.17591490  0.96957917  0.14711180  1.0
  Ni  Ni795  1  0.50924823  0.30291250  0.14711180  1.0
  Ni  Ni796  1  0.50924823  0.63624583  0.14711180  1.0
  Ni  Ni797  1  0.50924823  0.96957917  0.14711180  1.0
  Ni  Ni798  1  0.84258157  0.30291250  0.14711180  1.0
  Ni  Ni799  1  0.84258157  0.63624583  0.14711180  1.0
  Ni  Ni800  1  0.84258157  0.96957917  0.14711180  1.0
  Ni  Ni801  1  0.04258157  0.13624583  0.04711180  1.0
  Ni  Ni802  1  0.04258157  0.46957917  0.04711180  1.0
  Ni  Ni803  1  0.04258157  0.80291250  0.04711180  1.0
  Ni  Ni804  1  0.37591490  0.13624583  0.04711180  1.0
  Ni  Ni805  1  0.37591490  0.46957917  0.04711180  1.0
  Ni  Ni806  1  0.37591490  0.80291250  0.04711180  1.0
  Ni  Ni807  1  0.70924823  0.13624583  0.04711180  1.0
  Ni  Ni808  1  0.70924823  0.46957917  0.04711180  1.0
  Ni  Ni809  1  0.70924823  0.80291250  0.04711180  1.0
  Ni  Ni810  1  0.08394143  0.24199983  0.17354420  1.0
  Ni  Ni811  1  0.08394143  0.57533317  0.17354420  1.0
  Ni  Ni812  1  0.08394143  0.90866650  0.17354420  1.0
  Ni  Ni813  1  0.41727477  0.24199983  0.17354420  1.0
  Ni  Ni814  1  0.41727477  0.57533317  0.17354420  1.0
  Ni  Ni815  1  0.41727477  0.90866650  0.17354420  1.0
  Ni  Ni816  1  0.75060810  0.24199983  0.17354420  1.0
  Ni  Ni817  1  0.75060810  0.57533317  0.17354420  1.0
  Ni  Ni818  1  0.75060810  0.90866650  0.17354420  1.0
  Ni  Ni819  1  0.28394143  0.07533317  0.07354420  1.0
  Ni  Ni820  1  0.28394143  0.40866650  0.07354420  1.0
  Ni  Ni821  1  0.28394143  0.74199983  0.07354420  1.0
  Ni  Ni822  1  0.61727477  0.07533317  0.07354420  1.0
  Ni  Ni823  1  0.61727477  0.40866650  0.07354420  1.0
  Ni  Ni824  1  0.61727477  0.74199983  0.07354420  1.0
  Ni  Ni825  1  0.95060810  0.07533317  0.07354420  1.0
  Ni  Ni826  1  0.95060810  0.40866650  0.07354420  1.0
  Ni  Ni827  1  0.95060810  0.74199983  0.07354420  1.0
  Ni  Ni828  1  0.18415063  0.09133350  0.02217960  1.0
  Ni  Ni829  1  0.18415063  0.42466683  0.02217960  1.0
  Ni  Ni830  1  0.18415063  0.75800017  0.02217960  1.0
  Ni  Ni831  1  0.51748397  0.09133350  0.02217960  1.0
  Ni  Ni832  1  0.51748397  0.42466683  0.02217960  1.0
  Ni  Ni833  1  0.51748397  0.75800017  0.02217960  1.0
  Ni  Ni834  1  0.85081730  0.09133350  0.02217960  1.0
  Ni  Ni835  1  0.85081730  0.42466683  0.02217960  1.0
  Ni  Ni836  1  0.85081730  0.75800017  0.02217960  1.0
  Ni  Ni837  1  0.31748397  0.25800017  0.12217960  1.0
  Ni  Ni838  1  0.31748397  0.59133350  0.12217960  1.0
  Ni  Ni839  1  0.31748397  0.92466683  0.12217960  1.0
  Ni  Ni840  1  0.65081730  0.25800017  0.12217960  1.0
  Ni  Ni841  1  0.65081730  0.59133350  0.12217960  1.0
  Ni  Ni842  1  0.65081730  0.92466683  0.12217960  1.0
  Ni  Ni843  1  0.98415063  0.25800017  0.12217960  1.0
  Ni  Ni844  1  0.98415063  0.59133350  0.12217960  1.0
  Ni  Ni845  1  0.98415063  0.92466683  0.12217960  1.0
  Ni  Ni846  1  0.32463937  0.00343550  0.18024640  1.0
  Ni  Ni847  1  0.32463937  0.33676883  0.18024640  1.0
  Ni  Ni848  1  0.32463937  0.67010217  0.18024640  1.0
  Ni  Ni849  1  0.65797270  0.00343550  0.18024640  1.0
  Ni  Ni850  1  0.65797270  0.33676883  0.18024640  1.0
  Ni  Ni851  1  0.65797270  0.67010217  0.18024640  1.0
  Ni  Ni852  1  0.99130603  0.00343550  0.18024640  1.0
  Ni  Ni853  1  0.99130603  0.33676883  0.18024640  1.0
  Ni  Ni854  1  0.99130603  0.67010217  0.18024640  1.0
  Ni  Ni855  1  0.19130603  0.17010217  0.08024640  1.0
  Ni  Ni856  1  0.19130603  0.50343550  0.08024640  1.0
  Ni  Ni857  1  0.19130603  0.83676883  0.08024640  1.0
  Ni  Ni858  1  0.52463937  0.17010217  0.08024640  1.0
  Ni  Ni859  1  0.52463937  0.50343550  0.08024640  1.0
  Ni  Ni860  1  0.52463937  0.83676883  0.08024640  1.0
  Ni  Ni861  1  0.85797270  0.17010217  0.08024640  1.0
  Ni  Ni862  1  0.85797270  0.50343550  0.08024640  1.0
  Ni  Ni863  1  0.85797270  0.83676883  0.08024640  1.0
  Ni  Ni864  1  0.27678603  0.32989783  0.01547740  1.0
  Ni  Ni865  1  0.27678603  0.66323117  0.01547740  1.0
  Ni  Ni866  1  0.27678603  0.99656450  0.01547740  1.0
  Ni  Ni867  1  0.61011937  0.32989783  0.01547740  1.0
  Ni  Ni868  1  0.61011937  0.66323117  0.01547740  1.0
  Ni  Ni869  1  0.61011937  0.99656450  0.01547740  1.0
  Ni  Ni870  1  0.94345270  0.32989783  0.01547740  1.0
  Ni  Ni871  1  0.94345270  0.66323117  0.01547740  1.0
  Ni  Ni872  1  0.94345270  0.99656450  0.01547740  1.0
  Ni  Ni873  1  0.07678603  0.16323117  0.11547740  1.0
  Ni  Ni874  1  0.07678603  0.49656450  0.11547740  1.0
  Ni  Ni875  1  0.07678603  0.82989783  0.11547740  1.0
  Ni  Ni876  1  0.41011937  0.16323117  0.11547740  1.0
  Ni  Ni877  1  0.41011937  0.49656450  0.11547740  1.0
  Ni  Ni878  1  0.41011937  0.82989783  0.11547740  1.0
  Ni  Ni879  1  0.74345270  0.16323117  0.11547740  1.0
  Ni  Ni880  1  0.74345270  0.49656450  0.11547740  1.0
  Ni  Ni881  1  0.74345270  0.82989783  0.11547740  1.0
  Ni  Ni882  1  0.26737937  0.00000000  0.19786190  1.0
  Ni  Ni883  1  0.26737937  0.33333333  0.19786190  1.0
  Ni  Ni884  1  0.26737937  0.66666667  0.19786190  1.0
  Ni  Ni885  1  0.60071270  0.00000000  0.19786190  1.0
  Ni  Ni886  1  0.60071270  0.33333333  0.19786190  1.0
  Ni  Ni887  1  0.60071270  0.66666667  0.19786190  1.0
  Ni  Ni888  1  0.93404603  0.00000000  0.19786190  1.0
  Ni  Ni889  1  0.93404603  0.33333333  0.19786190  1.0
  Ni  Ni890  1  0.93404603  0.66666667  0.19786190  1.0
  Ni  Ni891  1  0.13404603  0.16666667  0.09786190  1.0
  Ni  Ni892  1  0.13404603  0.50000000  0.09786190  1.0
  Ni  Ni893  1  0.13404603  0.83333333  0.09786190  1.0
  Ni  Ni894  1  0.46737937  0.16666667  0.09786190  1.0
  Ni  Ni895  1  0.46737937  0.50000000  0.09786190  1.0
  Ni  Ni896  1  0.46737937  0.83333333  0.09786190  1.0
  Ni  Ni897  1  0.80071270  0.16666667  0.09786190  1.0
  Ni  Ni898  1  0.80071270  0.50000000  0.09786190  1.0
  Ni  Ni899  1  0.80071270  0.83333333  0.09786190  1.0
  Ni  Ni900  1  0.20973697  0.28449383  0.07991860  1.0
  Ni  Ni901  1  0.20973697  0.61782717  0.07991860  1.0
  Ni  Ni902  1  0.20973697  0.95116050  0.07991860  1.0
  Ni  Ni903  1  0.54307030  0.28449383  0.07991860  1.0
  Ni  Ni904  1  0.54307030  0.61782717  0.07991860  1.0
  Ni  Ni905  1  0.54307030  0.95116050  0.07991860  1.0
  Ni  Ni906  1  0.87640363  0.28449383  0.07991860  1.0
  Ni  Ni907  1  0.87640363  0.61782717  0.07991860  1.0
  Ni  Ni908  1  0.87640363  0.95116050  0.07991860  1.0
  Ni  Ni909  1  0.00973697  0.11782717  0.17991860  1.0
  Ni  Ni910  1  0.00973697  0.45116050  0.17991860  1.0
  Ni  Ni911  1  0.00973697  0.78449383  0.17991860  1.0
  Ni  Ni912  1  0.34307030  0.11782717  0.17991860  1.0
  Ni  Ni913  1  0.34307030  0.45116050  0.17991860  1.0
  Ni  Ni914  1  0.34307030  0.78449383  0.17991860  1.0
  Ni  Ni915  1  0.67640363  0.11782717  0.17991860  1.0
  Ni  Ni916  1  0.67640363  0.45116050  0.17991860  1.0
  Ni  Ni917  1  0.67640363  0.78449383  0.17991860  1.0
  Ni  Ni918  1  0.05835510  0.04883950  0.11580520  1.0
  Ni  Ni919  1  0.05835510  0.38217283  0.11580520  1.0
  Ni  Ni920  1  0.05835510  0.71550617  0.11580520  1.0
  Ni  Ni921  1  0.39168843  0.04883950  0.11580520  1.0
  Ni  Ni922  1  0.39168843  0.38217283  0.11580520  1.0
  Ni  Ni923  1  0.39168843  0.71550617  0.11580520  1.0
  Ni  Ni924  1  0.72502177  0.04883950  0.11580520  1.0
  Ni  Ni925  1  0.72502177  0.38217283  0.11580520  1.0
  Ni  Ni926  1  0.72502177  0.71550617  0.11580520  1.0
  Ni  Ni927  1  0.25835510  0.21550617  0.01580520  1.0
  Ni  Ni928  1  0.25835510  0.54883950  0.01580520  1.0
  Ni  Ni929  1  0.25835510  0.88217283  0.01580520  1.0
  Ni  Ni930  1  0.59168843  0.21550617  0.01580520  1.0
  Ni  Ni931  1  0.59168843  0.54883950  0.01580520  1.0
  Ni  Ni932  1  0.59168843  0.88217283  0.01580520  1.0
  Ni  Ni933  1  0.92502177  0.21550617  0.01580520  1.0
  Ni  Ni934  1  0.92502177  0.54883950  0.01580520  1.0
  Ni  Ni935  1  0.92502177  0.88217283  0.01580520  1.0
  Ni  Ni936  1  0.14980310  0.00332633  0.32460270  1.0
  Ni  Ni937  1  0.14980310  0.33665967  0.32460270  1.0
  Ni  Ni938  1  0.14980310  0.66999300  0.32460270  1.0
  Ni  Ni939  1  0.48313643  0.00332633  0.32460270  1.0
  Ni  Ni940  1  0.48313643  0.33665967  0.32460270  1.0
  Ni  Ni941  1  0.48313643  0.66999300  0.32460270  1.0
  Ni  Ni942  1  0.81646977  0.00332633  0.32460270  1.0
  Ni  Ni943  1  0.81646977  0.33665967  0.32460270  1.0
  Ni  Ni944  1  0.81646977  0.66999300  0.32460270  1.0
  Ni  Ni945  1  0.01646977  0.16999300  0.22460270  1.0
  Ni  Ni946  1  0.01646977  0.50332633  0.22460270  1.0
  Ni  Ni947  1  0.01646977  0.83665967  0.22460270  1.0
  Ni  Ni948  1  0.34980310  0.16999300  0.22460270  1.0
  Ni  Ni949  1  0.34980310  0.50332633  0.22460270  1.0
  Ni  Ni950  1  0.34980310  0.83665967  0.22460270  1.0
  Ni  Ni951  1  0.68313643  0.16999300  0.22460270  1.0
  Ni  Ni952  1  0.68313643  0.50332633  0.22460270  1.0
  Ni  Ni953  1  0.68313643  0.83665967  0.22460270  1.0
  Ni  Ni954  1  0.31828897  0.33000700  0.27112110  1.0
  Ni  Ni955  1  0.31828897  0.66334033  0.27112110  1.0
  Ni  Ni956  1  0.31828897  0.99667367  0.27112110  1.0
  Ni  Ni957  1  0.65162230  0.33000700  0.27112110  1.0
  Ni  Ni958  1  0.65162230  0.66334033  0.27112110  1.0
  Ni  Ni959  1  0.65162230  0.99667367  0.27112110  1.0
  Ni  Ni960  1  0.98495563  0.33000700  0.27112110  1.0
  Ni  Ni961  1  0.98495563  0.66334033  0.27112110  1.0
  Ni  Ni962  1  0.98495563  0.99667367  0.27112110  1.0
  Ni  Ni963  1  0.11828897  0.16334033  0.37112110  1.0
  Ni  Ni964  1  0.11828897  0.49667367  0.37112110  1.0
  Ni  Ni965  1  0.11828897  0.83000700  0.37112110  1.0
  Ni  Ni966  1  0.45162230  0.16334033  0.37112110  1.0
  Ni  Ni967  1  0.45162230  0.49667367  0.37112110  1.0
  Ni  Ni968  1  0.45162230  0.83000700  0.37112110  1.0
  Ni  Ni969  1  0.78495563  0.16334033  0.37112110  1.0
  Ni  Ni970  1  0.78495563  0.49667367  0.37112110  1.0
  Ni  Ni971  1  0.78495563  0.83000700  0.37112110  1.0
  Ni  Ni972  1  0.09669263  0.21114733  0.32681110  1.0
  Ni  Ni973  1  0.09669263  0.54448067  0.32681110  1.0
  Ni  Ni974  1  0.09669263  0.87781400  0.32681110  1.0
  Ni  Ni975  1  0.43002597  0.21114733  0.32681110  1.0
  Ni  Ni976  1  0.43002597  0.54448067  0.32681110  1.0
  Ni  Ni977  1  0.43002597  0.87781400  0.32681110  1.0
  Ni  Ni978  1  0.76335930  0.21114733  0.32681110  1.0
  Ni  Ni979  1  0.76335930  0.54448067  0.32681110  1.0
  Ni  Ni980  1  0.76335930  0.87781400  0.32681110  1.0
  Ni  Ni981  1  0.29669263  0.04448067  0.22681110  1.0
  Ni  Ni982  1  0.29669263  0.37781400  0.22681110  1.0
  Ni  Ni983  1  0.29669263  0.71114733  0.22681110  1.0
  Ni  Ni984  1  0.63002597  0.04448067  0.22681110  1.0
  Ni  Ni985  1  0.63002597  0.37781400  0.22681110  1.0
  Ni  Ni986  1  0.63002597  0.71114733  0.22681110  1.0
  Ni  Ni987  1  0.96335930  0.04448067  0.22681110  1.0
  Ni  Ni988  1  0.96335930  0.37781400  0.22681110  1.0
  Ni  Ni989  1  0.96335930  0.71114733  0.22681110  1.0
  Ni  Ni990  1  0.03806610  0.12218600  0.26891270  1.0
  Ni  Ni991  1  0.03806610  0.45551933  0.26891270  1.0
  Ni  Ni992  1  0.03806610  0.78885267  0.26891270  1.0
  Ni  Ni993  1  0.37139943  0.12218600  0.26891270  1.0
  Ni  Ni994  1  0.37139943  0.45551933  0.26891270  1.0
  Ni  Ni995  1  0.37139943  0.78885267  0.26891270  1.0
  Ni  Ni996  1  0.70473277  0.12218600  0.26891270  1.0
  Ni  Ni997  1  0.70473277  0.45551933  0.26891270  1.0
  Ni  Ni998  1  0.70473277  0.78885267  0.26891270  1.0
  Ni  Ni999  1  0.17139943  0.28885267  0.36891270  1.0
  Ni  Ni1000  1  0.17139943  0.62218600  0.36891270  1.0
  Ni  Ni1001  1  0.17139943  0.95551933  0.36891270  1.0
  Ni  Ni1002  1  0.50473277  0.28885267  0.36891270  1.0
  Ni  Ni1003  1  0.50473277  0.62218600  0.36891270  1.0
  Ni  Ni1004  1  0.50473277  0.95551933  0.36891270  1.0
  Ni  Ni1005  1  0.83806610  0.28885267  0.36891270  1.0
  Ni  Ni1006  1  0.83806610  0.62218600  0.36891270  1.0
  Ni  Ni1007  1  0.83806610  0.95551933  0.36891270  1.0
  Ni  Ni1008  1  0.03081070  0.25339233  0.20983390  1.0
  Ni  Ni1009  1  0.03081070  0.58672567  0.20983390  1.0
  Ni  Ni1010  1  0.03081070  0.92005900  0.20983390  1.0
  Ni  Ni1011  1  0.36414403  0.25339233  0.20983390  1.0
  Ni  Ni1012  1  0.36414403  0.58672567  0.20983390  1.0
  Ni  Ni1013  1  0.36414403  0.92005900  0.20983390  1.0
  Ni  Ni1014  1  0.69747737  0.25339233  0.20983390  1.0
  Ni  Ni1015  1  0.69747737  0.58672567  0.20983390  1.0
  Ni  Ni1016  1  0.69747737  0.92005900  0.20983390  1.0
  Ni  Ni1017  1  0.16414403  0.08672567  0.30983390  1.0
  Ni  Ni1018  1  0.16414403  0.42005900  0.30983390  1.0
  Ni  Ni1019  1  0.16414403  0.75339233  0.30983390  1.0
  Ni  Ni1020  1  0.49747737  0.08672567  0.30983390  1.0
  Ni  Ni1021  1  0.49747737  0.42005900  0.30983390  1.0
  Ni  Ni1022  1  0.49747737  0.75339233  0.30983390  1.0
  Ni  Ni1023  1  0.83081070  0.08672567  0.30983390  1.0
  Ni  Ni1024  1  0.83081070  0.42005900  0.30983390  1.0
  Ni  Ni1025  1  0.83081070  0.75339233  0.30983390  1.0
  Ni  Ni1026  1  0.10394803  0.07994100  0.38588990  1.0
  Ni  Ni1027  1  0.10394803  0.41327433  0.38588990  1.0
  Ni  Ni1028  1  0.10394803  0.74660767  0.38588990  1.0
  Ni  Ni1029  1  0.43728137  0.07994100  0.38588990  1.0
  Ni  Ni1030  1  0.43728137  0.41327433  0.38588990  1.0
  Ni  Ni1031  1  0.43728137  0.74660767  0.38588990  1.0
  Ni  Ni1032  1  0.77061470  0.07994100  0.38588990  1.0
  Ni  Ni1033  1  0.77061470  0.41327433  0.38588990  1.0
  Ni  Ni1034  1  0.77061470  0.74660767  0.38588990  1.0
  Ni  Ni1035  1  0.30394803  0.24660767  0.28588990  1.0
  Ni  Ni1036  1  0.30394803  0.57994100  0.28588990  1.0
  Ni  Ni1037  1  0.30394803  0.91327433  0.28588990  1.0
  Ni  Ni1038  1  0.63728137  0.24660767  0.28588990  1.0
  Ni  Ni1039  1  0.63728137  0.57994100  0.28588990  1.0
  Ni  Ni1040  1  0.63728137  0.91327433  0.28588990  1.0
  Ni  Ni1041  1  0.97061470  0.24660767  0.28588990  1.0
  Ni  Ni1042  1  0.97061470  0.57994100  0.28588990  1.0
  Ni  Ni1043  1  0.97061470  0.91327433  0.28588990  1.0
  Ni  Ni1044  1  0.02567243  0.29634233  0.39761770  1.0
  Ni  Ni1045  1  0.02567243  0.62967567  0.39761770  1.0
  Ni  Ni1046  1  0.02567243  0.96300900  0.39761770  1.0
  Ni  Ni1047  1  0.35900577  0.29634233  0.39761770  1.0
  Ni  Ni1048  1  0.35900577  0.62967567  0.39761770  1.0
  Ni  Ni1049  1  0.35900577  0.96300900  0.39761770  1.0
  Ni  Ni1050  1  0.69233910  0.29634233  0.39761770  1.0
  Ni  Ni1051  1  0.69233910  0.62967567  0.39761770  1.0
  Ni  Ni1052  1  0.69233910  0.96300900  0.39761770  1.0
  Ni  Ni1053  1  0.22567243  0.12967567  0.29761770  1.0
  Ni  Ni1054  1  0.22567243  0.46300900  0.29761770  1.0
  Ni  Ni1055  1  0.22567243  0.79634233  0.29761770  1.0
  Ni  Ni1056  1  0.55900577  0.12967567  0.29761770  1.0
  Ni  Ni1057  1  0.55900577  0.46300900  0.29761770  1.0
  Ni  Ni1058  1  0.55900577  0.79634233  0.29761770  1.0
  Ni  Ni1059  1  0.89233910  0.12967567  0.29761770  1.0
  Ni  Ni1060  1  0.89233910  0.46300900  0.29761770  1.0
  Ni  Ni1061  1  0.89233910  0.79634233  0.29761770  1.0
  Ni  Ni1062  1  0.04241963  0.03699100  0.39810610  1.0
  Ni  Ni1063  1  0.04241963  0.37032433  0.39810610  1.0
  Ni  Ni1064  1  0.04241963  0.70365767  0.39810610  1.0
  Ni  Ni1065  1  0.37575297  0.03699100  0.39810610  1.0
  Ni  Ni1066  1  0.37575297  0.37032433  0.39810610  1.0
  Ni  Ni1067  1  0.37575297  0.70365767  0.39810610  1.0
  Ni  Ni1068  1  0.70908630  0.03699100  0.39810610  1.0
  Ni  Ni1069  1  0.70908630  0.37032433  0.39810610  1.0
  Ni  Ni1070  1  0.70908630  0.70365767  0.39810610  1.0
  Ni  Ni1071  1  0.24241963  0.20365767  0.29810610  1.0
  Ni  Ni1072  1  0.24241963  0.53699100  0.29810610  1.0
  Ni  Ni1073  1  0.24241963  0.87032433  0.29810610  1.0
  Ni  Ni1074  1  0.57575297  0.20365767  0.29810610  1.0
  Ni  Ni1075  1  0.57575297  0.53699100  0.29810610  1.0
  Ni  Ni1076  1  0.57575297  0.87032433  0.29810610  1.0
  Ni  Ni1077  1  0.90908630  0.20365767  0.29810610  1.0
  Ni  Ni1078  1  0.90908630  0.53699100  0.29810610  1.0
  Ni  Ni1079  1  0.90908630  0.87032433  0.29810610  1.0
  Ni  Ni1080  1  0.15074017  0.32085950  0.22135400  1.0
  Ni  Ni1081  1  0.15074017  0.65419283  0.22135400  1.0
  Ni  Ni1082  1  0.15074017  0.98752617  0.22135400  1.0
  Ni  Ni1083  1  0.48407350  0.32085950  0.22135400  1.0
  Ni  Ni1084  1  0.48407350  0.65419283  0.22135400  1.0
  Ni  Ni1085  1  0.48407350  0.98752617  0.22135400  1.0
  Ni  Ni1086  1  0.81740683  0.32085950  0.22135400  1.0
  Ni  Ni1087  1  0.81740683  0.65419283  0.22135400  1.0
  Ni  Ni1088  1  0.81740683  0.98752617  0.22135400  1.0
  Ni  Ni1089  1  0.28407350  0.15419283  0.32135400  1.0
  Ni  Ni1090  1  0.28407350  0.48752617  0.32135400  1.0
  Ni  Ni1091  1  0.28407350  0.82085950  0.32135400  1.0
  Ni  Ni1092  1  0.61740683  0.15419283  0.32135400  1.0
  Ni  Ni1093  1  0.61740683  0.48752617  0.32135400  1.0
  Ni  Ni1094  1  0.61740683  0.82085950  0.32135400  1.0
  Ni  Ni1095  1  0.95074017  0.15419283  0.32135400  1.0
  Ni  Ni1096  1  0.95074017  0.48752617  0.32135400  1.0
  Ni  Ni1097  1  0.95074017  0.82085950  0.32135400  1.0
  Ni  Ni1098  1  0.31735190  0.01247383  0.37436980  1.0
  Ni  Ni1099  1  0.31735190  0.34580717  0.37436980  1.0
  Ni  Ni1100  1  0.31735190  0.67914050  0.37436980  1.0
  Ni  Ni1101  1  0.65068523  0.01247383  0.37436980  1.0
  Ni  Ni1102  1  0.65068523  0.34580717  0.37436980  1.0
  Ni  Ni1103  1  0.65068523  0.67914050  0.37436980  1.0
  Ni  Ni1104  1  0.98401857  0.01247383  0.37436980  1.0
  Ni  Ni1105  1  0.98401857  0.34580717  0.37436980  1.0
  Ni  Ni1106  1  0.98401857  0.67914050  0.37436980  1.0
  Ni  Ni1107  1  0.18401857  0.17914050  0.27436980  1.0
  Ni  Ni1108  1  0.18401857  0.51247383  0.27436980  1.0
  Ni  Ni1109  1  0.18401857  0.84580717  0.27436980  1.0
  Ni  Ni1110  1  0.51735190  0.17914050  0.27436980  1.0
  Ni  Ni1111  1  0.51735190  0.51247383  0.27436980  1.0
  Ni  Ni1112  1  0.51735190  0.84580717  0.27436980  1.0
  Ni  Ni1113  1  0.85068523  0.17914050  0.27436980  1.0
  Ni  Ni1114  1  0.85068523  0.51247383  0.27436980  1.0
  Ni  Ni1115  1  0.85068523  0.84580717  0.27436980  1.0
  Ni  Ni1116  1  0.03723663  0.30841433  0.23666410  1.0
  Ni  Ni1117  1  0.03723663  0.64174767  0.23666410  1.0
  Ni  Ni1118  1  0.03723663  0.97508100  0.23666410  1.0
  Ni  Ni1119  1  0.37056997  0.30841433  0.23666410  1.0
  Ni  Ni1120  1  0.37056997  0.64174767  0.23666410  1.0
  Ni  Ni1121  1  0.37056997  0.97508100  0.23666410  1.0
  Ni  Ni1122  1  0.70390330  0.30841433  0.23666410  1.0
  Ni  Ni1123  1  0.70390330  0.64174767  0.23666410  1.0
  Ni  Ni1124  1  0.70390330  0.97508100  0.23666410  1.0
  Ni  Ni1125  1  0.17056997  0.14174767  0.33666410  1.0
  Ni  Ni1126  1  0.17056997  0.47508100  0.33666410  1.0
  Ni  Ni1127  1  0.17056997  0.80841433  0.33666410  1.0
  Ni  Ni1128  1  0.50390330  0.14174767  0.33666410  1.0
  Ni  Ni1129  1  0.50390330  0.47508100  0.33666410  1.0
  Ni  Ni1130  1  0.50390330  0.80841433  0.33666410  1.0
  Ni  Ni1131  1  0.83723663  0.14174767  0.33666410  1.0
  Ni  Ni1132  1  0.83723663  0.47508100  0.33666410  1.0
  Ni  Ni1133  1  0.83723663  0.80841433  0.33666410  1.0
  Ni  Ni1134  1  0.09752210  0.02491900  0.35905970  1.0
  Ni  Ni1135  1  0.09752210  0.35825233  0.35905970  1.0
  Ni  Ni1136  1  0.09752210  0.69158567  0.35905970  1.0
  Ni  Ni1137  1  0.43085543  0.02491900  0.35905970  1.0
  Ni  Ni1138  1  0.43085543  0.35825233  0.35905970  1.0
  Ni  Ni1139  1  0.43085543  0.69158567  0.35905970  1.0
  Ni  Ni1140  1  0.76418877  0.02491900  0.35905970  1.0
  Ni  Ni1141  1  0.76418877  0.35825233  0.35905970  1.0
  Ni  Ni1142  1  0.76418877  0.69158567  0.35905970  1.0
  Ni  Ni1143  1  0.29752210  0.19158567  0.25905970  1.0
  Ni  Ni1144  1  0.29752210  0.52491900  0.25905970  1.0
  Ni  Ni1145  1  0.29752210  0.85825233  0.25905970  1.0
  Ni  Ni1146  1  0.63085543  0.19158567  0.25905970  1.0
  Ni  Ni1147  1  0.63085543  0.52491900  0.25905970  1.0
  Ni  Ni1148  1  0.63085543  0.85825233  0.25905970  1.0
  Ni  Ni1149  1  0.96418877  0.19158567  0.25905970  1.0
  Ni  Ni1150  1  0.96418877  0.52491900  0.25905970  1.0
  Ni  Ni1151  1  0.96418877  0.85825233  0.25905970  1.0
  Ni  Ni1152  1  0.26799450  0.05594217  0.36555800  1.0
  Ni  Ni1153  1  0.26799450  0.38927550  0.36555800  1.0
  Ni  Ni1154  1  0.26799450  0.72260883  0.36555800  1.0
  Ni  Ni1155  1  0.60132783  0.05594217  0.36555800  1.0
  Ni  Ni1156  1  0.60132783  0.38927550  0.36555800  1.0
  Ni  Ni1157  1  0.60132783  0.72260883  0.36555800  1.0
  Ni  Ni1158  1  0.93466117  0.05594217  0.36555800  1.0
  Ni  Ni1159  1  0.93466117  0.38927550  0.36555800  1.0
  Ni  Ni1160  1  0.93466117  0.72260883  0.36555800  1.0
  Ni  Ni1161  1  0.13466117  0.22260883  0.26555800  1.0
  Ni  Ni1162  1  0.13466117  0.55594217  0.26555800  1.0
  Ni  Ni1163  1  0.13466117  0.88927550  0.26555800  1.0
  Ni  Ni1164  1  0.46799450  0.22260883  0.26555800  1.0
  Ni  Ni1165  1  0.46799450  0.55594217  0.26555800  1.0
  Ni  Ni1166  1  0.46799450  0.88927550  0.26555800  1.0
  Ni  Ni1167  1  0.80132783  0.22260883  0.26555800  1.0
  Ni  Ni1168  1  0.80132783  0.55594217  0.26555800  1.0
  Ni  Ni1169  1  0.80132783  0.88927550  0.26555800  1.0
  Ni  Ni1170  1  0.20009757  0.27739117  0.23016580  1.0
  Ni  Ni1171  1  0.20009757  0.61072450  0.23016580  1.0
  Ni  Ni1172  1  0.20009757  0.94405783  0.23016580  1.0
  Ni  Ni1173  1  0.53343090  0.27739117  0.23016580  1.0
  Ni  Ni1174  1  0.53343090  0.61072450  0.23016580  1.0
  Ni  Ni1175  1  0.53343090  0.94405783  0.23016580  1.0
  Ni  Ni1176  1  0.86676423  0.27739117  0.23016580  1.0
  Ni  Ni1177  1  0.86676423  0.61072450  0.23016580  1.0
  Ni  Ni1178  1  0.86676423  0.94405783  0.23016580  1.0
  Ni  Ni1179  1  0.00009757  0.11072450  0.33016580  1.0
  Ni  Ni1180  1  0.00009757  0.44405783  0.33016580  1.0
  Ni  Ni1181  1  0.00009757  0.77739117  0.33016580  1.0
  Ni  Ni1182  1  0.33343090  0.11072450  0.33016580  1.0
  Ni  Ni1183  1  0.33343090  0.44405783  0.33016580  1.0
  Ni  Ni1184  1  0.33343090  0.77739117  0.33016580  1.0
  Ni  Ni1185  1  0.66676423  0.11072450  0.33016580  1.0
  Ni  Ni1186  1  0.66676423  0.44405783  0.33016580  1.0
  Ni  Ni1187  1  0.66676423  0.77739117  0.33016580  1.0
  Ni  Ni1188  1  0.07705790  0.20454050  0.23662880  1.0
  Ni  Ni1189  1  0.07705790  0.53787383  0.23662880  1.0
  Ni  Ni1190  1  0.07705790  0.87120717  0.23662880  1.0
  Ni  Ni1191  1  0.41039123  0.20454050  0.23662880  1.0
  Ni  Ni1192  1  0.41039123  0.53787383  0.23662880  1.0
  Ni  Ni1193  1  0.41039123  0.87120717  0.23662880  1.0
  Ni  Ni1194  1  0.74372457  0.20454050  0.23662880  1.0
  Ni  Ni1195  1  0.74372457  0.53787383  0.23662880  1.0
  Ni  Ni1196  1  0.74372457  0.87120717  0.23662880  1.0
  Ni  Ni1197  1  0.21039123  0.03787383  0.33662880  1.0
  Ni  Ni1198  1  0.21039123  0.37120717  0.33662880  1.0
  Ni  Ni1199  1  0.21039123  0.70454050  0.33662880  1.0
  Ni  Ni1200  1  0.54372457  0.03787383  0.33662880  1.0
  Ni  Ni1201  1  0.54372457  0.37120717  0.33662880  1.0
  Ni  Ni1202  1  0.54372457  0.70454050  0.33662880  1.0
  Ni  Ni1203  1  0.87705790  0.03787383  0.33662880  1.0
  Ni  Ni1204  1  0.87705790  0.37120717  0.33662880  1.0
  Ni  Ni1205  1  0.87705790  0.70454050  0.33662880  1.0
  Ni  Ni1206  1  0.05770083  0.12879283  0.35909500  1.0
  Ni  Ni1207  1  0.05770083  0.46212617  0.35909500  1.0
  Ni  Ni1208  1  0.05770083  0.79545950  0.35909500  1.0
  Ni  Ni1209  1  0.39103417  0.12879283  0.35909500  1.0
  Ni  Ni1210  1  0.39103417  0.46212617  0.35909500  1.0
  Ni  Ni1211  1  0.39103417  0.79545950  0.35909500  1.0
  Ni  Ni1212  1  0.72436750  0.12879283  0.35909500  1.0
  Ni  Ni1213  1  0.72436750  0.46212617  0.35909500  1.0
  Ni  Ni1214  1  0.72436750  0.79545950  0.35909500  1.0
  Ni  Ni1215  1  0.25770083  0.29545950  0.25909500  1.0
  Ni  Ni1216  1  0.25770083  0.62879283  0.25909500  1.0
  Ni  Ni1217  1  0.25770083  0.96212617  0.25909500  1.0
  Ni  Ni1218  1  0.59103417  0.29545950  0.25909500  1.0
  Ni  Ni1219  1  0.59103417  0.62879283  0.25909500  1.0
  Ni  Ni1220  1  0.59103417  0.96212617  0.25909500  1.0
  Ni  Ni1221  1  0.92436750  0.29545950  0.25909500  1.0
  Ni  Ni1222  1  0.92436750  0.62879283  0.25909500  1.0
  Ni  Ni1223  1  0.92436750  0.96212617  0.25909500  1.0
  Ni  Ni1224  1  0.00071270  0.08333333  0.24786190  1.0
  Ni  Ni1225  1  0.00071270  0.41666667  0.24786190  1.0
  Ni  Ni1226  1  0.00071270  0.75000000  0.24786190  1.0
  Ni  Ni1227  1  0.33404603  0.08333333  0.24786190  1.0
  Ni  Ni1228  1  0.33404603  0.41666667  0.24786190  1.0
  Ni  Ni1229  1  0.33404603  0.75000000  0.24786190  1.0
  Ni  Ni1230  1  0.66737937  0.08333333  0.24786190  1.0
  Ni  Ni1231  1  0.66737937  0.41666667  0.24786190  1.0
  Ni  Ni1232  1  0.66737937  0.75000000  0.24786190  1.0
  Ni  Ni1233  1  0.13404603  0.25000000  0.34786190  1.0
  Ni  Ni1234  1  0.13404603  0.58333333  0.34786190  1.0
  Ni  Ni1235  1  0.13404603  0.91666667  0.34786190  1.0
  Ni  Ni1236  1  0.46737937  0.25000000  0.34786190  1.0
  Ni  Ni1237  1  0.46737937  0.58333333  0.34786190  1.0
  Ni  Ni1238  1  0.46737937  0.91666667  0.34786190  1.0
  Ni  Ni1239  1  0.80071270  0.25000000  0.34786190  1.0
  Ni  Ni1240  1  0.80071270  0.58333333  0.34786190  1.0
  Ni  Ni1241  1  0.80071270  0.91666667  0.34786190  1.0
  Ni  Ni1242  1  0.02342563  0.27603100  0.30213810  1.0
  Ni  Ni1243  1  0.02342563  0.60936433  0.30213810  1.0
  Ni  Ni1244  1  0.02342563  0.94269767  0.30213810  1.0
  Ni  Ni1245  1  0.35675897  0.27603100  0.30213810  1.0
  Ni  Ni1246  1  0.35675897  0.60936433  0.30213810  1.0
  Ni  Ni1247  1  0.35675897  0.94269767  0.30213810  1.0
  Ni  Ni1248  1  0.69009230  0.27603100  0.30213810  1.0
  Ni  Ni1249  1  0.69009230  0.60936433  0.30213810  1.0
  Ni  Ni1250  1  0.69009230  0.94269767  0.30213810  1.0
  Ni  Ni1251  1  0.22342563  0.10936433  0.20213810  1.0
  Ni  Ni1252  1  0.22342563  0.44269767  0.20213810  1.0
  Ni  Ni1253  1  0.22342563  0.77603100  0.20213810  1.0
  Ni  Ni1254  1  0.55675897  0.10936433  0.20213810  1.0
  Ni  Ni1255  1  0.55675897  0.44269767  0.20213810  1.0
  Ni  Ni1256  1  0.55675897  0.77603100  0.20213810  1.0
  Ni  Ni1257  1  0.89009230  0.10936433  0.20213810  1.0
  Ni  Ni1258  1  0.89009230  0.44269767  0.20213810  1.0
  Ni  Ni1259  1  0.89009230  0.77603100  0.20213810  1.0
  Ni  Ni1260  1  0.11133310  0.05730233  0.29358570  1.0
  Ni  Ni1261  1  0.11133310  0.39063567  0.29358570  1.0
  Ni  Ni1262  1  0.11133310  0.72396900  0.29358570  1.0
  Ni  Ni1263  1  0.44466643  0.05730233  0.29358570  1.0
  Ni  Ni1264  1  0.44466643  0.39063567  0.29358570  1.0
  Ni  Ni1265  1  0.44466643  0.72396900  0.29358570  1.0
  Ni  Ni1266  1  0.77799977  0.05730233  0.29358570  1.0
  Ni  Ni1267  1  0.77799977  0.39063567  0.29358570  1.0
  Ni  Ni1268  1  0.77799977  0.72396900  0.29358570  1.0
  Ni  Ni1269  1  0.24466643  0.22396900  0.39358570  1.0
  Ni  Ni1270  1  0.24466643  0.55730233  0.39358570  1.0
  Ni  Ni1271  1  0.24466643  0.89063567  0.39358570  1.0
  Ni  Ni1272  1  0.57799977  0.22396900  0.39358570  1.0
  Ni  Ni1273  1  0.57799977  0.55730233  0.39358570  1.0
  Ni  Ni1274  1  0.57799977  0.89063567  0.39358570  1.0
  Ni  Ni1275  1  0.91133310  0.22396900  0.39358570  1.0
  Ni  Ni1276  1  0.91133310  0.55730233  0.39358570  1.0
  Ni  Ni1277  1  0.91133310  0.89063567  0.39358570  1.0
  Ni  Ni1278  1  0.02551050  0.03042083  0.24861200  1.0
  Ni  Ni1279  1  0.02551050  0.36375417  0.24861200  1.0
  Ni  Ni1280  1  0.02551050  0.69708750  0.24861200  1.0
  Ni  Ni1281  1  0.35884383  0.03042083  0.24861200  1.0
  Ni  Ni1282  1  0.35884383  0.36375417  0.24861200  1.0
  Ni  Ni1283  1  0.35884383  0.69708750  0.24861200  1.0
  Ni  Ni1284  1  0.69217717  0.03042083  0.24861200  1.0
  Ni  Ni1285  1  0.69217717  0.36375417  0.24861200  1.0
  Ni  Ni1286  1  0.69217717  0.69708750  0.24861200  1.0
  Ni  Ni1287  1  0.15884383  0.19708750  0.34861200  1.0
  Ni  Ni1288  1  0.15884383  0.53042083  0.34861200  1.0
  Ni  Ni1289  1  0.15884383  0.86375417  0.34861200  1.0
  Ni  Ni1290  1  0.49217717  0.19708750  0.34861200  1.0
  Ni  Ni1291  1  0.49217717  0.53042083  0.34861200  1.0
  Ni  Ni1292  1  0.49217717  0.86375417  0.34861200  1.0
  Ni  Ni1293  1  0.82551050  0.19708750  0.34861200  1.0
  Ni  Ni1294  1  0.82551050  0.53042083  0.34861200  1.0
  Ni  Ni1295  1  0.82551050  0.86375417  0.34861200  1.0
  Ni  Ni1296  1  0.10924823  0.30291250  0.34711180  1.0
  Ni  Ni1297  1  0.10924823  0.63624583  0.34711180  1.0
  Ni  Ni1298  1  0.10924823  0.96957917  0.34711180  1.0
  Ni  Ni1299  1  0.44258157  0.30291250  0.34711180  1.0
  Ni  Ni1300  1  0.44258157  0.63624583  0.34711180  1.0
  Ni  Ni1301  1  0.44258157  0.96957917  0.34711180  1.0
  Ni  Ni1302  1  0.77591490  0.30291250  0.34711180  1.0
  Ni  Ni1303  1  0.77591490  0.63624583  0.34711180  1.0
  Ni  Ni1304  1  0.77591490  0.96957917  0.34711180  1.0
  Ni  Ni1305  1  0.30924823  0.13624583  0.24711180  1.0
  Ni  Ni1306  1  0.30924823  0.46957917  0.24711180  1.0
  Ni  Ni1307  1  0.30924823  0.80291250  0.24711180  1.0
  Ni  Ni1308  1  0.64258157  0.13624583  0.24711180  1.0
  Ni  Ni1309  1  0.64258157  0.46957917  0.24711180  1.0
  Ni  Ni1310  1  0.64258157  0.80291250  0.24711180  1.0
  Ni  Ni1311  1  0.97591490  0.13624583  0.24711180  1.0
  Ni  Ni1312  1  0.97591490  0.46957917  0.24711180  1.0
  Ni  Ni1313  1  0.97591490  0.80291250  0.24711180  1.0
  Ni  Ni1314  1  0.01727477  0.24199983  0.37354420  1.0
  Ni  Ni1315  1  0.01727477  0.57533317  0.37354420  1.0
  Ni  Ni1316  1  0.01727477  0.90866650  0.37354420  1.0
  Ni  Ni1317  1  0.35060810  0.24199983  0.37354420  1.0
  Ni  Ni1318  1  0.35060810  0.57533317  0.37354420  1.0
  Ni  Ni1319  1  0.35060810  0.90866650  0.37354420  1.0
  Ni  Ni1320  1  0.68394143  0.24199983  0.37354420  1.0
  Ni  Ni1321  1  0.68394143  0.57533317  0.37354420  1.0
  Ni  Ni1322  1  0.68394143  0.90866650  0.37354420  1.0
  Ni  Ni1323  1  0.21727477  0.07533317  0.27354420  1.0
  Ni  Ni1324  1  0.21727477  0.40866650  0.27354420  1.0
  Ni  Ni1325  1  0.21727477  0.74199983  0.27354420  1.0
  Ni  Ni1326  1  0.55060810  0.07533317  0.27354420  1.0
  Ni  Ni1327  1  0.55060810  0.40866650  0.27354420  1.0
  Ni  Ni1328  1  0.55060810  0.74199983  0.27354420  1.0
  Ni  Ni1329  1  0.88394143  0.07533317  0.27354420  1.0
  Ni  Ni1330  1  0.88394143  0.40866650  0.27354420  1.0
  Ni  Ni1331  1  0.88394143  0.74199983  0.27354420  1.0
  Ni  Ni1332  1  0.11748397  0.09133350  0.22217960  1.0
  Ni  Ni1333  1  0.11748397  0.42466683  0.22217960  1.0
  Ni  Ni1334  1  0.11748397  0.75800017  0.22217960  1.0
  Ni  Ni1335  1  0.45081730  0.09133350  0.22217960  1.0
  Ni  Ni1336  1  0.45081730  0.42466683  0.22217960  1.0
  Ni  Ni1337  1  0.45081730  0.75800017  0.22217960  1.0
  Ni  Ni1338  1  0.78415063  0.09133350  0.22217960  1.0
  Ni  Ni1339  1  0.78415063  0.42466683  0.22217960  1.0
  Ni  Ni1340  1  0.78415063  0.75800017  0.22217960  1.0
  Ni  Ni1341  1  0.25081730  0.25800017  0.32217960  1.0
  Ni  Ni1342  1  0.25081730  0.59133350  0.32217960  1.0
  Ni  Ni1343  1  0.25081730  0.92466683  0.32217960  1.0
  Ni  Ni1344  1  0.58415063  0.25800017  0.32217960  1.0
  Ni  Ni1345  1  0.58415063  0.59133350  0.32217960  1.0
  Ni  Ni1346  1  0.58415063  0.92466683  0.32217960  1.0
  Ni  Ni1347  1  0.91748397  0.25800017  0.32217960  1.0
  Ni  Ni1348  1  0.91748397  0.59133350  0.32217960  1.0
  Ni  Ni1349  1  0.91748397  0.92466683  0.32217960  1.0
  Ni  Ni1350  1  0.25797270  0.00343550  0.38024640  1.0
  Ni  Ni1351  1  0.25797270  0.33676883  0.38024640  1.0
  Ni  Ni1352  1  0.25797270  0.67010217  0.38024640  1.0
  Ni  Ni1353  1  0.59130603  0.00343550  0.38024640  1.0
  Ni  Ni1354  1  0.59130603  0.33676883  0.38024640  1.0
  Ni  Ni1355  1  0.59130603  0.67010217  0.38024640  1.0
  Ni  Ni1356  1  0.92463937  0.00343550  0.38024640  1.0
  Ni  Ni1357  1  0.92463937  0.33676883  0.38024640  1.0
  Ni  Ni1358  1  0.92463937  0.67010217  0.38024640  1.0
  Ni  Ni1359  1  0.12463937  0.17010217  0.28024640  1.0
  Ni  Ni1360  1  0.12463937  0.50343550  0.28024640  1.0
  Ni  Ni1361  1  0.12463937  0.83676883  0.28024640  1.0
  Ni  Ni1362  1  0.45797270  0.17010217  0.28024640  1.0
  Ni  Ni1363  1  0.45797270  0.50343550  0.28024640  1.0
  Ni  Ni1364  1  0.45797270  0.83676883  0.28024640  1.0
  Ni  Ni1365  1  0.79130603  0.17010217  0.28024640  1.0
  Ni  Ni1366  1  0.79130603  0.50343550  0.28024640  1.0
  Ni  Ni1367  1  0.79130603  0.83676883  0.28024640  1.0
  Ni  Ni1368  1  0.21011937  0.32989783  0.21547740  1.0
  Ni  Ni1369  1  0.21011937  0.66323117  0.21547740  1.0
  Ni  Ni1370  1  0.21011937  0.99656450  0.21547740  1.0
  Ni  Ni1371  1  0.54345270  0.32989783  0.21547740  1.0
  Ni  Ni1372  1  0.54345270  0.66323117  0.21547740  1.0
  Ni  Ni1373  1  0.54345270  0.99656450  0.21547740  1.0
  Ni  Ni1374  1  0.87678603  0.32989783  0.21547740  1.0
  Ni  Ni1375  1  0.87678603  0.66323117  0.21547740  1.0
  Ni  Ni1376  1  0.87678603  0.99656450  0.21547740  1.0
  Ni  Ni1377  1  0.01011937  0.16323117  0.31547740  1.0
  Ni  Ni1378  1  0.01011937  0.49656450  0.31547740  1.0
  Ni  Ni1379  1  0.01011937  0.82989783  0.31547740  1.0
  Ni  Ni1380  1  0.34345270  0.16323117  0.31547740  1.0
  Ni  Ni1381  1  0.34345270  0.49656450  0.31547740  1.0
  Ni  Ni1382  1  0.34345270  0.82989783  0.31547740  1.0
  Ni  Ni1383  1  0.67678603  0.16323117  0.31547740  1.0
  Ni  Ni1384  1  0.67678603  0.49656450  0.31547740  1.0
  Ni  Ni1385  1  0.67678603  0.82989783  0.31547740  1.0
  Ni  Ni1386  1  0.20071270  0.00000000  0.39786190  1.0
  Ni  Ni1387  1  0.20071270  0.33333333  0.39786190  1.0
  Ni  Ni1388  1  0.20071270  0.66666667  0.39786190  1.0
  Ni  Ni1389  1  0.53404603  0.00000000  0.39786190  1.0
  Ni  Ni1390  1  0.53404603  0.33333333  0.39786190  1.0
  Ni  Ni1391  1  0.53404603  0.66666667  0.39786190  1.0
  Ni  Ni1392  1  0.86737937  0.00000000  0.39786190  1.0
  Ni  Ni1393  1  0.86737937  0.33333333  0.39786190  1.0
  Ni  Ni1394  1  0.86737937  0.66666667  0.39786190  1.0
  Ni  Ni1395  1  0.06737937  0.16666667  0.29786190  1.0
  Ni  Ni1396  1  0.06737937  0.50000000  0.29786190  1.0
  Ni  Ni1397  1  0.06737937  0.83333333  0.29786190  1.0
  Ni  Ni1398  1  0.40071270  0.16666667  0.29786190  1.0
  Ni  Ni1399  1  0.40071270  0.50000000  0.29786190  1.0
  Ni  Ni1400  1  0.40071270  0.83333333  0.29786190  1.0
  Ni  Ni1401  1  0.73404603  0.16666667  0.29786190  1.0
  Ni  Ni1402  1  0.73404603  0.50000000  0.29786190  1.0
  Ni  Ni1403  1  0.73404603  0.83333333  0.29786190  1.0
  Ni  Ni1404  1  0.14307030  0.28449383  0.27991860  1.0
  Ni  Ni1405  1  0.14307030  0.61782717  0.27991860  1.0
  Ni  Ni1406  1  0.14307030  0.95116050  0.27991860  1.0
  Ni  Ni1407  1  0.47640363  0.28449383  0.27991860  1.0
  Ni  Ni1408  1  0.47640363  0.61782717  0.27991860  1.0
  Ni  Ni1409  1  0.47640363  0.95116050  0.27991860  1.0
  Ni  Ni1410  1  0.80973697  0.28449383  0.27991860  1.0
  Ni  Ni1411  1  0.80973697  0.61782717  0.27991860  1.0
  Ni  Ni1412  1  0.80973697  0.95116050  0.27991860  1.0
  Ni  Ni1413  1  0.27640363  0.11782717  0.37991860  1.0
  Ni  Ni1414  1  0.27640363  0.45116050  0.37991860  1.0
  Ni  Ni1415  1  0.27640363  0.78449383  0.37991860  1.0
  Ni  Ni1416  1  0.60973697  0.11782717  0.37991860  1.0
  Ni  Ni1417  1  0.60973697  0.45116050  0.37991860  1.0
  Ni  Ni1418  1  0.60973697  0.78449383  0.37991860  1.0
  Ni  Ni1419  1  0.94307030  0.11782717  0.37991860  1.0
  Ni  Ni1420  1  0.94307030  0.45116050  0.37991860  1.0
  Ni  Ni1421  1  0.94307030  0.78449383  0.37991860  1.0
  Ni  Ni1422  1  0.32502177  0.04883950  0.31580520  1.0
  Ni  Ni1423  1  0.32502177  0.38217283  0.31580520  1.0
  Ni  Ni1424  1  0.32502177  0.71550617  0.31580520  1.0
  Ni  Ni1425  1  0.65835510  0.04883950  0.31580520  1.0
  Ni  Ni1426  1  0.65835510  0.38217283  0.31580520  1.0
  Ni  Ni1427  1  0.65835510  0.71550617  0.31580520  1.0
  Ni  Ni1428  1  0.99168843  0.04883950  0.31580520  1.0
  Ni  Ni1429  1  0.99168843  0.38217283  0.31580520  1.0
  Ni  Ni1430  1  0.99168843  0.71550617  0.31580520  1.0
  Ni  Ni1431  1  0.19168843  0.21550617  0.21580520  1.0
  Ni  Ni1432  1  0.19168843  0.54883950  0.21580520  1.0
  Ni  Ni1433  1  0.19168843  0.88217283  0.21580520  1.0
  Ni  Ni1434  1  0.52502177  0.21550617  0.21580520  1.0
  Ni  Ni1435  1  0.52502177  0.54883950  0.21580520  1.0
  Ni  Ni1436  1  0.52502177  0.88217283  0.21580520  1.0
  Ni  Ni1437  1  0.85835510  0.21550617  0.21580520  1.0
  Ni  Ni1438  1  0.85835510  0.54883950  0.21580520  1.0
  Ni  Ni1439  1  0.85835510  0.88217283  0.21580520  1.0
