# generated using pymatgen
data_In3Ni7
_symmetry_space_group_name_H-M   'P 1'
_cell_length_a   19.64121600
_cell_length_b   26.82457491
_cell_length_c   39.24508100
_cell_angle_alpha   106.83305604
_cell_angle_beta   96.98001918
_cell_angle_gamma   90.28802039
_symmetry_Int_Tables_number   1
_chemical_formula_structural   In3Ni7
_chemical_formula_sum   'In216 Ni504'
_cell_volume   19626.70638757
_cell_formula_units_Z   72
loop_
 _symmetry_equiv_pos_site_id
 _symmetry_equiv_pos_as_xyz
  1  'x, y, z'
loop_
 _atom_site_type_symbol
 _atom_site_label
 _atom_site_symmetry_multiplicity
 _atom_site_fract_x
 _atom_site_fract_y
 _atom_site_fract_z
 _atom_site_occupancy
  In  In0  1  0.10810400  0.27895600  0.09702425  1.0
  In  In1  1  0.10810400  0.61228933  0.09702425  1.0
  In  In2  1  0.10810400  0.94562267  0.09702425  1.0
  In  In3  1  0.44143733  0.27895600  0.09702425  1.0
  In  In4  1  0.44143733  0.61228933  0.09702425  1.0
  In  In5  1  0.44143733  0.94562267  0.09702425  1.0
  In  In6  1  0.77477067  0.27895600  0.09702425  1.0
  In  In7  1  0.77477067  0.61228933  0.09702425  1.0
  In  In8  1  0.77477067  0.94562267  0.09702425  1.0
  In  In9  1  0.22522933  0.05437733  0.14926625  1.0
  In  In10  1  0.22522933  0.38771067  0.14926625  1.0
  In  In11  1  0.22522933  0.72104400  0.14926625  1.0
  In  In12  1  0.55856267  0.05437733  0.14926625  1.0
  In  In13  1  0.55856267  0.38771067  0.14926625  1.0
  In  In14  1  0.55856267  0.72104400  0.14926625  1.0
  In  In15  1  0.89189600  0.05437733  0.14926625  1.0
  In  In16  1  0.89189600  0.38771067  0.14926625  1.0
  In  In17  1  0.89189600  0.72104400  0.14926625  1.0
  In  In18  1  0.02151433  0.23740900  0.00185475  1.0
  In  In19  1  0.02151433  0.57074233  0.00185475  1.0
  In  In20  1  0.02151433  0.90407567  0.00185475  1.0
  In  In21  1  0.35484767  0.23740900  0.00185475  1.0
  In  In22  1  0.35484767  0.57074233  0.00185475  1.0
  In  In23  1  0.35484767  0.90407567  0.00185475  1.0
  In  In24  1  0.68818100  0.23740900  0.00185475  1.0
  In  In25  1  0.68818100  0.57074233  0.00185475  1.0
  In  In26  1  0.68818100  0.90407567  0.00185475  1.0
  In  In27  1  0.31181900  0.09592433  0.24443575  1.0
  In  In28  1  0.31181900  0.42925767  0.24443575  1.0
  In  In29  1  0.31181900  0.76259100  0.24443575  1.0
  In  In30  1  0.64515233  0.09592433  0.24443575  1.0
  In  In31  1  0.64515233  0.42925767  0.24443575  1.0
  In  In32  1  0.64515233  0.76259100  0.24443575  1.0
  In  In33  1  0.97848567  0.09592433  0.24443575  1.0
  In  In34  1  0.97848567  0.42925767  0.24443575  1.0
  In  In35  1  0.97848567  0.76259100  0.24443575  1.0
  In  In36  1  0.26320400  0.17618200  0.13676000  1.0
  In  In37  1  0.26320400  0.50951533  0.13676000  1.0
  In  In38  1  0.26320400  0.84284867  0.13676000  1.0
  In  In39  1  0.59653733  0.17618200  0.13676000  1.0
  In  In40  1  0.59653733  0.50951533  0.13676000  1.0
  In  In41  1  0.59653733  0.84284867  0.13676000  1.0
  In  In42  1  0.92987067  0.17618200  0.13676000  1.0
  In  In43  1  0.92987067  0.50951533  0.13676000  1.0
  In  In44  1  0.92987067  0.84284867  0.13676000  1.0
  In  In45  1  0.07012933  0.15715133  0.10953050  1.0
  In  In46  1  0.07012933  0.49048467  0.10953050  1.0
  In  In47  1  0.07012933  0.82381800  0.10953050  1.0
  In  In48  1  0.40346267  0.15715133  0.10953050  1.0
  In  In49  1  0.40346267  0.49048467  0.10953050  1.0
  In  In50  1  0.40346267  0.82381800  0.10953050  1.0
  In  In51  1  0.73679600  0.15715133  0.10953050  1.0
  In  In52  1  0.73679600  0.49048467  0.10953050  1.0
  In  In53  1  0.73679600  0.82381800  0.10953050  1.0
  In  In54  1  0.15765433  0.12164533  0.02924800  1.0
  In  In55  1  0.15765433  0.45497867  0.02924800  1.0
  In  In56  1  0.15765433  0.78831200  0.02924800  1.0
  In  In57  1  0.49098767  0.12164533  0.02924800  1.0
  In  In58  1  0.49098767  0.45497867  0.02924800  1.0
  In  In59  1  0.49098767  0.78831200  0.02924800  1.0
  In  In60  1  0.82432100  0.12164533  0.02924800  1.0
  In  In61  1  0.82432100  0.45497867  0.02924800  1.0
  In  In62  1  0.82432100  0.78831200  0.02924800  1.0
  In  In63  1  0.17567900  0.21168800  0.21704250  1.0
  In  In64  1  0.17567900  0.54502133  0.21704250  1.0
  In  In65  1  0.17567900  0.87835467  0.21704250  1.0
  In  In66  1  0.50901233  0.21168800  0.21704250  1.0
  In  In67  1  0.50901233  0.54502133  0.21704250  1.0
  In  In68  1  0.50901233  0.87835467  0.21704250  1.0
  In  In69  1  0.84234567  0.21168800  0.21704250  1.0
  In  In70  1  0.84234567  0.54502133  0.21704250  1.0
  In  In71  1  0.84234567  0.87835467  0.21704250  1.0
  In  In72  1  0.20670133  0.33225800  0.21461025  1.0
  In  In73  1  0.20670133  0.66559133  0.21461025  1.0
  In  In74  1  0.20670133  0.99892467  0.21461025  1.0
  In  In75  1  0.54003467  0.33225800  0.21461025  1.0
  In  In76  1  0.54003467  0.66559133  0.21461025  1.0
  In  In77  1  0.54003467  0.99892467  0.21461025  1.0
  In  In78  1  0.87336800  0.33225800  0.21461025  1.0
  In  In79  1  0.87336800  0.66559133  0.21461025  1.0
  In  In80  1  0.87336800  0.99892467  0.21461025  1.0
  In  In81  1  0.12663200  0.00107533  0.03168025  1.0
  In  In82  1  0.12663200  0.33440867  0.03168025  1.0
  In  In83  1  0.12663200  0.66774200  0.03168025  1.0
  In  In84  1  0.45996533  0.00107533  0.03168025  1.0
  In  In85  1  0.45996533  0.33440867  0.03168025  1.0
  In  In86  1  0.45996533  0.66774200  0.03168025  1.0
  In  In87  1  0.79329867  0.00107533  0.03168025  1.0
  In  In88  1  0.79329867  0.33440867  0.03168025  1.0
  In  In89  1  0.79329867  0.66774200  0.03168025  1.0
  In  In90  1  0.28248133  0.24424933  0.07653525  1.0
  In  In91  1  0.28248133  0.57758267  0.07653525  1.0
  In  In92  1  0.28248133  0.91091600  0.07653525  1.0
  In  In93  1  0.61581467  0.24424933  0.07653525  1.0
  In  In94  1  0.61581467  0.57758267  0.07653525  1.0
  In  In95  1  0.61581467  0.91091600  0.07653525  1.0
  In  In96  1  0.94914800  0.24424933  0.07653525  1.0
  In  In97  1  0.94914800  0.57758267  0.07653525  1.0
  In  In98  1  0.94914800  0.91091600  0.07653525  1.0
  In  In99  1  0.05085200  0.08908400  0.16975525  1.0
  In  In100  1  0.05085200  0.42241733  0.16975525  1.0
  In  In101  1  0.05085200  0.75575067  0.16975525  1.0
  In  In102  1  0.38418533  0.08908400  0.16975525  1.0
  In  In103  1  0.38418533  0.42241733  0.16975525  1.0
  In  In104  1  0.38418533  0.75575067  0.16975525  1.0
  In  In105  1  0.71751867  0.08908400  0.16975525  1.0
  In  In106  1  0.71751867  0.42241733  0.16975525  1.0
  In  In107  1  0.71751867  0.75575067  0.16975525  1.0
  Ni  Ni108  1  0.28656400  0.25467767  0.19414300  1.0
  Ni  Ni109  1  0.28656400  0.58801100  0.19414300  1.0
  Ni  Ni110  1  0.28656400  0.92134433  0.19414300  1.0
  Ni  Ni111  1  0.61989733  0.25467767  0.19414300  1.0
  Ni  Ni112  1  0.61989733  0.58801100  0.19414300  1.0
  Ni  Ni113  1  0.61989733  0.92134433  0.19414300  1.0
  Ni  Ni114  1  0.95323067  0.25467767  0.19414300  1.0
  Ni  Ni115  1  0.95323067  0.58801100  0.19414300  1.0
  Ni  Ni116  1  0.95323067  0.92134433  0.19414300  1.0
  Ni  Ni117  1  0.04676933  0.07865567  0.05214750  1.0
  Ni  Ni118  1  0.04676933  0.41198900  0.05214750  1.0
  Ni  Ni119  1  0.04676933  0.74532233  0.05214750  1.0
  Ni  Ni120  1  0.38010267  0.07865567  0.05214750  1.0
  Ni  Ni121  1  0.38010267  0.41198900  0.05214750  1.0
  Ni  Ni122  1  0.38010267  0.74532233  0.05214750  1.0
  Ni  Ni123  1  0.71343600  0.07865567  0.05214750  1.0
  Ni  Ni124  1  0.71343600  0.41198900  0.05214750  1.0
  Ni  Ni125  1  0.71343600  0.74532233  0.05214750  1.0
  Ni  Ni126  1  0.00928567  0.32781567  0.06072800  1.0
  Ni  Ni127  1  0.00928567  0.66114900  0.06072800  1.0
  Ni  Ni128  1  0.00928567  0.99448233  0.06072800  1.0
  Ni  Ni129  1  0.34261900  0.32781567  0.06072800  1.0
  Ni  Ni130  1  0.34261900  0.66114900  0.06072800  1.0
  Ni  Ni131  1  0.34261900  0.99448233  0.06072800  1.0
  Ni  Ni132  1  0.67595233  0.32781567  0.06072800  1.0
  Ni  Ni133  1  0.67595233  0.66114900  0.06072800  1.0
  Ni  Ni134  1  0.67595233  0.99448233  0.06072800  1.0
  Ni  Ni135  1  0.32404767  0.00551767  0.18556250  1.0
  Ni  Ni136  1  0.32404767  0.33885100  0.18556250  1.0
  Ni  Ni137  1  0.32404767  0.67218433  0.18556250  1.0
  Ni  Ni138  1  0.65738100  0.00551767  0.18556250  1.0
  Ni  Ni139  1  0.65738100  0.33885100  0.18556250  1.0
  Ni  Ni140  1  0.65738100  0.67218433  0.18556250  1.0
  Ni  Ni141  1  0.99071433  0.00551767  0.18556250  1.0
  Ni  Ni142  1  0.99071433  0.33885100  0.18556250  1.0
  Ni  Ni143  1  0.99071433  0.67218433  0.18556250  1.0
  Ni  Ni144  1  0.25253133  0.18069633  0.01375600  1.0
  Ni  Ni145  1  0.25253133  0.51402967  0.01375600  1.0
  Ni  Ni146  1  0.25253133  0.84736300  0.01375600  1.0
  Ni  Ni147  1  0.58586467  0.18069633  0.01375600  1.0
  Ni  Ni148  1  0.58586467  0.51402967  0.01375600  1.0
  Ni  Ni149  1  0.58586467  0.84736300  0.01375600  1.0
  Ni  Ni150  1  0.91919800  0.18069633  0.01375600  1.0
  Ni  Ni151  1  0.91919800  0.51402967  0.01375600  1.0
  Ni  Ni152  1  0.91919800  0.84736300  0.01375600  1.0
  Ni  Ni153  1  0.08080200  0.15263700  0.23253450  1.0
  Ni  Ni154  1  0.08080200  0.48597033  0.23253450  1.0
  Ni  Ni155  1  0.08080200  0.81930367  0.23253450  1.0
  Ni  Ni156  1  0.41413533  0.15263700  0.23253450  1.0
  Ni  Ni157  1  0.41413533  0.48597033  0.23253450  1.0
  Ni  Ni158  1  0.41413533  0.81930367  0.23253450  1.0
  Ni  Ni159  1  0.74746867  0.15263700  0.23253450  1.0
  Ni  Ni160  1  0.74746867  0.48597033  0.23253450  1.0
  Ni  Ni161  1  0.74746867  0.81930367  0.23253450  1.0
  Ni  Ni162  1  0.17471467  0.19520267  0.08906075  1.0
  Ni  Ni163  1  0.17471467  0.52853600  0.08906075  1.0
  Ni  Ni164  1  0.17471467  0.86186933  0.08906075  1.0
  Ni  Ni165  1  0.50804800  0.19520267  0.08906075  1.0
  Ni  Ni166  1  0.50804800  0.52853600  0.08906075  1.0
  Ni  Ni167  1  0.50804800  0.86186933  0.08906075  1.0
  Ni  Ni168  1  0.84138133  0.19520267  0.08906075  1.0
  Ni  Ni169  1  0.84138133  0.52853600  0.08906075  1.0
  Ni  Ni170  1  0.84138133  0.86186933  0.08906075  1.0
  Ni  Ni171  1  0.15861867  0.13813067  0.15722975  1.0
  Ni  Ni172  1  0.15861867  0.47146400  0.15722975  1.0
  Ni  Ni173  1  0.15861867  0.80479733  0.15722975  1.0
  Ni  Ni174  1  0.49195200  0.13813067  0.15722975  1.0
  Ni  Ni175  1  0.49195200  0.47146400  0.15722975  1.0
  Ni  Ni176  1  0.49195200  0.80479733  0.15722975  1.0
  Ni  Ni177  1  0.82528533  0.13813067  0.15722975  1.0
  Ni  Ni178  1  0.82528533  0.47146400  0.15722975  1.0
  Ni  Ni179  1  0.82528533  0.80479733  0.15722975  1.0
  Ni  Ni180  1  0.14796200  0.23699867  0.15718350  1.0
  Ni  Ni181  1  0.14796200  0.57033200  0.15718350  1.0
  Ni  Ni182  1  0.14796200  0.90366533  0.15718350  1.0
  Ni  Ni183  1  0.48129533  0.23699867  0.15718350  1.0
  Ni  Ni184  1  0.48129533  0.57033200  0.15718350  1.0
  Ni  Ni185  1  0.48129533  0.90366533  0.15718350  1.0
  Ni  Ni186  1  0.81462867  0.23699867  0.15718350  1.0
  Ni  Ni187  1  0.81462867  0.57033200  0.15718350  1.0
  Ni  Ni188  1  0.81462867  0.90366533  0.15718350  1.0
  Ni  Ni189  1  0.18537133  0.09633467  0.08910700  1.0
  Ni  Ni190  1  0.18537133  0.42966800  0.08910700  1.0
  Ni  Ni191  1  0.18537133  0.76300133  0.08910700  1.0
  Ni  Ni192  1  0.51870467  0.09633467  0.08910700  1.0
  Ni  Ni193  1  0.51870467  0.42966800  0.08910700  1.0
  Ni  Ni194  1  0.51870467  0.76300133  0.08910700  1.0
  Ni  Ni195  1  0.85203800  0.09633467  0.08910700  1.0
  Ni  Ni196  1  0.85203800  0.42966800  0.08910700  1.0
  Ni  Ni197  1  0.85203800  0.76300133  0.08910700  1.0
  Ni  Ni198  1  0.28187900  0.14104367  0.06654950  1.0
  Ni  Ni199  1  0.28187900  0.47437700  0.06654950  1.0
  Ni  Ni200  1  0.28187900  0.80771033  0.06654950  1.0
  Ni  Ni201  1  0.61521233  0.14104367  0.06654950  1.0
  Ni  Ni202  1  0.61521233  0.47437700  0.06654950  1.0
  Ni  Ni203  1  0.61521233  0.80771033  0.06654950  1.0
  Ni  Ni204  1  0.94854567  0.14104367  0.06654950  1.0
  Ni  Ni205  1  0.94854567  0.47437700  0.06654950  1.0
  Ni  Ni206  1  0.94854567  0.80771033  0.06654950  1.0
  Ni  Ni207  1  0.05145433  0.19228967  0.17974100  1.0
  Ni  Ni208  1  0.05145433  0.52562300  0.17974100  1.0
  Ni  Ni209  1  0.05145433  0.85895633  0.17974100  1.0
  Ni  Ni210  1  0.38478767  0.19228967  0.17974100  1.0
  Ni  Ni211  1  0.38478767  0.52562300  0.17974100  1.0
  Ni  Ni212  1  0.38478767  0.85895633  0.17974100  1.0
  Ni  Ni213  1  0.71812100  0.19228967  0.17974100  1.0
  Ni  Ni214  1  0.71812100  0.52562300  0.17974100  1.0
  Ni  Ni215  1  0.71812100  0.85895633  0.17974100  1.0
  Ni  Ni216  1  0.22297967  0.00057167  0.08248725  1.0
  Ni  Ni217  1  0.22297967  0.33390500  0.08248725  1.0
  Ni  Ni218  1  0.22297967  0.66723833  0.08248725  1.0
  Ni  Ni219  1  0.55631300  0.00057167  0.08248725  1.0
  Ni  Ni220  1  0.55631300  0.33390500  0.08248725  1.0
  Ni  Ni221  1  0.55631300  0.66723833  0.08248725  1.0
  Ni  Ni222  1  0.88964633  0.00057167  0.08248725  1.0
  Ni  Ni223  1  0.88964633  0.33390500  0.08248725  1.0
  Ni  Ni224  1  0.88964633  0.66723833  0.08248725  1.0
  Ni  Ni225  1  0.11035367  0.33276167  0.16380325  1.0
  Ni  Ni226  1  0.11035367  0.66609500  0.16380325  1.0
  Ni  Ni227  1  0.11035367  0.99942833  0.16380325  1.0
  Ni  Ni228  1  0.44368700  0.33276167  0.16380325  1.0
  Ni  Ni229  1  0.44368700  0.66609500  0.16380325  1.0
  Ni  Ni230  1  0.44368700  0.99942833  0.16380325  1.0
  Ni  Ni231  1  0.77702033  0.33276167  0.16380325  1.0
  Ni  Ni232  1  0.77702033  0.66609500  0.16380325  1.0
  Ni  Ni233  1  0.77702033  0.99942833  0.16380325  1.0
  Ni  Ni234  1  0.24201067  0.28472700  0.01850125  1.0
  Ni  Ni235  1  0.24201067  0.61806033  0.01850125  1.0
  Ni  Ni236  1  0.24201067  0.95139367  0.01850125  1.0
  Ni  Ni237  1  0.57534400  0.28472700  0.01850125  1.0
  Ni  Ni238  1  0.57534400  0.61806033  0.01850125  1.0
  Ni  Ni239  1  0.57534400  0.95139367  0.01850125  1.0
  Ni  Ni240  1  0.90867733  0.28472700  0.01850125  1.0
  Ni  Ni241  1  0.90867733  0.61806033  0.01850125  1.0
  Ni  Ni242  1  0.90867733  0.95139367  0.01850125  1.0
  Ni  Ni243  1  0.09132267  0.04860633  0.22778925  1.0
  Ni  Ni244  1  0.09132267  0.38193967  0.22778925  1.0
  Ni  Ni245  1  0.09132267  0.71527300  0.22778925  1.0
  Ni  Ni246  1  0.42465600  0.04860633  0.22778925  1.0
  Ni  Ni247  1  0.42465600  0.38193967  0.22778925  1.0
  Ni  Ni248  1  0.42465600  0.71527300  0.22778925  1.0
  Ni  Ni249  1  0.75798933  0.04860633  0.22778925  1.0
  Ni  Ni250  1  0.75798933  0.38193967  0.22778925  1.0
  Ni  Ni251  1  0.75798933  0.71527300  0.22778925  1.0
  Ni  Ni252  1  0.00000000  0.00000000  0.12314525  1.0
  Ni  Ni253  1  0.00000000  0.33333333  0.12314525  1.0
  Ni  Ni254  1  0.00000000  0.66666667  0.12314525  1.0
  Ni  Ni255  1  0.33333333  0.00000000  0.12314525  1.0
  Ni  Ni256  1  0.33333333  0.33333333  0.12314525  1.0
  Ni  Ni257  1  0.33333333  0.66666667  0.12314525  1.0
  Ni  Ni258  1  0.66666667  0.00000000  0.12314525  1.0
  Ni  Ni259  1  0.66666667  0.33333333  0.12314525  1.0
  Ni  Ni260  1  0.66666667  0.66666667  0.12314525  1.0
  Ni  Ni261  1  0.04965533  0.18144067  0.04827225  1.0
  Ni  Ni262  1  0.04965533  0.51477400  0.04827225  1.0
  Ni  Ni263  1  0.04965533  0.84810733  0.04827225  1.0
  Ni  Ni264  1  0.38298867  0.18144067  0.04827225  1.0
  Ni  Ni265  1  0.38298867  0.51477400  0.04827225  1.0
  Ni  Ni266  1  0.38298867  0.84810733  0.04827225  1.0
  Ni  Ni267  1  0.71632200  0.18144067  0.04827225  1.0
  Ni  Ni268  1  0.71632200  0.51477400  0.04827225  1.0
  Ni  Ni269  1  0.71632200  0.84810733  0.04827225  1.0
  Ni  Ni270  1  0.28367800  0.15189267  0.19801825  1.0
  Ni  Ni271  1  0.28367800  0.48522600  0.19801825  1.0
  Ni  Ni272  1  0.28367800  0.81855933  0.19801825  1.0
  Ni  Ni273  1  0.61701133  0.15189267  0.19801825  1.0
  Ni  Ni274  1  0.61701133  0.48522600  0.19801825  1.0
  Ni  Ni275  1  0.61701133  0.81855933  0.19801825  1.0
  Ni  Ni276  1  0.95034467  0.15189267  0.19801825  1.0
  Ni  Ni277  1  0.95034467  0.48522600  0.19801825  1.0
  Ni  Ni278  1  0.95034467  0.81855933  0.19801825  1.0
  Ni  Ni279  1  0.30953567  0.07796033  0.10224675  1.0
  Ni  Ni280  1  0.30953567  0.41129367  0.10224675  1.0
  Ni  Ni281  1  0.30953567  0.74462700  0.10224675  1.0
  Ni  Ni282  1  0.64286900  0.07796033  0.10224675  1.0
  Ni  Ni283  1  0.64286900  0.41129367  0.10224675  1.0
  Ni  Ni284  1  0.64286900  0.74462700  0.10224675  1.0
  Ni  Ni285  1  0.97620233  0.07796033  0.10224675  1.0
  Ni  Ni286  1  0.97620233  0.41129367  0.10224675  1.0
  Ni  Ni287  1  0.97620233  0.74462700  0.10224675  1.0
  Ni  Ni288  1  0.02379767  0.25537300  0.14404375  1.0
  Ni  Ni289  1  0.02379767  0.58870633  0.14404375  1.0
  Ni  Ni290  1  0.02379767  0.92203967  0.14404375  1.0
  Ni  Ni291  1  0.35713100  0.25537300  0.14404375  1.0
  Ni  Ni292  1  0.35713100  0.58870633  0.14404375  1.0
  Ni  Ni293  1  0.35713100  0.92203967  0.14404375  1.0
  Ni  Ni294  1  0.69046433  0.25537300  0.14404375  1.0
  Ni  Ni295  1  0.69046433  0.58870633  0.14404375  1.0
  Ni  Ni296  1  0.69046433  0.92203967  0.14404375  1.0
  Ni  Ni297  1  0.15101433  0.23312300  0.03598725  1.0
  Ni  Ni298  1  0.15101433  0.56645633  0.03598725  1.0
  Ni  Ni299  1  0.15101433  0.89978967  0.03598725  1.0
  Ni  Ni300  1  0.48434767  0.23312300  0.03598725  1.0
  Ni  Ni301  1  0.48434767  0.56645633  0.03598725  1.0
  Ni  Ni302  1  0.48434767  0.89978967  0.03598725  1.0
  Ni  Ni303  1  0.81768100  0.23312300  0.03598725  1.0
  Ni  Ni304  1  0.81768100  0.56645633  0.03598725  1.0
  Ni  Ni305  1  0.81768100  0.89978967  0.03598725  1.0
  Ni  Ni306  1  0.18231900  0.10021033  0.21030325  1.0
  Ni  Ni307  1  0.18231900  0.43354367  0.21030325  1.0
  Ni  Ni308  1  0.18231900  0.76687700  0.21030325  1.0
  Ni  Ni309  1  0.51565233  0.10021033  0.21030325  1.0
  Ni  Ni310  1  0.51565233  0.43354367  0.21030325  1.0
  Ni  Ni311  1  0.51565233  0.76687700  0.21030325  1.0
  Ni  Ni312  1  0.84898567  0.10021033  0.21030325  1.0
  Ni  Ni313  1  0.84898567  0.43354367  0.21030325  1.0
  Ni  Ni314  1  0.84898567  0.76687700  0.21030325  1.0
  Ni  Ni315  1  0.25258600  0.04795267  0.03926300  1.0
  Ni  Ni316  1  0.25258600  0.38128600  0.03926300  1.0
  Ni  Ni317  1  0.25258600  0.71461933  0.03926300  1.0
  Ni  Ni318  1  0.58591933  0.04795267  0.03926300  1.0
  Ni  Ni319  1  0.58591933  0.38128600  0.03926300  1.0
  Ni  Ni320  1  0.58591933  0.71461933  0.03926300  1.0
  Ni  Ni321  1  0.91925267  0.04795267  0.03926300  1.0
  Ni  Ni322  1  0.91925267  0.38128600  0.03926300  1.0
  Ni  Ni323  1  0.91925267  0.71461933  0.03926300  1.0
  Ni  Ni324  1  0.08074733  0.28538067  0.20702750  1.0
  Ni  Ni325  1  0.08074733  0.61871400  0.20702750  1.0
  Ni  Ni326  1  0.08074733  0.95204733  0.20702750  1.0
  Ni  Ni327  1  0.41408067  0.28538067  0.20702750  1.0
  Ni  Ni328  1  0.41408067  0.61871400  0.20702750  1.0
  Ni  Ni329  1  0.41408067  0.95204733  0.20702750  1.0
  Ni  Ni330  1  0.74741400  0.28538067  0.20702750  1.0
  Ni  Ni331  1  0.74741400  0.61871400  0.20702750  1.0
  Ni  Ni332  1  0.74741400  0.95204733  0.20702750  1.0
  Ni  Ni333  1  0.00000000  0.00000000  0.24814525  1.0
  Ni  Ni334  1  0.00000000  0.33333333  0.24814525  1.0
  Ni  Ni335  1  0.00000000  0.66666667  0.24814525  1.0
  Ni  Ni336  1  0.33333333  0.00000000  0.24814525  1.0
  Ni  Ni337  1  0.33333333  0.33333333  0.24814525  1.0
  Ni  Ni338  1  0.33333333  0.66666667  0.24814525  1.0
  Ni  Ni339  1  0.66666667  0.00000000  0.24814525  1.0
  Ni  Ni340  1  0.66666667  0.33333333  0.24814525  1.0
  Ni  Ni341  1  0.66666667  0.66666667  0.24814525  1.0
  Ni  Ni342  1  0.23371800  0.28521600  0.13879800  1.0
  Ni  Ni343  1  0.23371800  0.61854933  0.13879800  1.0
  Ni  Ni344  1  0.23371800  0.95188267  0.13879800  1.0
  Ni  Ni345  1  0.56705133  0.28521600  0.13879800  1.0
  Ni  Ni346  1  0.56705133  0.61854933  0.13879800  1.0
  Ni  Ni347  1  0.56705133  0.95188267  0.13879800  1.0
  Ni  Ni348  1  0.90038467  0.28521600  0.13879800  1.0
  Ni  Ni349  1  0.90038467  0.61854933  0.13879800  1.0
  Ni  Ni350  1  0.90038467  0.95188267  0.13879800  1.0
  Ni  Ni351  1  0.09961533  0.04811733  0.10749250  1.0
  Ni  Ni352  1  0.09961533  0.38145067  0.10749250  1.0
  Ni  Ni353  1  0.09961533  0.71478400  0.10749250  1.0
  Ni  Ni354  1  0.43294867  0.04811733  0.10749250  1.0
  Ni  Ni355  1  0.43294867  0.38145067  0.10749250  1.0
  Ni  Ni356  1  0.43294867  0.71478400  0.10749250  1.0
  Ni  Ni357  1  0.76628200  0.04811733  0.10749250  1.0
  Ni  Ni358  1  0.76628200  0.38145067  0.10749250  1.0
  Ni  Ni359  1  0.76628200  0.71478400  0.10749250  1.0
  In  In360  1  0.10810400  0.27895600  0.34702425  1.0
  In  In361  1  0.10810400  0.61228933  0.34702425  1.0
  In  In362  1  0.10810400  0.94562267  0.34702425  1.0
  In  In363  1  0.44143733  0.27895600  0.34702425  1.0
  In  In364  1  0.44143733  0.61228933  0.34702425  1.0
  In  In365  1  0.44143733  0.94562267  0.34702425  1.0
  In  In366  1  0.77477067  0.27895600  0.34702425  1.0
  In  In367  1  0.77477067  0.61228933  0.34702425  1.0
  In  In368  1  0.77477067  0.94562267  0.34702425  1.0
  In  In369  1  0.22522933  0.05437733  0.39926625  1.0
  In  In370  1  0.22522933  0.38771067  0.39926625  1.0
  In  In371  1  0.22522933  0.72104400  0.39926625  1.0
  In  In372  1  0.55856267  0.05437733  0.39926625  1.0
  In  In373  1  0.55856267  0.38771067  0.39926625  1.0
  In  In374  1  0.55856267  0.72104400  0.39926625  1.0
  In  In375  1  0.89189600  0.05437733  0.39926625  1.0
  In  In376  1  0.89189600  0.38771067  0.39926625  1.0
  In  In377  1  0.89189600  0.72104400  0.39926625  1.0
  In  In378  1  0.02151433  0.23740900  0.25185475  1.0
  In  In379  1  0.02151433  0.57074233  0.25185475  1.0
  In  In380  1  0.02151433  0.90407567  0.25185475  1.0
  In  In381  1  0.35484767  0.23740900  0.25185475  1.0
  In  In382  1  0.35484767  0.57074233  0.25185475  1.0
  In  In383  1  0.35484767  0.90407567  0.25185475  1.0
  In  In384  1  0.68818100  0.23740900  0.25185475  1.0
  In  In385  1  0.68818100  0.57074233  0.25185475  1.0
  In  In386  1  0.68818100  0.90407567  0.25185475  1.0
  In  In387  1  0.31181900  0.09592433  0.49443575  1.0
  In  In388  1  0.31181900  0.42925767  0.49443575  1.0
  In  In389  1  0.31181900  0.76259100  0.49443575  1.0
  In  In390  1  0.64515233  0.09592433  0.49443575  1.0
  In  In391  1  0.64515233  0.42925767  0.49443575  1.0
  In  In392  1  0.64515233  0.76259100  0.49443575  1.0
  In  In393  1  0.97848567  0.09592433  0.49443575  1.0
  In  In394  1  0.97848567  0.42925767  0.49443575  1.0
  In  In395  1  0.97848567  0.76259100  0.49443575  1.0
  In  In396  1  0.26320400  0.17618200  0.38676000  1.0
  In  In397  1  0.26320400  0.50951533  0.38676000  1.0
  In  In398  1  0.26320400  0.84284867  0.38676000  1.0
  In  In399  1  0.59653733  0.17618200  0.38676000  1.0
  In  In400  1  0.59653733  0.50951533  0.38676000  1.0
  In  In401  1  0.59653733  0.84284867  0.38676000  1.0
  In  In402  1  0.92987067  0.17618200  0.38676000  1.0
  In  In403  1  0.92987067  0.50951533  0.38676000  1.0
  In  In404  1  0.92987067  0.84284867  0.38676000  1.0
  In  In405  1  0.07012933  0.15715133  0.35953050  1.0
  In  In406  1  0.07012933  0.49048467  0.35953050  1.0
  In  In407  1  0.07012933  0.82381800  0.35953050  1.0
  In  In408  1  0.40346267  0.15715133  0.35953050  1.0
  In  In409  1  0.40346267  0.49048467  0.35953050  1.0
  In  In410  1  0.40346267  0.82381800  0.35953050  1.0
  In  In411  1  0.73679600  0.15715133  0.35953050  1.0
  In  In412  1  0.73679600  0.49048467  0.35953050  1.0
  In  In413  1  0.73679600  0.82381800  0.35953050  1.0
  In  In414  1  0.15765433  0.12164533  0.27924800  1.0
  In  In415  1  0.15765433  0.45497867  0.27924800  1.0
  In  In416  1  0.15765433  0.78831200  0.27924800  1.0
  In  In417  1  0.49098767  0.12164533  0.27924800  1.0
  In  In418  1  0.49098767  0.45497867  0.27924800  1.0
  In  In419  1  0.49098767  0.78831200  0.27924800  1.0
  In  In420  1  0.82432100  0.12164533  0.27924800  1.0
  In  In421  1  0.82432100  0.45497867  0.27924800  1.0
  In  In422  1  0.82432100  0.78831200  0.27924800  1.0
  In  In423  1  0.17567900  0.21168800  0.46704250  1.0
  In  In424  1  0.17567900  0.54502133  0.46704250  1.0
  In  In425  1  0.17567900  0.87835467  0.46704250  1.0
  In  In426  1  0.50901233  0.21168800  0.46704250  1.0
  In  In427  1  0.50901233  0.54502133  0.46704250  1.0
  In  In428  1  0.50901233  0.87835467  0.46704250  1.0
  In  In429  1  0.84234567  0.21168800  0.46704250  1.0
  In  In430  1  0.84234567  0.54502133  0.46704250  1.0
  In  In431  1  0.84234567  0.87835467  0.46704250  1.0
  In  In432  1  0.20670133  0.33225800  0.46461025  1.0
  In  In433  1  0.20670133  0.66559133  0.46461025  1.0
  In  In434  1  0.20670133  0.99892467  0.46461025  1.0
  In  In435  1  0.54003467  0.33225800  0.46461025  1.0
  In  In436  1  0.54003467  0.66559133  0.46461025  1.0
  In  In437  1  0.54003467  0.99892467  0.46461025  1.0
  In  In438  1  0.87336800  0.33225800  0.46461025  1.0
  In  In439  1  0.87336800  0.66559133  0.46461025  1.0
  In  In440  1  0.87336800  0.99892467  0.46461025  1.0
  In  In441  1  0.12663200  0.00107533  0.28168025  1.0
  In  In442  1  0.12663200  0.33440867  0.28168025  1.0
  In  In443  1  0.12663200  0.66774200  0.28168025  1.0
  In  In444  1  0.45996533  0.00107533  0.28168025  1.0
  In  In445  1  0.45996533  0.33440867  0.28168025  1.0
  In  In446  1  0.45996533  0.66774200  0.28168025  1.0
  In  In447  1  0.79329867  0.00107533  0.28168025  1.0
  In  In448  1  0.79329867  0.33440867  0.28168025  1.0
  In  In449  1  0.79329867  0.66774200  0.28168025  1.0
  In  In450  1  0.28248133  0.24424933  0.32653525  1.0
  In  In451  1  0.28248133  0.57758267  0.32653525  1.0
  In  In452  1  0.28248133  0.91091600  0.32653525  1.0
  In  In453  1  0.61581467  0.24424933  0.32653525  1.0
  In  In454  1  0.61581467  0.57758267  0.32653525  1.0
  In  In455  1  0.61581467  0.91091600  0.32653525  1.0
  In  In456  1  0.94914800  0.24424933  0.32653525  1.0
  In  In457  1  0.94914800  0.57758267  0.32653525  1.0
  In  In458  1  0.94914800  0.91091600  0.32653525  1.0
  In  In459  1  0.05085200  0.08908400  0.41975525  1.0
  In  In460  1  0.05085200  0.42241733  0.41975525  1.0
  In  In461  1  0.05085200  0.75575067  0.41975525  1.0
  In  In462  1  0.38418533  0.08908400  0.41975525  1.0
  In  In463  1  0.38418533  0.42241733  0.41975525  1.0
  In  In464  1  0.38418533  0.75575067  0.41975525  1.0
  In  In465  1  0.71751867  0.08908400  0.41975525  1.0
  In  In466  1  0.71751867  0.42241733  0.41975525  1.0
  In  In467  1  0.71751867  0.75575067  0.41975525  1.0
  Ni  Ni468  1  0.28656400  0.25467767  0.44414300  1.0
  Ni  Ni469  1  0.28656400  0.58801100  0.44414300  1.0
  Ni  Ni470  1  0.28656400  0.92134433  0.44414300  1.0
  Ni  Ni471  1  0.61989733  0.25467767  0.44414300  1.0
  Ni  Ni472  1  0.61989733  0.58801100  0.44414300  1.0
  Ni  Ni473  1  0.61989733  0.92134433  0.44414300  1.0
  Ni  Ni474  1  0.95323067  0.25467767  0.44414300  1.0
  Ni  Ni475  1  0.95323067  0.58801100  0.44414300  1.0
  Ni  Ni476  1  0.95323067  0.92134433  0.44414300  1.0
  Ni  Ni477  1  0.04676933  0.07865567  0.30214750  1.0
  Ni  Ni478  1  0.04676933  0.41198900  0.30214750  1.0
  Ni  Ni479  1  0.04676933  0.74532233  0.30214750  1.0
  Ni  Ni480  1  0.38010267  0.07865567  0.30214750  1.0
  Ni  Ni481  1  0.38010267  0.41198900  0.30214750  1.0
  Ni  Ni482  1  0.38010267  0.74532233  0.30214750  1.0
  Ni  Ni483  1  0.71343600  0.07865567  0.30214750  1.0
  Ni  Ni484  1  0.71343600  0.41198900  0.30214750  1.0
  Ni  Ni485  1  0.71343600  0.74532233  0.30214750  1.0
  Ni  Ni486  1  0.00928567  0.32781567  0.31072800  1.0
  Ni  Ni487  1  0.00928567  0.66114900  0.31072800  1.0
  Ni  Ni488  1  0.00928567  0.99448233  0.31072800  1.0
  Ni  Ni489  1  0.34261900  0.32781567  0.31072800  1.0
  Ni  Ni490  1  0.34261900  0.66114900  0.31072800  1.0
  Ni  Ni491  1  0.34261900  0.99448233  0.31072800  1.0
  Ni  Ni492  1  0.67595233  0.32781567  0.31072800  1.0
  Ni  Ni493  1  0.67595233  0.66114900  0.31072800  1.0
  Ni  Ni494  1  0.67595233  0.99448233  0.31072800  1.0
  Ni  Ni495  1  0.32404767  0.00551767  0.43556250  1.0
  Ni  Ni496  1  0.32404767  0.33885100  0.43556250  1.0
  Ni  Ni497  1  0.32404767  0.67218433  0.43556250  1.0
  Ni  Ni498  1  0.65738100  0.00551767  0.43556250  1.0
  Ni  Ni499  1  0.65738100  0.33885100  0.43556250  1.0
  Ni  Ni500  1  0.65738100  0.67218433  0.43556250  1.0
  Ni  Ni501  1  0.99071433  0.00551767  0.43556250  1.0
  Ni  Ni502  1  0.99071433  0.33885100  0.43556250  1.0
  Ni  Ni503  1  0.99071433  0.67218433  0.43556250  1.0
  Ni  Ni504  1  0.25253133  0.18069633  0.26375600  1.0
  Ni  Ni505  1  0.25253133  0.51402967  0.26375600  1.0
  Ni  Ni506  1  0.25253133  0.84736300  0.26375600  1.0
  Ni  Ni507  1  0.58586467  0.18069633  0.26375600  1.0
  Ni  Ni508  1  0.58586467  0.51402967  0.26375600  1.0
  Ni  Ni509  1  0.58586467  0.84736300  0.26375600  1.0
  Ni  Ni510  1  0.91919800  0.18069633  0.26375600  1.0
  Ni  Ni511  1  0.91919800  0.51402967  0.26375600  1.0
  Ni  Ni512  1  0.91919800  0.84736300  0.26375600  1.0
  Ni  Ni513  1  0.08080200  0.15263700  0.48253450  1.0
  Ni  Ni514  1  0.08080200  0.48597033  0.48253450  1.0
  Ni  Ni515  1  0.08080200  0.81930367  0.48253450  1.0
  Ni  Ni516  1  0.41413533  0.15263700  0.48253450  1.0
  Ni  Ni517  1  0.41413533  0.48597033  0.48253450  1.0
  Ni  Ni518  1  0.41413533  0.81930367  0.48253450  1.0
  Ni  Ni519  1  0.74746867  0.15263700  0.48253450  1.0
  Ni  Ni520  1  0.74746867  0.48597033  0.48253450  1.0
  Ni  Ni521  1  0.74746867  0.81930367  0.48253450  1.0
  Ni  Ni522  1  0.17471467  0.19520267  0.33906075  1.0
  Ni  Ni523  1  0.17471467  0.52853600  0.33906075  1.0
  Ni  Ni524  1  0.17471467  0.86186933  0.33906075  1.0
  Ni  Ni525  1  0.50804800  0.19520267  0.33906075  1.0
  Ni  Ni526  1  0.50804800  0.52853600  0.33906075  1.0
  Ni  Ni527  1  0.50804800  0.86186933  0.33906075  1.0
  Ni  Ni528  1  0.84138133  0.19520267  0.33906075  1.0
  Ni  Ni529  1  0.84138133  0.52853600  0.33906075  1.0
  Ni  Ni530  1  0.84138133  0.86186933  0.33906075  1.0
  Ni  Ni531  1  0.15861867  0.13813067  0.40722975  1.0
  Ni  Ni532  1  0.15861867  0.47146400  0.40722975  1.0
  Ni  Ni533  1  0.15861867  0.80479733  0.40722975  1.0
  Ni  Ni534  1  0.49195200  0.13813067  0.40722975  1.0
  Ni  Ni535  1  0.49195200  0.47146400  0.40722975  1.0
  Ni  Ni536  1  0.49195200  0.80479733  0.40722975  1.0
  Ni  Ni537  1  0.82528533  0.13813067  0.40722975  1.0
  Ni  Ni538  1  0.82528533  0.47146400  0.40722975  1.0
  Ni  Ni539  1  0.82528533  0.80479733  0.40722975  1.0
  Ni  Ni540  1  0.14796200  0.23699867  0.40718350  1.0
  Ni  Ni541  1  0.14796200  0.57033200  0.40718350  1.0
  Ni  Ni542  1  0.14796200  0.90366533  0.40718350  1.0
  Ni  Ni543  1  0.48129533  0.23699867  0.40718350  1.0
  Ni  Ni544  1  0.48129533  0.57033200  0.40718350  1.0
  Ni  Ni545  1  0.48129533  0.90366533  0.40718350  1.0
  Ni  Ni546  1  0.81462867  0.23699867  0.40718350  1.0
  Ni  Ni547  1  0.81462867  0.57033200  0.40718350  1.0
  Ni  Ni548  1  0.81462867  0.90366533  0.40718350  1.0
  Ni  Ni549  1  0.18537133  0.09633467  0.33910700  1.0
  Ni  Ni550  1  0.18537133  0.42966800  0.33910700  1.0
  Ni  Ni551  1  0.18537133  0.76300133  0.33910700  1.0
  Ni  Ni552  1  0.51870467  0.09633467  0.33910700  1.0
  Ni  Ni553  1  0.51870467  0.42966800  0.33910700  1.0
  Ni  Ni554  1  0.51870467  0.76300133  0.33910700  1.0
  Ni  Ni555  1  0.85203800  0.09633467  0.33910700  1.0
  Ni  Ni556  1  0.85203800  0.42966800  0.33910700  1.0
  Ni  Ni557  1  0.85203800  0.76300133  0.33910700  1.0
  Ni  Ni558  1  0.28187900  0.14104367  0.31654950  1.0
  Ni  Ni559  1  0.28187900  0.47437700  0.31654950  1.0
  Ni  Ni560  1  0.28187900  0.80771033  0.31654950  1.0
  Ni  Ni561  1  0.61521233  0.14104367  0.31654950  1.0
  Ni  Ni562  1  0.61521233  0.47437700  0.31654950  1.0
  Ni  Ni563  1  0.61521233  0.80771033  0.31654950  1.0
  Ni  Ni564  1  0.94854567  0.14104367  0.31654950  1.0
  Ni  Ni565  1  0.94854567  0.47437700  0.31654950  1.0
  Ni  Ni566  1  0.94854567  0.80771033  0.31654950  1.0
  Ni  Ni567  1  0.05145433  0.19228967  0.42974100  1.0
  Ni  Ni568  1  0.05145433  0.52562300  0.42974100  1.0
  Ni  Ni569  1  0.05145433  0.85895633  0.42974100  1.0
  Ni  Ni570  1  0.38478767  0.19228967  0.42974100  1.0
  Ni  Ni571  1  0.38478767  0.52562300  0.42974100  1.0
  Ni  Ni572  1  0.38478767  0.85895633  0.42974100  1.0
  Ni  Ni573  1  0.71812100  0.19228967  0.42974100  1.0
  Ni  Ni574  1  0.71812100  0.52562300  0.42974100  1.0
  Ni  Ni575  1  0.71812100  0.85895633  0.42974100  1.0
  Ni  Ni576  1  0.22297967  0.00057167  0.33248725  1.0
  Ni  Ni577  1  0.22297967  0.33390500  0.33248725  1.0
  Ni  Ni578  1  0.22297967  0.66723833  0.33248725  1.0
  Ni  Ni579  1  0.55631300  0.00057167  0.33248725  1.0
  Ni  Ni580  1  0.55631300  0.33390500  0.33248725  1.0
  Ni  Ni581  1  0.55631300  0.66723833  0.33248725  1.0
  Ni  Ni582  1  0.88964633  0.00057167  0.33248725  1.0
  Ni  Ni583  1  0.88964633  0.33390500  0.33248725  1.0
  Ni  Ni584  1  0.88964633  0.66723833  0.33248725  1.0
  Ni  Ni585  1  0.11035367  0.33276167  0.41380325  1.0
  Ni  Ni586  1  0.11035367  0.66609500  0.41380325  1.0
  Ni  Ni587  1  0.11035367  0.99942833  0.41380325  1.0
  Ni  Ni588  1  0.44368700  0.33276167  0.41380325  1.0
  Ni  Ni589  1  0.44368700  0.66609500  0.41380325  1.0
  Ni  Ni590  1  0.44368700  0.99942833  0.41380325  1.0
  Ni  Ni591  1  0.77702033  0.33276167  0.41380325  1.0
  Ni  Ni592  1  0.77702033  0.66609500  0.41380325  1.0
  Ni  Ni593  1  0.77702033  0.99942833  0.41380325  1.0
  Ni  Ni594  1  0.24201067  0.28472700  0.26850125  1.0
  Ni  Ni595  1  0.24201067  0.61806033  0.26850125  1.0
  Ni  Ni596  1  0.24201067  0.95139367  0.26850125  1.0
  Ni  Ni597  1  0.57534400  0.28472700  0.26850125  1.0
  Ni  Ni598  1  0.57534400  0.61806033  0.26850125  1.0
  Ni  Ni599  1  0.57534400  0.95139367  0.26850125  1.0
  Ni  Ni600  1  0.90867733  0.28472700  0.26850125  1.0
  Ni  Ni601  1  0.90867733  0.61806033  0.26850125  1.0
  Ni  Ni602  1  0.90867733  0.95139367  0.26850125  1.0
  Ni  Ni603  1  0.09132267  0.04860633  0.47778925  1.0
  Ni  Ni604  1  0.09132267  0.38193967  0.47778925  1.0
  Ni  Ni605  1  0.09132267  0.71527300  0.47778925  1.0
  Ni  Ni606  1  0.42465600  0.04860633  0.47778925  1.0
  Ni  Ni607  1  0.42465600  0.38193967  0.47778925  1.0
  Ni  Ni608  1  0.42465600  0.71527300  0.47778925  1.0
  Ni  Ni609  1  0.75798933  0.04860633  0.47778925  1.0
  Ni  Ni610  1  0.75798933  0.38193967  0.47778925  1.0
  Ni  Ni611  1  0.75798933  0.71527300  0.47778925  1.0
  Ni  Ni612  1  0.00000000  0.00000000  0.37314525  1.0
  Ni  Ni613  1  0.00000000  0.33333333  0.37314525  1.0
  Ni  Ni614  1  0.00000000  0.66666667  0.37314525  1.0
  Ni  Ni615  1  0.33333333  0.00000000  0.37314525  1.0
  Ni  Ni616  1  0.33333333  0.33333333  0.37314525  1.0
  Ni  Ni617  1  0.33333333  0.66666667  0.37314525  1.0
  Ni  Ni618  1  0.66666667  0.00000000  0.37314525  1.0
  Ni  Ni619  1  0.66666667  0.33333333  0.37314525  1.0
  Ni  Ni620  1  0.66666667  0.66666667  0.37314525  1.0
  Ni  Ni621  1  0.04965533  0.18144067  0.29827225  1.0
  Ni  Ni622  1  0.04965533  0.51477400  0.29827225  1.0
  Ni  Ni623  1  0.04965533  0.84810733  0.29827225  1.0
  Ni  Ni624  1  0.38298867  0.18144067  0.29827225  1.0
  Ni  Ni625  1  0.38298867  0.51477400  0.29827225  1.0
  Ni  Ni626  1  0.38298867  0.84810733  0.29827225  1.0
  Ni  Ni627  1  0.71632200  0.18144067  0.29827225  1.0
  Ni  Ni628  1  0.71632200  0.51477400  0.29827225  1.0
  Ni  Ni629  1  0.71632200  0.84810733  0.29827225  1.0
  Ni  Ni630  1  0.28367800  0.15189267  0.44801825  1.0
  Ni  Ni631  1  0.28367800  0.48522600  0.44801825  1.0
  Ni  Ni632  1  0.28367800  0.81855933  0.44801825  1.0
  Ni  Ni633  1  0.61701133  0.15189267  0.44801825  1.0
  Ni  Ni634  1  0.61701133  0.48522600  0.44801825  1.0
  Ni  Ni635  1  0.61701133  0.81855933  0.44801825  1.0
  Ni  Ni636  1  0.95034467  0.15189267  0.44801825  1.0
  Ni  Ni637  1  0.95034467  0.48522600  0.44801825  1.0
  Ni  Ni638  1  0.95034467  0.81855933  0.44801825  1.0
  Ni  Ni639  1  0.30953567  0.07796033  0.35224675  1.0
  Ni  Ni640  1  0.30953567  0.41129367  0.35224675  1.0
  Ni  Ni641  1  0.30953567  0.74462700  0.35224675  1.0
  Ni  Ni642  1  0.64286900  0.07796033  0.35224675  1.0
  Ni  Ni643  1  0.64286900  0.41129367  0.35224675  1.0
  Ni  Ni644  1  0.64286900  0.74462700  0.35224675  1.0
  Ni  Ni645  1  0.97620233  0.07796033  0.35224675  1.0
  Ni  Ni646  1  0.97620233  0.41129367  0.35224675  1.0
  Ni  Ni647  1  0.97620233  0.74462700  0.35224675  1.0
  Ni  Ni648  1  0.02379767  0.25537300  0.39404375  1.0
  Ni  Ni649  1  0.02379767  0.58870633  0.39404375  1.0
  Ni  Ni650  1  0.02379767  0.92203967  0.39404375  1.0
  Ni  Ni651  1  0.35713100  0.25537300  0.39404375  1.0
  Ni  Ni652  1  0.35713100  0.58870633  0.39404375  1.0
  Ni  Ni653  1  0.35713100  0.92203967  0.39404375  1.0
  Ni  Ni654  1  0.69046433  0.25537300  0.39404375  1.0
  Ni  Ni655  1  0.69046433  0.58870633  0.39404375  1.0
  Ni  Ni656  1  0.69046433  0.92203967  0.39404375  1.0
  Ni  Ni657  1  0.15101433  0.23312300  0.28598725  1.0
  Ni  Ni658  1  0.15101433  0.56645633  0.28598725  1.0
  Ni  Ni659  1  0.15101433  0.89978967  0.28598725  1.0
  Ni  Ni660  1  0.48434767  0.23312300  0.28598725  1.0
  Ni  Ni661  1  0.48434767  0.56645633  0.28598725  1.0
  Ni  Ni662  1  0.48434767  0.89978967  0.28598725  1.0
  Ni  Ni663  1  0.81768100  0.23312300  0.28598725  1.0
  Ni  Ni664  1  0.81768100  0.56645633  0.28598725  1.0
  Ni  Ni665  1  0.81768100  0.89978967  0.28598725  1.0
  Ni  Ni666  1  0.18231900  0.10021033  0.46030325  1.0
  Ni  Ni667  1  0.18231900  0.43354367  0.46030325  1.0
  Ni  Ni668  1  0.18231900  0.76687700  0.46030325  1.0
  Ni  Ni669  1  0.51565233  0.10021033  0.46030325  1.0
  Ni  Ni670  1  0.51565233  0.43354367  0.46030325  1.0
  Ni  Ni671  1  0.51565233  0.76687700  0.46030325  1.0
  Ni  Ni672  1  0.84898567  0.10021033  0.46030325  1.0
  Ni  Ni673  1  0.84898567  0.43354367  0.46030325  1.0
  Ni  Ni674  1  0.84898567  0.76687700  0.46030325  1.0
  Ni  Ni675  1  0.25258600  0.04795267  0.28926300  1.0
  Ni  Ni676  1  0.25258600  0.38128600  0.28926300  1.0
  Ni  Ni677  1  0.25258600  0.71461933  0.28926300  1.0
  Ni  Ni678  1  0.58591933  0.04795267  0.28926300  1.0
  Ni  Ni679  1  0.58591933  0.38128600  0.28926300  1.0
  Ni  Ni680  1  0.58591933  0.71461933  0.28926300  1.0
  Ni  Ni681  1  0.91925267  0.04795267  0.28926300  1.0
  Ni  Ni682  1  0.91925267  0.38128600  0.28926300  1.0
  Ni  Ni683  1  0.91925267  0.71461933  0.28926300  1.0
  Ni  Ni684  1  0.08074733  0.28538067  0.45702750  1.0
  Ni  Ni685  1  0.08074733  0.61871400  0.45702750  1.0
  Ni  Ni686  1  0.08074733  0.95204733  0.45702750  1.0
  Ni  Ni687  1  0.41408067  0.28538067  0.45702750  1.0
  Ni  Ni688  1  0.41408067  0.61871400  0.45702750  1.0
  Ni  Ni689  1  0.41408067  0.95204733  0.45702750  1.0
  Ni  Ni690  1  0.74741400  0.28538067  0.45702750  1.0
  Ni  Ni691  1  0.74741400  0.61871400  0.45702750  1.0
  Ni  Ni692  1  0.74741400  0.95204733  0.45702750  1.0
  Ni  Ni693  1  0.00000000  0.00000000  0.49814525  1.0
  Ni  Ni694  1  0.00000000  0.33333333  0.49814525  1.0
  Ni  Ni695  1  0.00000000  0.66666667  0.49814525  1.0
  Ni  Ni696  1  0.33333333  0.00000000  0.49814525  1.0
  Ni  Ni697  1  0.33333333  0.33333333  0.49814525  1.0
  Ni  Ni698  1  0.33333333  0.66666667  0.49814525  1.0
  Ni  Ni699  1  0.66666667  0.00000000  0.49814525  1.0
  Ni  Ni700  1  0.66666667  0.33333333  0.49814525  1.0
  Ni  Ni701  1  0.66666667  0.66666667  0.49814525  1.0
  Ni  Ni702  1  0.23371800  0.28521600  0.38879800  1.0
  Ni  Ni703  1  0.23371800  0.61854933  0.38879800  1.0
  Ni  Ni704  1  0.23371800  0.95188267  0.38879800  1.0
  Ni  Ni705  1  0.56705133  0.28521600  0.38879800  1.0
  Ni  Ni706  1  0.56705133  0.61854933  0.38879800  1.0
  Ni  Ni707  1  0.56705133  0.95188267  0.38879800  1.0
  Ni  Ni708  1  0.90038467  0.28521600  0.38879800  1.0
  Ni  Ni709  1  0.90038467  0.61854933  0.38879800  1.0
  Ni  Ni710  1  0.90038467  0.95188267  0.38879800  1.0
  Ni  Ni711  1  0.09961533  0.04811733  0.35749250  1.0
  Ni  Ni712  1  0.09961533  0.38145067  0.35749250  1.0
  Ni  Ni713  1  0.09961533  0.71478400  0.35749250  1.0
  Ni  Ni714  1  0.43294867  0.04811733  0.35749250  1.0
  Ni  Ni715  1  0.43294867  0.38145067  0.35749250  1.0
  Ni  Ni716  1  0.43294867  0.71478400  0.35749250  1.0
  Ni  Ni717  1  0.76628200  0.04811733  0.35749250  1.0
  Ni  Ni718  1  0.76628200  0.38145067  0.35749250  1.0
  Ni  Ni719  1  0.76628200  0.71478400  0.35749250  1.0
