# generated using pymatgen
data_In3Ni7
_symmetry_space_group_name_H-M   'P 1'
_cell_length_a   33.32614867
_cell_length_b   37.31803262
_cell_length_c   45.82950400
_cell_angle_alpha   128.47466847
_cell_angle_beta   126.39934630
_cell_angle_gamma   79.34068891
_symmetry_Int_Tables_number   1
_chemical_formula_structural   In3Ni7
_chemical_formula_sum   'In324 Ni756'
_cell_volume   34346.73617825
_cell_formula_units_Z   108
loop_
 _symmetry_equiv_pos_site_id
 _symmetry_equiv_pos_as_xyz
  1  'x, y, z'
loop_
 _atom_site_type_symbol
 _atom_site_label
 _atom_site_symmetry_multiplicity
 _atom_site_fract_x
 _atom_site_fract_y
 _atom_site_fract_z
 _atom_site_occupancy
  In  In0  1  0.27895600  0.13183867  0.07683586  1.0
  In  In1  1  0.27895600  0.46517200  0.07683586  1.0
  In  In2  1  0.27895600  0.79850533  0.07683586  1.0
  In  In3  1  0.61228933  0.13183867  0.07683586  1.0
  In  In4  1  0.61228933  0.46517200  0.07683586  1.0
  In  In5  1  0.61228933  0.79850533  0.07683586  1.0
  In  In6  1  0.94562267  0.13183867  0.07683586  1.0
  In  In7  1  0.94562267  0.46517200  0.07683586  1.0
  In  In8  1  0.94562267  0.79850533  0.07683586  1.0
  In  In9  1  0.05437733  0.20149467  0.06063700  1.0
  In  In10  1  0.05437733  0.53482800  0.06063700  1.0
  In  In11  1  0.05437733  0.86816133  0.06063700  1.0
  In  In12  1  0.38771067  0.20149467  0.06063700  1.0
  In  In13  1  0.38771067  0.53482800  0.06063700  1.0
  In  In14  1  0.38771067  0.86816133  0.06063700  1.0
  In  In15  1  0.72104400  0.20149467  0.06063700  1.0
  In  In16  1  0.72104400  0.53482800  0.06063700  1.0
  In  In17  1  0.72104400  0.86816133  0.06063700  1.0
  In  In18  1  0.23740900  0.00494600  0.11039471  1.0
  In  In19  1  0.23740900  0.33827933  0.11039471  1.0
  In  In20  1  0.23740900  0.67161267  0.11039471  1.0
  In  In21  1  0.57074233  0.00494600  0.11039471  1.0
  In  In22  1  0.57074233  0.33827933  0.11039471  1.0
  In  In23  1  0.57074233  0.67161267  0.11039471  1.0
  In  In24  1  0.90407567  0.00494600  0.11039471  1.0
  In  In25  1  0.90407567  0.33827933  0.11039471  1.0
  In  In26  1  0.90407567  0.67161267  0.11039471  1.0
  In  In27  1  0.09592433  0.32838733  0.02707814  1.0
  In  In28  1  0.09592433  0.66172067  0.02707814  1.0
  In  In29  1  0.09592433  0.99505400  0.02707814  1.0
  In  In30  1  0.42925767  0.32838733  0.02707814  1.0
  In  In31  1  0.42925767  0.66172067  0.02707814  1.0
  In  In32  1  0.42925767  0.99505400  0.02707814  1.0
  In  In33  1  0.76259100  0.32838733  0.02707814  1.0
  In  In34  1  0.76259100  0.66172067  0.02707814  1.0
  In  In35  1  0.76259100  0.99505400  0.02707814  1.0
  In  In36  1  0.17618200  0.18481967  0.12196743  1.0
  In  In37  1  0.17618200  0.51815300  0.12196743  1.0
  In  In38  1  0.17618200  0.85148633  0.12196743  1.0
  In  In39  1  0.50951533  0.18481967  0.12196743  1.0
  In  In40  1  0.50951533  0.51815300  0.12196743  1.0
  In  In41  1  0.50951533  0.85148633  0.12196743  1.0
  In  In42  1  0.84284867  0.18481967  0.12196743  1.0
  In  In43  1  0.84284867  0.51815300  0.12196743  1.0
  In  In44  1  0.84284867  0.85148633  0.12196743  1.0
  In  In45  1  0.15715133  0.14851367  0.01550543  1.0
  In  In46  1  0.15715133  0.48184700  0.01550543  1.0
  In  In47  1  0.15715133  0.81518033  0.01550543  1.0
  In  In48  1  0.49048467  0.14851367  0.01550543  1.0
  In  In49  1  0.49048467  0.48184700  0.01550543  1.0
  In  In50  1  0.49048467  0.81518033  0.01550543  1.0
  In  In51  1  0.82381800  0.14851367  0.01550543  1.0
  In  In52  1  0.82381800  0.48184700  0.01550543  1.0
  In  In53  1  0.82381800  0.81518033  0.01550543  1.0
  In  In54  1  0.12164533  0.04147033  0.13478071  1.0
  In  In55  1  0.12164533  0.37480367  0.13478071  1.0
  In  In56  1  0.12164533  0.70813700  0.13478071  1.0
  In  In57  1  0.45497867  0.04147033  0.13478071  1.0
  In  In58  1  0.45497867  0.37480367  0.13478071  1.0
  In  In59  1  0.45497867  0.70813700  0.13478071  1.0
  In  In60  1  0.78831200  0.04147033  0.13478071  1.0
  In  In61  1  0.78831200  0.37480367  0.13478071  1.0
  In  In62  1  0.78831200  0.70813700  0.13478071  1.0
  In  In63  1  0.21168800  0.29186300  0.00269214  1.0
  In  In64  1  0.21168800  0.62519633  0.00269214  1.0
  In  In65  1  0.21168800  0.95852967  0.00269214  1.0
  In  In66  1  0.54502133  0.29186300  0.00269214  1.0
  In  In67  1  0.54502133  0.62519633  0.00269214  1.0
  In  In68  1  0.54502133  0.95852967  0.00269214  1.0
  In  In69  1  0.87835467  0.29186300  0.00269214  1.0
  In  In70  1  0.87835467  0.62519633  0.00269214  1.0
  In  In71  1  0.87835467  0.95852967  0.00269214  1.0
  In  In72  1  0.33225800  0.28862000  0.06627043  1.0
  In  In73  1  0.33225800  0.62195333  0.06627043  1.0
  In  In74  1  0.33225800  0.95528667  0.06627043  1.0
  In  In75  1  0.66559133  0.28862000  0.06627043  1.0
  In  In76  1  0.66559133  0.62195333  0.06627043  1.0
  In  In77  1  0.66559133  0.95528667  0.06627043  1.0
  In  In78  1  0.99892467  0.28862000  0.06627043  1.0
  In  In79  1  0.99892467  0.62195333  0.06627043  1.0
  In  In80  1  0.99892467  0.95528667  0.06627043  1.0
  In  In81  1  0.00107533  0.04471333  0.07120243  1.0
  In  In82  1  0.00107533  0.37804667  0.07120243  1.0
  In  In83  1  0.00107533  0.71138000  0.07120243  1.0
  In  In84  1  0.33440867  0.04471333  0.07120243  1.0
  In  In85  1  0.33440867  0.37804667  0.07120243  1.0
  In  In86  1  0.33440867  0.71138000  0.07120243  1.0
  In  In87  1  0.66774200  0.04471333  0.07120243  1.0
  In  In88  1  0.66774200  0.37804667  0.07120243  1.0
  In  In89  1  0.66774200  0.71138000  0.07120243  1.0
  In  In90  1  0.24424933  0.10452000  0.12498671  1.0
  In  In91  1  0.24424933  0.43785333  0.12498671  1.0
  In  In92  1  0.24424933  0.77118667  0.12498671  1.0
  In  In93  1  0.57758267  0.10452000  0.12498671  1.0
  In  In94  1  0.57758267  0.43785333  0.12498671  1.0
  In  In95  1  0.57758267  0.77118667  0.12498671  1.0
  In  In96  1  0.91091600  0.10452000  0.12498671  1.0
  In  In97  1  0.91091600  0.43785333  0.12498671  1.0
  In  In98  1  0.91091600  0.77118667  0.12498671  1.0
  In  In99  1  0.08908400  0.22881333  0.01248614  1.0
  In  In100  1  0.08908400  0.56214667  0.01248614  1.0
  In  In101  1  0.08908400  0.89548000  0.01248614  1.0
  In  In102  1  0.42241733  0.22881333  0.01248614  1.0
  In  In103  1  0.42241733  0.56214667  0.01248614  1.0
  In  In104  1  0.42241733  0.89548000  0.01248614  1.0
  In  In105  1  0.75575067  0.22881333  0.01248614  1.0
  In  In106  1  0.75575067  0.56214667  0.01248614  1.0
  In  In107  1  0.75575067  0.89548000  0.01248614  1.0
  Ni  Ni108  1  0.25467767  0.26133033  0.05555300  1.0
  Ni  Ni109  1  0.25467767  0.59466367  0.05555300  1.0
  Ni  Ni110  1  0.25467767  0.92799700  0.05555300  1.0
  Ni  Ni111  1  0.58801100  0.26133033  0.05555300  1.0
  Ni  Ni112  1  0.58801100  0.59466367  0.05555300  1.0
  Ni  Ni113  1  0.58801100  0.92799700  0.05555300  1.0
  Ni  Ni114  1  0.92134433  0.26133033  0.05555300  1.0
  Ni  Ni115  1  0.92134433  0.59466367  0.05555300  1.0
  Ni  Ni116  1  0.92134433  0.92799700  0.05555300  1.0
  Ni  Ni117  1  0.07865567  0.07200300  0.08191986  1.0
  Ni  Ni118  1  0.07865567  0.40533633  0.08191986  1.0
  Ni  Ni119  1  0.07865567  0.73866967  0.08191986  1.0
  Ni  Ni120  1  0.41198900  0.07200300  0.08191986  1.0
  Ni  Ni121  1  0.41198900  0.40533633  0.08191986  1.0
  Ni  Ni122  1  0.41198900  0.73866967  0.08191986  1.0
  Ni  Ni123  1  0.74532233  0.07200300  0.08191986  1.0
  Ni  Ni124  1  0.74532233  0.40533633  0.08191986  1.0
  Ni  Ni125  1  0.74532233  0.73866967  0.08191986  1.0
  Ni  Ni126  1  0.32781567  0.08344367  0.03468429  1.0
  Ni  Ni127  1  0.32781567  0.41677700  0.03468429  1.0
  Ni  Ni128  1  0.32781567  0.75011033  0.03468429  1.0
  Ni  Ni129  1  0.66114900  0.08344367  0.03468429  1.0
  Ni  Ni130  1  0.66114900  0.41677700  0.03468429  1.0
  Ni  Ni131  1  0.66114900  0.75011033  0.03468429  1.0
  Ni  Ni132  1  0.99448233  0.08344367  0.03468429  1.0
  Ni  Ni133  1  0.99448233  0.41677700  0.03468429  1.0
  Ni  Ni134  1  0.99448233  0.75011033  0.03468429  1.0
  Ni  Ni135  1  0.00551767  0.24988967  0.10278857  1.0
  Ni  Ni136  1  0.00551767  0.58322300  0.10278857  1.0
  Ni  Ni137  1  0.00551767  0.91655633  0.10278857  1.0
  Ni  Ni138  1  0.33885100  0.24988967  0.10278857  1.0
  Ni  Ni139  1  0.33885100  0.58322300  0.10278857  1.0
  Ni  Ni140  1  0.33885100  0.91655633  0.10278857  1.0
  Ni  Ni141  1  0.67218433  0.24988967  0.10278857  1.0
  Ni  Ni142  1  0.67218433  0.58322300  0.10278857  1.0
  Ni  Ni143  1  0.67218433  0.91655633  0.10278857  1.0
  Ni  Ni144  1  0.18069633  0.02081433  0.04904014  1.0
  Ni  Ni145  1  0.18069633  0.35414767  0.04904014  1.0
  Ni  Ni146  1  0.18069633  0.68748100  0.04904014  1.0
  Ni  Ni147  1  0.51402967  0.02081433  0.04904014  1.0
  Ni  Ni148  1  0.51402967  0.35414767  0.04904014  1.0
  Ni  Ni149  1  0.51402967  0.68748100  0.04904014  1.0
  Ni  Ni150  1  0.84736300  0.02081433  0.04904014  1.0
  Ni  Ni151  1  0.84736300  0.35414767  0.04904014  1.0
  Ni  Ni152  1  0.84736300  0.68748100  0.04904014  1.0
  Ni  Ni153  1  0.15263700  0.31251900  0.08843271  1.0
  Ni  Ni154  1  0.15263700  0.64585233  0.08843271  1.0
  Ni  Ni155  1  0.15263700  0.97918567  0.08843271  1.0
  Ni  Ni156  1  0.48597033  0.31251900  0.08843271  1.0
  Ni  Ni157  1  0.48597033  0.64585233  0.08843271  1.0
  Ni  Ni158  1  0.48597033  0.97918567  0.08843271  1.0
  Ni  Ni159  1  0.81930367  0.31251900  0.08843271  1.0
  Ni  Ni160  1  0.81930367  0.64585233  0.08843271  1.0
  Ni  Ni161  1  0.81930367  0.97918567  0.08843271  1.0
  Ni  Ni162  1  0.19520267  0.12122067  0.06493843  1.0
  Ni  Ni163  1  0.19520267  0.45455400  0.06493843  1.0
  Ni  Ni164  1  0.19520267  0.78788733  0.06493843  1.0
  Ni  Ni165  1  0.52853600  0.12122067  0.06493843  1.0
  Ni  Ni166  1  0.52853600  0.45455400  0.06493843  1.0
  Ni  Ni167  1  0.52853600  0.78788733  0.06493843  1.0
  Ni  Ni168  1  0.86186933  0.12122067  0.06493843  1.0
  Ni  Ni169  1  0.86186933  0.45455400  0.06493843  1.0
  Ni  Ni170  1  0.86186933  0.78788733  0.06493843  1.0
  Ni  Ni171  1  0.13813067  0.21211267  0.07253443  1.0
  Ni  Ni172  1  0.13813067  0.54544600  0.07253443  1.0
  Ni  Ni173  1  0.13813067  0.87877933  0.07253443  1.0
  Ni  Ni174  1  0.47146400  0.21211267  0.07253443  1.0
  Ni  Ni175  1  0.47146400  0.54544600  0.07253443  1.0
  Ni  Ni176  1  0.47146400  0.87877933  0.07253443  1.0
  Ni  Ni177  1  0.80479733  0.21211267  0.07253443  1.0
  Ni  Ni178  1  0.80479733  0.54544600  0.07253443  1.0
  Ni  Ni179  1  0.80479733  0.87877933  0.07253443  1.0
  Ni  Ni180  1  0.23699867  0.21205100  0.11031286  1.0
  Ni  Ni181  1  0.23699867  0.54538433  0.11031286  1.0
  Ni  Ni182  1  0.23699867  0.87871767  0.11031286  1.0
  Ni  Ni183  1  0.57033200  0.21205100  0.11031286  1.0
  Ni  Ni184  1  0.57033200  0.54538433  0.11031286  1.0
  Ni  Ni185  1  0.57033200  0.87871767  0.11031286  1.0
  Ni  Ni186  1  0.90366533  0.21205100  0.11031286  1.0
  Ni  Ni187  1  0.90366533  0.54538433  0.11031286  1.0
  Ni  Ni188  1  0.90366533  0.87871767  0.11031286  1.0
  Ni  Ni189  1  0.09633467  0.12128233  0.02716000  1.0
  Ni  Ni190  1  0.09633467  0.45461567  0.02716000  1.0
  Ni  Ni191  1  0.09633467  0.78794900  0.02716000  1.0
  Ni  Ni192  1  0.42966800  0.12128233  0.02716000  1.0
  Ni  Ni193  1  0.42966800  0.45461567  0.02716000  1.0
  Ni  Ni194  1  0.42966800  0.78794900  0.02716000  1.0
  Ni  Ni195  1  0.76300133  0.12128233  0.02716000  1.0
  Ni  Ni196  1  0.76300133  0.45461567  0.02716000  1.0
  Ni  Ni197  1  0.76300133  0.78794900  0.02716000  1.0
  Ni  Ni198  1  0.14104367  0.09120567  0.07479143  1.0
  Ni  Ni199  1  0.14104367  0.42453900  0.07479143  1.0
  Ni  Ni200  1  0.14104367  0.75787233  0.07479143  1.0
  Ni  Ni201  1  0.47437700  0.09120567  0.07479143  1.0
  Ni  Ni202  1  0.47437700  0.42453900  0.07479143  1.0
  Ni  Ni203  1  0.47437700  0.75787233  0.07479143  1.0
  Ni  Ni204  1  0.80771033  0.09120567  0.07479143  1.0
  Ni  Ni205  1  0.80771033  0.42453900  0.07479143  1.0
  Ni  Ni206  1  0.80771033  0.75787233  0.07479143  1.0
  Ni  Ni207  1  0.19228967  0.24212767  0.06268143  1.0
  Ni  Ni208  1  0.19228967  0.57546100  0.06268143  1.0
  Ni  Ni209  1  0.19228967  0.90879433  0.06268143  1.0
  Ni  Ni210  1  0.52562300  0.24212767  0.06268143  1.0
  Ni  Ni211  1  0.52562300  0.57546100  0.06268143  1.0
  Ni  Ni212  1  0.52562300  0.90879433  0.06268143  1.0
  Ni  Ni213  1  0.85895633  0.24212767  0.06268143  1.0
  Ni  Ni214  1  0.85895633  0.57546100  0.06268143  1.0
  Ni  Ni215  1  0.85895633  0.90879433  0.06268143  1.0
  Ni  Ni216  1  0.00057167  0.11245600  0.14131100  1.0
  Ni  Ni217  1  0.00057167  0.44578933  0.14131100  1.0
  Ni  Ni218  1  0.00057167  0.77912267  0.14131100  1.0
  Ni  Ni219  1  0.33390500  0.11245600  0.14131100  1.0
  Ni  Ni220  1  0.33390500  0.44578933  0.14131100  1.0
  Ni  Ni221  1  0.33390500  0.77912267  0.14131100  1.0
  Ni  Ni222  1  0.66723833  0.11245600  0.14131100  1.0
  Ni  Ni223  1  0.66723833  0.44578933  0.14131100  1.0
  Ni  Ni224  1  0.66723833  0.77912267  0.14131100  1.0
  Ni  Ni225  1  0.33276167  0.22087733  0.13901900  1.0
  Ni  Ni226  1  0.33276167  0.55421067  0.13901900  1.0
  Ni  Ni227  1  0.33276167  0.88754400  0.13901900  1.0
  Ni  Ni228  1  0.66609500  0.22087733  0.13901900  1.0
  Ni  Ni229  1  0.66609500  0.55421067  0.13901900  1.0
  Ni  Ni230  1  0.66609500  0.88754400  0.13901900  1.0
  Ni  Ni231  1  0.99942833  0.22087733  0.13901900  1.0
  Ni  Ni232  1  0.99942833  0.55421067  0.13901900  1.0
  Ni  Ni233  1  0.99942833  0.88754400  0.13901900  1.0
  Ni  Ni234  1  0.28472700  0.02714133  0.09182743  1.0
  Ni  Ni235  1  0.28472700  0.36047467  0.09182743  1.0
  Ni  Ni236  1  0.28472700  0.69380800  0.09182743  1.0
  Ni  Ni237  1  0.61806033  0.02714133  0.09182743  1.0
  Ni  Ni238  1  0.61806033  0.36047467  0.09182743  1.0
  Ni  Ni239  1  0.61806033  0.69380800  0.09182743  1.0
  Ni  Ni240  1  0.95139367  0.02714133  0.09182743  1.0
  Ni  Ni241  1  0.95139367  0.36047467  0.09182743  1.0
  Ni  Ni242  1  0.95139367  0.69380800  0.09182743  1.0
  Ni  Ni243  1  0.04860633  0.30619200  0.04564543  1.0
  Ni  Ni244  1  0.04860633  0.63952533  0.04564543  1.0
  Ni  Ni245  1  0.04860633  0.97285867  0.04564543  1.0
  Ni  Ni246  1  0.38193967  0.30619200  0.04564543  1.0
  Ni  Ni247  1  0.38193967  0.63952533  0.04564543  1.0
  Ni  Ni248  1  0.38193967  0.97285867  0.04564543  1.0
  Ni  Ni249  1  0.71527300  0.30619200  0.04564543  1.0
  Ni  Ni250  1  0.71527300  0.63952533  0.04564543  1.0
  Ni  Ni251  1  0.71527300  0.97285867  0.04564543  1.0
  Ni  Ni252  1  0.00000000  0.16666667  0.06873643  1.0
  Ni  Ni253  1  0.00000000  0.50000000  0.06873643  1.0
  Ni  Ni254  1  0.00000000  0.83333333  0.06873643  1.0
  Ni  Ni255  1  0.33333333  0.16666667  0.06873643  1.0
  Ni  Ni256  1  0.33333333  0.50000000  0.06873643  1.0
  Ni  Ni257  1  0.33333333  0.83333333  0.06873643  1.0
  Ni  Ni258  1  0.66666667  0.16666667  0.06873643  1.0
  Ni  Ni259  1  0.66666667  0.50000000  0.06873643  1.0
  Ni  Ni260  1  0.66666667  0.83333333  0.06873643  1.0
  Ni  Ni261  1  0.18144067  0.06683600  0.12499300  1.0
  Ni  Ni262  1  0.18144067  0.40016933  0.12499300  1.0
  Ni  Ni263  1  0.18144067  0.73350267  0.12499300  1.0
  Ni  Ni264  1  0.51477400  0.06683600  0.12499300  1.0
  Ni  Ni265  1  0.51477400  0.40016933  0.12499300  1.0
  Ni  Ni266  1  0.51477400  0.73350267  0.12499300  1.0
  Ni  Ni267  1  0.84810733  0.06683600  0.12499300  1.0
  Ni  Ni268  1  0.84810733  0.40016933  0.12499300  1.0
  Ni  Ni269  1  0.84810733  0.73350267  0.12499300  1.0
  Ni  Ni270  1  0.15189267  0.26649733  0.01247986  1.0
  Ni  Ni271  1  0.15189267  0.59983067  0.01247986  1.0
  Ni  Ni272  1  0.15189267  0.93316400  0.01247986  1.0
  Ni  Ni273  1  0.48522600  0.26649733  0.01247986  1.0
  Ni  Ni274  1  0.48522600  0.59983067  0.01247986  1.0
  Ni  Ni275  1  0.48522600  0.93316400  0.01247986  1.0
  Ni  Ni276  1  0.81855933  0.26649733  0.01247986  1.0
  Ni  Ni277  1  0.81855933  0.59983067  0.01247986  1.0
  Ni  Ni278  1  0.81855933  0.93316400  0.01247986  1.0
  Ni  Ni279  1  0.07796033  0.13880200  0.08000700  1.0
  Ni  Ni280  1  0.07796033  0.47213533  0.08000700  1.0
  Ni  Ni281  1  0.07796033  0.80546867  0.08000700  1.0
  Ni  Ni282  1  0.41129367  0.13880200  0.08000700  1.0
  Ni  Ni283  1  0.41129367  0.47213533  0.08000700  1.0
  Ni  Ni284  1  0.41129367  0.80546867  0.08000700  1.0
  Ni  Ni285  1  0.74462700  0.13880200  0.08000700  1.0
  Ni  Ni286  1  0.74462700  0.47213533  0.08000700  1.0
  Ni  Ni287  1  0.74462700  0.80546867  0.08000700  1.0
  Ni  Ni288  1  0.25537300  0.19453133  0.05746586  1.0
  Ni  Ni289  1  0.25537300  0.52786467  0.05746586  1.0
  Ni  Ni290  1  0.25537300  0.86119800  0.05746586  1.0
  Ni  Ni291  1  0.58870633  0.19453133  0.05746586  1.0
  Ni  Ni292  1  0.58870633  0.52786467  0.05746586  1.0
  Ni  Ni293  1  0.58870633  0.86119800  0.05746586  1.0
  Ni  Ni294  1  0.92203967  0.19453133  0.05746586  1.0
  Ni  Ni295  1  0.92203967  0.52786467  0.05746586  1.0
  Ni  Ni296  1  0.92203967  0.86119800  0.05746586  1.0
  Ni  Ni297  1  0.23312300  0.05045600  0.04070500  1.0
  Ni  Ni298  1  0.23312300  0.38378933  0.04070500  1.0
  Ni  Ni299  1  0.23312300  0.71712267  0.04070500  1.0
  Ni  Ni300  1  0.56645633  0.05045600  0.04070500  1.0
  Ni  Ni301  1  0.56645633  0.38378933  0.04070500  1.0
  Ni  Ni302  1  0.56645633  0.71712267  0.04070500  1.0
  Ni  Ni303  1  0.89978967  0.05045600  0.04070500  1.0
  Ni  Ni304  1  0.89978967  0.38378933  0.04070500  1.0
  Ni  Ni305  1  0.89978967  0.71712267  0.04070500  1.0
  Ni  Ni306  1  0.10021033  0.28287733  0.09676786  1.0
  Ni  Ni307  1  0.10021033  0.61621067  0.09676786  1.0
  Ni  Ni308  1  0.10021033  0.94954400  0.09676786  1.0
  Ni  Ni309  1  0.43354367  0.28287733  0.09676786  1.0
  Ni  Ni310  1  0.43354367  0.61621067  0.09676786  1.0
  Ni  Ni311  1  0.43354367  0.94954400  0.09676786  1.0
  Ni  Ni312  1  0.76687700  0.28287733  0.09676786  1.0
  Ni  Ni313  1  0.76687700  0.61621067  0.09676786  1.0
  Ni  Ni314  1  0.76687700  0.94954400  0.09676786  1.0
  Ni  Ni315  1  0.04795267  0.05482367  0.00674886  1.0
  Ni  Ni316  1  0.04795267  0.38815700  0.00674886  1.0
  Ni  Ni317  1  0.04795267  0.72149033  0.00674886  1.0
  Ni  Ni318  1  0.38128600  0.05482367  0.00674886  1.0
  Ni  Ni319  1  0.38128600  0.38815700  0.00674886  1.0
  Ni  Ni320  1  0.38128600  0.72149033  0.00674886  1.0
  Ni  Ni321  1  0.71461933  0.05482367  0.00674886  1.0
  Ni  Ni322  1  0.71461933  0.38815700  0.00674886  1.0
  Ni  Ni323  1  0.71461933  0.72149033  0.00674886  1.0
  Ni  Ni324  1  0.28538067  0.27850967  0.13072400  1.0
  Ni  Ni325  1  0.28538067  0.61184300  0.13072400  1.0
  Ni  Ni326  1  0.28538067  0.94517633  0.13072400  1.0
  Ni  Ni327  1  0.61871400  0.27850967  0.13072400  1.0
  Ni  Ni328  1  0.61871400  0.61184300  0.13072400  1.0
  Ni  Ni329  1  0.61871400  0.94517633  0.13072400  1.0
  Ni  Ni330  1  0.95204733  0.27850967  0.13072400  1.0
  Ni  Ni331  1  0.95204733  0.61184300  0.13072400  1.0
  Ni  Ni332  1  0.95204733  0.94517633  0.13072400  1.0
  Ni  Ni333  1  0.00000000  0.00000000  0.14016500  1.0
  Ni  Ni334  1  0.00000000  0.33333333  0.14016500  1.0
  Ni  Ni335  1  0.00000000  0.66666667  0.14016500  1.0
  Ni  Ni336  1  0.33333333  0.00000000  0.14016500  1.0
  Ni  Ni337  1  0.33333333  0.33333333  0.14016500  1.0
  Ni  Ni338  1  0.33333333  0.66666667  0.14016500  1.0
  Ni  Ni339  1  0.66666667  0.00000000  0.14016500  1.0
  Ni  Ni340  1  0.66666667  0.33333333  0.14016500  1.0
  Ni  Ni341  1  0.66666667  0.66666667  0.14016500  1.0
  Ni  Ni342  1  0.28521600  0.18753700  0.01436686  1.0
  Ni  Ni343  1  0.28521600  0.52087033  0.01436686  1.0
  Ni  Ni344  1  0.28521600  0.85420367  0.01436686  1.0
  Ni  Ni345  1  0.61854933  0.18753700  0.01436686  1.0
  Ni  Ni346  1  0.61854933  0.52087033  0.01436686  1.0
  Ni  Ni347  1  0.61854933  0.85420367  0.01436686  1.0
  Ni  Ni348  1  0.95188267  0.18753700  0.01436686  1.0
  Ni  Ni349  1  0.95188267  0.52087033  0.01436686  1.0
  Ni  Ni350  1  0.95188267  0.85420367  0.01436686  1.0
  Ni  Ni351  1  0.04811733  0.14579633  0.12310600  1.0
  Ni  Ni352  1  0.04811733  0.47912967  0.12310600  1.0
  Ni  Ni353  1  0.04811733  0.81246300  0.12310600  1.0
  Ni  Ni354  1  0.38145067  0.14579633  0.12310600  1.0
  Ni  Ni355  1  0.38145067  0.47912967  0.12310600  1.0
  Ni  Ni356  1  0.38145067  0.81246300  0.12310600  1.0
  Ni  Ni357  1  0.71478400  0.14579633  0.12310600  1.0
  Ni  Ni358  1  0.71478400  0.47912967  0.12310600  1.0
  Ni  Ni359  1  0.71478400  0.81246300  0.12310600  1.0
  In  In360  1  0.27895600  0.13183867  0.21969300  1.0
  In  In361  1  0.27895600  0.46517200  0.21969300  1.0
  In  In362  1  0.27895600  0.79850533  0.21969300  1.0
  In  In363  1  0.61228933  0.13183867  0.21969300  1.0
  In  In364  1  0.61228933  0.46517200  0.21969300  1.0
  In  In365  1  0.61228933  0.79850533  0.21969300  1.0
  In  In366  1  0.94562267  0.13183867  0.21969300  1.0
  In  In367  1  0.94562267  0.46517200  0.21969300  1.0
  In  In368  1  0.94562267  0.79850533  0.21969300  1.0
  In  In369  1  0.05437733  0.20149467  0.20349414  1.0
  In  In370  1  0.05437733  0.53482800  0.20349414  1.0
  In  In371  1  0.05437733  0.86816133  0.20349414  1.0
  In  In372  1  0.38771067  0.20149467  0.20349414  1.0
  In  In373  1  0.38771067  0.53482800  0.20349414  1.0
  In  In374  1  0.38771067  0.86816133  0.20349414  1.0
  In  In375  1  0.72104400  0.20149467  0.20349414  1.0
  In  In376  1  0.72104400  0.53482800  0.20349414  1.0
  In  In377  1  0.72104400  0.86816133  0.20349414  1.0
  In  In378  1  0.23740900  0.00494600  0.25325186  1.0
  In  In379  1  0.23740900  0.33827933  0.25325186  1.0
  In  In380  1  0.23740900  0.67161267  0.25325186  1.0
  In  In381  1  0.57074233  0.00494600  0.25325186  1.0
  In  In382  1  0.57074233  0.33827933  0.25325186  1.0
  In  In383  1  0.57074233  0.67161267  0.25325186  1.0
  In  In384  1  0.90407567  0.00494600  0.25325186  1.0
  In  In385  1  0.90407567  0.33827933  0.25325186  1.0
  In  In386  1  0.90407567  0.67161267  0.25325186  1.0
  In  In387  1  0.09592433  0.32838733  0.16993529  1.0
  In  In388  1  0.09592433  0.66172067  0.16993529  1.0
  In  In389  1  0.09592433  0.99505400  0.16993529  1.0
  In  In390  1  0.42925767  0.32838733  0.16993529  1.0
  In  In391  1  0.42925767  0.66172067  0.16993529  1.0
  In  In392  1  0.42925767  0.99505400  0.16993529  1.0
  In  In393  1  0.76259100  0.32838733  0.16993529  1.0
  In  In394  1  0.76259100  0.66172067  0.16993529  1.0
  In  In395  1  0.76259100  0.99505400  0.16993529  1.0
  In  In396  1  0.17618200  0.18481967  0.26482457  1.0
  In  In397  1  0.17618200  0.51815300  0.26482457  1.0
  In  In398  1  0.17618200  0.85148633  0.26482457  1.0
  In  In399  1  0.50951533  0.18481967  0.26482457  1.0
  In  In400  1  0.50951533  0.51815300  0.26482457  1.0
  In  In401  1  0.50951533  0.85148633  0.26482457  1.0
  In  In402  1  0.84284867  0.18481967  0.26482457  1.0
  In  In403  1  0.84284867  0.51815300  0.26482457  1.0
  In  In404  1  0.84284867  0.85148633  0.26482457  1.0
  In  In405  1  0.15715133  0.14851367  0.15836257  1.0
  In  In406  1  0.15715133  0.48184700  0.15836257  1.0
  In  In407  1  0.15715133  0.81518033  0.15836257  1.0
  In  In408  1  0.49048467  0.14851367  0.15836257  1.0
  In  In409  1  0.49048467  0.48184700  0.15836257  1.0
  In  In410  1  0.49048467  0.81518033  0.15836257  1.0
  In  In411  1  0.82381800  0.14851367  0.15836257  1.0
  In  In412  1  0.82381800  0.48184700  0.15836257  1.0
  In  In413  1  0.82381800  0.81518033  0.15836257  1.0
  In  In414  1  0.12164533  0.04147033  0.27763786  1.0
  In  In415  1  0.12164533  0.37480367  0.27763786  1.0
  In  In416  1  0.12164533  0.70813700  0.27763786  1.0
  In  In417  1  0.45497867  0.04147033  0.27763786  1.0
  In  In418  1  0.45497867  0.37480367  0.27763786  1.0
  In  In419  1  0.45497867  0.70813700  0.27763786  1.0
  In  In420  1  0.78831200  0.04147033  0.27763786  1.0
  In  In421  1  0.78831200  0.37480367  0.27763786  1.0
  In  In422  1  0.78831200  0.70813700  0.27763786  1.0
  In  In423  1  0.21168800  0.29186300  0.14554929  1.0
  In  In424  1  0.21168800  0.62519633  0.14554929  1.0
  In  In425  1  0.21168800  0.95852967  0.14554929  1.0
  In  In426  1  0.54502133  0.29186300  0.14554929  1.0
  In  In427  1  0.54502133  0.62519633  0.14554929  1.0
  In  In428  1  0.54502133  0.95852967  0.14554929  1.0
  In  In429  1  0.87835467  0.29186300  0.14554929  1.0
  In  In430  1  0.87835467  0.62519633  0.14554929  1.0
  In  In431  1  0.87835467  0.95852967  0.14554929  1.0
  In  In432  1  0.33225800  0.28862000  0.20912757  1.0
  In  In433  1  0.33225800  0.62195333  0.20912757  1.0
  In  In434  1  0.33225800  0.95528667  0.20912757  1.0
  In  In435  1  0.66559133  0.28862000  0.20912757  1.0
  In  In436  1  0.66559133  0.62195333  0.20912757  1.0
  In  In437  1  0.66559133  0.95528667  0.20912757  1.0
  In  In438  1  0.99892467  0.28862000  0.20912757  1.0
  In  In439  1  0.99892467  0.62195333  0.20912757  1.0
  In  In440  1  0.99892467  0.95528667  0.20912757  1.0
  In  In441  1  0.00107533  0.04471333  0.21405957  1.0
  In  In442  1  0.00107533  0.37804667  0.21405957  1.0
  In  In443  1  0.00107533  0.71138000  0.21405957  1.0
  In  In444  1  0.33440867  0.04471333  0.21405957  1.0
  In  In445  1  0.33440867  0.37804667  0.21405957  1.0
  In  In446  1  0.33440867  0.71138000  0.21405957  1.0
  In  In447  1  0.66774200  0.04471333  0.21405957  1.0
  In  In448  1  0.66774200  0.37804667  0.21405957  1.0
  In  In449  1  0.66774200  0.71138000  0.21405957  1.0
  In  In450  1  0.24424933  0.10452000  0.26784386  1.0
  In  In451  1  0.24424933  0.43785333  0.26784386  1.0
  In  In452  1  0.24424933  0.77118667  0.26784386  1.0
  In  In453  1  0.57758267  0.10452000  0.26784386  1.0
  In  In454  1  0.57758267  0.43785333  0.26784386  1.0
  In  In455  1  0.57758267  0.77118667  0.26784386  1.0
  In  In456  1  0.91091600  0.10452000  0.26784386  1.0
  In  In457  1  0.91091600  0.43785333  0.26784386  1.0
  In  In458  1  0.91091600  0.77118667  0.26784386  1.0
  In  In459  1  0.08908400  0.22881333  0.15534329  1.0
  In  In460  1  0.08908400  0.56214667  0.15534329  1.0
  In  In461  1  0.08908400  0.89548000  0.15534329  1.0
  In  In462  1  0.42241733  0.22881333  0.15534329  1.0
  In  In463  1  0.42241733  0.56214667  0.15534329  1.0
  In  In464  1  0.42241733  0.89548000  0.15534329  1.0
  In  In465  1  0.75575067  0.22881333  0.15534329  1.0
  In  In466  1  0.75575067  0.56214667  0.15534329  1.0
  In  In467  1  0.75575067  0.89548000  0.15534329  1.0
  Ni  Ni468  1  0.25467767  0.26133033  0.19841014  1.0
  Ni  Ni469  1  0.25467767  0.59466367  0.19841014  1.0
  Ni  Ni470  1  0.25467767  0.92799700  0.19841014  1.0
  Ni  Ni471  1  0.58801100  0.26133033  0.19841014  1.0
  Ni  Ni472  1  0.58801100  0.59466367  0.19841014  1.0
  Ni  Ni473  1  0.58801100  0.92799700  0.19841014  1.0
  Ni  Ni474  1  0.92134433  0.26133033  0.19841014  1.0
  Ni  Ni475  1  0.92134433  0.59466367  0.19841014  1.0
  Ni  Ni476  1  0.92134433  0.92799700  0.19841014  1.0
  Ni  Ni477  1  0.07865567  0.07200300  0.22477700  1.0
  Ni  Ni478  1  0.07865567  0.40533633  0.22477700  1.0
  Ni  Ni479  1  0.07865567  0.73866967  0.22477700  1.0
  Ni  Ni480  1  0.41198900  0.07200300  0.22477700  1.0
  Ni  Ni481  1  0.41198900  0.40533633  0.22477700  1.0
  Ni  Ni482  1  0.41198900  0.73866967  0.22477700  1.0
  Ni  Ni483  1  0.74532233  0.07200300  0.22477700  1.0
  Ni  Ni484  1  0.74532233  0.40533633  0.22477700  1.0
  Ni  Ni485  1  0.74532233  0.73866967  0.22477700  1.0
  Ni  Ni486  1  0.32781567  0.08344367  0.17754143  1.0
  Ni  Ni487  1  0.32781567  0.41677700  0.17754143  1.0
  Ni  Ni488  1  0.32781567  0.75011033  0.17754143  1.0
  Ni  Ni489  1  0.66114900  0.08344367  0.17754143  1.0
  Ni  Ni490  1  0.66114900  0.41677700  0.17754143  1.0
  Ni  Ni491  1  0.66114900  0.75011033  0.17754143  1.0
  Ni  Ni492  1  0.99448233  0.08344367  0.17754143  1.0
  Ni  Ni493  1  0.99448233  0.41677700  0.17754143  1.0
  Ni  Ni494  1  0.99448233  0.75011033  0.17754143  1.0
  Ni  Ni495  1  0.00551767  0.24988967  0.24564571  1.0
  Ni  Ni496  1  0.00551767  0.58322300  0.24564571  1.0
  Ni  Ni497  1  0.00551767  0.91655633  0.24564571  1.0
  Ni  Ni498  1  0.33885100  0.24988967  0.24564571  1.0
  Ni  Ni499  1  0.33885100  0.58322300  0.24564571  1.0
  Ni  Ni500  1  0.33885100  0.91655633  0.24564571  1.0
  Ni  Ni501  1  0.67218433  0.24988967  0.24564571  1.0
  Ni  Ni502  1  0.67218433  0.58322300  0.24564571  1.0
  Ni  Ni503  1  0.67218433  0.91655633  0.24564571  1.0
  Ni  Ni504  1  0.18069633  0.02081433  0.19189729  1.0
  Ni  Ni505  1  0.18069633  0.35414767  0.19189729  1.0
  Ni  Ni506  1  0.18069633  0.68748100  0.19189729  1.0
  Ni  Ni507  1  0.51402967  0.02081433  0.19189729  1.0
  Ni  Ni508  1  0.51402967  0.35414767  0.19189729  1.0
  Ni  Ni509  1  0.51402967  0.68748100  0.19189729  1.0
  Ni  Ni510  1  0.84736300  0.02081433  0.19189729  1.0
  Ni  Ni511  1  0.84736300  0.35414767  0.19189729  1.0
  Ni  Ni512  1  0.84736300  0.68748100  0.19189729  1.0
  Ni  Ni513  1  0.15263700  0.31251900  0.23128986  1.0
  Ni  Ni514  1  0.15263700  0.64585233  0.23128986  1.0
  Ni  Ni515  1  0.15263700  0.97918567  0.23128986  1.0
  Ni  Ni516  1  0.48597033  0.31251900  0.23128986  1.0
  Ni  Ni517  1  0.48597033  0.64585233  0.23128986  1.0
  Ni  Ni518  1  0.48597033  0.97918567  0.23128986  1.0
  Ni  Ni519  1  0.81930367  0.31251900  0.23128986  1.0
  Ni  Ni520  1  0.81930367  0.64585233  0.23128986  1.0
  Ni  Ni521  1  0.81930367  0.97918567  0.23128986  1.0
  Ni  Ni522  1  0.19520267  0.12122067  0.20779557  1.0
  Ni  Ni523  1  0.19520267  0.45455400  0.20779557  1.0
  Ni  Ni524  1  0.19520267  0.78788733  0.20779557  1.0
  Ni  Ni525  1  0.52853600  0.12122067  0.20779557  1.0
  Ni  Ni526  1  0.52853600  0.45455400  0.20779557  1.0
  Ni  Ni527  1  0.52853600  0.78788733  0.20779557  1.0
  Ni  Ni528  1  0.86186933  0.12122067  0.20779557  1.0
  Ni  Ni529  1  0.86186933  0.45455400  0.20779557  1.0
  Ni  Ni530  1  0.86186933  0.78788733  0.20779557  1.0
  Ni  Ni531  1  0.13813067  0.21211267  0.21539157  1.0
  Ni  Ni532  1  0.13813067  0.54544600  0.21539157  1.0
  Ni  Ni533  1  0.13813067  0.87877933  0.21539157  1.0
  Ni  Ni534  1  0.47146400  0.21211267  0.21539157  1.0
  Ni  Ni535  1  0.47146400  0.54544600  0.21539157  1.0
  Ni  Ni536  1  0.47146400  0.87877933  0.21539157  1.0
  Ni  Ni537  1  0.80479733  0.21211267  0.21539157  1.0
  Ni  Ni538  1  0.80479733  0.54544600  0.21539157  1.0
  Ni  Ni539  1  0.80479733  0.87877933  0.21539157  1.0
  Ni  Ni540  1  0.23699867  0.21205100  0.25317000  1.0
  Ni  Ni541  1  0.23699867  0.54538433  0.25317000  1.0
  Ni  Ni542  1  0.23699867  0.87871767  0.25317000  1.0
  Ni  Ni543  1  0.57033200  0.21205100  0.25317000  1.0
  Ni  Ni544  1  0.57033200  0.54538433  0.25317000  1.0
  Ni  Ni545  1  0.57033200  0.87871767  0.25317000  1.0
  Ni  Ni546  1  0.90366533  0.21205100  0.25317000  1.0
  Ni  Ni547  1  0.90366533  0.54538433  0.25317000  1.0
  Ni  Ni548  1  0.90366533  0.87871767  0.25317000  1.0
  Ni  Ni549  1  0.09633467  0.12128233  0.17001714  1.0
  Ni  Ni550  1  0.09633467  0.45461567  0.17001714  1.0
  Ni  Ni551  1  0.09633467  0.78794900  0.17001714  1.0
  Ni  Ni552  1  0.42966800  0.12128233  0.17001714  1.0
  Ni  Ni553  1  0.42966800  0.45461567  0.17001714  1.0
  Ni  Ni554  1  0.42966800  0.78794900  0.17001714  1.0
  Ni  Ni555  1  0.76300133  0.12128233  0.17001714  1.0
  Ni  Ni556  1  0.76300133  0.45461567  0.17001714  1.0
  Ni  Ni557  1  0.76300133  0.78794900  0.17001714  1.0
  Ni  Ni558  1  0.14104367  0.09120567  0.21764857  1.0
  Ni  Ni559  1  0.14104367  0.42453900  0.21764857  1.0
  Ni  Ni560  1  0.14104367  0.75787233  0.21764857  1.0
  Ni  Ni561  1  0.47437700  0.09120567  0.21764857  1.0
  Ni  Ni562  1  0.47437700  0.42453900  0.21764857  1.0
  Ni  Ni563  1  0.47437700  0.75787233  0.21764857  1.0
  Ni  Ni564  1  0.80771033  0.09120567  0.21764857  1.0
  Ni  Ni565  1  0.80771033  0.42453900  0.21764857  1.0
  Ni  Ni566  1  0.80771033  0.75787233  0.21764857  1.0
  Ni  Ni567  1  0.19228967  0.24212767  0.20553857  1.0
  Ni  Ni568  1  0.19228967  0.57546100  0.20553857  1.0
  Ni  Ni569  1  0.19228967  0.90879433  0.20553857  1.0
  Ni  Ni570  1  0.52562300  0.24212767  0.20553857  1.0
  Ni  Ni571  1  0.52562300  0.57546100  0.20553857  1.0
  Ni  Ni572  1  0.52562300  0.90879433  0.20553857  1.0
  Ni  Ni573  1  0.85895633  0.24212767  0.20553857  1.0
  Ni  Ni574  1  0.85895633  0.57546100  0.20553857  1.0
  Ni  Ni575  1  0.85895633  0.90879433  0.20553857  1.0
  Ni  Ni576  1  0.00057167  0.11245600  0.28416814  1.0
  Ni  Ni577  1  0.00057167  0.44578933  0.28416814  1.0
  Ni  Ni578  1  0.00057167  0.77912267  0.28416814  1.0
  Ni  Ni579  1  0.33390500  0.11245600  0.28416814  1.0
  Ni  Ni580  1  0.33390500  0.44578933  0.28416814  1.0
  Ni  Ni581  1  0.33390500  0.77912267  0.28416814  1.0
  Ni  Ni582  1  0.66723833  0.11245600  0.28416814  1.0
  Ni  Ni583  1  0.66723833  0.44578933  0.28416814  1.0
  Ni  Ni584  1  0.66723833  0.77912267  0.28416814  1.0
  Ni  Ni585  1  0.33276167  0.22087733  0.28187614  1.0
  Ni  Ni586  1  0.33276167  0.55421067  0.28187614  1.0
  Ni  Ni587  1  0.33276167  0.88754400  0.28187614  1.0
  Ni  Ni588  1  0.66609500  0.22087733  0.28187614  1.0
  Ni  Ni589  1  0.66609500  0.55421067  0.28187614  1.0
  Ni  Ni590  1  0.66609500  0.88754400  0.28187614  1.0
  Ni  Ni591  1  0.99942833  0.22087733  0.28187614  1.0
  Ni  Ni592  1  0.99942833  0.55421067  0.28187614  1.0
  Ni  Ni593  1  0.99942833  0.88754400  0.28187614  1.0
  Ni  Ni594  1  0.28472700  0.02714133  0.23468457  1.0
  Ni  Ni595  1  0.28472700  0.36047467  0.23468457  1.0
  Ni  Ni596  1  0.28472700  0.69380800  0.23468457  1.0
  Ni  Ni597  1  0.61806033  0.02714133  0.23468457  1.0
  Ni  Ni598  1  0.61806033  0.36047467  0.23468457  1.0
  Ni  Ni599  1  0.61806033  0.69380800  0.23468457  1.0
  Ni  Ni600  1  0.95139367  0.02714133  0.23468457  1.0
  Ni  Ni601  1  0.95139367  0.36047467  0.23468457  1.0
  Ni  Ni602  1  0.95139367  0.69380800  0.23468457  1.0
  Ni  Ni603  1  0.04860633  0.30619200  0.18850257  1.0
  Ni  Ni604  1  0.04860633  0.63952533  0.18850257  1.0
  Ni  Ni605  1  0.04860633  0.97285867  0.18850257  1.0
  Ni  Ni606  1  0.38193967  0.30619200  0.18850257  1.0
  Ni  Ni607  1  0.38193967  0.63952533  0.18850257  1.0
  Ni  Ni608  1  0.38193967  0.97285867  0.18850257  1.0
  Ni  Ni609  1  0.71527300  0.30619200  0.18850257  1.0
  Ni  Ni610  1  0.71527300  0.63952533  0.18850257  1.0
  Ni  Ni611  1  0.71527300  0.97285867  0.18850257  1.0
  Ni  Ni612  1  0.00000000  0.16666667  0.21159357  1.0
  Ni  Ni613  1  0.00000000  0.50000000  0.21159357  1.0
  Ni  Ni614  1  0.00000000  0.83333333  0.21159357  1.0
  Ni  Ni615  1  0.33333333  0.16666667  0.21159357  1.0
  Ni  Ni616  1  0.33333333  0.50000000  0.21159357  1.0
  Ni  Ni617  1  0.33333333  0.83333333  0.21159357  1.0
  Ni  Ni618  1  0.66666667  0.16666667  0.21159357  1.0
  Ni  Ni619  1  0.66666667  0.50000000  0.21159357  1.0
  Ni  Ni620  1  0.66666667  0.83333333  0.21159357  1.0
  Ni  Ni621  1  0.18144067  0.06683600  0.26785014  1.0
  Ni  Ni622  1  0.18144067  0.40016933  0.26785014  1.0
  Ni  Ni623  1  0.18144067  0.73350267  0.26785014  1.0
  Ni  Ni624  1  0.51477400  0.06683600  0.26785014  1.0
  Ni  Ni625  1  0.51477400  0.40016933  0.26785014  1.0
  Ni  Ni626  1  0.51477400  0.73350267  0.26785014  1.0
  Ni  Ni627  1  0.84810733  0.06683600  0.26785014  1.0
  Ni  Ni628  1  0.84810733  0.40016933  0.26785014  1.0
  Ni  Ni629  1  0.84810733  0.73350267  0.26785014  1.0
  Ni  Ni630  1  0.15189267  0.26649733  0.15533700  1.0
  Ni  Ni631  1  0.15189267  0.59983067  0.15533700  1.0
  Ni  Ni632  1  0.15189267  0.93316400  0.15533700  1.0
  Ni  Ni633  1  0.48522600  0.26649733  0.15533700  1.0
  Ni  Ni634  1  0.48522600  0.59983067  0.15533700  1.0
  Ni  Ni635  1  0.48522600  0.93316400  0.15533700  1.0
  Ni  Ni636  1  0.81855933  0.26649733  0.15533700  1.0
  Ni  Ni637  1  0.81855933  0.59983067  0.15533700  1.0
  Ni  Ni638  1  0.81855933  0.93316400  0.15533700  1.0
  Ni  Ni639  1  0.07796033  0.13880200  0.22286414  1.0
  Ni  Ni640  1  0.07796033  0.47213533  0.22286414  1.0
  Ni  Ni641  1  0.07796033  0.80546867  0.22286414  1.0
  Ni  Ni642  1  0.41129367  0.13880200  0.22286414  1.0
  Ni  Ni643  1  0.41129367  0.47213533  0.22286414  1.0
  Ni  Ni644  1  0.41129367  0.80546867  0.22286414  1.0
  Ni  Ni645  1  0.74462700  0.13880200  0.22286414  1.0
  Ni  Ni646  1  0.74462700  0.47213533  0.22286414  1.0
  Ni  Ni647  1  0.74462700  0.80546867  0.22286414  1.0
  Ni  Ni648  1  0.25537300  0.19453133  0.20032300  1.0
  Ni  Ni649  1  0.25537300  0.52786467  0.20032300  1.0
  Ni  Ni650  1  0.25537300  0.86119800  0.20032300  1.0
  Ni  Ni651  1  0.58870633  0.19453133  0.20032300  1.0
  Ni  Ni652  1  0.58870633  0.52786467  0.20032300  1.0
  Ni  Ni653  1  0.58870633  0.86119800  0.20032300  1.0
  Ni  Ni654  1  0.92203967  0.19453133  0.20032300  1.0
  Ni  Ni655  1  0.92203967  0.52786467  0.20032300  1.0
  Ni  Ni656  1  0.92203967  0.86119800  0.20032300  1.0
  Ni  Ni657  1  0.23312300  0.05045600  0.18356214  1.0
  Ni  Ni658  1  0.23312300  0.38378933  0.18356214  1.0
  Ni  Ni659  1  0.23312300  0.71712267  0.18356214  1.0
  Ni  Ni660  1  0.56645633  0.05045600  0.18356214  1.0
  Ni  Ni661  1  0.56645633  0.38378933  0.18356214  1.0
  Ni  Ni662  1  0.56645633  0.71712267  0.18356214  1.0
  Ni  Ni663  1  0.89978967  0.05045600  0.18356214  1.0
  Ni  Ni664  1  0.89978967  0.38378933  0.18356214  1.0
  Ni  Ni665  1  0.89978967  0.71712267  0.18356214  1.0
  Ni  Ni666  1  0.10021033  0.28287733  0.23962500  1.0
  Ni  Ni667  1  0.10021033  0.61621067  0.23962500  1.0
  Ni  Ni668  1  0.10021033  0.94954400  0.23962500  1.0
  Ni  Ni669  1  0.43354367  0.28287733  0.23962500  1.0
  Ni  Ni670  1  0.43354367  0.61621067  0.23962500  1.0
  Ni  Ni671  1  0.43354367  0.94954400  0.23962500  1.0
  Ni  Ni672  1  0.76687700  0.28287733  0.23962500  1.0
  Ni  Ni673  1  0.76687700  0.61621067  0.23962500  1.0
  Ni  Ni674  1  0.76687700  0.94954400  0.23962500  1.0
  Ni  Ni675  1  0.04795267  0.05482367  0.14960600  1.0
  Ni  Ni676  1  0.04795267  0.38815700  0.14960600  1.0
  Ni  Ni677  1  0.04795267  0.72149033  0.14960600  1.0
  Ni  Ni678  1  0.38128600  0.05482367  0.14960600  1.0
  Ni  Ni679  1  0.38128600  0.38815700  0.14960600  1.0
  Ni  Ni680  1  0.38128600  0.72149033  0.14960600  1.0
  Ni  Ni681  1  0.71461933  0.05482367  0.14960600  1.0
  Ni  Ni682  1  0.71461933  0.38815700  0.14960600  1.0
  Ni  Ni683  1  0.71461933  0.72149033  0.14960600  1.0
  Ni  Ni684  1  0.28538067  0.27850967  0.27358114  1.0
  Ni  Ni685  1  0.28538067  0.61184300  0.27358114  1.0
  Ni  Ni686  1  0.28538067  0.94517633  0.27358114  1.0
  Ni  Ni687  1  0.61871400  0.27850967  0.27358114  1.0
  Ni  Ni688  1  0.61871400  0.61184300  0.27358114  1.0
  Ni  Ni689  1  0.61871400  0.94517633  0.27358114  1.0
  Ni  Ni690  1  0.95204733  0.27850967  0.27358114  1.0
  Ni  Ni691  1  0.95204733  0.61184300  0.27358114  1.0
  Ni  Ni692  1  0.95204733  0.94517633  0.27358114  1.0
  Ni  Ni693  1  0.00000000  0.00000000  0.28302214  1.0
  Ni  Ni694  1  0.00000000  0.33333333  0.28302214  1.0
  Ni  Ni695  1  0.00000000  0.66666667  0.28302214  1.0
  Ni  Ni696  1  0.33333333  0.00000000  0.28302214  1.0
  Ni  Ni697  1  0.33333333  0.33333333  0.28302214  1.0
  Ni  Ni698  1  0.33333333  0.66666667  0.28302214  1.0
  Ni  Ni699  1  0.66666667  0.00000000  0.28302214  1.0
  Ni  Ni700  1  0.66666667  0.33333333  0.28302214  1.0
  Ni  Ni701  1  0.66666667  0.66666667  0.28302214  1.0
  Ni  Ni702  1  0.28521600  0.18753700  0.15722400  1.0
  Ni  Ni703  1  0.28521600  0.52087033  0.15722400  1.0
  Ni  Ni704  1  0.28521600  0.85420367  0.15722400  1.0
  Ni  Ni705  1  0.61854933  0.18753700  0.15722400  1.0
  Ni  Ni706  1  0.61854933  0.52087033  0.15722400  1.0
  Ni  Ni707  1  0.61854933  0.85420367  0.15722400  1.0
  Ni  Ni708  1  0.95188267  0.18753700  0.15722400  1.0
  Ni  Ni709  1  0.95188267  0.52087033  0.15722400  1.0
  Ni  Ni710  1  0.95188267  0.85420367  0.15722400  1.0
  Ni  Ni711  1  0.04811733  0.14579633  0.26596314  1.0
  Ni  Ni712  1  0.04811733  0.47912967  0.26596314  1.0
  Ni  Ni713  1  0.04811733  0.81246300  0.26596314  1.0
  Ni  Ni714  1  0.38145067  0.14579633  0.26596314  1.0
  Ni  Ni715  1  0.38145067  0.47912967  0.26596314  1.0
  Ni  Ni716  1  0.38145067  0.81246300  0.26596314  1.0
  Ni  Ni717  1  0.71478400  0.14579633  0.26596314  1.0
  Ni  Ni718  1  0.71478400  0.47912967  0.26596314  1.0
  Ni  Ni719  1  0.71478400  0.81246300  0.26596314  1.0
  In  In720  1  0.27895600  0.13183867  0.36255014  1.0
  In  In721  1  0.27895600  0.46517200  0.36255014  1.0
  In  In722  1  0.27895600  0.79850533  0.36255014  1.0
  In  In723  1  0.61228933  0.13183867  0.36255014  1.0
  In  In724  1  0.61228933  0.46517200  0.36255014  1.0
  In  In725  1  0.61228933  0.79850533  0.36255014  1.0
  In  In726  1  0.94562267  0.13183867  0.36255014  1.0
  In  In727  1  0.94562267  0.46517200  0.36255014  1.0
  In  In728  1  0.94562267  0.79850533  0.36255014  1.0
  In  In729  1  0.05437733  0.20149467  0.34635129  1.0
  In  In730  1  0.05437733  0.53482800  0.34635129  1.0
  In  In731  1  0.05437733  0.86816133  0.34635129  1.0
  In  In732  1  0.38771067  0.20149467  0.34635129  1.0
  In  In733  1  0.38771067  0.53482800  0.34635129  1.0
  In  In734  1  0.38771067  0.86816133  0.34635129  1.0
  In  In735  1  0.72104400  0.20149467  0.34635129  1.0
  In  In736  1  0.72104400  0.53482800  0.34635129  1.0
  In  In737  1  0.72104400  0.86816133  0.34635129  1.0
  In  In738  1  0.23740900  0.00494600  0.39610900  1.0
  In  In739  1  0.23740900  0.33827933  0.39610900  1.0
  In  In740  1  0.23740900  0.67161267  0.39610900  1.0
  In  In741  1  0.57074233  0.00494600  0.39610900  1.0
  In  In742  1  0.57074233  0.33827933  0.39610900  1.0
  In  In743  1  0.57074233  0.67161267  0.39610900  1.0
  In  In744  1  0.90407567  0.00494600  0.39610900  1.0
  In  In745  1  0.90407567  0.33827933  0.39610900  1.0
  In  In746  1  0.90407567  0.67161267  0.39610900  1.0
  In  In747  1  0.09592433  0.32838733  0.31279243  1.0
  In  In748  1  0.09592433  0.66172067  0.31279243  1.0
  In  In749  1  0.09592433  0.99505400  0.31279243  1.0
  In  In750  1  0.42925767  0.32838733  0.31279243  1.0
  In  In751  1  0.42925767  0.66172067  0.31279243  1.0
  In  In752  1  0.42925767  0.99505400  0.31279243  1.0
  In  In753  1  0.76259100  0.32838733  0.31279243  1.0
  In  In754  1  0.76259100  0.66172067  0.31279243  1.0
  In  In755  1  0.76259100  0.99505400  0.31279243  1.0
  In  In756  1  0.17618200  0.18481967  0.40768171  1.0
  In  In757  1  0.17618200  0.51815300  0.40768171  1.0
  In  In758  1  0.17618200  0.85148633  0.40768171  1.0
  In  In759  1  0.50951533  0.18481967  0.40768171  1.0
  In  In760  1  0.50951533  0.51815300  0.40768171  1.0
  In  In761  1  0.50951533  0.85148633  0.40768171  1.0
  In  In762  1  0.84284867  0.18481967  0.40768171  1.0
  In  In763  1  0.84284867  0.51815300  0.40768171  1.0
  In  In764  1  0.84284867  0.85148633  0.40768171  1.0
  In  In765  1  0.15715133  0.14851367  0.30121971  1.0
  In  In766  1  0.15715133  0.48184700  0.30121971  1.0
  In  In767  1  0.15715133  0.81518033  0.30121971  1.0
  In  In768  1  0.49048467  0.14851367  0.30121971  1.0
  In  In769  1  0.49048467  0.48184700  0.30121971  1.0
  In  In770  1  0.49048467  0.81518033  0.30121971  1.0
  In  In771  1  0.82381800  0.14851367  0.30121971  1.0
  In  In772  1  0.82381800  0.48184700  0.30121971  1.0
  In  In773  1  0.82381800  0.81518033  0.30121971  1.0
  In  In774  1  0.12164533  0.04147033  0.42049500  1.0
  In  In775  1  0.12164533  0.37480367  0.42049500  1.0
  In  In776  1  0.12164533  0.70813700  0.42049500  1.0
  In  In777  1  0.45497867  0.04147033  0.42049500  1.0
  In  In778  1  0.45497867  0.37480367  0.42049500  1.0
  In  In779  1  0.45497867  0.70813700  0.42049500  1.0
  In  In780  1  0.78831200  0.04147033  0.42049500  1.0
  In  In781  1  0.78831200  0.37480367  0.42049500  1.0
  In  In782  1  0.78831200  0.70813700  0.42049500  1.0
  In  In783  1  0.21168800  0.29186300  0.28840643  1.0
  In  In784  1  0.21168800  0.62519633  0.28840643  1.0
  In  In785  1  0.21168800  0.95852967  0.28840643  1.0
  In  In786  1  0.54502133  0.29186300  0.28840643  1.0
  In  In787  1  0.54502133  0.62519633  0.28840643  1.0
  In  In788  1  0.54502133  0.95852967  0.28840643  1.0
  In  In789  1  0.87835467  0.29186300  0.28840643  1.0
  In  In790  1  0.87835467  0.62519633  0.28840643  1.0
  In  In791  1  0.87835467  0.95852967  0.28840643  1.0
  In  In792  1  0.33225800  0.28862000  0.35198471  1.0
  In  In793  1  0.33225800  0.62195333  0.35198471  1.0
  In  In794  1  0.33225800  0.95528667  0.35198471  1.0
  In  In795  1  0.66559133  0.28862000  0.35198471  1.0
  In  In796  1  0.66559133  0.62195333  0.35198471  1.0
  In  In797  1  0.66559133  0.95528667  0.35198471  1.0
  In  In798  1  0.99892467  0.28862000  0.35198471  1.0
  In  In799  1  0.99892467  0.62195333  0.35198471  1.0
  In  In800  1  0.99892467  0.95528667  0.35198471  1.0
  In  In801  1  0.00107533  0.04471333  0.35691671  1.0
  In  In802  1  0.00107533  0.37804667  0.35691671  1.0
  In  In803  1  0.00107533  0.71138000  0.35691671  1.0
  In  In804  1  0.33440867  0.04471333  0.35691671  1.0
  In  In805  1  0.33440867  0.37804667  0.35691671  1.0
  In  In806  1  0.33440867  0.71138000  0.35691671  1.0
  In  In807  1  0.66774200  0.04471333  0.35691671  1.0
  In  In808  1  0.66774200  0.37804667  0.35691671  1.0
  In  In809  1  0.66774200  0.71138000  0.35691671  1.0
  In  In810  1  0.24424933  0.10452000  0.41070100  1.0
  In  In811  1  0.24424933  0.43785333  0.41070100  1.0
  In  In812  1  0.24424933  0.77118667  0.41070100  1.0
  In  In813  1  0.57758267  0.10452000  0.41070100  1.0
  In  In814  1  0.57758267  0.43785333  0.41070100  1.0
  In  In815  1  0.57758267  0.77118667  0.41070100  1.0
  In  In816  1  0.91091600  0.10452000  0.41070100  1.0
  In  In817  1  0.91091600  0.43785333  0.41070100  1.0
  In  In818  1  0.91091600  0.77118667  0.41070100  1.0
  In  In819  1  0.08908400  0.22881333  0.29820043  1.0
  In  In820  1  0.08908400  0.56214667  0.29820043  1.0
  In  In821  1  0.08908400  0.89548000  0.29820043  1.0
  In  In822  1  0.42241733  0.22881333  0.29820043  1.0
  In  In823  1  0.42241733  0.56214667  0.29820043  1.0
  In  In824  1  0.42241733  0.89548000  0.29820043  1.0
  In  In825  1  0.75575067  0.22881333  0.29820043  1.0
  In  In826  1  0.75575067  0.56214667  0.29820043  1.0
  In  In827  1  0.75575067  0.89548000  0.29820043  1.0
  Ni  Ni828  1  0.25467767  0.26133033  0.34126729  1.0
  Ni  Ni829  1  0.25467767  0.59466367  0.34126729  1.0
  Ni  Ni830  1  0.25467767  0.92799700  0.34126729  1.0
  Ni  Ni831  1  0.58801100  0.26133033  0.34126729  1.0
  Ni  Ni832  1  0.58801100  0.59466367  0.34126729  1.0
  Ni  Ni833  1  0.58801100  0.92799700  0.34126729  1.0
  Ni  Ni834  1  0.92134433  0.26133033  0.34126729  1.0
  Ni  Ni835  1  0.92134433  0.59466367  0.34126729  1.0
  Ni  Ni836  1  0.92134433  0.92799700  0.34126729  1.0
  Ni  Ni837  1  0.07865567  0.07200300  0.36763414  1.0
  Ni  Ni838  1  0.07865567  0.40533633  0.36763414  1.0
  Ni  Ni839  1  0.07865567  0.73866967  0.36763414  1.0
  Ni  Ni840  1  0.41198900  0.07200300  0.36763414  1.0
  Ni  Ni841  1  0.41198900  0.40533633  0.36763414  1.0
  Ni  Ni842  1  0.41198900  0.73866967  0.36763414  1.0
  Ni  Ni843  1  0.74532233  0.07200300  0.36763414  1.0
  Ni  Ni844  1  0.74532233  0.40533633  0.36763414  1.0
  Ni  Ni845  1  0.74532233  0.73866967  0.36763414  1.0
  Ni  Ni846  1  0.32781567  0.08344367  0.32039857  1.0
  Ni  Ni847  1  0.32781567  0.41677700  0.32039857  1.0
  Ni  Ni848  1  0.32781567  0.75011033  0.32039857  1.0
  Ni  Ni849  1  0.66114900  0.08344367  0.32039857  1.0
  Ni  Ni850  1  0.66114900  0.41677700  0.32039857  1.0
  Ni  Ni851  1  0.66114900  0.75011033  0.32039857  1.0
  Ni  Ni852  1  0.99448233  0.08344367  0.32039857  1.0
  Ni  Ni853  1  0.99448233  0.41677700  0.32039857  1.0
  Ni  Ni854  1  0.99448233  0.75011033  0.32039857  1.0
  Ni  Ni855  1  0.00551767  0.24988967  0.38850286  1.0
  Ni  Ni856  1  0.00551767  0.58322300  0.38850286  1.0
  Ni  Ni857  1  0.00551767  0.91655633  0.38850286  1.0
  Ni  Ni858  1  0.33885100  0.24988967  0.38850286  1.0
  Ni  Ni859  1  0.33885100  0.58322300  0.38850286  1.0
  Ni  Ni860  1  0.33885100  0.91655633  0.38850286  1.0
  Ni  Ni861  1  0.67218433  0.24988967  0.38850286  1.0
  Ni  Ni862  1  0.67218433  0.58322300  0.38850286  1.0
  Ni  Ni863  1  0.67218433  0.91655633  0.38850286  1.0
  Ni  Ni864  1  0.18069633  0.02081433  0.33475443  1.0
  Ni  Ni865  1  0.18069633  0.35414767  0.33475443  1.0
  Ni  Ni866  1  0.18069633  0.68748100  0.33475443  1.0
  Ni  Ni867  1  0.51402967  0.02081433  0.33475443  1.0
  Ni  Ni868  1  0.51402967  0.35414767  0.33475443  1.0
  Ni  Ni869  1  0.51402967  0.68748100  0.33475443  1.0
  Ni  Ni870  1  0.84736300  0.02081433  0.33475443  1.0
  Ni  Ni871  1  0.84736300  0.35414767  0.33475443  1.0
  Ni  Ni872  1  0.84736300  0.68748100  0.33475443  1.0
  Ni  Ni873  1  0.15263700  0.31251900  0.37414700  1.0
  Ni  Ni874  1  0.15263700  0.64585233  0.37414700  1.0
  Ni  Ni875  1  0.15263700  0.97918567  0.37414700  1.0
  Ni  Ni876  1  0.48597033  0.31251900  0.37414700  1.0
  Ni  Ni877  1  0.48597033  0.64585233  0.37414700  1.0
  Ni  Ni878  1  0.48597033  0.97918567  0.37414700  1.0
  Ni  Ni879  1  0.81930367  0.31251900  0.37414700  1.0
  Ni  Ni880  1  0.81930367  0.64585233  0.37414700  1.0
  Ni  Ni881  1  0.81930367  0.97918567  0.37414700  1.0
  Ni  Ni882  1  0.19520267  0.12122067  0.35065271  1.0
  Ni  Ni883  1  0.19520267  0.45455400  0.35065271  1.0
  Ni  Ni884  1  0.19520267  0.78788733  0.35065271  1.0
  Ni  Ni885  1  0.52853600  0.12122067  0.35065271  1.0
  Ni  Ni886  1  0.52853600  0.45455400  0.35065271  1.0
  Ni  Ni887  1  0.52853600  0.78788733  0.35065271  1.0
  Ni  Ni888  1  0.86186933  0.12122067  0.35065271  1.0
  Ni  Ni889  1  0.86186933  0.45455400  0.35065271  1.0
  Ni  Ni890  1  0.86186933  0.78788733  0.35065271  1.0
  Ni  Ni891  1  0.13813067  0.21211267  0.35824871  1.0
  Ni  Ni892  1  0.13813067  0.54544600  0.35824871  1.0
  Ni  Ni893  1  0.13813067  0.87877933  0.35824871  1.0
  Ni  Ni894  1  0.47146400  0.21211267  0.35824871  1.0
  Ni  Ni895  1  0.47146400  0.54544600  0.35824871  1.0
  Ni  Ni896  1  0.47146400  0.87877933  0.35824871  1.0
  Ni  Ni897  1  0.80479733  0.21211267  0.35824871  1.0
  Ni  Ni898  1  0.80479733  0.54544600  0.35824871  1.0
  Ni  Ni899  1  0.80479733  0.87877933  0.35824871  1.0
  Ni  Ni900  1  0.23699867  0.21205100  0.39602714  1.0
  Ni  Ni901  1  0.23699867  0.54538433  0.39602714  1.0
  Ni  Ni902  1  0.23699867  0.87871767  0.39602714  1.0
  Ni  Ni903  1  0.57033200  0.21205100  0.39602714  1.0
  Ni  Ni904  1  0.57033200  0.54538433  0.39602714  1.0
  Ni  Ni905  1  0.57033200  0.87871767  0.39602714  1.0
  Ni  Ni906  1  0.90366533  0.21205100  0.39602714  1.0
  Ni  Ni907  1  0.90366533  0.54538433  0.39602714  1.0
  Ni  Ni908  1  0.90366533  0.87871767  0.39602714  1.0
  Ni  Ni909  1  0.09633467  0.12128233  0.31287429  1.0
  Ni  Ni910  1  0.09633467  0.45461567  0.31287429  1.0
  Ni  Ni911  1  0.09633467  0.78794900  0.31287429  1.0
  Ni  Ni912  1  0.42966800  0.12128233  0.31287429  1.0
  Ni  Ni913  1  0.42966800  0.45461567  0.31287429  1.0
  Ni  Ni914  1  0.42966800  0.78794900  0.31287429  1.0
  Ni  Ni915  1  0.76300133  0.12128233  0.31287429  1.0
  Ni  Ni916  1  0.76300133  0.45461567  0.31287429  1.0
  Ni  Ni917  1  0.76300133  0.78794900  0.31287429  1.0
  Ni  Ni918  1  0.14104367  0.09120567  0.36050571  1.0
  Ni  Ni919  1  0.14104367  0.42453900  0.36050571  1.0
  Ni  Ni920  1  0.14104367  0.75787233  0.36050571  1.0
  Ni  Ni921  1  0.47437700  0.09120567  0.36050571  1.0
  Ni  Ni922  1  0.47437700  0.42453900  0.36050571  1.0
  Ni  Ni923  1  0.47437700  0.75787233  0.36050571  1.0
  Ni  Ni924  1  0.80771033  0.09120567  0.36050571  1.0
  Ni  Ni925  1  0.80771033  0.42453900  0.36050571  1.0
  Ni  Ni926  1  0.80771033  0.75787233  0.36050571  1.0
  Ni  Ni927  1  0.19228967  0.24212767  0.34839571  1.0
  Ni  Ni928  1  0.19228967  0.57546100  0.34839571  1.0
  Ni  Ni929  1  0.19228967  0.90879433  0.34839571  1.0
  Ni  Ni930  1  0.52562300  0.24212767  0.34839571  1.0
  Ni  Ni931  1  0.52562300  0.57546100  0.34839571  1.0
  Ni  Ni932  1  0.52562300  0.90879433  0.34839571  1.0
  Ni  Ni933  1  0.85895633  0.24212767  0.34839571  1.0
  Ni  Ni934  1  0.85895633  0.57546100  0.34839571  1.0
  Ni  Ni935  1  0.85895633  0.90879433  0.34839571  1.0
  Ni  Ni936  1  0.00057167  0.11245600  0.42702529  1.0
  Ni  Ni937  1  0.00057167  0.44578933  0.42702529  1.0
  Ni  Ni938  1  0.00057167  0.77912267  0.42702529  1.0
  Ni  Ni939  1  0.33390500  0.11245600  0.42702529  1.0
  Ni  Ni940  1  0.33390500  0.44578933  0.42702529  1.0
  Ni  Ni941  1  0.33390500  0.77912267  0.42702529  1.0
  Ni  Ni942  1  0.66723833  0.11245600  0.42702529  1.0
  Ni  Ni943  1  0.66723833  0.44578933  0.42702529  1.0
  Ni  Ni944  1  0.66723833  0.77912267  0.42702529  1.0
  Ni  Ni945  1  0.33276167  0.22087733  0.42473329  1.0
  Ni  Ni946  1  0.33276167  0.55421067  0.42473329  1.0
  Ni  Ni947  1  0.33276167  0.88754400  0.42473329  1.0
  Ni  Ni948  1  0.66609500  0.22087733  0.42473329  1.0
  Ni  Ni949  1  0.66609500  0.55421067  0.42473329  1.0
  Ni  Ni950  1  0.66609500  0.88754400  0.42473329  1.0
  Ni  Ni951  1  0.99942833  0.22087733  0.42473329  1.0
  Ni  Ni952  1  0.99942833  0.55421067  0.42473329  1.0
  Ni  Ni953  1  0.99942833  0.88754400  0.42473329  1.0
  Ni  Ni954  1  0.28472700  0.02714133  0.37754171  1.0
  Ni  Ni955  1  0.28472700  0.36047467  0.37754171  1.0
  Ni  Ni956  1  0.28472700  0.69380800  0.37754171  1.0
  Ni  Ni957  1  0.61806033  0.02714133  0.37754171  1.0
  Ni  Ni958  1  0.61806033  0.36047467  0.37754171  1.0
  Ni  Ni959  1  0.61806033  0.69380800  0.37754171  1.0
  Ni  Ni960  1  0.95139367  0.02714133  0.37754171  1.0
  Ni  Ni961  1  0.95139367  0.36047467  0.37754171  1.0
  Ni  Ni962  1  0.95139367  0.69380800  0.37754171  1.0
  Ni  Ni963  1  0.04860633  0.30619200  0.33135971  1.0
  Ni  Ni964  1  0.04860633  0.63952533  0.33135971  1.0
  Ni  Ni965  1  0.04860633  0.97285867  0.33135971  1.0
  Ni  Ni966  1  0.38193967  0.30619200  0.33135971  1.0
  Ni  Ni967  1  0.38193967  0.63952533  0.33135971  1.0
  Ni  Ni968  1  0.38193967  0.97285867  0.33135971  1.0
  Ni  Ni969  1  0.71527300  0.30619200  0.33135971  1.0
  Ni  Ni970  1  0.71527300  0.63952533  0.33135971  1.0
  Ni  Ni971  1  0.71527300  0.97285867  0.33135971  1.0
  Ni  Ni972  1  0.00000000  0.16666667  0.35445071  1.0
  Ni  Ni973  1  0.00000000  0.50000000  0.35445071  1.0
  Ni  Ni974  1  0.00000000  0.83333333  0.35445071  1.0
  Ni  Ni975  1  0.33333333  0.16666667  0.35445071  1.0
  Ni  Ni976  1  0.33333333  0.50000000  0.35445071  1.0
  Ni  Ni977  1  0.33333333  0.83333333  0.35445071  1.0
  Ni  Ni978  1  0.66666667  0.16666667  0.35445071  1.0
  Ni  Ni979  1  0.66666667  0.50000000  0.35445071  1.0
  Ni  Ni980  1  0.66666667  0.83333333  0.35445071  1.0
  Ni  Ni981  1  0.18144067  0.06683600  0.41070729  1.0
  Ni  Ni982  1  0.18144067  0.40016933  0.41070729  1.0
  Ni  Ni983  1  0.18144067  0.73350267  0.41070729  1.0
  Ni  Ni984  1  0.51477400  0.06683600  0.41070729  1.0
  Ni  Ni985  1  0.51477400  0.40016933  0.41070729  1.0
  Ni  Ni986  1  0.51477400  0.73350267  0.41070729  1.0
  Ni  Ni987  1  0.84810733  0.06683600  0.41070729  1.0
  Ni  Ni988  1  0.84810733  0.40016933  0.41070729  1.0
  Ni  Ni989  1  0.84810733  0.73350267  0.41070729  1.0
  Ni  Ni990  1  0.15189267  0.26649733  0.29819414  1.0
  Ni  Ni991  1  0.15189267  0.59983067  0.29819414  1.0
  Ni  Ni992  1  0.15189267  0.93316400  0.29819414  1.0
  Ni  Ni993  1  0.48522600  0.26649733  0.29819414  1.0
  Ni  Ni994  1  0.48522600  0.59983067  0.29819414  1.0
  Ni  Ni995  1  0.48522600  0.93316400  0.29819414  1.0
  Ni  Ni996  1  0.81855933  0.26649733  0.29819414  1.0
  Ni  Ni997  1  0.81855933  0.59983067  0.29819414  1.0
  Ni  Ni998  1  0.81855933  0.93316400  0.29819414  1.0
  Ni  Ni999  1  0.07796033  0.13880200  0.36572129  1.0
  Ni  Ni1000  1  0.07796033  0.47213533  0.36572129  1.0
  Ni  Ni1001  1  0.07796033  0.80546867  0.36572129  1.0
  Ni  Ni1002  1  0.41129367  0.13880200  0.36572129  1.0
  Ni  Ni1003  1  0.41129367  0.47213533  0.36572129  1.0
  Ni  Ni1004  1  0.41129367  0.80546867  0.36572129  1.0
  Ni  Ni1005  1  0.74462700  0.13880200  0.36572129  1.0
  Ni  Ni1006  1  0.74462700  0.47213533  0.36572129  1.0
  Ni  Ni1007  1  0.74462700  0.80546867  0.36572129  1.0
  Ni  Ni1008  1  0.25537300  0.19453133  0.34318014  1.0
  Ni  Ni1009  1  0.25537300  0.52786467  0.34318014  1.0
  Ni  Ni1010  1  0.25537300  0.86119800  0.34318014  1.0
  Ni  Ni1011  1  0.58870633  0.19453133  0.34318014  1.0
  Ni  Ni1012  1  0.58870633  0.52786467  0.34318014  1.0
  Ni  Ni1013  1  0.58870633  0.86119800  0.34318014  1.0
  Ni  Ni1014  1  0.92203967  0.19453133  0.34318014  1.0
  Ni  Ni1015  1  0.92203967  0.52786467  0.34318014  1.0
  Ni  Ni1016  1  0.92203967  0.86119800  0.34318014  1.0
  Ni  Ni1017  1  0.23312300  0.05045600  0.32641929  1.0
  Ni  Ni1018  1  0.23312300  0.38378933  0.32641929  1.0
  Ni  Ni1019  1  0.23312300  0.71712267  0.32641929  1.0
  Ni  Ni1020  1  0.56645633  0.05045600  0.32641929  1.0
  Ni  Ni1021  1  0.56645633  0.38378933  0.32641929  1.0
  Ni  Ni1022  1  0.56645633  0.71712267  0.32641929  1.0
  Ni  Ni1023  1  0.89978967  0.05045600  0.32641929  1.0
  Ni  Ni1024  1  0.89978967  0.38378933  0.32641929  1.0
  Ni  Ni1025  1  0.89978967  0.71712267  0.32641929  1.0
  Ni  Ni1026  1  0.10021033  0.28287733  0.38248214  1.0
  Ni  Ni1027  1  0.10021033  0.61621067  0.38248214  1.0
  Ni  Ni1028  1  0.10021033  0.94954400  0.38248214  1.0
  Ni  Ni1029  1  0.43354367  0.28287733  0.38248214  1.0
  Ni  Ni1030  1  0.43354367  0.61621067  0.38248214  1.0
  Ni  Ni1031  1  0.43354367  0.94954400  0.38248214  1.0
  Ni  Ni1032  1  0.76687700  0.28287733  0.38248214  1.0
  Ni  Ni1033  1  0.76687700  0.61621067  0.38248214  1.0
  Ni  Ni1034  1  0.76687700  0.94954400  0.38248214  1.0
  Ni  Ni1035  1  0.04795267  0.05482367  0.29246314  1.0
  Ni  Ni1036  1  0.04795267  0.38815700  0.29246314  1.0
  Ni  Ni1037  1  0.04795267  0.72149033  0.29246314  1.0
  Ni  Ni1038  1  0.38128600  0.05482367  0.29246314  1.0
  Ni  Ni1039  1  0.38128600  0.38815700  0.29246314  1.0
  Ni  Ni1040  1  0.38128600  0.72149033  0.29246314  1.0
  Ni  Ni1041  1  0.71461933  0.05482367  0.29246314  1.0
  Ni  Ni1042  1  0.71461933  0.38815700  0.29246314  1.0
  Ni  Ni1043  1  0.71461933  0.72149033  0.29246314  1.0
  Ni  Ni1044  1  0.28538067  0.27850967  0.41643829  1.0
  Ni  Ni1045  1  0.28538067  0.61184300  0.41643829  1.0
  Ni  Ni1046  1  0.28538067  0.94517633  0.41643829  1.0
  Ni  Ni1047  1  0.61871400  0.27850967  0.41643829  1.0
  Ni  Ni1048  1  0.61871400  0.61184300  0.41643829  1.0
  Ni  Ni1049  1  0.61871400  0.94517633  0.41643829  1.0
  Ni  Ni1050  1  0.95204733  0.27850967  0.41643829  1.0
  Ni  Ni1051  1  0.95204733  0.61184300  0.41643829  1.0
  Ni  Ni1052  1  0.95204733  0.94517633  0.41643829  1.0
  Ni  Ni1053  1  0.00000000  0.00000000  0.42587929  1.0
  Ni  Ni1054  1  0.00000000  0.33333333  0.42587929  1.0
  Ni  Ni1055  1  0.00000000  0.66666667  0.42587929  1.0
  Ni  Ni1056  1  0.33333333  0.00000000  0.42587929  1.0
  Ni  Ni1057  1  0.33333333  0.33333333  0.42587929  1.0
  Ni  Ni1058  1  0.33333333  0.66666667  0.42587929  1.0
  Ni  Ni1059  1  0.66666667  0.00000000  0.42587929  1.0
  Ni  Ni1060  1  0.66666667  0.33333333  0.42587929  1.0
  Ni  Ni1061  1  0.66666667  0.66666667  0.42587929  1.0
  Ni  Ni1062  1  0.28521600  0.18753700  0.30008114  1.0
  Ni  Ni1063  1  0.28521600  0.52087033  0.30008114  1.0
  Ni  Ni1064  1  0.28521600  0.85420367  0.30008114  1.0
  Ni  Ni1065  1  0.61854933  0.18753700  0.30008114  1.0
  Ni  Ni1066  1  0.61854933  0.52087033  0.30008114  1.0
  Ni  Ni1067  1  0.61854933  0.85420367  0.30008114  1.0
  Ni  Ni1068  1  0.95188267  0.18753700  0.30008114  1.0
  Ni  Ni1069  1  0.95188267  0.52087033  0.30008114  1.0
  Ni  Ni1070  1  0.95188267  0.85420367  0.30008114  1.0
  Ni  Ni1071  1  0.04811733  0.14579633  0.40882029  1.0
  Ni  Ni1072  1  0.04811733  0.47912967  0.40882029  1.0
  Ni  Ni1073  1  0.04811733  0.81246300  0.40882029  1.0
  Ni  Ni1074  1  0.38145067  0.14579633  0.40882029  1.0
  Ni  Ni1075  1  0.38145067  0.47912967  0.40882029  1.0
  Ni  Ni1076  1  0.38145067  0.81246300  0.40882029  1.0
  Ni  Ni1077  1  0.71478400  0.14579633  0.40882029  1.0
  Ni  Ni1078  1  0.71478400  0.47912967  0.40882029  1.0
  Ni  Ni1079  1  0.71478400  0.81246300  0.40882029  1.0
