# generated using pymatgen
data_In3Ni7
_symmetry_space_group_name_H-M   'P 1'
_cell_length_a   36.99454748
_cell_length_b   45.20164725
_cell_length_c   29.59783573
_cell_angle_alpha   95.96667927
_cell_angle_beta   93.41679668
_cell_angle_gamma   92.71417752
_symmetry_Int_Tables_number   1
_chemical_formula_structural   In3Ni7
_chemical_formula_sum   'In432 Ni1008'
_cell_volume   49066.76596893
_cell_formula_units_Z   144
loop_
 _symmetry_equiv_pos_site_id
 _symmetry_equiv_pos_as_xyz
  1  'x, y, z'
loop_
 _atom_site_type_symbol
 _atom_site_label
 _atom_site_symmetry_multiplicity
 _atom_site_fract_x
 _atom_site_fract_y
 _atom_site_fract_z
 _atom_site_occupancy
  In  In0  1  0.25141700  0.07355867  0.86194100  1.0
  In  In1  1  0.25141700  0.40689200  0.86194100  1.0
  In  In2  1  0.25141700  0.74022533  0.86194100  1.0
  In  In3  1  0.58475033  0.07355867  0.86194100  1.0
  In  In4  1  0.58475033  0.40689200  0.86194100  1.0
  In  In5  1  0.58475033  0.74022533  0.86194100  1.0
  In  In6  1  0.91808367  0.07355867  0.86194100  1.0
  In  In7  1  0.91808367  0.40689200  0.86194100  1.0
  In  In8  1  0.91808367  0.74022533  0.86194100  1.0
  In  In9  1  0.05141700  0.24022533  0.96194100  1.0
  In  In10  1  0.05141700  0.57355867  0.96194100  1.0
  In  In11  1  0.05141700  0.90689200  0.96194100  1.0
  In  In12  1  0.38475033  0.24022533  0.96194100  1.0
  In  In13  1  0.38475033  0.57355867  0.96194100  1.0
  In  In14  1  0.38475033  0.90689200  0.96194100  1.0
  In  In15  1  0.71808367  0.24022533  0.96194100  1.0
  In  In16  1  0.71808367  0.57355867  0.96194100  1.0
  In  In17  1  0.71808367  0.90689200  0.96194100  1.0
  In  In18  1  0.14620633  0.25977467  0.94518900  1.0
  In  In19  1  0.14620633  0.59310800  0.94518900  1.0
  In  In20  1  0.14620633  0.92644133  0.94518900  1.0
  In  In21  1  0.47953967  0.25977467  0.94518900  1.0
  In  In22  1  0.47953967  0.59310800  0.94518900  1.0
  In  In23  1  0.47953967  0.92644133  0.94518900  1.0
  In  In24  1  0.81287300  0.25977467  0.94518900  1.0
  In  In25  1  0.81287300  0.59310800  0.94518900  1.0
  In  In26  1  0.81287300  0.92644133  0.94518900  1.0
  In  In27  1  0.01287300  0.09310800  0.84518900  1.0
  In  In28  1  0.01287300  0.42644133  0.84518900  1.0
  In  In29  1  0.01287300  0.75977467  0.84518900  1.0
  In  In30  1  0.34620633  0.09310800  0.84518900  1.0
  In  In31  1  0.34620633  0.42644133  0.84518900  1.0
  In  In32  1  0.34620633  0.75977467  0.84518900  1.0
  In  In33  1  0.67953967  0.09310800  0.84518900  1.0
  In  In34  1  0.67953967  0.42644133  0.84518900  1.0
  In  In35  1  0.67953967  0.75977467  0.84518900  1.0
  In  In36  1  0.16672320  0.11623150  0.86336290  1.0
  In  In37  1  0.16672320  0.44956483  0.86336290  1.0
  In  In38  1  0.16672320  0.78289817  0.86336290  1.0
  In  In39  1  0.50005653  0.11623150  0.86336290  1.0
  In  In40  1  0.50005653  0.44956483  0.86336290  1.0
  In  In41  1  0.50005653  0.78289817  0.86336290  1.0
  In  In42  1  0.83338987  0.11623150  0.86336290  1.0
  In  In43  1  0.83338987  0.44956483  0.86336290  1.0
  In  In44  1  0.83338987  0.78289817  0.86336290  1.0
  In  In45  1  0.30005653  0.28289817  0.96336290  1.0
  In  In46  1  0.30005653  0.61623150  0.96336290  1.0
  In  In47  1  0.30005653  0.94956483  0.96336290  1.0
  In  In48  1  0.63338987  0.28289817  0.96336290  1.0
  In  In49  1  0.63338987  0.61623150  0.96336290  1.0
  In  In50  1  0.63338987  0.94956483  0.96336290  1.0
  In  In51  1  0.96672320  0.28289817  0.96336290  1.0
  In  In52  1  0.96672320  0.61623150  0.96336290  1.0
  In  In53  1  0.96672320  0.94956483  0.96336290  1.0
  In  In54  1  0.23090013  0.21710183  0.94376710  1.0
  In  In55  1  0.23090013  0.55043517  0.94376710  1.0
  In  In56  1  0.23090013  0.88376850  0.94376710  1.0
  In  In57  1  0.56423347  0.21710183  0.94376710  1.0
  In  In58  1  0.56423347  0.55043517  0.94376710  1.0
  In  In59  1  0.56423347  0.88376850  0.94376710  1.0
  In  In60  1  0.89756680  0.21710183  0.94376710  1.0
  In  In61  1  0.89756680  0.55043517  0.94376710  1.0
  In  In62  1  0.89756680  0.88376850  0.94376710  1.0
  In  In63  1  0.09756680  0.05043517  0.84376710  1.0
  In  In64  1  0.09756680  0.38376850  0.84376710  1.0
  In  In65  1  0.09756680  0.71710183  0.84376710  1.0
  In  In66  1  0.43090013  0.05043517  0.84376710  1.0
  In  In67  1  0.43090013  0.38376850  0.84376710  1.0
  In  In68  1  0.43090013  0.71710183  0.84376710  1.0
  In  In69  1  0.76423347  0.05043517  0.84376710  1.0
  In  In70  1  0.76423347  0.38376850  0.84376710  1.0
  In  In71  1  0.76423347  0.71710183  0.84376710  1.0
  In  In72  1  0.19585313  0.32901450  0.95394310  1.0
  In  In73  1  0.19585313  0.66234783  0.95394310  1.0
  In  In74  1  0.19585313  0.99568117  0.95394310  1.0
  In  In75  1  0.52918647  0.32901450  0.95394310  1.0
  In  In76  1  0.52918647  0.66234783  0.95394310  1.0
  In  In77  1  0.52918647  0.99568117  0.95394310  1.0
  In  In78  1  0.86251980  0.32901450  0.95394310  1.0
  In  In79  1  0.86251980  0.66234783  0.95394310  1.0
  In  In80  1  0.86251980  0.99568117  0.95394310  1.0
  In  In81  1  0.06251980  0.16234783  0.85394310  1.0
  In  In82  1  0.06251980  0.49568117  0.85394310  1.0
  In  In83  1  0.06251980  0.82901450  0.85394310  1.0
  In  In84  1  0.39585313  0.16234783  0.85394310  1.0
  In  In85  1  0.39585313  0.49568117  0.85394310  1.0
  In  In86  1  0.39585313  0.82901450  0.85394310  1.0
  In  In87  1  0.72918647  0.16234783  0.85394310  1.0
  In  In88  1  0.72918647  0.49568117  0.85394310  1.0
  In  In89  1  0.72918647  0.82901450  0.85394310  1.0
  In  In90  1  0.20177020  0.00431883  0.85318690  1.0
  In  In91  1  0.20177020  0.33765217  0.85318690  1.0
  In  In92  1  0.20177020  0.67098550  0.85318690  1.0
  In  In93  1  0.53510353  0.00431883  0.85318690  1.0
  In  In94  1  0.53510353  0.33765217  0.85318690  1.0
  In  In95  1  0.53510353  0.67098550  0.85318690  1.0
  In  In96  1  0.86843687  0.00431883  0.85318690  1.0
  In  In97  1  0.86843687  0.33765217  0.85318690  1.0
  In  In98  1  0.86843687  0.67098550  0.85318690  1.0
  In  In99  1  0.00177020  0.17098550  0.95318690  1.0
  In  In100  1  0.00177020  0.50431883  0.95318690  1.0
  In  In101  1  0.00177020  0.83765217  0.95318690  1.0
  In  In102  1  0.33510353  0.17098550  0.95318690  1.0
  In  In103  1  0.33510353  0.50431883  0.95318690  1.0
  In  In104  1  0.33510353  0.83765217  0.95318690  1.0
  In  In105  1  0.66843687  0.17098550  0.95318690  1.0
  In  In106  1  0.66843687  0.50431883  0.95318690  1.0
  In  In107  1  0.66843687  0.83765217  0.95318690  1.0
  In  In108  1  0.09558880  0.04008750  0.95790710  1.0
  In  In109  1  0.09558880  0.37342083  0.95790710  1.0
  In  In110  1  0.09558880  0.70675417  0.95790710  1.0
  In  In111  1  0.42892213  0.04008750  0.95790710  1.0
  In  In112  1  0.42892213  0.37342083  0.95790710  1.0
  In  In113  1  0.42892213  0.70675417  0.95790710  1.0
  In  In114  1  0.76225547  0.04008750  0.95790710  1.0
  In  In115  1  0.76225547  0.37342083  0.95790710  1.0
  In  In116  1  0.76225547  0.70675417  0.95790710  1.0
  In  In117  1  0.29558880  0.20675417  0.85790710  1.0
  In  In118  1  0.29558880  0.54008750  0.85790710  1.0
  In  In119  1  0.29558880  0.87342083  0.85790710  1.0
  In  In120  1  0.62892213  0.20675417  0.85790710  1.0
  In  In121  1  0.62892213  0.54008750  0.85790710  1.0
  In  In122  1  0.62892213  0.87342083  0.85790710  1.0
  In  In123  1  0.96225547  0.20675417  0.85790710  1.0
  In  In124  1  0.96225547  0.54008750  0.85790710  1.0
  In  In125  1  0.96225547  0.87342083  0.85790710  1.0
  In  In126  1  0.30203453  0.29324583  0.84922290  1.0
  In  In127  1  0.30203453  0.62657917  0.84922290  1.0
  In  In128  1  0.30203453  0.95991250  0.84922290  1.0
  In  In129  1  0.63536787  0.29324583  0.84922290  1.0
  In  In130  1  0.63536787  0.62657917  0.84922290  1.0
  In  In131  1  0.63536787  0.95991250  0.84922290  1.0
  In  In132  1  0.96870120  0.29324583  0.84922290  1.0
  In  In133  1  0.96870120  0.62657917  0.84922290  1.0
  In  In134  1  0.96870120  0.95991250  0.84922290  1.0
  In  In135  1  0.10203453  0.12657917  0.94922290  1.0
  In  In136  1  0.10203453  0.45991250  0.94922290  1.0
  In  In137  1  0.10203453  0.79324583  0.94922290  1.0
  In  In138  1  0.43536787  0.12657917  0.94922290  1.0
  In  In139  1  0.43536787  0.45991250  0.94922290  1.0
  In  In140  1  0.43536787  0.79324583  0.94922290  1.0
  In  In141  1  0.76870120  0.12657917  0.94922290  1.0
  In  In142  1  0.76870120  0.45991250  0.94922290  1.0
  In  In143  1  0.76870120  0.79324583  0.94922290  1.0
  In  In144  1  0.02183647  0.02181900  0.86580760  1.0
  In  In145  1  0.02183647  0.35515233  0.86580760  1.0
  In  In146  1  0.02183647  0.68848567  0.86580760  1.0
  In  In147  1  0.35516980  0.02181900  0.86580760  1.0
  In  In148  1  0.35516980  0.35515233  0.86580760  1.0
  In  In149  1  0.35516980  0.68848567  0.86580760  1.0
  In  In150  1  0.68850313  0.02181900  0.86580760  1.0
  In  In151  1  0.68850313  0.35515233  0.86580760  1.0
  In  In152  1  0.68850313  0.68848567  0.86580760  1.0
  In  In153  1  0.15516980  0.18848567  0.96580760  1.0
  In  In154  1  0.15516980  0.52181900  0.96580760  1.0
  In  In155  1  0.15516980  0.85515233  0.96580760  1.0
  In  In156  1  0.48850313  0.18848567  0.96580760  1.0
  In  In157  1  0.48850313  0.52181900  0.96580760  1.0
  In  In158  1  0.48850313  0.85515233  0.96580760  1.0
  In  In159  1  0.82183647  0.18848567  0.96580760  1.0
  In  In160  1  0.82183647  0.52181900  0.96580760  1.0
  In  In161  1  0.82183647  0.85515233  0.96580760  1.0
  In  In162  1  0.04245353  0.31151433  0.94132240  1.0
  In  In163  1  0.04245353  0.64484767  0.94132240  1.0
  In  In164  1  0.04245353  0.97818100  0.94132240  1.0
  In  In165  1  0.37578687  0.31151433  0.94132240  1.0
  In  In166  1  0.37578687  0.64484767  0.94132240  1.0
  In  In167  1  0.37578687  0.97818100  0.94132240  1.0
  In  In168  1  0.70912020  0.31151433  0.94132240  1.0
  In  In169  1  0.70912020  0.64484767  0.94132240  1.0
  In  In170  1  0.70912020  0.97818100  0.94132240  1.0
  In  In171  1  0.24245353  0.14484767  0.84132240  1.0
  In  In172  1  0.24245353  0.47818100  0.84132240  1.0
  In  In173  1  0.24245353  0.81151433  0.84132240  1.0
  In  In174  1  0.57578687  0.14484767  0.84132240  1.0
  In  In175  1  0.57578687  0.47818100  0.84132240  1.0
  In  In176  1  0.57578687  0.81151433  0.84132240  1.0
  In  In177  1  0.90912020  0.14484767  0.84132240  1.0
  In  In178  1  0.90912020  0.47818100  0.84132240  1.0
  In  In179  1  0.90912020  0.81151433  0.84132240  1.0
  In  In180  1  0.19481567  0.06986467  0.93870700  1.0
  In  In181  1  0.19481567  0.40319800  0.93870700  1.0
  In  In182  1  0.19481567  0.73653133  0.93870700  1.0
  In  In183  1  0.52814900  0.06986467  0.93870700  1.0
  In  In184  1  0.52814900  0.40319800  0.93870700  1.0
  In  In185  1  0.52814900  0.73653133  0.93870700  1.0
  In  In186  1  0.86148233  0.06986467  0.93870700  1.0
  In  In187  1  0.86148233  0.40319800  0.93870700  1.0
  In  In188  1  0.86148233  0.73653133  0.93870700  1.0
  In  In189  1  0.06148233  0.23653133  0.83870700  1.0
  In  In190  1  0.06148233  0.56986467  0.83870700  1.0
  In  In191  1  0.06148233  0.90319800  0.83870700  1.0
  In  In192  1  0.39481567  0.23653133  0.83870700  1.0
  In  In193  1  0.39481567  0.56986467  0.83870700  1.0
  In  In194  1  0.39481567  0.90319800  0.83870700  1.0
  In  In195  1  0.72814900  0.23653133  0.83870700  1.0
  In  In196  1  0.72814900  0.56986467  0.83870700  1.0
  In  In197  1  0.72814900  0.90319800  0.83870700  1.0
  In  In198  1  0.20280767  0.26346867  0.86842300  1.0
  In  In199  1  0.20280767  0.59680200  0.86842300  1.0
  In  In200  1  0.20280767  0.93013533  0.86842300  1.0
  In  In201  1  0.53614100  0.26346867  0.86842300  1.0
  In  In202  1  0.53614100  0.59680200  0.86842300  1.0
  In  In203  1  0.53614100  0.93013533  0.86842300  1.0
  In  In204  1  0.86947433  0.26346867  0.86842300  1.0
  In  In205  1  0.86947433  0.59680200  0.86842300  1.0
  In  In206  1  0.86947433  0.93013533  0.86842300  1.0
  In  In207  1  0.00280767  0.09680200  0.96842300  1.0
  In  In208  1  0.00280767  0.43013533  0.96842300  1.0
  In  In209  1  0.00280767  0.76346867  0.96842300  1.0
  In  In210  1  0.33614100  0.09680200  0.96842300  1.0
  In  In211  1  0.33614100  0.43013533  0.96842300  1.0
  In  In212  1  0.33614100  0.76346867  0.96842300  1.0
  In  In213  1  0.66947433  0.09680200  0.96842300  1.0
  In  In214  1  0.66947433  0.43013533  0.96842300  1.0
  In  In215  1  0.66947433  0.76346867  0.96842300  1.0
  In  In216  1  0.31808367  0.07355867  0.66194100  1.0
  In  In217  1  0.31808367  0.40689200  0.66194100  1.0
  In  In218  1  0.31808367  0.74022533  0.66194100  1.0
  In  In219  1  0.65141700  0.07355867  0.66194100  1.0
  In  In220  1  0.65141700  0.40689200  0.66194100  1.0
  In  In221  1  0.65141700  0.74022533  0.66194100  1.0
  In  In222  1  0.98475033  0.07355867  0.66194100  1.0
  In  In223  1  0.98475033  0.40689200  0.66194100  1.0
  In  In224  1  0.98475033  0.74022533  0.66194100  1.0
  In  In225  1  0.11808367  0.24022533  0.76194100  1.0
  In  In226  1  0.11808367  0.57355867  0.76194100  1.0
  In  In227  1  0.11808367  0.90689200  0.76194100  1.0
  In  In228  1  0.45141700  0.24022533  0.76194100  1.0
  In  In229  1  0.45141700  0.57355867  0.76194100  1.0
  In  In230  1  0.45141700  0.90689200  0.76194100  1.0
  In  In231  1  0.78475033  0.24022533  0.76194100  1.0
  In  In232  1  0.78475033  0.57355867  0.76194100  1.0
  In  In233  1  0.78475033  0.90689200  0.76194100  1.0
  In  In234  1  0.21287300  0.25977467  0.74518900  1.0
  In  In235  1  0.21287300  0.59310800  0.74518900  1.0
  In  In236  1  0.21287300  0.92644133  0.74518900  1.0
  In  In237  1  0.54620633  0.25977467  0.74518900  1.0
  In  In238  1  0.54620633  0.59310800  0.74518900  1.0
  In  In239  1  0.54620633  0.92644133  0.74518900  1.0
  In  In240  1  0.87953967  0.25977467  0.74518900  1.0
  In  In241  1  0.87953967  0.59310800  0.74518900  1.0
  In  In242  1  0.87953967  0.92644133  0.74518900  1.0
  In  In243  1  0.07953967  0.09310800  0.64518900  1.0
  In  In244  1  0.07953967  0.42644133  0.64518900  1.0
  In  In245  1  0.07953967  0.75977467  0.64518900  1.0
  In  In246  1  0.41287300  0.09310800  0.64518900  1.0
  In  In247  1  0.41287300  0.42644133  0.64518900  1.0
  In  In248  1  0.41287300  0.75977467  0.64518900  1.0
  In  In249  1  0.74620633  0.09310800  0.64518900  1.0
  In  In250  1  0.74620633  0.42644133  0.64518900  1.0
  In  In251  1  0.74620633  0.75977467  0.64518900  1.0
  In  In252  1  0.23338987  0.11623150  0.66336290  1.0
  In  In253  1  0.23338987  0.44956483  0.66336290  1.0
  In  In254  1  0.23338987  0.78289817  0.66336290  1.0
  In  In255  1  0.56672320  0.11623150  0.66336290  1.0
  In  In256  1  0.56672320  0.44956483  0.66336290  1.0
  In  In257  1  0.56672320  0.78289817  0.66336290  1.0
  In  In258  1  0.90005653  0.11623150  0.66336290  1.0
  In  In259  1  0.90005653  0.44956483  0.66336290  1.0
  In  In260  1  0.90005653  0.78289817  0.66336290  1.0
  In  In261  1  0.03338987  0.28289817  0.76336290  1.0
  In  In262  1  0.03338987  0.61623150  0.76336290  1.0
  In  In263  1  0.03338987  0.94956483  0.76336290  1.0
  In  In264  1  0.36672320  0.28289817  0.76336290  1.0
  In  In265  1  0.36672320  0.61623150  0.76336290  1.0
  In  In266  1  0.36672320  0.94956483  0.76336290  1.0
  In  In267  1  0.70005653  0.28289817  0.76336290  1.0
  In  In268  1  0.70005653  0.61623150  0.76336290  1.0
  In  In269  1  0.70005653  0.94956483  0.76336290  1.0
  In  In270  1  0.29756680  0.21710183  0.74376710  1.0
  In  In271  1  0.29756680  0.55043517  0.74376710  1.0
  In  In272  1  0.29756680  0.88376850  0.74376710  1.0
  In  In273  1  0.63090013  0.21710183  0.74376710  1.0
  In  In274  1  0.63090013  0.55043517  0.74376710  1.0
  In  In275  1  0.63090013  0.88376850  0.74376710  1.0
  In  In276  1  0.96423347  0.21710183  0.74376710  1.0
  In  In277  1  0.96423347  0.55043517  0.74376710  1.0
  In  In278  1  0.96423347  0.88376850  0.74376710  1.0
  In  In279  1  0.16423347  0.05043517  0.64376710  1.0
  In  In280  1  0.16423347  0.38376850  0.64376710  1.0
  In  In281  1  0.16423347  0.71710183  0.64376710  1.0
  In  In282  1  0.49756680  0.05043517  0.64376710  1.0
  In  In283  1  0.49756680  0.38376850  0.64376710  1.0
  In  In284  1  0.49756680  0.71710183  0.64376710  1.0
  In  In285  1  0.83090013  0.05043517  0.64376710  1.0
  In  In286  1  0.83090013  0.38376850  0.64376710  1.0
  In  In287  1  0.83090013  0.71710183  0.64376710  1.0
  In  In288  1  0.26251980  0.32901450  0.75394310  1.0
  In  In289  1  0.26251980  0.66234783  0.75394310  1.0
  In  In290  1  0.26251980  0.99568117  0.75394310  1.0
  In  In291  1  0.59585313  0.32901450  0.75394310  1.0
  In  In292  1  0.59585313  0.66234783  0.75394310  1.0
  In  In293  1  0.59585313  0.99568117  0.75394310  1.0
  In  In294  1  0.92918647  0.32901450  0.75394310  1.0
  In  In295  1  0.92918647  0.66234783  0.75394310  1.0
  In  In296  1  0.92918647  0.99568117  0.75394310  1.0
  In  In297  1  0.12918647  0.16234783  0.65394310  1.0
  In  In298  1  0.12918647  0.49568117  0.65394310  1.0
  In  In299  1  0.12918647  0.82901450  0.65394310  1.0
  In  In300  1  0.46251980  0.16234783  0.65394310  1.0
  In  In301  1  0.46251980  0.49568117  0.65394310  1.0
  In  In302  1  0.46251980  0.82901450  0.65394310  1.0
  In  In303  1  0.79585313  0.16234783  0.65394310  1.0
  In  In304  1  0.79585313  0.49568117  0.65394310  1.0
  In  In305  1  0.79585313  0.82901450  0.65394310  1.0
  In  In306  1  0.26843687  0.00431883  0.65318690  1.0
  In  In307  1  0.26843687  0.33765217  0.65318690  1.0
  In  In308  1  0.26843687  0.67098550  0.65318690  1.0
  In  In309  1  0.60177020  0.00431883  0.65318690  1.0
  In  In310  1  0.60177020  0.33765217  0.65318690  1.0
  In  In311  1  0.60177020  0.67098550  0.65318690  1.0
  In  In312  1  0.93510353  0.00431883  0.65318690  1.0
  In  In313  1  0.93510353  0.33765217  0.65318690  1.0
  In  In314  1  0.93510353  0.67098550  0.65318690  1.0
  In  In315  1  0.06843687  0.17098550  0.75318690  1.0
  In  In316  1  0.06843687  0.50431883  0.75318690  1.0
  In  In317  1  0.06843687  0.83765217  0.75318690  1.0
  In  In318  1  0.40177020  0.17098550  0.75318690  1.0
  In  In319  1  0.40177020  0.50431883  0.75318690  1.0
  In  In320  1  0.40177020  0.83765217  0.75318690  1.0
  In  In321  1  0.73510353  0.17098550  0.75318690  1.0
  In  In322  1  0.73510353  0.50431883  0.75318690  1.0
  In  In323  1  0.73510353  0.83765217  0.75318690  1.0
  In  In324  1  0.16225547  0.04008750  0.75790710  1.0
  In  In325  1  0.16225547  0.37342083  0.75790710  1.0
  In  In326  1  0.16225547  0.70675417  0.75790710  1.0
  In  In327  1  0.49558880  0.04008750  0.75790710  1.0
  In  In328  1  0.49558880  0.37342083  0.75790710  1.0
  In  In329  1  0.49558880  0.70675417  0.75790710  1.0
  In  In330  1  0.82892213  0.04008750  0.75790710  1.0
  In  In331  1  0.82892213  0.37342083  0.75790710  1.0
  In  In332  1  0.82892213  0.70675417  0.75790710  1.0
  In  In333  1  0.02892213  0.20675417  0.65790710  1.0
  In  In334  1  0.02892213  0.54008750  0.65790710  1.0
  In  In335  1  0.02892213  0.87342083  0.65790710  1.0
  In  In336  1  0.36225547  0.20675417  0.65790710  1.0
  In  In337  1  0.36225547  0.54008750  0.65790710  1.0
  In  In338  1  0.36225547  0.87342083  0.65790710  1.0
  In  In339  1  0.69558880  0.20675417  0.65790710  1.0
  In  In340  1  0.69558880  0.54008750  0.65790710  1.0
  In  In341  1  0.69558880  0.87342083  0.65790710  1.0
  In  In342  1  0.03536787  0.29324583  0.64922290  1.0
  In  In343  1  0.03536787  0.62657917  0.64922290  1.0
  In  In344  1  0.03536787  0.95991250  0.64922290  1.0
  In  In345  1  0.36870120  0.29324583  0.64922290  1.0
  In  In346  1  0.36870120  0.62657917  0.64922290  1.0
  In  In347  1  0.36870120  0.95991250  0.64922290  1.0
  In  In348  1  0.70203453  0.29324583  0.64922290  1.0
  In  In349  1  0.70203453  0.62657917  0.64922290  1.0
  In  In350  1  0.70203453  0.95991250  0.64922290  1.0
  In  In351  1  0.16870120  0.12657917  0.74922290  1.0
  In  In352  1  0.16870120  0.45991250  0.74922290  1.0
  In  In353  1  0.16870120  0.79324583  0.74922290  1.0
  In  In354  1  0.50203453  0.12657917  0.74922290  1.0
  In  In355  1  0.50203453  0.45991250  0.74922290  1.0
  In  In356  1  0.50203453  0.79324583  0.74922290  1.0
  In  In357  1  0.83536787  0.12657917  0.74922290  1.0
  In  In358  1  0.83536787  0.45991250  0.74922290  1.0
  In  In359  1  0.83536787  0.79324583  0.74922290  1.0
  In  In360  1  0.08850313  0.02181900  0.66580760  1.0
  In  In361  1  0.08850313  0.35515233  0.66580760  1.0
  In  In362  1  0.08850313  0.68848567  0.66580760  1.0
  In  In363  1  0.42183647  0.02181900  0.66580760  1.0
  In  In364  1  0.42183647  0.35515233  0.66580760  1.0
  In  In365  1  0.42183647  0.68848567  0.66580760  1.0
  In  In366  1  0.75516980  0.02181900  0.66580760  1.0
  In  In367  1  0.75516980  0.35515233  0.66580760  1.0
  In  In368  1  0.75516980  0.68848567  0.66580760  1.0
  In  In369  1  0.22183647  0.18848567  0.76580760  1.0
  In  In370  1  0.22183647  0.52181900  0.76580760  1.0
  In  In371  1  0.22183647  0.85515233  0.76580760  1.0
  In  In372  1  0.55516980  0.18848567  0.76580760  1.0
  In  In373  1  0.55516980  0.52181900  0.76580760  1.0
  In  In374  1  0.55516980  0.85515233  0.76580760  1.0
  In  In375  1  0.88850313  0.18848567  0.76580760  1.0
  In  In376  1  0.88850313  0.52181900  0.76580760  1.0
  In  In377  1  0.88850313  0.85515233  0.76580760  1.0
  In  In378  1  0.10912020  0.31151433  0.74132240  1.0
  In  In379  1  0.10912020  0.64484767  0.74132240  1.0
  In  In380  1  0.10912020  0.97818100  0.74132240  1.0
  In  In381  1  0.44245353  0.31151433  0.74132240  1.0
  In  In382  1  0.44245353  0.64484767  0.74132240  1.0
  In  In383  1  0.44245353  0.97818100  0.74132240  1.0
  In  In384  1  0.77578687  0.31151433  0.74132240  1.0
  In  In385  1  0.77578687  0.64484767  0.74132240  1.0
  In  In386  1  0.77578687  0.97818100  0.74132240  1.0
  In  In387  1  0.30912020  0.14484767  0.64132240  1.0
  In  In388  1  0.30912020  0.47818100  0.64132240  1.0
  In  In389  1  0.30912020  0.81151433  0.64132240  1.0
  In  In390  1  0.64245353  0.14484767  0.64132240  1.0
  In  In391  1  0.64245353  0.47818100  0.64132240  1.0
  In  In392  1  0.64245353  0.81151433  0.64132240  1.0
  In  In393  1  0.97578687  0.14484767  0.64132240  1.0
  In  In394  1  0.97578687  0.47818100  0.64132240  1.0
  In  In395  1  0.97578687  0.81151433  0.64132240  1.0
  In  In396  1  0.26148233  0.06986467  0.73870700  1.0
  In  In397  1  0.26148233  0.40319800  0.73870700  1.0
  In  In398  1  0.26148233  0.73653133  0.73870700  1.0
  In  In399  1  0.59481567  0.06986467  0.73870700  1.0
  In  In400  1  0.59481567  0.40319800  0.73870700  1.0
  In  In401  1  0.59481567  0.73653133  0.73870700  1.0
  In  In402  1  0.92814900  0.06986467  0.73870700  1.0
  In  In403  1  0.92814900  0.40319800  0.73870700  1.0
  In  In404  1  0.92814900  0.73653133  0.73870700  1.0
  In  In405  1  0.12814900  0.23653133  0.63870700  1.0
  In  In406  1  0.12814900  0.56986467  0.63870700  1.0
  In  In407  1  0.12814900  0.90319800  0.63870700  1.0
  In  In408  1  0.46148233  0.23653133  0.63870700  1.0
  In  In409  1  0.46148233  0.56986467  0.63870700  1.0
  In  In410  1  0.46148233  0.90319800  0.63870700  1.0
  In  In411  1  0.79481567  0.23653133  0.63870700  1.0
  In  In412  1  0.79481567  0.56986467  0.63870700  1.0
  In  In413  1  0.79481567  0.90319800  0.63870700  1.0
  In  In414  1  0.26947433  0.26346867  0.66842300  1.0
  In  In415  1  0.26947433  0.59680200  0.66842300  1.0
  In  In416  1  0.26947433  0.93013533  0.66842300  1.0
  In  In417  1  0.60280767  0.26346867  0.66842300  1.0
  In  In418  1  0.60280767  0.59680200  0.66842300  1.0
  In  In419  1  0.60280767  0.93013533  0.66842300  1.0
  In  In420  1  0.93614100  0.26346867  0.66842300  1.0
  In  In421  1  0.93614100  0.59680200  0.66842300  1.0
  In  In422  1  0.93614100  0.93013533  0.66842300  1.0
  In  In423  1  0.06947433  0.09680200  0.76842300  1.0
  In  In424  1  0.06947433  0.43013533  0.76842300  1.0
  In  In425  1  0.06947433  0.76346867  0.76842300  1.0
  In  In426  1  0.40280767  0.09680200  0.76842300  1.0
  In  In427  1  0.40280767  0.43013533  0.76842300  1.0
  In  In428  1  0.40280767  0.76346867  0.76842300  1.0
  In  In429  1  0.73614100  0.09680200  0.76842300  1.0
  In  In430  1  0.73614100  0.43013533  0.76842300  1.0
  In  In431  1  0.73614100  0.76346867  0.76842300  1.0
  Ni  Ni432  1  0.26252767  0.33000700  0.98642900  1.0
  Ni  Ni433  1  0.26252767  0.66334033  0.98642900  1.0
  Ni  Ni434  1  0.26252767  0.99667367  0.98642900  1.0
  Ni  Ni435  1  0.59586100  0.33000700  0.98642900  1.0
  Ni  Ni436  1  0.59586100  0.66334033  0.98642900  1.0
  Ni  Ni437  1  0.59586100  0.99667367  0.98642900  1.0
  Ni  Ni438  1  0.92919433  0.33000700  0.98642900  1.0
  Ni  Ni439  1  0.92919433  0.66334033  0.98642900  1.0
  Ni  Ni440  1  0.92919433  0.99667367  0.98642900  1.0
  Ni  Ni441  1  0.12919433  0.16334033  0.88642900  1.0
  Ni  Ni442  1  0.12919433  0.49667367  0.88642900  1.0
  Ni  Ni443  1  0.12919433  0.83000700  0.88642900  1.0
  Ni  Ni444  1  0.46252767  0.16334033  0.88642900  1.0
  Ni  Ni445  1  0.46252767  0.49667367  0.88642900  1.0
  Ni  Ni446  1  0.46252767  0.83000700  0.88642900  1.0
  Ni  Ni447  1  0.79586100  0.16334033  0.88642900  1.0
  Ni  Ni448  1  0.79586100  0.49667367  0.88642900  1.0
  Ni  Ni449  1  0.79586100  0.83000700  0.88642900  1.0
  Ni  Ni450  1  0.13509567  0.00332633  0.82070100  1.0
  Ni  Ni451  1  0.13509567  0.33665967  0.82070100  1.0
  Ni  Ni452  1  0.13509567  0.66999300  0.82070100  1.0
  Ni  Ni453  1  0.46842900  0.00332633  0.82070100  1.0
  Ni  Ni454  1  0.46842900  0.33665967  0.82070100  1.0
  Ni  Ni455  1  0.46842900  0.66999300  0.82070100  1.0
  Ni  Ni456  1  0.80176233  0.00332633  0.82070100  1.0
  Ni  Ni457  1  0.80176233  0.33665967  0.82070100  1.0
  Ni  Ni458  1  0.80176233  0.66999300  0.82070100  1.0
  Ni  Ni459  1  0.26842900  0.16999300  0.92070100  1.0
  Ni  Ni460  1  0.26842900  0.50332633  0.92070100  1.0
  Ni  Ni461  1  0.26842900  0.83665967  0.92070100  1.0
  Ni  Ni462  1  0.60176233  0.16999300  0.92070100  1.0
  Ni  Ni463  1  0.60176233  0.50332633  0.92070100  1.0
  Ni  Ni464  1  0.60176233  0.83665967  0.92070100  1.0
  Ni  Ni465  1  0.93509567  0.16999300  0.92070100  1.0
  Ni  Ni466  1  0.93509567  0.50332633  0.92070100  1.0
  Ni  Ni467  1  0.93509567  0.83665967  0.92070100  1.0
  Ni  Ni468  1  0.23183920  0.12218600  0.92137140  1.0
  Ni  Ni469  1  0.23183920  0.45551933  0.92137140  1.0
  Ni  Ni470  1  0.23183920  0.78885267  0.92137140  1.0
  Ni  Ni471  1  0.56517253  0.12218600  0.92137140  1.0
  Ni  Ni472  1  0.56517253  0.45551933  0.92137140  1.0
  Ni  Ni473  1  0.56517253  0.78885267  0.92137140  1.0
  Ni  Ni474  1  0.89850587  0.12218600  0.92137140  1.0
  Ni  Ni475  1  0.89850587  0.45551933  0.92137140  1.0
  Ni  Ni476  1  0.89850587  0.78885267  0.92137140  1.0
  Ni  Ni477  1  0.09850587  0.28885267  0.82137140  1.0
  Ni  Ni478  1  0.09850587  0.62218600  0.82137140  1.0
  Ni  Ni479  1  0.09850587  0.95551933  0.82137140  1.0
  Ni  Ni480  1  0.43183920  0.28885267  0.82137140  1.0
  Ni  Ni481  1  0.43183920  0.62218600  0.82137140  1.0
  Ni  Ni482  1  0.43183920  0.95551933  0.82137140  1.0
  Ni  Ni483  1  0.76517253  0.28885267  0.82137140  1.0
  Ni  Ni484  1  0.76517253  0.62218600  0.82137140  1.0
  Ni  Ni485  1  0.76517253  0.95551933  0.82137140  1.0
  Ni  Ni486  1  0.16578413  0.21114733  0.88575860  1.0
  Ni  Ni487  1  0.16578413  0.54448067  0.88575860  1.0
  Ni  Ni488  1  0.16578413  0.87781400  0.88575860  1.0
  Ni  Ni489  1  0.49911747  0.21114733  0.88575860  1.0
  Ni  Ni490  1  0.49911747  0.54448067  0.88575860  1.0
  Ni  Ni491  1  0.49911747  0.87781400  0.88575860  1.0
  Ni  Ni492  1  0.83245080  0.21114733  0.88575860  1.0
  Ni  Ni493  1  0.83245080  0.54448067  0.88575860  1.0
  Ni  Ni494  1  0.83245080  0.87781400  0.88575860  1.0
  Ni  Ni495  1  0.29911747  0.04448067  0.98575860  1.0
  Ni  Ni496  1  0.29911747  0.37781400  0.98575860  1.0
  Ni  Ni497  1  0.29911747  0.71114733  0.98575860  1.0
  Ni  Ni498  1  0.63245080  0.04448067  0.98575860  1.0
  Ni  Ni499  1  0.63245080  0.37781400  0.98575860  1.0
  Ni  Ni500  1  0.63245080  0.71114733  0.98575860  1.0
  Ni  Ni501  1  0.96578413  0.04448067  0.98575860  1.0
  Ni  Ni502  1  0.96578413  0.37781400  0.98575860  1.0
  Ni  Ni503  1  0.96578413  0.71114733  0.98575860  1.0
  Ni  Ni504  1  0.12992220  0.07994100  0.91249940  1.0
  Ni  Ni505  1  0.12992220  0.41327433  0.91249940  1.0
  Ni  Ni506  1  0.12992220  0.74660767  0.91249940  1.0
  Ni  Ni507  1  0.46325553  0.07994100  0.91249940  1.0
  Ni  Ni508  1  0.46325553  0.41327433  0.91249940  1.0
  Ni  Ni509  1  0.46325553  0.74660767  0.91249940  1.0
  Ni  Ni510  1  0.79658887  0.07994100  0.91249940  1.0
  Ni  Ni511  1  0.79658887  0.41327433  0.91249940  1.0
  Ni  Ni512  1  0.79658887  0.74660767  0.91249940  1.0
  Ni  Ni513  1  0.32992220  0.24660767  0.81249940  1.0
  Ni  Ni514  1  0.32992220  0.57994100  0.81249940  1.0
  Ni  Ni515  1  0.32992220  0.91327433  0.81249940  1.0
  Ni  Ni516  1  0.66325553  0.24660767  0.81249940  1.0
  Ni  Ni517  1  0.66325553  0.57994100  0.81249940  1.0
  Ni  Ni518  1  0.66325553  0.91327433  0.81249940  1.0
  Ni  Ni519  1  0.99658887  0.24660767  0.81249940  1.0
  Ni  Ni520  1  0.99658887  0.57994100  0.81249940  1.0
  Ni  Ni521  1  0.99658887  0.91327433  0.81249940  1.0
  Ni  Ni522  1  0.26770113  0.25339233  0.89463060  1.0
  Ni  Ni523  1  0.26770113  0.58672567  0.89463060  1.0
  Ni  Ni524  1  0.26770113  0.92005900  0.89463060  1.0
  Ni  Ni525  1  0.60103447  0.25339233  0.89463060  1.0
  Ni  Ni526  1  0.60103447  0.58672567  0.89463060  1.0
  Ni  Ni527  1  0.60103447  0.92005900  0.89463060  1.0
  Ni  Ni528  1  0.93436780  0.25339233  0.89463060  1.0
  Ni  Ni529  1  0.93436780  0.58672567  0.89463060  1.0
  Ni  Ni530  1  0.93436780  0.92005900  0.89463060  1.0
  Ni  Ni531  1  0.06770113  0.08672567  0.99463060  1.0
  Ni  Ni532  1  0.06770113  0.42005900  0.99463060  1.0
  Ni  Ni533  1  0.06770113  0.75339233  0.99463060  1.0
  Ni  Ni534  1  0.40103447  0.08672567  0.99463060  1.0
  Ni  Ni535  1  0.40103447  0.42005900  0.99463060  1.0
  Ni  Ni536  1  0.40103447  0.75339233  0.99463060  1.0
  Ni  Ni537  1  0.73436780  0.08672567  0.99463060  1.0
  Ni  Ni538  1  0.73436780  0.42005900  0.99463060  1.0
  Ni  Ni539  1  0.73436780  0.75339233  0.99463060  1.0
  Ni  Ni540  1  0.16032393  0.03699100  0.99366320  1.0
  Ni  Ni541  1  0.16032393  0.37032433  0.99366320  1.0
  Ni  Ni542  1  0.16032393  0.70365767  0.99366320  1.0
  Ni  Ni543  1  0.49365727  0.03699100  0.99366320  1.0
  Ni  Ni544  1  0.49365727  0.37032433  0.99366320  1.0
  Ni  Ni545  1  0.49365727  0.70365767  0.99366320  1.0
  Ni  Ni546  1  0.82699060  0.03699100  0.99366320  1.0
  Ni  Ni547  1  0.82699060  0.37032433  0.99366320  1.0
  Ni  Ni548  1  0.82699060  0.70365767  0.99366320  1.0
  Ni  Ni549  1  0.02699060  0.20365767  0.89366320  1.0
  Ni  Ni550  1  0.02699060  0.53699100  0.89366320  1.0
  Ni  Ni551  1  0.02699060  0.87032433  0.89366320  1.0
  Ni  Ni552  1  0.36032393  0.20365767  0.89366320  1.0
  Ni  Ni553  1  0.36032393  0.53699100  0.89366320  1.0
  Ni  Ni554  1  0.36032393  0.87032433  0.89366320  1.0
  Ni  Ni555  1  0.69365727  0.20365767  0.89366320  1.0
  Ni  Ni556  1  0.69365727  0.53699100  0.89366320  1.0
  Ni  Ni557  1  0.69365727  0.87032433  0.89366320  1.0
  Ni  Ni558  1  0.23729940  0.29634233  0.81346680  1.0
  Ni  Ni559  1  0.23729940  0.62967567  0.81346680  1.0
  Ni  Ni560  1  0.23729940  0.96300900  0.81346680  1.0
  Ni  Ni561  1  0.57063273  0.29634233  0.81346680  1.0
  Ni  Ni562  1  0.57063273  0.62967567  0.81346680  1.0
  Ni  Ni563  1  0.57063273  0.96300900  0.81346680  1.0
  Ni  Ni564  1  0.90396607  0.29634233  0.81346680  1.0
  Ni  Ni565  1  0.90396607  0.62967567  0.81346680  1.0
  Ni  Ni566  1  0.90396607  0.96300900  0.81346680  1.0
  Ni  Ni567  1  0.03729940  0.12967567  0.91346680  1.0
  Ni  Ni568  1  0.03729940  0.46300900  0.91346680  1.0
  Ni  Ni569  1  0.03729940  0.79634233  0.91346680  1.0
  Ni  Ni570  1  0.37063273  0.12967567  0.91346680  1.0
  Ni  Ni571  1  0.37063273  0.46300900  0.91346680  1.0
  Ni  Ni572  1  0.37063273  0.79634233  0.91346680  1.0
  Ni  Ni573  1  0.70396607  0.12967567  0.91346680  1.0
  Ni  Ni574  1  0.70396607  0.46300900  0.91346680  1.0
  Ni  Ni575  1  0.70396607  0.79634233  0.91346680  1.0
  Ni  Ni576  1  0.27469060  0.01247383  0.84950270  1.0
  Ni  Ni577  1  0.27469060  0.34580717  0.84950270  1.0
  Ni  Ni578  1  0.27469060  0.67914050  0.84950270  1.0
  Ni  Ni579  1  0.60802393  0.01247383  0.84950270  1.0
  Ni  Ni580  1  0.60802393  0.34580717  0.84950270  1.0
  Ni  Ni581  1  0.60802393  0.67914050  0.84950270  1.0
  Ni  Ni582  1  0.94135727  0.01247383  0.84950270  1.0
  Ni  Ni583  1  0.94135727  0.34580717  0.84950270  1.0
  Ni  Ni584  1  0.94135727  0.67914050  0.84950270  1.0
  Ni  Ni585  1  0.07469060  0.17914050  0.94950270  1.0
  Ni  Ni586  1  0.07469060  0.51247383  0.94950270  1.0
  Ni  Ni587  1  0.07469060  0.84580717  0.94950270  1.0
  Ni  Ni588  1  0.40802393  0.17914050  0.94950270  1.0
  Ni  Ni589  1  0.40802393  0.51247383  0.94950270  1.0
  Ni  Ni590  1  0.40802393  0.84580717  0.94950270  1.0
  Ni  Ni591  1  0.74135727  0.17914050  0.94950270  1.0
  Ni  Ni592  1  0.74135727  0.51247383  0.94950270  1.0
  Ni  Ni593  1  0.74135727  0.84580717  0.94950270  1.0
  Ni  Ni594  1  0.12293273  0.32085950  0.95762730  1.0
  Ni  Ni595  1  0.12293273  0.65419283  0.95762730  1.0
  Ni  Ni596  1  0.12293273  0.98752617  0.95762730  1.0
  Ni  Ni597  1  0.45626607  0.32085950  0.95762730  1.0
  Ni  Ni598  1  0.45626607  0.65419283  0.95762730  1.0
  Ni  Ni599  1  0.45626607  0.98752617  0.95762730  1.0
  Ni  Ni600  1  0.78959940  0.32085950  0.95762730  1.0
  Ni  Ni601  1  0.78959940  0.65419283  0.95762730  1.0
  Ni  Ni602  1  0.78959940  0.98752617  0.95762730  1.0
  Ni  Ni603  1  0.32293273  0.15419283  0.85762730  1.0
  Ni  Ni604  1  0.32293273  0.48752617  0.85762730  1.0
  Ni  Ni605  1  0.32293273  0.82085950  0.85762730  1.0
  Ni  Ni606  1  0.65626607  0.15419283  0.85762730  1.0
  Ni  Ni607  1  0.65626607  0.48752617  0.85762730  1.0
  Ni  Ni608  1  0.65626607  0.82085950  0.85762730  1.0
  Ni  Ni609  1  0.98959940  0.15419283  0.85762730  1.0
  Ni  Ni610  1  0.98959940  0.48752617  0.85762730  1.0
  Ni  Ni611  1  0.98959940  0.82085950  0.85762730  1.0
  Ni  Ni612  1  0.14808720  0.02491900  0.90411240  1.0
  Ni  Ni613  1  0.14808720  0.35825233  0.90411240  1.0
  Ni  Ni614  1  0.14808720  0.69158567  0.90411240  1.0
  Ni  Ni615  1  0.48142053  0.02491900  0.90411240  1.0
  Ni  Ni616  1  0.48142053  0.35825233  0.90411240  1.0
  Ni  Ni617  1  0.48142053  0.69158567  0.90411240  1.0
  Ni  Ni618  1  0.81475387  0.02491900  0.90411240  1.0
  Ni  Ni619  1  0.81475387  0.35825233  0.90411240  1.0
  Ni  Ni620  1  0.81475387  0.69158567  0.90411240  1.0
  Ni  Ni621  1  0.01475387  0.19158567  0.80411240  1.0
  Ni  Ni622  1  0.01475387  0.52491900  0.80411240  1.0
  Ni  Ni623  1  0.01475387  0.85825233  0.80411240  1.0
  Ni  Ni624  1  0.34808720  0.19158567  0.80411240  1.0
  Ni  Ni625  1  0.34808720  0.52491900  0.80411240  1.0
  Ni  Ni626  1  0.34808720  0.85825233  0.80411240  1.0
  Ni  Ni627  1  0.68142053  0.19158567  0.80411240  1.0
  Ni  Ni628  1  0.68142053  0.52491900  0.80411240  1.0
  Ni  Ni629  1  0.68142053  0.85825233  0.80411240  1.0
  Ni  Ni630  1  0.24953613  0.30841433  0.90301760  1.0
  Ni  Ni631  1  0.24953613  0.64174767  0.90301760  1.0
  Ni  Ni632  1  0.24953613  0.97508100  0.90301760  1.0
  Ni  Ni633  1  0.58286947  0.30841433  0.90301760  1.0
  Ni  Ni634  1  0.58286947  0.64174767  0.90301760  1.0
  Ni  Ni635  1  0.58286947  0.97508100  0.90301760  1.0
  Ni  Ni636  1  0.91620280  0.30841433  0.90301760  1.0
  Ni  Ni637  1  0.91620280  0.64174767  0.90301760  1.0
  Ni  Ni638  1  0.91620280  0.97508100  0.90301760  1.0
  Ni  Ni639  1  0.11620280  0.14174767  0.80301760  1.0
  Ni  Ni640  1  0.11620280  0.47508100  0.80301760  1.0
  Ni  Ni641  1  0.11620280  0.80841433  0.80301760  1.0
  Ni  Ni642  1  0.44953613  0.14174767  0.80301760  1.0
  Ni  Ni643  1  0.44953613  0.47508100  0.80301760  1.0
  Ni  Ni644  1  0.44953613  0.80841433  0.80301760  1.0
  Ni  Ni645  1  0.78286947  0.14174767  0.80301760  1.0
  Ni  Ni646  1  0.78286947  0.47508100  0.80301760  1.0
  Ni  Ni647  1  0.78286947  0.80841433  0.80301760  1.0
  Ni  Ni648  1  0.08861867  0.27739117  0.90368550  1.0
  Ni  Ni649  1  0.08861867  0.61072450  0.90368550  1.0
  Ni  Ni650  1  0.08861867  0.94405783  0.90368550  1.0
  Ni  Ni651  1  0.42195200  0.27739117  0.90368550  1.0
  Ni  Ni652  1  0.42195200  0.61072450  0.90368550  1.0
  Ni  Ni653  1  0.42195200  0.94405783  0.90368550  1.0
  Ni  Ni654  1  0.75528533  0.27739117  0.90368550  1.0
  Ni  Ni655  1  0.75528533  0.61072450  0.90368550  1.0
  Ni  Ni656  1  0.75528533  0.94405783  0.90368550  1.0
  Ni  Ni657  1  0.28861867  0.11072450  0.80368550  1.0
  Ni  Ni658  1  0.28861867  0.44405783  0.80368550  1.0
  Ni  Ni659  1  0.28861867  0.77739117  0.80368550  1.0
  Ni  Ni660  1  0.62195200  0.11072450  0.80368550  1.0
  Ni  Ni661  1  0.62195200  0.44405783  0.80368550  1.0
  Ni  Ni662  1  0.62195200  0.77739117  0.80368550  1.0
  Ni  Ni663  1  0.95528533  0.11072450  0.80368550  1.0
  Ni  Ni664  1  0.95528533  0.44405783  0.80368550  1.0
  Ni  Ni665  1  0.95528533  0.77739117  0.80368550  1.0
  Ni  Ni666  1  0.30900467  0.05594217  0.90344450  1.0
  Ni  Ni667  1  0.30900467  0.38927550  0.90344450  1.0
  Ni  Ni668  1  0.30900467  0.72260883  0.90344450  1.0
  Ni  Ni669  1  0.64233800  0.05594217  0.90344450  1.0
  Ni  Ni670  1  0.64233800  0.38927550  0.90344450  1.0
  Ni  Ni671  1  0.64233800  0.72260883  0.90344450  1.0
  Ni  Ni672  1  0.97567133  0.05594217  0.90344450  1.0
  Ni  Ni673  1  0.97567133  0.38927550  0.90344450  1.0
  Ni  Ni674  1  0.97567133  0.72260883  0.90344450  1.0
  Ni  Ni675  1  0.17567133  0.22260883  0.80344450  1.0
  Ni  Ni676  1  0.17567133  0.55594217  0.80344450  1.0
  Ni  Ni677  1  0.17567133  0.88927550  0.80344450  1.0
  Ni  Ni678  1  0.50900467  0.22260883  0.80344450  1.0
  Ni  Ni679  1  0.50900467  0.55594217  0.80344450  1.0
  Ni  Ni680  1  0.50900467  0.88927550  0.80344450  1.0
  Ni  Ni681  1  0.84233800  0.22260883  0.80344450  1.0
  Ni  Ni682  1  0.84233800  0.55594217  0.80344450  1.0
  Ni  Ni683  1  0.84233800  0.88927550  0.80344450  1.0
  Ni  Ni684  1  0.17196113  0.12879283  0.95191910  1.0
  Ni  Ni685  1  0.17196113  0.46212617  0.95191910  1.0
  Ni  Ni686  1  0.17196113  0.79545950  0.95191910  1.0
  Ni  Ni687  1  0.50529447  0.12879283  0.95191910  1.0
  Ni  Ni688  1  0.50529447  0.46212617  0.95191910  1.0
  Ni  Ni689  1  0.50529447  0.79545950  0.95191910  1.0
  Ni  Ni690  1  0.83862780  0.12879283  0.95191910  1.0
  Ni  Ni691  1  0.83862780  0.46212617  0.95191910  1.0
  Ni  Ni692  1  0.83862780  0.79545950  0.95191910  1.0
  Ni  Ni693  1  0.03862780  0.29545950  0.85191910  1.0
  Ni  Ni694  1  0.03862780  0.62879283  0.85191910  1.0
  Ni  Ni695  1  0.03862780  0.96212617  0.85191910  1.0
  Ni  Ni696  1  0.37196113  0.29545950  0.85191910  1.0
  Ni  Ni697  1  0.37196113  0.62879283  0.85191910  1.0
  Ni  Ni698  1  0.37196113  0.96212617  0.85191910  1.0
  Ni  Ni699  1  0.70529447  0.29545950  0.85191910  1.0
  Ni  Ni700  1  0.70529447  0.62879283  0.85191910  1.0
  Ni  Ni701  1  0.70529447  0.96212617  0.85191910  1.0
  Ni  Ni702  1  0.22566220  0.20454050  0.85521090  1.0
  Ni  Ni703  1  0.22566220  0.53787383  0.85521090  1.0
  Ni  Ni704  1  0.22566220  0.87120717  0.85521090  1.0
  Ni  Ni705  1  0.55899553  0.20454050  0.85521090  1.0
  Ni  Ni706  1  0.55899553  0.53787383  0.85521090  1.0
  Ni  Ni707  1  0.55899553  0.87120717  0.85521090  1.0
  Ni  Ni708  1  0.89232887  0.20454050  0.85521090  1.0
  Ni  Ni709  1  0.89232887  0.53787383  0.85521090  1.0
  Ni  Ni710  1  0.89232887  0.87120717  0.85521090  1.0
  Ni  Ni711  1  0.02566220  0.03787383  0.95521090  1.0
  Ni  Ni712  1  0.02566220  0.37120717  0.95521090  1.0
  Ni  Ni713  1  0.02566220  0.70454050  0.95521090  1.0
  Ni  Ni714  1  0.35899553  0.03787383  0.95521090  1.0
  Ni  Ni715  1  0.35899553  0.37120717  0.95521090  1.0
  Ni  Ni716  1  0.35899553  0.70454050  0.95521090  1.0
  Ni  Ni717  1  0.69232887  0.03787383  0.95521090  1.0
  Ni  Ni718  1  0.69232887  0.37120717  0.95521090  1.0
  Ni  Ni719  1  0.69232887  0.70454050  0.95521090  1.0
  Ni  Ni720  1  0.13214500  0.25000000  0.85356500  1.0
  Ni  Ni721  1  0.13214500  0.58333333  0.85356500  1.0
  Ni  Ni722  1  0.13214500  0.91666667  0.85356500  1.0
  Ni  Ni723  1  0.46547833  0.25000000  0.85356500  1.0
  Ni  Ni724  1  0.46547833  0.58333333  0.85356500  1.0
  Ni  Ni725  1  0.46547833  0.91666667  0.85356500  1.0
  Ni  Ni726  1  0.79881167  0.25000000  0.85356500  1.0
  Ni  Ni727  1  0.79881167  0.58333333  0.85356500  1.0
  Ni  Ni728  1  0.79881167  0.91666667  0.85356500  1.0
  Ni  Ni729  1  0.26547833  0.08333333  0.95356500  1.0
  Ni  Ni730  1  0.26547833  0.41666667  0.95356500  1.0
  Ni  Ni731  1  0.26547833  0.75000000  0.95356500  1.0
  Ni  Ni732  1  0.59881167  0.08333333  0.95356500  1.0
  Ni  Ni733  1  0.59881167  0.41666667  0.95356500  1.0
  Ni  Ni734  1  0.59881167  0.75000000  0.95356500  1.0
  Ni  Ni735  1  0.93214500  0.08333333  0.95356500  1.0
  Ni  Ni736  1  0.93214500  0.41666667  0.95356500  1.0
  Ni  Ni737  1  0.93214500  0.75000000  0.95356500  1.0
  Ni  Ni738  1  0.17472007  0.05730233  0.84825480  1.0
  Ni  Ni739  1  0.17472007  0.39063567  0.84825480  1.0
  Ni  Ni740  1  0.17472007  0.72396900  0.84825480  1.0
  Ni  Ni741  1  0.50805340  0.05730233  0.84825480  1.0
  Ni  Ni742  1  0.50805340  0.39063567  0.84825480  1.0
  Ni  Ni743  1  0.50805340  0.72396900  0.84825480  1.0
  Ni  Ni744  1  0.84138673  0.05730233  0.84825480  1.0
  Ni  Ni745  1  0.84138673  0.39063567  0.84825480  1.0
  Ni  Ni746  1  0.84138673  0.72396900  0.84825480  1.0
  Ni  Ni747  1  0.30805340  0.22396900  0.94825480  1.0
  Ni  Ni748  1  0.30805340  0.55730233  0.94825480  1.0
  Ni  Ni749  1  0.30805340  0.89063567  0.94825480  1.0
  Ni  Ni750  1  0.64138673  0.22396900  0.94825480  1.0
  Ni  Ni751  1  0.64138673  0.55730233  0.94825480  1.0
  Ni  Ni752  1  0.64138673  0.89063567  0.94825480  1.0
  Ni  Ni753  1  0.97472007  0.22396900  0.94825480  1.0
  Ni  Ni754  1  0.97472007  0.55730233  0.94825480  1.0
  Ni  Ni755  1  0.97472007  0.89063567  0.94825480  1.0
  Ni  Ni756  1  0.22290327  0.27603100  0.95887520  1.0
  Ni  Ni757  1  0.22290327  0.60936433  0.95887520  1.0
  Ni  Ni758  1  0.22290327  0.94269767  0.95887520  1.0
  Ni  Ni759  1  0.55623660  0.27603100  0.95887520  1.0
  Ni  Ni760  1  0.55623660  0.60936433  0.95887520  1.0
  Ni  Ni761  1  0.55623660  0.94269767  0.95887520  1.0
  Ni  Ni762  1  0.88956993  0.27603100  0.95887520  1.0
  Ni  Ni763  1  0.88956993  0.60936433  0.95887520  1.0
  Ni  Ni764  1  0.88956993  0.94269767  0.95887520  1.0
  Ni  Ni765  1  0.08956993  0.10936433  0.85887520  1.0
  Ni  Ni766  1  0.08956993  0.44269767  0.85887520  1.0
  Ni  Ni767  1  0.08956993  0.77603100  0.85887520  1.0
  Ni  Ni768  1  0.42290327  0.10936433  0.85887520  1.0
  Ni  Ni769  1  0.42290327  0.44269767  0.85887520  1.0
  Ni  Ni770  1  0.42290327  0.77603100  0.85887520  1.0
  Ni  Ni771  1  0.75623660  0.10936433  0.85887520  1.0
  Ni  Ni772  1  0.75623660  0.44269767  0.85887520  1.0
  Ni  Ni773  1  0.75623660  0.77603100  0.85887520  1.0
  Ni  Ni774  1  0.14742373  0.30291250  0.88287230  1.0
  Ni  Ni775  1  0.14742373  0.63624583  0.88287230  1.0
  Ni  Ni776  1  0.14742373  0.96957917  0.88287230  1.0
  Ni  Ni777  1  0.48075707  0.30291250  0.88287230  1.0
  Ni  Ni778  1  0.48075707  0.63624583  0.88287230  1.0
  Ni  Ni779  1  0.48075707  0.96957917  0.88287230  1.0
  Ni  Ni780  1  0.81409040  0.30291250  0.88287230  1.0
  Ni  Ni781  1  0.81409040  0.63624583  0.88287230  1.0
  Ni  Ni782  1  0.81409040  0.96957917  0.88287230  1.0
  Ni  Ni783  1  0.28075707  0.13624583  0.98287230  1.0
  Ni  Ni784  1  0.28075707  0.46957917  0.98287230  1.0
  Ni  Ni785  1  0.28075707  0.80291250  0.98287230  1.0
  Ni  Ni786  1  0.61409040  0.13624583  0.98287230  1.0
  Ni  Ni787  1  0.61409040  0.46957917  0.98287230  1.0
  Ni  Ni788  1  0.61409040  0.80291250  0.98287230  1.0
  Ni  Ni789  1  0.94742373  0.13624583  0.98287230  1.0
  Ni  Ni790  1  0.94742373  0.46957917  0.98287230  1.0
  Ni  Ni791  1  0.94742373  0.80291250  0.98287230  1.0
  Ni  Ni792  1  0.25019960  0.03042083  0.92425770  1.0
  Ni  Ni793  1  0.25019960  0.36375417  0.92425770  1.0
  Ni  Ni794  1  0.25019960  0.69708750  0.92425770  1.0
  Ni  Ni795  1  0.58353293  0.03042083  0.92425770  1.0
  Ni  Ni796  1  0.58353293  0.36375417  0.92425770  1.0
  Ni  Ni797  1  0.58353293  0.69708750  0.92425770  1.0
  Ni  Ni798  1  0.91686627  0.03042083  0.92425770  1.0
  Ni  Ni799  1  0.91686627  0.36375417  0.92425770  1.0
  Ni  Ni800  1  0.91686627  0.69708750  0.92425770  1.0
  Ni  Ni801  1  0.11686627  0.19708750  0.82425770  1.0
  Ni  Ni802  1  0.11686627  0.53042083  0.82425770  1.0
  Ni  Ni803  1  0.11686627  0.86375417  0.82425770  1.0
  Ni  Ni804  1  0.45019960  0.19708750  0.82425770  1.0
  Ni  Ni805  1  0.45019960  0.53042083  0.82425770  1.0
  Ni  Ni806  1  0.45019960  0.86375417  0.82425770  1.0
  Ni  Ni807  1  0.78353293  0.19708750  0.82425770  1.0
  Ni  Ni808  1  0.78353293  0.53042083  0.82425770  1.0
  Ni  Ni809  1  0.78353293  0.86375417  0.82425770  1.0
  Ni  Ni810  1  0.14244613  0.09133350  0.99803010  1.0
  Ni  Ni811  1  0.14244613  0.42466683  0.99803010  1.0
  Ni  Ni812  1  0.14244613  0.75800017  0.99803010  1.0
  Ni  Ni813  1  0.47577947  0.09133350  0.99803010  1.0
  Ni  Ni814  1  0.47577947  0.42466683  0.99803010  1.0
  Ni  Ni815  1  0.47577947  0.75800017  0.99803010  1.0
  Ni  Ni816  1  0.80911280  0.09133350  0.99803010  1.0
  Ni  Ni817  1  0.80911280  0.42466683  0.99803010  1.0
  Ni  Ni818  1  0.80911280  0.75800017  0.99803010  1.0
  Ni  Ni819  1  0.00911280  0.25800017  0.89803010  1.0
  Ni  Ni820  1  0.00911280  0.59133350  0.89803010  1.0
  Ni  Ni821  1  0.00911280  0.92466683  0.89803010  1.0
  Ni  Ni822  1  0.34244613  0.25800017  0.89803010  1.0
  Ni  Ni823  1  0.34244613  0.59133350  0.89803010  1.0
  Ni  Ni824  1  0.34244613  0.92466683  0.89803010  1.0
  Ni  Ni825  1  0.67577947  0.25800017  0.89803010  1.0
  Ni  Ni826  1  0.67577947  0.59133350  0.89803010  1.0
  Ni  Ni827  1  0.67577947  0.92466683  0.89803010  1.0
  Ni  Ni828  1  0.25517720  0.24199983  0.80909990  1.0
  Ni  Ni829  1  0.25517720  0.57533317  0.80909990  1.0
  Ni  Ni830  1  0.25517720  0.90866650  0.80909990  1.0
  Ni  Ni831  1  0.58851053  0.24199983  0.80909990  1.0
  Ni  Ni832  1  0.58851053  0.57533317  0.80909990  1.0
  Ni  Ni833  1  0.58851053  0.90866650  0.80909990  1.0
  Ni  Ni834  1  0.92184387  0.24199983  0.80909990  1.0
  Ni  Ni835  1  0.92184387  0.57533317  0.80909990  1.0
  Ni  Ni836  1  0.92184387  0.90866650  0.80909990  1.0
  Ni  Ni837  1  0.05517720  0.07533317  0.90909990  1.0
  Ni  Ni838  1  0.05517720  0.40866650  0.90909990  1.0
  Ni  Ni839  1  0.05517720  0.74199983  0.90909990  1.0
  Ni  Ni840  1  0.38851053  0.07533317  0.90909990  1.0
  Ni  Ni841  1  0.38851053  0.40866650  0.90909990  1.0
  Ni  Ni842  1  0.38851053  0.74199983  0.90909990  1.0
  Ni  Ni843  1  0.72184387  0.07533317  0.90909990  1.0
  Ni  Ni844  1  0.72184387  0.40866650  0.90909990  1.0
  Ni  Ni845  1  0.72184387  0.74199983  0.90909990  1.0
  Ni  Ni846  1  0.09043940  0.32989783  0.88284630  1.0
  Ni  Ni847  1  0.09043940  0.66323117  0.88284630  1.0
  Ni  Ni848  1  0.09043940  0.99656450  0.88284630  1.0
  Ni  Ni849  1  0.42377273  0.32989783  0.88284630  1.0
  Ni  Ni850  1  0.42377273  0.66323117  0.88284630  1.0
  Ni  Ni851  1  0.42377273  0.99656450  0.88284630  1.0
  Ni  Ni852  1  0.75710607  0.32989783  0.88284630  1.0
  Ni  Ni853  1  0.75710607  0.66323117  0.88284630  1.0
  Ni  Ni854  1  0.75710607  0.99656450  0.88284630  1.0
  Ni  Ni855  1  0.22377273  0.16323117  0.98284630  1.0
  Ni  Ni856  1  0.22377273  0.49656450  0.98284630  1.0
  Ni  Ni857  1  0.22377273  0.82989783  0.98284630  1.0
  Ni  Ni858  1  0.55710607  0.16323117  0.98284630  1.0
  Ni  Ni859  1  0.55710607  0.49656450  0.98284630  1.0
  Ni  Ni860  1  0.55710607  0.82989783  0.98284630  1.0
  Ni  Ni861  1  0.89043940  0.16323117  0.98284630  1.0
  Ni  Ni862  1  0.89043940  0.49656450  0.98284630  1.0
  Ni  Ni863  1  0.89043940  0.82989783  0.98284630  1.0
  Ni  Ni864  1  0.30718393  0.00343550  0.92428370  1.0
  Ni  Ni865  1  0.30718393  0.33676883  0.92428370  1.0
  Ni  Ni866  1  0.30718393  0.67010217  0.92428370  1.0
  Ni  Ni867  1  0.64051727  0.00343550  0.92428370  1.0
  Ni  Ni868  1  0.64051727  0.33676883  0.92428370  1.0
  Ni  Ni869  1  0.64051727  0.67010217  0.92428370  1.0
  Ni  Ni870  1  0.97385060  0.00343550  0.92428370  1.0
  Ni  Ni871  1  0.97385060  0.33676883  0.92428370  1.0
  Ni  Ni872  1  0.97385060  0.67010217  0.92428370  1.0
  Ni  Ni873  1  0.17385060  0.17010217  0.82428370  1.0
  Ni  Ni874  1  0.17385060  0.50343550  0.82428370  1.0
  Ni  Ni875  1  0.17385060  0.83676883  0.82428370  1.0
  Ni  Ni876  1  0.50718393  0.17010217  0.82428370  1.0
  Ni  Ni877  1  0.50718393  0.50343550  0.82428370  1.0
  Ni  Ni878  1  0.50718393  0.83676883  0.82428370  1.0
  Ni  Ni879  1  0.84051727  0.17010217  0.82428370  1.0
  Ni  Ni880  1  0.84051727  0.50343550  0.82428370  1.0
  Ni  Ni881  1  0.84051727  0.83676883  0.82428370  1.0
  Ni  Ni882  1  0.06547833  0.00000000  0.80356500  1.0
  Ni  Ni883  1  0.06547833  0.33333333  0.80356500  1.0
  Ni  Ni884  1  0.06547833  0.66666667  0.80356500  1.0
  Ni  Ni885  1  0.39881167  0.00000000  0.80356500  1.0
  Ni  Ni886  1  0.39881167  0.33333333  0.80356500  1.0
  Ni  Ni887  1  0.39881167  0.66666667  0.80356500  1.0
  Ni  Ni888  1  0.73214500  0.00000000  0.80356500  1.0
  Ni  Ni889  1  0.73214500  0.33333333  0.80356500  1.0
  Ni  Ni890  1  0.73214500  0.66666667  0.80356500  1.0
  Ni  Ni891  1  0.19881167  0.16666667  0.90356500  1.0
  Ni  Ni892  1  0.19881167  0.50000000  0.90356500  1.0
  Ni  Ni893  1  0.19881167  0.83333333  0.90356500  1.0
  Ni  Ni894  1  0.53214500  0.16666667  0.90356500  1.0
  Ni  Ni895  1  0.53214500  0.50000000  0.90356500  1.0
  Ni  Ni896  1  0.53214500  0.83333333  0.90356500  1.0
  Ni  Ni897  1  0.86547833  0.16666667  0.90356500  1.0
  Ni  Ni898  1  0.86547833  0.50000000  0.90356500  1.0
  Ni  Ni899  1  0.86547833  0.83333333  0.90356500  1.0
  Ni  Ni900  1  0.30132313  0.04883950  0.80516010  1.0
  Ni  Ni901  1  0.30132313  0.38217283  0.80516010  1.0
  Ni  Ni902  1  0.30132313  0.71550617  0.80516010  1.0
  Ni  Ni903  1  0.63465647  0.04883950  0.80516010  1.0
  Ni  Ni904  1  0.63465647  0.38217283  0.80516010  1.0
  Ni  Ni905  1  0.63465647  0.71550617  0.80516010  1.0
  Ni  Ni906  1  0.96798980  0.04883950  0.80516010  1.0
  Ni  Ni907  1  0.96798980  0.38217283  0.80516010  1.0
  Ni  Ni908  1  0.96798980  0.71550617  0.80516010  1.0
  Ni  Ni909  1  0.10132313  0.21550617  0.90516010  1.0
  Ni  Ni910  1  0.10132313  0.54883950  0.90516010  1.0
  Ni  Ni911  1  0.10132313  0.88217283  0.90516010  1.0
  Ni  Ni912  1  0.43465647  0.21550617  0.90516010  1.0
  Ni  Ni913  1  0.43465647  0.54883950  0.90516010  1.0
  Ni  Ni914  1  0.43465647  0.88217283  0.90516010  1.0
  Ni  Ni915  1  0.76798980  0.21550617  0.90516010  1.0
  Ni  Ni916  1  0.76798980  0.54883950  0.90516010  1.0
  Ni  Ni917  1  0.76798980  0.88217283  0.90516010  1.0
  Ni  Ni918  1  0.16296687  0.28449383  0.80196990  1.0
  Ni  Ni919  1  0.16296687  0.61782717  0.80196990  1.0
  Ni  Ni920  1  0.16296687  0.95116050  0.80196990  1.0
  Ni  Ni921  1  0.49630020  0.28449383  0.80196990  1.0
  Ni  Ni922  1  0.49630020  0.61782717  0.80196990  1.0
  Ni  Ni923  1  0.49630020  0.95116050  0.80196990  1.0
  Ni  Ni924  1  0.82963353  0.28449383  0.80196990  1.0
  Ni  Ni925  1  0.82963353  0.61782717  0.80196990  1.0
  Ni  Ni926  1  0.82963353  0.95116050  0.80196990  1.0
  Ni  Ni927  1  0.29630020  0.11782717  0.90196990  1.0
  Ni  Ni928  1  0.29630020  0.45116050  0.90196990  1.0
  Ni  Ni929  1  0.29630020  0.78449383  0.90196990  1.0
  Ni  Ni930  1  0.62963353  0.11782717  0.90196990  1.0
  Ni  Ni931  1  0.62963353  0.45116050  0.90196990  1.0
  Ni  Ni932  1  0.62963353  0.78449383  0.90196990  1.0
  Ni  Ni933  1  0.96296687  0.11782717  0.90196990  1.0
  Ni  Ni934  1  0.96296687  0.45116050  0.90196990  1.0
  Ni  Ni935  1  0.96296687  0.78449383  0.90196990  1.0
  Ni  Ni936  1  0.32919433  0.33000700  0.78642900  1.0
  Ni  Ni937  1  0.32919433  0.66334033  0.78642900  1.0
  Ni  Ni938  1  0.32919433  0.99667367  0.78642900  1.0
  Ni  Ni939  1  0.66252767  0.33000700  0.78642900  1.0
  Ni  Ni940  1  0.66252767  0.66334033  0.78642900  1.0
  Ni  Ni941  1  0.66252767  0.99667367  0.78642900  1.0
  Ni  Ni942  1  0.99586100  0.33000700  0.78642900  1.0
  Ni  Ni943  1  0.99586100  0.66334033  0.78642900  1.0
  Ni  Ni944  1  0.99586100  0.99667367  0.78642900  1.0
  Ni  Ni945  1  0.19586100  0.16334033  0.68642900  1.0
  Ni  Ni946  1  0.19586100  0.49667367  0.68642900  1.0
  Ni  Ni947  1  0.19586100  0.83000700  0.68642900  1.0
  Ni  Ni948  1  0.52919433  0.16334033  0.68642900  1.0
  Ni  Ni949  1  0.52919433  0.49667367  0.68642900  1.0
  Ni  Ni950  1  0.52919433  0.83000700  0.68642900  1.0
  Ni  Ni951  1  0.86252767  0.16334033  0.68642900  1.0
  Ni  Ni952  1  0.86252767  0.49667367  0.68642900  1.0
  Ni  Ni953  1  0.86252767  0.83000700  0.68642900  1.0
  Ni  Ni954  1  0.20176233  0.00332633  0.62070100  1.0
  Ni  Ni955  1  0.20176233  0.33665967  0.62070100  1.0
  Ni  Ni956  1  0.20176233  0.66999300  0.62070100  1.0
  Ni  Ni957  1  0.53509567  0.00332633  0.62070100  1.0
  Ni  Ni958  1  0.53509567  0.33665967  0.62070100  1.0
  Ni  Ni959  1  0.53509567  0.66999300  0.62070100  1.0
  Ni  Ni960  1  0.86842900  0.00332633  0.62070100  1.0
  Ni  Ni961  1  0.86842900  0.33665967  0.62070100  1.0
  Ni  Ni962  1  0.86842900  0.66999300  0.62070100  1.0
  Ni  Ni963  1  0.00176233  0.16999300  0.72070100  1.0
  Ni  Ni964  1  0.00176233  0.50332633  0.72070100  1.0
  Ni  Ni965  1  0.00176233  0.83665967  0.72070100  1.0
  Ni  Ni966  1  0.33509567  0.16999300  0.72070100  1.0
  Ni  Ni967  1  0.33509567  0.50332633  0.72070100  1.0
  Ni  Ni968  1  0.33509567  0.83665967  0.72070100  1.0
  Ni  Ni969  1  0.66842900  0.16999300  0.72070100  1.0
  Ni  Ni970  1  0.66842900  0.50332633  0.72070100  1.0
  Ni  Ni971  1  0.66842900  0.83665967  0.72070100  1.0
  Ni  Ni972  1  0.29850587  0.12218600  0.72137140  1.0
  Ni  Ni973  1  0.29850587  0.45551933  0.72137140  1.0
  Ni  Ni974  1  0.29850587  0.78885267  0.72137140  1.0
  Ni  Ni975  1  0.63183920  0.12218600  0.72137140  1.0
  Ni  Ni976  1  0.63183920  0.45551933  0.72137140  1.0
  Ni  Ni977  1  0.63183920  0.78885267  0.72137140  1.0
  Ni  Ni978  1  0.96517253  0.12218600  0.72137140  1.0
  Ni  Ni979  1  0.96517253  0.45551933  0.72137140  1.0
  Ni  Ni980  1  0.96517253  0.78885267  0.72137140  1.0
  Ni  Ni981  1  0.16517253  0.28885267  0.62137140  1.0
  Ni  Ni982  1  0.16517253  0.62218600  0.62137140  1.0
  Ni  Ni983  1  0.16517253  0.95551933  0.62137140  1.0
  Ni  Ni984  1  0.49850587  0.28885267  0.62137140  1.0
  Ni  Ni985  1  0.49850587  0.62218600  0.62137140  1.0
  Ni  Ni986  1  0.49850587  0.95551933  0.62137140  1.0
  Ni  Ni987  1  0.83183920  0.28885267  0.62137140  1.0
  Ni  Ni988  1  0.83183920  0.62218600  0.62137140  1.0
  Ni  Ni989  1  0.83183920  0.95551933  0.62137140  1.0
  Ni  Ni990  1  0.23245080  0.21114733  0.68575860  1.0
  Ni  Ni991  1  0.23245080  0.54448067  0.68575860  1.0
  Ni  Ni992  1  0.23245080  0.87781400  0.68575860  1.0
  Ni  Ni993  1  0.56578413  0.21114733  0.68575860  1.0
  Ni  Ni994  1  0.56578413  0.54448067  0.68575860  1.0
  Ni  Ni995  1  0.56578413  0.87781400  0.68575860  1.0
  Ni  Ni996  1  0.89911747  0.21114733  0.68575860  1.0
  Ni  Ni997  1  0.89911747  0.54448067  0.68575860  1.0
  Ni  Ni998  1  0.89911747  0.87781400  0.68575860  1.0
  Ni  Ni999  1  0.03245080  0.04448067  0.78575860  1.0
  Ni  Ni1000  1  0.03245080  0.37781400  0.78575860  1.0
  Ni  Ni1001  1  0.03245080  0.71114733  0.78575860  1.0
  Ni  Ni1002  1  0.36578413  0.04448067  0.78575860  1.0
  Ni  Ni1003  1  0.36578413  0.37781400  0.78575860  1.0
  Ni  Ni1004  1  0.36578413  0.71114733  0.78575860  1.0
  Ni  Ni1005  1  0.69911747  0.04448067  0.78575860  1.0
  Ni  Ni1006  1  0.69911747  0.37781400  0.78575860  1.0
  Ni  Ni1007  1  0.69911747  0.71114733  0.78575860  1.0
  Ni  Ni1008  1  0.19658887  0.07994100  0.71249940  1.0
  Ni  Ni1009  1  0.19658887  0.41327433  0.71249940  1.0
  Ni  Ni1010  1  0.19658887  0.74660767  0.71249940  1.0
  Ni  Ni1011  1  0.52992220  0.07994100  0.71249940  1.0
  Ni  Ni1012  1  0.52992220  0.41327433  0.71249940  1.0
  Ni  Ni1013  1  0.52992220  0.74660767  0.71249940  1.0
  Ni  Ni1014  1  0.86325553  0.07994100  0.71249940  1.0
  Ni  Ni1015  1  0.86325553  0.41327433  0.71249940  1.0
  Ni  Ni1016  1  0.86325553  0.74660767  0.71249940  1.0
  Ni  Ni1017  1  0.06325553  0.24660767  0.61249940  1.0
  Ni  Ni1018  1  0.06325553  0.57994100  0.61249940  1.0
  Ni  Ni1019  1  0.06325553  0.91327433  0.61249940  1.0
  Ni  Ni1020  1  0.39658887  0.24660767  0.61249940  1.0
  Ni  Ni1021  1  0.39658887  0.57994100  0.61249940  1.0
  Ni  Ni1022  1  0.39658887  0.91327433  0.61249940  1.0
  Ni  Ni1023  1  0.72992220  0.24660767  0.61249940  1.0
  Ni  Ni1024  1  0.72992220  0.57994100  0.61249940  1.0
  Ni  Ni1025  1  0.72992220  0.91327433  0.61249940  1.0
  Ni  Ni1026  1  0.00103447  0.25339233  0.69463060  1.0
  Ni  Ni1027  1  0.00103447  0.58672567  0.69463060  1.0
  Ni  Ni1028  1  0.00103447  0.92005900  0.69463060  1.0
  Ni  Ni1029  1  0.33436780  0.25339233  0.69463060  1.0
  Ni  Ni1030  1  0.33436780  0.58672567  0.69463060  1.0
  Ni  Ni1031  1  0.33436780  0.92005900  0.69463060  1.0
  Ni  Ni1032  1  0.66770113  0.25339233  0.69463060  1.0
  Ni  Ni1033  1  0.66770113  0.58672567  0.69463060  1.0
  Ni  Ni1034  1  0.66770113  0.92005900  0.69463060  1.0
  Ni  Ni1035  1  0.13436780  0.08672567  0.79463060  1.0
  Ni  Ni1036  1  0.13436780  0.42005900  0.79463060  1.0
  Ni  Ni1037  1  0.13436780  0.75339233  0.79463060  1.0
  Ni  Ni1038  1  0.46770113  0.08672567  0.79463060  1.0
  Ni  Ni1039  1  0.46770113  0.42005900  0.79463060  1.0
  Ni  Ni1040  1  0.46770113  0.75339233  0.79463060  1.0
  Ni  Ni1041  1  0.80103447  0.08672567  0.79463060  1.0
  Ni  Ni1042  1  0.80103447  0.42005900  0.79463060  1.0
  Ni  Ni1043  1  0.80103447  0.75339233  0.79463060  1.0
  Ni  Ni1044  1  0.22699060  0.03699100  0.79366320  1.0
  Ni  Ni1045  1  0.22699060  0.37032433  0.79366320  1.0
  Ni  Ni1046  1  0.22699060  0.70365767  0.79366320  1.0
  Ni  Ni1047  1  0.56032393  0.03699100  0.79366320  1.0
  Ni  Ni1048  1  0.56032393  0.37032433  0.79366320  1.0
  Ni  Ni1049  1  0.56032393  0.70365767  0.79366320  1.0
  Ni  Ni1050  1  0.89365727  0.03699100  0.79366320  1.0
  Ni  Ni1051  1  0.89365727  0.37032433  0.79366320  1.0
  Ni  Ni1052  1  0.89365727  0.70365767  0.79366320  1.0
  Ni  Ni1053  1  0.09365727  0.20365767  0.69366320  1.0
  Ni  Ni1054  1  0.09365727  0.53699100  0.69366320  1.0
  Ni  Ni1055  1  0.09365727  0.87032433  0.69366320  1.0
  Ni  Ni1056  1  0.42699060  0.20365767  0.69366320  1.0
  Ni  Ni1057  1  0.42699060  0.53699100  0.69366320  1.0
  Ni  Ni1058  1  0.42699060  0.87032433  0.69366320  1.0
  Ni  Ni1059  1  0.76032393  0.20365767  0.69366320  1.0
  Ni  Ni1060  1  0.76032393  0.53699100  0.69366320  1.0
  Ni  Ni1061  1  0.76032393  0.87032433  0.69366320  1.0
  Ni  Ni1062  1  0.30396607  0.29634233  0.61346680  1.0
  Ni  Ni1063  1  0.30396607  0.62967567  0.61346680  1.0
  Ni  Ni1064  1  0.30396607  0.96300900  0.61346680  1.0
  Ni  Ni1065  1  0.63729940  0.29634233  0.61346680  1.0
  Ni  Ni1066  1  0.63729940  0.62967567  0.61346680  1.0
  Ni  Ni1067  1  0.63729940  0.96300900  0.61346680  1.0
  Ni  Ni1068  1  0.97063273  0.29634233  0.61346680  1.0
  Ni  Ni1069  1  0.97063273  0.62967567  0.61346680  1.0
  Ni  Ni1070  1  0.97063273  0.96300900  0.61346680  1.0
  Ni  Ni1071  1  0.10396607  0.12967567  0.71346680  1.0
  Ni  Ni1072  1  0.10396607  0.46300900  0.71346680  1.0
  Ni  Ni1073  1  0.10396607  0.79634233  0.71346680  1.0
  Ni  Ni1074  1  0.43729940  0.12967567  0.71346680  1.0
  Ni  Ni1075  1  0.43729940  0.46300900  0.71346680  1.0
  Ni  Ni1076  1  0.43729940  0.79634233  0.71346680  1.0
  Ni  Ni1077  1  0.77063273  0.12967567  0.71346680  1.0
  Ni  Ni1078  1  0.77063273  0.46300900  0.71346680  1.0
  Ni  Ni1079  1  0.77063273  0.79634233  0.71346680  1.0
  Ni  Ni1080  1  0.00802393  0.01247383  0.64950270  1.0
  Ni  Ni1081  1  0.00802393  0.34580717  0.64950270  1.0
  Ni  Ni1082  1  0.00802393  0.67914050  0.64950270  1.0
  Ni  Ni1083  1  0.34135727  0.01247383  0.64950270  1.0
  Ni  Ni1084  1  0.34135727  0.34580717  0.64950270  1.0
  Ni  Ni1085  1  0.34135727  0.67914050  0.64950270  1.0
  Ni  Ni1086  1  0.67469060  0.01247383  0.64950270  1.0
  Ni  Ni1087  1  0.67469060  0.34580717  0.64950270  1.0
  Ni  Ni1088  1  0.67469060  0.67914050  0.64950270  1.0
  Ni  Ni1089  1  0.14135727  0.17914050  0.74950270  1.0
  Ni  Ni1090  1  0.14135727  0.51247383  0.74950270  1.0
  Ni  Ni1091  1  0.14135727  0.84580717  0.74950270  1.0
  Ni  Ni1092  1  0.47469060  0.17914050  0.74950270  1.0
  Ni  Ni1093  1  0.47469060  0.51247383  0.74950270  1.0
  Ni  Ni1094  1  0.47469060  0.84580717  0.74950270  1.0
  Ni  Ni1095  1  0.80802393  0.17914050  0.74950270  1.0
  Ni  Ni1096  1  0.80802393  0.51247383  0.74950270  1.0
  Ni  Ni1097  1  0.80802393  0.84580717  0.74950270  1.0
  Ni  Ni1098  1  0.18959940  0.32085950  0.75762730  1.0
  Ni  Ni1099  1  0.18959940  0.65419283  0.75762730  1.0
  Ni  Ni1100  1  0.18959940  0.98752617  0.75762730  1.0
  Ni  Ni1101  1  0.52293273  0.32085950  0.75762730  1.0
  Ni  Ni1102  1  0.52293273  0.65419283  0.75762730  1.0
  Ni  Ni1103  1  0.52293273  0.98752617  0.75762730  1.0
  Ni  Ni1104  1  0.85626607  0.32085950  0.75762730  1.0
  Ni  Ni1105  1  0.85626607  0.65419283  0.75762730  1.0
  Ni  Ni1106  1  0.85626607  0.98752617  0.75762730  1.0
  Ni  Ni1107  1  0.05626607  0.15419283  0.65762730  1.0
  Ni  Ni1108  1  0.05626607  0.48752617  0.65762730  1.0
  Ni  Ni1109  1  0.05626607  0.82085950  0.65762730  1.0
  Ni  Ni1110  1  0.38959940  0.15419283  0.65762730  1.0
  Ni  Ni1111  1  0.38959940  0.48752617  0.65762730  1.0
  Ni  Ni1112  1  0.38959940  0.82085950  0.65762730  1.0
  Ni  Ni1113  1  0.72293273  0.15419283  0.65762730  1.0
  Ni  Ni1114  1  0.72293273  0.48752617  0.65762730  1.0
  Ni  Ni1115  1  0.72293273  0.82085950  0.65762730  1.0
  Ni  Ni1116  1  0.21475387  0.02491900  0.70411240  1.0
  Ni  Ni1117  1  0.21475387  0.35825233  0.70411240  1.0
  Ni  Ni1118  1  0.21475387  0.69158567  0.70411240  1.0
  Ni  Ni1119  1  0.54808720  0.02491900  0.70411240  1.0
  Ni  Ni1120  1  0.54808720  0.35825233  0.70411240  1.0
  Ni  Ni1121  1  0.54808720  0.69158567  0.70411240  1.0
  Ni  Ni1122  1  0.88142053  0.02491900  0.70411240  1.0
  Ni  Ni1123  1  0.88142053  0.35825233  0.70411240  1.0
  Ni  Ni1124  1  0.88142053  0.69158567  0.70411240  1.0
  Ni  Ni1125  1  0.08142053  0.19158567  0.60411240  1.0
  Ni  Ni1126  1  0.08142053  0.52491900  0.60411240  1.0
  Ni  Ni1127  1  0.08142053  0.85825233  0.60411240  1.0
  Ni  Ni1128  1  0.41475387  0.19158567  0.60411240  1.0
  Ni  Ni1129  1  0.41475387  0.52491900  0.60411240  1.0
  Ni  Ni1130  1  0.41475387  0.85825233  0.60411240  1.0
  Ni  Ni1131  1  0.74808720  0.19158567  0.60411240  1.0
  Ni  Ni1132  1  0.74808720  0.52491900  0.60411240  1.0
  Ni  Ni1133  1  0.74808720  0.85825233  0.60411240  1.0
  Ni  Ni1134  1  0.31620280  0.30841433  0.70301760  1.0
  Ni  Ni1135  1  0.31620280  0.64174767  0.70301760  1.0
  Ni  Ni1136  1  0.31620280  0.97508100  0.70301760  1.0
  Ni  Ni1137  1  0.64953613  0.30841433  0.70301760  1.0
  Ni  Ni1138  1  0.64953613  0.64174767  0.70301760  1.0
  Ni  Ni1139  1  0.64953613  0.97508100  0.70301760  1.0
  Ni  Ni1140  1  0.98286947  0.30841433  0.70301760  1.0
  Ni  Ni1141  1  0.98286947  0.64174767  0.70301760  1.0
  Ni  Ni1142  1  0.98286947  0.97508100  0.70301760  1.0
  Ni  Ni1143  1  0.18286947  0.14174767  0.60301760  1.0
  Ni  Ni1144  1  0.18286947  0.47508100  0.60301760  1.0
  Ni  Ni1145  1  0.18286947  0.80841433  0.60301760  1.0
  Ni  Ni1146  1  0.51620280  0.14174767  0.60301760  1.0
  Ni  Ni1147  1  0.51620280  0.47508100  0.60301760  1.0
  Ni  Ni1148  1  0.51620280  0.80841433  0.60301760  1.0
  Ni  Ni1149  1  0.84953613  0.14174767  0.60301760  1.0
  Ni  Ni1150  1  0.84953613  0.47508100  0.60301760  1.0
  Ni  Ni1151  1  0.84953613  0.80841433  0.60301760  1.0
  Ni  Ni1152  1  0.15528533  0.27739117  0.70368550  1.0
  Ni  Ni1153  1  0.15528533  0.61072450  0.70368550  1.0
  Ni  Ni1154  1  0.15528533  0.94405783  0.70368550  1.0
  Ni  Ni1155  1  0.48861867  0.27739117  0.70368550  1.0
  Ni  Ni1156  1  0.48861867  0.61072450  0.70368550  1.0
  Ni  Ni1157  1  0.48861867  0.94405783  0.70368550  1.0
  Ni  Ni1158  1  0.82195200  0.27739117  0.70368550  1.0
  Ni  Ni1159  1  0.82195200  0.61072450  0.70368550  1.0
  Ni  Ni1160  1  0.82195200  0.94405783  0.70368550  1.0
  Ni  Ni1161  1  0.02195200  0.11072450  0.60368550  1.0
  Ni  Ni1162  1  0.02195200  0.44405783  0.60368550  1.0
  Ni  Ni1163  1  0.02195200  0.77739117  0.60368550  1.0
  Ni  Ni1164  1  0.35528533  0.11072450  0.60368550  1.0
  Ni  Ni1165  1  0.35528533  0.44405783  0.60368550  1.0
  Ni  Ni1166  1  0.35528533  0.77739117  0.60368550  1.0
  Ni  Ni1167  1  0.68861867  0.11072450  0.60368550  1.0
  Ni  Ni1168  1  0.68861867  0.44405783  0.60368550  1.0
  Ni  Ni1169  1  0.68861867  0.77739117  0.60368550  1.0
  Ni  Ni1170  1  0.04233800  0.05594217  0.70344450  1.0
  Ni  Ni1171  1  0.04233800  0.38927550  0.70344450  1.0
  Ni  Ni1172  1  0.04233800  0.72260883  0.70344450  1.0
  Ni  Ni1173  1  0.37567133  0.05594217  0.70344450  1.0
  Ni  Ni1174  1  0.37567133  0.38927550  0.70344450  1.0
  Ni  Ni1175  1  0.37567133  0.72260883  0.70344450  1.0
  Ni  Ni1176  1  0.70900467  0.05594217  0.70344450  1.0
  Ni  Ni1177  1  0.70900467  0.38927550  0.70344450  1.0
  Ni  Ni1178  1  0.70900467  0.72260883  0.70344450  1.0
  Ni  Ni1179  1  0.24233800  0.22260883  0.60344450  1.0
  Ni  Ni1180  1  0.24233800  0.55594217  0.60344450  1.0
  Ni  Ni1181  1  0.24233800  0.88927550  0.60344450  1.0
  Ni  Ni1182  1  0.57567133  0.22260883  0.60344450  1.0
  Ni  Ni1183  1  0.57567133  0.55594217  0.60344450  1.0
  Ni  Ni1184  1  0.57567133  0.88927550  0.60344450  1.0
  Ni  Ni1185  1  0.90900467  0.22260883  0.60344450  1.0
  Ni  Ni1186  1  0.90900467  0.55594217  0.60344450  1.0
  Ni  Ni1187  1  0.90900467  0.88927550  0.60344450  1.0
  Ni  Ni1188  1  0.23862780  0.12879283  0.75191910  1.0
  Ni  Ni1189  1  0.23862780  0.46212617  0.75191910  1.0
  Ni  Ni1190  1  0.23862780  0.79545950  0.75191910  1.0
  Ni  Ni1191  1  0.57196113  0.12879283  0.75191910  1.0
  Ni  Ni1192  1  0.57196113  0.46212617  0.75191910  1.0
  Ni  Ni1193  1  0.57196113  0.79545950  0.75191910  1.0
  Ni  Ni1194  1  0.90529447  0.12879283  0.75191910  1.0
  Ni  Ni1195  1  0.90529447  0.46212617  0.75191910  1.0
  Ni  Ni1196  1  0.90529447  0.79545950  0.75191910  1.0
  Ni  Ni1197  1  0.10529447  0.29545950  0.65191910  1.0
  Ni  Ni1198  1  0.10529447  0.62879283  0.65191910  1.0
  Ni  Ni1199  1  0.10529447  0.96212617  0.65191910  1.0
  Ni  Ni1200  1  0.43862780  0.29545950  0.65191910  1.0
  Ni  Ni1201  1  0.43862780  0.62879283  0.65191910  1.0
  Ni  Ni1202  1  0.43862780  0.96212617  0.65191910  1.0
  Ni  Ni1203  1  0.77196113  0.29545950  0.65191910  1.0
  Ni  Ni1204  1  0.77196113  0.62879283  0.65191910  1.0
  Ni  Ni1205  1  0.77196113  0.96212617  0.65191910  1.0
  Ni  Ni1206  1  0.29232887  0.20454050  0.65521090  1.0
  Ni  Ni1207  1  0.29232887  0.53787383  0.65521090  1.0
  Ni  Ni1208  1  0.29232887  0.87120717  0.65521090  1.0
  Ni  Ni1209  1  0.62566220  0.20454050  0.65521090  1.0
  Ni  Ni1210  1  0.62566220  0.53787383  0.65521090  1.0
  Ni  Ni1211  1  0.62566220  0.87120717  0.65521090  1.0
  Ni  Ni1212  1  0.95899553  0.20454050  0.65521090  1.0
  Ni  Ni1213  1  0.95899553  0.53787383  0.65521090  1.0
  Ni  Ni1214  1  0.95899553  0.87120717  0.65521090  1.0
  Ni  Ni1215  1  0.09232887  0.03787383  0.75521090  1.0
  Ni  Ni1216  1  0.09232887  0.37120717  0.75521090  1.0
  Ni  Ni1217  1  0.09232887  0.70454050  0.75521090  1.0
  Ni  Ni1218  1  0.42566220  0.03787383  0.75521090  1.0
  Ni  Ni1219  1  0.42566220  0.37120717  0.75521090  1.0
  Ni  Ni1220  1  0.42566220  0.70454050  0.75521090  1.0
  Ni  Ni1221  1  0.75899553  0.03787383  0.75521090  1.0
  Ni  Ni1222  1  0.75899553  0.37120717  0.75521090  1.0
  Ni  Ni1223  1  0.75899553  0.70454050  0.75521090  1.0
  Ni  Ni1224  1  0.19881167  0.25000000  0.65356500  1.0
  Ni  Ni1225  1  0.19881167  0.58333333  0.65356500  1.0
  Ni  Ni1226  1  0.19881167  0.91666667  0.65356500  1.0
  Ni  Ni1227  1  0.53214500  0.25000000  0.65356500  1.0
  Ni  Ni1228  1  0.53214500  0.58333333  0.65356500  1.0
  Ni  Ni1229  1  0.53214500  0.91666667  0.65356500  1.0
  Ni  Ni1230  1  0.86547833  0.25000000  0.65356500  1.0
  Ni  Ni1231  1  0.86547833  0.58333333  0.65356500  1.0
  Ni  Ni1232  1  0.86547833  0.91666667  0.65356500  1.0
  Ni  Ni1233  1  0.33214500  0.08333333  0.75356500  1.0
  Ni  Ni1234  1  0.33214500  0.41666667  0.75356500  1.0
  Ni  Ni1235  1  0.33214500  0.75000000  0.75356500  1.0
  Ni  Ni1236  1  0.66547833  0.08333333  0.75356500  1.0
  Ni  Ni1237  1  0.66547833  0.41666667  0.75356500  1.0
  Ni  Ni1238  1  0.66547833  0.75000000  0.75356500  1.0
  Ni  Ni1239  1  0.99881167  0.08333333  0.75356500  1.0
  Ni  Ni1240  1  0.99881167  0.41666667  0.75356500  1.0
  Ni  Ni1241  1  0.99881167  0.75000000  0.75356500  1.0
  Ni  Ni1242  1  0.24138673  0.05730233  0.64825480  1.0
  Ni  Ni1243  1  0.24138673  0.39063567  0.64825480  1.0
  Ni  Ni1244  1  0.24138673  0.72396900  0.64825480  1.0
  Ni  Ni1245  1  0.57472007  0.05730233  0.64825480  1.0
  Ni  Ni1246  1  0.57472007  0.39063567  0.64825480  1.0
  Ni  Ni1247  1  0.57472007  0.72396900  0.64825480  1.0
  Ni  Ni1248  1  0.90805340  0.05730233  0.64825480  1.0
  Ni  Ni1249  1  0.90805340  0.39063567  0.64825480  1.0
  Ni  Ni1250  1  0.90805340  0.72396900  0.64825480  1.0
  Ni  Ni1251  1  0.04138673  0.22396900  0.74825480  1.0
  Ni  Ni1252  1  0.04138673  0.55730233  0.74825480  1.0
  Ni  Ni1253  1  0.04138673  0.89063567  0.74825480  1.0
  Ni  Ni1254  1  0.37472007  0.22396900  0.74825480  1.0
  Ni  Ni1255  1  0.37472007  0.55730233  0.74825480  1.0
  Ni  Ni1256  1  0.37472007  0.89063567  0.74825480  1.0
  Ni  Ni1257  1  0.70805340  0.22396900  0.74825480  1.0
  Ni  Ni1258  1  0.70805340  0.55730233  0.74825480  1.0
  Ni  Ni1259  1  0.70805340  0.89063567  0.74825480  1.0
  Ni  Ni1260  1  0.28956993  0.27603100  0.75887520  1.0
  Ni  Ni1261  1  0.28956993  0.60936433  0.75887520  1.0
  Ni  Ni1262  1  0.28956993  0.94269767  0.75887520  1.0
  Ni  Ni1263  1  0.62290327  0.27603100  0.75887520  1.0
  Ni  Ni1264  1  0.62290327  0.60936433  0.75887520  1.0
  Ni  Ni1265  1  0.62290327  0.94269767  0.75887520  1.0
  Ni  Ni1266  1  0.95623660  0.27603100  0.75887520  1.0
  Ni  Ni1267  1  0.95623660  0.60936433  0.75887520  1.0
  Ni  Ni1268  1  0.95623660  0.94269767  0.75887520  1.0
  Ni  Ni1269  1  0.15623660  0.10936433  0.65887520  1.0
  Ni  Ni1270  1  0.15623660  0.44269767  0.65887520  1.0
  Ni  Ni1271  1  0.15623660  0.77603100  0.65887520  1.0
  Ni  Ni1272  1  0.48956993  0.10936433  0.65887520  1.0
  Ni  Ni1273  1  0.48956993  0.44269767  0.65887520  1.0
  Ni  Ni1274  1  0.48956993  0.77603100  0.65887520  1.0
  Ni  Ni1275  1  0.82290327  0.10936433  0.65887520  1.0
  Ni  Ni1276  1  0.82290327  0.44269767  0.65887520  1.0
  Ni  Ni1277  1  0.82290327  0.77603100  0.65887520  1.0
  Ni  Ni1278  1  0.21409040  0.30291250  0.68287230  1.0
  Ni  Ni1279  1  0.21409040  0.63624583  0.68287230  1.0
  Ni  Ni1280  1  0.21409040  0.96957917  0.68287230  1.0
  Ni  Ni1281  1  0.54742373  0.30291250  0.68287230  1.0
  Ni  Ni1282  1  0.54742373  0.63624583  0.68287230  1.0
  Ni  Ni1283  1  0.54742373  0.96957917  0.68287230  1.0
  Ni  Ni1284  1  0.88075707  0.30291250  0.68287230  1.0
  Ni  Ni1285  1  0.88075707  0.63624583  0.68287230  1.0
  Ni  Ni1286  1  0.88075707  0.96957917  0.68287230  1.0
  Ni  Ni1287  1  0.01409040  0.13624583  0.78287230  1.0
  Ni  Ni1288  1  0.01409040  0.46957917  0.78287230  1.0
  Ni  Ni1289  1  0.01409040  0.80291250  0.78287230  1.0
  Ni  Ni1290  1  0.34742373  0.13624583  0.78287230  1.0
  Ni  Ni1291  1  0.34742373  0.46957917  0.78287230  1.0
  Ni  Ni1292  1  0.34742373  0.80291250  0.78287230  1.0
  Ni  Ni1293  1  0.68075707  0.13624583  0.78287230  1.0
  Ni  Ni1294  1  0.68075707  0.46957917  0.78287230  1.0
  Ni  Ni1295  1  0.68075707  0.80291250  0.78287230  1.0
  Ni  Ni1296  1  0.31686627  0.03042083  0.72425770  1.0
  Ni  Ni1297  1  0.31686627  0.36375417  0.72425770  1.0
  Ni  Ni1298  1  0.31686627  0.69708750  0.72425770  1.0
  Ni  Ni1299  1  0.65019960  0.03042083  0.72425770  1.0
  Ni  Ni1300  1  0.65019960  0.36375417  0.72425770  1.0
  Ni  Ni1301  1  0.65019960  0.69708750  0.72425770  1.0
  Ni  Ni1302  1  0.98353293  0.03042083  0.72425770  1.0
  Ni  Ni1303  1  0.98353293  0.36375417  0.72425770  1.0
  Ni  Ni1304  1  0.98353293  0.69708750  0.72425770  1.0
  Ni  Ni1305  1  0.18353293  0.19708750  0.62425770  1.0
  Ni  Ni1306  1  0.18353293  0.53042083  0.62425770  1.0
  Ni  Ni1307  1  0.18353293  0.86375417  0.62425770  1.0
  Ni  Ni1308  1  0.51686627  0.19708750  0.62425770  1.0
  Ni  Ni1309  1  0.51686627  0.53042083  0.62425770  1.0
  Ni  Ni1310  1  0.51686627  0.86375417  0.62425770  1.0
  Ni  Ni1311  1  0.85019960  0.19708750  0.62425770  1.0
  Ni  Ni1312  1  0.85019960  0.53042083  0.62425770  1.0
  Ni  Ni1313  1  0.85019960  0.86375417  0.62425770  1.0
  Ni  Ni1314  1  0.20911280  0.09133350  0.79803010  1.0
  Ni  Ni1315  1  0.20911280  0.42466683  0.79803010  1.0
  Ni  Ni1316  1  0.20911280  0.75800017  0.79803010  1.0
  Ni  Ni1317  1  0.54244613  0.09133350  0.79803010  1.0
  Ni  Ni1318  1  0.54244613  0.42466683  0.79803010  1.0
  Ni  Ni1319  1  0.54244613  0.75800017  0.79803010  1.0
  Ni  Ni1320  1  0.87577947  0.09133350  0.79803010  1.0
  Ni  Ni1321  1  0.87577947  0.42466683  0.79803010  1.0
  Ni  Ni1322  1  0.87577947  0.75800017  0.79803010  1.0
  Ni  Ni1323  1  0.07577947  0.25800017  0.69803010  1.0
  Ni  Ni1324  1  0.07577947  0.59133350  0.69803010  1.0
  Ni  Ni1325  1  0.07577947  0.92466683  0.69803010  1.0
  Ni  Ni1326  1  0.40911280  0.25800017  0.69803010  1.0
  Ni  Ni1327  1  0.40911280  0.59133350  0.69803010  1.0
  Ni  Ni1328  1  0.40911280  0.92466683  0.69803010  1.0
  Ni  Ni1329  1  0.74244613  0.25800017  0.69803010  1.0
  Ni  Ni1330  1  0.74244613  0.59133350  0.69803010  1.0
  Ni  Ni1331  1  0.74244613  0.92466683  0.69803010  1.0
  Ni  Ni1332  1  0.32184387  0.24199983  0.60909990  1.0
  Ni  Ni1333  1  0.32184387  0.57533317  0.60909990  1.0
  Ni  Ni1334  1  0.32184387  0.90866650  0.60909990  1.0
  Ni  Ni1335  1  0.65517720  0.24199983  0.60909990  1.0
  Ni  Ni1336  1  0.65517720  0.57533317  0.60909990  1.0
  Ni  Ni1337  1  0.65517720  0.90866650  0.60909990  1.0
  Ni  Ni1338  1  0.98851053  0.24199983  0.60909990  1.0
  Ni  Ni1339  1  0.98851053  0.57533317  0.60909990  1.0
  Ni  Ni1340  1  0.98851053  0.90866650  0.60909990  1.0
  Ni  Ni1341  1  0.12184387  0.07533317  0.70909990  1.0
  Ni  Ni1342  1  0.12184387  0.40866650  0.70909990  1.0
  Ni  Ni1343  1  0.12184387  0.74199983  0.70909990  1.0
  Ni  Ni1344  1  0.45517720  0.07533317  0.70909990  1.0
  Ni  Ni1345  1  0.45517720  0.40866650  0.70909990  1.0
  Ni  Ni1346  1  0.45517720  0.74199983  0.70909990  1.0
  Ni  Ni1347  1  0.78851053  0.07533317  0.70909990  1.0
  Ni  Ni1348  1  0.78851053  0.40866650  0.70909990  1.0
  Ni  Ni1349  1  0.78851053  0.74199983  0.70909990  1.0
  Ni  Ni1350  1  0.15710607  0.32989783  0.68284630  1.0
  Ni  Ni1351  1  0.15710607  0.66323117  0.68284630  1.0
  Ni  Ni1352  1  0.15710607  0.99656450  0.68284630  1.0
  Ni  Ni1353  1  0.49043940  0.32989783  0.68284630  1.0
  Ni  Ni1354  1  0.49043940  0.66323117  0.68284630  1.0
  Ni  Ni1355  1  0.49043940  0.99656450  0.68284630  1.0
  Ni  Ni1356  1  0.82377273  0.32989783  0.68284630  1.0
  Ni  Ni1357  1  0.82377273  0.66323117  0.68284630  1.0
  Ni  Ni1358  1  0.82377273  0.99656450  0.68284630  1.0
  Ni  Ni1359  1  0.29043940  0.16323117  0.78284630  1.0
  Ni  Ni1360  1  0.29043940  0.49656450  0.78284630  1.0
  Ni  Ni1361  1  0.29043940  0.82989783  0.78284630  1.0
  Ni  Ni1362  1  0.62377273  0.16323117  0.78284630  1.0
  Ni  Ni1363  1  0.62377273  0.49656450  0.78284630  1.0
  Ni  Ni1364  1  0.62377273  0.82989783  0.78284630  1.0
  Ni  Ni1365  1  0.95710607  0.16323117  0.78284630  1.0
  Ni  Ni1366  1  0.95710607  0.49656450  0.78284630  1.0
  Ni  Ni1367  1  0.95710607  0.82989783  0.78284630  1.0
  Ni  Ni1368  1  0.04051727  0.00343550  0.72428370  1.0
  Ni  Ni1369  1  0.04051727  0.33676883  0.72428370  1.0
  Ni  Ni1370  1  0.04051727  0.67010217  0.72428370  1.0
  Ni  Ni1371  1  0.37385060  0.00343550  0.72428370  1.0
  Ni  Ni1372  1  0.37385060  0.33676883  0.72428370  1.0
  Ni  Ni1373  1  0.37385060  0.67010217  0.72428370  1.0
  Ni  Ni1374  1  0.70718393  0.00343550  0.72428370  1.0
  Ni  Ni1375  1  0.70718393  0.33676883  0.72428370  1.0
  Ni  Ni1376  1  0.70718393  0.67010217  0.72428370  1.0
  Ni  Ni1377  1  0.24051727  0.17010217  0.62428370  1.0
  Ni  Ni1378  1  0.24051727  0.50343550  0.62428370  1.0
  Ni  Ni1379  1  0.24051727  0.83676883  0.62428370  1.0
  Ni  Ni1380  1  0.57385060  0.17010217  0.62428370  1.0
  Ni  Ni1381  1  0.57385060  0.50343550  0.62428370  1.0
  Ni  Ni1382  1  0.57385060  0.83676883  0.62428370  1.0
  Ni  Ni1383  1  0.90718393  0.17010217  0.62428370  1.0
  Ni  Ni1384  1  0.90718393  0.50343550  0.62428370  1.0
  Ni  Ni1385  1  0.90718393  0.83676883  0.62428370  1.0
  Ni  Ni1386  1  0.13214500  0.00000000  0.60356500  1.0
  Ni  Ni1387  1  0.13214500  0.33333333  0.60356500  1.0
  Ni  Ni1388  1  0.13214500  0.66666667  0.60356500  1.0
  Ni  Ni1389  1  0.46547833  0.00000000  0.60356500  1.0
  Ni  Ni1390  1  0.46547833  0.33333333  0.60356500  1.0
  Ni  Ni1391  1  0.46547833  0.66666667  0.60356500  1.0
  Ni  Ni1392  1  0.79881167  0.00000000  0.60356500  1.0
  Ni  Ni1393  1  0.79881167  0.33333333  0.60356500  1.0
  Ni  Ni1394  1  0.79881167  0.66666667  0.60356500  1.0
  Ni  Ni1395  1  0.26547833  0.16666667  0.70356500  1.0
  Ni  Ni1396  1  0.26547833  0.50000000  0.70356500  1.0
  Ni  Ni1397  1  0.26547833  0.83333333  0.70356500  1.0
  Ni  Ni1398  1  0.59881167  0.16666667  0.70356500  1.0
  Ni  Ni1399  1  0.59881167  0.50000000  0.70356500  1.0
  Ni  Ni1400  1  0.59881167  0.83333333  0.70356500  1.0
  Ni  Ni1401  1  0.93214500  0.16666667  0.70356500  1.0
  Ni  Ni1402  1  0.93214500  0.50000000  0.70356500  1.0
  Ni  Ni1403  1  0.93214500  0.83333333  0.70356500  1.0
  Ni  Ni1404  1  0.03465647  0.04883950  0.60516010  1.0
  Ni  Ni1405  1  0.03465647  0.38217283  0.60516010  1.0
  Ni  Ni1406  1  0.03465647  0.71550617  0.60516010  1.0
  Ni  Ni1407  1  0.36798980  0.04883950  0.60516010  1.0
  Ni  Ni1408  1  0.36798980  0.38217283  0.60516010  1.0
  Ni  Ni1409  1  0.36798980  0.71550617  0.60516010  1.0
  Ni  Ni1410  1  0.70132313  0.04883950  0.60516010  1.0
  Ni  Ni1411  1  0.70132313  0.38217283  0.60516010  1.0
  Ni  Ni1412  1  0.70132313  0.71550617  0.60516010  1.0
  Ni  Ni1413  1  0.16798980  0.21550617  0.70516010  1.0
  Ni  Ni1414  1  0.16798980  0.54883950  0.70516010  1.0
  Ni  Ni1415  1  0.16798980  0.88217283  0.70516010  1.0
  Ni  Ni1416  1  0.50132313  0.21550617  0.70516010  1.0
  Ni  Ni1417  1  0.50132313  0.54883950  0.70516010  1.0
  Ni  Ni1418  1  0.50132313  0.88217283  0.70516010  1.0
  Ni  Ni1419  1  0.83465647  0.21550617  0.70516010  1.0
  Ni  Ni1420  1  0.83465647  0.54883950  0.70516010  1.0
  Ni  Ni1421  1  0.83465647  0.88217283  0.70516010  1.0
  Ni  Ni1422  1  0.22963353  0.28449383  0.60196990  1.0
  Ni  Ni1423  1  0.22963353  0.61782717  0.60196990  1.0
  Ni  Ni1424  1  0.22963353  0.95116050  0.60196990  1.0
  Ni  Ni1425  1  0.56296687  0.28449383  0.60196990  1.0
  Ni  Ni1426  1  0.56296687  0.61782717  0.60196990  1.0
  Ni  Ni1427  1  0.56296687  0.95116050  0.60196990  1.0
  Ni  Ni1428  1  0.89630020  0.28449383  0.60196990  1.0
  Ni  Ni1429  1  0.89630020  0.61782717  0.60196990  1.0
  Ni  Ni1430  1  0.89630020  0.95116050  0.60196990  1.0
  Ni  Ni1431  1  0.02963353  0.11782717  0.70196990  1.0
  Ni  Ni1432  1  0.02963353  0.45116050  0.70196990  1.0
  Ni  Ni1433  1  0.02963353  0.78449383  0.70196990  1.0
  Ni  Ni1434  1  0.36296687  0.11782717  0.70196990  1.0
  Ni  Ni1435  1  0.36296687  0.45116050  0.70196990  1.0
  Ni  Ni1436  1  0.36296687  0.78449383  0.70196990  1.0
  Ni  Ni1437  1  0.69630020  0.11782717  0.70196990  1.0
  Ni  Ni1438  1  0.69630020  0.45116050  0.70196990  1.0
  Ni  Ni1439  1  0.69630020  0.78449383  0.70196990  1.0
