# generated using pymatgen
data_In3Ni7
_symmetry_space_group_name_H-M   'P 1'
_cell_length_a   33.59501681
_cell_length_b   47.89315507
_cell_length_c   31.19201229
_cell_angle_alpha   80.97653666
_cell_angle_beta   81.98368440
_cell_angle_gamma   87.36789389
_symmetry_Int_Tables_number   1
_chemical_formula_structural   In3Ni7
_chemical_formula_sum   'In432 Ni1008'
_cell_volume   49066.76596893
_cell_formula_units_Z   144
loop_
 _symmetry_equiv_pos_site_id
 _symmetry_equiv_pos_as_xyz
  1  'x, y, z'
loop_
 _atom_site_type_symbol
 _atom_site_label
 _atom_site_symmetry_multiplicity
 _atom_site_fract_x
 _atom_site_fract_y
 _atom_site_fract_z
 _atom_site_occupancy
  In  In0  1  0.29460267  0.30199153  0.81470140  1.0
  In  In1  1  0.29460267  0.63532487  0.81470140  1.0
  In  In2  1  0.29460267  0.96865820  0.81470140  1.0
  In  In3  1  0.62793600  0.30199153  0.81470140  1.0
  In  In4  1  0.62793600  0.63532487  0.81470140  1.0
  In  In5  1  0.62793600  0.96865820  0.81470140  1.0
  In  In6  1  0.96126933  0.30199153  0.81470140  1.0
  In  In7  1  0.96126933  0.63532487  0.81470140  1.0
  In  In8  1  0.96126933  0.96865820  0.81470140  1.0
  In  In9  1  0.12793600  0.10199153  0.91470140  1.0
  In  In10  1  0.12793600  0.43532487  0.91470140  1.0
  In  In11  1  0.12793600  0.76865820  0.91470140  1.0
  In  In12  1  0.46126933  0.10199153  0.91470140  1.0
  In  In13  1  0.46126933  0.43532487  0.91470140  1.0
  In  In14  1  0.46126933  0.76865820  0.91470140  1.0
  In  In15  1  0.79460267  0.10199153  0.91470140  1.0
  In  In16  1  0.79460267  0.43532487  0.91470140  1.0
  In  In17  1  0.79460267  0.76865820  0.91470140  1.0
  In  In18  1  0.03873067  0.09420593  0.99670620  1.0
  In  In19  1  0.03873067  0.42753927  0.99670620  1.0
  In  In20  1  0.03873067  0.76087260  0.99670620  1.0
  In  In21  1  0.37206400  0.09420593  0.99670620  1.0
  In  In22  1  0.37206400  0.42753927  0.99670620  1.0
  In  In23  1  0.37206400  0.76087260  0.99670620  1.0
  In  In24  1  0.70539733  0.09420593  0.99670620  1.0
  In  In25  1  0.70539733  0.42753927  0.99670620  1.0
  In  In26  1  0.70539733  0.76087260  0.99670620  1.0
  In  In27  1  0.20539733  0.29420593  0.89670620  1.0
  In  In28  1  0.20539733  0.62753927  0.89670620  1.0
  In  In29  1  0.20539733  0.96087260  0.89670620  1.0
  In  In30  1  0.53873067  0.29420593  0.89670620  1.0
  In  In31  1  0.53873067  0.62753927  0.89670620  1.0
  In  In32  1  0.53873067  0.96087260  0.89670620  1.0
  In  In33  1  0.87206400  0.29420593  0.89670620  1.0
  In  In34  1  0.87206400  0.62753927  0.89670620  1.0
  In  In35  1  0.87206400  0.96087260  0.89670620  1.0
  In  In36  1  0.04548917  0.28678107  0.98835130  1.0
  In  In37  1  0.04548917  0.62011440  0.98835130  1.0
  In  In38  1  0.04548917  0.95344773  0.98835130  1.0
  In  In39  1  0.37882250  0.28678107  0.98835130  1.0
  In  In40  1  0.37882250  0.62011440  0.98835130  1.0
  In  In41  1  0.37882250  0.95344773  0.98835130  1.0
  In  In42  1  0.71215583  0.28678107  0.98835130  1.0
  In  In43  1  0.71215583  0.62011440  0.98835130  1.0
  In  In44  1  0.71215583  0.95344773  0.98835130  1.0
  In  In45  1  0.21215583  0.15344773  0.88835130  1.0
  In  In46  1  0.21215583  0.48678107  0.88835130  1.0
  In  In47  1  0.21215583  0.82011440  0.88835130  1.0
  In  In48  1  0.54548917  0.15344773  0.88835130  1.0
  In  In49  1  0.54548917  0.48678107  0.88835130  1.0
  In  In50  1  0.54548917  0.82011440  0.88835130  1.0
  In  In51  1  0.87882250  0.15344773  0.88835130  1.0
  In  In52  1  0.87882250  0.48678107  0.88835130  1.0
  In  In53  1  0.87882250  0.82011440  0.88835130  1.0
  In  In54  1  0.28784417  0.10941640  0.82305630  1.0
  In  In55  1  0.28784417  0.44274973  0.82305630  1.0
  In  In56  1  0.28784417  0.77608307  0.82305630  1.0
  In  In57  1  0.62117750  0.10941640  0.82305630  1.0
  In  In58  1  0.62117750  0.44274973  0.82305630  1.0
  In  In59  1  0.62117750  0.77608307  0.82305630  1.0
  In  In60  1  0.95451083  0.10941640  0.82305630  1.0
  In  In61  1  0.95451083  0.44274973  0.82305630  1.0
  In  In62  1  0.95451083  0.77608307  0.82305630  1.0
  In  In63  1  0.12117750  0.24274973  0.92305630  1.0
  In  In64  1  0.12117750  0.57608307  0.92305630  1.0
  In  In65  1  0.12117750  0.90941640  0.92305630  1.0
  In  In66  1  0.45451083  0.24274973  0.92305630  1.0
  In  In67  1  0.45451083  0.57608307  0.92305630  1.0
  In  In68  1  0.45451083  0.90941640  0.92305630  1.0
  In  In69  1  0.78784417  0.24274973  0.92305630  1.0
  In  In70  1  0.78784417  0.57608307  0.92305630  1.0
  In  In71  1  0.78784417  0.90941640  0.92305630  1.0
  In  In72  1  0.31949917  0.20866953  0.86103490  1.0
  In  In73  1  0.31949917  0.54200287  0.86103490  1.0
  In  In74  1  0.31949917  0.87533620  0.86103490  1.0
  In  In75  1  0.65283250  0.20866953  0.86103490  1.0
  In  In76  1  0.65283250  0.54200287  0.86103490  1.0
  In  In77  1  0.65283250  0.87533620  0.86103490  1.0
  In  In78  1  0.98616583  0.20866953  0.86103490  1.0
  In  In79  1  0.98616583  0.54200287  0.86103490  1.0
  In  In80  1  0.98616583  0.87533620  0.86103490  1.0
  In  In81  1  0.15283250  0.00866953  0.96103490  1.0
  In  In82  1  0.15283250  0.34200287  0.96103490  1.0
  In  In83  1  0.15283250  0.67533620  0.96103490  1.0
  In  In84  1  0.48616583  0.00866953  0.96103490  1.0
  In  In85  1  0.48616583  0.34200287  0.96103490  1.0
  In  In86  1  0.48616583  0.67533620  0.96103490  1.0
  In  In87  1  0.81949917  0.00866953  0.96103490  1.0
  In  In88  1  0.81949917  0.34200287  0.96103490  1.0
  In  In89  1  0.81949917  0.67533620  0.96103490  1.0
  In  In90  1  0.01383417  0.18752793  0.95037270  1.0
  In  In91  1  0.01383417  0.52086127  0.95037270  1.0
  In  In92  1  0.01383417  0.85419460  0.95037270  1.0
  In  In93  1  0.34716750  0.18752793  0.95037270  1.0
  In  In94  1  0.34716750  0.52086127  0.95037270  1.0
  In  In95  1  0.34716750  0.85419460  0.95037270  1.0
  In  In96  1  0.68050083  0.18752793  0.95037270  1.0
  In  In97  1  0.68050083  0.52086127  0.95037270  1.0
  In  In98  1  0.68050083  0.85419460  0.95037270  1.0
  In  In99  1  0.18050083  0.05419460  0.85037270  1.0
  In  In100  1  0.18050083  0.38752793  0.85037270  1.0
  In  In101  1  0.18050083  0.72086127  0.85037270  1.0
  In  In102  1  0.51383417  0.05419460  0.85037270  1.0
  In  In103  1  0.51383417  0.38752793  0.85037270  1.0
  In  In104  1  0.51383417  0.72086127  0.85037270  1.0
  In  In105  1  0.84716750  0.05419460  0.85037270  1.0
  In  In106  1  0.84716750  0.38752793  0.85037270  1.0
  In  In107  1  0.84716750  0.72086127  0.85037270  1.0
  In  In108  1  0.08510883  0.26530453  0.82434890  1.0
  In  In109  1  0.08510883  0.59863787  0.82434890  1.0
  In  In110  1  0.08510883  0.93197120  0.82434890  1.0
  In  In111  1  0.41844217  0.26530453  0.82434890  1.0
  In  In112  1  0.41844217  0.59863787  0.82434890  1.0
  In  In113  1  0.41844217  0.93197120  0.82434890  1.0
  In  In114  1  0.75177550  0.26530453  0.82434890  1.0
  In  In115  1  0.75177550  0.59863787  0.82434890  1.0
  In  In116  1  0.75177550  0.93197120  0.82434890  1.0
  In  In117  1  0.25177550  0.06530453  0.92434890  1.0
  In  In118  1  0.25177550  0.39863787  0.92434890  1.0
  In  In119  1  0.25177550  0.73197120  0.92434890  1.0
  In  In120  1  0.58510883  0.06530453  0.92434890  1.0
  In  In121  1  0.58510883  0.39863787  0.92434890  1.0
  In  In122  1  0.58510883  0.73197120  0.92434890  1.0
  In  In123  1  0.91844217  0.06530453  0.92434890  1.0
  In  In124  1  0.91844217  0.39863787  0.92434890  1.0
  In  In125  1  0.91844217  0.73197120  0.92434890  1.0
  In  In126  1  0.24822450  0.13089293  0.98705870  1.0
  In  In127  1  0.24822450  0.46422627  0.98705870  1.0
  In  In128  1  0.24822450  0.79755960  0.98705870  1.0
  In  In129  1  0.58155783  0.13089293  0.98705870  1.0
  In  In130  1  0.58155783  0.46422627  0.98705870  1.0
  In  In131  1  0.58155783  0.79755960  0.98705870  1.0
  In  In132  1  0.91489117  0.13089293  0.98705870  1.0
  In  In133  1  0.91489117  0.46422627  0.98705870  1.0
  In  In134  1  0.91489117  0.79755960  0.98705870  1.0
  In  In135  1  0.08155783  0.33089293  0.88705870  1.0
  In  In136  1  0.08155783  0.66422627  0.88705870  1.0
  In  In137  1  0.08155783  0.99755960  0.88705870  1.0
  In  In138  1  0.41489117  0.33089293  0.88705870  1.0
  In  In139  1  0.41489117  0.66422627  0.88705870  1.0
  In  In140  1  0.41489117  0.99755960  0.88705870  1.0
  In  In141  1  0.74822450  0.33089293  0.88705870  1.0
  In  In142  1  0.74822450  0.66422627  0.88705870  1.0
  In  In143  1  0.74822450  0.99755960  0.88705870  1.0
  In  In144  1  0.18956100  0.24088033  0.84281600  1.0
  In  In145  1  0.18956100  0.57421367  0.84281600  1.0
  In  In146  1  0.18956100  0.90754700  0.84281600  1.0
  In  In147  1  0.52289433  0.24088033  0.84281600  1.0
  In  In148  1  0.52289433  0.57421367  0.84281600  1.0
  In  In149  1  0.52289433  0.90754700  0.84281600  1.0
  In  In150  1  0.85622767  0.24088033  0.84281600  1.0
  In  In151  1  0.85622767  0.57421367  0.84281600  1.0
  In  In152  1  0.85622767  0.90754700  0.84281600  1.0
  In  In153  1  0.02289433  0.04088033  0.94281600  1.0
  In  In154  1  0.02289433  0.37421367  0.94281600  1.0
  In  In155  1  0.02289433  0.70754700  0.94281600  1.0
  In  In156  1  0.35622767  0.04088033  0.94281600  1.0
  In  In157  1  0.35622767  0.37421367  0.94281600  1.0
  In  In158  1  0.35622767  0.70754700  0.94281600  1.0
  In  In159  1  0.68956100  0.04088033  0.94281600  1.0
  In  In160  1  0.68956100  0.37421367  0.94281600  1.0
  In  In161  1  0.68956100  0.70754700  0.94281600  1.0
  In  In162  1  0.14377233  0.15531713  0.96859160  1.0
  In  In163  1  0.14377233  0.48865047  0.96859160  1.0
  In  In164  1  0.14377233  0.82198380  0.96859160  1.0
  In  In165  1  0.47710567  0.15531713  0.96859160  1.0
  In  In166  1  0.47710567  0.48865047  0.96859160  1.0
  In  In167  1  0.47710567  0.82198380  0.96859160  1.0
  In  In168  1  0.81043900  0.15531713  0.96859160  1.0
  In  In169  1  0.81043900  0.48865047  0.96859160  1.0
  In  In170  1  0.81043900  0.82198380  0.96859160  1.0
  In  In171  1  0.31043900  0.02198380  0.86859160  1.0
  In  In172  1  0.31043900  0.35531713  0.86859160  1.0
  In  In173  1  0.31043900  0.68865047  0.86859160  1.0
  In  In174  1  0.64377233  0.02198380  0.86859160  1.0
  In  In175  1  0.64377233  0.35531713  0.86859160  1.0
  In  In176  1  0.64377233  0.68865047  0.86859160  1.0
  In  In177  1  0.97710567  0.02198380  0.86859160  1.0
  In  In178  1  0.97710567  0.35531713  0.86859160  1.0
  In  In179  1  0.97710567  0.68865047  0.86859160  1.0
  In  In180  1  0.32561533  0.26416087  0.91711140  1.0
  In  In181  1  0.32561533  0.59749420  0.91711140  1.0
  In  In182  1  0.32561533  0.93082753  0.91711140  1.0
  In  In183  1  0.65894867  0.26416087  0.91711140  1.0
  In  In184  1  0.65894867  0.59749420  0.91711140  1.0
  In  In185  1  0.65894867  0.93082753  0.91711140  1.0
  In  In186  1  0.99228200  0.26416087  0.91711140  1.0
  In  In187  1  0.99228200  0.59749420  0.91711140  1.0
  In  In188  1  0.99228200  0.93082753  0.91711140  1.0
  In  In189  1  0.15894867  0.13082753  0.81711140  1.0
  In  In190  1  0.15894867  0.46416087  0.81711140  1.0
  In  In191  1  0.15894867  0.79749420  0.81711140  1.0
  In  In192  1  0.49228200  0.13082753  0.81711140  1.0
  In  In193  1  0.49228200  0.46416087  0.81711140  1.0
  In  In194  1  0.49228200  0.79749420  0.81711140  1.0
  In  In195  1  0.82561533  0.13082753  0.81711140  1.0
  In  In196  1  0.82561533  0.46416087  0.81711140  1.0
  In  In197  1  0.82561533  0.79749420  0.81711140  1.0
  In  In198  1  0.00771800  0.13203660  0.89429620  1.0
  In  In199  1  0.00771800  0.46536993  0.89429620  1.0
  In  In200  1  0.00771800  0.79870327  0.89429620  1.0
  In  In201  1  0.34105133  0.13203660  0.89429620  1.0
  In  In202  1  0.34105133  0.46536993  0.89429620  1.0
  In  In203  1  0.34105133  0.79870327  0.89429620  1.0
  In  In204  1  0.67438467  0.13203660  0.89429620  1.0
  In  In205  1  0.67438467  0.46536993  0.89429620  1.0
  In  In206  1  0.67438467  0.79870327  0.89429620  1.0
  In  In207  1  0.17438467  0.26536993  0.99429620  1.0
  In  In208  1  0.17438467  0.59870327  0.99429620  1.0
  In  In209  1  0.17438467  0.93203660  0.99429620  1.0
  In  In210  1  0.50771800  0.26536993  0.99429620  1.0
  In  In211  1  0.50771800  0.59870327  0.99429620  1.0
  In  In212  1  0.50771800  0.93203660  0.99429620  1.0
  In  In213  1  0.84105133  0.26536993  0.99429620  1.0
  In  In214  1  0.84105133  0.59870327  0.99429620  1.0
  In  In215  1  0.84105133  0.93203660  0.99429620  1.0
  In  In216  1  0.29460267  0.03532487  0.61470140  1.0
  In  In217  1  0.29460267  0.36865820  0.61470140  1.0
  In  In218  1  0.29460267  0.70199153  0.61470140  1.0
  In  In219  1  0.62793600  0.03532487  0.61470140  1.0
  In  In220  1  0.62793600  0.36865820  0.61470140  1.0
  In  In221  1  0.62793600  0.70199153  0.61470140  1.0
  In  In222  1  0.96126933  0.03532487  0.61470140  1.0
  In  In223  1  0.96126933  0.36865820  0.61470140  1.0
  In  In224  1  0.96126933  0.70199153  0.61470140  1.0
  In  In225  1  0.12793600  0.16865820  0.71470140  1.0
  In  In226  1  0.12793600  0.50199153  0.71470140  1.0
  In  In227  1  0.12793600  0.83532487  0.71470140  1.0
  In  In228  1  0.46126933  0.16865820  0.71470140  1.0
  In  In229  1  0.46126933  0.50199153  0.71470140  1.0
  In  In230  1  0.46126933  0.83532487  0.71470140  1.0
  In  In231  1  0.79460267  0.16865820  0.71470140  1.0
  In  In232  1  0.79460267  0.50199153  0.71470140  1.0
  In  In233  1  0.79460267  0.83532487  0.71470140  1.0
  In  In234  1  0.03873067  0.16087260  0.79670620  1.0
  In  In235  1  0.03873067  0.49420593  0.79670620  1.0
  In  In236  1  0.03873067  0.82753927  0.79670620  1.0
  In  In237  1  0.37206400  0.16087260  0.79670620  1.0
  In  In238  1  0.37206400  0.49420593  0.79670620  1.0
  In  In239  1  0.37206400  0.82753927  0.79670620  1.0
  In  In240  1  0.70539733  0.16087260  0.79670620  1.0
  In  In241  1  0.70539733  0.49420593  0.79670620  1.0
  In  In242  1  0.70539733  0.82753927  0.79670620  1.0
  In  In243  1  0.20539733  0.02753927  0.69670620  1.0
  In  In244  1  0.20539733  0.36087260  0.69670620  1.0
  In  In245  1  0.20539733  0.69420593  0.69670620  1.0
  In  In246  1  0.53873067  0.02753927  0.69670620  1.0
  In  In247  1  0.53873067  0.36087260  0.69670620  1.0
  In  In248  1  0.53873067  0.69420593  0.69670620  1.0
  In  In249  1  0.87206400  0.02753927  0.69670620  1.0
  In  In250  1  0.87206400  0.36087260  0.69670620  1.0
  In  In251  1  0.87206400  0.69420593  0.69670620  1.0
  In  In252  1  0.04548917  0.02011440  0.78835130  1.0
  In  In253  1  0.04548917  0.35344773  0.78835130  1.0
  In  In254  1  0.04548917  0.68678107  0.78835130  1.0
  In  In255  1  0.37882250  0.02011440  0.78835130  1.0
  In  In256  1  0.37882250  0.35344773  0.78835130  1.0
  In  In257  1  0.37882250  0.68678107  0.78835130  1.0
  In  In258  1  0.71215583  0.02011440  0.78835130  1.0
  In  In259  1  0.71215583  0.35344773  0.78835130  1.0
  In  In260  1  0.71215583  0.68678107  0.78835130  1.0
  In  In261  1  0.21215583  0.22011440  0.68835130  1.0
  In  In262  1  0.21215583  0.55344773  0.68835130  1.0
  In  In263  1  0.21215583  0.88678107  0.68835130  1.0
  In  In264  1  0.54548917  0.22011440  0.68835130  1.0
  In  In265  1  0.54548917  0.55344773  0.68835130  1.0
  In  In266  1  0.54548917  0.88678107  0.68835130  1.0
  In  In267  1  0.87882250  0.22011440  0.68835130  1.0
  In  In268  1  0.87882250  0.55344773  0.68835130  1.0
  In  In269  1  0.87882250  0.88678107  0.68835130  1.0
  In  In270  1  0.28784417  0.17608307  0.62305630  1.0
  In  In271  1  0.28784417  0.50941640  0.62305630  1.0
  In  In272  1  0.28784417  0.84274973  0.62305630  1.0
  In  In273  1  0.62117750  0.17608307  0.62305630  1.0
  In  In274  1  0.62117750  0.50941640  0.62305630  1.0
  In  In275  1  0.62117750  0.84274973  0.62305630  1.0
  In  In276  1  0.95451083  0.17608307  0.62305630  1.0
  In  In277  1  0.95451083  0.50941640  0.62305630  1.0
  In  In278  1  0.95451083  0.84274973  0.62305630  1.0
  In  In279  1  0.12117750  0.30941640  0.72305630  1.0
  In  In280  1  0.12117750  0.64274973  0.72305630  1.0
  In  In281  1  0.12117750  0.97608307  0.72305630  1.0
  In  In282  1  0.45451083  0.30941640  0.72305630  1.0
  In  In283  1  0.45451083  0.64274973  0.72305630  1.0
  In  In284  1  0.45451083  0.97608307  0.72305630  1.0
  In  In285  1  0.78784417  0.30941640  0.72305630  1.0
  In  In286  1  0.78784417  0.64274973  0.72305630  1.0
  In  In287  1  0.78784417  0.97608307  0.72305630  1.0
  In  In288  1  0.31949917  0.27533620  0.66103490  1.0
  In  In289  1  0.31949917  0.60866953  0.66103490  1.0
  In  In290  1  0.31949917  0.94200287  0.66103490  1.0
  In  In291  1  0.65283250  0.27533620  0.66103490  1.0
  In  In292  1  0.65283250  0.60866953  0.66103490  1.0
  In  In293  1  0.65283250  0.94200287  0.66103490  1.0
  In  In294  1  0.98616583  0.27533620  0.66103490  1.0
  In  In295  1  0.98616583  0.60866953  0.66103490  1.0
  In  In296  1  0.98616583  0.94200287  0.66103490  1.0
  In  In297  1  0.15283250  0.07533620  0.76103490  1.0
  In  In298  1  0.15283250  0.40866953  0.76103490  1.0
  In  In299  1  0.15283250  0.74200287  0.76103490  1.0
  In  In300  1  0.48616583  0.07533620  0.76103490  1.0
  In  In301  1  0.48616583  0.40866953  0.76103490  1.0
  In  In302  1  0.48616583  0.74200287  0.76103490  1.0
  In  In303  1  0.81949917  0.07533620  0.76103490  1.0
  In  In304  1  0.81949917  0.40866953  0.76103490  1.0
  In  In305  1  0.81949917  0.74200287  0.76103490  1.0
  In  In306  1  0.01383417  0.25419460  0.75037270  1.0
  In  In307  1  0.01383417  0.58752793  0.75037270  1.0
  In  In308  1  0.01383417  0.92086127  0.75037270  1.0
  In  In309  1  0.34716750  0.25419460  0.75037270  1.0
  In  In310  1  0.34716750  0.58752793  0.75037270  1.0
  In  In311  1  0.34716750  0.92086127  0.75037270  1.0
  In  In312  1  0.68050083  0.25419460  0.75037270  1.0
  In  In313  1  0.68050083  0.58752793  0.75037270  1.0
  In  In314  1  0.68050083  0.92086127  0.75037270  1.0
  In  In315  1  0.18050083  0.12086127  0.65037270  1.0
  In  In316  1  0.18050083  0.45419460  0.65037270  1.0
  In  In317  1  0.18050083  0.78752793  0.65037270  1.0
  In  In318  1  0.51383417  0.12086127  0.65037270  1.0
  In  In319  1  0.51383417  0.45419460  0.65037270  1.0
  In  In320  1  0.51383417  0.78752793  0.65037270  1.0
  In  In321  1  0.84716750  0.12086127  0.65037270  1.0
  In  In322  1  0.84716750  0.45419460  0.65037270  1.0
  In  In323  1  0.84716750  0.78752793  0.65037270  1.0
  In  In324  1  0.08510883  0.33197120  0.62434890  1.0
  In  In325  1  0.08510883  0.66530453  0.62434890  1.0
  In  In326  1  0.08510883  0.99863787  0.62434890  1.0
  In  In327  1  0.41844217  0.33197120  0.62434890  1.0
  In  In328  1  0.41844217  0.66530453  0.62434890  1.0
  In  In329  1  0.41844217  0.99863787  0.62434890  1.0
  In  In330  1  0.75177550  0.33197120  0.62434890  1.0
  In  In331  1  0.75177550  0.66530453  0.62434890  1.0
  In  In332  1  0.75177550  0.99863787  0.62434890  1.0
  In  In333  1  0.25177550  0.13197120  0.72434890  1.0
  In  In334  1  0.25177550  0.46530453  0.72434890  1.0
  In  In335  1  0.25177550  0.79863787  0.72434890  1.0
  In  In336  1  0.58510883  0.13197120  0.72434890  1.0
  In  In337  1  0.58510883  0.46530453  0.72434890  1.0
  In  In338  1  0.58510883  0.79863787  0.72434890  1.0
  In  In339  1  0.91844217  0.13197120  0.72434890  1.0
  In  In340  1  0.91844217  0.46530453  0.72434890  1.0
  In  In341  1  0.91844217  0.79863787  0.72434890  1.0
  In  In342  1  0.24822450  0.19755960  0.78705870  1.0
  In  In343  1  0.24822450  0.53089293  0.78705870  1.0
  In  In344  1  0.24822450  0.86422627  0.78705870  1.0
  In  In345  1  0.58155783  0.19755960  0.78705870  1.0
  In  In346  1  0.58155783  0.53089293  0.78705870  1.0
  In  In347  1  0.58155783  0.86422627  0.78705870  1.0
  In  In348  1  0.91489117  0.19755960  0.78705870  1.0
  In  In349  1  0.91489117  0.53089293  0.78705870  1.0
  In  In350  1  0.91489117  0.86422627  0.78705870  1.0
  In  In351  1  0.08155783  0.06422627  0.68705870  1.0
  In  In352  1  0.08155783  0.39755960  0.68705870  1.0
  In  In353  1  0.08155783  0.73089293  0.68705870  1.0
  In  In354  1  0.41489117  0.06422627  0.68705870  1.0
  In  In355  1  0.41489117  0.39755960  0.68705870  1.0
  In  In356  1  0.41489117  0.73089293  0.68705870  1.0
  In  In357  1  0.74822450  0.06422627  0.68705870  1.0
  In  In358  1  0.74822450  0.39755960  0.68705870  1.0
  In  In359  1  0.74822450  0.73089293  0.68705870  1.0
  In  In360  1  0.18956100  0.30754700  0.64281600  1.0
  In  In361  1  0.18956100  0.64088033  0.64281600  1.0
  In  In362  1  0.18956100  0.97421367  0.64281600  1.0
  In  In363  1  0.52289433  0.30754700  0.64281600  1.0
  In  In364  1  0.52289433  0.64088033  0.64281600  1.0
  In  In365  1  0.52289433  0.97421367  0.64281600  1.0
  In  In366  1  0.85622767  0.30754700  0.64281600  1.0
  In  In367  1  0.85622767  0.64088033  0.64281600  1.0
  In  In368  1  0.85622767  0.97421367  0.64281600  1.0
  In  In369  1  0.02289433  0.10754700  0.74281600  1.0
  In  In370  1  0.02289433  0.44088033  0.74281600  1.0
  In  In371  1  0.02289433  0.77421367  0.74281600  1.0
  In  In372  1  0.35622767  0.10754700  0.74281600  1.0
  In  In373  1  0.35622767  0.44088033  0.74281600  1.0
  In  In374  1  0.35622767  0.77421367  0.74281600  1.0
  In  In375  1  0.68956100  0.10754700  0.74281600  1.0
  In  In376  1  0.68956100  0.44088033  0.74281600  1.0
  In  In377  1  0.68956100  0.77421367  0.74281600  1.0
  In  In378  1  0.14377233  0.22198380  0.76859160  1.0
  In  In379  1  0.14377233  0.55531713  0.76859160  1.0
  In  In380  1  0.14377233  0.88865047  0.76859160  1.0
  In  In381  1  0.47710567  0.22198380  0.76859160  1.0
  In  In382  1  0.47710567  0.55531713  0.76859160  1.0
  In  In383  1  0.47710567  0.88865047  0.76859160  1.0
  In  In384  1  0.81043900  0.22198380  0.76859160  1.0
  In  In385  1  0.81043900  0.55531713  0.76859160  1.0
  In  In386  1  0.81043900  0.88865047  0.76859160  1.0
  In  In387  1  0.31043900  0.08865047  0.66859160  1.0
  In  In388  1  0.31043900  0.42198380  0.66859160  1.0
  In  In389  1  0.31043900  0.75531713  0.66859160  1.0
  In  In390  1  0.64377233  0.08865047  0.66859160  1.0
  In  In391  1  0.64377233  0.42198380  0.66859160  1.0
  In  In392  1  0.64377233  0.75531713  0.66859160  1.0
  In  In393  1  0.97710567  0.08865047  0.66859160  1.0
  In  In394  1  0.97710567  0.42198380  0.66859160  1.0
  In  In395  1  0.97710567  0.75531713  0.66859160  1.0
  In  In396  1  0.32561533  0.33082753  0.71711140  1.0
  In  In397  1  0.32561533  0.66416087  0.71711140  1.0
  In  In398  1  0.32561533  0.99749420  0.71711140  1.0
  In  In399  1  0.65894867  0.33082753  0.71711140  1.0
  In  In400  1  0.65894867  0.66416087  0.71711140  1.0
  In  In401  1  0.65894867  0.99749420  0.71711140  1.0
  In  In402  1  0.99228200  0.33082753  0.71711140  1.0
  In  In403  1  0.99228200  0.66416087  0.71711140  1.0
  In  In404  1  0.99228200  0.99749420  0.71711140  1.0
  In  In405  1  0.15894867  0.19749420  0.61711140  1.0
  In  In406  1  0.15894867  0.53082753  0.61711140  1.0
  In  In407  1  0.15894867  0.86416087  0.61711140  1.0
  In  In408  1  0.49228200  0.19749420  0.61711140  1.0
  In  In409  1  0.49228200  0.53082753  0.61711140  1.0
  In  In410  1  0.49228200  0.86416087  0.61711140  1.0
  In  In411  1  0.82561533  0.19749420  0.61711140  1.0
  In  In412  1  0.82561533  0.53082753  0.61711140  1.0
  In  In413  1  0.82561533  0.86416087  0.61711140  1.0
  In  In414  1  0.00771800  0.19870327  0.69429620  1.0
  In  In415  1  0.00771800  0.53203660  0.69429620  1.0
  In  In416  1  0.00771800  0.86536993  0.69429620  1.0
  In  In417  1  0.34105133  0.19870327  0.69429620  1.0
  In  In418  1  0.34105133  0.53203660  0.69429620  1.0
  In  In419  1  0.34105133  0.86536993  0.69429620  1.0
  In  In420  1  0.67438467  0.19870327  0.69429620  1.0
  In  In421  1  0.67438467  0.53203660  0.69429620  1.0
  In  In422  1  0.67438467  0.86536993  0.69429620  1.0
  In  In423  1  0.17438467  0.33203660  0.79429620  1.0
  In  In424  1  0.17438467  0.66536993  0.79429620  1.0
  In  In425  1  0.17438467  0.99870327  0.79429620  1.0
  In  In426  1  0.50771800  0.33203660  0.79429620  1.0
  In  In427  1  0.50771800  0.66536993  0.79429620  1.0
  In  In428  1  0.50771800  0.99870327  0.79429620  1.0
  In  In429  1  0.84105133  0.33203660  0.79429620  1.0
  In  In430  1  0.84105133  0.66536993  0.79429620  1.0
  In  In431  1  0.84105133  0.99870327  0.79429620  1.0
  Ni  Ni432  1  0.24199600  0.20479153  0.87564640  1.0
  Ni  Ni433  1  0.24199600  0.53812487  0.87564640  1.0
  Ni  Ni434  1  0.24199600  0.87145820  0.87564640  1.0
  Ni  Ni435  1  0.57532933  0.20479153  0.87564640  1.0
  Ni  Ni436  1  0.57532933  0.53812487  0.87564640  1.0
  Ni  Ni437  1  0.57532933  0.87145820  0.87564640  1.0
  Ni  Ni438  1  0.90866267  0.20479153  0.87564640  1.0
  Ni  Ni439  1  0.90866267  0.53812487  0.87564640  1.0
  Ni  Ni440  1  0.90866267  0.87145820  0.87564640  1.0
  Ni  Ni441  1  0.07532933  0.00479153  0.97564640  1.0
  Ni  Ni442  1  0.07532933  0.33812487  0.97564640  1.0
  Ni  Ni443  1  0.07532933  0.67145820  0.97564640  1.0
  Ni  Ni444  1  0.40866267  0.00479153  0.97564640  1.0
  Ni  Ni445  1  0.40866267  0.33812487  0.97564640  1.0
  Ni  Ni446  1  0.40866267  0.67145820  0.97564640  1.0
  Ni  Ni447  1  0.74199600  0.00479153  0.97564640  1.0
  Ni  Ni448  1  0.74199600  0.33812487  0.97564640  1.0
  Ni  Ni449  1  0.74199600  0.67145820  0.97564640  1.0
  Ni  Ni450  1  0.09133733  0.19140593  0.93576120  1.0
  Ni  Ni451  1  0.09133733  0.52473927  0.93576120  1.0
  Ni  Ni452  1  0.09133733  0.85807260  0.93576120  1.0
  Ni  Ni453  1  0.42467067  0.19140593  0.93576120  1.0
  Ni  Ni454  1  0.42467067  0.52473927  0.93576120  1.0
  Ni  Ni455  1  0.42467067  0.85807260  0.93576120  1.0
  Ni  Ni456  1  0.75800400  0.19140593  0.93576120  1.0
  Ni  Ni457  1  0.75800400  0.52473927  0.93576120  1.0
  Ni  Ni458  1  0.75800400  0.85807260  0.93576120  1.0
  Ni  Ni459  1  0.25800400  0.05807260  0.83576120  1.0
  Ni  Ni460  1  0.25800400  0.39140593  0.83576120  1.0
  Ni  Ni461  1  0.25800400  0.72473927  0.83576120  1.0
  Ni  Ni462  1  0.59133733  0.05807260  0.83576120  1.0
  Ni  Ni463  1  0.59133733  0.39140593  0.83576120  1.0
  Ni  Ni464  1  0.59133733  0.72473927  0.83576120  1.0
  Ni  Ni465  1  0.92467067  0.05807260  0.83576120  1.0
  Ni  Ni466  1  0.92467067  0.39140593  0.83576120  1.0
  Ni  Ni467  1  0.92467067  0.72473927  0.83576120  1.0
  Ni  Ni468  1  0.29437033  0.29399040  0.98458680  1.0
  Ni  Ni469  1  0.29437033  0.62732373  0.98458680  1.0
  Ni  Ni470  1  0.29437033  0.96065707  0.98458680  1.0
  Ni  Ni471  1  0.62770367  0.29399040  0.98458680  1.0
  Ni  Ni472  1  0.62770367  0.62732373  0.98458680  1.0
  Ni  Ni473  1  0.62770367  0.96065707  0.98458680  1.0
  Ni  Ni474  1  0.96103700  0.29399040  0.98458680  1.0
  Ni  Ni475  1  0.96103700  0.62732373  0.98458680  1.0
  Ni  Ni476  1  0.96103700  0.96065707  0.98458680  1.0
  Ni  Ni477  1  0.12770367  0.16065707  0.88458680  1.0
  Ni  Ni478  1  0.12770367  0.49399040  0.88458680  1.0
  Ni  Ni479  1  0.12770367  0.82732373  0.88458680  1.0
  Ni  Ni480  1  0.46103700  0.16065707  0.88458680  1.0
  Ni  Ni481  1  0.46103700  0.49399040  0.88458680  1.0
  Ni  Ni482  1  0.46103700  0.82732373  0.88458680  1.0
  Ni  Ni483  1  0.79437033  0.16065707  0.88458680  1.0
  Ni  Ni484  1  0.79437033  0.49399040  0.88458680  1.0
  Ni  Ni485  1  0.79437033  0.82732373  0.88458680  1.0
  Ni  Ni486  1  0.03896300  0.10220707  0.82682080  1.0
  Ni  Ni487  1  0.03896300  0.43554040  0.82682080  1.0
  Ni  Ni488  1  0.03896300  0.76887373  0.82682080  1.0
  Ni  Ni489  1  0.37229633  0.10220707  0.82682080  1.0
  Ni  Ni490  1  0.37229633  0.43554040  0.82682080  1.0
  Ni  Ni491  1  0.37229633  0.76887373  0.82682080  1.0
  Ni  Ni492  1  0.70562967  0.10220707  0.82682080  1.0
  Ni  Ni493  1  0.70562967  0.43554040  0.82682080  1.0
  Ni  Ni494  1  0.70562967  0.76887373  0.82682080  1.0
  Ni  Ni495  1  0.20562967  0.23554040  0.92682080  1.0
  Ni  Ni496  1  0.20562967  0.56887373  0.92682080  1.0
  Ni  Ni497  1  0.20562967  0.90220707  0.92682080  1.0
  Ni  Ni498  1  0.53896300  0.23554040  0.92682080  1.0
  Ni  Ni499  1  0.53896300  0.56887373  0.92682080  1.0
  Ni  Ni500  1  0.53896300  0.90220707  0.92682080  1.0
  Ni  Ni501  1  0.87229633  0.23554040  0.92682080  1.0
  Ni  Ni502  1  0.87229633  0.56887373  0.92682080  1.0
  Ni  Ni503  1  0.87229633  0.90220707  0.92682080  1.0
  Ni  Ni504  1  0.06591133  0.27821193  0.90518720  1.0
  Ni  Ni505  1  0.06591133  0.61154527  0.90518720  1.0
  Ni  Ni506  1  0.06591133  0.94487860  0.90518720  1.0
  Ni  Ni507  1  0.39924467  0.27821193  0.90518720  1.0
  Ni  Ni508  1  0.39924467  0.61154527  0.90518720  1.0
  Ni  Ni509  1  0.39924467  0.94487860  0.90518720  1.0
  Ni  Ni510  1  0.73257800  0.27821193  0.90518720  1.0
  Ni  Ni511  1  0.73257800  0.61154527  0.90518720  1.0
  Ni  Ni512  1  0.73257800  0.94487860  0.90518720  1.0
  Ni  Ni513  1  0.23257800  0.14487860  0.80518720  1.0
  Ni  Ni514  1  0.23257800  0.47821193  0.80518720  1.0
  Ni  Ni515  1  0.23257800  0.81154527  0.80518720  1.0
  Ni  Ni516  1  0.56591133  0.14487860  0.80518720  1.0
  Ni  Ni517  1  0.56591133  0.47821193  0.80518720  1.0
  Ni  Ni518  1  0.56591133  0.81154527  0.80518720  1.0
  Ni  Ni519  1  0.89924467  0.14487860  0.80518720  1.0
  Ni  Ni520  1  0.89924467  0.47821193  0.80518720  1.0
  Ni  Ni521  1  0.89924467  0.81154527  0.80518720  1.0
  Ni  Ni522  1  0.26742200  0.11798553  0.90622040  1.0
  Ni  Ni523  1  0.26742200  0.45131887  0.90622040  1.0
  Ni  Ni524  1  0.26742200  0.78465220  0.90622040  1.0
  Ni  Ni525  1  0.60075533  0.11798553  0.90622040  1.0
  Ni  Ni526  1  0.60075533  0.45131887  0.90622040  1.0
  Ni  Ni527  1  0.60075533  0.78465220  0.90622040  1.0
  Ni  Ni528  1  0.93408867  0.11798553  0.90622040  1.0
  Ni  Ni529  1  0.93408867  0.45131887  0.90622040  1.0
  Ni  Ni530  1  0.93408867  0.78465220  0.90622040  1.0
  Ni  Ni531  1  0.10075533  0.31798553  0.80622040  1.0
  Ni  Ni532  1  0.10075533  0.65131887  0.80622040  1.0
  Ni  Ni533  1  0.10075533  0.98465220  0.80622040  1.0
  Ni  Ni534  1  0.43408867  0.31798553  0.80622040  1.0
  Ni  Ni535  1  0.43408867  0.65131887  0.80622040  1.0
  Ni  Ni536  1  0.43408867  0.98465220  0.80622040  1.0
  Ni  Ni537  1  0.76742200  0.31798553  0.80622040  1.0
  Ni  Ni538  1  0.76742200  0.65131887  0.80622040  1.0
  Ni  Ni539  1  0.76742200  0.98465220  0.80622040  1.0
  Ni  Ni540  1  0.00845500  0.25941527  0.83272720  1.0
  Ni  Ni541  1  0.00845500  0.59274860  0.83272720  1.0
  Ni  Ni542  1  0.00845500  0.92608193  0.83272720  1.0
  Ni  Ni543  1  0.34178833  0.25941527  0.83272720  1.0
  Ni  Ni544  1  0.34178833  0.59274860  0.83272720  1.0
  Ni  Ni545  1  0.34178833  0.92608193  0.83272720  1.0
  Ni  Ni546  1  0.67512167  0.25941527  0.83272720  1.0
  Ni  Ni547  1  0.67512167  0.59274860  0.83272720  1.0
  Ni  Ni548  1  0.67512167  0.92608193  0.83272720  1.0
  Ni  Ni549  1  0.17512167  0.05941527  0.93272720  1.0
  Ni  Ni550  1  0.17512167  0.39274860  0.93272720  1.0
  Ni  Ni551  1  0.17512167  0.72608193  0.93272720  1.0
  Ni  Ni552  1  0.50845500  0.05941527  0.93272720  1.0
  Ni  Ni553  1  0.50845500  0.39274860  0.93272720  1.0
  Ni  Ni554  1  0.50845500  0.72608193  0.93272720  1.0
  Ni  Ni555  1  0.84178833  0.05941527  0.93272720  1.0
  Ni  Ni556  1  0.84178833  0.39274860  0.93272720  1.0
  Ni  Ni557  1  0.84178833  0.72608193  0.93272720  1.0
  Ni  Ni558  1  0.32487833  0.13678220  0.97868040  1.0
  Ni  Ni559  1  0.32487833  0.47011553  0.97868040  1.0
  Ni  Ni560  1  0.32487833  0.80344887  0.97868040  1.0
  Ni  Ni561  1  0.65821167  0.13678220  0.97868040  1.0
  Ni  Ni562  1  0.65821167  0.47011553  0.97868040  1.0
  Ni  Ni563  1  0.65821167  0.80344887  0.97868040  1.0
  Ni  Ni564  1  0.99154500  0.13678220  0.97868040  1.0
  Ni  Ni565  1  0.99154500  0.47011553  0.97868040  1.0
  Ni  Ni566  1  0.99154500  0.80344887  0.97868040  1.0
  Ni  Ni567  1  0.15821167  0.00344887  0.87868040  1.0
  Ni  Ni568  1  0.15821167  0.33678220  0.87868040  1.0
  Ni  Ni569  1  0.15821167  0.67011553  0.87868040  1.0
  Ni  Ni570  1  0.49154500  0.00344887  0.87868040  1.0
  Ni  Ni571  1  0.49154500  0.33678220  0.87868040  1.0
  Ni  Ni572  1  0.49154500  0.67011553  0.87868040  1.0
  Ni  Ni573  1  0.82487833  0.00344887  0.87868040  1.0
  Ni  Ni574  1  0.82487833  0.33678220  0.87868040  1.0
  Ni  Ni575  1  0.82487833  0.67011553  0.87868040  1.0
  Ni  Ni576  1  0.27547517  0.24515207  0.80196530  1.0
  Ni  Ni577  1  0.27547517  0.57848540  0.80196530  1.0
  Ni  Ni578  1  0.27547517  0.91181873  0.80196530  1.0
  Ni  Ni579  1  0.60880850  0.24515207  0.80196530  1.0
  Ni  Ni580  1  0.60880850  0.57848540  0.80196530  1.0
  Ni  Ni581  1  0.60880850  0.91181873  0.80196530  1.0
  Ni  Ni582  1  0.94214183  0.24515207  0.80196530  1.0
  Ni  Ni583  1  0.94214183  0.57848540  0.80196530  1.0
  Ni  Ni584  1  0.94214183  0.91181873  0.80196530  1.0
  Ni  Ni585  1  0.10880850  0.04515207  0.90196530  1.0
  Ni  Ni586  1  0.10880850  0.37848540  0.90196530  1.0
  Ni  Ni587  1  0.10880850  0.71181873  0.90196530  1.0
  Ni  Ni588  1  0.44214183  0.04515207  0.90196530  1.0
  Ni  Ni589  1  0.44214183  0.37848540  0.90196530  1.0
  Ni  Ni590  1  0.44214183  0.71181873  0.90196530  1.0
  Ni  Ni591  1  0.77547517  0.04515207  0.90196530  1.0
  Ni  Ni592  1  0.77547517  0.37848540  0.90196530  1.0
  Ni  Ni593  1  0.77547517  0.71181873  0.90196530  1.0
  Ni  Ni594  1  0.05785817  0.21771207  0.80944230  1.0
  Ni  Ni595  1  0.05785817  0.55104540  0.80944230  1.0
  Ni  Ni596  1  0.05785817  0.88437873  0.80944230  1.0
  Ni  Ni597  1  0.39119150  0.21771207  0.80944230  1.0
  Ni  Ni598  1  0.39119150  0.55104540  0.80944230  1.0
  Ni  Ni599  1  0.39119150  0.88437873  0.80944230  1.0
  Ni  Ni600  1  0.72452483  0.21771207  0.80944230  1.0
  Ni  Ni601  1  0.72452483  0.55104540  0.80944230  1.0
  Ni  Ni602  1  0.72452483  0.88437873  0.80944230  1.0
  Ni  Ni603  1  0.22452483  0.01771207  0.90944230  1.0
  Ni  Ni604  1  0.22452483  0.35104540  0.90944230  1.0
  Ni  Ni605  1  0.22452483  0.68437873  0.90944230  1.0
  Ni  Ni606  1  0.55785817  0.01771207  0.90944230  1.0
  Ni  Ni607  1  0.55785817  0.35104540  0.90944230  1.0
  Ni  Ni608  1  0.55785817  0.68437873  0.90944230  1.0
  Ni  Ni609  1  0.89119150  0.01771207  0.90944230  1.0
  Ni  Ni610  1  0.89119150  0.35104540  0.90944230  1.0
  Ni  Ni611  1  0.89119150  0.68437873  0.90944230  1.0
  Ni  Ni612  1  0.05054200  0.22832480  0.88978260  1.0
  Ni  Ni613  1  0.05054200  0.56165813  0.88978260  1.0
  Ni  Ni614  1  0.05054200  0.89499147  0.88978260  1.0
  Ni  Ni615  1  0.38387533  0.22832480  0.88978260  1.0
  Ni  Ni616  1  0.38387533  0.56165813  0.88978260  1.0
  Ni  Ni617  1  0.38387533  0.89499147  0.88978260  1.0
  Ni  Ni618  1  0.71720867  0.22832480  0.88978260  1.0
  Ni  Ni619  1  0.71720867  0.56165813  0.88978260  1.0
  Ni  Ni620  1  0.71720867  0.89499147  0.88978260  1.0
  Ni  Ni621  1  0.21720867  0.02832480  0.98978260  1.0
  Ni  Ni622  1  0.21720867  0.36165813  0.98978260  1.0
  Ni  Ni623  1  0.21720867  0.69499147  0.98978260  1.0
  Ni  Ni624  1  0.55054200  0.02832480  0.98978260  1.0
  Ni  Ni625  1  0.55054200  0.36165813  0.98978260  1.0
  Ni  Ni626  1  0.55054200  0.69499147  0.98978260  1.0
  Ni  Ni627  1  0.88387533  0.02832480  0.98978260  1.0
  Ni  Ni628  1  0.88387533  0.36165813  0.98978260  1.0
  Ni  Ni629  1  0.88387533  0.69499147  0.98978260  1.0
  Ni  Ni630  1  0.28279133  0.16787267  0.92162500  1.0
  Ni  Ni631  1  0.28279133  0.50120600  0.92162500  1.0
  Ni  Ni632  1  0.28279133  0.83453933  0.92162500  1.0
  Ni  Ni633  1  0.61612467  0.16787267  0.92162500  1.0
  Ni  Ni634  1  0.61612467  0.50120600  0.92162500  1.0
  Ni  Ni635  1  0.61612467  0.83453933  0.92162500  1.0
  Ni  Ni636  1  0.94945800  0.16787267  0.92162500  1.0
  Ni  Ni637  1  0.94945800  0.50120600  0.92162500  1.0
  Ni  Ni638  1  0.94945800  0.83453933  0.92162500  1.0
  Ni  Ni639  1  0.11612467  0.03453933  0.82162500  1.0
  Ni  Ni640  1  0.11612467  0.36787267  0.82162500  1.0
  Ni  Ni641  1  0.11612467  0.70120600  0.82162500  1.0
  Ni  Ni642  1  0.44945800  0.03453933  0.82162500  1.0
  Ni  Ni643  1  0.44945800  0.36787267  0.82162500  1.0
  Ni  Ni644  1  0.44945800  0.70120600  0.82162500  1.0
  Ni  Ni645  1  0.78279133  0.03453933  0.82162500  1.0
  Ni  Ni646  1  0.78279133  0.36787267  0.82162500  1.0
  Ni  Ni647  1  0.78279133  0.70120600  0.82162500  1.0
  Ni  Ni648  1  0.11015283  0.17541573  0.80592630  1.0
  Ni  Ni649  1  0.11015283  0.50874907  0.80592630  1.0
  Ni  Ni650  1  0.11015283  0.84208240  0.80592630  1.0
  Ni  Ni651  1  0.44348617  0.17541573  0.80592630  1.0
  Ni  Ni652  1  0.44348617  0.50874907  0.80592630  1.0
  Ni  Ni653  1  0.44348617  0.84208240  0.80592630  1.0
  Ni  Ni654  1  0.77681950  0.17541573  0.80592630  1.0
  Ni  Ni655  1  0.77681950  0.50874907  0.80592630  1.0
  Ni  Ni656  1  0.77681950  0.84208240  0.80592630  1.0
  Ni  Ni657  1  0.27681950  0.30874907  0.90592630  1.0
  Ni  Ni658  1  0.27681950  0.64208240  0.90592630  1.0
  Ni  Ni659  1  0.27681950  0.97541573  0.90592630  1.0
  Ni  Ni660  1  0.61015283  0.30874907  0.90592630  1.0
  Ni  Ni661  1  0.61015283  0.64208240  0.90592630  1.0
  Ni  Ni662  1  0.61015283  0.97541573  0.90592630  1.0
  Ni  Ni663  1  0.94348617  0.30874907  0.90592630  1.0
  Ni  Ni664  1  0.94348617  0.64208240  0.90592630  1.0
  Ni  Ni665  1  0.94348617  0.97541573  0.90592630  1.0
  Ni  Ni666  1  0.22318050  0.28744840  0.80548130  1.0
  Ni  Ni667  1  0.22318050  0.62078173  0.80548130  1.0
  Ni  Ni668  1  0.22318050  0.95411507  0.80548130  1.0
  Ni  Ni669  1  0.55651383  0.28744840  0.80548130  1.0
  Ni  Ni670  1  0.55651383  0.62078173  0.80548130  1.0
  Ni  Ni671  1  0.55651383  0.95411507  0.80548130  1.0
  Ni  Ni672  1  0.88984717  0.28744840  0.80548130  1.0
  Ni  Ni673  1  0.88984717  0.62078173  0.80548130  1.0
  Ni  Ni674  1  0.88984717  0.95411507  0.80548130  1.0
  Ni  Ni675  1  0.05651383  0.08744840  0.90548130  1.0
  Ni  Ni676  1  0.05651383  0.42078173  0.90548130  1.0
  Ni  Ni677  1  0.05651383  0.75411507  0.90548130  1.0
  Ni  Ni678  1  0.38984717  0.08744840  0.90548130  1.0
  Ni  Ni679  1  0.38984717  0.42078173  0.90548130  1.0
  Ni  Ni680  1  0.38984717  0.75411507  0.90548130  1.0
  Ni  Ni681  1  0.72318050  0.08744840  0.90548130  1.0
  Ni  Ni682  1  0.72318050  0.42078173  0.90548130  1.0
  Ni  Ni683  1  0.72318050  0.75411507  0.90548130  1.0
  Ni  Ni684  1  0.01073250  0.31939753  0.92818590  1.0
  Ni  Ni685  1  0.01073250  0.65273087  0.92818590  1.0
  Ni  Ni686  1  0.01073250  0.98606420  0.92818590  1.0
  Ni  Ni687  1  0.34406583  0.31939753  0.92818590  1.0
  Ni  Ni688  1  0.34406583  0.65273087  0.92818590  1.0
  Ni  Ni689  1  0.34406583  0.98606420  0.92818590  1.0
  Ni  Ni690  1  0.67739917  0.31939753  0.92818590  1.0
  Ni  Ni691  1  0.67739917  0.65273087  0.92818590  1.0
  Ni  Ni692  1  0.67739917  0.98606420  0.92818590  1.0
  Ni  Ni693  1  0.17739917  0.18606420  0.82818590  1.0
  Ni  Ni694  1  0.17739917  0.51939753  0.82818590  1.0
  Ni  Ni695  1  0.17739917  0.85273087  0.82818590  1.0
  Ni  Ni696  1  0.51073250  0.18606420  0.82818590  1.0
  Ni  Ni697  1  0.51073250  0.51939753  0.82818590  1.0
  Ni  Ni698  1  0.51073250  0.85273087  0.82818590  1.0
  Ni  Ni699  1  0.84406583  0.18606420  0.82818590  1.0
  Ni  Ni700  1  0.84406583  0.51939753  0.82818590  1.0
  Ni  Ni701  1  0.84406583  0.85273087  0.82818590  1.0
  Ni  Ni702  1  0.32260083  0.07679993  0.88322170  1.0
  Ni  Ni703  1  0.32260083  0.41013327  0.88322170  1.0
  Ni  Ni704  1  0.32260083  0.74346660  0.88322170  1.0
  Ni  Ni705  1  0.65593417  0.07679993  0.88322170  1.0
  Ni  Ni706  1  0.65593417  0.41013327  0.88322170  1.0
  Ni  Ni707  1  0.65593417  0.74346660  0.88322170  1.0
  Ni  Ni708  1  0.98926750  0.07679993  0.88322170  1.0
  Ni  Ni709  1  0.98926750  0.41013327  0.88322170  1.0
  Ni  Ni710  1  0.98926750  0.74346660  0.88322170  1.0
  Ni  Ni711  1  0.15593417  0.21013327  0.98322170  1.0
  Ni  Ni712  1  0.15593417  0.54346660  0.98322170  1.0
  Ni  Ni713  1  0.15593417  0.87679993  0.98322170  1.0
  Ni  Ni714  1  0.48926750  0.21013327  0.98322170  1.0
  Ni  Ni715  1  0.48926750  0.54346660  0.98322170  1.0
  Ni  Ni716  1  0.48926750  0.87679993  0.98322170  1.0
  Ni  Ni717  1  0.82260083  0.21013327  0.98322170  1.0
  Ni  Ni718  1  0.82260083  0.54346660  0.98322170  1.0
  Ni  Ni719  1  0.82260083  0.87679993  0.98322170  1.0
  Ni  Ni720  1  0.08333333  0.13143207  0.85570380  1.0
  Ni  Ni721  1  0.08333333  0.46476540  0.85570380  1.0
  Ni  Ni722  1  0.08333333  0.79809873  0.85570380  1.0
  Ni  Ni723  1  0.41666667  0.13143207  0.85570380  1.0
  Ni  Ni724  1  0.41666667  0.46476540  0.85570380  1.0
  Ni  Ni725  1  0.41666667  0.79809873  0.85570380  1.0
  Ni  Ni726  1  0.75000000  0.13143207  0.85570380  1.0
  Ni  Ni727  1  0.75000000  0.46476540  0.85570380  1.0
  Ni  Ni728  1  0.75000000  0.79809873  0.85570380  1.0
  Ni  Ni729  1  0.25000000  0.26476540  0.95570380  1.0
  Ni  Ni730  1  0.25000000  0.59809873  0.95570380  1.0
  Ni  Ni731  1  0.25000000  0.93143207  0.95570380  1.0
  Ni  Ni732  1  0.58333333  0.26476540  0.95570380  1.0
  Ni  Ni733  1  0.58333333  0.59809873  0.95570380  1.0
  Ni  Ni734  1  0.58333333  0.93143207  0.95570380  1.0
  Ni  Ni735  1  0.91666667  0.26476540  0.95570380  1.0
  Ni  Ni736  1  0.91666667  0.59809873  0.95570380  1.0
  Ni  Ni737  1  0.91666667  0.93143207  0.95570380  1.0
  Ni  Ni738  1  0.04252833  0.23400953  0.96987840  1.0
  Ni  Ni739  1  0.04252833  0.56734287  0.96987840  1.0
  Ni  Ni740  1  0.04252833  0.90067620  0.96987840  1.0
  Ni  Ni741  1  0.37586167  0.23400953  0.96987840  1.0
  Ni  Ni742  1  0.37586167  0.56734287  0.96987840  1.0
  Ni  Ni743  1  0.37586167  0.90067620  0.96987840  1.0
  Ni  Ni744  1  0.70919500  0.23400953  0.96987840  1.0
  Ni  Ni745  1  0.70919500  0.56734287  0.96987840  1.0
  Ni  Ni746  1  0.70919500  0.90067620  0.96987840  1.0
  Ni  Ni747  1  0.20919500  0.10067620  0.86987840  1.0
  Ni  Ni748  1  0.20919500  0.43400953  0.86987840  1.0
  Ni  Ni749  1  0.20919500  0.76734287  0.86987840  1.0
  Ni  Ni750  1  0.54252833  0.10067620  0.86987840  1.0
  Ni  Ni751  1  0.54252833  0.43400953  0.86987840  1.0
  Ni  Ni752  1  0.54252833  0.76734287  0.86987840  1.0
  Ni  Ni753  1  0.87586167  0.10067620  0.86987840  1.0
  Ni  Ni754  1  0.87586167  0.43400953  0.86987840  1.0
  Ni  Ni755  1  0.87586167  0.76734287  0.86987840  1.0
  Ni  Ni756  1  0.29080500  0.16218793  0.84152920  1.0
  Ni  Ni757  1  0.29080500  0.49552127  0.84152920  1.0
  Ni  Ni758  1  0.29080500  0.82885460  0.84152920  1.0
  Ni  Ni759  1  0.62413833  0.16218793  0.84152920  1.0
  Ni  Ni760  1  0.62413833  0.49552127  0.84152920  1.0
  Ni  Ni761  1  0.62413833  0.82885460  0.84152920  1.0
  Ni  Ni762  1  0.95747167  0.16218793  0.84152920  1.0
  Ni  Ni763  1  0.95747167  0.49552127  0.84152920  1.0
  Ni  Ni764  1  0.95747167  0.82885460  0.84152920  1.0
  Ni  Ni765  1  0.12413833  0.29552127  0.94152920  1.0
  Ni  Ni766  1  0.12413833  0.62885460  0.94152920  1.0
  Ni  Ni767  1  0.12413833  0.96218793  0.94152920  1.0
  Ni  Ni768  1  0.45747167  0.29552127  0.94152920  1.0
  Ni  Ni769  1  0.45747167  0.62885460  0.94152920  1.0
  Ni  Ni770  1  0.45747167  0.96218793  0.94152920  1.0
  Ni  Ni771  1  0.79080500  0.29552127  0.94152920  1.0
  Ni  Ni772  1  0.79080500  0.62885460  0.94152920  1.0
  Ni  Ni773  1  0.79080500  0.96218793  0.94152920  1.0
  Ni  Ni774  1  0.05828550  0.17852160  0.87317270  1.0
  Ni  Ni775  1  0.05828550  0.51185493  0.87317270  1.0
  Ni  Ni776  1  0.05828550  0.84518827  0.87317270  1.0
  Ni  Ni777  1  0.39161883  0.17852160  0.87317270  1.0
  Ni  Ni778  1  0.39161883  0.51185493  0.87317270  1.0
  Ni  Ni779  1  0.39161883  0.84518827  0.87317270  1.0
  Ni  Ni780  1  0.72495217  0.17852160  0.87317270  1.0
  Ni  Ni781  1  0.72495217  0.51185493  0.87317270  1.0
  Ni  Ni782  1  0.72495217  0.84518827  0.87317270  1.0
  Ni  Ni783  1  0.22495217  0.31185493  0.97317270  1.0
  Ni  Ni784  1  0.22495217  0.64518827  0.97317270  1.0
  Ni  Ni785  1  0.22495217  0.97852160  0.97317270  1.0
  Ni  Ni786  1  0.55828550  0.31185493  0.97317270  1.0
  Ni  Ni787  1  0.55828550  0.64518827  0.97317270  1.0
  Ni  Ni788  1  0.55828550  0.97852160  0.97317270  1.0
  Ni  Ni789  1  0.89161883  0.31185493  0.97317270  1.0
  Ni  Ni790  1  0.89161883  0.64518827  0.97317270  1.0
  Ni  Ni791  1  0.89161883  0.97852160  0.97317270  1.0
  Ni  Ni792  1  0.27504783  0.21767587  0.93823490  1.0
  Ni  Ni793  1  0.27504783  0.55100920  0.93823490  1.0
  Ni  Ni794  1  0.27504783  0.88434253  0.93823490  1.0
  Ni  Ni795  1  0.60838117  0.21767587  0.93823490  1.0
  Ni  Ni796  1  0.60838117  0.55100920  0.93823490  1.0
  Ni  Ni797  1  0.60838117  0.88434253  0.93823490  1.0
  Ni  Ni798  1  0.94171450  0.21767587  0.93823490  1.0
  Ni  Ni799  1  0.94171450  0.55100920  0.93823490  1.0
  Ni  Ni800  1  0.94171450  0.88434253  0.93823490  1.0
  Ni  Ni801  1  0.10838117  0.08434253  0.83823490  1.0
  Ni  Ni802  1  0.10838117  0.41767587  0.83823490  1.0
  Ni  Ni803  1  0.10838117  0.75100920  0.83823490  1.0
  Ni  Ni804  1  0.44171450  0.08434253  0.83823490  1.0
  Ni  Ni805  1  0.44171450  0.41767587  0.83823490  1.0
  Ni  Ni806  1  0.44171450  0.75100920  0.83823490  1.0
  Ni  Ni807  1  0.77504783  0.08434253  0.83823490  1.0
  Ni  Ni808  1  0.77504783  0.41767587  0.83823490  1.0
  Ni  Ni809  1  0.77504783  0.75100920  0.83823490  1.0
  Ni  Ni810  1  0.02487717  0.30762933  0.85111250  1.0
  Ni  Ni811  1  0.02487717  0.64096267  0.85111250  1.0
  Ni  Ni812  1  0.02487717  0.97429600  0.85111250  1.0
  Ni  Ni813  1  0.35821050  0.30762933  0.85111250  1.0
  Ni  Ni814  1  0.35821050  0.64096267  0.85111250  1.0
  Ni  Ni815  1  0.35821050  0.97429600  0.85111250  1.0
  Ni  Ni816  1  0.69154383  0.30762933  0.85111250  1.0
  Ni  Ni817  1  0.69154383  0.64096267  0.85111250  1.0
  Ni  Ni818  1  0.69154383  0.97429600  0.85111250  1.0
  Ni  Ni819  1  0.19154383  0.10762933  0.95111250  1.0
  Ni  Ni820  1  0.19154383  0.44096267  0.95111250  1.0
  Ni  Ni821  1  0.19154383  0.77429600  0.95111250  1.0
  Ni  Ni822  1  0.52487717  0.10762933  0.95111250  1.0
  Ni  Ni823  1  0.52487717  0.44096267  0.95111250  1.0
  Ni  Ni824  1  0.52487717  0.77429600  0.95111250  1.0
  Ni  Ni825  1  0.85821050  0.10762933  0.95111250  1.0
  Ni  Ni826  1  0.85821050  0.44096267  0.95111250  1.0
  Ni  Ni827  1  0.85821050  0.77429600  0.95111250  1.0
  Ni  Ni828  1  0.30845617  0.08856813  0.96029510  1.0
  Ni  Ni829  1  0.30845617  0.42190147  0.96029510  1.0
  Ni  Ni830  1  0.30845617  0.75523480  0.96029510  1.0
  Ni  Ni831  1  0.64178950  0.08856813  0.96029510  1.0
  Ni  Ni832  1  0.64178950  0.42190147  0.96029510  1.0
  Ni  Ni833  1  0.64178950  0.75523480  0.96029510  1.0
  Ni  Ni834  1  0.97512283  0.08856813  0.96029510  1.0
  Ni  Ni835  1  0.97512283  0.42190147  0.96029510  1.0
  Ni  Ni836  1  0.97512283  0.75523480  0.96029510  1.0
  Ni  Ni837  1  0.14178950  0.28856813  0.86029510  1.0
  Ni  Ni838  1  0.14178950  0.62190147  0.86029510  1.0
  Ni  Ni839  1  0.14178950  0.95523480  0.86029510  1.0
  Ni  Ni840  1  0.47512283  0.28856813  0.86029510  1.0
  Ni  Ni841  1  0.47512283  0.62190147  0.86029510  1.0
  Ni  Ni842  1  0.47512283  0.95523480  0.86029510  1.0
  Ni  Ni843  1  0.80845617  0.28856813  0.86029510  1.0
  Ni  Ni844  1  0.80845617  0.62190147  0.86029510  1.0
  Ni  Ni845  1  0.80845617  0.95523480  0.86029510  1.0
  Ni  Ni846  1  0.11527850  0.21149980  0.85519410  1.0
  Ni  Ni847  1  0.11527850  0.54483313  0.85519410  1.0
  Ni  Ni848  1  0.11527850  0.87816647  0.85519410  1.0
  Ni  Ni849  1  0.44861183  0.21149980  0.85519410  1.0
  Ni  Ni850  1  0.44861183  0.54483313  0.85519410  1.0
  Ni  Ni851  1  0.44861183  0.87816647  0.85519410  1.0
  Ni  Ni852  1  0.78194517  0.21149980  0.85519410  1.0
  Ni  Ni853  1  0.78194517  0.54483313  0.85519410  1.0
  Ni  Ni854  1  0.78194517  0.87816647  0.85519410  1.0
  Ni  Ni855  1  0.28194517  0.01149980  0.95519410  1.0
  Ni  Ni856  1  0.28194517  0.34483313  0.95519410  1.0
  Ni  Ni857  1  0.28194517  0.67816647  0.95519410  1.0
  Ni  Ni858  1  0.61527850  0.01149980  0.95519410  1.0
  Ni  Ni859  1  0.61527850  0.34483313  0.95519410  1.0
  Ni  Ni860  1  0.61527850  0.67816647  0.95519410  1.0
  Ni  Ni861  1  0.94861183  0.01149980  0.95519410  1.0
  Ni  Ni862  1  0.94861183  0.34483313  0.95519410  1.0
  Ni  Ni863  1  0.94861183  0.67816647  0.95519410  1.0
  Ni  Ni864  1  0.21805483  0.18469767  0.95621350  1.0
  Ni  Ni865  1  0.21805483  0.51803100  0.95621350  1.0
  Ni  Ni866  1  0.21805483  0.85136433  0.95621350  1.0
  Ni  Ni867  1  0.55138817  0.18469767  0.95621350  1.0
  Ni  Ni868  1  0.55138817  0.51803100  0.95621350  1.0
  Ni  Ni869  1  0.55138817  0.85136433  0.95621350  1.0
  Ni  Ni870  1  0.88472150  0.18469767  0.95621350  1.0
  Ni  Ni871  1  0.88472150  0.51803100  0.95621350  1.0
  Ni  Ni872  1  0.88472150  0.85136433  0.95621350  1.0
  Ni  Ni873  1  0.05138817  0.05136433  0.85621350  1.0
  Ni  Ni874  1  0.05138817  0.38469767  0.85621350  1.0
  Ni  Ni875  1  0.05138817  0.71803100  0.85621350  1.0
  Ni  Ni876  1  0.38472150  0.05136433  0.85621350  1.0
  Ni  Ni877  1  0.38472150  0.38469767  0.85621350  1.0
  Ni  Ni878  1  0.38472150  0.71803100  0.85621350  1.0
  Ni  Ni879  1  0.71805483  0.05136433  0.85621350  1.0
  Ni  Ni880  1  0.71805483  0.38469767  0.85621350  1.0
  Ni  Ni881  1  0.71805483  0.71803100  0.85621350  1.0
  Ni  Ni882  1  0.16666667  0.19809873  0.90570380  1.0
  Ni  Ni883  1  0.16666667  0.53143207  0.90570380  1.0
  Ni  Ni884  1  0.16666667  0.86476540  0.90570380  1.0
  Ni  Ni885  1  0.50000000  0.19809873  0.90570380  1.0
  Ni  Ni886  1  0.50000000  0.53143207  0.90570380  1.0
  Ni  Ni887  1  0.50000000  0.86476540  0.90570380  1.0
  Ni  Ni888  1  0.83333333  0.19809873  0.90570380  1.0
  Ni  Ni889  1  0.83333333  0.53143207  0.90570380  1.0
  Ni  Ni890  1  0.83333333  0.86476540  0.90570380  1.0
  Ni  Ni891  1  0.33333333  0.06476540  0.80570380  1.0
  Ni  Ni892  1  0.33333333  0.39809873  0.80570380  1.0
  Ni  Ni893  1  0.33333333  0.73143207  0.80570380  1.0
  Ni  Ni894  1  0.66666667  0.06476540  0.80570380  1.0
  Ni  Ni895  1  0.66666667  0.39809873  0.80570380  1.0
  Ni  Ni896  1  0.66666667  0.73143207  0.80570380  1.0
  Ni  Ni897  1  0.00000000  0.06476540  0.80570380  1.0
  Ni  Ni898  1  0.00000000  0.39809873  0.80570380  1.0
  Ni  Ni899  1  1.00000000  0.73143207  0.80570380  1.0
  Ni  Ni900  1  0.26362350  0.25709340  0.87523830  1.0
  Ni  Ni901  1  0.26362350  0.59042673  0.87523830  1.0
  Ni  Ni902  1  0.26362350  0.92376007  0.87523830  1.0
  Ni  Ni903  1  0.59695683  0.25709340  0.87523830  1.0
  Ni  Ni904  1  0.59695683  0.59042673  0.87523830  1.0
  Ni  Ni905  1  0.59695683  0.92376007  0.87523830  1.0
  Ni  Ni906  1  0.93029017  0.25709340  0.87523830  1.0
  Ni  Ni907  1  0.93029017  0.59042673  0.87523830  1.0
  Ni  Ni908  1  0.93029017  0.92376007  0.87523830  1.0
  Ni  Ni909  1  0.09695683  0.05709340  0.97523830  1.0
  Ni  Ni910  1  0.09695683  0.39042673  0.97523830  1.0
  Ni  Ni911  1  0.09695683  0.72376007  0.97523830  1.0
  Ni  Ni912  1  0.43029017  0.05709340  0.97523830  1.0
  Ni  Ni913  1  0.43029017  0.39042673  0.97523830  1.0
  Ni  Ni914  1  0.43029017  0.72376007  0.97523830  1.0
  Ni  Ni915  1  0.76362350  0.05709340  0.97523830  1.0
  Ni  Ni916  1  0.76362350  0.39042673  0.97523830  1.0
  Ni  Ni917  1  0.76362350  0.72376007  0.97523830  1.0
  Ni  Ni918  1  0.06970983  0.13910407  0.93616930  1.0
  Ni  Ni919  1  0.06970983  0.47243740  0.93616930  1.0
  Ni  Ni920  1  0.06970983  0.80577073  0.93616930  1.0
  Ni  Ni921  1  0.40304317  0.13910407  0.93616930  1.0
  Ni  Ni922  1  0.40304317  0.47243740  0.93616930  1.0
  Ni  Ni923  1  0.40304317  0.80577073  0.93616930  1.0
  Ni  Ni924  1  0.73637650  0.13910407  0.93616930  1.0
  Ni  Ni925  1  0.73637650  0.47243740  0.93616930  1.0
  Ni  Ni926  1  0.73637650  0.80577073  0.93616930  1.0
  Ni  Ni927  1  0.23637650  0.00577073  0.83616930  1.0
  Ni  Ni928  1  0.23637650  0.33910407  0.83616930  1.0
  Ni  Ni929  1  0.23637650  0.67243740  0.83616930  1.0
  Ni  Ni930  1  0.56970983  0.00577073  0.83616930  1.0
  Ni  Ni931  1  0.56970983  0.33910407  0.83616930  1.0
  Ni  Ni932  1  0.56970983  0.67243740  0.83616930  1.0
  Ni  Ni933  1  0.90304317  0.00577073  0.83616930  1.0
  Ni  Ni934  1  0.90304317  0.33910407  0.83616930  1.0
  Ni  Ni935  1  0.90304317  0.67243740  0.83616930  1.0
  Ni  Ni936  1  0.24199600  0.27145820  0.67564640  1.0
  Ni  Ni937  1  0.24199600  0.60479153  0.67564640  1.0
  Ni  Ni938  1  0.24199600  0.93812487  0.67564640  1.0
  Ni  Ni939  1  0.57532933  0.27145820  0.67564640  1.0
  Ni  Ni940  1  0.57532933  0.60479153  0.67564640  1.0
  Ni  Ni941  1  0.57532933  0.93812487  0.67564640  1.0
  Ni  Ni942  1  0.90866267  0.27145820  0.67564640  1.0
  Ni  Ni943  1  0.90866267  0.60479153  0.67564640  1.0
  Ni  Ni944  1  0.90866267  0.93812487  0.67564640  1.0
  Ni  Ni945  1  0.07532933  0.07145820  0.77564640  1.0
  Ni  Ni946  1  0.07532933  0.40479153  0.77564640  1.0
  Ni  Ni947  1  0.07532933  0.73812487  0.77564640  1.0
  Ni  Ni948  1  0.40866267  0.07145820  0.77564640  1.0
  Ni  Ni949  1  0.40866267  0.40479153  0.77564640  1.0
  Ni  Ni950  1  0.40866267  0.73812487  0.77564640  1.0
  Ni  Ni951  1  0.74199600  0.07145820  0.77564640  1.0
  Ni  Ni952  1  0.74199600  0.40479153  0.77564640  1.0
  Ni  Ni953  1  0.74199600  0.73812487  0.77564640  1.0
  Ni  Ni954  1  0.09133733  0.25807260  0.73576120  1.0
  Ni  Ni955  1  0.09133733  0.59140593  0.73576120  1.0
  Ni  Ni956  1  0.09133733  0.92473927  0.73576120  1.0
  Ni  Ni957  1  0.42467067  0.25807260  0.73576120  1.0
  Ni  Ni958  1  0.42467067  0.59140593  0.73576120  1.0
  Ni  Ni959  1  0.42467067  0.92473927  0.73576120  1.0
  Ni  Ni960  1  0.75800400  0.25807260  0.73576120  1.0
  Ni  Ni961  1  0.75800400  0.59140593  0.73576120  1.0
  Ni  Ni962  1  0.75800400  0.92473927  0.73576120  1.0
  Ni  Ni963  1  0.25800400  0.12473927  0.63576120  1.0
  Ni  Ni964  1  0.25800400  0.45807260  0.63576120  1.0
  Ni  Ni965  1  0.25800400  0.79140593  0.63576120  1.0
  Ni  Ni966  1  0.59133733  0.12473927  0.63576120  1.0
  Ni  Ni967  1  0.59133733  0.45807260  0.63576120  1.0
  Ni  Ni968  1  0.59133733  0.79140593  0.63576120  1.0
  Ni  Ni969  1  0.92467067  0.12473927  0.63576120  1.0
  Ni  Ni970  1  0.92467067  0.45807260  0.63576120  1.0
  Ni  Ni971  1  0.92467067  0.79140593  0.63576120  1.0
  Ni  Ni972  1  0.29437033  0.02732373  0.78458680  1.0
  Ni  Ni973  1  0.29437033  0.36065707  0.78458680  1.0
  Ni  Ni974  1  0.29437033  0.69399040  0.78458680  1.0
  Ni  Ni975  1  0.62770367  0.02732373  0.78458680  1.0
  Ni  Ni976  1  0.62770367  0.36065707  0.78458680  1.0
  Ni  Ni977  1  0.62770367  0.69399040  0.78458680  1.0
  Ni  Ni978  1  0.96103700  0.02732373  0.78458680  1.0
  Ni  Ni979  1  0.96103700  0.36065707  0.78458680  1.0
  Ni  Ni980  1  0.96103700  0.69399040  0.78458680  1.0
  Ni  Ni981  1  0.12770367  0.22732373  0.68458680  1.0
  Ni  Ni982  1  0.12770367  0.56065707  0.68458680  1.0
  Ni  Ni983  1  0.12770367  0.89399040  0.68458680  1.0
  Ni  Ni984  1  0.46103700  0.22732373  0.68458680  1.0
  Ni  Ni985  1  0.46103700  0.56065707  0.68458680  1.0
  Ni  Ni986  1  0.46103700  0.89399040  0.68458680  1.0
  Ni  Ni987  1  0.79437033  0.22732373  0.68458680  1.0
  Ni  Ni988  1  0.79437033  0.56065707  0.68458680  1.0
  Ni  Ni989  1  0.79437033  0.89399040  0.68458680  1.0
  Ni  Ni990  1  0.03896300  0.16887373  0.62682080  1.0
  Ni  Ni991  1  0.03896300  0.50220707  0.62682080  1.0
  Ni  Ni992  1  0.03896300  0.83554040  0.62682080  1.0
  Ni  Ni993  1  0.37229633  0.16887373  0.62682080  1.0
  Ni  Ni994  1  0.37229633  0.50220707  0.62682080  1.0
  Ni  Ni995  1  0.37229633  0.83554040  0.62682080  1.0
  Ni  Ni996  1  0.70562967  0.16887373  0.62682080  1.0
  Ni  Ni997  1  0.70562967  0.50220707  0.62682080  1.0
  Ni  Ni998  1  0.70562967  0.83554040  0.62682080  1.0
  Ni  Ni999  1  0.20562967  0.30220707  0.72682080  1.0
  Ni  Ni1000  1  0.20562967  0.63554040  0.72682080  1.0
  Ni  Ni1001  1  0.20562967  0.96887373  0.72682080  1.0
  Ni  Ni1002  1  0.53896300  0.30220707  0.72682080  1.0
  Ni  Ni1003  1  0.53896300  0.63554040  0.72682080  1.0
  Ni  Ni1004  1  0.53896300  0.96887373  0.72682080  1.0
  Ni  Ni1005  1  0.87229633  0.30220707  0.72682080  1.0
  Ni  Ni1006  1  0.87229633  0.63554040  0.72682080  1.0
  Ni  Ni1007  1  0.87229633  0.96887373  0.72682080  1.0
  Ni  Ni1008  1  0.06591133  0.01154527  0.70518720  1.0
  Ni  Ni1009  1  0.06591133  0.34487860  0.70518720  1.0
  Ni  Ni1010  1  0.06591133  0.67821193  0.70518720  1.0
  Ni  Ni1011  1  0.39924467  0.01154527  0.70518720  1.0
  Ni  Ni1012  1  0.39924467  0.34487860  0.70518720  1.0
  Ni  Ni1013  1  0.39924467  0.67821193  0.70518720  1.0
  Ni  Ni1014  1  0.73257800  0.01154527  0.70518720  1.0
  Ni  Ni1015  1  0.73257800  0.34487860  0.70518720  1.0
  Ni  Ni1016  1  0.73257800  0.67821193  0.70518720  1.0
  Ni  Ni1017  1  0.23257800  0.21154527  0.60518720  1.0
  Ni  Ni1018  1  0.23257800  0.54487860  0.60518720  1.0
  Ni  Ni1019  1  0.23257800  0.87821193  0.60518720  1.0
  Ni  Ni1020  1  0.56591133  0.21154527  0.60518720  1.0
  Ni  Ni1021  1  0.56591133  0.54487860  0.60518720  1.0
  Ni  Ni1022  1  0.56591133  0.87821193  0.60518720  1.0
  Ni  Ni1023  1  0.89924467  0.21154527  0.60518720  1.0
  Ni  Ni1024  1  0.89924467  0.54487860  0.60518720  1.0
  Ni  Ni1025  1  0.89924467  0.87821193  0.60518720  1.0
  Ni  Ni1026  1  0.26742200  0.18465220  0.70622040  1.0
  Ni  Ni1027  1  0.26742200  0.51798553  0.70622040  1.0
  Ni  Ni1028  1  0.26742200  0.85131887  0.70622040  1.0
  Ni  Ni1029  1  0.60075533  0.18465220  0.70622040  1.0
  Ni  Ni1030  1  0.60075533  0.51798553  0.70622040  1.0
  Ni  Ni1031  1  0.60075533  0.85131887  0.70622040  1.0
  Ni  Ni1032  1  0.93408867  0.18465220  0.70622040  1.0
  Ni  Ni1033  1  0.93408867  0.51798553  0.70622040  1.0
  Ni  Ni1034  1  0.93408867  0.85131887  0.70622040  1.0
  Ni  Ni1035  1  0.10075533  0.05131887  0.60622040  1.0
  Ni  Ni1036  1  0.10075533  0.38465220  0.60622040  1.0
  Ni  Ni1037  1  0.10075533  0.71798553  0.60622040  1.0
  Ni  Ni1038  1  0.43408867  0.05131887  0.60622040  1.0
  Ni  Ni1039  1  0.43408867  0.38465220  0.60622040  1.0
  Ni  Ni1040  1  0.43408867  0.71798553  0.60622040  1.0
  Ni  Ni1041  1  0.76742200  0.05131887  0.60622040  1.0
  Ni  Ni1042  1  0.76742200  0.38465220  0.60622040  1.0
  Ni  Ni1043  1  0.76742200  0.71798553  0.60622040  1.0
  Ni  Ni1044  1  0.00845500  0.32608193  0.63272720  1.0
  Ni  Ni1045  1  0.00845500  0.65941527  0.63272720  1.0
  Ni  Ni1046  1  0.00845500  0.99274860  0.63272720  1.0
  Ni  Ni1047  1  0.34178833  0.32608193  0.63272720  1.0
  Ni  Ni1048  1  0.34178833  0.65941527  0.63272720  1.0
  Ni  Ni1049  1  0.34178833  0.99274860  0.63272720  1.0
  Ni  Ni1050  1  0.67512167  0.32608193  0.63272720  1.0
  Ni  Ni1051  1  0.67512167  0.65941527  0.63272720  1.0
  Ni  Ni1052  1  0.67512167  0.99274860  0.63272720  1.0
  Ni  Ni1053  1  0.17512167  0.12608193  0.73272720  1.0
  Ni  Ni1054  1  0.17512167  0.45941527  0.73272720  1.0
  Ni  Ni1055  1  0.17512167  0.79274860  0.73272720  1.0
  Ni  Ni1056  1  0.50845500  0.12608193  0.73272720  1.0
  Ni  Ni1057  1  0.50845500  0.45941527  0.73272720  1.0
  Ni  Ni1058  1  0.50845500  0.79274860  0.73272720  1.0
  Ni  Ni1059  1  0.84178833  0.12608193  0.73272720  1.0
  Ni  Ni1060  1  0.84178833  0.45941527  0.73272720  1.0
  Ni  Ni1061  1  0.84178833  0.79274860  0.73272720  1.0
  Ni  Ni1062  1  0.32487833  0.20344887  0.77868040  1.0
  Ni  Ni1063  1  0.32487833  0.53678220  0.77868040  1.0
  Ni  Ni1064  1  0.32487833  0.87011553  0.77868040  1.0
  Ni  Ni1065  1  0.65821167  0.20344887  0.77868040  1.0
  Ni  Ni1066  1  0.65821167  0.53678220  0.77868040  1.0
  Ni  Ni1067  1  0.65821167  0.87011553  0.77868040  1.0
  Ni  Ni1068  1  0.99154500  0.20344887  0.77868040  1.0
  Ni  Ni1069  1  0.99154500  0.53678220  0.77868040  1.0
  Ni  Ni1070  1  0.99154500  0.87011553  0.77868040  1.0
  Ni  Ni1071  1  0.15821167  0.07011553  0.67868040  1.0
  Ni  Ni1072  1  0.15821167  0.40344887  0.67868040  1.0
  Ni  Ni1073  1  0.15821167  0.73678220  0.67868040  1.0
  Ni  Ni1074  1  0.49154500  0.07011553  0.67868040  1.0
  Ni  Ni1075  1  0.49154500  0.40344887  0.67868040  1.0
  Ni  Ni1076  1  0.49154500  0.73678220  0.67868040  1.0
  Ni  Ni1077  1  0.82487833  0.07011553  0.67868040  1.0
  Ni  Ni1078  1  0.82487833  0.40344887  0.67868040  1.0
  Ni  Ni1079  1  0.82487833  0.73678220  0.67868040  1.0
  Ni  Ni1080  1  0.27547517  0.31181873  0.60196530  1.0
  Ni  Ni1081  1  0.27547517  0.64515207  0.60196530  1.0
  Ni  Ni1082  1  0.27547517  0.97848540  0.60196530  1.0
  Ni  Ni1083  1  0.60880850  0.31181873  0.60196530  1.0
  Ni  Ni1084  1  0.60880850  0.64515207  0.60196530  1.0
  Ni  Ni1085  1  0.60880850  0.97848540  0.60196530  1.0
  Ni  Ni1086  1  0.94214183  0.31181873  0.60196530  1.0
  Ni  Ni1087  1  0.94214183  0.64515207  0.60196530  1.0
  Ni  Ni1088  1  0.94214183  0.97848540  0.60196530  1.0
  Ni  Ni1089  1  0.10880850  0.11181873  0.70196530  1.0
  Ni  Ni1090  1  0.10880850  0.44515207  0.70196530  1.0
  Ni  Ni1091  1  0.10880850  0.77848540  0.70196530  1.0
  Ni  Ni1092  1  0.44214183  0.11181873  0.70196530  1.0
  Ni  Ni1093  1  0.44214183  0.44515207  0.70196530  1.0
  Ni  Ni1094  1  0.44214183  0.77848540  0.70196530  1.0
  Ni  Ni1095  1  0.77547517  0.11181873  0.70196530  1.0
  Ni  Ni1096  1  0.77547517  0.44515207  0.70196530  1.0
  Ni  Ni1097  1  0.77547517  0.77848540  0.70196530  1.0
  Ni  Ni1098  1  0.05785817  0.28437873  0.60944230  1.0
  Ni  Ni1099  1  0.05785817  0.61771207  0.60944230  1.0
  Ni  Ni1100  1  0.05785817  0.95104540  0.60944230  1.0
  Ni  Ni1101  1  0.39119150  0.28437873  0.60944230  1.0
  Ni  Ni1102  1  0.39119150  0.61771207  0.60944230  1.0
  Ni  Ni1103  1  0.39119150  0.95104540  0.60944230  1.0
  Ni  Ni1104  1  0.72452483  0.28437873  0.60944230  1.0
  Ni  Ni1105  1  0.72452483  0.61771207  0.60944230  1.0
  Ni  Ni1106  1  0.72452483  0.95104540  0.60944230  1.0
  Ni  Ni1107  1  0.22452483  0.08437873  0.70944230  1.0
  Ni  Ni1108  1  0.22452483  0.41771207  0.70944230  1.0
  Ni  Ni1109  1  0.22452483  0.75104540  0.70944230  1.0
  Ni  Ni1110  1  0.55785817  0.08437873  0.70944230  1.0
  Ni  Ni1111  1  0.55785817  0.41771207  0.70944230  1.0
  Ni  Ni1112  1  0.55785817  0.75104540  0.70944230  1.0
  Ni  Ni1113  1  0.89119150  0.08437873  0.70944230  1.0
  Ni  Ni1114  1  0.89119150  0.41771207  0.70944230  1.0
  Ni  Ni1115  1  0.89119150  0.75104540  0.70944230  1.0
  Ni  Ni1116  1  0.05054200  0.29499147  0.68978260  1.0
  Ni  Ni1117  1  0.05054200  0.62832480  0.68978260  1.0
  Ni  Ni1118  1  0.05054200  0.96165813  0.68978260  1.0
  Ni  Ni1119  1  0.38387533  0.29499147  0.68978260  1.0
  Ni  Ni1120  1  0.38387533  0.62832480  0.68978260  1.0
  Ni  Ni1121  1  0.38387533  0.96165813  0.68978260  1.0
  Ni  Ni1122  1  0.71720867  0.29499147  0.68978260  1.0
  Ni  Ni1123  1  0.71720867  0.62832480  0.68978260  1.0
  Ni  Ni1124  1  0.71720867  0.96165813  0.68978260  1.0
  Ni  Ni1125  1  0.21720867  0.09499147  0.78978260  1.0
  Ni  Ni1126  1  0.21720867  0.42832480  0.78978260  1.0
  Ni  Ni1127  1  0.21720867  0.76165813  0.78978260  1.0
  Ni  Ni1128  1  0.55054200  0.09499147  0.78978260  1.0
  Ni  Ni1129  1  0.55054200  0.42832480  0.78978260  1.0
  Ni  Ni1130  1  0.55054200  0.76165813  0.78978260  1.0
  Ni  Ni1131  1  0.88387533  0.09499147  0.78978260  1.0
  Ni  Ni1132  1  0.88387533  0.42832480  0.78978260  1.0
  Ni  Ni1133  1  0.88387533  0.76165813  0.78978260  1.0
  Ni  Ni1134  1  0.28279133  0.23453933  0.72162500  1.0
  Ni  Ni1135  1  0.28279133  0.56787267  0.72162500  1.0
  Ni  Ni1136  1  0.28279133  0.90120600  0.72162500  1.0
  Ni  Ni1137  1  0.61612467  0.23453933  0.72162500  1.0
  Ni  Ni1138  1  0.61612467  0.56787267  0.72162500  1.0
  Ni  Ni1139  1  0.61612467  0.90120600  0.72162500  1.0
  Ni  Ni1140  1  0.94945800  0.23453933  0.72162500  1.0
  Ni  Ni1141  1  0.94945800  0.56787267  0.72162500  1.0
  Ni  Ni1142  1  0.94945800  0.90120600  0.72162500  1.0
  Ni  Ni1143  1  0.11612467  0.10120600  0.62162500  1.0
  Ni  Ni1144  1  0.11612467  0.43453933  0.62162500  1.0
  Ni  Ni1145  1  0.11612467  0.76787267  0.62162500  1.0
  Ni  Ni1146  1  0.44945800  0.10120600  0.62162500  1.0
  Ni  Ni1147  1  0.44945800  0.43453933  0.62162500  1.0
  Ni  Ni1148  1  0.44945800  0.76787267  0.62162500  1.0
  Ni  Ni1149  1  0.78279133  0.10120600  0.62162500  1.0
  Ni  Ni1150  1  0.78279133  0.43453933  0.62162500  1.0
  Ni  Ni1151  1  0.78279133  0.76787267  0.62162500  1.0
  Ni  Ni1152  1  0.11015283  0.24208240  0.60592630  1.0
  Ni  Ni1153  1  0.11015283  0.57541573  0.60592630  1.0
  Ni  Ni1154  1  0.11015283  0.90874907  0.60592630  1.0
  Ni  Ni1155  1  0.44348617  0.24208240  0.60592630  1.0
  Ni  Ni1156  1  0.44348617  0.57541573  0.60592630  1.0
  Ni  Ni1157  1  0.44348617  0.90874907  0.60592630  1.0
  Ni  Ni1158  1  0.77681950  0.24208240  0.60592630  1.0
  Ni  Ni1159  1  0.77681950  0.57541573  0.60592630  1.0
  Ni  Ni1160  1  0.77681950  0.90874907  0.60592630  1.0
  Ni  Ni1161  1  0.27681950  0.04208240  0.70592630  1.0
  Ni  Ni1162  1  0.27681950  0.37541573  0.70592630  1.0
  Ni  Ni1163  1  0.27681950  0.70874907  0.70592630  1.0
  Ni  Ni1164  1  0.61015283  0.04208240  0.70592630  1.0
  Ni  Ni1165  1  0.61015283  0.37541573  0.70592630  1.0
  Ni  Ni1166  1  0.61015283  0.70874907  0.70592630  1.0
  Ni  Ni1167  1  0.94348617  0.04208240  0.70592630  1.0
  Ni  Ni1168  1  0.94348617  0.37541573  0.70592630  1.0
  Ni  Ni1169  1  0.94348617  0.70874907  0.70592630  1.0
  Ni  Ni1170  1  0.22318050  0.02078173  0.60548130  1.0
  Ni  Ni1171  1  0.22318050  0.35411507  0.60548130  1.0
  Ni  Ni1172  1  0.22318050  0.68744840  0.60548130  1.0
  Ni  Ni1173  1  0.55651383  0.02078173  0.60548130  1.0
  Ni  Ni1174  1  0.55651383  0.35411507  0.60548130  1.0
  Ni  Ni1175  1  0.55651383  0.68744840  0.60548130  1.0
  Ni  Ni1176  1  0.88984717  0.02078173  0.60548130  1.0
  Ni  Ni1177  1  0.88984717  0.35411507  0.60548130  1.0
  Ni  Ni1178  1  0.88984717  0.68744840  0.60548130  1.0
  Ni  Ni1179  1  0.05651383  0.15411507  0.70548130  1.0
  Ni  Ni1180  1  0.05651383  0.48744840  0.70548130  1.0
  Ni  Ni1181  1  0.05651383  0.82078173  0.70548130  1.0
  Ni  Ni1182  1  0.38984717  0.15411507  0.70548130  1.0
  Ni  Ni1183  1  0.38984717  0.48744840  0.70548130  1.0
  Ni  Ni1184  1  0.38984717  0.82078173  0.70548130  1.0
  Ni  Ni1185  1  0.72318050  0.15411507  0.70548130  1.0
  Ni  Ni1186  1  0.72318050  0.48744840  0.70548130  1.0
  Ni  Ni1187  1  0.72318050  0.82078173  0.70548130  1.0
  Ni  Ni1188  1  0.01073250  0.05273087  0.72818590  1.0
  Ni  Ni1189  1  0.01073250  0.38606420  0.72818590  1.0
  Ni  Ni1190  1  0.01073250  0.71939753  0.72818590  1.0
  Ni  Ni1191  1  0.34406583  0.05273087  0.72818590  1.0
  Ni  Ni1192  1  0.34406583  0.38606420  0.72818590  1.0
  Ni  Ni1193  1  0.34406583  0.71939753  0.72818590  1.0
  Ni  Ni1194  1  0.67739917  0.05273087  0.72818590  1.0
  Ni  Ni1195  1  0.67739917  0.38606420  0.72818590  1.0
  Ni  Ni1196  1  0.67739917  0.71939753  0.72818590  1.0
  Ni  Ni1197  1  0.17739917  0.25273087  0.62818590  1.0
  Ni  Ni1198  1  0.17739917  0.58606420  0.62818590  1.0
  Ni  Ni1199  1  0.17739917  0.91939753  0.62818590  1.0
  Ni  Ni1200  1  0.51073250  0.25273087  0.62818590  1.0
  Ni  Ni1201  1  0.51073250  0.58606420  0.62818590  1.0
  Ni  Ni1202  1  0.51073250  0.91939753  0.62818590  1.0
  Ni  Ni1203  1  0.84406583  0.25273087  0.62818590  1.0
  Ni  Ni1204  1  0.84406583  0.58606420  0.62818590  1.0
  Ni  Ni1205  1  0.84406583  0.91939753  0.62818590  1.0
  Ni  Ni1206  1  0.32260083  0.14346660  0.68322170  1.0
  Ni  Ni1207  1  0.32260083  0.47679993  0.68322170  1.0
  Ni  Ni1208  1  0.32260083  0.81013327  0.68322170  1.0
  Ni  Ni1209  1  0.65593417  0.14346660  0.68322170  1.0
  Ni  Ni1210  1  0.65593417  0.47679993  0.68322170  1.0
  Ni  Ni1211  1  0.65593417  0.81013327  0.68322170  1.0
  Ni  Ni1212  1  0.98926750  0.14346660  0.68322170  1.0
  Ni  Ni1213  1  0.98926750  0.47679993  0.68322170  1.0
  Ni  Ni1214  1  0.98926750  0.81013327  0.68322170  1.0
  Ni  Ni1215  1  0.15593417  0.27679993  0.78322170  1.0
  Ni  Ni1216  1  0.15593417  0.61013327  0.78322170  1.0
  Ni  Ni1217  1  0.15593417  0.94346660  0.78322170  1.0
  Ni  Ni1218  1  0.48926750  0.27679993  0.78322170  1.0
  Ni  Ni1219  1  0.48926750  0.61013327  0.78322170  1.0
  Ni  Ni1220  1  0.48926750  0.94346660  0.78322170  1.0
  Ni  Ni1221  1  0.82260083  0.27679993  0.78322170  1.0
  Ni  Ni1222  1  0.82260083  0.61013327  0.78322170  1.0
  Ni  Ni1223  1  0.82260083  0.94346660  0.78322170  1.0
  Ni  Ni1224  1  0.08333333  0.19809873  0.65570380  1.0
  Ni  Ni1225  1  0.08333333  0.53143207  0.65570380  1.0
  Ni  Ni1226  1  0.08333333  0.86476540  0.65570380  1.0
  Ni  Ni1227  1  0.41666667  0.19809873  0.65570380  1.0
  Ni  Ni1228  1  0.41666667  0.53143207  0.65570380  1.0
  Ni  Ni1229  1  0.41666667  0.86476540  0.65570380  1.0
  Ni  Ni1230  1  0.75000000  0.19809873  0.65570380  1.0
  Ni  Ni1231  1  0.75000000  0.53143207  0.65570380  1.0
  Ni  Ni1232  1  0.75000000  0.86476540  0.65570380  1.0
  Ni  Ni1233  1  0.25000000  0.33143207  0.75570380  1.0
  Ni  Ni1234  1  0.25000000  0.66476540  0.75570380  1.0
  Ni  Ni1235  1  0.25000000  0.99809873  0.75570380  1.0
  Ni  Ni1236  1  0.58333333  0.33143207  0.75570380  1.0
  Ni  Ni1237  1  0.58333333  0.66476540  0.75570380  1.0
  Ni  Ni1238  1  0.58333333  0.99809873  0.75570380  1.0
  Ni  Ni1239  1  0.91666667  0.33143207  0.75570380  1.0
  Ni  Ni1240  1  0.91666667  0.66476540  0.75570380  1.0
  Ni  Ni1241  1  0.91666667  0.99809873  0.75570380  1.0
  Ni  Ni1242  1  0.04252833  0.30067620  0.76987840  1.0
  Ni  Ni1243  1  0.04252833  0.63400953  0.76987840  1.0
  Ni  Ni1244  1  0.04252833  0.96734287  0.76987840  1.0
  Ni  Ni1245  1  0.37586167  0.30067620  0.76987840  1.0
  Ni  Ni1246  1  0.37586167  0.63400953  0.76987840  1.0
  Ni  Ni1247  1  0.37586167  0.96734287  0.76987840  1.0
  Ni  Ni1248  1  0.70919500  0.30067620  0.76987840  1.0
  Ni  Ni1249  1  0.70919500  0.63400953  0.76987840  1.0
  Ni  Ni1250  1  0.70919500  0.96734287  0.76987840  1.0
  Ni  Ni1251  1  0.20919500  0.16734287  0.66987840  1.0
  Ni  Ni1252  1  0.20919500  0.50067620  0.66987840  1.0
  Ni  Ni1253  1  0.20919500  0.83400953  0.66987840  1.0
  Ni  Ni1254  1  0.54252833  0.16734287  0.66987840  1.0
  Ni  Ni1255  1  0.54252833  0.50067620  0.66987840  1.0
  Ni  Ni1256  1  0.54252833  0.83400953  0.66987840  1.0
  Ni  Ni1257  1  0.87586167  0.16734287  0.66987840  1.0
  Ni  Ni1258  1  0.87586167  0.50067620  0.66987840  1.0
  Ni  Ni1259  1  0.87586167  0.83400953  0.66987840  1.0
  Ni  Ni1260  1  0.29080500  0.22885460  0.64152920  1.0
  Ni  Ni1261  1  0.29080500  0.56218793  0.64152920  1.0
  Ni  Ni1262  1  0.29080500  0.89552127  0.64152920  1.0
  Ni  Ni1263  1  0.62413833  0.22885460  0.64152920  1.0
  Ni  Ni1264  1  0.62413833  0.56218793  0.64152920  1.0
  Ni  Ni1265  1  0.62413833  0.89552127  0.64152920  1.0
  Ni  Ni1266  1  0.95747167  0.22885460  0.64152920  1.0
  Ni  Ni1267  1  0.95747167  0.56218793  0.64152920  1.0
  Ni  Ni1268  1  0.95747167  0.89552127  0.64152920  1.0
  Ni  Ni1269  1  0.12413833  0.02885460  0.74152920  1.0
  Ni  Ni1270  1  0.12413833  0.36218793  0.74152920  1.0
  Ni  Ni1271  1  0.12413833  0.69552127  0.74152920  1.0
  Ni  Ni1272  1  0.45747167  0.02885460  0.74152920  1.0
  Ni  Ni1273  1  0.45747167  0.36218793  0.74152920  1.0
  Ni  Ni1274  1  0.45747167  0.69552127  0.74152920  1.0
  Ni  Ni1275  1  0.79080500  0.02885460  0.74152920  1.0
  Ni  Ni1276  1  0.79080500  0.36218793  0.74152920  1.0
  Ni  Ni1277  1  0.79080500  0.69552127  0.74152920  1.0
  Ni  Ni1278  1  0.05828550  0.24518827  0.67317270  1.0
  Ni  Ni1279  1  0.05828550  0.57852160  0.67317270  1.0
  Ni  Ni1280  1  0.05828550  0.91185493  0.67317270  1.0
  Ni  Ni1281  1  0.39161883  0.24518827  0.67317270  1.0
  Ni  Ni1282  1  0.39161883  0.57852160  0.67317270  1.0
  Ni  Ni1283  1  0.39161883  0.91185493  0.67317270  1.0
  Ni  Ni1284  1  0.72495217  0.24518827  0.67317270  1.0
  Ni  Ni1285  1  0.72495217  0.57852160  0.67317270  1.0
  Ni  Ni1286  1  0.72495217  0.91185493  0.67317270  1.0
  Ni  Ni1287  1  0.22495217  0.04518827  0.77317270  1.0
  Ni  Ni1288  1  0.22495217  0.37852160  0.77317270  1.0
  Ni  Ni1289  1  0.22495217  0.71185493  0.77317270  1.0
  Ni  Ni1290  1  0.55828550  0.04518827  0.77317270  1.0
  Ni  Ni1291  1  0.55828550  0.37852160  0.77317270  1.0
  Ni  Ni1292  1  0.55828550  0.71185493  0.77317270  1.0
  Ni  Ni1293  1  0.89161883  0.04518827  0.77317270  1.0
  Ni  Ni1294  1  0.89161883  0.37852160  0.77317270  1.0
  Ni  Ni1295  1  0.89161883  0.71185493  0.77317270  1.0
  Ni  Ni1296  1  0.27504783  0.28434253  0.73823490  1.0
  Ni  Ni1297  1  0.27504783  0.61767587  0.73823490  1.0
  Ni  Ni1298  1  0.27504783  0.95100920  0.73823490  1.0
  Ni  Ni1299  1  0.60838117  0.28434253  0.73823490  1.0
  Ni  Ni1300  1  0.60838117  0.61767587  0.73823490  1.0
  Ni  Ni1301  1  0.60838117  0.95100920  0.73823490  1.0
  Ni  Ni1302  1  0.94171450  0.28434253  0.73823490  1.0
  Ni  Ni1303  1  0.94171450  0.61767587  0.73823490  1.0
  Ni  Ni1304  1  0.94171450  0.95100920  0.73823490  1.0
  Ni  Ni1305  1  0.10838117  0.15100920  0.63823490  1.0
  Ni  Ni1306  1  0.10838117  0.48434253  0.63823490  1.0
  Ni  Ni1307  1  0.10838117  0.81767587  0.63823490  1.0
  Ni  Ni1308  1  0.44171450  0.15100920  0.63823490  1.0
  Ni  Ni1309  1  0.44171450  0.48434253  0.63823490  1.0
  Ni  Ni1310  1  0.44171450  0.81767587  0.63823490  1.0
  Ni  Ni1311  1  0.77504783  0.15100920  0.63823490  1.0
  Ni  Ni1312  1  0.77504783  0.48434253  0.63823490  1.0
  Ni  Ni1313  1  0.77504783  0.81767587  0.63823490  1.0
  Ni  Ni1314  1  0.02487717  0.04096267  0.65111250  1.0
  Ni  Ni1315  1  0.02487717  0.37429600  0.65111250  1.0
  Ni  Ni1316  1  0.02487717  0.70762933  0.65111250  1.0
  Ni  Ni1317  1  0.35821050  0.04096267  0.65111250  1.0
  Ni  Ni1318  1  0.35821050  0.37429600  0.65111250  1.0
  Ni  Ni1319  1  0.35821050  0.70762933  0.65111250  1.0
  Ni  Ni1320  1  0.69154383  0.04096267  0.65111250  1.0
  Ni  Ni1321  1  0.69154383  0.37429600  0.65111250  1.0
  Ni  Ni1322  1  0.69154383  0.70762933  0.65111250  1.0
  Ni  Ni1323  1  0.19154383  0.17429600  0.75111250  1.0
  Ni  Ni1324  1  0.19154383  0.50762933  0.75111250  1.0
  Ni  Ni1325  1  0.19154383  0.84096267  0.75111250  1.0
  Ni  Ni1326  1  0.52487717  0.17429600  0.75111250  1.0
  Ni  Ni1327  1  0.52487717  0.50762933  0.75111250  1.0
  Ni  Ni1328  1  0.52487717  0.84096267  0.75111250  1.0
  Ni  Ni1329  1  0.85821050  0.17429600  0.75111250  1.0
  Ni  Ni1330  1  0.85821050  0.50762933  0.75111250  1.0
  Ni  Ni1331  1  0.85821050  0.84096267  0.75111250  1.0
  Ni  Ni1332  1  0.30845617  0.15523480  0.76029510  1.0
  Ni  Ni1333  1  0.30845617  0.48856813  0.76029510  1.0
  Ni  Ni1334  1  0.30845617  0.82190147  0.76029510  1.0
  Ni  Ni1335  1  0.64178950  0.15523480  0.76029510  1.0
  Ni  Ni1336  1  0.64178950  0.48856813  0.76029510  1.0
  Ni  Ni1337  1  0.64178950  0.82190147  0.76029510  1.0
  Ni  Ni1338  1  0.97512283  0.15523480  0.76029510  1.0
  Ni  Ni1339  1  0.97512283  0.48856813  0.76029510  1.0
  Ni  Ni1340  1  0.97512283  0.82190147  0.76029510  1.0
  Ni  Ni1341  1  0.14178950  0.02190147  0.66029510  1.0
  Ni  Ni1342  1  0.14178950  0.35523480  0.66029510  1.0
  Ni  Ni1343  1  0.14178950  0.68856813  0.66029510  1.0
  Ni  Ni1344  1  0.47512283  0.02190147  0.66029510  1.0
  Ni  Ni1345  1  0.47512283  0.35523480  0.66029510  1.0
  Ni  Ni1346  1  0.47512283  0.68856813  0.66029510  1.0
  Ni  Ni1347  1  0.80845617  0.02190147  0.66029510  1.0
  Ni  Ni1348  1  0.80845617  0.35523480  0.66029510  1.0
  Ni  Ni1349  1  0.80845617  0.68856813  0.66029510  1.0
  Ni  Ni1350  1  0.11527850  0.27816647  0.65519410  1.0
  Ni  Ni1351  1  0.11527850  0.61149980  0.65519410  1.0
  Ni  Ni1352  1  0.11527850  0.94483313  0.65519410  1.0
  Ni  Ni1353  1  0.44861183  0.27816647  0.65519410  1.0
  Ni  Ni1354  1  0.44861183  0.61149980  0.65519410  1.0
  Ni  Ni1355  1  0.44861183  0.94483313  0.65519410  1.0
  Ni  Ni1356  1  0.78194517  0.27816647  0.65519410  1.0
  Ni  Ni1357  1  0.78194517  0.61149980  0.65519410  1.0
  Ni  Ni1358  1  0.78194517  0.94483313  0.65519410  1.0
  Ni  Ni1359  1  0.28194517  0.07816647  0.75519410  1.0
  Ni  Ni1360  1  0.28194517  0.41149980  0.75519410  1.0
  Ni  Ni1361  1  0.28194517  0.74483313  0.75519410  1.0
  Ni  Ni1362  1  0.61527850  0.07816647  0.75519410  1.0
  Ni  Ni1363  1  0.61527850  0.41149980  0.75519410  1.0
  Ni  Ni1364  1  0.61527850  0.74483313  0.75519410  1.0
  Ni  Ni1365  1  0.94861183  0.07816647  0.75519410  1.0
  Ni  Ni1366  1  0.94861183  0.41149980  0.75519410  1.0
  Ni  Ni1367  1  0.94861183  0.74483313  0.75519410  1.0
  Ni  Ni1368  1  0.21805483  0.25136433  0.75621350  1.0
  Ni  Ni1369  1  0.21805483  0.58469767  0.75621350  1.0
  Ni  Ni1370  1  0.21805483  0.91803100  0.75621350  1.0
  Ni  Ni1371  1  0.55138817  0.25136433  0.75621350  1.0
  Ni  Ni1372  1  0.55138817  0.58469767  0.75621350  1.0
  Ni  Ni1373  1  0.55138817  0.91803100  0.75621350  1.0
  Ni  Ni1374  1  0.88472150  0.25136433  0.75621350  1.0
  Ni  Ni1375  1  0.88472150  0.58469767  0.75621350  1.0
  Ni  Ni1376  1  0.88472150  0.91803100  0.75621350  1.0
  Ni  Ni1377  1  0.05138817  0.11803100  0.65621350  1.0
  Ni  Ni1378  1  0.05138817  0.45136433  0.65621350  1.0
  Ni  Ni1379  1  0.05138817  0.78469767  0.65621350  1.0
  Ni  Ni1380  1  0.38472150  0.11803100  0.65621350  1.0
  Ni  Ni1381  1  0.38472150  0.45136433  0.65621350  1.0
  Ni  Ni1382  1  0.38472150  0.78469767  0.65621350  1.0
  Ni  Ni1383  1  0.71805483  0.11803100  0.65621350  1.0
  Ni  Ni1384  1  0.71805483  0.45136433  0.65621350  1.0
  Ni  Ni1385  1  0.71805483  0.78469767  0.65621350  1.0
  Ni  Ni1386  1  0.16666667  0.26476540  0.70570380  1.0
  Ni  Ni1387  1  0.16666667  0.59809873  0.70570380  1.0
  Ni  Ni1388  1  0.16666667  0.93143207  0.70570380  1.0
  Ni  Ni1389  1  0.50000000  0.26476540  0.70570380  1.0
  Ni  Ni1390  1  0.50000000  0.59809873  0.70570380  1.0
  Ni  Ni1391  1  0.50000000  0.93143207  0.70570380  1.0
  Ni  Ni1392  1  0.83333333  0.26476540  0.70570380  1.0
  Ni  Ni1393  1  0.83333333  0.59809873  0.70570380  1.0
  Ni  Ni1394  1  0.83333333  0.93143207  0.70570380  1.0
  Ni  Ni1395  1  0.33333333  0.13143207  0.60570380  1.0
  Ni  Ni1396  1  0.33333333  0.46476540  0.60570380  1.0
  Ni  Ni1397  1  0.33333333  0.79809873  0.60570380  1.0
  Ni  Ni1398  1  0.66666667  0.13143207  0.60570380  1.0
  Ni  Ni1399  1  0.66666667  0.46476540  0.60570380  1.0
  Ni  Ni1400  1  0.66666667  0.79809873  0.60570380  1.0
  Ni  Ni1401  1  1.00000000  0.13143207  0.60570380  1.0
  Ni  Ni1402  1  0.00000000  0.46476540  0.60570380  1.0
  Ni  Ni1403  1  0.00000000  0.79809873  0.60570380  1.0
  Ni  Ni1404  1  0.26362350  0.32376007  0.67523830  1.0
  Ni  Ni1405  1  0.26362350  0.65709340  0.67523830  1.0
  Ni  Ni1406  1  0.26362350  0.99042673  0.67523830  1.0
  Ni  Ni1407  1  0.59695683  0.32376007  0.67523830  1.0
  Ni  Ni1408  1  0.59695683  0.65709340  0.67523830  1.0
  Ni  Ni1409  1  0.59695683  0.99042673  0.67523830  1.0
  Ni  Ni1410  1  0.93029017  0.32376007  0.67523830  1.0
  Ni  Ni1411  1  0.93029017  0.65709340  0.67523830  1.0
  Ni  Ni1412  1  0.93029017  0.99042673  0.67523830  1.0
  Ni  Ni1413  1  0.09695683  0.12376007  0.77523830  1.0
  Ni  Ni1414  1  0.09695683  0.45709340  0.77523830  1.0
  Ni  Ni1415  1  0.09695683  0.79042673  0.77523830  1.0
  Ni  Ni1416  1  0.43029017  0.12376007  0.77523830  1.0
  Ni  Ni1417  1  0.43029017  0.45709340  0.77523830  1.0
  Ni  Ni1418  1  0.43029017  0.79042673  0.77523830  1.0
  Ni  Ni1419  1  0.76362350  0.12376007  0.77523830  1.0
  Ni  Ni1420  1  0.76362350  0.45709340  0.77523830  1.0
  Ni  Ni1421  1  0.76362350  0.79042673  0.77523830  1.0
  Ni  Ni1422  1  0.06970983  0.20577073  0.73616930  1.0
  Ni  Ni1423  1  0.06970983  0.53910407  0.73616930  1.0
  Ni  Ni1424  1  0.06970983  0.87243740  0.73616930  1.0
  Ni  Ni1425  1  0.40304317  0.20577073  0.73616930  1.0
  Ni  Ni1426  1  0.40304317  0.53910407  0.73616930  1.0
  Ni  Ni1427  1  0.40304317  0.87243740  0.73616930  1.0
  Ni  Ni1428  1  0.73637650  0.20577073  0.73616930  1.0
  Ni  Ni1429  1  0.73637650  0.53910407  0.73616930  1.0
  Ni  Ni1430  1  0.73637650  0.87243740  0.73616930  1.0
  Ni  Ni1431  1  0.23637650  0.07243740  0.63616930  1.0
  Ni  Ni1432  1  0.23637650  0.40577073  0.63616930  1.0
  Ni  Ni1433  1  0.23637650  0.73910407  0.63616930  1.0
  Ni  Ni1434  1  0.56970983  0.07243740  0.63616930  1.0
  Ni  Ni1435  1  0.56970983  0.40577073  0.63616930  1.0
  Ni  Ni1436  1  0.56970983  0.73910407  0.63616930  1.0
  Ni  Ni1437  1  0.90304317  0.07243740  0.63616930  1.0
  Ni  Ni1438  1  0.90304317  0.40577073  0.63616930  1.0
  Ni  Ni1439  1  0.90304317  0.73910407  0.63616930  1.0
