# generated using pymatgen
data_In7Ni3
_symmetry_space_group_name_H-M   'P 1'
_cell_length_a   39.47422472
_cell_length_b   46.28763143
_cell_length_c   27.91249199
_cell_angle_alpha   95.76818118
_cell_angle_beta   90.00000000
_cell_angle_gamma   90.00000000
_symmetry_Int_Tables_number   1
_chemical_formula_structural   In7Ni3
_chemical_formula_sum   'In756 Ni324'
_cell_volume   50742.58867958
_cell_formula_units_Z   108
loop_
 _symmetry_equiv_pos_site_id
 _symmetry_equiv_pos_as_xyz
  1  'x, y, z'
loop_
 _atom_site_type_symbol
 _atom_site_label
 _atom_site_symmetry_multiplicity
 _atom_site_fract_x
 _atom_site_fract_y
 _atom_site_fract_z
 _atom_site_occupancy
  In  In0  1  0.08333333  0.02624399  0.14042268  1.0
  In  In1  1  0.08333333  0.35957732  0.14042268  1.0
  In  In2  1  0.08333333  0.69291065  0.14042268  1.0
  In  In3  1  0.41666667  0.02624399  0.14042268  1.0
  In  In4  1  0.41666667  0.35957732  0.14042268  1.0
  In  In5  1  0.41666667  0.69291065  0.14042268  1.0
  In  In6  1  0.75000000  0.02624399  0.14042268  1.0
  In  In7  1  0.75000000  0.35957732  0.14042268  1.0
  In  In8  1  0.75000000  0.69291065  0.14042268  1.0
  In  In9  1  0.25000000  0.26433923  0.06899411  1.0
  In  In10  1  0.25000000  0.59767256  0.06899411  1.0
  In  In11  1  0.25000000  0.93100589  0.06899411  1.0
  In  In12  1  0.58333333  0.26433923  0.06899411  1.0
  In  In13  1  0.58333333  0.59767256  0.06899411  1.0
  In  In14  1  0.58333333  0.93100589  0.06899411  1.0
  In  In15  1  0.91666667  0.26433923  0.06899411  1.0
  In  In16  1  0.91666667  0.59767256  0.06899411  1.0
  In  In17  1  0.91666667  0.93100589  0.06899411  1.0
  In  In18  1  0.25000000  0.02624399  0.14042268  1.0
  In  In19  1  0.25000000  0.35957732  0.14042268  1.0
  In  In20  1  0.25000000  0.69291065  0.14042268  1.0
  In  In21  1  0.58333333  0.02624399  0.14042268  1.0
  In  In22  1  0.58333333  0.35957732  0.14042268  1.0
  In  In23  1  0.58333333  0.69291065  0.14042268  1.0
  In  In24  1  0.91666667  0.02624399  0.14042268  1.0
  In  In25  1  0.91666667  0.35957732  0.14042268  1.0
  In  In26  1  0.91666667  0.69291065  0.14042268  1.0
  In  In27  1  0.08333333  0.26433923  0.06899411  1.0
  In  In28  1  0.08333333  0.59767256  0.06899411  1.0
  In  In29  1  0.08333333  0.93100589  0.06899411  1.0
  In  In30  1  0.41666667  0.26433923  0.06899411  1.0
  In  In31  1  0.41666667  0.59767256  0.06899411  1.0
  In  In32  1  0.41666667  0.93100589  0.06899411  1.0
  In  In33  1  0.75000000  0.26433923  0.06899411  1.0
  In  In34  1  0.75000000  0.59767256  0.06899411  1.0
  In  In35  1  0.75000000  0.93100589  0.06899411  1.0
  In  In36  1  0.29166667  0.08576780  0.12256554  1.0
  In  In37  1  0.29166667  0.41910113  0.12256554  1.0
  In  In38  1  0.29166667  0.75243446  0.12256554  1.0
  In  In39  1  0.62500000  0.08576780  0.12256554  1.0
  In  In40  1  0.62500000  0.41910113  0.12256554  1.0
  In  In41  1  0.62500000  0.75243446  0.12256554  1.0
  In  In42  1  0.95833333  0.08576780  0.12256554  1.0
  In  In43  1  0.95833333  0.41910113  0.12256554  1.0
  In  In44  1  0.95833333  0.75243446  0.12256554  1.0
  In  In45  1  0.12500000  0.32386304  0.05113696  1.0
  In  In46  1  0.12500000  0.65719637  0.05113696  1.0
  In  In47  1  0.12500000  0.99052970  0.05113696  1.0
  In  In48  1  0.45833333  0.32386304  0.05113696  1.0
  In  In49  1  0.45833333  0.65719637  0.05113696  1.0
  In  In50  1  0.45833333  0.99052970  0.05113696  1.0
  In  In51  1  0.79166667  0.32386304  0.05113696  1.0
  In  In52  1  0.79166667  0.65719637  0.05113696  1.0
  In  In53  1  0.79166667  0.99052970  0.05113696  1.0
  In  In54  1  0.04166667  0.10957732  0.01542268  1.0
  In  In55  1  0.04166667  0.44291065  0.01542268  1.0
  In  In56  1  0.04166667  0.77624399  0.01542268  1.0
  In  In57  1  0.37500000  0.10957732  0.01542268  1.0
  In  In58  1  0.37500000  0.44291065  0.01542268  1.0
  In  In59  1  0.37500000  0.77624399  0.01542268  1.0
  In  In60  1  0.70833333  0.10957732  0.01542268  1.0
  In  In61  1  0.70833333  0.44291065  0.01542268  1.0
  In  In62  1  0.70833333  0.77624399  0.01542268  1.0
  In  In63  1  0.20833333  0.20481542  0.08685125  1.0
  In  In64  1  0.20833333  0.53814875  0.08685125  1.0
  In  In65  1  0.20833333  0.87148208  0.08685125  1.0
  In  In66  1  0.54166667  0.20481542  0.08685125  1.0
  In  In67  1  0.54166667  0.53814875  0.08685125  1.0
  In  In68  1  0.54166667  0.87148208  0.08685125  1.0
  In  In69  1  0.87500000  0.20481542  0.08685125  1.0
  In  In70  1  0.87500000  0.53814875  0.08685125  1.0
  In  In71  1  0.87500000  0.87148208  0.08685125  1.0
  In  In72  1  0.29166667  0.10957732  0.01542268  1.0
  In  In73  1  0.29166667  0.44291065  0.01542268  1.0
  In  In74  1  0.29166667  0.77624399  0.01542268  1.0
  In  In75  1  0.62500000  0.10957732  0.01542268  1.0
  In  In76  1  0.62500000  0.44291065  0.01542268  1.0
  In  In77  1  0.62500000  0.77624399  0.01542268  1.0
  In  In78  1  0.95833333  0.10957732  0.01542268  1.0
  In  In79  1  0.95833333  0.44291065  0.01542268  1.0
  In  In80  1  0.95833333  0.77624399  0.01542268  1.0
  In  In81  1  0.12500000  0.20481542  0.08685125  1.0
  In  In82  1  0.12500000  0.53814875  0.08685125  1.0
  In  In83  1  0.12500000  0.87148208  0.08685125  1.0
  In  In84  1  0.45833333  0.20481542  0.08685125  1.0
  In  In85  1  0.45833333  0.53814875  0.08685125  1.0
  In  In86  1  0.45833333  0.87148208  0.08685125  1.0
  In  In87  1  0.79166667  0.20481542  0.08685125  1.0
  In  In88  1  0.79166667  0.53814875  0.08685125  1.0
  In  In89  1  0.79166667  0.87148208  0.08685125  1.0
  In  In90  1  0.04166667  0.08576780  0.12256554  1.0
  In  In91  1  0.04166667  0.41910113  0.12256554  1.0
  In  In92  1  0.04166667  0.75243446  0.12256554  1.0
  In  In93  1  0.37500000  0.08576780  0.12256554  1.0
  In  In94  1  0.37500000  0.41910113  0.12256554  1.0
  In  In95  1  0.37500000  0.75243446  0.12256554  1.0
  In  In96  1  0.70833333  0.08576780  0.12256554  1.0
  In  In97  1  0.70833333  0.41910113  0.12256554  1.0
  In  In98  1  0.70833333  0.75243446  0.12256554  1.0
  In  In99  1  0.20833333  0.32386304  0.05113696  1.0
  In  In100  1  0.20833333  0.65719637  0.05113696  1.0
  In  In101  1  0.20833333  0.99052970  0.05113696  1.0
  In  In102  1  0.54166667  0.32386304  0.05113696  1.0
  In  In103  1  0.54166667  0.65719637  0.05113696  1.0
  In  In104  1  0.54166667  0.99052970  0.05113696  1.0
  In  In105  1  0.87500000  0.32386304  0.05113696  1.0
  In  In106  1  0.87500000  0.65719637  0.05113696  1.0
  In  In107  1  0.87500000  0.99052970  0.05113696  1.0
  In  In108  1  0.00000000  0.01777575  0.08961325  1.0
  In  In109  1  0.00000000  0.35110908  0.08961325  1.0
  In  In110  1  0.00000000  0.68444242  0.08961325  1.0
  In  In111  1  0.33333333  0.01777575  0.08961325  1.0
  In  In112  1  0.33333333  0.35110908  0.08961325  1.0
  In  In113  1  0.33333333  0.68444242  0.08961325  1.0
  In  In114  1  0.66666667  0.01777575  0.08961325  1.0
  In  In115  1  0.66666667  0.35110908  0.08961325  1.0
  In  In116  1  0.66666667  0.68444242  0.08961325  1.0
  In  In117  1  0.16666667  0.25587099  0.01818468  1.0
  In  In118  1  0.16666667  0.58920432  0.01818468  1.0
  In  In119  1  0.16666667  0.92253765  0.01818468  1.0
  In  In120  1  0.50000000  0.25587099  0.01818468  1.0
  In  In121  1  0.50000000  0.58920432  0.01818468  1.0
  In  In122  1  0.50000000  0.92253765  0.01818468  1.0
  In  In123  1  0.83333333  0.25587099  0.01818468  1.0
  In  In124  1  0.83333333  0.58920432  0.01818468  1.0
  In  In125  1  0.83333333  0.92253765  0.01818468  1.0
  In  In126  1  0.00000000  0.17756937  0.04837496  1.0
  In  In127  1  0.00000000  0.51090270  0.04837496  1.0
  In  In128  1  0.00000000  0.84423604  0.04837496  1.0
  In  In129  1  0.33333333  0.17756937  0.04837496  1.0
  In  In130  1  0.33333333  0.51090270  0.04837496  1.0
  In  In131  1  0.33333333  0.84423604  0.04837496  1.0
  In  In132  1  0.66666667  0.17756937  0.04837496  1.0
  In  In133  1  0.66666667  0.51090270  0.04837496  1.0
  In  In134  1  0.66666667  0.84423604  0.04837496  1.0
  In  In135  1  0.16666667  0.27280746  0.11980354  1.0
  In  In136  1  0.16666667  0.60614080  0.11980354  1.0
  In  In137  1  0.16666667  0.93947413  0.11980354  1.0
  In  In138  1  0.50000000  0.27280746  0.11980354  1.0
  In  In139  1  0.50000000  0.60614080  0.11980354  1.0
  In  In140  1  0.50000000  0.93947413  0.11980354  1.0
  In  In141  1  0.83333333  0.27280746  0.11980354  1.0
  In  In142  1  0.83333333  0.60614080  0.11980354  1.0
  In  In143  1  0.83333333  0.93947413  0.11980354  1.0
  In  In144  1  0.22036117  0.06698999  0.04598218  1.0
  In  In145  1  0.22036117  0.40032332  0.04598218  1.0
  In  In146  1  0.22036117  0.73365665  0.04598218  1.0
  In  In147  1  0.55369450  0.06698999  0.04598218  1.0
  In  In148  1  0.55369450  0.40032332  0.04598218  1.0
  In  In149  1  0.55369450  0.73365665  0.04598218  1.0
  In  In150  1  0.88702783  0.06698999  0.04598218  1.0
  In  In151  1  0.88702783  0.40032332  0.04598218  1.0
  In  In152  1  0.88702783  0.73365665  0.04598218  1.0
  In  In153  1  0.05369450  0.16222808  0.11741075  1.0
  In  In154  1  0.05369450  0.49556142  0.11741075  1.0
  In  In155  1  0.05369450  0.82889475  0.11741075  1.0
  In  In156  1  0.38702783  0.16222808  0.11741075  1.0
  In  In157  1  0.38702783  0.49556142  0.11741075  1.0
  In  In158  1  0.38702783  0.82889475  0.11741075  1.0
  In  In159  1  0.72036117  0.16222808  0.11741075  1.0
  In  In160  1  0.72036117  0.49556142  0.11741075  1.0
  In  In161  1  0.72036117  0.82889475  0.11741075  1.0
  In  In162  1  0.11297217  0.06698999  0.04598218  1.0
  In  In163  1  0.11297217  0.40032332  0.04598218  1.0
  In  In164  1  0.11297217  0.73365665  0.04598218  1.0
  In  In165  1  0.44630550  0.06698999  0.04598218  1.0
  In  In166  1  0.44630550  0.40032332  0.04598218  1.0
  In  In167  1  0.44630550  0.73365665  0.04598218  1.0
  In  In168  1  0.77963883  0.06698999  0.04598218  1.0
  In  In169  1  0.77963883  0.40032332  0.04598218  1.0
  In  In170  1  0.77963883  0.73365665  0.04598218  1.0
  In  In171  1  0.27963883  0.16222808  0.11741075  1.0
  In  In172  1  0.27963883  0.49556142  0.11741075  1.0
  In  In173  1  0.27963883  0.82889475  0.11741075  1.0
  In  In174  1  0.61297217  0.16222808  0.11741075  1.0
  In  In175  1  0.61297217  0.49556142  0.11741075  1.0
  In  In176  1  0.61297217  0.82889475  0.11741075  1.0
  In  In177  1  0.94630550  0.16222808  0.11741075  1.0
  In  In178  1  0.94630550  0.49556142  0.11741075  1.0
  In  In179  1  0.94630550  0.82889475  0.11741075  1.0
  In  In180  1  0.27963883  0.03311704  0.02057746  1.0
  In  In181  1  0.27963883  0.36645037  0.02057746  1.0
  In  In182  1  0.27963883  0.69978370  0.02057746  1.0
  In  In183  1  0.61297217  0.03311704  0.02057746  1.0
  In  In184  1  0.61297217  0.36645037  0.02057746  1.0
  In  In185  1  0.61297217  0.69978370  0.02057746  1.0
  In  In186  1  0.94630550  0.03311704  0.02057746  1.0
  In  In187  1  0.94630550  0.36645037  0.02057746  1.0
  In  In188  1  0.94630550  0.69978370  0.02057746  1.0
  In  In189  1  0.11297217  0.12835513  0.09200604  1.0
  In  In190  1  0.11297217  0.46168846  0.09200604  1.0
  In  In191  1  0.11297217  0.79502180  0.09200604  1.0
  In  In192  1  0.44630550  0.12835513  0.09200604  1.0
  In  In193  1  0.44630550  0.46168846  0.09200604  1.0
  In  In194  1  0.44630550  0.79502180  0.09200604  1.0
  In  In195  1  0.77963883  0.12835513  0.09200604  1.0
  In  In196  1  0.77963883  0.46168846  0.09200604  1.0
  In  In197  1  0.77963883  0.79502180  0.09200604  1.0
  In  In198  1  0.05369450  0.03311704  0.02057746  1.0
  In  In199  1  0.05369450  0.36645037  0.02057746  1.0
  In  In200  1  0.05369450  0.69978370  0.02057746  1.0
  In  In201  1  0.38702783  0.03311704  0.02057746  1.0
  In  In202  1  0.38702783  0.36645037  0.02057746  1.0
  In  In203  1  0.38702783  0.69978370  0.02057746  1.0
  In  In204  1  0.72036117  0.03311704  0.02057746  1.0
  In  In205  1  0.72036117  0.36645037  0.02057746  1.0
  In  In206  1  0.72036117  0.69978370  0.02057746  1.0
  In  In207  1  0.22036117  0.12835513  0.09200604  1.0
  In  In208  1  0.22036117  0.46168846  0.09200604  1.0
  In  In209  1  0.22036117  0.79502180  0.09200604  1.0
  In  In210  1  0.55369450  0.12835513  0.09200604  1.0
  In  In211  1  0.55369450  0.46168846  0.09200604  1.0
  In  In212  1  0.55369450  0.79502180  0.09200604  1.0
  In  In213  1  0.88702783  0.12835513  0.09200604  1.0
  In  In214  1  0.88702783  0.46168846  0.09200604  1.0
  In  In215  1  0.88702783  0.79502180  0.09200604  1.0
  In  In216  1  0.00000000  0.23893451  0.09439882  1.0
  In  In217  1  0.00000000  0.57226785  0.09439882  1.0
  In  In218  1  0.00000000  0.90560118  0.09439882  1.0
  In  In219  1  0.33333333  0.23893451  0.09439882  1.0
  In  In220  1  0.33333333  0.57226785  0.09439882  1.0
  In  In221  1  0.33333333  0.90560118  0.09439882  1.0
  In  In222  1  0.66666667  0.23893451  0.09439882  1.0
  In  In223  1  0.66666667  0.57226785  0.09439882  1.0
  In  In224  1  0.66666667  0.90560118  0.09439882  1.0
  In  In225  1  0.16666667  0.14369642  0.02297025  1.0
  In  In226  1  0.16666667  0.47702975  0.02297025  1.0
  In  In227  1  0.16666667  0.81036308  0.02297025  1.0
  In  In228  1  0.50000000  0.14369642  0.02297025  1.0
  In  In229  1  0.50000000  0.47702975  0.02297025  1.0
  In  In230  1  0.50000000  0.81036308  0.02297025  1.0
  In  In231  1  0.83333333  0.14369642  0.02297025  1.0
  In  In232  1  0.83333333  0.47702975  0.02297025  1.0
  In  In233  1  0.83333333  0.81036308  0.02297025  1.0
  In  In234  1  0.00000000  0.28974394  0.04358939  1.0
  In  In235  1  0.00000000  0.62307727  0.04358939  1.0
  In  In236  1  0.00000000  0.95641061  0.04358939  1.0
  In  In237  1  0.33333333  0.28974394  0.04358939  1.0
  In  In238  1  0.33333333  0.62307727  0.04358939  1.0
  In  In239  1  0.33333333  0.95641061  0.04358939  1.0
  In  In240  1  0.66666667  0.28974394  0.04358939  1.0
  In  In241  1  0.66666667  0.62307727  0.04358939  1.0
  In  In242  1  0.66666667  0.95641061  0.04358939  1.0
  In  In243  1  0.16666667  0.05164870  0.11501796  1.0
  In  In244  1  0.16666667  0.38498204  0.11501796  1.0
  In  In245  1  0.16666667  0.71831537  0.11501796  1.0
  In  In246  1  0.50000000  0.05164870  0.11501796  1.0
  In  In247  1  0.50000000  0.38498204  0.11501796  1.0
  In  In248  1  0.50000000  0.71831537  0.11501796  1.0
  In  In249  1  0.83333333  0.05164870  0.11501796  1.0
  In  In250  1  0.83333333  0.38498204  0.11501796  1.0
  In  In251  1  0.83333333  0.71831537  0.11501796  1.0
  In  In252  1  0.08333333  0.21672018  0.28327982  1.0
  In  In253  1  0.08333333  0.55005351  0.28327982  1.0
  In  In254  1  0.08333333  0.88338685  0.28327982  1.0
  In  In255  1  0.41666667  0.21672018  0.28327982  1.0
  In  In256  1  0.41666667  0.55005351  0.28327982  1.0
  In  In257  1  0.41666667  0.88338685  0.28327982  1.0
  In  In258  1  0.75000000  0.21672018  0.28327982  1.0
  In  In259  1  0.75000000  0.55005351  0.28327982  1.0
  In  In260  1  0.75000000  0.88338685  0.28327982  1.0
  In  In261  1  0.25000000  0.12148208  0.21185125  1.0
  In  In262  1  0.25000000  0.45481542  0.21185125  1.0
  In  In263  1  0.25000000  0.78814875  0.21185125  1.0
  In  In264  1  0.58333333  0.12148208  0.21185125  1.0
  In  In265  1  0.58333333  0.45481542  0.21185125  1.0
  In  In266  1  0.58333333  0.78814875  0.21185125  1.0
  In  In267  1  0.91666667  0.12148208  0.21185125  1.0
  In  In268  1  0.91666667  0.45481542  0.21185125  1.0
  In  In269  1  0.91666667  0.78814875  0.21185125  1.0
  In  In270  1  0.25000000  0.21672018  0.28327982  1.0
  In  In271  1  0.25000000  0.55005351  0.28327982  1.0
  In  In272  1  0.25000000  0.88338685  0.28327982  1.0
  In  In273  1  0.58333333  0.21672018  0.28327982  1.0
  In  In274  1  0.58333333  0.55005351  0.28327982  1.0
  In  In275  1  0.58333333  0.88338685  0.28327982  1.0
  In  In276  1  0.91666667  0.21672018  0.28327982  1.0
  In  In277  1  0.91666667  0.55005351  0.28327982  1.0
  In  In278  1  0.91666667  0.88338685  0.28327982  1.0
  In  In279  1  0.08333333  0.12148208  0.21185125  1.0
  In  In280  1  0.08333333  0.45481542  0.21185125  1.0
  In  In281  1  0.08333333  0.78814875  0.21185125  1.0
  In  In282  1  0.41666667  0.12148208  0.21185125  1.0
  In  In283  1  0.41666667  0.45481542  0.21185125  1.0
  In  In284  1  0.41666667  0.78814875  0.21185125  1.0
  In  In285  1  0.75000000  0.12148208  0.21185125  1.0
  In  In286  1  0.75000000  0.45481542  0.21185125  1.0
  In  In287  1  0.75000000  0.78814875  0.21185125  1.0
  In  In288  1  0.29166667  0.27624399  0.26542268  1.0
  In  In289  1  0.29166667  0.60957732  0.26542268  1.0
  In  In290  1  0.29166667  0.94291065  0.26542268  1.0
  In  In291  1  0.62500000  0.27624399  0.26542268  1.0
  In  In292  1  0.62500000  0.60957732  0.26542268  1.0
  In  In293  1  0.62500000  0.94291065  0.26542268  1.0
  In  In294  1  0.95833333  0.27624399  0.26542268  1.0
  In  In295  1  0.95833333  0.60957732  0.26542268  1.0
  In  In296  1  0.95833333  0.94291065  0.26542268  1.0
  In  In297  1  0.12500000  0.18100589  0.19399411  1.0
  In  In298  1  0.12500000  0.51433923  0.19399411  1.0
  In  In299  1  0.12500000  0.84767256  0.19399411  1.0
  In  In300  1  0.45833333  0.18100589  0.19399411  1.0
  In  In301  1  0.45833333  0.51433923  0.19399411  1.0
  In  In302  1  0.45833333  0.84767256  0.19399411  1.0
  In  In303  1  0.79166667  0.18100589  0.19399411  1.0
  In  In304  1  0.79166667  0.51433923  0.19399411  1.0
  In  In305  1  0.79166667  0.84767256  0.19399411  1.0
  In  In306  1  0.04166667  0.30005351  0.15827982  1.0
  In  In307  1  0.04166667  0.63338685  0.15827982  1.0
  In  In308  1  0.04166667  0.96672018  0.15827982  1.0
  In  In309  1  0.37500000  0.30005351  0.15827982  1.0
  In  In310  1  0.37500000  0.63338685  0.15827982  1.0
  In  In311  1  0.37500000  0.96672018  0.15827982  1.0
  In  In312  1  0.70833333  0.30005351  0.15827982  1.0
  In  In313  1  0.70833333  0.63338685  0.15827982  1.0
  In  In314  1  0.70833333  0.96672018  0.15827982  1.0
  In  In315  1  0.20833333  0.06195827  0.22970839  1.0
  In  In316  1  0.20833333  0.39529161  0.22970839  1.0
  In  In317  1  0.20833333  0.72862494  0.22970839  1.0
  In  In318  1  0.54166667  0.06195827  0.22970839  1.0
  In  In319  1  0.54166667  0.39529161  0.22970839  1.0
  In  In320  1  0.54166667  0.72862494  0.22970839  1.0
  In  In321  1  0.87500000  0.06195827  0.22970839  1.0
  In  In322  1  0.87500000  0.39529161  0.22970839  1.0
  In  In323  1  0.87500000  0.72862494  0.22970839  1.0
  In  In324  1  0.29166667  0.30005351  0.15827982  1.0
  In  In325  1  0.29166667  0.63338685  0.15827982  1.0
  In  In326  1  0.29166667  0.96672018  0.15827982  1.0
  In  In327  1  0.62500000  0.30005351  0.15827982  1.0
  In  In328  1  0.62500000  0.63338685  0.15827982  1.0
  In  In329  1  0.62500000  0.96672018  0.15827982  1.0
  In  In330  1  0.95833333  0.30005351  0.15827982  1.0
  In  In331  1  0.95833333  0.63338685  0.15827982  1.0
  In  In332  1  0.95833333  0.96672018  0.15827982  1.0
  In  In333  1  0.12500000  0.06195827  0.22970839  1.0
  In  In334  1  0.12500000  0.39529161  0.22970839  1.0
  In  In335  1  0.12500000  0.72862494  0.22970839  1.0
  In  In336  1  0.45833333  0.06195827  0.22970839  1.0
  In  In337  1  0.45833333  0.39529161  0.22970839  1.0
  In  In338  1  0.45833333  0.72862494  0.22970839  1.0
  In  In339  1  0.79166667  0.06195827  0.22970839  1.0
  In  In340  1  0.79166667  0.39529161  0.22970839  1.0
  In  In341  1  0.79166667  0.72862494  0.22970839  1.0
  In  In342  1  0.04166667  0.27624399  0.26542268  1.0
  In  In343  1  0.04166667  0.60957732  0.26542268  1.0
  In  In344  1  0.04166667  0.94291065  0.26542268  1.0
  In  In345  1  0.37500000  0.27624399  0.26542268  1.0
  In  In346  1  0.37500000  0.60957732  0.26542268  1.0
  In  In347  1  0.37500000  0.94291065  0.26542268  1.0
  In  In348  1  0.70833333  0.27624399  0.26542268  1.0
  In  In349  1  0.70833333  0.60957732  0.26542268  1.0
  In  In350  1  0.70833333  0.94291065  0.26542268  1.0
  In  In351  1  0.20833333  0.18100589  0.19399411  1.0
  In  In352  1  0.20833333  0.51433923  0.19399411  1.0
  In  In353  1  0.20833333  0.84767256  0.19399411  1.0
  In  In354  1  0.54166667  0.18100589  0.19399411  1.0
  In  In355  1  0.54166667  0.51433923  0.19399411  1.0
  In  In356  1  0.54166667  0.84767256  0.19399411  1.0
  In  In357  1  0.87500000  0.18100589  0.19399411  1.0
  In  In358  1  0.87500000  0.51433923  0.19399411  1.0
  In  In359  1  0.87500000  0.84767256  0.19399411  1.0
  In  In360  1  0.00000000  0.20825194  0.23247039  1.0
  In  In361  1  0.00000000  0.54158527  0.23247039  1.0
  In  In362  1  0.00000000  0.87491861  0.23247039  1.0
  In  In363  1  0.33333333  0.20825194  0.23247039  1.0
  In  In364  1  0.33333333  0.54158527  0.23247039  1.0
  In  In365  1  0.33333333  0.87491861  0.23247039  1.0
  In  In366  1  0.66666667  0.20825194  0.23247039  1.0
  In  In367  1  0.66666667  0.54158527  0.23247039  1.0
  In  In368  1  0.66666667  0.87491861  0.23247039  1.0
  In  In369  1  0.16666667  0.11301385  0.16104182  1.0
  In  In370  1  0.16666667  0.44634718  0.16104182  1.0
  In  In371  1  0.16666667  0.77968051  0.16104182  1.0
  In  In372  1  0.50000000  0.11301385  0.16104182  1.0
  In  In373  1  0.50000000  0.44634718  0.16104182  1.0
  In  In374  1  0.50000000  0.77968051  0.16104182  1.0
  In  In375  1  0.83333333  0.11301385  0.16104182  1.0
  In  In376  1  0.83333333  0.44634718  0.16104182  1.0
  In  In377  1  0.83333333  0.77968051  0.16104182  1.0
  In  In378  1  0.00000000  0.03471223  0.19123211  1.0
  In  In379  1  0.00000000  0.36804556  0.19123211  1.0
  In  In380  1  0.00000000  0.70137889  0.19123211  1.0
  In  In381  1  0.33333333  0.03471223  0.19123211  1.0
  In  In382  1  0.33333333  0.36804556  0.19123211  1.0
  In  In383  1  0.33333333  0.70137889  0.19123211  1.0
  In  In384  1  0.66666667  0.03471223  0.19123211  1.0
  In  In385  1  0.66666667  0.36804556  0.19123211  1.0
  In  In386  1  0.66666667  0.70137889  0.19123211  1.0
  In  In387  1  0.16666667  0.12995032  0.26266068  1.0
  In  In388  1  0.16666667  0.46328365  0.26266068  1.0
  In  In389  1  0.16666667  0.79661699  0.26266068  1.0
  In  In390  1  0.50000000  0.12995032  0.26266068  1.0
  In  In391  1  0.50000000  0.46328365  0.26266068  1.0
  In  In392  1  0.50000000  0.79661699  0.26266068  1.0
  In  In393  1  0.83333333  0.12995032  0.26266068  1.0
  In  In394  1  0.83333333  0.46328365  0.26266068  1.0
  In  In395  1  0.83333333  0.79661699  0.26266068  1.0
  In  In396  1  0.22036117  0.25746618  0.18883932  1.0
  In  In397  1  0.22036117  0.59079951  0.18883932  1.0
  In  In398  1  0.22036117  0.92413285  0.18883932  1.0
  In  In399  1  0.55369450  0.25746618  0.18883932  1.0
  In  In400  1  0.55369450  0.59079951  0.18883932  1.0
  In  In401  1  0.55369450  0.92413285  0.18883932  1.0
  In  In402  1  0.88702783  0.25746618  0.18883932  1.0
  In  In403  1  0.88702783  0.59079951  0.18883932  1.0
  In  In404  1  0.88702783  0.92413285  0.18883932  1.0
  In  In405  1  0.05369450  0.01937094  0.26026789  1.0
  In  In406  1  0.05369450  0.35270427  0.26026789  1.0
  In  In407  1  0.05369450  0.68603761  0.26026789  1.0
  In  In408  1  0.38702783  0.01937094  0.26026789  1.0
  In  In409  1  0.38702783  0.35270427  0.26026789  1.0
  In  In410  1  0.38702783  0.68603761  0.26026789  1.0
  In  In411  1  0.72036117  0.01937094  0.26026789  1.0
  In  In412  1  0.72036117  0.35270427  0.26026789  1.0
  In  In413  1  0.72036117  0.68603761  0.26026789  1.0
  In  In414  1  0.11297217  0.25746618  0.18883932  1.0
  In  In415  1  0.11297217  0.59079951  0.18883932  1.0
  In  In416  1  0.11297217  0.92413285  0.18883932  1.0
  In  In417  1  0.44630550  0.25746618  0.18883932  1.0
  In  In418  1  0.44630550  0.59079951  0.18883932  1.0
  In  In419  1  0.44630550  0.92413285  0.18883932  1.0
  In  In420  1  0.77963883  0.25746618  0.18883932  1.0
  In  In421  1  0.77963883  0.59079951  0.18883932  1.0
  In  In422  1  0.77963883  0.92413285  0.18883932  1.0
  In  In423  1  0.27963883  0.01937094  0.26026789  1.0
  In  In424  1  0.27963883  0.35270427  0.26026789  1.0
  In  In425  1  0.27963883  0.68603761  0.26026789  1.0
  In  In426  1  0.61297217  0.01937094  0.26026789  1.0
  In  In427  1  0.61297217  0.35270427  0.26026789  1.0
  In  In428  1  0.61297217  0.68603761  0.26026789  1.0
  In  In429  1  0.94630550  0.01937094  0.26026789  1.0
  In  In430  1  0.94630550  0.35270427  0.26026789  1.0
  In  In431  1  0.94630550  0.68603761  0.26026789  1.0
  In  In432  1  0.27963883  0.22359323  0.16343461  1.0
  In  In433  1  0.27963883  0.55692656  0.16343461  1.0
  In  In434  1  0.27963883  0.89025989  0.16343461  1.0
  In  In435  1  0.61297217  0.22359323  0.16343461  1.0
  In  In436  1  0.61297217  0.55692656  0.16343461  1.0
  In  In437  1  0.61297217  0.89025989  0.16343461  1.0
  In  In438  1  0.94630550  0.22359323  0.16343461  1.0
  In  In439  1  0.94630550  0.55692656  0.16343461  1.0
  In  In440  1  0.94630550  0.89025989  0.16343461  1.0
  In  In441  1  0.11297217  0.31883132  0.23486318  1.0
  In  In442  1  0.11297217  0.65216465  0.23486318  1.0
  In  In443  1  0.11297217  0.98549799  0.23486318  1.0
  In  In444  1  0.44630550  0.31883132  0.23486318  1.0
  In  In445  1  0.44630550  0.65216465  0.23486318  1.0
  In  In446  1  0.44630550  0.98549799  0.23486318  1.0
  In  In447  1  0.77963883  0.31883132  0.23486318  1.0
  In  In448  1  0.77963883  0.65216465  0.23486318  1.0
  In  In449  1  0.77963883  0.98549799  0.23486318  1.0
  In  In450  1  0.05369450  0.22359323  0.16343461  1.0
  In  In451  1  0.05369450  0.55692656  0.16343461  1.0
  In  In452  1  0.05369450  0.89025989  0.16343461  1.0
  In  In453  1  0.38702783  0.22359323  0.16343461  1.0
  In  In454  1  0.38702783  0.55692656  0.16343461  1.0
  In  In455  1  0.38702783  0.89025989  0.16343461  1.0
  In  In456  1  0.72036117  0.22359323  0.16343461  1.0
  In  In457  1  0.72036117  0.55692656  0.16343461  1.0
  In  In458  1  0.72036117  0.89025989  0.16343461  1.0
  In  In459  1  0.22036117  0.31883132  0.23486318  1.0
  In  In460  1  0.22036117  0.65216465  0.23486318  1.0
  In  In461  1  0.22036117  0.98549799  0.23486318  1.0
  In  In462  1  0.55369450  0.31883132  0.23486318  1.0
  In  In463  1  0.55369450  0.65216465  0.23486318  1.0
  In  In464  1  0.55369450  0.98549799  0.23486318  1.0
  In  In465  1  0.88702783  0.31883132  0.23486318  1.0
  In  In466  1  0.88702783  0.65216465  0.23486318  1.0
  In  In467  1  0.88702783  0.98549799  0.23486318  1.0
  In  In468  1  0.00000000  0.09607737  0.23725596  1.0
  In  In469  1  0.00000000  0.42941070  0.23725596  1.0
  In  In470  1  0.00000000  0.76274404  0.23725596  1.0
  In  In471  1  0.33333333  0.09607737  0.23725596  1.0
  In  In472  1  0.33333333  0.42941070  0.23725596  1.0
  In  In473  1  0.33333333  0.76274404  0.23725596  1.0
  In  In474  1  0.66666667  0.09607737  0.23725596  1.0
  In  In475  1  0.66666667  0.42941070  0.23725596  1.0
  In  In476  1  0.66666667  0.76274404  0.23725596  1.0
  In  In477  1  0.16666667  0.00083927  0.16582739  1.0
  In  In478  1  0.16666667  0.33417261  0.16582739  1.0
  In  In479  1  0.16666667  0.66750594  0.16582739  1.0
  In  In480  1  0.50000000  0.00083927  0.16582739  1.0
  In  In481  1  0.50000000  0.33417261  0.16582739  1.0
  In  In482  1  0.50000000  0.66750594  0.16582739  1.0
  In  In483  1  0.83333333  0.00083927  0.16582739  1.0
  In  In484  1  0.83333333  0.33417261  0.16582739  1.0
  In  In485  1  0.83333333  0.66750594  0.16582739  1.0
  In  In486  1  0.00000000  0.14688680  0.18644654  1.0
  In  In487  1  0.00000000  0.48022013  0.18644654  1.0
  In  In488  1  0.00000000  0.81355346  0.18644654  1.0
  In  In489  1  0.33333333  0.14688680  0.18644654  1.0
  In  In490  1  0.33333333  0.48022013  0.18644654  1.0
  In  In491  1  0.33333333  0.81355346  0.18644654  1.0
  In  In492  1  0.66666667  0.14688680  0.18644654  1.0
  In  In493  1  0.66666667  0.48022013  0.18644654  1.0
  In  In494  1  0.66666667  0.81355346  0.18644654  1.0
  In  In495  1  0.16666667  0.24212489  0.25787511  1.0
  In  In496  1  0.16666667  0.57545823  0.25787511  1.0
  In  In497  1  0.16666667  0.90879156  0.25787511  1.0
  In  In498  1  0.50000000  0.24212489  0.25787511  1.0
  In  In499  1  0.50000000  0.57545823  0.25787511  1.0
  In  In500  1  0.50000000  0.90879156  0.25787511  1.0
  In  In501  1  0.83333333  0.24212489  0.25787511  1.0
  In  In502  1  0.83333333  0.57545823  0.25787511  1.0
  In  In503  1  0.83333333  0.90879156  0.25787511  1.0
  In  In504  1  0.08333333  0.07386304  0.42613696  1.0
  In  In505  1  0.08333333  0.40719637  0.42613696  1.0
  In  In506  1  0.08333333  0.74052970  0.42613696  1.0
  In  In507  1  0.41666667  0.07386304  0.42613696  1.0
  In  In508  1  0.41666667  0.40719637  0.42613696  1.0
  In  In509  1  0.41666667  0.74052970  0.42613696  1.0
  In  In510  1  0.75000000  0.07386304  0.42613696  1.0
  In  In511  1  0.75000000  0.40719637  0.42613696  1.0
  In  In512  1  0.75000000  0.74052970  0.42613696  1.0
  In  In513  1  0.25000000  0.31195827  0.35470839  1.0
  In  In514  1  0.25000000  0.64529161  0.35470839  1.0
  In  In515  1  0.25000000  0.97862494  0.35470839  1.0
  In  In516  1  0.58333333  0.31195827  0.35470839  1.0
  In  In517  1  0.58333333  0.64529161  0.35470839  1.0
  In  In518  1  0.58333333  0.97862494  0.35470839  1.0
  In  In519  1  0.91666667  0.31195827  0.35470839  1.0
  In  In520  1  0.91666667  0.64529161  0.35470839  1.0
  In  In521  1  0.91666667  0.97862494  0.35470839  1.0
  In  In522  1  0.25000000  0.07386304  0.42613696  1.0
  In  In523  1  0.25000000  0.40719637  0.42613696  1.0
  In  In524  1  0.25000000  0.74052970  0.42613696  1.0
  In  In525  1  0.58333333  0.07386304  0.42613696  1.0
  In  In526  1  0.58333333  0.40719637  0.42613696  1.0
  In  In527  1  0.58333333  0.74052970  0.42613696  1.0
  In  In528  1  0.91666667  0.07386304  0.42613696  1.0
  In  In529  1  0.91666667  0.40719637  0.42613696  1.0
  In  In530  1  0.91666667  0.74052970  0.42613696  1.0
  In  In531  1  0.08333333  0.31195827  0.35470839  1.0
  In  In532  1  0.08333333  0.64529161  0.35470839  1.0
  In  In533  1  0.08333333  0.97862494  0.35470839  1.0
  In  In534  1  0.41666667  0.31195827  0.35470839  1.0
  In  In535  1  0.41666667  0.64529161  0.35470839  1.0
  In  In536  1  0.41666667  0.97862494  0.35470839  1.0
  In  In537  1  0.75000000  0.31195827  0.35470839  1.0
  In  In538  1  0.75000000  0.64529161  0.35470839  1.0
  In  In539  1  0.75000000  0.97862494  0.35470839  1.0
  In  In540  1  0.29166667  0.13338685  0.40827982  1.0
  In  In541  1  0.29166667  0.46672018  0.40827982  1.0
  In  In542  1  0.29166667  0.80005351  0.40827982  1.0
  In  In543  1  0.62500000  0.13338685  0.40827982  1.0
  In  In544  1  0.62500000  0.46672018  0.40827982  1.0
  In  In545  1  0.62500000  0.80005351  0.40827982  1.0
  In  In546  1  0.95833333  0.13338685  0.40827982  1.0
  In  In547  1  0.95833333  0.46672018  0.40827982  1.0
  In  In548  1  0.95833333  0.80005351  0.40827982  1.0
  In  In549  1  0.12500000  0.03814875  0.33685125  1.0
  In  In550  1  0.12500000  0.37148208  0.33685125  1.0
  In  In551  1  0.12500000  0.70481542  0.33685125  1.0
  In  In552  1  0.45833333  0.03814875  0.33685125  1.0
  In  In553  1  0.45833333  0.37148208  0.33685125  1.0
  In  In554  1  0.45833333  0.70481542  0.33685125  1.0
  In  In555  1  0.79166667  0.03814875  0.33685125  1.0
  In  In556  1  0.79166667  0.37148208  0.33685125  1.0
  In  In557  1  0.79166667  0.70481542  0.33685125  1.0
  In  In558  1  0.04166667  0.15719637  0.30113696  1.0
  In  In559  1  0.04166667  0.49052970  0.30113696  1.0
  In  In560  1  0.04166667  0.82386304  0.30113696  1.0
  In  In561  1  0.37500000  0.15719637  0.30113696  1.0
  In  In562  1  0.37500000  0.49052970  0.30113696  1.0
  In  In563  1  0.37500000  0.82386304  0.30113696  1.0
  In  In564  1  0.70833333  0.15719637  0.30113696  1.0
  In  In565  1  0.70833333  0.49052970  0.30113696  1.0
  In  In566  1  0.70833333  0.82386304  0.30113696  1.0
  In  In567  1  0.20833333  0.25243446  0.37256554  1.0
  In  In568  1  0.20833333  0.58576780  0.37256554  1.0
  In  In569  1  0.20833333  0.91910113  0.37256554  1.0
  In  In570  1  0.54166667  0.25243446  0.37256554  1.0
  In  In571  1  0.54166667  0.58576780  0.37256554  1.0
  In  In572  1  0.54166667  0.91910113  0.37256554  1.0
  In  In573  1  0.87500000  0.25243446  0.37256554  1.0
  In  In574  1  0.87500000  0.58576780  0.37256554  1.0
  In  In575  1  0.87500000  0.91910113  0.37256554  1.0
  In  In576  1  0.29166667  0.15719637  0.30113696  1.0
  In  In577  1  0.29166667  0.49052970  0.30113696  1.0
  In  In578  1  0.29166667  0.82386304  0.30113696  1.0
  In  In579  1  0.62500000  0.15719637  0.30113696  1.0
  In  In580  1  0.62500000  0.49052970  0.30113696  1.0
  In  In581  1  0.62500000  0.82386304  0.30113696  1.0
  In  In582  1  0.95833333  0.15719637  0.30113696  1.0
  In  In583  1  0.95833333  0.49052970  0.30113696  1.0
  In  In584  1  0.95833333  0.82386304  0.30113696  1.0
  In  In585  1  0.12500000  0.25243446  0.37256554  1.0
  In  In586  1  0.12500000  0.58576780  0.37256554  1.0
  In  In587  1  0.12500000  0.91910113  0.37256554  1.0
  In  In588  1  0.45833333  0.25243446  0.37256554  1.0
  In  In589  1  0.45833333  0.58576780  0.37256554  1.0
  In  In590  1  0.45833333  0.91910113  0.37256554  1.0
  In  In591  1  0.79166667  0.25243446  0.37256554  1.0
  In  In592  1  0.79166667  0.58576780  0.37256554  1.0
  In  In593  1  0.79166667  0.91910113  0.37256554  1.0
  In  In594  1  0.04166667  0.13338685  0.40827982  1.0
  In  In595  1  0.04166667  0.46672018  0.40827982  1.0
  In  In596  1  0.04166667  0.80005351  0.40827982  1.0
  In  In597  1  0.37500000  0.13338685  0.40827982  1.0
  In  In598  1  0.37500000  0.46672018  0.40827982  1.0
  In  In599  1  0.37500000  0.80005351  0.40827982  1.0
  In  In600  1  0.70833333  0.13338685  0.40827982  1.0
  In  In601  1  0.70833333  0.46672018  0.40827982  1.0
  In  In602  1  0.70833333  0.80005351  0.40827982  1.0
  In  In603  1  0.20833333  0.03814875  0.33685125  1.0
  In  In604  1  0.20833333  0.37148208  0.33685125  1.0
  In  In605  1  0.20833333  0.70481542  0.33685125  1.0
  In  In606  1  0.54166667  0.03814875  0.33685125  1.0
  In  In607  1  0.54166667  0.37148208  0.33685125  1.0
  In  In608  1  0.54166667  0.70481542  0.33685125  1.0
  In  In609  1  0.87500000  0.03814875  0.33685125  1.0
  In  In610  1  0.87500000  0.37148208  0.33685125  1.0
  In  In611  1  0.87500000  0.70481542  0.33685125  1.0
  In  In612  1  0.00000000  0.06539480  0.37532754  1.0
  In  In613  1  0.00000000  0.39872813  0.37532754  1.0
  In  In614  1  0.00000000  0.73206146  0.37532754  1.0
  In  In615  1  0.33333333  0.06539480  0.37532754  1.0
  In  In616  1  0.33333333  0.39872813  0.37532754  1.0
  In  In617  1  0.33333333  0.73206146  0.37532754  1.0
  In  In618  1  0.66666667  0.06539480  0.37532754  1.0
  In  In619  1  0.66666667  0.39872813  0.37532754  1.0
  In  In620  1  0.66666667  0.73206146  0.37532754  1.0
  In  In621  1  0.16666667  0.30349004  0.30389896  1.0
  In  In622  1  0.16666667  0.63682337  0.30389896  1.0
  In  In623  1  0.16666667  0.97015670  0.30389896  1.0
  In  In624  1  0.50000000  0.30349004  0.30389896  1.0
  In  In625  1  0.50000000  0.63682337  0.30389896  1.0
  In  In626  1  0.50000000  0.97015670  0.30389896  1.0
  In  In627  1  0.83333333  0.30349004  0.30389896  1.0
  In  In628  1  0.83333333  0.63682337  0.30389896  1.0
  In  In629  1  0.83333333  0.97015670  0.30389896  1.0
  In  In630  1  0.00000000  0.22518842  0.33408925  1.0
  In  In631  1  0.00000000  0.55852175  0.33408925  1.0
  In  In632  1  0.00000000  0.89185508  0.33408925  1.0
  In  In633  1  0.33333333  0.22518842  0.33408925  1.0
  In  In634  1  0.33333333  0.55852175  0.33408925  1.0
  In  In635  1  0.33333333  0.89185508  0.33408925  1.0
  In  In636  1  0.66666667  0.22518842  0.33408925  1.0
  In  In637  1  0.66666667  0.55852175  0.33408925  1.0
  In  In638  1  0.66666667  0.89185508  0.33408925  1.0
  In  In639  1  0.16666667  0.32042651  0.40551782  1.0
  In  In640  1  0.16666667  0.65375985  0.40551782  1.0
  In  In641  1  0.16666667  0.98709318  0.40551782  1.0
  In  In642  1  0.50000000  0.32042651  0.40551782  1.0
  In  In643  1  0.50000000  0.65375985  0.40551782  1.0
  In  In644  1  0.50000000  0.98709318  0.40551782  1.0
  In  In645  1  0.83333333  0.32042651  0.40551782  1.0
  In  In646  1  0.83333333  0.65375985  0.40551782  1.0
  In  In647  1  0.83333333  0.98709318  0.40551782  1.0
  In  In648  1  0.22036117  0.11460904  0.33169646  1.0
  In  In649  1  0.22036117  0.44794237  0.33169646  1.0
  In  In650  1  0.22036117  0.78127570  0.33169646  1.0
  In  In651  1  0.55369450  0.11460904  0.33169646  1.0
  In  In652  1  0.55369450  0.44794237  0.33169646  1.0
  In  In653  1  0.55369450  0.78127570  0.33169646  1.0
  In  In654  1  0.88702783  0.11460904  0.33169646  1.0
  In  In655  1  0.88702783  0.44794237  0.33169646  1.0
  In  In656  1  0.88702783  0.78127570  0.33169646  1.0
  In  In657  1  0.05369450  0.20984713  0.40312504  1.0
  In  In658  1  0.05369450  0.54318046  0.40312504  1.0
  In  In659  1  0.05369450  0.87651380  0.40312504  1.0
  In  In660  1  0.38702783  0.20984713  0.40312504  1.0
  In  In661  1  0.38702783  0.54318046  0.40312504  1.0
  In  In662  1  0.38702783  0.87651380  0.40312504  1.0
  In  In663  1  0.72036117  0.20984713  0.40312504  1.0
  In  In664  1  0.72036117  0.54318046  0.40312504  1.0
  In  In665  1  0.72036117  0.87651380  0.40312504  1.0
  In  In666  1  0.11297217  0.11460904  0.33169646  1.0
  In  In667  1  0.11297217  0.44794237  0.33169646  1.0
  In  In668  1  0.11297217  0.78127570  0.33169646  1.0
  In  In669  1  0.44630550  0.11460904  0.33169646  1.0
  In  In670  1  0.44630550  0.44794237  0.33169646  1.0
  In  In671  1  0.44630550  0.78127570  0.33169646  1.0
  In  In672  1  0.77963883  0.11460904  0.33169646  1.0
  In  In673  1  0.77963883  0.44794237  0.33169646  1.0
  In  In674  1  0.77963883  0.78127570  0.33169646  1.0
  In  In675  1  0.27963883  0.20984713  0.40312504  1.0
  In  In676  1  0.27963883  0.54318046  0.40312504  1.0
  In  In677  1  0.27963883  0.87651380  0.40312504  1.0
  In  In678  1  0.61297217  0.20984713  0.40312504  1.0
  In  In679  1  0.61297217  0.54318046  0.40312504  1.0
  In  In680  1  0.61297217  0.87651380  0.40312504  1.0
  In  In681  1  0.94630550  0.20984713  0.40312504  1.0
  In  In682  1  0.94630550  0.54318046  0.40312504  1.0
  In  In683  1  0.94630550  0.87651380  0.40312504  1.0
  In  In684  1  0.27963883  0.08073608  0.30629175  1.0
  In  In685  1  0.27963883  0.41406942  0.30629175  1.0
  In  In686  1  0.27963883  0.74740275  0.30629175  1.0
  In  In687  1  0.61297217  0.08073608  0.30629175  1.0
  In  In688  1  0.61297217  0.41406942  0.30629175  1.0
  In  In689  1  0.61297217  0.74740275  0.30629175  1.0
  In  In690  1  0.94630550  0.08073608  0.30629175  1.0
  In  In691  1  0.94630550  0.41406942  0.30629175  1.0
  In  In692  1  0.94630550  0.74740275  0.30629175  1.0
  In  In693  1  0.11297217  0.17597418  0.37772032  1.0
  In  In694  1  0.11297217  0.50930751  0.37772032  1.0
  In  In695  1  0.11297217  0.84264085  0.37772032  1.0
  In  In696  1  0.44630550  0.17597418  0.37772032  1.0
  In  In697  1  0.44630550  0.50930751  0.37772032  1.0
  In  In698  1  0.44630550  0.84264085  0.37772032  1.0
  In  In699  1  0.77963883  0.17597418  0.37772032  1.0
  In  In700  1  0.77963883  0.50930751  0.37772032  1.0
  In  In701  1  0.77963883  0.84264085  0.37772032  1.0
  In  In702  1  0.05369450  0.08073608  0.30629175  1.0
  In  In703  1  0.05369450  0.41406942  0.30629175  1.0
  In  In704  1  0.05369450  0.74740275  0.30629175  1.0
  In  In705  1  0.38702783  0.08073608  0.30629175  1.0
  In  In706  1  0.38702783  0.41406942  0.30629175  1.0
  In  In707  1  0.38702783  0.74740275  0.30629175  1.0
  In  In708  1  0.72036117  0.08073608  0.30629175  1.0
  In  In709  1  0.72036117  0.41406942  0.30629175  1.0
  In  In710  1  0.72036117  0.74740275  0.30629175  1.0
  In  In711  1  0.22036117  0.17597418  0.37772032  1.0
  In  In712  1  0.22036117  0.50930751  0.37772032  1.0
  In  In713  1  0.22036117  0.84264085  0.37772032  1.0
  In  In714  1  0.55369450  0.17597418  0.37772032  1.0
  In  In715  1  0.55369450  0.50930751  0.37772032  1.0
  In  In716  1  0.55369450  0.84264085  0.37772032  1.0
  In  In717  1  0.88702783  0.17597418  0.37772032  1.0
  In  In718  1  0.88702783  0.50930751  0.37772032  1.0
  In  In719  1  0.88702783  0.84264085  0.37772032  1.0
  In  In720  1  0.00000000  0.28655356  0.38011311  1.0
  In  In721  1  0.00000000  0.61988689  0.38011311  1.0
  In  In722  1  0.00000000  0.95322023  0.38011311  1.0
  In  In723  1  0.33333333  0.28655356  0.38011311  1.0
  In  In724  1  0.33333333  0.61988689  0.38011311  1.0
  In  In725  1  0.33333333  0.95322023  0.38011311  1.0
  In  In726  1  0.66666667  0.28655356  0.38011311  1.0
  In  In727  1  0.66666667  0.61988689  0.38011311  1.0
  In  In728  1  0.66666667  0.95322023  0.38011311  1.0
  In  In729  1  0.16666667  0.19131546  0.30868454  1.0
  In  In730  1  0.16666667  0.52464880  0.30868454  1.0
  In  In731  1  0.16666667  0.85798213  0.30868454  1.0
  In  In732  1  0.50000000  0.19131546  0.30868454  1.0
  In  In733  1  0.50000000  0.52464880  0.30868454  1.0
  In  In734  1  0.50000000  0.85798213  0.30868454  1.0
  In  In735  1  0.83333333  0.19131546  0.30868454  1.0
  In  In736  1  0.83333333  0.52464880  0.30868454  1.0
  In  In737  1  0.83333333  0.85798213  0.30868454  1.0
  In  In738  1  0.00000000  0.00402965  0.32930368  1.0
  In  In739  1  0.00000000  0.33736299  0.32930368  1.0
  In  In740  1  0.00000000  0.67069632  0.32930368  1.0
  In  In741  1  0.33333333  0.00402965  0.32930368  1.0
  In  In742  1  0.33333333  0.33736299  0.32930368  1.0
  In  In743  1  0.33333333  0.67069632  0.32930368  1.0
  In  In744  1  0.66666667  0.00402965  0.32930368  1.0
  In  In745  1  0.66666667  0.33736299  0.32930368  1.0
  In  In746  1  0.66666667  0.67069632  0.32930368  1.0
  In  In747  1  0.16666667  0.09926775  0.40073225  1.0
  In  In748  1  0.16666667  0.43260108  0.40073225  1.0
  In  In749  1  0.16666667  0.76593442  0.40073225  1.0
  In  In750  1  0.50000000  0.09926775  0.40073225  1.0
  In  In751  1  0.50000000  0.43260108  0.40073225  1.0
  In  In752  1  0.50000000  0.76593442  0.40073225  1.0
  In  In753  1  0.83333333  0.09926775  0.40073225  1.0
  In  In754  1  0.83333333  0.43260108  0.40073225  1.0
  In  In755  1  0.83333333  0.76593442  0.40073225  1.0
  Ni  Ni756  1  0.00000000  0.07025446  0.04843054  1.0
  Ni  Ni757  1  0.00000000  0.40358780  0.04843054  1.0
  Ni  Ni758  1  0.00000000  0.73692113  0.04843054  1.0
  Ni  Ni759  1  0.33333333  0.07025446  0.04843054  1.0
  Ni  Ni760  1  0.33333333  0.40358780  0.04843054  1.0
  Ni  Ni761  1  0.33333333  0.73692113  0.04843054  1.0
  Ni  Ni762  1  0.66666667  0.07025446  0.04843054  1.0
  Ni  Ni763  1  0.66666667  0.40358780  0.04843054  1.0
  Ni  Ni764  1  0.66666667  0.73692113  0.04843054  1.0
  Ni  Ni765  1  0.16666667  0.16549256  0.11985911  1.0
  Ni  Ni766  1  0.16666667  0.49882589  0.11985911  1.0
  Ni  Ni767  1  0.16666667  0.83215923  0.11985911  1.0
  Ni  Ni768  1  0.50000000  0.16549256  0.11985911  1.0
  Ni  Ni769  1  0.50000000  0.49882589  0.11985911  1.0
  Ni  Ni770  1  0.50000000  0.83215923  0.11985911  1.0
  Ni  Ni771  1  0.83333333  0.16549256  0.11985911  1.0
  Ni  Ni772  1  0.83333333  0.49882589  0.11985911  1.0
  Ni  Ni773  1  0.83333333  0.83215923  0.11985911  1.0
  Ni  Ni774  1  0.00000000  0.12509065  0.08955768  1.0
  Ni  Ni775  1  0.00000000  0.45842399  0.08955768  1.0
  Ni  Ni776  1  0.00000000  0.79175732  0.08955768  1.0
  Ni  Ni777  1  0.33333333  0.12509065  0.08955768  1.0
  Ni  Ni778  1  0.33333333  0.45842399  0.08955768  1.0
  Ni  Ni779  1  0.33333333  0.79175732  0.08955768  1.0
  Ni  Ni780  1  0.66666667  0.12509065  0.08955768  1.0
  Ni  Ni781  1  0.66666667  0.45842399  0.08955768  1.0
  Ni  Ni782  1  0.66666667  0.79175732  0.08955768  1.0
  Ni  Ni783  1  0.16666667  0.02985256  0.01812911  1.0
  Ni  Ni784  1  0.16666667  0.36318589  0.01812911  1.0
  Ni  Ni785  1  0.16666667  0.69651923  0.01812911  1.0
  Ni  Ni786  1  0.50000000  0.02985256  0.01812911  1.0
  Ni  Ni787  1  0.50000000  0.36318589  0.01812911  1.0
  Ni  Ni788  1  0.50000000  0.69651923  0.01812911  1.0
  Ni  Ni789  1  0.83333333  0.02985256  0.01812911  1.0
  Ni  Ni790  1  0.83333333  0.36318589  0.01812911  1.0
  Ni  Ni791  1  0.83333333  0.69651923  0.01812911  1.0
  Ni  Ni792  1  0.27399083  0.31881280  0.07386304  1.0
  Ni  Ni793  1  0.27399083  0.65214613  0.07386304  1.0
  Ni  Ni794  1  0.27399083  0.98547946  0.07386304  1.0
  Ni  Ni795  1  0.60732417  0.31881280  0.07386304  1.0
  Ni  Ni796  1  0.60732417  0.65214613  0.07386304  1.0
  Ni  Ni797  1  0.60732417  0.98547946  0.07386304  1.0
  Ni  Ni798  1  0.94065750  0.31881280  0.07386304  1.0
  Ni  Ni799  1  0.94065750  0.65214613  0.07386304  1.0
  Ni  Ni800  1  0.94065750  0.98547946  0.07386304  1.0
  Ni  Ni801  1  0.10732417  0.22357470  0.00243446  1.0
  Ni  Ni802  1  0.10732417  0.55690804  0.00243446  1.0
  Ni  Ni803  1  0.10732417  0.89024137  0.00243446  1.0
  Ni  Ni804  1  0.44065750  0.22357470  0.00243446  1.0
  Ni  Ni805  1  0.44065750  0.55690804  0.00243446  1.0
  Ni  Ni806  1  0.44065750  0.89024137  0.00243446  1.0
  Ni  Ni807  1  0.77399083  0.22357470  0.00243446  1.0
  Ni  Ni808  1  0.77399083  0.55690804  0.00243446  1.0
  Ni  Ni809  1  0.77399083  0.89024137  0.00243446  1.0
  Ni  Ni810  1  0.22600917  0.30510375  0.13555375  1.0
  Ni  Ni811  1  0.22600917  0.63843708  0.13555375  1.0
  Ni  Ni812  1  0.22600917  0.97177042  0.13555375  1.0
  Ni  Ni813  1  0.55934250  0.30510375  0.13555375  1.0
  Ni  Ni814  1  0.55934250  0.63843708  0.13555375  1.0
  Ni  Ni815  1  0.55934250  0.97177042  0.13555375  1.0
  Ni  Ni816  1  0.89267583  0.30510375  0.13555375  1.0
  Ni  Ni817  1  0.89267583  0.63843708  0.13555375  1.0
  Ni  Ni818  1  0.89267583  0.97177042  0.13555375  1.0
  Ni  Ni819  1  0.05934250  0.20986565  0.06412518  1.0
  Ni  Ni820  1  0.05934250  0.54319899  0.06412518  1.0
  Ni  Ni821  1  0.05934250  0.87653232  0.06412518  1.0
  Ni  Ni822  1  0.39267583  0.20986565  0.06412518  1.0
  Ni  Ni823  1  0.39267583  0.54319899  0.06412518  1.0
  Ni  Ni824  1  0.39267583  0.87653232  0.06412518  1.0
  Ni  Ni825  1  0.72600917  0.20986565  0.06412518  1.0
  Ni  Ni826  1  0.72600917  0.54319899  0.06412518  1.0
  Ni  Ni827  1  0.72600917  0.87653232  0.06412518  1.0
  Ni  Ni828  1  0.05934250  0.31881280  0.07386304  1.0
  Ni  Ni829  1  0.05934250  0.65214613  0.07386304  1.0
  Ni  Ni830  1  0.05934250  0.98547946  0.07386304  1.0
  Ni  Ni831  1  0.39267583  0.31881280  0.07386304  1.0
  Ni  Ni832  1  0.39267583  0.65214613  0.07386304  1.0
  Ni  Ni833  1  0.39267583  0.98547946  0.07386304  1.0
  Ni  Ni834  1  0.72600917  0.31881280  0.07386304  1.0
  Ni  Ni835  1  0.72600917  0.65214613  0.07386304  1.0
  Ni  Ni836  1  0.72600917  0.98547946  0.07386304  1.0
  Ni  Ni837  1  0.22600917  0.22357470  0.00243446  1.0
  Ni  Ni838  1  0.22600917  0.55690804  0.00243446  1.0
  Ni  Ni839  1  0.22600917  0.89024137  0.00243446  1.0
  Ni  Ni840  1  0.55934250  0.22357470  0.00243446  1.0
  Ni  Ni841  1  0.55934250  0.55690804  0.00243446  1.0
  Ni  Ni842  1  0.55934250  0.89024137  0.00243446  1.0
  Ni  Ni843  1  0.89267583  0.22357470  0.00243446  1.0
  Ni  Ni844  1  0.89267583  0.55690804  0.00243446  1.0
  Ni  Ni845  1  0.89267583  0.89024137  0.00243446  1.0
  Ni  Ni846  1  0.10732417  0.30510375  0.13555375  1.0
  Ni  Ni847  1  0.10732417  0.63843708  0.13555375  1.0
  Ni  Ni848  1  0.10732417  0.97177042  0.13555375  1.0
  Ni  Ni849  1  0.44065750  0.30510375  0.13555375  1.0
  Ni  Ni850  1  0.44065750  0.63843708  0.13555375  1.0
  Ni  Ni851  1  0.44065750  0.97177042  0.13555375  1.0
  Ni  Ni852  1  0.77399083  0.30510375  0.13555375  1.0
  Ni  Ni853  1  0.77399083  0.63843708  0.13555375  1.0
  Ni  Ni854  1  0.77399083  0.97177042  0.13555375  1.0
  Ni  Ni855  1  0.27399083  0.20986565  0.06412518  1.0
  Ni  Ni856  1  0.27399083  0.54319899  0.06412518  1.0
  Ni  Ni857  1  0.27399083  0.87653232  0.06412518  1.0
  Ni  Ni858  1  0.60732417  0.20986565  0.06412518  1.0
  Ni  Ni859  1  0.60732417  0.54319899  0.06412518  1.0
  Ni  Ni860  1  0.60732417  0.87653232  0.06412518  1.0
  Ni  Ni861  1  0.94065750  0.20986565  0.06412518  1.0
  Ni  Ni862  1  0.94065750  0.54319899  0.06412518  1.0
  Ni  Ni863  1  0.94065750  0.87653232  0.06412518  1.0
  Ni  Ni864  1  0.00000000  0.26073065  0.19128768  1.0
  Ni  Ni865  1  0.00000000  0.59406399  0.19128768  1.0
  Ni  Ni866  1  0.00000000  0.92739732  0.19128768  1.0
  Ni  Ni867  1  0.33333333  0.26073065  0.19128768  1.0
  Ni  Ni868  1  0.33333333  0.59406399  0.19128768  1.0
  Ni  Ni869  1  0.33333333  0.92739732  0.19128768  1.0
  Ni  Ni870  1  0.66666667  0.26073065  0.19128768  1.0
  Ni  Ni871  1  0.66666667  0.59406399  0.19128768  1.0
  Ni  Ni872  1  0.66666667  0.92739732  0.19128768  1.0
  Ni  Ni873  1  0.16666667  0.02263542  0.26271625  1.0
  Ni  Ni874  1  0.16666667  0.35596875  0.26271625  1.0
  Ni  Ni875  1  0.16666667  0.68930208  0.26271625  1.0
  Ni  Ni876  1  0.50000000  0.02263542  0.26271625  1.0
  Ni  Ni877  1  0.50000000  0.35596875  0.26271625  1.0
  Ni  Ni878  1  0.50000000  0.68930208  0.26271625  1.0
  Ni  Ni879  1  0.83333333  0.02263542  0.26271625  1.0
  Ni  Ni880  1  0.83333333  0.35596875  0.26271625  1.0
  Ni  Ni881  1  0.83333333  0.68930208  0.26271625  1.0
  Ni  Ni882  1  0.00000000  0.31556685  0.23241482  1.0
  Ni  Ni883  1  0.00000000  0.64890018  0.23241482  1.0
  Ni  Ni884  1  0.00000000  0.98223351  0.23241482  1.0
  Ni  Ni885  1  0.33333333  0.31556685  0.23241482  1.0
  Ni  Ni886  1  0.33333333  0.64890018  0.23241482  1.0
  Ni  Ni887  1  0.33333333  0.98223351  0.23241482  1.0
  Ni  Ni888  1  0.66666667  0.31556685  0.23241482  1.0
  Ni  Ni889  1  0.66666667  0.64890018  0.23241482  1.0
  Ni  Ni890  1  0.66666667  0.98223351  0.23241482  1.0
  Ni  Ni891  1  0.16666667  0.22032875  0.16098625  1.0
  Ni  Ni892  1  0.16666667  0.55366208  0.16098625  1.0
  Ni  Ni893  1  0.16666667  0.88699542  0.16098625  1.0
  Ni  Ni894  1  0.50000000  0.22032875  0.16098625  1.0
  Ni  Ni895  1  0.50000000  0.55366208  0.16098625  1.0
  Ni  Ni896  1  0.50000000  0.88699542  0.16098625  1.0
  Ni  Ni897  1  0.83333333  0.22032875  0.16098625  1.0
  Ni  Ni898  1  0.83333333  0.55366208  0.16098625  1.0
  Ni  Ni899  1  0.83333333  0.88699542  0.16098625  1.0
  Ni  Ni900  1  0.27399083  0.17595565  0.21672018  1.0
  Ni  Ni901  1  0.27399083  0.50928899  0.21672018  1.0
  Ni  Ni902  1  0.27399083  0.84262232  0.21672018  1.0
  Ni  Ni903  1  0.60732417  0.17595565  0.21672018  1.0
  Ni  Ni904  1  0.60732417  0.50928899  0.21672018  1.0
  Ni  Ni905  1  0.60732417  0.84262232  0.21672018  1.0
  Ni  Ni906  1  0.94065750  0.17595565  0.21672018  1.0
  Ni  Ni907  1  0.94065750  0.50928899  0.21672018  1.0
  Ni  Ni908  1  0.94065750  0.84262232  0.21672018  1.0
  Ni  Ni909  1  0.10732417  0.08071756  0.14529161  1.0
  Ni  Ni910  1  0.10732417  0.41405089  0.14529161  1.0
  Ni  Ni911  1  0.10732417  0.74738423  0.14529161  1.0
  Ni  Ni912  1  0.44065750  0.08071756  0.14529161  1.0
  Ni  Ni913  1  0.44065750  0.41405089  0.14529161  1.0
  Ni  Ni914  1  0.44065750  0.74738423  0.14529161  1.0
  Ni  Ni915  1  0.77399083  0.08071756  0.14529161  1.0
  Ni  Ni916  1  0.77399083  0.41405089  0.14529161  1.0
  Ni  Ni917  1  0.77399083  0.74738423  0.14529161  1.0
  Ni  Ni918  1  0.22600917  0.16224661  0.27841089  1.0
  Ni  Ni919  1  0.22600917  0.49557994  0.27841089  1.0
  Ni  Ni920  1  0.22600917  0.82891327  0.27841089  1.0
  Ni  Ni921  1  0.55934250  0.16224661  0.27841089  1.0
  Ni  Ni922  1  0.55934250  0.49557994  0.27841089  1.0
  Ni  Ni923  1  0.55934250  0.82891327  0.27841089  1.0
  Ni  Ni924  1  0.89267583  0.16224661  0.27841089  1.0
  Ni  Ni925  1  0.89267583  0.49557994  0.27841089  1.0
  Ni  Ni926  1  0.89267583  0.82891327  0.27841089  1.0
  Ni  Ni927  1  0.05934250  0.06700851  0.20698232  1.0
  Ni  Ni928  1  0.05934250  0.40034185  0.20698232  1.0
  Ni  Ni929  1  0.05934250  0.73367518  0.20698232  1.0
  Ni  Ni930  1  0.39267583  0.06700851  0.20698232  1.0
  Ni  Ni931  1  0.39267583  0.40034185  0.20698232  1.0
  Ni  Ni932  1  0.39267583  0.73367518  0.20698232  1.0
  Ni  Ni933  1  0.72600917  0.06700851  0.20698232  1.0
  Ni  Ni934  1  0.72600917  0.40034185  0.20698232  1.0
  Ni  Ni935  1  0.72600917  0.73367518  0.20698232  1.0
  Ni  Ni936  1  0.05934250  0.17595565  0.21672018  1.0
  Ni  Ni937  1  0.05934250  0.50928899  0.21672018  1.0
  Ni  Ni938  1  0.05934250  0.84262232  0.21672018  1.0
  Ni  Ni939  1  0.39267583  0.17595565  0.21672018  1.0
  Ni  Ni940  1  0.39267583  0.50928899  0.21672018  1.0
  Ni  Ni941  1  0.39267583  0.84262232  0.21672018  1.0
  Ni  Ni942  1  0.72600917  0.17595565  0.21672018  1.0
  Ni  Ni943  1  0.72600917  0.50928899  0.21672018  1.0
  Ni  Ni944  1  0.72600917  0.84262232  0.21672018  1.0
  Ni  Ni945  1  0.22600917  0.08071756  0.14529161  1.0
  Ni  Ni946  1  0.22600917  0.41405089  0.14529161  1.0
  Ni  Ni947  1  0.22600917  0.74738423  0.14529161  1.0
  Ni  Ni948  1  0.55934250  0.08071756  0.14529161  1.0
  Ni  Ni949  1  0.55934250  0.41405089  0.14529161  1.0
  Ni  Ni950  1  0.55934250  0.74738423  0.14529161  1.0
  Ni  Ni951  1  0.89267583  0.08071756  0.14529161  1.0
  Ni  Ni952  1  0.89267583  0.41405089  0.14529161  1.0
  Ni  Ni953  1  0.89267583  0.74738423  0.14529161  1.0
  Ni  Ni954  1  0.10732417  0.16224661  0.27841089  1.0
  Ni  Ni955  1  0.10732417  0.49557994  0.27841089  1.0
  Ni  Ni956  1  0.10732417  0.82891327  0.27841089  1.0
  Ni  Ni957  1  0.44065750  0.16224661  0.27841089  1.0
  Ni  Ni958  1  0.44065750  0.49557994  0.27841089  1.0
  Ni  Ni959  1  0.44065750  0.82891327  0.27841089  1.0
  Ni  Ni960  1  0.77399083  0.16224661  0.27841089  1.0
  Ni  Ni961  1  0.77399083  0.49557994  0.27841089  1.0
  Ni  Ni962  1  0.77399083  0.82891327  0.27841089  1.0
  Ni  Ni963  1  0.27399083  0.06700851  0.20698232  1.0
  Ni  Ni964  1  0.27399083  0.40034185  0.20698232  1.0
  Ni  Ni965  1  0.27399083  0.73367518  0.20698232  1.0
  Ni  Ni966  1  0.60732417  0.06700851  0.20698232  1.0
  Ni  Ni967  1  0.60732417  0.40034185  0.20698232  1.0
  Ni  Ni968  1  0.60732417  0.73367518  0.20698232  1.0
  Ni  Ni969  1  0.94065750  0.06700851  0.20698232  1.0
  Ni  Ni970  1  0.94065750  0.40034185  0.20698232  1.0
  Ni  Ni971  1  0.94065750  0.73367518  0.20698232  1.0
  Ni  Ni972  1  0.00000000  0.11787351  0.33414482  1.0
  Ni  Ni973  1  0.00000000  0.45120685  0.33414482  1.0
  Ni  Ni974  1  0.00000000  0.78454018  0.33414482  1.0
  Ni  Ni975  1  0.33333333  0.11787351  0.33414482  1.0
  Ni  Ni976  1  0.33333333  0.45120685  0.33414482  1.0
  Ni  Ni977  1  0.33333333  0.78454018  0.33414482  1.0
  Ni  Ni978  1  0.66666667  0.11787351  0.33414482  1.0
  Ni  Ni979  1  0.66666667  0.45120685  0.33414482  1.0
  Ni  Ni980  1  0.66666667  0.78454018  0.33414482  1.0
  Ni  Ni981  1  0.16666667  0.21311161  0.40557339  1.0
  Ni  Ni982  1  0.16666667  0.54644494  0.40557339  1.0
  Ni  Ni983  1  0.16666667  0.87977827  0.40557339  1.0
  Ni  Ni984  1  0.50000000  0.21311161  0.40557339  1.0
  Ni  Ni985  1  0.50000000  0.54644494  0.40557339  1.0
  Ni  Ni986  1  0.50000000  0.87977827  0.40557339  1.0
  Ni  Ni987  1  0.83333333  0.21311161  0.40557339  1.0
  Ni  Ni988  1  0.83333333  0.54644494  0.40557339  1.0
  Ni  Ni989  1  0.83333333  0.87977827  0.40557339  1.0
  Ni  Ni990  1  0.00000000  0.17270970  0.37527196  1.0
  Ni  Ni991  1  0.00000000  0.50604304  0.37527196  1.0
  Ni  Ni992  1  0.00000000  0.83937637  0.37527196  1.0
  Ni  Ni993  1  0.33333333  0.17270970  0.37527196  1.0
  Ni  Ni994  1  0.33333333  0.50604304  0.37527196  1.0
  Ni  Ni995  1  0.33333333  0.83937637  0.37527196  1.0
  Ni  Ni996  1  0.66666667  0.17270970  0.37527196  1.0
  Ni  Ni997  1  0.66666667  0.50604304  0.37527196  1.0
  Ni  Ni998  1  0.66666667  0.83937637  0.37527196  1.0
  Ni  Ni999  1  0.16666667  0.07747161  0.30384339  1.0
  Ni  Ni1000  1  0.16666667  0.41080494  0.30384339  1.0
  Ni  Ni1001  1  0.16666667  0.74413827  0.30384339  1.0
  Ni  Ni1002  1  0.50000000  0.07747161  0.30384339  1.0
  Ni  Ni1003  1  0.50000000  0.41080494  0.30384339  1.0
  Ni  Ni1004  1  0.50000000  0.74413827  0.30384339  1.0
  Ni  Ni1005  1  0.83333333  0.07747161  0.30384339  1.0
  Ni  Ni1006  1  0.83333333  0.41080494  0.30384339  1.0
  Ni  Ni1007  1  0.83333333  0.74413827  0.30384339  1.0
  Ni  Ni1008  1  0.27399083  0.03309851  0.35957732  1.0
  Ni  Ni1009  1  0.27399083  0.36643185  0.35957732  1.0
  Ni  Ni1010  1  0.27399083  0.69976518  0.35957732  1.0
  Ni  Ni1011  1  0.60732417  0.03309851  0.35957732  1.0
  Ni  Ni1012  1  0.60732417  0.36643185  0.35957732  1.0
  Ni  Ni1013  1  0.60732417  0.69976518  0.35957732  1.0
  Ni  Ni1014  1  0.94065750  0.03309851  0.35957732  1.0
  Ni  Ni1015  1  0.94065750  0.36643185  0.35957732  1.0
  Ni  Ni1016  1  0.94065750  0.69976518  0.35957732  1.0
  Ni  Ni1017  1  0.10732417  0.27119375  0.28814875  1.0
  Ni  Ni1018  1  0.10732417  0.60452708  0.28814875  1.0
  Ni  Ni1019  1  0.10732417  0.93786042  0.28814875  1.0
  Ni  Ni1020  1  0.44065750  0.27119375  0.28814875  1.0
  Ni  Ni1021  1  0.44065750  0.60452708  0.28814875  1.0
  Ni  Ni1022  1  0.44065750  0.93786042  0.28814875  1.0
  Ni  Ni1023  1  0.77399083  0.27119375  0.28814875  1.0
  Ni  Ni1024  1  0.77399083  0.60452708  0.28814875  1.0
  Ni  Ni1025  1  0.77399083  0.93786042  0.28814875  1.0
  Ni  Ni1026  1  0.22600917  0.01938946  0.42126804  1.0
  Ni  Ni1027  1  0.22600917  0.35272280  0.42126804  1.0
  Ni  Ni1028  1  0.22600917  0.68605613  0.42126804  1.0
  Ni  Ni1029  1  0.55934250  0.01938946  0.42126804  1.0
  Ni  Ni1030  1  0.55934250  0.35272280  0.42126804  1.0
  Ni  Ni1031  1  0.55934250  0.68605613  0.42126804  1.0
  Ni  Ni1032  1  0.89267583  0.01938946  0.42126804  1.0
  Ni  Ni1033  1  0.89267583  0.35272280  0.42126804  1.0
  Ni  Ni1034  1  0.89267583  0.68605613  0.42126804  1.0
  Ni  Ni1035  1  0.05934250  0.25748470  0.34983946  1.0
  Ni  Ni1036  1  0.05934250  0.59081804  0.34983946  1.0
  Ni  Ni1037  1  0.05934250  0.92415137  0.34983946  1.0
  Ni  Ni1038  1  0.39267583  0.25748470  0.34983946  1.0
  Ni  Ni1039  1  0.39267583  0.59081804  0.34983946  1.0
  Ni  Ni1040  1  0.39267583  0.92415137  0.34983946  1.0
  Ni  Ni1041  1  0.72600917  0.25748470  0.34983946  1.0
  Ni  Ni1042  1  0.72600917  0.59081804  0.34983946  1.0
  Ni  Ni1043  1  0.72600917  0.92415137  0.34983946  1.0
  Ni  Ni1044  1  0.05934250  0.03309851  0.35957732  1.0
  Ni  Ni1045  1  0.05934250  0.36643185  0.35957732  1.0
  Ni  Ni1046  1  0.05934250  0.69976518  0.35957732  1.0
  Ni  Ni1047  1  0.39267583  0.03309851  0.35957732  1.0
  Ni  Ni1048  1  0.39267583  0.36643185  0.35957732  1.0
  Ni  Ni1049  1  0.39267583  0.69976518  0.35957732  1.0
  Ni  Ni1050  1  0.72600917  0.03309851  0.35957732  1.0
  Ni  Ni1051  1  0.72600917  0.36643185  0.35957732  1.0
  Ni  Ni1052  1  0.72600917  0.69976518  0.35957732  1.0
  Ni  Ni1053  1  0.22600917  0.27119375  0.28814875  1.0
  Ni  Ni1054  1  0.22600917  0.60452708  0.28814875  1.0
  Ni  Ni1055  1  0.22600917  0.93786042  0.28814875  1.0
  Ni  Ni1056  1  0.55934250  0.27119375  0.28814875  1.0
  Ni  Ni1057  1  0.55934250  0.60452708  0.28814875  1.0
  Ni  Ni1058  1  0.55934250  0.93786042  0.28814875  1.0
  Ni  Ni1059  1  0.89267583  0.27119375  0.28814875  1.0
  Ni  Ni1060  1  0.89267583  0.60452708  0.28814875  1.0
  Ni  Ni1061  1  0.89267583  0.93786042  0.28814875  1.0
  Ni  Ni1062  1  0.10732417  0.01938946  0.42126804  1.0
  Ni  Ni1063  1  0.10732417  0.35272280  0.42126804  1.0
  Ni  Ni1064  1  0.10732417  0.68605613  0.42126804  1.0
  Ni  Ni1065  1  0.44065750  0.01938946  0.42126804  1.0
  Ni  Ni1066  1  0.44065750  0.35272280  0.42126804  1.0
  Ni  Ni1067  1  0.44065750  0.68605613  0.42126804  1.0
  Ni  Ni1068  1  0.77399083  0.01938946  0.42126804  1.0
  Ni  Ni1069  1  0.77399083  0.35272280  0.42126804  1.0
  Ni  Ni1070  1  0.77399083  0.68605613  0.42126804  1.0
  Ni  Ni1071  1  0.27399083  0.25748470  0.34983946  1.0
  Ni  Ni1072  1  0.27399083  0.59081804  0.34983946  1.0
  Ni  Ni1073  1  0.27399083  0.92415137  0.34983946  1.0
  Ni  Ni1074  1  0.60732417  0.25748470  0.34983946  1.0
  Ni  Ni1075  1  0.60732417  0.59081804  0.34983946  1.0
  Ni  Ni1076  1  0.60732417  0.92415137  0.34983946  1.0
  Ni  Ni1077  1  0.94065750  0.25748470  0.34983946  1.0
  Ni  Ni1078  1  0.94065750  0.59081804  0.34983946  1.0
  Ni  Ni1079  1  0.94065750  0.92415137  0.34983946  1.0
