# generated using pymatgen
data_In7Ni3
_symmetry_space_group_name_H-M   'P 1'
_cell_length_a   27.91249198
_cell_length_b   46.28763144
_cell_length_c   29.42234995
_cell_angle_alpha   89.99999999
_cell_angle_beta   90.00000001
_cell_angle_gamma   107.54840062
_symmetry_Int_Tables_number   1
_chemical_formula_structural   In7Ni3
_chemical_formula_sum   'In504 Ni216'
_cell_volume   36244.70619970
_cell_formula_units_Z   72
loop_
 _symmetry_equiv_pos_site_id
 _symmetry_equiv_pos_as_xyz
  1  'x, y, z'
loop_
 _atom_site_type_symbol
 _atom_site_label
 _atom_site_symmetry_multiplicity
 _atom_site_fract_x
 _atom_site_fract_y
 _atom_site_fract_z
 _atom_site_occupancy
  In  In0  1  0.06325842  0.29886392  0.14659175  1.0
  In  In1  1  0.06325842  0.63219725  0.14659175  1.0
  In  In2  1  0.06325842  0.96553058  0.14659175  1.0
  In  In3  1  0.39659175  0.29886392  0.14659175  1.0
  In  In4  1  0.39659175  0.63219725  0.14659175  1.0
  In  In5  1  0.39659175  0.96553058  0.14659175  1.0
  In  In6  1  0.72992508  0.29886392  0.14659175  1.0
  In  In7  1  0.72992508  0.63219725  0.14659175  1.0
  In  In8  1  0.72992508  0.96553058  0.14659175  1.0
  In  In9  1  0.29659175  0.09886392  0.04659175  1.0
  In  In10  1  0.29659175  0.43219725  0.04659175  1.0
  In  In11  1  0.29659175  0.76553058  0.04659175  1.0
  In  In12  1  0.62992508  0.09886392  0.04659175  1.0
  In  In13  1  0.62992508  0.43219725  0.04659175  1.0
  In  In14  1  0.62992508  0.76553058  0.04659175  1.0
  In  In15  1  0.96325842  0.09886392  0.04659175  1.0
  In  In16  1  0.96325842  0.43219725  0.04659175  1.0
  In  In17  1  0.96325842  0.76553058  0.04659175  1.0
  In  In18  1  0.12992508  0.09886392  0.04659175  1.0
  In  In19  1  0.12992508  0.43219725  0.04659175  1.0
  In  In20  1  0.12992508  0.76553058  0.04659175  1.0
  In  In21  1  0.46325842  0.09886392  0.04659175  1.0
  In  In22  1  0.46325842  0.43219725  0.04659175  1.0
  In  In23  1  0.46325842  0.76553058  0.04659175  1.0
  In  In24  1  0.79659175  0.09886392  0.04659175  1.0
  In  In25  1  0.79659175  0.43219725  0.04659175  1.0
  In  In26  1  0.79659175  0.76553058  0.04659175  1.0
  In  In27  1  0.22992508  0.29886392  0.14659175  1.0
  In  In28  1  0.22992508  0.63219725  0.14659175  1.0
  In  In29  1  0.22992508  0.96553058  0.14659175  1.0
  In  In30  1  0.56325842  0.29886392  0.14659175  1.0
  In  In31  1  0.56325842  0.63219725  0.14659175  1.0
  In  In32  1  0.56325842  0.96553058  0.14659175  1.0
  In  In33  1  0.89659175  0.29886392  0.14659175  1.0
  In  In34  1  0.89659175  0.63219725  0.14659175  1.0
  In  In35  1  0.89659175  0.96553058  0.14659175  1.0
  In  In36  1  0.23825842  0.14886392  0.07159175  1.0
  In  In37  1  0.23825842  0.48219725  0.07159175  1.0
  In  In38  1  0.23825842  0.81553058  0.07159175  1.0
  In  In39  1  0.57159175  0.14886392  0.07159175  1.0
  In  In40  1  0.57159175  0.48219725  0.07159175  1.0
  In  In41  1  0.57159175  0.81553058  0.07159175  1.0
  In  In42  1  0.90492508  0.14886392  0.07159175  1.0
  In  In43  1  0.90492508  0.48219725  0.07159175  1.0
  In  In44  1  0.90492508  0.81553058  0.07159175  1.0
  In  In45  1  0.00492508  0.01553058  0.17159175  1.0
  In  In46  1  0.00492508  0.34886392  0.17159175  1.0
  In  In47  1  0.00492508  0.68219725  0.17159175  1.0
  In  In48  1  0.33825842  0.01553058  0.17159175  1.0
  In  In49  1  0.33825842  0.34886392  0.17159175  1.0
  In  In50  1  0.33825842  0.68219725  0.17159175  1.0
  In  In51  1  0.67159175  0.01553058  0.17159175  1.0
  In  In52  1  0.67159175  0.34886392  0.17159175  1.0
  In  In53  1  0.67159175  0.68219725  0.17159175  1.0
  In  In54  1  0.28825842  0.24886392  0.12159175  1.0
  In  In55  1  0.28825842  0.58219725  0.12159175  1.0
  In  In56  1  0.28825842  0.91553058  0.12159175  1.0
  In  In57  1  0.62159175  0.24886392  0.12159175  1.0
  In  In58  1  0.62159175  0.58219725  0.12159175  1.0
  In  In59  1  0.62159175  0.91553058  0.12159175  1.0
  In  In60  1  0.95492508  0.24886392  0.12159175  1.0
  In  In61  1  0.95492508  0.58219725  0.12159175  1.0
  In  In62  1  0.95492508  0.91553058  0.12159175  1.0
  In  In63  1  0.18825842  0.04886392  0.02159175  1.0
  In  In64  1  0.18825842  0.38219725  0.02159175  1.0
  In  In65  1  0.18825842  0.71553058  0.02159175  1.0
  In  In66  1  0.52159175  0.04886392  0.02159175  1.0
  In  In67  1  0.52159175  0.38219725  0.02159175  1.0
  In  In68  1  0.52159175  0.71553058  0.02159175  1.0
  In  In69  1  0.85492508  0.04886392  0.02159175  1.0
  In  In70  1  0.85492508  0.38219725  0.02159175  1.0
  In  In71  1  0.85492508  0.71553058  0.02159175  1.0
  In  In72  1  0.25492508  0.18219725  0.17159175  1.0
  In  In73  1  0.25492508  0.51553058  0.17159175  1.0
  In  In74  1  0.25492508  0.84886392  0.17159175  1.0
  In  In75  1  0.58825842  0.18219725  0.17159175  1.0
  In  In76  1  0.58825842  0.51553058  0.17159175  1.0
  In  In77  1  0.58825842  0.84886392  0.17159175  1.0
  In  In78  1  0.92159175  0.18219725  0.17159175  1.0
  In  In79  1  0.92159175  0.51553058  0.17159175  1.0
  In  In80  1  0.92159175  0.84886392  0.17159175  1.0
  In  In81  1  0.15492508  0.31553058  0.07159175  1.0
  In  In82  1  0.15492508  0.64886392  0.07159175  1.0
  In  In83  1  0.15492508  0.98219725  0.07159175  1.0
  In  In84  1  0.48825842  0.31553058  0.07159175  1.0
  In  In85  1  0.48825842  0.64886392  0.07159175  1.0
  In  In86  1  0.48825842  0.98219725  0.07159175  1.0
  In  In87  1  0.82159175  0.31553058  0.07159175  1.0
  In  In88  1  0.82159175  0.64886392  0.07159175  1.0
  In  In89  1  0.82159175  0.98219725  0.07159175  1.0
  In  In90  1  0.27159175  0.21553058  0.02159175  1.0
  In  In91  1  0.27159175  0.54886392  0.02159175  1.0
  In  In92  1  0.27159175  0.88219725  0.02159175  1.0
  In  In93  1  0.60492508  0.21553058  0.02159175  1.0
  In  In94  1  0.60492508  0.54886392  0.02159175  1.0
  In  In95  1  0.60492508  0.88219725  0.02159175  1.0
  In  In96  1  0.93825842  0.21553058  0.02159175  1.0
  In  In97  1  0.93825842  0.54886392  0.02159175  1.0
  In  In98  1  0.93825842  0.88219725  0.02159175  1.0
  In  In99  1  0.03825842  0.08219725  0.12159175  1.0
  In  In100  1  0.03825842  0.41553058  0.12159175  1.0
  In  In101  1  0.03825842  0.74886392  0.12159175  1.0
  In  In102  1  0.37159175  0.08219725  0.12159175  1.0
  In  In103  1  0.37159175  0.41553058  0.12159175  1.0
  In  In104  1  0.37159175  0.74886392  0.12159175  1.0
  In  In105  1  0.70492508  0.08219725  0.12159175  1.0
  In  In106  1  0.70492508  0.41553058  0.12159175  1.0
  In  In107  1  0.70492508  0.74886392  0.12159175  1.0
  In  In108  1  0.13954735  0.17738612  0.03215835  1.0
  In  In109  1  0.13954735  0.51071945  0.03215835  1.0
  In  In110  1  0.13954735  0.84405278  0.03215835  1.0
  In  In111  1  0.47288068  0.17738612  0.03215835  1.0
  In  In112  1  0.47288068  0.51071945  0.03215835  1.0
  In  In113  1  0.47288068  0.84405278  0.03215835  1.0
  In  In114  1  0.80621402  0.17738612  0.03215835  1.0
  In  In115  1  0.80621402  0.51071945  0.03215835  1.0
  In  In116  1  0.80621402  0.84405278  0.03215835  1.0
  In  In117  1  0.23954735  0.04405278  0.13215835  1.0
  In  In118  1  0.23954735  0.37738612  0.13215835  1.0
  In  In119  1  0.23954735  0.71071945  0.13215835  1.0
  In  In120  1  0.57288068  0.04405278  0.13215835  1.0
  In  In121  1  0.57288068  0.37738612  0.13215835  1.0
  In  In122  1  0.57288068  0.71071945  0.13215835  1.0
  In  In123  1  0.90621402  0.04405278  0.13215835  1.0
  In  In124  1  0.90621402  0.37738612  0.13215835  1.0
  In  In125  1  0.90621402  0.71071945  0.13215835  1.0
  In  In126  1  0.05363615  0.22034172  0.16102515  1.0
  In  In127  1  0.05363615  0.55367505  0.16102515  1.0
  In  In128  1  0.05363615  0.88700838  0.16102515  1.0
  In  In129  1  0.38696948  0.22034172  0.16102515  1.0
  In  In130  1  0.38696948  0.55367505  0.16102515  1.0
  In  In131  1  0.38696948  0.88700838  0.16102515  1.0
  In  In132  1  0.72030282  0.22034172  0.16102515  1.0
  In  In133  1  0.72030282  0.55367505  0.16102515  1.0
  In  In134  1  0.72030282  0.88700838  0.16102515  1.0
  In  In135  1  0.28696948  0.02034172  0.06102515  1.0
  In  In136  1  0.28696948  0.35367505  0.06102515  1.0
  In  In137  1  0.28696948  0.68700838  0.06102515  1.0
  In  In138  1  0.62030282  0.02034172  0.06102515  1.0
  In  In139  1  0.62030282  0.35367505  0.06102515  1.0
  In  In140  1  0.62030282  0.68700838  0.06102515  1.0
  In  In141  1  0.95363615  0.02034172  0.06102515  1.0
  In  In142  1  0.95363615  0.35367505  0.06102515  1.0
  In  In143  1  0.95363615  0.68700838  0.06102515  1.0
  In  In144  1  0.16437505  0.10848618  0.16437505  1.0
  In  In145  1  0.16437505  0.44181952  0.16437505  1.0
  In  In146  1  0.16437505  0.77515285  0.16437505  1.0
  In  In147  1  0.49770838  0.10848618  0.16437505  1.0
  In  In148  1  0.49770838  0.44181952  0.16437505  1.0
  In  In149  1  0.49770838  0.77515285  0.16437505  1.0
  In  In150  1  0.83104172  0.10848618  0.16437505  1.0
  In  In151  1  0.83104172  0.44181952  0.16437505  1.0
  In  In152  1  0.83104172  0.77515285  0.16437505  1.0
  In  In153  1  0.06437505  0.24181952  0.06437505  1.0
  In  In154  1  0.06437505  0.57515285  0.06437505  1.0
  In  In155  1  0.06437505  0.90848618  0.06437505  1.0
  In  In156  1  0.39770838  0.24181952  0.06437505  1.0
  In  In157  1  0.39770838  0.57515285  0.06437505  1.0
  In  In158  1  0.39770838  0.90848618  0.06437505  1.0
  In  In159  1  0.73104172  0.24181952  0.06437505  1.0
  In  In160  1  0.73104172  0.57515285  0.06437505  1.0
  In  In161  1  0.73104172  0.90848618  0.06437505  1.0
  In  In162  1  0.25475278  0.28924165  0.02880845  1.0
  In  In163  1  0.25475278  0.62257498  0.02880845  1.0
  In  In164  1  0.25475278  0.95590832  0.02880845  1.0
  In  In165  1  0.58808612  0.28924165  0.02880845  1.0
  In  In166  1  0.58808612  0.62257498  0.02880845  1.0
  In  In167  1  0.58808612  0.95590832  0.02880845  1.0
  In  In168  1  0.92141945  0.28924165  0.02880845  1.0
  In  In169  1  0.92141945  0.62257498  0.02880845  1.0
  In  In170  1  0.92141945  0.95590832  0.02880845  1.0
  In  In171  1  0.02141945  0.15590832  0.12880845  1.0
  In  In172  1  0.02141945  0.48924165  0.12880845  1.0
  In  In173  1  0.02141945  0.82257498  0.12880845  1.0
  In  In174  1  0.35475278  0.15590832  0.12880845  1.0
  In  In175  1  0.35475278  0.48924165  0.12880845  1.0
  In  In176  1  0.35475278  0.82257498  0.12880845  1.0
  In  In177  1  0.68808612  0.15590832  0.12880845  1.0
  In  In178  1  0.68808612  0.48924165  0.12880845  1.0
  In  In179  1  0.68808612  0.82257498  0.12880845  1.0
  In  In180  1  0.12880845  0.15590832  0.12880845  1.0
  In  In181  1  0.12880845  0.48924165  0.12880845  1.0
  In  In182  1  0.12880845  0.82257498  0.12880845  1.0
  In  In183  1  0.46214178  0.15590832  0.12880845  1.0
  In  In184  1  0.46214178  0.48924165  0.12880845  1.0
  In  In185  1  0.46214178  0.82257498  0.12880845  1.0
  In  In186  1  0.79547512  0.15590832  0.12880845  1.0
  In  In187  1  0.79547512  0.48924165  0.12880845  1.0
  In  In188  1  0.79547512  0.82257498  0.12880845  1.0
  In  In189  1  0.02880845  0.28924165  0.02880845  1.0
  In  In190  1  0.02880845  0.62257498  0.02880845  1.0
  In  In191  1  0.02880845  0.95590832  0.02880845  1.0
  In  In192  1  0.36214178  0.28924165  0.02880845  1.0
  In  In193  1  0.36214178  0.62257498  0.02880845  1.0
  In  In194  1  0.36214178  0.95590832  0.02880845  1.0
  In  In195  1  0.69547512  0.28924165  0.02880845  1.0
  In  In196  1  0.69547512  0.62257498  0.02880845  1.0
  In  In197  1  0.69547512  0.95590832  0.02880845  1.0
  In  In198  1  0.17176405  0.24181952  0.06437505  1.0
  In  In199  1  0.17176405  0.57515285  0.06437505  1.0
  In  In200  1  0.17176405  0.90848618  0.06437505  1.0
  In  In201  1  0.50509738  0.24181952  0.06437505  1.0
  In  In202  1  0.50509738  0.57515285  0.06437505  1.0
  In  In203  1  0.50509738  0.90848618  0.06437505  1.0
  In  In204  1  0.83843072  0.24181952  0.06437505  1.0
  In  In205  1  0.83843072  0.57515285  0.06437505  1.0
  In  In206  1  0.83843072  0.90848618  0.06437505  1.0
  In  In207  1  0.27176405  0.10848618  0.16437505  1.0
  In  In208  1  0.27176405  0.44181952  0.16437505  1.0
  In  In209  1  0.27176405  0.77515285  0.16437505  1.0
  In  In210  1  0.60509738  0.10848618  0.16437505  1.0
  In  In211  1  0.60509738  0.44181952  0.16437505  1.0
  In  In212  1  0.60509738  0.77515285  0.16437505  1.0
  In  In213  1  0.93843072  0.10848618  0.16437505  1.0
  In  In214  1  0.93843072  0.44181952  0.16437505  1.0
  In  In215  1  0.93843072  0.77515285  0.16437505  1.0
  In  In216  1  0.16102515  0.22034172  0.16102515  1.0
  In  In217  1  0.16102515  0.55367505  0.16102515  1.0
  In  In218  1  0.16102515  0.88700838  0.16102515  1.0
  In  In219  1  0.49435848  0.22034172  0.16102515  1.0
  In  In220  1  0.49435848  0.55367505  0.16102515  1.0
  In  In221  1  0.49435848  0.88700838  0.16102515  1.0
  In  In222  1  0.82769182  0.22034172  0.16102515  1.0
  In  In223  1  0.82769182  0.55367505  0.16102515  1.0
  In  In224  1  0.82769182  0.88700838  0.16102515  1.0
  In  In225  1  0.06102515  0.02034172  0.06102515  1.0
  In  In226  1  0.06102515  0.35367505  0.06102515  1.0
  In  In227  1  0.06102515  0.68700838  0.06102515  1.0
  In  In228  1  0.39435848  0.02034172  0.06102515  1.0
  In  In229  1  0.39435848  0.35367505  0.06102515  1.0
  In  In230  1  0.39435848  0.68700838  0.06102515  1.0
  In  In231  1  0.72769182  0.02034172  0.06102515  1.0
  In  In232  1  0.72769182  0.35367505  0.06102515  1.0
  In  In233  1  0.72769182  0.68700838  0.06102515  1.0
  In  In234  1  0.03215835  0.17738612  0.03215835  1.0
  In  In235  1  0.03215835  0.51071945  0.03215835  1.0
  In  In236  1  0.03215835  0.84405278  0.03215835  1.0
  In  In237  1  0.36549168  0.17738612  0.03215835  1.0
  In  In238  1  0.36549168  0.51071945  0.03215835  1.0
  In  In239  1  0.36549168  0.84405278  0.03215835  1.0
  In  In240  1  0.69882502  0.17738612  0.03215835  1.0
  In  In241  1  0.69882502  0.51071945  0.03215835  1.0
  In  In242  1  0.69882502  0.84405278  0.03215835  1.0
  In  In243  1  0.13215835  0.04405278  0.13215835  1.0
  In  In244  1  0.13215835  0.37738612  0.13215835  1.0
  In  In245  1  0.13215835  0.71071945  0.13215835  1.0
  In  In246  1  0.46549168  0.04405278  0.13215835  1.0
  In  In247  1  0.46549168  0.37738612  0.13215835  1.0
  In  In248  1  0.46549168  0.71071945  0.13215835  1.0
  In  In249  1  0.79882502  0.04405278  0.13215835  1.0
  In  In250  1  0.79882502  0.37738612  0.13215835  1.0
  In  In251  1  0.79882502  0.71071945  0.13215835  1.0
  In  In252  1  0.26325842  0.03219725  0.34659175  1.0
  In  In253  1  0.26325842  0.36553058  0.34659175  1.0
  In  In254  1  0.26325842  0.69886392  0.34659175  1.0
  In  In255  1  0.59659175  0.03219725  0.34659175  1.0
  In  In256  1  0.59659175  0.36553058  0.34659175  1.0
  In  In257  1  0.59659175  0.69886392  0.34659175  1.0
  In  In258  1  0.92992508  0.03219725  0.34659175  1.0
  In  In259  1  0.92992508  0.36553058  0.34659175  1.0
  In  In260  1  0.92992508  0.69886392  0.34659175  1.0
  In  In261  1  0.16325842  0.16553058  0.24659175  1.0
  In  In262  1  0.16325842  0.49886392  0.24659175  1.0
  In  In263  1  0.16325842  0.83219725  0.24659175  1.0
  In  In264  1  0.49659175  0.16553058  0.24659175  1.0
  In  In265  1  0.49659175  0.49886392  0.24659175  1.0
  In  In266  1  0.49659175  0.83219725  0.24659175  1.0
  In  In267  1  0.82992508  0.16553058  0.24659175  1.0
  In  In268  1  0.82992508  0.49886392  0.24659175  1.0
  In  In269  1  0.82992508  0.83219725  0.24659175  1.0
  In  In270  1  0.32992508  0.16553058  0.24659175  1.0
  In  In271  1  0.32992508  0.49886392  0.24659175  1.0
  In  In272  1  0.32992508  0.83219725  0.24659175  1.0
  In  In273  1  0.66325842  0.16553058  0.24659175  1.0
  In  In274  1  0.66325842  0.49886392  0.24659175  1.0
  In  In275  1  0.66325842  0.83219725  0.24659175  1.0
  In  In276  1  0.99659175  0.16553058  0.24659175  1.0
  In  In277  1  0.99659175  0.49886392  0.24659175  1.0
  In  In278  1  0.99659175  0.83219725  0.24659175  1.0
  In  In279  1  0.09659175  0.03219725  0.34659175  1.0
  In  In280  1  0.09659175  0.36553058  0.34659175  1.0
  In  In281  1  0.09659175  0.69886392  0.34659175  1.0
  In  In282  1  0.42992508  0.03219725  0.34659175  1.0
  In  In283  1  0.42992508  0.36553058  0.34659175  1.0
  In  In284  1  0.42992508  0.69886392  0.34659175  1.0
  In  In285  1  0.76325842  0.03219725  0.34659175  1.0
  In  In286  1  0.76325842  0.36553058  0.34659175  1.0
  In  In287  1  0.76325842  0.69886392  0.34659175  1.0
  In  In288  1  0.10492508  0.21553058  0.27159175  1.0
  In  In289  1  0.10492508  0.54886392  0.27159175  1.0
  In  In290  1  0.10492508  0.88219725  0.27159175  1.0
  In  In291  1  0.43825842  0.21553058  0.27159175  1.0
  In  In292  1  0.43825842  0.54886392  0.27159175  1.0
  In  In293  1  0.43825842  0.88219725  0.27159175  1.0
  In  In294  1  0.77159175  0.21553058  0.27159175  1.0
  In  In295  1  0.77159175  0.54886392  0.27159175  1.0
  In  In296  1  0.77159175  0.88219725  0.27159175  1.0
  In  In297  1  0.20492508  0.08219725  0.37159175  1.0
  In  In298  1  0.20492508  0.41553058  0.37159175  1.0
  In  In299  1  0.20492508  0.74886392  0.37159175  1.0
  In  In300  1  0.53825842  0.08219725  0.37159175  1.0
  In  In301  1  0.53825842  0.41553058  0.37159175  1.0
  In  In302  1  0.53825842  0.74886392  0.37159175  1.0
  In  In303  1  0.87159175  0.08219725  0.37159175  1.0
  In  In304  1  0.87159175  0.41553058  0.37159175  1.0
  In  In305  1  0.87159175  0.74886392  0.37159175  1.0
  In  In306  1  0.15492508  0.31553058  0.32159175  1.0
  In  In307  1  0.15492508  0.64886392  0.32159175  1.0
  In  In308  1  0.15492508  0.98219725  0.32159175  1.0
  In  In309  1  0.48825842  0.31553058  0.32159175  1.0
  In  In310  1  0.48825842  0.64886392  0.32159175  1.0
  In  In311  1  0.48825842  0.98219725  0.32159175  1.0
  In  In312  1  0.82159175  0.31553058  0.32159175  1.0
  In  In313  1  0.82159175  0.64886392  0.32159175  1.0
  In  In314  1  0.82159175  0.98219725  0.32159175  1.0
  In  In315  1  0.05492508  0.11553058  0.22159175  1.0
  In  In316  1  0.05492508  0.44886392  0.22159175  1.0
  In  In317  1  0.05492508  0.78219725  0.22159175  1.0
  In  In318  1  0.38825842  0.11553058  0.22159175  1.0
  In  In319  1  0.38825842  0.44886392  0.22159175  1.0
  In  In320  1  0.38825842  0.78219725  0.22159175  1.0
  In  In321  1  0.72159175  0.11553058  0.22159175  1.0
  In  In322  1  0.72159175  0.44886392  0.22159175  1.0
  In  In323  1  0.72159175  0.78219725  0.22159175  1.0
  In  In324  1  0.12159175  0.24886392  0.37159175  1.0
  In  In325  1  0.12159175  0.58219725  0.37159175  1.0
  In  In326  1  0.12159175  0.91553058  0.37159175  1.0
  In  In327  1  0.45492508  0.24886392  0.37159175  1.0
  In  In328  1  0.45492508  0.58219725  0.37159175  1.0
  In  In329  1  0.45492508  0.91553058  0.37159175  1.0
  In  In330  1  0.78825842  0.24886392  0.37159175  1.0
  In  In331  1  0.78825842  0.58219725  0.37159175  1.0
  In  In332  1  0.78825842  0.91553058  0.37159175  1.0
  In  In333  1  0.02159175  0.04886392  0.27159175  1.0
  In  In334  1  0.02159175  0.38219725  0.27159175  1.0
  In  In335  1  0.02159175  0.71553058  0.27159175  1.0
  In  In336  1  0.35492508  0.04886392  0.27159175  1.0
  In  In337  1  0.35492508  0.38219725  0.27159175  1.0
  In  In338  1  0.35492508  0.71553058  0.27159175  1.0
  In  In339  1  0.68825842  0.04886392  0.27159175  1.0
  In  In340  1  0.68825842  0.38219725  0.27159175  1.0
  In  In341  1  0.68825842  0.71553058  0.27159175  1.0
  In  In342  1  0.13825842  0.28219725  0.22159175  1.0
  In  In343  1  0.13825842  0.61553058  0.22159175  1.0
  In  In344  1  0.13825842  0.94886392  0.22159175  1.0
  In  In345  1  0.47159175  0.28219725  0.22159175  1.0
  In  In346  1  0.47159175  0.61553058  0.22159175  1.0
  In  In347  1  0.47159175  0.94886392  0.22159175  1.0
  In  In348  1  0.80492508  0.28219725  0.22159175  1.0
  In  In349  1  0.80492508  0.61553058  0.22159175  1.0
  In  In350  1  0.80492508  0.94886392  0.22159175  1.0
  In  In351  1  0.23825842  0.14886392  0.32159175  1.0
  In  In352  1  0.23825842  0.48219725  0.32159175  1.0
  In  In353  1  0.23825842  0.81553058  0.32159175  1.0
  In  In354  1  0.57159175  0.14886392  0.32159175  1.0
  In  In355  1  0.57159175  0.48219725  0.32159175  1.0
  In  In356  1  0.57159175  0.81553058  0.32159175  1.0
  In  In357  1  0.90492508  0.14886392  0.32159175  1.0
  In  In358  1  0.90492508  0.48219725  0.32159175  1.0
  In  In359  1  0.90492508  0.81553058  0.32159175  1.0
  In  In360  1  0.00621402  0.24405278  0.23215835  1.0
  In  In361  1  0.00621402  0.57738612  0.23215835  1.0
  In  In362  1  0.00621402  0.91071945  0.23215835  1.0
  In  In363  1  0.33954735  0.24405278  0.23215835  1.0
  In  In364  1  0.33954735  0.57738612  0.23215835  1.0
  In  In365  1  0.33954735  0.91071945  0.23215835  1.0
  In  In366  1  0.67288068  0.24405278  0.23215835  1.0
  In  In367  1  0.67288068  0.57738612  0.23215835  1.0
  In  In368  1  0.67288068  0.91071945  0.23215835  1.0
  In  In369  1  0.10621402  0.11071945  0.33215835  1.0
  In  In370  1  0.10621402  0.44405278  0.33215835  1.0
  In  In371  1  0.10621402  0.77738612  0.33215835  1.0
  In  In372  1  0.43954735  0.11071945  0.33215835  1.0
  In  In373  1  0.43954735  0.44405278  0.33215835  1.0
  In  In374  1  0.43954735  0.77738612  0.33215835  1.0
  In  In375  1  0.77288068  0.11071945  0.33215835  1.0
  In  In376  1  0.77288068  0.44405278  0.33215835  1.0
  In  In377  1  0.77288068  0.77738612  0.33215835  1.0
  In  In378  1  0.25363615  0.28700838  0.36102515  1.0
  In  In379  1  0.25363615  0.62034172  0.36102515  1.0
  In  In380  1  0.25363615  0.95367505  0.36102515  1.0
  In  In381  1  0.58696948  0.28700838  0.36102515  1.0
  In  In382  1  0.58696948  0.62034172  0.36102515  1.0
  In  In383  1  0.58696948  0.95367505  0.36102515  1.0
  In  In384  1  0.92030282  0.28700838  0.36102515  1.0
  In  In385  1  0.92030282  0.62034172  0.36102515  1.0
  In  In386  1  0.92030282  0.95367505  0.36102515  1.0
  In  In387  1  0.15363615  0.08700838  0.26102515  1.0
  In  In388  1  0.15363615  0.42034172  0.26102515  1.0
  In  In389  1  0.15363615  0.75367505  0.26102515  1.0
  In  In390  1  0.48696948  0.08700838  0.26102515  1.0
  In  In391  1  0.48696948  0.42034172  0.26102515  1.0
  In  In392  1  0.48696948  0.75367505  0.26102515  1.0
  In  In393  1  0.82030282  0.08700838  0.26102515  1.0
  In  In394  1  0.82030282  0.42034172  0.26102515  1.0
  In  In395  1  0.82030282  0.75367505  0.26102515  1.0
  In  In396  1  0.03104172  0.17515285  0.36437505  1.0
  In  In397  1  0.03104172  0.50848618  0.36437505  1.0
  In  In398  1  0.03104172  0.84181952  0.36437505  1.0
  In  In399  1  0.36437505  0.17515285  0.36437505  1.0
  In  In400  1  0.36437505  0.50848618  0.36437505  1.0
  In  In401  1  0.36437505  0.84181952  0.36437505  1.0
  In  In402  1  0.69770838  0.17515285  0.36437505  1.0
  In  In403  1  0.69770838  0.50848618  0.36437505  1.0
  In  In404  1  0.69770838  0.84181952  0.36437505  1.0
  In  In405  1  0.26437505  0.30848618  0.26437505  1.0
  In  In406  1  0.26437505  0.64181952  0.26437505  1.0
  In  In407  1  0.26437505  0.97515285  0.26437505  1.0
  In  In408  1  0.59770838  0.30848618  0.26437505  1.0
  In  In409  1  0.59770838  0.64181952  0.26437505  1.0
  In  In410  1  0.59770838  0.97515285  0.26437505  1.0
  In  In411  1  0.93104172  0.30848618  0.26437505  1.0
  In  In412  1  0.93104172  0.64181952  0.26437505  1.0
  In  In413  1  0.93104172  0.97515285  0.26437505  1.0
  In  In414  1  0.12141945  0.02257498  0.22880845  1.0
  In  In415  1  0.12141945  0.35590832  0.22880845  1.0
  In  In416  1  0.12141945  0.68924165  0.22880845  1.0
  In  In417  1  0.45475278  0.02257498  0.22880845  1.0
  In  In418  1  0.45475278  0.35590832  0.22880845  1.0
  In  In419  1  0.45475278  0.68924165  0.22880845  1.0
  In  In420  1  0.78808612  0.02257498  0.22880845  1.0
  In  In421  1  0.78808612  0.35590832  0.22880845  1.0
  In  In422  1  0.78808612  0.68924165  0.22880845  1.0
  In  In423  1  0.22141945  0.22257498  0.32880845  1.0
  In  In424  1  0.22141945  0.55590832  0.32880845  1.0
  In  In425  1  0.22141945  0.88924165  0.32880845  1.0
  In  In426  1  0.55475278  0.22257498  0.32880845  1.0
  In  In427  1  0.55475278  0.55590832  0.32880845  1.0
  In  In428  1  0.55475278  0.88924165  0.32880845  1.0
  In  In429  1  0.88808612  0.22257498  0.32880845  1.0
  In  In430  1  0.88808612  0.55590832  0.32880845  1.0
  In  In431  1  0.88808612  0.88924165  0.32880845  1.0
  In  In432  1  0.32880845  0.22257498  0.32880845  1.0
  In  In433  1  0.32880845  0.55590832  0.32880845  1.0
  In  In434  1  0.32880845  0.88924165  0.32880845  1.0
  In  In435  1  0.66214178  0.22257498  0.32880845  1.0
  In  In436  1  0.66214178  0.55590832  0.32880845  1.0
  In  In437  1  0.66214178  0.88924165  0.32880845  1.0
  In  In438  1  0.99547512  0.22257498  0.32880845  1.0
  In  In439  1  0.99547512  0.55590832  0.32880845  1.0
  In  In440  1  0.99547512  0.88924165  0.32880845  1.0
  In  In441  1  0.22880845  0.02257498  0.22880845  1.0
  In  In442  1  0.22880845  0.35590832  0.22880845  1.0
  In  In443  1  0.22880845  0.68924165  0.22880845  1.0
  In  In444  1  0.56214178  0.02257498  0.22880845  1.0
  In  In445  1  0.56214178  0.35590832  0.22880845  1.0
  In  In446  1  0.56214178  0.68924165  0.22880845  1.0
  In  In447  1  0.89547512  0.02257498  0.22880845  1.0
  In  In448  1  0.89547512  0.35590832  0.22880845  1.0
  In  In449  1  0.89547512  0.68924165  0.22880845  1.0
  In  In450  1  0.03843072  0.30848618  0.26437505  1.0
  In  In451  1  0.03843072  0.64181952  0.26437505  1.0
  In  In452  1  0.03843072  0.97515285  0.26437505  1.0
  In  In453  1  0.37176405  0.30848618  0.26437505  1.0
  In  In454  1  0.37176405  0.64181952  0.26437505  1.0
  In  In455  1  0.37176405  0.97515285  0.26437505  1.0
  In  In456  1  0.70509738  0.30848618  0.26437505  1.0
  In  In457  1  0.70509738  0.64181952  0.26437505  1.0
  In  In458  1  0.70509738  0.97515285  0.26437505  1.0
  In  In459  1  0.13843072  0.17515285  0.36437505  1.0
  In  In460  1  0.13843072  0.50848618  0.36437505  1.0
  In  In461  1  0.13843072  0.84181952  0.36437505  1.0
  In  In462  1  0.47176405  0.17515285  0.36437505  1.0
  In  In463  1  0.47176405  0.50848618  0.36437505  1.0
  In  In464  1  0.47176405  0.84181952  0.36437505  1.0
  In  In465  1  0.80509738  0.17515285  0.36437505  1.0
  In  In466  1  0.80509738  0.50848618  0.36437505  1.0
  In  In467  1  0.80509738  0.84181952  0.36437505  1.0
  In  In468  1  0.02769182  0.28700838  0.36102515  1.0
  In  In469  1  0.02769182  0.62034172  0.36102515  1.0
  In  In470  1  0.02769182  0.95367505  0.36102515  1.0
  In  In471  1  0.36102515  0.28700838  0.36102515  1.0
  In  In472  1  0.36102515  0.62034172  0.36102515  1.0
  In  In473  1  0.36102515  0.95367505  0.36102515  1.0
  In  In474  1  0.69435848  0.28700838  0.36102515  1.0
  In  In475  1  0.69435848  0.62034172  0.36102515  1.0
  In  In476  1  0.69435848  0.95367505  0.36102515  1.0
  In  In477  1  0.26102515  0.08700838  0.26102515  1.0
  In  In478  1  0.26102515  0.42034172  0.26102515  1.0
  In  In479  1  0.26102515  0.75367505  0.26102515  1.0
  In  In480  1  0.59435848  0.08700838  0.26102515  1.0
  In  In481  1  0.59435848  0.42034172  0.26102515  1.0
  In  In482  1  0.59435848  0.75367505  0.26102515  1.0
  In  In483  1  0.92769182  0.08700838  0.26102515  1.0
  In  In484  1  0.92769182  0.42034172  0.26102515  1.0
  In  In485  1  0.92769182  0.75367505  0.26102515  1.0
  In  In486  1  0.23215835  0.24405278  0.23215835  1.0
  In  In487  1  0.23215835  0.57738612  0.23215835  1.0
  In  In488  1  0.23215835  0.91071945  0.23215835  1.0
  In  In489  1  0.56549168  0.24405278  0.23215835  1.0
  In  In490  1  0.56549168  0.57738612  0.23215835  1.0
  In  In491  1  0.56549168  0.91071945  0.23215835  1.0
  In  In492  1  0.89882502  0.24405278  0.23215835  1.0
  In  In493  1  0.89882502  0.57738612  0.23215835  1.0
  In  In494  1  0.89882502  0.91071945  0.23215835  1.0
  In  In495  1  0.33215835  0.11071945  0.33215835  1.0
  In  In496  1  0.33215835  0.44405278  0.33215835  1.0
  In  In497  1  0.33215835  0.77738612  0.33215835  1.0
  In  In498  1  0.66549168  0.11071945  0.33215835  1.0
  In  In499  1  0.66549168  0.44405278  0.33215835  1.0
  In  In500  1  0.66549168  0.77738612  0.33215835  1.0
  In  In501  1  0.99882502  0.11071945  0.33215835  1.0
  In  In502  1  0.99882502  0.44405278  0.33215835  1.0
  In  In503  1  0.99882502  0.77738612  0.33215835  1.0
  Ni  Ni504  1  0.21527675  0.19886392  0.09659175  1.0
  Ni  Ni505  1  0.21527675  0.53219725  0.09659175  1.0
  Ni  Ni506  1  0.21527675  0.86553058  0.09659175  1.0
  Ni  Ni507  1  0.54861008  0.19886392  0.09659175  1.0
  Ni  Ni508  1  0.54861008  0.53219725  0.09659175  1.0
  Ni  Ni509  1  0.54861008  0.86553058  0.09659175  1.0
  Ni  Ni510  1  0.88194342  0.19886392  0.09659175  1.0
  Ni  Ni511  1  0.88194342  0.53219725  0.09659175  1.0
  Ni  Ni512  1  0.88194342  0.86553058  0.09659175  1.0
  Ni  Ni513  1  0.31527675  0.06553058  0.19659175  1.0
  Ni  Ni514  1  0.31527675  0.39886392  0.19659175  1.0
  Ni  Ni515  1  0.31527675  0.73219725  0.19659175  1.0
  Ni  Ni516  1  0.64861008  0.06553058  0.19659175  1.0
  Ni  Ni517  1  0.64861008  0.39886392  0.19659175  1.0
  Ni  Ni518  1  0.64861008  0.73219725  0.19659175  1.0
  Ni  Ni519  1  0.98194342  0.06553058  0.19659175  1.0
  Ni  Ni520  1  0.98194342  0.39886392  0.19659175  1.0
  Ni  Ni521  1  0.98194342  0.73219725  0.19659175  1.0
  Ni  Ni522  1  0.31124008  0.19886392  0.09659175  1.0
  Ni  Ni523  1  0.31124008  0.53219725  0.09659175  1.0
  Ni  Ni524  1  0.31124008  0.86553058  0.09659175  1.0
  Ni  Ni525  1  0.64457342  0.19886392  0.09659175  1.0
  Ni  Ni526  1  0.64457342  0.53219725  0.09659175  1.0
  Ni  Ni527  1  0.64457342  0.86553058  0.09659175  1.0
  Ni  Ni528  1  0.97790675  0.19886392  0.09659175  1.0
  Ni  Ni529  1  0.97790675  0.53219725  0.09659175  1.0
  Ni  Ni530  1  0.97790675  0.86553058  0.09659175  1.0
  Ni  Ni531  1  0.07790675  0.06553058  0.19659175  1.0
  Ni  Ni532  1  0.07790675  0.39886392  0.19659175  1.0
  Ni  Ni533  1  0.07790675  0.73219725  0.19659175  1.0
  Ni  Ni534  1  0.41124008  0.06553058  0.19659175  1.0
  Ni  Ni535  1  0.41124008  0.39886392  0.19659175  1.0
  Ni  Ni536  1  0.41124008  0.73219725  0.19659175  1.0
  Ni  Ni537  1  0.74457342  0.06553058  0.19659175  1.0
  Ni  Ni538  1  0.74457342  0.39886392  0.19659175  1.0
  Ni  Ni539  1  0.74457342  0.73219725  0.19659175  1.0
  Ni  Ni540  1  0.06098625  0.12765292  0.06098625  1.0
  Ni  Ni541  1  0.06098625  0.46098625  0.06098625  1.0
  Ni  Ni542  1  0.06098625  0.79431958  0.06098625  1.0
  Ni  Ni543  1  0.39431958  0.12765292  0.06098625  1.0
  Ni  Ni544  1  0.39431958  0.46098625  0.06098625  1.0
  Ni  Ni545  1  0.39431958  0.79431958  0.06098625  1.0
  Ni  Ni546  1  0.72765292  0.12765292  0.06098625  1.0
  Ni  Ni547  1  0.72765292  0.46098625  0.06098625  1.0
  Ni  Ni548  1  0.72765292  0.79431958  0.06098625  1.0
  Ni  Ni549  1  0.16098625  0.32765292  0.16098625  1.0
  Ni  Ni550  1  0.16098625  0.66098625  0.16098625  1.0
  Ni  Ni551  1  0.16098625  0.99431958  0.16098625  1.0
  Ni  Ni552  1  0.49431958  0.32765292  0.16098625  1.0
  Ni  Ni553  1  0.49431958  0.66098625  0.16098625  1.0
  Ni  Ni554  1  0.49431958  0.99431958  0.16098625  1.0
  Ni  Ni555  1  0.82765292  0.32765292  0.16098625  1.0
  Ni  Ni556  1  0.82765292  0.66098625  0.16098625  1.0
  Ni  Ni557  1  0.82765292  0.99431958  0.16098625  1.0
  Ni  Ni558  1  0.03219725  0.07007492  0.03219725  1.0
  Ni  Ni559  1  0.03219725  0.40340825  0.03219725  1.0
  Ni  Ni560  1  0.03219725  0.73674158  0.03219725  1.0
  Ni  Ni561  1  0.36553058  0.07007492  0.03219725  1.0
  Ni  Ni562  1  0.36553058  0.40340825  0.03219725  1.0
  Ni  Ni563  1  0.36553058  0.73674158  0.03219725  1.0
  Ni  Ni564  1  0.69886392  0.07007492  0.03219725  1.0
  Ni  Ni565  1  0.69886392  0.40340825  0.03219725  1.0
  Ni  Ni566  1  0.69886392  0.73674158  0.03219725  1.0
  Ni  Ni567  1  0.13219725  0.27007492  0.13219725  1.0
  Ni  Ni568  1  0.13219725  0.60340825  0.13219725  1.0
  Ni  Ni569  1  0.13219725  0.93674158  0.13219725  1.0
  Ni  Ni570  1  0.46553058  0.27007492  0.13219725  1.0
  Ni  Ni571  1  0.46553058  0.60340825  0.13219725  1.0
  Ni  Ni572  1  0.46553058  0.93674158  0.13219725  1.0
  Ni  Ni573  1  0.79886392  0.27007492  0.13219725  1.0
  Ni  Ni574  1  0.79886392  0.60340825  0.13219725  1.0
  Ni  Ni575  1  0.79886392  0.93674158  0.13219725  1.0
  Ni  Ni576  1  0.30846025  0.28926758  0.18977525  1.0
  Ni  Ni577  1  0.30846025  0.62260092  0.18977525  1.0
  Ni  Ni578  1  0.30846025  0.95593425  0.18977525  1.0
  Ni  Ni579  1  0.64179358  0.28926758  0.18977525  1.0
  Ni  Ni580  1  0.64179358  0.62260092  0.18977525  1.0
  Ni  Ni581  1  0.64179358  0.95593425  0.18977525  1.0
  Ni  Ni582  1  0.97512692  0.28926758  0.18977525  1.0
  Ni  Ni583  1  0.97512692  0.62260092  0.18977525  1.0
  Ni  Ni584  1  0.97512692  0.95593425  0.18977525  1.0
  Ni  Ni585  1  0.20846025  0.08926758  0.08977525  1.0
  Ni  Ni586  1  0.20846025  0.42260092  0.08977525  1.0
  Ni  Ni587  1  0.20846025  0.75593425  0.08977525  1.0
  Ni  Ni588  1  0.54179358  0.08926758  0.08977525  1.0
  Ni  Ni589  1  0.54179358  0.42260092  0.08977525  1.0
  Ni  Ni590  1  0.54179358  0.75593425  0.08977525  1.0
  Ni  Ni591  1  0.87512692  0.08926758  0.08977525  1.0
  Ni  Ni592  1  0.87512692  0.42260092  0.08977525  1.0
  Ni  Ni593  1  0.87512692  0.75593425  0.08977525  1.0
  Ni  Ni594  1  0.31805658  0.30846025  0.10340825  1.0
  Ni  Ni595  1  0.31805658  0.64179358  0.10340825  1.0
  Ni  Ni596  1  0.31805658  0.97512692  0.10340825  1.0
  Ni  Ni597  1  0.65138992  0.30846025  0.10340825  1.0
  Ni  Ni598  1  0.65138992  0.64179358  0.10340825  1.0
  Ni  Ni599  1  0.65138992  0.97512692  0.10340825  1.0
  Ni  Ni600  1  0.98472325  0.30846025  0.10340825  1.0
  Ni  Ni601  1  0.98472325  0.64179358  0.10340825  1.0
  Ni  Ni602  1  0.98472325  0.97512692  0.10340825  1.0
  Ni  Ni603  1  0.21805658  0.10846025  0.00340825  1.0
  Ni  Ni604  1  0.21805658  0.44179358  0.00340825  1.0
  Ni  Ni605  1  0.21805658  0.77512692  0.00340825  1.0
  Ni  Ni606  1  0.55138992  0.10846025  0.00340825  1.0
  Ni  Ni607  1  0.55138992  0.44179358  0.00340825  1.0
  Ni  Ni608  1  0.55138992  0.77512692  0.00340825  1.0
  Ni  Ni609  1  0.88472325  0.10846025  0.00340825  1.0
  Ni  Ni610  1  0.88472325  0.44179358  0.00340825  1.0
  Ni  Ni611  1  0.88472325  0.77512692  0.00340825  1.0
  Ni  Ni612  1  0.08194342  0.26553058  0.29659175  1.0
  Ni  Ni613  1  0.08194342  0.59886392  0.29659175  1.0
  Ni  Ni614  1  0.08194342  0.93219725  0.29659175  1.0
  Ni  Ni615  1  0.41527675  0.26553058  0.29659175  1.0
  Ni  Ni616  1  0.41527675  0.59886392  0.29659175  1.0
  Ni  Ni617  1  0.41527675  0.93219725  0.29659175  1.0
  Ni  Ni618  1  0.74861008  0.26553058  0.29659175  1.0
  Ni  Ni619  1  0.74861008  0.59886392  0.29659175  1.0
  Ni  Ni620  1  0.74861008  0.93219725  0.29659175  1.0
  Ni  Ni621  1  0.18194342  0.13219725  0.39659175  1.0
  Ni  Ni622  1  0.18194342  0.46553058  0.39659175  1.0
  Ni  Ni623  1  0.18194342  0.79886392  0.39659175  1.0
  Ni  Ni624  1  0.51527675  0.13219725  0.39659175  1.0
  Ni  Ni625  1  0.51527675  0.46553058  0.39659175  1.0
  Ni  Ni626  1  0.51527675  0.79886392  0.39659175  1.0
  Ni  Ni627  1  0.84861008  0.13219725  0.39659175  1.0
  Ni  Ni628  1  0.84861008  0.46553058  0.39659175  1.0
  Ni  Ni629  1  0.84861008  0.79886392  0.39659175  1.0
  Ni  Ni630  1  0.17790675  0.26553058  0.29659175  1.0
  Ni  Ni631  1  0.17790675  0.59886392  0.29659175  1.0
  Ni  Ni632  1  0.17790675  0.93219725  0.29659175  1.0
  Ni  Ni633  1  0.51124008  0.26553058  0.29659175  1.0
  Ni  Ni634  1  0.51124008  0.59886392  0.29659175  1.0
  Ni  Ni635  1  0.51124008  0.93219725  0.29659175  1.0
  Ni  Ni636  1  0.84457342  0.26553058  0.29659175  1.0
  Ni  Ni637  1  0.84457342  0.59886392  0.29659175  1.0
  Ni  Ni638  1  0.84457342  0.93219725  0.29659175  1.0
  Ni  Ni639  1  0.27790675  0.13219725  0.39659175  1.0
  Ni  Ni640  1  0.27790675  0.46553058  0.39659175  1.0
  Ni  Ni641  1  0.27790675  0.79886392  0.39659175  1.0
  Ni  Ni642  1  0.61124008  0.13219725  0.39659175  1.0
  Ni  Ni643  1  0.61124008  0.46553058  0.39659175  1.0
  Ni  Ni644  1  0.61124008  0.79886392  0.39659175  1.0
  Ni  Ni645  1  0.94457342  0.13219725  0.39659175  1.0
  Ni  Ni646  1  0.94457342  0.46553058  0.39659175  1.0
  Ni  Ni647  1  0.94457342  0.79886392  0.39659175  1.0
  Ni  Ni648  1  0.26098625  0.19431958  0.26098625  1.0
  Ni  Ni649  1  0.26098625  0.52765292  0.26098625  1.0
  Ni  Ni650  1  0.26098625  0.86098625  0.26098625  1.0
  Ni  Ni651  1  0.59431958  0.19431958  0.26098625  1.0
  Ni  Ni652  1  0.59431958  0.52765292  0.26098625  1.0
  Ni  Ni653  1  0.59431958  0.86098625  0.26098625  1.0
  Ni  Ni654  1  0.92765292  0.19431958  0.26098625  1.0
  Ni  Ni655  1  0.92765292  0.52765292  0.26098625  1.0
  Ni  Ni656  1  0.92765292  0.86098625  0.26098625  1.0
  Ni  Ni657  1  0.02765292  0.06098625  0.36098625  1.0
  Ni  Ni658  1  0.02765292  0.39431958  0.36098625  1.0
  Ni  Ni659  1  0.02765292  0.72765292  0.36098625  1.0
  Ni  Ni660  1  0.36098625  0.06098625  0.36098625  1.0
  Ni  Ni661  1  0.36098625  0.39431958  0.36098625  1.0
  Ni  Ni662  1  0.36098625  0.72765292  0.36098625  1.0
  Ni  Ni663  1  0.69431958  0.06098625  0.36098625  1.0
  Ni  Ni664  1  0.69431958  0.39431958  0.36098625  1.0
  Ni  Ni665  1  0.69431958  0.72765292  0.36098625  1.0
  Ni  Ni666  1  0.23219725  0.13674158  0.23219725  1.0
  Ni  Ni667  1  0.23219725  0.47007492  0.23219725  1.0
  Ni  Ni668  1  0.23219725  0.80340825  0.23219725  1.0
  Ni  Ni669  1  0.56553058  0.13674158  0.23219725  1.0
  Ni  Ni670  1  0.56553058  0.47007492  0.23219725  1.0
  Ni  Ni671  1  0.56553058  0.80340825  0.23219725  1.0
  Ni  Ni672  1  0.89886392  0.13674158  0.23219725  1.0
  Ni  Ni673  1  0.89886392  0.47007492  0.23219725  1.0
  Ni  Ni674  1  0.89886392  0.80340825  0.23219725  1.0
  Ni  Ni675  1  0.33219725  0.00340825  0.33219725  1.0
  Ni  Ni676  1  0.33219725  0.33674158  0.33219725  1.0
  Ni  Ni677  1  0.33219725  0.67007492  0.33219725  1.0
  Ni  Ni678  1  0.66553058  0.00340825  0.33219725  1.0
  Ni  Ni679  1  0.66553058  0.33674158  0.33219725  1.0
  Ni  Ni680  1  0.66553058  0.67007492  0.33219725  1.0
  Ni  Ni681  1  0.99886392  0.00340825  0.33219725  1.0
  Ni  Ni682  1  0.99886392  0.33674158  0.33219725  1.0
  Ni  Ni683  1  0.99886392  0.67007492  0.33219725  1.0
  Ni  Ni684  1  0.17512692  0.02260092  0.38977525  1.0
  Ni  Ni685  1  0.17512692  0.35593425  0.38977525  1.0
  Ni  Ni686  1  0.17512692  0.68926758  0.38977525  1.0
  Ni  Ni687  1  0.50846025  0.02260092  0.38977525  1.0
  Ni  Ni688  1  0.50846025  0.35593425  0.38977525  1.0
  Ni  Ni689  1  0.50846025  0.68926758  0.38977525  1.0
  Ni  Ni690  1  0.84179358  0.02260092  0.38977525  1.0
  Ni  Ni691  1  0.84179358  0.35593425  0.38977525  1.0
  Ni  Ni692  1  0.84179358  0.68926758  0.38977525  1.0
  Ni  Ni693  1  0.07512692  0.15593425  0.28977525  1.0
  Ni  Ni694  1  0.07512692  0.48926758  0.28977525  1.0
  Ni  Ni695  1  0.07512692  0.82260092  0.28977525  1.0
  Ni  Ni696  1  0.40846025  0.15593425  0.28977525  1.0
  Ni  Ni697  1  0.40846025  0.48926758  0.28977525  1.0
  Ni  Ni698  1  0.40846025  0.82260092  0.28977525  1.0
  Ni  Ni699  1  0.74179358  0.15593425  0.28977525  1.0
  Ni  Ni700  1  0.74179358  0.48926758  0.28977525  1.0
  Ni  Ni701  1  0.74179358  0.82260092  0.28977525  1.0
  Ni  Ni702  1  0.18472325  0.04179358  0.30340825  1.0
  Ni  Ni703  1  0.18472325  0.37512692  0.30340825  1.0
  Ni  Ni704  1  0.18472325  0.70846025  0.30340825  1.0
  Ni  Ni705  1  0.51805658  0.04179358  0.30340825  1.0
  Ni  Ni706  1  0.51805658  0.37512692  0.30340825  1.0
  Ni  Ni707  1  0.51805658  0.70846025  0.30340825  1.0
  Ni  Ni708  1  0.85138992  0.04179358  0.30340825  1.0
  Ni  Ni709  1  0.85138992  0.37512692  0.30340825  1.0
  Ni  Ni710  1  0.85138992  0.70846025  0.30340825  1.0
  Ni  Ni711  1  0.08472325  0.17512692  0.20340825  1.0
  Ni  Ni712  1  0.08472325  0.50846025  0.20340825  1.0
  Ni  Ni713  1  0.08472325  0.84179358  0.20340825  1.0
  Ni  Ni714  1  0.41805658  0.17512692  0.20340825  1.0
  Ni  Ni715  1  0.41805658  0.50846025  0.20340825  1.0
  Ni  Ni716  1  0.41805658  0.84179358  0.20340825  1.0
  Ni  Ni717  1  0.75138992  0.17512692  0.20340825  1.0
  Ni  Ni718  1  0.75138992  0.50846025  0.20340825  1.0
  Ni  Ni719  1  0.75138992  0.84179358  0.20340825  1.0
