# generated using pymatgen
data_In7Ni3
_symmetry_space_group_name_H-M   'P 1'
_cell_length_a   24.17292714
_cell_length_b   60.83386591
_cell_length_c   56.40349666
_cell_angle_alpha   131.47293431
_cell_angle_beta   109.47122063
_cell_angle_gamma   97.61137852
_symmetry_Int_Tables_number   1
_chemical_formula_structural   In7Ni3
_chemical_formula_sum   'In756 Ni324'
_cell_volume   50742.58867958
_cell_formula_units_Z   108
loop_
 _symmetry_equiv_pos_site_id
 _symmetry_equiv_pos_as_xyz
  1  'x, y, z'
loop_
 _atom_site_type_symbol
 _atom_site_label
 _atom_site_symmetry_multiplicity
 _atom_site_fract_x
 _atom_site_fract_y
 _atom_site_fract_z
 _atom_site_occupancy
  In  In0  1  0.25000000  0.04166667  0.07656946  1.0
  In  In1  1  0.25000000  0.37500000  0.07656946  1.0
  In  In2  1  0.25000000  0.70833333  0.07656946  1.0
  In  In3  1  0.58333333  0.04166667  0.07656946  1.0
  In  In4  1  0.58333333  0.37500000  0.07656946  1.0
  In  In5  1  0.58333333  0.70833333  0.07656946  1.0
  In  In6  1  0.91666667  0.04166667  0.07656946  1.0
  In  In7  1  0.91666667  0.37500000  0.07656946  1.0
  In  In8  1  0.91666667  0.70833333  0.07656946  1.0
  In  In9  1  0.25000000  0.20833333  0.00514089  1.0
  In  In10  1  0.25000000  0.54166667  0.00514089  1.0
  In  In11  1  0.25000000  0.87500000  0.00514089  1.0
  In  In12  1  0.58333333  0.20833333  0.00514089  1.0
  In  In13  1  0.58333333  0.54166667  0.00514089  1.0
  In  In14  1  0.58333333  0.87500000  0.00514089  1.0
  In  In15  1  0.91666667  0.20833333  0.00514089  1.0
  In  In16  1  0.91666667  0.54166667  0.00514089  1.0
  In  In17  1  0.91666667  0.87500000  0.00514089  1.0
  In  In18  1  0.08333333  0.12500000  0.11228375  1.0
  In  In19  1  0.08333333  0.45833333  0.11228375  1.0
  In  In20  1  0.08333333  0.79166667  0.11228375  1.0
  In  In21  1  0.41666667  0.12500000  0.11228375  1.0
  In  In22  1  0.41666667  0.45833333  0.11228375  1.0
  In  In23  1  0.41666667  0.79166667  0.11228375  1.0
  In  In24  1  0.75000000  0.12500000  0.11228375  1.0
  In  In25  1  0.75000000  0.45833333  0.11228375  1.0
  In  In26  1  0.75000000  0.79166667  0.11228375  1.0
  In  In27  1  0.08333333  0.29166667  0.04085518  1.0
  In  In28  1  0.08333333  0.62500000  0.04085518  1.0
  In  In29  1  0.08333333  0.95833333  0.04085518  1.0
  In  In30  1  0.41666667  0.29166667  0.04085518  1.0
  In  In31  1  0.41666667  0.62500000  0.04085518  1.0
  In  In32  1  0.41666667  0.95833333  0.04085518  1.0
  In  In33  1  0.75000000  0.29166667  0.04085518  1.0
  In  In34  1  0.75000000  0.62500000  0.04085518  1.0
  In  In35  1  0.75000000  0.95833333  0.04085518  1.0
  In  In36  1  0.08333333  0.08333333  0.13014089  1.0
  In  In37  1  0.08333333  0.41666667  0.13014089  1.0
  In  In38  1  0.08333333  0.75000000  0.13014089  1.0
  In  In39  1  0.41666667  0.08333333  0.13014089  1.0
  In  In40  1  0.41666667  0.41666667  0.13014089  1.0
  In  In41  1  0.41666667  0.75000000  0.13014089  1.0
  In  In42  1  0.75000000  0.08333333  0.13014089  1.0
  In  In43  1  0.75000000  0.41666667  0.13014089  1.0
  In  In44  1  0.75000000  0.75000000  0.13014089  1.0
  In  In45  1  0.08333333  0.25000000  0.05871232  1.0
  In  In46  1  0.08333333  0.58333333  0.05871232  1.0
  In  In47  1  0.08333333  0.91666667  0.05871232  1.0
  In  In48  1  0.41666667  0.25000000  0.05871232  1.0
  In  In49  1  0.41666667  0.58333333  0.05871232  1.0
  In  In50  1  0.41666667  0.91666667  0.05871232  1.0
  In  In51  1  0.75000000  0.25000000  0.05871232  1.0
  In  In52  1  0.75000000  0.58333333  0.05871232  1.0
  In  In53  1  0.75000000  0.91666667  0.05871232  1.0
  In  In54  1  0.25000000  0.08333333  0.05871232  1.0
  In  In55  1  0.25000000  0.41666667  0.05871232  1.0
  In  In56  1  0.25000000  0.75000000  0.05871232  1.0
  In  In57  1  0.58333333  0.08333333  0.05871232  1.0
  In  In58  1  0.58333333  0.41666667  0.05871232  1.0
  In  In59  1  0.58333333  0.75000000  0.05871232  1.0
  In  In60  1  0.91666667  0.08333333  0.05871232  1.0
  In  In61  1  0.91666667  0.41666667  0.05871232  1.0
  In  In62  1  0.91666667  0.75000000  0.05871232  1.0
  In  In63  1  0.25000000  0.25000000  0.13014089  1.0
  In  In64  1  0.25000000  0.58333333  0.13014089  1.0
  In  In65  1  0.25000000  0.91666667  0.13014089  1.0
  In  In66  1  0.58333333  0.25000000  0.13014089  1.0
  In  In67  1  0.58333333  0.58333333  0.13014089  1.0
  In  In68  1  0.58333333  0.91666667  0.13014089  1.0
  In  In69  1  0.91666667  0.25000000  0.13014089  1.0
  In  In70  1  0.91666667  0.58333333  0.13014089  1.0
  In  In71  1  0.91666667  0.91666667  0.13014089  1.0
  In  In72  1  0.16666667  0.12500000  0.07656946  1.0
  In  In73  1  0.16666667  0.45833333  0.07656946  1.0
  In  In74  1  0.16666667  0.79166667  0.07656946  1.0
  In  In75  1  0.50000000  0.12500000  0.07656946  1.0
  In  In76  1  0.50000000  0.45833333  0.07656946  1.0
  In  In77  1  0.50000000  0.79166667  0.07656946  1.0
  In  In78  1  0.83333333  0.12500000  0.07656946  1.0
  In  In79  1  0.83333333  0.45833333  0.07656946  1.0
  In  In80  1  0.83333333  0.79166667  0.07656946  1.0
  In  In81  1  0.16666667  0.29166667  0.00514089  1.0
  In  In82  1  0.16666667  0.62500000  0.00514089  1.0
  In  In83  1  0.16666667  0.95833333  0.00514089  1.0
  In  In84  1  0.50000000  0.29166667  0.00514089  1.0
  In  In85  1  0.50000000  0.62500000  0.00514089  1.0
  In  In86  1  0.50000000  0.95833333  0.00514089  1.0
  In  In87  1  0.83333333  0.29166667  0.00514089  1.0
  In  In88  1  0.83333333  0.62500000  0.00514089  1.0
  In  In89  1  0.83333333  0.95833333  0.00514089  1.0
  In  In90  1  0.16666667  0.04166667  0.11228375  1.0
  In  In91  1  0.16666667  0.37500000  0.11228375  1.0
  In  In92  1  0.16666667  0.70833333  0.11228375  1.0
  In  In93  1  0.50000000  0.04166667  0.11228375  1.0
  In  In94  1  0.50000000  0.37500000  0.11228375  1.0
  In  In95  1  0.50000000  0.70833333  0.11228375  1.0
  In  In96  1  0.83333333  0.04166667  0.11228375  1.0
  In  In97  1  0.83333333  0.37500000  0.11228375  1.0
  In  In98  1  0.83333333  0.70833333  0.11228375  1.0
  In  In99  1  0.16666667  0.20833333  0.04085518  1.0
  In  In100  1  0.16666667  0.54166667  0.04085518  1.0
  In  In101  1  0.16666667  0.87500000  0.04085518  1.0
  In  In102  1  0.50000000  0.20833333  0.04085518  1.0
  In  In103  1  0.50000000  0.54166667  0.04085518  1.0
  In  In104  1  0.50000000  0.87500000  0.04085518  1.0
  In  In105  1  0.83333333  0.20833333  0.04085518  1.0
  In  In106  1  0.83333333  0.54166667  0.04085518  1.0
  In  In107  1  0.83333333  0.87500000  0.04085518  1.0
  In  In108  1  0.22594433  0.11297217  0.13253368  1.0
  In  In109  1  0.22594433  0.44630550  0.13253368  1.0
  In  In110  1  0.22594433  0.77963883  0.13253368  1.0
  In  In111  1  0.55927767  0.11297217  0.13253368  1.0
  In  In112  1  0.55927767  0.44630550  0.13253368  1.0
  In  In113  1  0.55927767  0.77963883  0.13253368  1.0
  In  In114  1  0.89261100  0.11297217  0.13253368  1.0
  In  In115  1  0.89261100  0.44630550  0.13253368  1.0
  In  In116  1  0.89261100  0.77963883  0.13253368  1.0
  In  In117  1  0.22594433  0.27963883  0.06110511  1.0
  In  In118  1  0.22594433  0.61297217  0.06110511  1.0
  In  In119  1  0.22594433  0.94630550  0.06110511  1.0
  In  In120  1  0.55927767  0.27963883  0.06110511  1.0
  In  In121  1  0.55927767  0.61297217  0.06110511  1.0
  In  In122  1  0.55927767  0.94630550  0.06110511  1.0
  In  In123  1  0.89261100  0.27963883  0.06110511  1.0
  In  In124  1  0.89261100  0.61297217  0.06110511  1.0
  In  In125  1  0.89261100  0.94630550  0.06110511  1.0
  In  In126  1  0.10738900  0.05369450  0.05631954  1.0
  In  In127  1  0.10738900  0.38702783  0.05631954  1.0
  In  In128  1  0.10738900  0.72036117  0.05631954  1.0
  In  In129  1  0.44072233  0.05369450  0.05631954  1.0
  In  In130  1  0.44072233  0.38702783  0.05631954  1.0
  In  In131  1  0.44072233  0.72036117  0.05631954  1.0
  In  In132  1  0.77405567  0.05369450  0.05631954  1.0
  In  In133  1  0.77405567  0.38702783  0.05631954  1.0
  In  In134  1  0.77405567  0.72036117  0.05631954  1.0
  In  In135  1  0.10738900  0.22036117  0.12774811  1.0
  In  In136  1  0.10738900  0.55369450  0.12774811  1.0
  In  In137  1  0.10738900  0.88702783  0.12774811  1.0
  In  In138  1  0.44072233  0.22036117  0.12774811  1.0
  In  In139  1  0.44072233  0.55369450  0.12774811  1.0
  In  In140  1  0.44072233  0.88702783  0.12774811  1.0
  In  In141  1  0.77405567  0.22036117  0.12774811  1.0
  In  In142  1  0.77405567  0.55369450  0.12774811  1.0
  In  In143  1  0.77405567  0.88702783  0.12774811  1.0
  In  In144  1  0.10738900  0.16666667  0.05871232  1.0
  In  In145  1  0.10738900  0.50000000  0.05871232  1.0
  In  In146  1  0.10738900  0.83333333  0.05871232  1.0
  In  In147  1  0.44072233  0.16666667  0.05871232  1.0
  In  In148  1  0.44072233  0.50000000  0.05871232  1.0
  In  In149  1  0.44072233  0.83333333  0.05871232  1.0
  In  In150  1  0.77405567  0.16666667  0.05871232  1.0
  In  In151  1  0.77405567  0.50000000  0.05871232  1.0
  In  In152  1  0.77405567  0.83333333  0.05871232  1.0
  In  In153  1  0.10738900  0.00000000  0.13014089  1.0
  In  In154  1  0.10738900  0.33333333  0.13014089  1.0
  In  In155  1  0.10738900  0.66666667  0.13014089  1.0
  In  In156  1  0.44072233  0.00000000  0.13014089  1.0
  In  In157  1  0.44072233  0.33333333  0.13014089  1.0
  In  In158  1  0.44072233  0.66666667  0.13014089  1.0
  In  In159  1  0.77405567  0.00000000  0.13014089  1.0
  In  In160  1  0.77405567  0.33333333  0.13014089  1.0
  In  In161  1  0.77405567  0.66666667  0.13014089  1.0
  In  In162  1  0.00000000  0.05369450  0.01029568  1.0
  In  In163  1  0.00000000  0.38702783  0.01029568  1.0
  In  In164  1  0.00000000  0.72036117  0.01029568  1.0
  In  In165  1  0.33333333  0.05369450  0.01029568  1.0
  In  In166  1  0.33333333  0.38702783  0.01029568  1.0
  In  In167  1  0.33333333  0.72036117  0.01029568  1.0
  In  In168  1  0.66666667  0.05369450  0.01029568  1.0
  In  In169  1  0.66666667  0.38702783  0.01029568  1.0
  In  In170  1  0.66666667  0.72036117  0.01029568  1.0
  In  In171  1  0.00000000  0.22036117  0.08172425  1.0
  In  In172  1  0.00000000  0.55369450  0.08172425  1.0
  In  In173  1  0.00000000  0.88702783  0.08172425  1.0
  In  In174  1  0.33333333  0.22036117  0.08172425  1.0
  In  In175  1  0.33333333  0.55369450  0.08172425  1.0
  In  In176  1  0.33333333  0.88702783  0.08172425  1.0
  In  In177  1  0.66666667  0.22036117  0.08172425  1.0
  In  In178  1  0.66666667  0.55369450  0.08172425  1.0
  In  In179  1  0.66666667  0.88702783  0.08172425  1.0
  In  In180  1  0.22594433  0.16666667  0.05871232  1.0
  In  In181  1  0.22594433  0.50000000  0.05871232  1.0
  In  In182  1  0.22594433  0.83333333  0.05871232  1.0
  In  In183  1  0.55927767  0.16666667  0.05871232  1.0
  In  In184  1  0.55927767  0.50000000  0.05871232  1.0
  In  In185  1  0.55927767  0.83333333  0.05871232  1.0
  In  In186  1  0.89261100  0.16666667  0.05871232  1.0
  In  In187  1  0.89261100  0.50000000  0.05871232  1.0
  In  In188  1  0.89261100  0.83333333  0.05871232  1.0
  In  In189  1  0.22594433  0.00000000  0.13014089  1.0
  In  In190  1  0.22594433  0.33333333  0.13014089  1.0
  In  In191  1  0.22594433  0.66666667  0.13014089  1.0
  In  In192  1  0.55927767  0.00000000  0.13014089  1.0
  In  In193  1  0.55927767  0.33333333  0.13014089  1.0
  In  In194  1  0.55927767  0.66666667  0.13014089  1.0
  In  In195  1  0.89261100  0.00000000  0.13014089  1.0
  In  In196  1  0.89261100  0.33333333  0.13014089  1.0
  In  In197  1  0.89261100  0.66666667  0.13014089  1.0
  In  In198  1  0.00000000  0.11297217  0.03570039  1.0
  In  In199  1  0.00000000  0.44630550  0.03570039  1.0
  In  In200  1  0.00000000  0.77963883  0.03570039  1.0
  In  In201  1  0.33333333  0.11297217  0.03570039  1.0
  In  In202  1  0.33333333  0.44630550  0.03570039  1.0
  In  In203  1  0.33333333  0.77963883  0.03570039  1.0
  In  In204  1  0.66666667  0.11297217  0.03570039  1.0
  In  In205  1  0.66666667  0.44630550  0.03570039  1.0
  In  In206  1  0.66666667  0.77963883  0.03570039  1.0
  In  In207  1  0.00000000  0.27963883  0.10712896  1.0
  In  In208  1  0.00000000  0.61297217  0.10712896  1.0
  In  In209  1  0.00000000  0.94630550  0.10712896  1.0
  In  In210  1  0.33333333  0.27963883  0.10712896  1.0
  In  In211  1  0.33333333  0.61297217  0.10712896  1.0
  In  In212  1  0.33333333  0.94630550  0.10712896  1.0
  In  In213  1  0.66666667  0.27963883  0.10712896  1.0
  In  In214  1  0.66666667  0.61297217  0.10712896  1.0
  In  In215  1  0.66666667  0.94630550  0.10712896  1.0
  In  In216  1  0.00000000  0.16666667  0.10473618  1.0
  In  In217  1  0.00000000  0.50000000  0.10473618  1.0
  In  In218  1  0.00000000  0.83333333  0.10473618  1.0
  In  In219  1  0.33333333  0.16666667  0.10473618  1.0
  In  In220  1  0.33333333  0.50000000  0.10473618  1.0
  In  In221  1  0.33333333  0.83333333  0.10473618  1.0
  In  In222  1  0.66666667  0.16666667  0.10473618  1.0
  In  In223  1  0.66666667  0.50000000  0.10473618  1.0
  In  In224  1  0.66666667  0.83333333  0.10473618  1.0
  In  In225  1  0.00000000  0.00000000  0.03330761  1.0
  In  In226  1  0.00000000  0.33333333  0.03330761  1.0
  In  In227  1  0.00000000  0.66666667  0.03330761  1.0
  In  In228  1  0.33333333  0.00000000  0.03330761  1.0
  In  In229  1  0.33333333  0.33333333  0.03330761  1.0
  In  In230  1  0.33333333  0.66666667  0.03330761  1.0
  In  In231  1  0.66666667  0.00000000  0.03330761  1.0
  In  In232  1  0.66666667  0.33333333  0.03330761  1.0
  In  In233  1  0.66666667  0.66666667  0.03330761  1.0
  In  In234  1  0.00000000  0.16666667  0.01268846  1.0
  In  In235  1  0.00000000  0.50000000  0.01268846  1.0
  In  In236  1  0.00000000  0.83333333  0.01268846  1.0
  In  In237  1  0.33333333  0.16666667  0.01268846  1.0
  In  In238  1  0.33333333  0.50000000  0.01268846  1.0
  In  In239  1  0.33333333  0.83333333  0.01268846  1.0
  In  In240  1  0.66666667  0.16666667  0.01268846  1.0
  In  In241  1  0.66666667  0.50000000  0.01268846  1.0
  In  In242  1  0.66666667  0.83333333  0.01268846  1.0
  In  In243  1  0.00000000  0.00000000  0.08411704  1.0
  In  In244  1  0.00000000  0.33333333  0.08411704  1.0
  In  In245  1  0.00000000  0.66666667  0.08411704  1.0
  In  In246  1  0.33333333  0.00000000  0.08411704  1.0
  In  In247  1  0.33333333  0.33333333  0.08411704  1.0
  In  In248  1  0.33333333  0.66666667  0.08411704  1.0
  In  In249  1  0.66666667  0.00000000  0.08411704  1.0
  In  In250  1  0.66666667  0.33333333  0.08411704  1.0
  In  In251  1  0.66666667  0.66666667  0.08411704  1.0
  Ni  Ni252  1  0.21464833  0.10732417  0.03327982  1.0
  Ni  Ni253  1  0.21464833  0.44065750  0.03327982  1.0
  Ni  Ni254  1  0.21464833  0.77399083  0.03327982  1.0
  Ni  Ni255  1  0.54798167  0.10732417  0.03327982  1.0
  Ni  Ni256  1  0.54798167  0.44065750  0.03327982  1.0
  Ni  Ni257  1  0.54798167  0.77399083  0.03327982  1.0
  Ni  Ni258  1  0.88131500  0.10732417  0.03327982  1.0
  Ni  Ni259  1  0.88131500  0.44065750  0.03327982  1.0
  Ni  Ni260  1  0.88131500  0.77399083  0.03327982  1.0
  Ni  Ni261  1  0.21464833  0.27399083  0.10470839  1.0
  Ni  Ni262  1  0.21464833  0.60732417  0.10470839  1.0
  Ni  Ni263  1  0.21464833  0.94065750  0.10470839  1.0
  Ni  Ni264  1  0.54798167  0.27399083  0.10470839  1.0
  Ni  Ni265  1  0.54798167  0.60732417  0.10470839  1.0
  Ni  Ni266  1  0.54798167  0.94065750  0.10470839  1.0
  Ni  Ni267  1  0.88131500  0.27399083  0.10470839  1.0
  Ni  Ni268  1  0.88131500  0.60732417  0.10470839  1.0
  Ni  Ni269  1  0.88131500  0.94065750  0.10470839  1.0
  Ni  Ni270  1  0.11868500  0.05934250  0.01271625  1.0
  Ni  Ni271  1  0.11868500  0.39267583  0.01271625  1.0
  Ni  Ni272  1  0.11868500  0.72600917  0.01271625  1.0
  Ni  Ni273  1  0.45201833  0.05934250  0.01271625  1.0
  Ni  Ni274  1  0.45201833  0.39267583  0.01271625  1.0
  Ni  Ni275  1  0.45201833  0.72600917  0.01271625  1.0
  Ni  Ni276  1  0.78535167  0.05934250  0.01271625  1.0
  Ni  Ni277  1  0.78535167  0.39267583  0.01271625  1.0
  Ni  Ni278  1  0.78535167  0.72600917  0.01271625  1.0
  Ni  Ni279  1  0.11868500  0.22600917  0.08414482  1.0
  Ni  Ni280  1  0.11868500  0.55934250  0.08414482  1.0
  Ni  Ni281  1  0.11868500  0.89267583  0.08414482  1.0
  Ni  Ni282  1  0.45201833  0.22600917  0.08414482  1.0
  Ni  Ni283  1  0.45201833  0.55934250  0.08414482  1.0
  Ni  Ni284  1  0.45201833  0.89267583  0.08414482  1.0
  Ni  Ni285  1  0.78535167  0.22600917  0.08414482  1.0
  Ni  Ni286  1  0.78535167  0.55934250  0.08414482  1.0
  Ni  Ni287  1  0.78535167  0.89267583  0.08414482  1.0
  Ni  Ni288  1  0.21464833  0.16666667  0.00784732  1.0
  Ni  Ni289  1  0.21464833  0.50000000  0.00784732  1.0
  Ni  Ni290  1  0.21464833  0.83333333  0.00784732  1.0
  Ni  Ni291  1  0.54798167  0.16666667  0.00784732  1.0
  Ni  Ni292  1  0.54798167  0.50000000  0.00784732  1.0
  Ni  Ni293  1  0.54798167  0.83333333  0.00784732  1.0
  Ni  Ni294  1  0.88131500  0.16666667  0.00784732  1.0
  Ni  Ni295  1  0.88131500  0.50000000  0.00784732  1.0
  Ni  Ni296  1  0.88131500  0.83333333  0.00784732  1.0
  Ni  Ni297  1  0.21464833  0.00000000  0.07927589  1.0
  Ni  Ni298  1  0.21464833  0.33333333  0.07927589  1.0
  Ni  Ni299  1  0.21464833  0.66666667  0.07927589  1.0
  Ni  Ni300  1  0.54798167  0.00000000  0.07927589  1.0
  Ni  Ni301  1  0.54798167  0.33333333  0.07927589  1.0
  Ni  Ni302  1  0.54798167  0.66666667  0.07927589  1.0
  Ni  Ni303  1  0.88131500  0.00000000  0.07927589  1.0
  Ni  Ni304  1  0.88131500  0.33333333  0.07927589  1.0
  Ni  Ni305  1  0.88131500  0.66666667  0.07927589  1.0
  Ni  Ni306  1  0.11868500  0.16666667  0.10957732  1.0
  Ni  Ni307  1  0.11868500  0.50000000  0.10957732  1.0
  Ni  Ni308  1  0.11868500  0.83333333  0.10957732  1.0
  Ni  Ni309  1  0.45201833  0.16666667  0.10957732  1.0
  Ni  Ni310  1  0.45201833  0.50000000  0.10957732  1.0
  Ni  Ni311  1  0.45201833  0.83333333  0.10957732  1.0
  Ni  Ni312  1  0.78535167  0.16666667  0.10957732  1.0
  Ni  Ni313  1  0.78535167  0.50000000  0.10957732  1.0
  Ni  Ni314  1  0.78535167  0.83333333  0.10957732  1.0
  Ni  Ni315  1  0.11868500  0.00000000  0.03814875  1.0
  Ni  Ni316  1  0.11868500  0.33333333  0.03814875  1.0
  Ni  Ni317  1  0.11868500  0.66666667  0.03814875  1.0
  Ni  Ni318  1  0.45201833  0.00000000  0.03814875  1.0
  Ni  Ni319  1  0.45201833  0.33333333  0.03814875  1.0
  Ni  Ni320  1  0.45201833  0.66666667  0.03814875  1.0
  Ni  Ni321  1  0.78535167  0.00000000  0.03814875  1.0
  Ni  Ni322  1  0.78535167  0.33333333  0.03814875  1.0
  Ni  Ni323  1  0.78535167  0.66666667  0.03814875  1.0
  Ni  Ni324  1  0.00000000  0.10732417  0.12527196  1.0
  Ni  Ni325  1  0.00000000  0.44065750  0.12527196  1.0
  Ni  Ni326  1  0.00000000  0.77399083  0.12527196  1.0
  Ni  Ni327  1  0.33333333  0.10732417  0.12527196  1.0
  Ni  Ni328  1  0.33333333  0.44065750  0.12527196  1.0
  Ni  Ni329  1  0.33333333  0.77399083  0.12527196  1.0
  Ni  Ni330  1  0.66666667  0.10732417  0.12527196  1.0
  Ni  Ni331  1  0.66666667  0.44065750  0.12527196  1.0
  Ni  Ni332  1  0.66666667  0.77399083  0.12527196  1.0
  Ni  Ni333  1  0.00000000  0.27399083  0.05384339  1.0
  Ni  Ni334  1  0.00000000  0.60732417  0.05384339  1.0
  Ni  Ni335  1  0.00000000  0.94065750  0.05384339  1.0
  Ni  Ni336  1  0.33333333  0.27399083  0.05384339  1.0
  Ni  Ni337  1  0.33333333  0.60732417  0.05384339  1.0
  Ni  Ni338  1  0.33333333  0.94065750  0.05384339  1.0
  Ni  Ni339  1  0.66666667  0.27399083  0.05384339  1.0
  Ni  Ni340  1  0.66666667  0.60732417  0.05384339  1.0
  Ni  Ni341  1  0.66666667  0.94065750  0.05384339  1.0
  Ni  Ni342  1  0.00000000  0.05934250  0.06358125  1.0
  Ni  Ni343  1  0.00000000  0.39267583  0.06358125  1.0
  Ni  Ni344  1  0.00000000  0.72600917  0.06358125  1.0
  Ni  Ni345  1  0.33333333  0.05934250  0.06358125  1.0
  Ni  Ni346  1  0.33333333  0.39267583  0.06358125  1.0
  Ni  Ni347  1  0.33333333  0.72600917  0.06358125  1.0
  Ni  Ni348  1  0.66666667  0.05934250  0.06358125  1.0
  Ni  Ni349  1  0.66666667  0.39267583  0.06358125  1.0
  Ni  Ni350  1  0.66666667  0.72600917  0.06358125  1.0
  Ni  Ni351  1  0.00000000  0.22600917  0.13500982  1.0
  Ni  Ni352  1  0.00000000  0.55934250  0.13500982  1.0
  Ni  Ni353  1  0.00000000  0.89267583  0.13500982  1.0
  Ni  Ni354  1  0.33333333  0.22600917  0.13500982  1.0
  Ni  Ni355  1  0.33333333  0.55934250  0.13500982  1.0
  Ni  Ni356  1  0.33333333  0.89267583  0.13500982  1.0
  Ni  Ni357  1  0.66666667  0.22600917  0.13500982  1.0
  Ni  Ni358  1  0.66666667  0.55934250  0.13500982  1.0
  Ni  Ni359  1  0.66666667  0.89267583  0.13500982  1.0
  In  In360  1  0.25000000  0.04166667  0.21942661  1.0
  In  In361  1  0.25000000  0.37500000  0.21942661  1.0
  In  In362  1  0.25000000  0.70833333  0.21942661  1.0
  In  In363  1  0.58333333  0.04166667  0.21942661  1.0
  In  In364  1  0.58333333  0.37500000  0.21942661  1.0
  In  In365  1  0.58333333  0.70833333  0.21942661  1.0
  In  In366  1  0.91666667  0.04166667  0.21942661  1.0
  In  In367  1  0.91666667  0.37500000  0.21942661  1.0
  In  In368  1  0.91666667  0.70833333  0.21942661  1.0
  In  In369  1  0.25000000  0.20833333  0.14799804  1.0
  In  In370  1  0.25000000  0.54166667  0.14799804  1.0
  In  In371  1  0.25000000  0.87500000  0.14799804  1.0
  In  In372  1  0.58333333  0.20833333  0.14799804  1.0
  In  In373  1  0.58333333  0.54166667  0.14799804  1.0
  In  In374  1  0.58333333  0.87500000  0.14799804  1.0
  In  In375  1  0.91666667  0.20833333  0.14799804  1.0
  In  In376  1  0.91666667  0.54166667  0.14799804  1.0
  In  In377  1  0.91666667  0.87500000  0.14799804  1.0
  In  In378  1  0.08333333  0.12500000  0.25514089  1.0
  In  In379  1  0.08333333  0.45833333  0.25514089  1.0
  In  In380  1  0.08333333  0.79166667  0.25514089  1.0
  In  In381  1  0.41666667  0.12500000  0.25514089  1.0
  In  In382  1  0.41666667  0.45833333  0.25514089  1.0
  In  In383  1  0.41666667  0.79166667  0.25514089  1.0
  In  In384  1  0.75000000  0.12500000  0.25514089  1.0
  In  In385  1  0.75000000  0.45833333  0.25514089  1.0
  In  In386  1  0.75000000  0.79166667  0.25514089  1.0
  In  In387  1  0.08333333  0.29166667  0.18371232  1.0
  In  In388  1  0.08333333  0.62500000  0.18371232  1.0
  In  In389  1  0.08333333  0.95833333  0.18371232  1.0
  In  In390  1  0.41666667  0.29166667  0.18371232  1.0
  In  In391  1  0.41666667  0.62500000  0.18371232  1.0
  In  In392  1  0.41666667  0.95833333  0.18371232  1.0
  In  In393  1  0.75000000  0.29166667  0.18371232  1.0
  In  In394  1  0.75000000  0.62500000  0.18371232  1.0
  In  In395  1  0.75000000  0.95833333  0.18371232  1.0
  In  In396  1  0.08333333  0.08333333  0.27299804  1.0
  In  In397  1  0.08333333  0.41666667  0.27299804  1.0
  In  In398  1  0.08333333  0.75000000  0.27299804  1.0
  In  In399  1  0.41666667  0.08333333  0.27299804  1.0
  In  In400  1  0.41666667  0.41666667  0.27299804  1.0
  In  In401  1  0.41666667  0.75000000  0.27299804  1.0
  In  In402  1  0.75000000  0.08333333  0.27299804  1.0
  In  In403  1  0.75000000  0.41666667  0.27299804  1.0
  In  In404  1  0.75000000  0.75000000  0.27299804  1.0
  In  In405  1  0.08333333  0.25000000  0.20156946  1.0
  In  In406  1  0.08333333  0.58333333  0.20156946  1.0
  In  In407  1  0.08333333  0.91666667  0.20156946  1.0
  In  In408  1  0.41666667  0.25000000  0.20156946  1.0
  In  In409  1  0.41666667  0.58333333  0.20156946  1.0
  In  In410  1  0.41666667  0.91666667  0.20156946  1.0
  In  In411  1  0.75000000  0.25000000  0.20156946  1.0
  In  In412  1  0.75000000  0.58333333  0.20156946  1.0
  In  In413  1  0.75000000  0.91666667  0.20156946  1.0
  In  In414  1  0.25000000  0.08333333  0.20156946  1.0
  In  In415  1  0.25000000  0.41666667  0.20156946  1.0
  In  In416  1  0.25000000  0.75000000  0.20156946  1.0
  In  In417  1  0.58333333  0.08333333  0.20156946  1.0
  In  In418  1  0.58333333  0.41666667  0.20156946  1.0
  In  In419  1  0.58333333  0.75000000  0.20156946  1.0
  In  In420  1  0.91666667  0.08333333  0.20156946  1.0
  In  In421  1  0.91666667  0.41666667  0.20156946  1.0
  In  In422  1  0.91666667  0.75000000  0.20156946  1.0
  In  In423  1  0.25000000  0.25000000  0.27299804  1.0
  In  In424  1  0.25000000  0.58333333  0.27299804  1.0
  In  In425  1  0.25000000  0.91666667  0.27299804  1.0
  In  In426  1  0.58333333  0.25000000  0.27299804  1.0
  In  In427  1  0.58333333  0.58333333  0.27299804  1.0
  In  In428  1  0.58333333  0.91666667  0.27299804  1.0
  In  In429  1  0.91666667  0.25000000  0.27299804  1.0
  In  In430  1  0.91666667  0.58333333  0.27299804  1.0
  In  In431  1  0.91666667  0.91666667  0.27299804  1.0
  In  In432  1  0.16666667  0.12500000  0.21942661  1.0
  In  In433  1  0.16666667  0.45833333  0.21942661  1.0
  In  In434  1  0.16666667  0.79166667  0.21942661  1.0
  In  In435  1  0.50000000  0.12500000  0.21942661  1.0
  In  In436  1  0.50000000  0.45833333  0.21942661  1.0
  In  In437  1  0.50000000  0.79166667  0.21942661  1.0
  In  In438  1  0.83333333  0.12500000  0.21942661  1.0
  In  In439  1  0.83333333  0.45833333  0.21942661  1.0
  In  In440  1  0.83333333  0.79166667  0.21942661  1.0
  In  In441  1  0.16666667  0.29166667  0.14799804  1.0
  In  In442  1  0.16666667  0.62500000  0.14799804  1.0
  In  In443  1  0.16666667  0.95833333  0.14799804  1.0
  In  In444  1  0.50000000  0.29166667  0.14799804  1.0
  In  In445  1  0.50000000  0.62500000  0.14799804  1.0
  In  In446  1  0.50000000  0.95833333  0.14799804  1.0
  In  In447  1  0.83333333  0.29166667  0.14799804  1.0
  In  In448  1  0.83333333  0.62500000  0.14799804  1.0
  In  In449  1  0.83333333  0.95833333  0.14799804  1.0
  In  In450  1  0.16666667  0.04166667  0.25514089  1.0
  In  In451  1  0.16666667  0.37500000  0.25514089  1.0
  In  In452  1  0.16666667  0.70833333  0.25514089  1.0
  In  In453  1  0.50000000  0.04166667  0.25514089  1.0
  In  In454  1  0.50000000  0.37500000  0.25514089  1.0
  In  In455  1  0.50000000  0.70833333  0.25514089  1.0
  In  In456  1  0.83333333  0.04166667  0.25514089  1.0
  In  In457  1  0.83333333  0.37500000  0.25514089  1.0
  In  In458  1  0.83333333  0.70833333  0.25514089  1.0
  In  In459  1  0.16666667  0.20833333  0.18371232  1.0
  In  In460  1  0.16666667  0.54166667  0.18371232  1.0
  In  In461  1  0.16666667  0.87500000  0.18371232  1.0
  In  In462  1  0.50000000  0.20833333  0.18371232  1.0
  In  In463  1  0.50000000  0.54166667  0.18371232  1.0
  In  In464  1  0.50000000  0.87500000  0.18371232  1.0
  In  In465  1  0.83333333  0.20833333  0.18371232  1.0
  In  In466  1  0.83333333  0.54166667  0.18371232  1.0
  In  In467  1  0.83333333  0.87500000  0.18371232  1.0
  In  In468  1  0.22594433  0.11297217  0.27539082  1.0
  In  In469  1  0.22594433  0.44630550  0.27539082  1.0
  In  In470  1  0.22594433  0.77963883  0.27539082  1.0
  In  In471  1  0.55927767  0.11297217  0.27539082  1.0
  In  In472  1  0.55927767  0.44630550  0.27539082  1.0
  In  In473  1  0.55927767  0.77963883  0.27539082  1.0
  In  In474  1  0.89261100  0.11297217  0.27539082  1.0
  In  In475  1  0.89261100  0.44630550  0.27539082  1.0
  In  In476  1  0.89261100  0.77963883  0.27539082  1.0
  In  In477  1  0.22594433  0.27963883  0.20396225  1.0
  In  In478  1  0.22594433  0.61297217  0.20396225  1.0
  In  In479  1  0.22594433  0.94630550  0.20396225  1.0
  In  In480  1  0.55927767  0.27963883  0.20396225  1.0
  In  In481  1  0.55927767  0.61297217  0.20396225  1.0
  In  In482  1  0.55927767  0.94630550  0.20396225  1.0
  In  In483  1  0.89261100  0.27963883  0.20396225  1.0
  In  In484  1  0.89261100  0.61297217  0.20396225  1.0
  In  In485  1  0.89261100  0.94630550  0.20396225  1.0
  In  In486  1  0.10738900  0.05369450  0.19917668  1.0
  In  In487  1  0.10738900  0.38702783  0.19917668  1.0
  In  In488  1  0.10738900  0.72036117  0.19917668  1.0
  In  In489  1  0.44072233  0.05369450  0.19917668  1.0
  In  In490  1  0.44072233  0.38702783  0.19917668  1.0
  In  In491  1  0.44072233  0.72036117  0.19917668  1.0
  In  In492  1  0.77405567  0.05369450  0.19917668  1.0
  In  In493  1  0.77405567  0.38702783  0.19917668  1.0
  In  In494  1  0.77405567  0.72036117  0.19917668  1.0
  In  In495  1  0.10738900  0.22036117  0.27060525  1.0
  In  In496  1  0.10738900  0.55369450  0.27060525  1.0
  In  In497  1  0.10738900  0.88702783  0.27060525  1.0
  In  In498  1  0.44072233  0.22036117  0.27060525  1.0
  In  In499  1  0.44072233  0.55369450  0.27060525  1.0
  In  In500  1  0.44072233  0.88702783  0.27060525  1.0
  In  In501  1  0.77405567  0.22036117  0.27060525  1.0
  In  In502  1  0.77405567  0.55369450  0.27060525  1.0
  In  In503  1  0.77405567  0.88702783  0.27060525  1.0
  In  In504  1  0.10738900  0.16666667  0.20156946  1.0
  In  In505  1  0.10738900  0.50000000  0.20156946  1.0
  In  In506  1  0.10738900  0.83333333  0.20156946  1.0
  In  In507  1  0.44072233  0.16666667  0.20156946  1.0
  In  In508  1  0.44072233  0.50000000  0.20156946  1.0
  In  In509  1  0.44072233  0.83333333  0.20156946  1.0
  In  In510  1  0.77405567  0.16666667  0.20156946  1.0
  In  In511  1  0.77405567  0.50000000  0.20156946  1.0
  In  In512  1  0.77405567  0.83333333  0.20156946  1.0
  In  In513  1  0.10738900  0.00000000  0.27299804  1.0
  In  In514  1  0.10738900  0.33333333  0.27299804  1.0
  In  In515  1  0.10738900  0.66666667  0.27299804  1.0
  In  In516  1  0.44072233  0.00000000  0.27299804  1.0
  In  In517  1  0.44072233  0.33333333  0.27299804  1.0
  In  In518  1  0.44072233  0.66666667  0.27299804  1.0
  In  In519  1  0.77405567  0.00000000  0.27299804  1.0
  In  In520  1  0.77405567  0.33333333  0.27299804  1.0
  In  In521  1  0.77405567  0.66666667  0.27299804  1.0
  In  In522  1  0.00000000  0.05369450  0.15315282  1.0
  In  In523  1  0.00000000  0.38702783  0.15315282  1.0
  In  In524  1  0.00000000  0.72036117  0.15315282  1.0
  In  In525  1  0.33333333  0.05369450  0.15315282  1.0
  In  In526  1  0.33333333  0.38702783  0.15315282  1.0
  In  In527  1  0.33333333  0.72036117  0.15315282  1.0
  In  In528  1  0.66666667  0.05369450  0.15315282  1.0
  In  In529  1  0.66666667  0.38702783  0.15315282  1.0
  In  In530  1  0.66666667  0.72036117  0.15315282  1.0
  In  In531  1  0.00000000  0.22036117  0.22458139  1.0
  In  In532  1  0.00000000  0.55369450  0.22458139  1.0
  In  In533  1  0.00000000  0.88702783  0.22458139  1.0
  In  In534  1  0.33333333  0.22036117  0.22458139  1.0
  In  In535  1  0.33333333  0.55369450  0.22458139  1.0
  In  In536  1  0.33333333  0.88702783  0.22458139  1.0
  In  In537  1  0.66666667  0.22036117  0.22458139  1.0
  In  In538  1  0.66666667  0.55369450  0.22458139  1.0
  In  In539  1  0.66666667  0.88702783  0.22458139  1.0
  In  In540  1  0.22594433  0.16666667  0.20156946  1.0
  In  In541  1  0.22594433  0.50000000  0.20156946  1.0
  In  In542  1  0.22594433  0.83333333  0.20156946  1.0
  In  In543  1  0.55927767  0.16666667  0.20156946  1.0
  In  In544  1  0.55927767  0.50000000  0.20156946  1.0
  In  In545  1  0.55927767  0.83333333  0.20156946  1.0
  In  In546  1  0.89261100  0.16666667  0.20156946  1.0
  In  In547  1  0.89261100  0.50000000  0.20156946  1.0
  In  In548  1  0.89261100  0.83333333  0.20156946  1.0
  In  In549  1  0.22594433  0.00000000  0.27299804  1.0
  In  In550  1  0.22594433  0.33333333  0.27299804  1.0
  In  In551  1  0.22594433  0.66666667  0.27299804  1.0
  In  In552  1  0.55927767  0.00000000  0.27299804  1.0
  In  In553  1  0.55927767  0.33333333  0.27299804  1.0
  In  In554  1  0.55927767  0.66666667  0.27299804  1.0
  In  In555  1  0.89261100  0.00000000  0.27299804  1.0
  In  In556  1  0.89261100  0.33333333  0.27299804  1.0
  In  In557  1  0.89261100  0.66666667  0.27299804  1.0
  In  In558  1  0.00000000  0.11297217  0.17855754  1.0
  In  In559  1  0.00000000  0.44630550  0.17855754  1.0
  In  In560  1  0.00000000  0.77963883  0.17855754  1.0
  In  In561  1  0.33333333  0.11297217  0.17855754  1.0
  In  In562  1  0.33333333  0.44630550  0.17855754  1.0
  In  In563  1  0.33333333  0.77963883  0.17855754  1.0
  In  In564  1  0.66666667  0.11297217  0.17855754  1.0
  In  In565  1  0.66666667  0.44630550  0.17855754  1.0
  In  In566  1  0.66666667  0.77963883  0.17855754  1.0
  In  In567  1  0.00000000  0.27963883  0.24998611  1.0
  In  In568  1  0.00000000  0.61297217  0.24998611  1.0
  In  In569  1  0.00000000  0.94630550  0.24998611  1.0
  In  In570  1  0.33333333  0.27963883  0.24998611  1.0
  In  In571  1  0.33333333  0.61297217  0.24998611  1.0
  In  In572  1  0.33333333  0.94630550  0.24998611  1.0
  In  In573  1  0.66666667  0.27963883  0.24998611  1.0
  In  In574  1  0.66666667  0.61297217  0.24998611  1.0
  In  In575  1  0.66666667  0.94630550  0.24998611  1.0
  In  In576  1  0.00000000  0.16666667  0.24759332  1.0
  In  In577  1  0.00000000  0.50000000  0.24759332  1.0
  In  In578  1  0.00000000  0.83333333  0.24759332  1.0
  In  In579  1  0.33333333  0.16666667  0.24759332  1.0
  In  In580  1  0.33333333  0.50000000  0.24759332  1.0
  In  In581  1  0.33333333  0.83333333  0.24759332  1.0
  In  In582  1  0.66666667  0.16666667  0.24759332  1.0
  In  In583  1  0.66666667  0.50000000  0.24759332  1.0
  In  In584  1  0.66666667  0.83333333  0.24759332  1.0
  In  In585  1  0.00000000  0.00000000  0.17616475  1.0
  In  In586  1  0.00000000  0.33333333  0.17616475  1.0
  In  In587  1  0.00000000  0.66666667  0.17616475  1.0
  In  In588  1  0.33333333  0.00000000  0.17616475  1.0
  In  In589  1  0.33333333  0.33333333  0.17616475  1.0
  In  In590  1  0.33333333  0.66666667  0.17616475  1.0
  In  In591  1  0.66666667  0.00000000  0.17616475  1.0
  In  In592  1  0.66666667  0.33333333  0.17616475  1.0
  In  In593  1  0.66666667  0.66666667  0.17616475  1.0
  In  In594  1  0.00000000  0.16666667  0.15554561  1.0
  In  In595  1  0.00000000  0.50000000  0.15554561  1.0
  In  In596  1  0.00000000  0.83333333  0.15554561  1.0
  In  In597  1  0.33333333  0.16666667  0.15554561  1.0
  In  In598  1  0.33333333  0.50000000  0.15554561  1.0
  In  In599  1  0.33333333  0.83333333  0.15554561  1.0
  In  In600  1  0.66666667  0.16666667  0.15554561  1.0
  In  In601  1  0.66666667  0.50000000  0.15554561  1.0
  In  In602  1  0.66666667  0.83333333  0.15554561  1.0
  In  In603  1  0.00000000  0.00000000  0.22697418  1.0
  In  In604  1  0.00000000  0.33333333  0.22697418  1.0
  In  In605  1  0.00000000  0.66666667  0.22697418  1.0
  In  In606  1  0.33333333  0.00000000  0.22697418  1.0
  In  In607  1  0.33333333  0.33333333  0.22697418  1.0
  In  In608  1  0.33333333  0.66666667  0.22697418  1.0
  In  In609  1  0.66666667  0.00000000  0.22697418  1.0
  In  In610  1  0.66666667  0.33333333  0.22697418  1.0
  In  In611  1  0.66666667  0.66666667  0.22697418  1.0
  Ni  Ni612  1  0.21464833  0.10732417  0.17613696  1.0
  Ni  Ni613  1  0.21464833  0.44065750  0.17613696  1.0
  Ni  Ni614  1  0.21464833  0.77399083  0.17613696  1.0
  Ni  Ni615  1  0.54798167  0.10732417  0.17613696  1.0
  Ni  Ni616  1  0.54798167  0.44065750  0.17613696  1.0
  Ni  Ni617  1  0.54798167  0.77399083  0.17613696  1.0
  Ni  Ni618  1  0.88131500  0.10732417  0.17613696  1.0
  Ni  Ni619  1  0.88131500  0.44065750  0.17613696  1.0
  Ni  Ni620  1  0.88131500  0.77399083  0.17613696  1.0
  Ni  Ni621  1  0.21464833  0.27399083  0.24756554  1.0
  Ni  Ni622  1  0.21464833  0.60732417  0.24756554  1.0
  Ni  Ni623  1  0.21464833  0.94065750  0.24756554  1.0
  Ni  Ni624  1  0.54798167  0.27399083  0.24756554  1.0
  Ni  Ni625  1  0.54798167  0.60732417  0.24756554  1.0
  Ni  Ni626  1  0.54798167  0.94065750  0.24756554  1.0
  Ni  Ni627  1  0.88131500  0.27399083  0.24756554  1.0
  Ni  Ni628  1  0.88131500  0.60732417  0.24756554  1.0
  Ni  Ni629  1  0.88131500  0.94065750  0.24756554  1.0
  Ni  Ni630  1  0.11868500  0.05934250  0.15557339  1.0
  Ni  Ni631  1  0.11868500  0.39267583  0.15557339  1.0
  Ni  Ni632  1  0.11868500  0.72600917  0.15557339  1.0
  Ni  Ni633  1  0.45201833  0.05934250  0.15557339  1.0
  Ni  Ni634  1  0.45201833  0.39267583  0.15557339  1.0
  Ni  Ni635  1  0.45201833  0.72600917  0.15557339  1.0
  Ni  Ni636  1  0.78535167  0.05934250  0.15557339  1.0
  Ni  Ni637  1  0.78535167  0.39267583  0.15557339  1.0
  Ni  Ni638  1  0.78535167  0.72600917  0.15557339  1.0
  Ni  Ni639  1  0.11868500  0.22600917  0.22700196  1.0
  Ni  Ni640  1  0.11868500  0.55934250  0.22700196  1.0
  Ni  Ni641  1  0.11868500  0.89267583  0.22700196  1.0
  Ni  Ni642  1  0.45201833  0.22600917  0.22700196  1.0
  Ni  Ni643  1  0.45201833  0.55934250  0.22700196  1.0
  Ni  Ni644  1  0.45201833  0.89267583  0.22700196  1.0
  Ni  Ni645  1  0.78535167  0.22600917  0.22700196  1.0
  Ni  Ni646  1  0.78535167  0.55934250  0.22700196  1.0
  Ni  Ni647  1  0.78535167  0.89267583  0.22700196  1.0
  Ni  Ni648  1  0.21464833  0.16666667  0.15070446  1.0
  Ni  Ni649  1  0.21464833  0.50000000  0.15070446  1.0
  Ni  Ni650  1  0.21464833  0.83333333  0.15070446  1.0
  Ni  Ni651  1  0.54798167  0.16666667  0.15070446  1.0
  Ni  Ni652  1  0.54798167  0.50000000  0.15070446  1.0
  Ni  Ni653  1  0.54798167  0.83333333  0.15070446  1.0
  Ni  Ni654  1  0.88131500  0.16666667  0.15070446  1.0
  Ni  Ni655  1  0.88131500  0.50000000  0.15070446  1.0
  Ni  Ni656  1  0.88131500  0.83333333  0.15070446  1.0
  Ni  Ni657  1  0.21464833  0.00000000  0.22213304  1.0
  Ni  Ni658  1  0.21464833  0.33333333  0.22213304  1.0
  Ni  Ni659  1  0.21464833  0.66666667  0.22213304  1.0
  Ni  Ni660  1  0.54798167  0.00000000  0.22213304  1.0
  Ni  Ni661  1  0.54798167  0.33333333  0.22213304  1.0
  Ni  Ni662  1  0.54798167  0.66666667  0.22213304  1.0
  Ni  Ni663  1  0.88131500  0.00000000  0.22213304  1.0
  Ni  Ni664  1  0.88131500  0.33333333  0.22213304  1.0
  Ni  Ni665  1  0.88131500  0.66666667  0.22213304  1.0
  Ni  Ni666  1  0.11868500  0.16666667  0.25243446  1.0
  Ni  Ni667  1  0.11868500  0.50000000  0.25243446  1.0
  Ni  Ni668  1  0.11868500  0.83333333  0.25243446  1.0
  Ni  Ni669  1  0.45201833  0.16666667  0.25243446  1.0
  Ni  Ni670  1  0.45201833  0.50000000  0.25243446  1.0
  Ni  Ni671  1  0.45201833  0.83333333  0.25243446  1.0
  Ni  Ni672  1  0.78535167  0.16666667  0.25243446  1.0
  Ni  Ni673  1  0.78535167  0.50000000  0.25243446  1.0
  Ni  Ni674  1  0.78535167  0.83333333  0.25243446  1.0
  Ni  Ni675  1  0.11868500  0.00000000  0.18100589  1.0
  Ni  Ni676  1  0.11868500  0.33333333  0.18100589  1.0
  Ni  Ni677  1  0.11868500  0.66666667  0.18100589  1.0
  Ni  Ni678  1  0.45201833  0.00000000  0.18100589  1.0
  Ni  Ni679  1  0.45201833  0.33333333  0.18100589  1.0
  Ni  Ni680  1  0.45201833  0.66666667  0.18100589  1.0
  Ni  Ni681  1  0.78535167  0.00000000  0.18100589  1.0
  Ni  Ni682  1  0.78535167  0.33333333  0.18100589  1.0
  Ni  Ni683  1  0.78535167  0.66666667  0.18100589  1.0
  Ni  Ni684  1  0.00000000  0.10732417  0.26812911  1.0
  Ni  Ni685  1  0.00000000  0.44065750  0.26812911  1.0
  Ni  Ni686  1  0.00000000  0.77399083  0.26812911  1.0
  Ni  Ni687  1  0.33333333  0.10732417  0.26812911  1.0
  Ni  Ni688  1  0.33333333  0.44065750  0.26812911  1.0
  Ni  Ni689  1  0.33333333  0.77399083  0.26812911  1.0
  Ni  Ni690  1  0.66666667  0.10732417  0.26812911  1.0
  Ni  Ni691  1  0.66666667  0.44065750  0.26812911  1.0
  Ni  Ni692  1  0.66666667  0.77399083  0.26812911  1.0
  Ni  Ni693  1  0.00000000  0.27399083  0.19670054  1.0
  Ni  Ni694  1  0.00000000  0.60732417  0.19670054  1.0
  Ni  Ni695  1  0.00000000  0.94065750  0.19670054  1.0
  Ni  Ni696  1  0.33333333  0.27399083  0.19670054  1.0
  Ni  Ni697  1  0.33333333  0.60732417  0.19670054  1.0
  Ni  Ni698  1  0.33333333  0.94065750  0.19670054  1.0
  Ni  Ni699  1  0.66666667  0.27399083  0.19670054  1.0
  Ni  Ni700  1  0.66666667  0.60732417  0.19670054  1.0
  Ni  Ni701  1  0.66666667  0.94065750  0.19670054  1.0
  Ni  Ni702  1  0.00000000  0.05934250  0.20643839  1.0
  Ni  Ni703  1  0.00000000  0.39267583  0.20643839  1.0
  Ni  Ni704  1  0.00000000  0.72600917  0.20643839  1.0
  Ni  Ni705  1  0.33333333  0.05934250  0.20643839  1.0
  Ni  Ni706  1  0.33333333  0.39267583  0.20643839  1.0
  Ni  Ni707  1  0.33333333  0.72600917  0.20643839  1.0
  Ni  Ni708  1  0.66666667  0.05934250  0.20643839  1.0
  Ni  Ni709  1  0.66666667  0.39267583  0.20643839  1.0
  Ni  Ni710  1  0.66666667  0.72600917  0.20643839  1.0
  Ni  Ni711  1  0.00000000  0.22600917  0.27786696  1.0
  Ni  Ni712  1  0.00000000  0.55934250  0.27786696  1.0
  Ni  Ni713  1  0.00000000  0.89267583  0.27786696  1.0
  Ni  Ni714  1  0.33333333  0.22600917  0.27786696  1.0
  Ni  Ni715  1  0.33333333  0.55934250  0.27786696  1.0
  Ni  Ni716  1  0.33333333  0.89267583  0.27786696  1.0
  Ni  Ni717  1  0.66666667  0.22600917  0.27786696  1.0
  Ni  Ni718  1  0.66666667  0.55934250  0.27786696  1.0
  Ni  Ni719  1  0.66666667  0.89267583  0.27786696  1.0
  In  In720  1  0.25000000  0.04166667  0.36228375  1.0
  In  In721  1  0.25000000  0.37500000  0.36228375  1.0
  In  In722  1  0.25000000  0.70833333  0.36228375  1.0
  In  In723  1  0.58333333  0.04166667  0.36228375  1.0
  In  In724  1  0.58333333  0.37500000  0.36228375  1.0
  In  In725  1  0.58333333  0.70833333  0.36228375  1.0
  In  In726  1  0.91666667  0.04166667  0.36228375  1.0
  In  In727  1  0.91666667  0.37500000  0.36228375  1.0
  In  In728  1  0.91666667  0.70833333  0.36228375  1.0
  In  In729  1  0.25000000  0.20833333  0.29085518  1.0
  In  In730  1  0.25000000  0.54166667  0.29085518  1.0
  In  In731  1  0.25000000  0.87500000  0.29085518  1.0
  In  In732  1  0.58333333  0.20833333  0.29085518  1.0
  In  In733  1  0.58333333  0.54166667  0.29085518  1.0
  In  In734  1  0.58333333  0.87500000  0.29085518  1.0
  In  In735  1  0.91666667  0.20833333  0.29085518  1.0
  In  In736  1  0.91666667  0.54166667  0.29085518  1.0
  In  In737  1  0.91666667  0.87500000  0.29085518  1.0
  In  In738  1  0.08333333  0.12500000  0.39799804  1.0
  In  In739  1  0.08333333  0.45833333  0.39799804  1.0
  In  In740  1  0.08333333  0.79166667  0.39799804  1.0
  In  In741  1  0.41666667  0.12500000  0.39799804  1.0
  In  In742  1  0.41666667  0.45833333  0.39799804  1.0
  In  In743  1  0.41666667  0.79166667  0.39799804  1.0
  In  In744  1  0.75000000  0.12500000  0.39799804  1.0
  In  In745  1  0.75000000  0.45833333  0.39799804  1.0
  In  In746  1  0.75000000  0.79166667  0.39799804  1.0
  In  In747  1  0.08333333  0.29166667  0.32656946  1.0
  In  In748  1  0.08333333  0.62500000  0.32656946  1.0
  In  In749  1  0.08333333  0.95833333  0.32656946  1.0
  In  In750  1  0.41666667  0.29166667  0.32656946  1.0
  In  In751  1  0.41666667  0.62500000  0.32656946  1.0
  In  In752  1  0.41666667  0.95833333  0.32656946  1.0
  In  In753  1  0.75000000  0.29166667  0.32656946  1.0
  In  In754  1  0.75000000  0.62500000  0.32656946  1.0
  In  In755  1  0.75000000  0.95833333  0.32656946  1.0
  In  In756  1  0.08333333  0.08333333  0.41585518  1.0
  In  In757  1  0.08333333  0.41666667  0.41585518  1.0
  In  In758  1  0.08333333  0.75000000  0.41585518  1.0
  In  In759  1  0.41666667  0.08333333  0.41585518  1.0
  In  In760  1  0.41666667  0.41666667  0.41585518  1.0
  In  In761  1  0.41666667  0.75000000  0.41585518  1.0
  In  In762  1  0.75000000  0.08333333  0.41585518  1.0
  In  In763  1  0.75000000  0.41666667  0.41585518  1.0
  In  In764  1  0.75000000  0.75000000  0.41585518  1.0
  In  In765  1  0.08333333  0.25000000  0.34442661  1.0
  In  In766  1  0.08333333  0.58333333  0.34442661  1.0
  In  In767  1  0.08333333  0.91666667  0.34442661  1.0
  In  In768  1  0.41666667  0.25000000  0.34442661  1.0
  In  In769  1  0.41666667  0.58333333  0.34442661  1.0
  In  In770  1  0.41666667  0.91666667  0.34442661  1.0
  In  In771  1  0.75000000  0.25000000  0.34442661  1.0
  In  In772  1  0.75000000  0.58333333  0.34442661  1.0
  In  In773  1  0.75000000  0.91666667  0.34442661  1.0
  In  In774  1  0.25000000  0.08333333  0.34442661  1.0
  In  In775  1  0.25000000  0.41666667  0.34442661  1.0
  In  In776  1  0.25000000  0.75000000  0.34442661  1.0
  In  In777  1  0.58333333  0.08333333  0.34442661  1.0
  In  In778  1  0.58333333  0.41666667  0.34442661  1.0
  In  In779  1  0.58333333  0.75000000  0.34442661  1.0
  In  In780  1  0.91666667  0.08333333  0.34442661  1.0
  In  In781  1  0.91666667  0.41666667  0.34442661  1.0
  In  In782  1  0.91666667  0.75000000  0.34442661  1.0
  In  In783  1  0.25000000  0.25000000  0.41585518  1.0
  In  In784  1  0.25000000  0.58333333  0.41585518  1.0
  In  In785  1  0.25000000  0.91666667  0.41585518  1.0
  In  In786  1  0.58333333  0.25000000  0.41585518  1.0
  In  In787  1  0.58333333  0.58333333  0.41585518  1.0
  In  In788  1  0.58333333  0.91666667  0.41585518  1.0
  In  In789  1  0.91666667  0.25000000  0.41585518  1.0
  In  In790  1  0.91666667  0.58333333  0.41585518  1.0
  In  In791  1  0.91666667  0.91666667  0.41585518  1.0
  In  In792  1  0.16666667  0.12500000  0.36228375  1.0
  In  In793  1  0.16666667  0.45833333  0.36228375  1.0
  In  In794  1  0.16666667  0.79166667  0.36228375  1.0
  In  In795  1  0.50000000  0.12500000  0.36228375  1.0
  In  In796  1  0.50000000  0.45833333  0.36228375  1.0
  In  In797  1  0.50000000  0.79166667  0.36228375  1.0
  In  In798  1  0.83333333  0.12500000  0.36228375  1.0
  In  In799  1  0.83333333  0.45833333  0.36228375  1.0
  In  In800  1  0.83333333  0.79166667  0.36228375  1.0
  In  In801  1  0.16666667  0.29166667  0.29085518  1.0
  In  In802  1  0.16666667  0.62500000  0.29085518  1.0
  In  In803  1  0.16666667  0.95833333  0.29085518  1.0
  In  In804  1  0.50000000  0.29166667  0.29085518  1.0
  In  In805  1  0.50000000  0.62500000  0.29085518  1.0
  In  In806  1  0.50000000  0.95833333  0.29085518  1.0
  In  In807  1  0.83333333  0.29166667  0.29085518  1.0
  In  In808  1  0.83333333  0.62500000  0.29085518  1.0
  In  In809  1  0.83333333  0.95833333  0.29085518  1.0
  In  In810  1  0.16666667  0.04166667  0.39799804  1.0
  In  In811  1  0.16666667  0.37500000  0.39799804  1.0
  In  In812  1  0.16666667  0.70833333  0.39799804  1.0
  In  In813  1  0.50000000  0.04166667  0.39799804  1.0
  In  In814  1  0.50000000  0.37500000  0.39799804  1.0
  In  In815  1  0.50000000  0.70833333  0.39799804  1.0
  In  In816  1  0.83333333  0.04166667  0.39799804  1.0
  In  In817  1  0.83333333  0.37500000  0.39799804  1.0
  In  In818  1  0.83333333  0.70833333  0.39799804  1.0
  In  In819  1  0.16666667  0.20833333  0.32656946  1.0
  In  In820  1  0.16666667  0.54166667  0.32656946  1.0
  In  In821  1  0.16666667  0.87500000  0.32656946  1.0
  In  In822  1  0.50000000  0.20833333  0.32656946  1.0
  In  In823  1  0.50000000  0.54166667  0.32656946  1.0
  In  In824  1  0.50000000  0.87500000  0.32656946  1.0
  In  In825  1  0.83333333  0.20833333  0.32656946  1.0
  In  In826  1  0.83333333  0.54166667  0.32656946  1.0
  In  In827  1  0.83333333  0.87500000  0.32656946  1.0
  In  In828  1  0.22594433  0.11297217  0.41824796  1.0
  In  In829  1  0.22594433  0.44630550  0.41824796  1.0
  In  In830  1  0.22594433  0.77963883  0.41824796  1.0
  In  In831  1  0.55927767  0.11297217  0.41824796  1.0
  In  In832  1  0.55927767  0.44630550  0.41824796  1.0
  In  In833  1  0.55927767  0.77963883  0.41824796  1.0
  In  In834  1  0.89261100  0.11297217  0.41824796  1.0
  In  In835  1  0.89261100  0.44630550  0.41824796  1.0
  In  In836  1  0.89261100  0.77963883  0.41824796  1.0
  In  In837  1  0.22594433  0.27963883  0.34681939  1.0
  In  In838  1  0.22594433  0.61297217  0.34681939  1.0
  In  In839  1  0.22594433  0.94630550  0.34681939  1.0
  In  In840  1  0.55927767  0.27963883  0.34681939  1.0
  In  In841  1  0.55927767  0.61297217  0.34681939  1.0
  In  In842  1  0.55927767  0.94630550  0.34681939  1.0
  In  In843  1  0.89261100  0.27963883  0.34681939  1.0
  In  In844  1  0.89261100  0.61297217  0.34681939  1.0
  In  In845  1  0.89261100  0.94630550  0.34681939  1.0
  In  In846  1  0.10738900  0.05369450  0.34203382  1.0
  In  In847  1  0.10738900  0.38702783  0.34203382  1.0
  In  In848  1  0.10738900  0.72036117  0.34203382  1.0
  In  In849  1  0.44072233  0.05369450  0.34203382  1.0
  In  In850  1  0.44072233  0.38702783  0.34203382  1.0
  In  In851  1  0.44072233  0.72036117  0.34203382  1.0
  In  In852  1  0.77405567  0.05369450  0.34203382  1.0
  In  In853  1  0.77405567  0.38702783  0.34203382  1.0
  In  In854  1  0.77405567  0.72036117  0.34203382  1.0
  In  In855  1  0.10738900  0.22036117  0.41346239  1.0
  In  In856  1  0.10738900  0.55369450  0.41346239  1.0
  In  In857  1  0.10738900  0.88702783  0.41346239  1.0
  In  In858  1  0.44072233  0.22036117  0.41346239  1.0
  In  In859  1  0.44072233  0.55369450  0.41346239  1.0
  In  In860  1  0.44072233  0.88702783  0.41346239  1.0
  In  In861  1  0.77405567  0.22036117  0.41346239  1.0
  In  In862  1  0.77405567  0.55369450  0.41346239  1.0
  In  In863  1  0.77405567  0.88702783  0.41346239  1.0
  In  In864  1  0.10738900  0.16666667  0.34442661  1.0
  In  In865  1  0.10738900  0.50000000  0.34442661  1.0
  In  In866  1  0.10738900  0.83333333  0.34442661  1.0
  In  In867  1  0.44072233  0.16666667  0.34442661  1.0
  In  In868  1  0.44072233  0.50000000  0.34442661  1.0
  In  In869  1  0.44072233  0.83333333  0.34442661  1.0
  In  In870  1  0.77405567  0.16666667  0.34442661  1.0
  In  In871  1  0.77405567  0.50000000  0.34442661  1.0
  In  In872  1  0.77405567  0.83333333  0.34442661  1.0
  In  In873  1  0.10738900  0.00000000  0.41585518  1.0
  In  In874  1  0.10738900  0.33333333  0.41585518  1.0
  In  In875  1  0.10738900  0.66666667  0.41585518  1.0
  In  In876  1  0.44072233  0.00000000  0.41585518  1.0
  In  In877  1  0.44072233  0.33333333  0.41585518  1.0
  In  In878  1  0.44072233  0.66666667  0.41585518  1.0
  In  In879  1  0.77405567  0.00000000  0.41585518  1.0
  In  In880  1  0.77405567  0.33333333  0.41585518  1.0
  In  In881  1  0.77405567  0.66666667  0.41585518  1.0
  In  In882  1  0.00000000  0.05369450  0.29600996  1.0
  In  In883  1  0.00000000  0.38702783  0.29600996  1.0
  In  In884  1  0.00000000  0.72036117  0.29600996  1.0
  In  In885  1  0.33333333  0.05369450  0.29600996  1.0
  In  In886  1  0.33333333  0.38702783  0.29600996  1.0
  In  In887  1  0.33333333  0.72036117  0.29600996  1.0
  In  In888  1  0.66666667  0.05369450  0.29600996  1.0
  In  In889  1  0.66666667  0.38702783  0.29600996  1.0
  In  In890  1  0.66666667  0.72036117  0.29600996  1.0
  In  In891  1  0.00000000  0.22036117  0.36743854  1.0
  In  In892  1  0.00000000  0.55369450  0.36743854  1.0
  In  In893  1  0.00000000  0.88702783  0.36743854  1.0
  In  In894  1  0.33333333  0.22036117  0.36743854  1.0
  In  In895  1  0.33333333  0.55369450  0.36743854  1.0
  In  In896  1  0.33333333  0.88702783  0.36743854  1.0
  In  In897  1  0.66666667  0.22036117  0.36743854  1.0
  In  In898  1  0.66666667  0.55369450  0.36743854  1.0
  In  In899  1  0.66666667  0.88702783  0.36743854  1.0
  In  In900  1  0.22594433  0.16666667  0.34442661  1.0
  In  In901  1  0.22594433  0.50000000  0.34442661  1.0
  In  In902  1  0.22594433  0.83333333  0.34442661  1.0
  In  In903  1  0.55927767  0.16666667  0.34442661  1.0
  In  In904  1  0.55927767  0.50000000  0.34442661  1.0
  In  In905  1  0.55927767  0.83333333  0.34442661  1.0
  In  In906  1  0.89261100  0.16666667  0.34442661  1.0
  In  In907  1  0.89261100  0.50000000  0.34442661  1.0
  In  In908  1  0.89261100  0.83333333  0.34442661  1.0
  In  In909  1  0.22594433  0.00000000  0.41585518  1.0
  In  In910  1  0.22594433  0.33333333  0.41585518  1.0
  In  In911  1  0.22594433  0.66666667  0.41585518  1.0
  In  In912  1  0.55927767  0.00000000  0.41585518  1.0
  In  In913  1  0.55927767  0.33333333  0.41585518  1.0
  In  In914  1  0.55927767  0.66666667  0.41585518  1.0
  In  In915  1  0.89261100  0.00000000  0.41585518  1.0
  In  In916  1  0.89261100  0.33333333  0.41585518  1.0
  In  In917  1  0.89261100  0.66666667  0.41585518  1.0
  In  In918  1  0.00000000  0.11297217  0.32141468  1.0
  In  In919  1  0.00000000  0.44630550  0.32141468  1.0
  In  In920  1  0.00000000  0.77963883  0.32141468  1.0
  In  In921  1  0.33333333  0.11297217  0.32141468  1.0
  In  In922  1  0.33333333  0.44630550  0.32141468  1.0
  In  In923  1  0.33333333  0.77963883  0.32141468  1.0
  In  In924  1  0.66666667  0.11297217  0.32141468  1.0
  In  In925  1  0.66666667  0.44630550  0.32141468  1.0
  In  In926  1  0.66666667  0.77963883  0.32141468  1.0
  In  In927  1  0.00000000  0.27963883  0.39284325  1.0
  In  In928  1  0.00000000  0.61297217  0.39284325  1.0
  In  In929  1  0.00000000  0.94630550  0.39284325  1.0
  In  In930  1  0.33333333  0.27963883  0.39284325  1.0
  In  In931  1  0.33333333  0.61297217  0.39284325  1.0
  In  In932  1  0.33333333  0.94630550  0.39284325  1.0
  In  In933  1  0.66666667  0.27963883  0.39284325  1.0
  In  In934  1  0.66666667  0.61297217  0.39284325  1.0
  In  In935  1  0.66666667  0.94630550  0.39284325  1.0
  In  In936  1  0.00000000  0.16666667  0.39045046  1.0
  In  In937  1  0.00000000  0.50000000  0.39045046  1.0
  In  In938  1  0.00000000  0.83333333  0.39045046  1.0
  In  In939  1  0.33333333  0.16666667  0.39045046  1.0
  In  In940  1  0.33333333  0.50000000  0.39045046  1.0
  In  In941  1  0.33333333  0.83333333  0.39045046  1.0
  In  In942  1  0.66666667  0.16666667  0.39045046  1.0
  In  In943  1  0.66666667  0.50000000  0.39045046  1.0
  In  In944  1  0.66666667  0.83333333  0.39045046  1.0
  In  In945  1  0.00000000  0.00000000  0.31902189  1.0
  In  In946  1  0.00000000  0.33333333  0.31902189  1.0
  In  In947  1  0.00000000  0.66666667  0.31902189  1.0
  In  In948  1  0.33333333  0.00000000  0.31902189  1.0
  In  In949  1  0.33333333  0.33333333  0.31902189  1.0
  In  In950  1  0.33333333  0.66666667  0.31902189  1.0
  In  In951  1  0.66666667  0.00000000  0.31902189  1.0
  In  In952  1  0.66666667  0.33333333  0.31902189  1.0
  In  In953  1  0.66666667  0.66666667  0.31902189  1.0
  In  In954  1  0.00000000  0.16666667  0.29840275  1.0
  In  In955  1  0.00000000  0.50000000  0.29840275  1.0
  In  In956  1  0.00000000  0.83333333  0.29840275  1.0
  In  In957  1  0.33333333  0.16666667  0.29840275  1.0
  In  In958  1  0.33333333  0.50000000  0.29840275  1.0
  In  In959  1  0.33333333  0.83333333  0.29840275  1.0
  In  In960  1  0.66666667  0.16666667  0.29840275  1.0
  In  In961  1  0.66666667  0.50000000  0.29840275  1.0
  In  In962  1  0.66666667  0.83333333  0.29840275  1.0
  In  In963  1  0.00000000  0.00000000  0.36983132  1.0
  In  In964  1  0.00000000  0.33333333  0.36983132  1.0
  In  In965  1  0.00000000  0.66666667  0.36983132  1.0
  In  In966  1  0.33333333  0.00000000  0.36983132  1.0
  In  In967  1  0.33333333  0.33333333  0.36983132  1.0
  In  In968  1  0.33333333  0.66666667  0.36983132  1.0
  In  In969  1  0.66666667  0.00000000  0.36983132  1.0
  In  In970  1  0.66666667  0.33333333  0.36983132  1.0
  In  In971  1  0.66666667  0.66666667  0.36983132  1.0
  Ni  Ni972  1  0.21464833  0.10732417  0.31899411  1.0
  Ni  Ni973  1  0.21464833  0.44065750  0.31899411  1.0
  Ni  Ni974  1  0.21464833  0.77399083  0.31899411  1.0
  Ni  Ni975  1  0.54798167  0.10732417  0.31899411  1.0
  Ni  Ni976  1  0.54798167  0.44065750  0.31899411  1.0
  Ni  Ni977  1  0.54798167  0.77399083  0.31899411  1.0
  Ni  Ni978  1  0.88131500  0.10732417  0.31899411  1.0
  Ni  Ni979  1  0.88131500  0.44065750  0.31899411  1.0
  Ni  Ni980  1  0.88131500  0.77399083  0.31899411  1.0
  Ni  Ni981  1  0.21464833  0.27399083  0.39042268  1.0
  Ni  Ni982  1  0.21464833  0.60732417  0.39042268  1.0
  Ni  Ni983  1  0.21464833  0.94065750  0.39042268  1.0
  Ni  Ni984  1  0.54798167  0.27399083  0.39042268  1.0
  Ni  Ni985  1  0.54798167  0.60732417  0.39042268  1.0
  Ni  Ni986  1  0.54798167  0.94065750  0.39042268  1.0
  Ni  Ni987  1  0.88131500  0.27399083  0.39042268  1.0
  Ni  Ni988  1  0.88131500  0.60732417  0.39042268  1.0
  Ni  Ni989  1  0.88131500  0.94065750  0.39042268  1.0
  Ni  Ni990  1  0.11868500  0.05934250  0.29843054  1.0
  Ni  Ni991  1  0.11868500  0.39267583  0.29843054  1.0
  Ni  Ni992  1  0.11868500  0.72600917  0.29843054  1.0
  Ni  Ni993  1  0.45201833  0.05934250  0.29843054  1.0
  Ni  Ni994  1  0.45201833  0.39267583  0.29843054  1.0
  Ni  Ni995  1  0.45201833  0.72600917  0.29843054  1.0
  Ni  Ni996  1  0.78535167  0.05934250  0.29843054  1.0
  Ni  Ni997  1  0.78535167  0.39267583  0.29843054  1.0
  Ni  Ni998  1  0.78535167  0.72600917  0.29843054  1.0
  Ni  Ni999  1  0.11868500  0.22600917  0.36985911  1.0
  Ni  Ni1000  1  0.11868500  0.55934250  0.36985911  1.0
  Ni  Ni1001  1  0.11868500  0.89267583  0.36985911  1.0
  Ni  Ni1002  1  0.45201833  0.22600917  0.36985911  1.0
  Ni  Ni1003  1  0.45201833  0.55934250  0.36985911  1.0
  Ni  Ni1004  1  0.45201833  0.89267583  0.36985911  1.0
  Ni  Ni1005  1  0.78535167  0.22600917  0.36985911  1.0
  Ni  Ni1006  1  0.78535167  0.55934250  0.36985911  1.0
  Ni  Ni1007  1  0.78535167  0.89267583  0.36985911  1.0
  Ni  Ni1008  1  0.21464833  0.16666667  0.29356161  1.0
  Ni  Ni1009  1  0.21464833  0.50000000  0.29356161  1.0
  Ni  Ni1010  1  0.21464833  0.83333333  0.29356161  1.0
  Ni  Ni1011  1  0.54798167  0.16666667  0.29356161  1.0
  Ni  Ni1012  1  0.54798167  0.50000000  0.29356161  1.0
  Ni  Ni1013  1  0.54798167  0.83333333  0.29356161  1.0
  Ni  Ni1014  1  0.88131500  0.16666667  0.29356161  1.0
  Ni  Ni1015  1  0.88131500  0.50000000  0.29356161  1.0
  Ni  Ni1016  1  0.88131500  0.83333333  0.29356161  1.0
  Ni  Ni1017  1  0.21464833  0.00000000  0.36499018  1.0
  Ni  Ni1018  1  0.21464833  0.33333333  0.36499018  1.0
  Ni  Ni1019  1  0.21464833  0.66666667  0.36499018  1.0
  Ni  Ni1020  1  0.54798167  0.00000000  0.36499018  1.0
  Ni  Ni1021  1  0.54798167  0.33333333  0.36499018  1.0
  Ni  Ni1022  1  0.54798167  0.66666667  0.36499018  1.0
  Ni  Ni1023  1  0.88131500  0.00000000  0.36499018  1.0
  Ni  Ni1024  1  0.88131500  0.33333333  0.36499018  1.0
  Ni  Ni1025  1  0.88131500  0.66666667  0.36499018  1.0
  Ni  Ni1026  1  0.11868500  0.16666667  0.39529161  1.0
  Ni  Ni1027  1  0.11868500  0.50000000  0.39529161  1.0
  Ni  Ni1028  1  0.11868500  0.83333333  0.39529161  1.0
  Ni  Ni1029  1  0.45201833  0.16666667  0.39529161  1.0
  Ni  Ni1030  1  0.45201833  0.50000000  0.39529161  1.0
  Ni  Ni1031  1  0.45201833  0.83333333  0.39529161  1.0
  Ni  Ni1032  1  0.78535167  0.16666667  0.39529161  1.0
  Ni  Ni1033  1  0.78535167  0.50000000  0.39529161  1.0
  Ni  Ni1034  1  0.78535167  0.83333333  0.39529161  1.0
  Ni  Ni1035  1  0.11868500  0.00000000  0.32386304  1.0
  Ni  Ni1036  1  0.11868500  0.33333333  0.32386304  1.0
  Ni  Ni1037  1  0.11868500  0.66666667  0.32386304  1.0
  Ni  Ni1038  1  0.45201833  0.00000000  0.32386304  1.0
  Ni  Ni1039  1  0.45201833  0.33333333  0.32386304  1.0
  Ni  Ni1040  1  0.45201833  0.66666667  0.32386304  1.0
  Ni  Ni1041  1  0.78535167  0.00000000  0.32386304  1.0
  Ni  Ni1042  1  0.78535167  0.33333333  0.32386304  1.0
  Ni  Ni1043  1  0.78535167  0.66666667  0.32386304  1.0
  Ni  Ni1044  1  0.00000000  0.10732417  0.41098625  1.0
  Ni  Ni1045  1  0.00000000  0.44065750  0.41098625  1.0
  Ni  Ni1046  1  0.00000000  0.77399083  0.41098625  1.0
  Ni  Ni1047  1  0.33333333  0.10732417  0.41098625  1.0
  Ni  Ni1048  1  0.33333333  0.44065750  0.41098625  1.0
  Ni  Ni1049  1  0.33333333  0.77399083  0.41098625  1.0
  Ni  Ni1050  1  0.66666667  0.10732417  0.41098625  1.0
  Ni  Ni1051  1  0.66666667  0.44065750  0.41098625  1.0
  Ni  Ni1052  1  0.66666667  0.77399083  0.41098625  1.0
  Ni  Ni1053  1  0.00000000  0.27399083  0.33955768  1.0
  Ni  Ni1054  1  0.00000000  0.60732417  0.33955768  1.0
  Ni  Ni1055  1  0.00000000  0.94065750  0.33955768  1.0
  Ni  Ni1056  1  0.33333333  0.27399083  0.33955768  1.0
  Ni  Ni1057  1  0.33333333  0.60732417  0.33955768  1.0
  Ni  Ni1058  1  0.33333333  0.94065750  0.33955768  1.0
  Ni  Ni1059  1  0.66666667  0.27399083  0.33955768  1.0
  Ni  Ni1060  1  0.66666667  0.60732417  0.33955768  1.0
  Ni  Ni1061  1  0.66666667  0.94065750  0.33955768  1.0
  Ni  Ni1062  1  0.00000000  0.05934250  0.34929554  1.0
  Ni  Ni1063  1  0.00000000  0.39267583  0.34929554  1.0
  Ni  Ni1064  1  0.00000000  0.72600917  0.34929554  1.0
  Ni  Ni1065  1  0.33333333  0.05934250  0.34929554  1.0
  Ni  Ni1066  1  0.33333333  0.39267583  0.34929554  1.0
  Ni  Ni1067  1  0.33333333  0.72600917  0.34929554  1.0
  Ni  Ni1068  1  0.66666667  0.05934250  0.34929554  1.0
  Ni  Ni1069  1  0.66666667  0.39267583  0.34929554  1.0
  Ni  Ni1070  1  0.66666667  0.72600917  0.34929554  1.0
  Ni  Ni1071  1  0.00000000  0.22600917  0.42072411  1.0
  Ni  Ni1072  1  0.00000000  0.55934250  0.42072411  1.0
  Ni  Ni1073  1  0.00000000  0.89267583  0.42072411  1.0
  Ni  Ni1074  1  0.33333333  0.22600917  0.42072411  1.0
  Ni  Ni1075  1  0.33333333  0.55934250  0.42072411  1.0
  Ni  Ni1076  1  0.33333333  0.89267583  0.42072411  1.0
  Ni  Ni1077  1  0.66666667  0.22600917  0.42072411  1.0
  Ni  Ni1078  1  0.66666667  0.55934250  0.42072411  1.0
  Ni  Ni1079  1  0.66666667  0.89267583  0.42072411  1.0
