# generated using pymatgen
data_In9Ni13
_symmetry_space_group_name_H-M   'P 1'
_cell_length_a   31.58006998
_cell_length_b   58.11811739
_cell_length_c   45.40995175
_cell_angle_alpha   38.48758443
_cell_angle_beta   54.70712185
_cell_angle_gamma   35.48856159
_symmetry_Int_Tables_number   1
_chemical_formula_structural   In9Ni13
_chemical_formula_sum   'In324 Ni468'
_cell_volume   29699.75837973
_cell_formula_units_Z   36
loop_
 _symmetry_equiv_pos_site_id
 _symmetry_equiv_pos_as_xyz
  1  'x, y, z'
loop_
 _atom_site_type_symbol
 _atom_site_label
 _atom_site_symmetry_multiplicity
 _atom_site_fract_x
 _atom_site_fract_y
 _atom_site_fract_z
 _atom_site_occupancy
  In  In0  1  0.24932467  0.23683400  0.01782990  1.0
  In  In1  1  0.24932467  0.57016733  0.01782990  1.0
  In  In2  1  0.24932467  0.90350067  0.01782990  1.0
  In  In3  1  0.58265800  0.23683400  0.01782990  1.0
  In  In4  1  0.58265800  0.57016733  0.01782990  1.0
  In  In5  1  0.58265800  0.90350067  0.01782990  1.0
  In  In6  1  0.91599133  0.23683400  0.01782990  1.0
  In  In7  1  0.91599133  0.57016733  0.01782990  1.0
  In  In8  1  0.91599133  0.90350067  0.01782990  1.0
  In  In9  1  0.24932467  0.07016733  0.11782990  1.0
  In  In10  1  0.24932467  0.40350067  0.11782990  1.0
  In  In11  1  0.24932467  0.73683400  0.11782990  1.0
  In  In12  1  0.58265800  0.07016733  0.11782990  1.0
  In  In13  1  0.58265800  0.40350067  0.11782990  1.0
  In  In14  1  0.58265800  0.73683400  0.11782990  1.0
  In  In15  1  0.91599133  0.07016733  0.11782990  1.0
  In  In16  1  0.91599133  0.40350067  0.11782990  1.0
  In  In17  1  0.91599133  0.73683400  0.11782990  1.0
  In  In18  1  0.27593567  0.00000000  0.12080830  1.0
  In  In19  1  0.27593567  0.33333333  0.12080830  1.0
  In  In20  1  0.27593567  0.66666667  0.12080830  1.0
  In  In21  1  0.60926900  0.00000000  0.12080830  1.0
  In  In22  1  0.60926900  0.33333333  0.12080830  1.0
  In  In23  1  0.60926900  0.66666667  0.12080830  1.0
  In  In24  1  0.94260233  0.00000000  0.12080830  1.0
  In  In25  1  0.94260233  0.33333333  0.12080830  1.0
  In  In26  1  0.94260233  0.66666667  0.12080830  1.0
  In  In27  1  0.27593567  0.16666667  0.02080830  1.0
  In  In28  1  0.27593567  0.50000000  0.02080830  1.0
  In  In29  1  0.27593567  0.83333333  0.02080830  1.0
  In  In30  1  0.60926900  0.16666667  0.02080830  1.0
  In  In31  1  0.60926900  0.50000000  0.02080830  1.0
  In  In32  1  0.60926900  0.83333333  0.02080830  1.0
  In  In33  1  0.94260233  0.16666667  0.02080830  1.0
  In  In34  1  0.94260233  0.50000000  0.02080830  1.0
  In  In35  1  0.94260233  0.83333333  0.02080830  1.0
  In  In36  1  0.23827333  0.00000000  0.06440210  1.0
  In  In37  1  0.23827333  0.33333333  0.06440210  1.0
  In  In38  1  0.23827333  0.66666667  0.06440210  1.0
  In  In39  1  0.57160667  0.00000000  0.06440210  1.0
  In  In40  1  0.57160667  0.33333333  0.06440210  1.0
  In  In41  1  0.57160667  0.66666667  0.06440210  1.0
  In  In42  1  0.90494000  0.00000000  0.06440210  1.0
  In  In43  1  0.90494000  0.33333333  0.06440210  1.0
  In  In44  1  0.90494000  0.66666667  0.06440210  1.0
  In  In45  1  0.23827333  0.16666667  0.16440210  1.0
  In  In46  1  0.23827333  0.50000000  0.16440210  1.0
  In  In47  1  0.23827333  0.83333333  0.16440210  1.0
  In  In48  1  0.57160667  0.16666667  0.16440210  1.0
  In  In49  1  0.57160667  0.50000000  0.16440210  1.0
  In  In50  1  0.57160667  0.83333333  0.16440210  1.0
  In  In51  1  0.90494000  0.16666667  0.16440210  1.0
  In  In52  1  0.90494000  0.50000000  0.16440210  1.0
  In  In53  1  0.90494000  0.83333333  0.16440210  1.0
  In  In54  1  0.05632600  0.09649933  0.10203070  1.0
  In  In55  1  0.05632600  0.42983267  0.10203070  1.0
  In  In56  1  0.05632600  0.76316600  0.10203070  1.0
  In  In57  1  0.38965933  0.09649933  0.10203070  1.0
  In  In58  1  0.38965933  0.42983267  0.10203070  1.0
  In  In59  1  0.38965933  0.76316600  0.10203070  1.0
  In  In60  1  0.72299267  0.09649933  0.10203070  1.0
  In  In61  1  0.72299267  0.42983267  0.10203070  1.0
  In  In62  1  0.72299267  0.76316600  0.10203070  1.0
  In  In63  1  0.05632600  0.26316600  0.00203070  1.0
  In  In64  1  0.05632600  0.59649933  0.00203070  1.0
  In  In65  1  0.05632600  0.92983267  0.00203070  1.0
  In  In66  1  0.38965933  0.26316600  0.00203070  1.0
  In  In67  1  0.38965933  0.59649933  0.00203070  1.0
  In  In68  1  0.38965933  0.92983267  0.00203070  1.0
  In  In69  1  0.72299267  0.26316600  0.00203070  1.0
  In  In70  1  0.72299267  0.59649933  0.00203070  1.0
  In  In71  1  0.72299267  0.92983267  0.00203070  1.0
  In  In72  1  0.09506000  0.00000000  0.13150210  1.0
  In  In73  1  0.09506000  0.33333333  0.13150210  1.0
  In  In74  1  0.09506000  0.66666667  0.13150210  1.0
  In  In75  1  0.42839333  0.00000000  0.13150210  1.0
  In  In76  1  0.42839333  0.33333333  0.13150210  1.0
  In  In77  1  0.42839333  0.66666667  0.13150210  1.0
  In  In78  1  0.76172667  0.00000000  0.13150210  1.0
  In  In79  1  0.76172667  0.33333333  0.13150210  1.0
  In  In80  1  0.76172667  0.66666667  0.13150210  1.0
  In  In81  1  0.09506000  0.16666667  0.03150210  1.0
  In  In82  1  0.09506000  0.50000000  0.03150210  1.0
  In  In83  1  0.09506000  0.83333333  0.03150210  1.0
  In  In84  1  0.42839333  0.16666667  0.03150210  1.0
  In  In85  1  0.42839333  0.50000000  0.03150210  1.0
  In  In86  1  0.42839333  0.83333333  0.03150210  1.0
  In  In87  1  0.76172667  0.16666667  0.03150210  1.0
  In  In88  1  0.76172667  0.50000000  0.03150210  1.0
  In  In89  1  0.76172667  0.83333333  0.03150210  1.0
  In  In90  1  0.16666667  0.00000000  0.19795210  1.0
  In  In91  1  0.16666667  0.33333333  0.19795210  1.0
  In  In92  1  0.16666667  0.66666667  0.19795210  1.0
  In  In93  1  0.50000000  0.00000000  0.19795210  1.0
  In  In94  1  0.50000000  0.33333333  0.19795210  1.0
  In  In95  1  0.50000000  0.66666667  0.19795210  1.0
  In  In96  1  0.83333333  0.00000000  0.19795210  1.0
  In  In97  1  0.83333333  0.33333333  0.19795210  1.0
  In  In98  1  0.83333333  0.66666667  0.19795210  1.0
  In  In99  1  0.16666667  0.16666667  0.09795210  1.0
  In  In100  1  0.16666667  0.50000000  0.09795210  1.0
  In  In101  1  0.16666667  0.83333333  0.09795210  1.0
  In  In102  1  0.50000000  0.16666667  0.09795210  1.0
  In  In103  1  0.50000000  0.50000000  0.09795210  1.0
  In  In104  1  0.50000000  0.83333333  0.09795210  1.0
  In  In105  1  0.83333333  0.16666667  0.09795210  1.0
  In  In106  1  0.83333333  0.50000000  0.09795210  1.0
  In  In107  1  0.83333333  0.83333333  0.09795210  1.0
  In  In108  1  0.08400867  0.09649933  0.17807430  1.0
  In  In109  1  0.08400867  0.42983267  0.17807430  1.0
  In  In110  1  0.08400867  0.76316600  0.17807430  1.0
  In  In111  1  0.41734200  0.09649933  0.17807430  1.0
  In  In112  1  0.41734200  0.42983267  0.17807430  1.0
  In  In113  1  0.41734200  0.76316600  0.17807430  1.0
  In  In114  1  0.75067533  0.09649933  0.17807430  1.0
  In  In115  1  0.75067533  0.42983267  0.17807430  1.0
  In  In116  1  0.75067533  0.76316600  0.17807430  1.0
  In  In117  1  0.08400867  0.26316600  0.07807430  1.0
  In  In118  1  0.08400867  0.59649933  0.07807430  1.0
  In  In119  1  0.08400867  0.92983267  0.07807430  1.0
  In  In120  1  0.41734200  0.26316600  0.07807430  1.0
  In  In121  1  0.41734200  0.59649933  0.07807430  1.0
  In  In122  1  0.41734200  0.92983267  0.07807430  1.0
  In  In123  1  0.75067533  0.26316600  0.07807430  1.0
  In  In124  1  0.75067533  0.59649933  0.07807430  1.0
  In  In125  1  0.75067533  0.92983267  0.07807430  1.0
  In  In126  1  0.27700733  0.23683400  0.09387350  1.0
  In  In127  1  0.27700733  0.57016733  0.09387350  1.0
  In  In128  1  0.27700733  0.90350067  0.09387350  1.0
  In  In129  1  0.61034067  0.23683400  0.09387350  1.0
  In  In130  1  0.61034067  0.57016733  0.09387350  1.0
  In  In131  1  0.61034067  0.90350067  0.09387350  1.0
  In  In132  1  0.94367400  0.23683400  0.09387350  1.0
  In  In133  1  0.94367400  0.57016733  0.09387350  1.0
  In  In134  1  0.94367400  0.90350067  0.09387350  1.0
  In  In135  1  0.27700733  0.07016733  0.19387350  1.0
  In  In136  1  0.27700733  0.40350067  0.19387350  1.0
  In  In137  1  0.27700733  0.73683400  0.19387350  1.0
  In  In138  1  0.61034067  0.07016733  0.19387350  1.0
  In  In139  1  0.61034067  0.40350067  0.19387350  1.0
  In  In140  1  0.61034067  0.73683400  0.19387350  1.0
  In  In141  1  0.94367400  0.07016733  0.19387350  1.0
  In  In142  1  0.94367400  0.40350067  0.19387350  1.0
  In  In143  1  0.94367400  0.73683400  0.19387350  1.0
  In  In144  1  0.05739767  0.00000000  0.07509590  1.0
  In  In145  1  0.05739767  0.33333333  0.07509590  1.0
  In  In146  1  0.05739767  0.66666667  0.07509590  1.0
  In  In147  1  0.39073100  0.00000000  0.07509590  1.0
  In  In148  1  0.39073100  0.33333333  0.07509590  1.0
  In  In149  1  0.39073100  0.66666667  0.07509590  1.0
  In  In150  1  0.72406433  0.00000000  0.07509590  1.0
  In  In151  1  0.72406433  0.33333333  0.07509590  1.0
  In  In152  1  0.72406433  0.66666667  0.07509590  1.0
  In  In153  1  0.05739767  0.16666667  0.17509590  1.0
  In  In154  1  0.05739767  0.50000000  0.17509590  1.0
  In  In155  1  0.05739767  0.83333333  0.17509590  1.0
  In  In156  1  0.39073100  0.16666667  0.17509590  1.0
  In  In157  1  0.39073100  0.50000000  0.17509590  1.0
  In  In158  1  0.39073100  0.83333333  0.17509590  1.0
  In  In159  1  0.72406433  0.16666667  0.17509590  1.0
  In  In160  1  0.72406433  0.50000000  0.17509590  1.0
  In  In161  1  0.72406433  0.83333333  0.17509590  1.0
  Ni  Ni162  1  0.15132200  0.08018183  0.11800660  1.0
  Ni  Ni163  1  0.15132200  0.41351517  0.11800660  1.0
  Ni  Ni164  1  0.15132200  0.74684850  0.11800660  1.0
  Ni  Ni165  1  0.48465533  0.08018183  0.11800660  1.0
  Ni  Ni166  1  0.48465533  0.41351517  0.11800660  1.0
  Ni  Ni167  1  0.48465533  0.74684850  0.11800660  1.0
  Ni  Ni168  1  0.81798867  0.08018183  0.11800660  1.0
  Ni  Ni169  1  0.81798867  0.41351517  0.11800660  1.0
  Ni  Ni170  1  0.81798867  0.74684850  0.11800660  1.0
  Ni  Ni171  1  0.15132200  0.24684850  0.01800660  1.0
  Ni  Ni172  1  0.15132200  0.58018183  0.01800660  1.0
  Ni  Ni173  1  0.15132200  0.91351517  0.01800660  1.0
  Ni  Ni174  1  0.48465533  0.24684850  0.01800660  1.0
  Ni  Ni175  1  0.48465533  0.58018183  0.01800660  1.0
  Ni  Ni176  1  0.48465533  0.91351517  0.01800660  1.0
  Ni  Ni177  1  0.81798867  0.24684850  0.01800660  1.0
  Ni  Ni178  1  0.81798867  0.58018183  0.01800660  1.0
  Ni  Ni179  1  0.81798867  0.91351517  0.01800660  1.0
  Ni  Ni180  1  0.16666667  0.08333333  0.04795210  1.0
  Ni  Ni181  1  0.16666667  0.41666667  0.04795210  1.0
  Ni  Ni182  1  0.16666667  0.75000000  0.04795210  1.0
  Ni  Ni183  1  0.50000000  0.08333333  0.04795210  1.0
  Ni  Ni184  1  0.50000000  0.41666667  0.04795210  1.0
  Ni  Ni185  1  0.50000000  0.75000000  0.04795210  1.0
  Ni  Ni186  1  0.83333333  0.08333333  0.04795210  1.0
  Ni  Ni187  1  0.83333333  0.41666667  0.04795210  1.0
  Ni  Ni188  1  0.83333333  0.75000000  0.04795210  1.0
  Ni  Ni189  1  0.16666667  0.25000000  0.14795210  1.0
  Ni  Ni190  1  0.16666667  0.58333333  0.14795210  1.0
  Ni  Ni191  1  0.16666667  0.91666667  0.14795210  1.0
  Ni  Ni192  1  0.50000000  0.25000000  0.14795210  1.0
  Ni  Ni193  1  0.50000000  0.58333333  0.14795210  1.0
  Ni  Ni194  1  0.50000000  0.91666667  0.14795210  1.0
  Ni  Ni195  1  0.83333333  0.25000000  0.14795210  1.0
  Ni  Ni196  1  0.83333333  0.58333333  0.14795210  1.0
  Ni  Ni197  1  0.83333333  0.91666667  0.14795210  1.0
  Ni  Ni198  1  0.15176800  0.00000000  0.06253290  1.0
  Ni  Ni199  1  0.15176800  0.33333333  0.06253290  1.0
  Ni  Ni200  1  0.15176800  0.66666667  0.06253290  1.0
  Ni  Ni201  1  0.48510133  0.00000000  0.06253290  1.0
  Ni  Ni202  1  0.48510133  0.33333333  0.06253290  1.0
  Ni  Ni203  1  0.48510133  0.66666667  0.06253290  1.0
  Ni  Ni204  1  0.81843467  0.00000000  0.06253290  1.0
  Ni  Ni205  1  0.81843467  0.33333333  0.06253290  1.0
  Ni  Ni206  1  0.81843467  0.66666667  0.06253290  1.0
  Ni  Ni207  1  0.15176800  0.16666667  0.16253290  1.0
  Ni  Ni208  1  0.15176800  0.50000000  0.16253290  1.0
  Ni  Ni209  1  0.15176800  0.83333333  0.16253290  1.0
  Ni  Ni210  1  0.48510133  0.16666667  0.16253290  1.0
  Ni  Ni211  1  0.48510133  0.50000000  0.16253290  1.0
  Ni  Ni212  1  0.48510133  0.83333333  0.16253290  1.0
  Ni  Ni213  1  0.81843467  0.16666667  0.16253290  1.0
  Ni  Ni214  1  0.81843467  0.50000000  0.16253290  1.0
  Ni  Ni215  1  0.81843467  0.83333333  0.16253290  1.0
  Ni  Ni216  1  0.31168567  0.25315150  0.01422480  1.0
  Ni  Ni217  1  0.31168567  0.58648483  0.01422480  1.0
  Ni  Ni218  1  0.31168567  0.91981817  0.01422480  1.0
  Ni  Ni219  1  0.64501900  0.25315150  0.01422480  1.0
  Ni  Ni220  1  0.64501900  0.58648483  0.01422480  1.0
  Ni  Ni221  1  0.64501900  0.91981817  0.01422480  1.0
  Ni  Ni222  1  0.97835233  0.25315150  0.01422480  1.0
  Ni  Ni223  1  0.97835233  0.58648483  0.01422480  1.0
  Ni  Ni224  1  0.97835233  0.91981817  0.01422480  1.0
  Ni  Ni225  1  0.31168567  0.08648483  0.11422480  1.0
  Ni  Ni226  1  0.31168567  0.41981817  0.11422480  1.0
  Ni  Ni227  1  0.31168567  0.75315150  0.11422480  1.0
  Ni  Ni228  1  0.64501900  0.08648483  0.11422480  1.0
  Ni  Ni229  1  0.64501900  0.41981817  0.11422480  1.0
  Ni  Ni230  1  0.64501900  0.75315150  0.11422480  1.0
  Ni  Ni231  1  0.97835233  0.08648483  0.11422480  1.0
  Ni  Ni232  1  0.97835233  0.41981817  0.11422480  1.0
  Ni  Ni233  1  0.97835233  0.75315150  0.11422480  1.0
  Ni  Ni234  1  0.18156533  0.00000000  0.13337130  1.0
  Ni  Ni235  1  0.18156533  0.33333333  0.13337130  1.0
  Ni  Ni236  1  0.18156533  0.66666667  0.13337130  1.0
  Ni  Ni237  1  0.51489867  0.00000000  0.13337130  1.0
  Ni  Ni238  1  0.51489867  0.33333333  0.13337130  1.0
  Ni  Ni239  1  0.51489867  0.66666667  0.13337130  1.0
  Ni  Ni240  1  0.84823200  0.00000000  0.13337130  1.0
  Ni  Ni241  1  0.84823200  0.33333333  0.13337130  1.0
  Ni  Ni242  1  0.84823200  0.66666667  0.13337130  1.0
  Ni  Ni243  1  0.18156533  0.16666667  0.03337130  1.0
  Ni  Ni244  1  0.18156533  0.50000000  0.03337130  1.0
  Ni  Ni245  1  0.18156533  0.83333333  0.03337130  1.0
  Ni  Ni246  1  0.51489867  0.16666667  0.03337130  1.0
  Ni  Ni247  1  0.51489867  0.50000000  0.03337130  1.0
  Ni  Ni248  1  0.51489867  0.83333333  0.03337130  1.0
  Ni  Ni249  1  0.84823200  0.16666667  0.03337130  1.0
  Ni  Ni250  1  0.84823200  0.50000000  0.03337130  1.0
  Ni  Ni251  1  0.84823200  0.83333333  0.03337130  1.0
  Ni  Ni252  1  0.24452867  0.25547133  0.14466930  1.0
  Ni  Ni253  1  0.24452867  0.58880467  0.14466930  1.0
  Ni  Ni254  1  0.24452867  0.92213800  0.14466930  1.0
  Ni  Ni255  1  0.57786200  0.25547133  0.14466930  1.0
  Ni  Ni256  1  0.57786200  0.58880467  0.14466930  1.0
  Ni  Ni257  1  0.57786200  0.92213800  0.14466930  1.0
  Ni  Ni258  1  0.91119533  0.25547133  0.14466930  1.0
  Ni  Ni259  1  0.91119533  0.58880467  0.14466930  1.0
  Ni  Ni260  1  0.91119533  0.92213800  0.14466930  1.0
  Ni  Ni261  1  0.24452867  0.08880467  0.04466930  1.0
  Ni  Ni262  1  0.24452867  0.42213800  0.04466930  1.0
  Ni  Ni263  1  0.24452867  0.75547133  0.04466930  1.0
  Ni  Ni264  1  0.57786200  0.08880467  0.04466930  1.0
  Ni  Ni265  1  0.57786200  0.42213800  0.04466930  1.0
  Ni  Ni266  1  0.57786200  0.75547133  0.04466930  1.0
  Ni  Ni267  1  0.91119533  0.08880467  0.04466930  1.0
  Ni  Ni268  1  0.91119533  0.42213800  0.04466930  1.0
  Ni  Ni269  1  0.91119533  0.75547133  0.04466930  1.0
  Ni  Ni270  1  0.24712100  0.00000000  0.00204790  1.0
  Ni  Ni271  1  0.24712100  0.33333333  0.00204790  1.0
  Ni  Ni272  1  0.24712100  0.66666667  0.00204790  1.0
  Ni  Ni273  1  0.58045433  0.00000000  0.00204790  1.0
  Ni  Ni274  1  0.58045433  0.33333333  0.00204790  1.0
  Ni  Ni275  1  0.58045433  0.66666667  0.00204790  1.0
  Ni  Ni276  1  0.91378767  0.00000000  0.00204790  1.0
  Ni  Ni277  1  0.91378767  0.33333333  0.00204790  1.0
  Ni  Ni278  1  0.91378767  0.66666667  0.00204790  1.0
  Ni  Ni279  1  0.24712100  0.16666667  0.10204790  1.0
  Ni  Ni280  1  0.24712100  0.50000000  0.10204790  1.0
  Ni  Ni281  1  0.24712100  0.83333333  0.10204790  1.0
  Ni  Ni282  1  0.58045433  0.16666667  0.10204790  1.0
  Ni  Ni283  1  0.58045433  0.50000000  0.10204790  1.0
  Ni  Ni284  1  0.58045433  0.83333333  0.10204790  1.0
  Ni  Ni285  1  0.91378767  0.16666667  0.10204790  1.0
  Ni  Ni286  1  0.91378767  0.50000000  0.10204790  1.0
  Ni  Ni287  1  0.91378767  0.83333333  0.10204790  1.0
  Ni  Ni288  1  0.02164767  0.08018183  0.18167940  1.0
  Ni  Ni289  1  0.02164767  0.41351517  0.18167940  1.0
  Ni  Ni290  1  0.02164767  0.74684850  0.18167940  1.0
  Ni  Ni291  1  0.35498100  0.08018183  0.18167940  1.0
  Ni  Ni292  1  0.35498100  0.41351517  0.18167940  1.0
  Ni  Ni293  1  0.35498100  0.74684850  0.18167940  1.0
  Ni  Ni294  1  0.68831433  0.08018183  0.18167940  1.0
  Ni  Ni295  1  0.68831433  0.41351517  0.18167940  1.0
  Ni  Ni296  1  0.68831433  0.74684850  0.18167940  1.0
  Ni  Ni297  1  0.02164767  0.24684850  0.08167940  1.0
  Ni  Ni298  1  0.02164767  0.58018183  0.08167940  1.0
  Ni  Ni299  1  0.02164767  0.91351517  0.08167940  1.0
  Ni  Ni300  1  0.35498100  0.24684850  0.08167940  1.0
  Ni  Ni301  1  0.35498100  0.58018183  0.08167940  1.0
  Ni  Ni302  1  0.35498100  0.91351517  0.08167940  1.0
  Ni  Ni303  1  0.68831433  0.24684850  0.08167940  1.0
  Ni  Ni304  1  0.68831433  0.58018183  0.08167940  1.0
  Ni  Ni305  1  0.68831433  0.91351517  0.08167940  1.0
  Ni  Ni306  1  0.08621233  0.00000000  0.19385630  1.0
  Ni  Ni307  1  0.08621233  0.33333333  0.19385630  1.0
  Ni  Ni308  1  0.08621233  0.66666667  0.19385630  1.0
  Ni  Ni309  1  0.41954567  0.00000000  0.19385630  1.0
  Ni  Ni310  1  0.41954567  0.33333333  0.19385630  1.0
  Ni  Ni311  1  0.41954567  0.66666667  0.19385630  1.0
  Ni  Ni312  1  0.75287900  0.00000000  0.19385630  1.0
  Ni  Ni313  1  0.75287900  0.33333333  0.19385630  1.0
  Ni  Ni314  1  0.75287900  0.66666667  0.19385630  1.0
  Ni  Ni315  1  0.08621233  0.16666667  0.09385630  1.0
  Ni  Ni316  1  0.08621233  0.50000000  0.09385630  1.0
  Ni  Ni317  1  0.08621233  0.83333333  0.09385630  1.0
  Ni  Ni318  1  0.41954567  0.16666667  0.09385630  1.0
  Ni  Ni319  1  0.41954567  0.50000000  0.09385630  1.0
  Ni  Ni320  1  0.41954567  0.83333333  0.09385630  1.0
  Ni  Ni321  1  0.75287900  0.16666667  0.09385630  1.0
  Ni  Ni322  1  0.75287900  0.50000000  0.09385630  1.0
  Ni  Ni323  1  0.75287900  0.83333333  0.09385630  1.0
  Ni  Ni324  1  0.18201133  0.25315150  0.07789760  1.0
  Ni  Ni325  1  0.18201133  0.58648483  0.07789760  1.0
  Ni  Ni326  1  0.18201133  0.91981817  0.07789760  1.0
  Ni  Ni327  1  0.51534467  0.25315150  0.07789760  1.0
  Ni  Ni328  1  0.51534467  0.58648483  0.07789760  1.0
  Ni  Ni329  1  0.51534467  0.91981817  0.07789760  1.0
  Ni  Ni330  1  0.84867800  0.25315150  0.07789760  1.0
  Ni  Ni331  1  0.84867800  0.58648483  0.07789760  1.0
  Ni  Ni332  1  0.84867800  0.91981817  0.07789760  1.0
  Ni  Ni333  1  0.18201133  0.08648483  0.17789760  1.0
  Ni  Ni334  1  0.18201133  0.41981817  0.17789760  1.0
  Ni  Ni335  1  0.18201133  0.75315150  0.17789760  1.0
  Ni  Ni336  1  0.51534467  0.08648483  0.17789760  1.0
  Ni  Ni337  1  0.51534467  0.41981817  0.17789760  1.0
  Ni  Ni338  1  0.51534467  0.75315150  0.17789760  1.0
  Ni  Ni339  1  0.84867800  0.08648483  0.17789760  1.0
  Ni  Ni340  1  0.84867800  0.41981817  0.17789760  1.0
  Ni  Ni341  1  0.84867800  0.75315150  0.17789760  1.0
  Ni  Ni342  1  0.08880467  0.07786200  0.05123490  1.0
  Ni  Ni343  1  0.08880467  0.41119533  0.05123490  1.0
  Ni  Ni344  1  0.08880467  0.74452867  0.05123490  1.0
  Ni  Ni345  1  0.42213800  0.07786200  0.05123490  1.0
  Ni  Ni346  1  0.42213800  0.41119533  0.05123490  1.0
  Ni  Ni347  1  0.42213800  0.74452867  0.05123490  1.0
  Ni  Ni348  1  0.75547133  0.07786200  0.05123490  1.0
  Ni  Ni349  1  0.75547133  0.41119533  0.05123490  1.0
  Ni  Ni350  1  0.75547133  0.74452867  0.05123490  1.0
  Ni  Ni351  1  0.08880467  0.24452867  0.15123490  1.0
  Ni  Ni352  1  0.08880467  0.57786200  0.15123490  1.0
  Ni  Ni353  1  0.08880467  0.91119533  0.15123490  1.0
  Ni  Ni354  1  0.42213800  0.24452867  0.15123490  1.0
  Ni  Ni355  1  0.42213800  0.57786200  0.15123490  1.0
  Ni  Ni356  1  0.42213800  0.91119533  0.15123490  1.0
  Ni  Ni357  1  0.75547133  0.24452867  0.15123490  1.0
  Ni  Ni358  1  0.75547133  0.57786200  0.15123490  1.0
  Ni  Ni359  1  0.75547133  0.91119533  0.15123490  1.0
  Ni  Ni360  1  0.00000000  0.16666667  0.09795210  1.0
  Ni  Ni361  1  0.00000000  0.50000000  0.09795210  1.0
  Ni  Ni362  1  0.00000000  0.83333333  0.09795210  1.0
  Ni  Ni363  1  0.33333333  0.16666667  0.09795210  1.0
  Ni  Ni364  1  0.33333333  0.50000000  0.09795210  1.0
  Ni  Ni365  1  0.33333333  0.83333333  0.09795210  1.0
  Ni  Ni366  1  0.66666667  0.16666667  0.09795210  1.0
  Ni  Ni367  1  0.66666667  0.50000000  0.09795210  1.0
  Ni  Ni368  1  0.66666667  0.83333333  0.09795210  1.0
  Ni  Ni369  1  0.00000000  0.00000000  0.19795210  1.0
  Ni  Ni370  1  0.00000000  0.33333333  0.19795210  1.0
  Ni  Ni371  1  0.00000000  0.66666667  0.19795210  1.0
  Ni  Ni372  1  0.33333333  0.00000000  0.19795210  1.0
  Ni  Ni373  1  0.33333333  0.33333333  0.19795210  1.0
  Ni  Ni374  1  0.33333333  0.66666667  0.19795210  1.0
  Ni  Ni375  1  0.66666667  0.00000000  0.19795210  1.0
  Ni  Ni376  1  0.66666667  0.33333333  0.19795210  1.0
  Ni  Ni377  1  0.66666667  0.66666667  0.19795210  1.0
  Ni  Ni378  1  0.00000000  0.08333333  0.04795210  1.0
  Ni  Ni379  1  0.00000000  0.41666667  0.04795210  1.0
  Ni  Ni380  1  0.00000000  0.75000000  0.04795210  1.0
  Ni  Ni381  1  0.33333333  0.08333333  0.04795210  1.0
  Ni  Ni382  1  0.33333333  0.41666667  0.04795210  1.0
  Ni  Ni383  1  0.33333333  0.75000000  0.04795210  1.0
  Ni  Ni384  1  0.66666667  0.08333333  0.04795210  1.0
  Ni  Ni385  1  0.66666667  0.41666667  0.04795210  1.0
  Ni  Ni386  1  0.66666667  0.75000000  0.04795210  1.0
  Ni  Ni387  1  0.00000000  0.25000000  0.14795210  1.0
  Ni  Ni388  1  0.00000000  0.58333333  0.14795210  1.0
  Ni  Ni389  1  0.00000000  0.91666667  0.14795210  1.0
  Ni  Ni390  1  0.33333333  0.25000000  0.14795210  1.0
  Ni  Ni391  1  0.33333333  0.58333333  0.14795210  1.0
  Ni  Ni392  1  0.33333333  0.91666667  0.14795210  1.0
  Ni  Ni393  1  0.66666667  0.25000000  0.14795210  1.0
  Ni  Ni394  1  0.66666667  0.58333333  0.14795210  1.0
  Ni  Ni395  1  0.66666667  0.91666667  0.14795210  1.0
  In  In396  1  0.24932467  0.23683400  0.21782990  1.0
  In  In397  1  0.24932467  0.57016733  0.21782990  1.0
  In  In398  1  0.24932467  0.90350067  0.21782990  1.0
  In  In399  1  0.58265800  0.23683400  0.21782990  1.0
  In  In400  1  0.58265800  0.57016733  0.21782990  1.0
  In  In401  1  0.58265800  0.90350067  0.21782990  1.0
  In  In402  1  0.91599133  0.23683400  0.21782990  1.0
  In  In403  1  0.91599133  0.57016733  0.21782990  1.0
  In  In404  1  0.91599133  0.90350067  0.21782990  1.0
  In  In405  1  0.24932467  0.07016733  0.31782990  1.0
  In  In406  1  0.24932467  0.40350067  0.31782990  1.0
  In  In407  1  0.24932467  0.73683400  0.31782990  1.0
  In  In408  1  0.58265800  0.07016733  0.31782990  1.0
  In  In409  1  0.58265800  0.40350067  0.31782990  1.0
  In  In410  1  0.58265800  0.73683400  0.31782990  1.0
  In  In411  1  0.91599133  0.07016733  0.31782990  1.0
  In  In412  1  0.91599133  0.40350067  0.31782990  1.0
  In  In413  1  0.91599133  0.73683400  0.31782990  1.0
  In  In414  1  0.27593567  0.00000000  0.32080830  1.0
  In  In415  1  0.27593567  0.33333333  0.32080830  1.0
  In  In416  1  0.27593567  0.66666667  0.32080830  1.0
  In  In417  1  0.60926900  0.00000000  0.32080830  1.0
  In  In418  1  0.60926900  0.33333333  0.32080830  1.0
  In  In419  1  0.60926900  0.66666667  0.32080830  1.0
  In  In420  1  0.94260233  0.00000000  0.32080830  1.0
  In  In421  1  0.94260233  0.33333333  0.32080830  1.0
  In  In422  1  0.94260233  0.66666667  0.32080830  1.0
  In  In423  1  0.27593567  0.16666667  0.22080830  1.0
  In  In424  1  0.27593567  0.50000000  0.22080830  1.0
  In  In425  1  0.27593567  0.83333333  0.22080830  1.0
  In  In426  1  0.60926900  0.16666667  0.22080830  1.0
  In  In427  1  0.60926900  0.50000000  0.22080830  1.0
  In  In428  1  0.60926900  0.83333333  0.22080830  1.0
  In  In429  1  0.94260233  0.16666667  0.22080830  1.0
  In  In430  1  0.94260233  0.50000000  0.22080830  1.0
  In  In431  1  0.94260233  0.83333333  0.22080830  1.0
  In  In432  1  0.23827333  0.00000000  0.26440210  1.0
  In  In433  1  0.23827333  0.33333333  0.26440210  1.0
  In  In434  1  0.23827333  0.66666667  0.26440210  1.0
  In  In435  1  0.57160667  0.00000000  0.26440210  1.0
  In  In436  1  0.57160667  0.33333333  0.26440210  1.0
  In  In437  1  0.57160667  0.66666667  0.26440210  1.0
  In  In438  1  0.90494000  0.00000000  0.26440210  1.0
  In  In439  1  0.90494000  0.33333333  0.26440210  1.0
  In  In440  1  0.90494000  0.66666667  0.26440210  1.0
  In  In441  1  0.23827333  0.16666667  0.36440210  1.0
  In  In442  1  0.23827333  0.50000000  0.36440210  1.0
  In  In443  1  0.23827333  0.83333333  0.36440210  1.0
  In  In444  1  0.57160667  0.16666667  0.36440210  1.0
  In  In445  1  0.57160667  0.50000000  0.36440210  1.0
  In  In446  1  0.57160667  0.83333333  0.36440210  1.0
  In  In447  1  0.90494000  0.16666667  0.36440210  1.0
  In  In448  1  0.90494000  0.50000000  0.36440210  1.0
  In  In449  1  0.90494000  0.83333333  0.36440210  1.0
  In  In450  1  0.05632600  0.09649933  0.30203070  1.0
  In  In451  1  0.05632600  0.42983267  0.30203070  1.0
  In  In452  1  0.05632600  0.76316600  0.30203070  1.0
  In  In453  1  0.38965933  0.09649933  0.30203070  1.0
  In  In454  1  0.38965933  0.42983267  0.30203070  1.0
  In  In455  1  0.38965933  0.76316600  0.30203070  1.0
  In  In456  1  0.72299267  0.09649933  0.30203070  1.0
  In  In457  1  0.72299267  0.42983267  0.30203070  1.0
  In  In458  1  0.72299267  0.76316600  0.30203070  1.0
  In  In459  1  0.05632600  0.26316600  0.20203070  1.0
  In  In460  1  0.05632600  0.59649933  0.20203070  1.0
  In  In461  1  0.05632600  0.92983267  0.20203070  1.0
  In  In462  1  0.38965933  0.26316600  0.20203070  1.0
  In  In463  1  0.38965933  0.59649933  0.20203070  1.0
  In  In464  1  0.38965933  0.92983267  0.20203070  1.0
  In  In465  1  0.72299267  0.26316600  0.20203070  1.0
  In  In466  1  0.72299267  0.59649933  0.20203070  1.0
  In  In467  1  0.72299267  0.92983267  0.20203070  1.0
  In  In468  1  0.09506000  0.00000000  0.33150210  1.0
  In  In469  1  0.09506000  0.33333333  0.33150210  1.0
  In  In470  1  0.09506000  0.66666667  0.33150210  1.0
  In  In471  1  0.42839333  0.00000000  0.33150210  1.0
  In  In472  1  0.42839333  0.33333333  0.33150210  1.0
  In  In473  1  0.42839333  0.66666667  0.33150210  1.0
  In  In474  1  0.76172667  0.00000000  0.33150210  1.0
  In  In475  1  0.76172667  0.33333333  0.33150210  1.0
  In  In476  1  0.76172667  0.66666667  0.33150210  1.0
  In  In477  1  0.09506000  0.16666667  0.23150210  1.0
  In  In478  1  0.09506000  0.50000000  0.23150210  1.0
  In  In479  1  0.09506000  0.83333333  0.23150210  1.0
  In  In480  1  0.42839333  0.16666667  0.23150210  1.0
  In  In481  1  0.42839333  0.50000000  0.23150210  1.0
  In  In482  1  0.42839333  0.83333333  0.23150210  1.0
  In  In483  1  0.76172667  0.16666667  0.23150210  1.0
  In  In484  1  0.76172667  0.50000000  0.23150210  1.0
  In  In485  1  0.76172667  0.83333333  0.23150210  1.0
  In  In486  1  0.16666667  0.00000000  0.39795210  1.0
  In  In487  1  0.16666667  0.33333333  0.39795210  1.0
  In  In488  1  0.16666667  0.66666667  0.39795210  1.0
  In  In489  1  0.50000000  0.00000000  0.39795210  1.0
  In  In490  1  0.50000000  0.33333333  0.39795210  1.0
  In  In491  1  0.50000000  0.66666667  0.39795210  1.0
  In  In492  1  0.83333333  0.00000000  0.39795210  1.0
  In  In493  1  0.83333333  0.33333333  0.39795210  1.0
  In  In494  1  0.83333333  0.66666667  0.39795210  1.0
  In  In495  1  0.16666667  0.16666667  0.29795210  1.0
  In  In496  1  0.16666667  0.50000000  0.29795210  1.0
  In  In497  1  0.16666667  0.83333333  0.29795210  1.0
  In  In498  1  0.50000000  0.16666667  0.29795210  1.0
  In  In499  1  0.50000000  0.50000000  0.29795210  1.0
  In  In500  1  0.50000000  0.83333333  0.29795210  1.0
  In  In501  1  0.83333333  0.16666667  0.29795210  1.0
  In  In502  1  0.83333333  0.50000000  0.29795210  1.0
  In  In503  1  0.83333333  0.83333333  0.29795210  1.0
  In  In504  1  0.08400867  0.09649933  0.37807430  1.0
  In  In505  1  0.08400867  0.42983267  0.37807430  1.0
  In  In506  1  0.08400867  0.76316600  0.37807430  1.0
  In  In507  1  0.41734200  0.09649933  0.37807430  1.0
  In  In508  1  0.41734200  0.42983267  0.37807430  1.0
  In  In509  1  0.41734200  0.76316600  0.37807430  1.0
  In  In510  1  0.75067533  0.09649933  0.37807430  1.0
  In  In511  1  0.75067533  0.42983267  0.37807430  1.0
  In  In512  1  0.75067533  0.76316600  0.37807430  1.0
  In  In513  1  0.08400867  0.26316600  0.27807430  1.0
  In  In514  1  0.08400867  0.59649933  0.27807430  1.0
  In  In515  1  0.08400867  0.92983267  0.27807430  1.0
  In  In516  1  0.41734200  0.26316600  0.27807430  1.0
  In  In517  1  0.41734200  0.59649933  0.27807430  1.0
  In  In518  1  0.41734200  0.92983267  0.27807430  1.0
  In  In519  1  0.75067533  0.26316600  0.27807430  1.0
  In  In520  1  0.75067533  0.59649933  0.27807430  1.0
  In  In521  1  0.75067533  0.92983267  0.27807430  1.0
  In  In522  1  0.27700733  0.23683400  0.29387350  1.0
  In  In523  1  0.27700733  0.57016733  0.29387350  1.0
  In  In524  1  0.27700733  0.90350067  0.29387350  1.0
  In  In525  1  0.61034067  0.23683400  0.29387350  1.0
  In  In526  1  0.61034067  0.57016733  0.29387350  1.0
  In  In527  1  0.61034067  0.90350067  0.29387350  1.0
  In  In528  1  0.94367400  0.23683400  0.29387350  1.0
  In  In529  1  0.94367400  0.57016733  0.29387350  1.0
  In  In530  1  0.94367400  0.90350067  0.29387350  1.0
  In  In531  1  0.27700733  0.07016733  0.39387350  1.0
  In  In532  1  0.27700733  0.40350067  0.39387350  1.0
  In  In533  1  0.27700733  0.73683400  0.39387350  1.0
  In  In534  1  0.61034067  0.07016733  0.39387350  1.0
  In  In535  1  0.61034067  0.40350067  0.39387350  1.0
  In  In536  1  0.61034067  0.73683400  0.39387350  1.0
  In  In537  1  0.94367400  0.07016733  0.39387350  1.0
  In  In538  1  0.94367400  0.40350067  0.39387350  1.0
  In  In539  1  0.94367400  0.73683400  0.39387350  1.0
  In  In540  1  0.05739767  0.00000000  0.27509590  1.0
  In  In541  1  0.05739767  0.33333333  0.27509590  1.0
  In  In542  1  0.05739767  0.66666667  0.27509590  1.0
  In  In543  1  0.39073100  0.00000000  0.27509590  1.0
  In  In544  1  0.39073100  0.33333333  0.27509590  1.0
  In  In545  1  0.39073100  0.66666667  0.27509590  1.0
  In  In546  1  0.72406433  0.00000000  0.27509590  1.0
  In  In547  1  0.72406433  0.33333333  0.27509590  1.0
  In  In548  1  0.72406433  0.66666667  0.27509590  1.0
  In  In549  1  0.05739767  0.16666667  0.37509590  1.0
  In  In550  1  0.05739767  0.50000000  0.37509590  1.0
  In  In551  1  0.05739767  0.83333333  0.37509590  1.0
  In  In552  1  0.39073100  0.16666667  0.37509590  1.0
  In  In553  1  0.39073100  0.50000000  0.37509590  1.0
  In  In554  1  0.39073100  0.83333333  0.37509590  1.0
  In  In555  1  0.72406433  0.16666667  0.37509590  1.0
  In  In556  1  0.72406433  0.50000000  0.37509590  1.0
  In  In557  1  0.72406433  0.83333333  0.37509590  1.0
  Ni  Ni558  1  0.15132200  0.08018183  0.31800660  1.0
  Ni  Ni559  1  0.15132200  0.41351517  0.31800660  1.0
  Ni  Ni560  1  0.15132200  0.74684850  0.31800660  1.0
  Ni  Ni561  1  0.48465533  0.08018183  0.31800660  1.0
  Ni  Ni562  1  0.48465533  0.41351517  0.31800660  1.0
  Ni  Ni563  1  0.48465533  0.74684850  0.31800660  1.0
  Ni  Ni564  1  0.81798867  0.08018183  0.31800660  1.0
  Ni  Ni565  1  0.81798867  0.41351517  0.31800660  1.0
  Ni  Ni566  1  0.81798867  0.74684850  0.31800660  1.0
  Ni  Ni567  1  0.15132200  0.24684850  0.21800660  1.0
  Ni  Ni568  1  0.15132200  0.58018183  0.21800660  1.0
  Ni  Ni569  1  0.15132200  0.91351517  0.21800660  1.0
  Ni  Ni570  1  0.48465533  0.24684850  0.21800660  1.0
  Ni  Ni571  1  0.48465533  0.58018183  0.21800660  1.0
  Ni  Ni572  1  0.48465533  0.91351517  0.21800660  1.0
  Ni  Ni573  1  0.81798867  0.24684850  0.21800660  1.0
  Ni  Ni574  1  0.81798867  0.58018183  0.21800660  1.0
  Ni  Ni575  1  0.81798867  0.91351517  0.21800660  1.0
  Ni  Ni576  1  0.16666667  0.08333333  0.24795210  1.0
  Ni  Ni577  1  0.16666667  0.41666667  0.24795210  1.0
  Ni  Ni578  1  0.16666667  0.75000000  0.24795210  1.0
  Ni  Ni579  1  0.50000000  0.08333333  0.24795210  1.0
  Ni  Ni580  1  0.50000000  0.41666667  0.24795210  1.0
  Ni  Ni581  1  0.50000000  0.75000000  0.24795210  1.0
  Ni  Ni582  1  0.83333333  0.08333333  0.24795210  1.0
  Ni  Ni583  1  0.83333333  0.41666667  0.24795210  1.0
  Ni  Ni584  1  0.83333333  0.75000000  0.24795210  1.0
  Ni  Ni585  1  0.16666667  0.25000000  0.34795210  1.0
  Ni  Ni586  1  0.16666667  0.58333333  0.34795210  1.0
  Ni  Ni587  1  0.16666667  0.91666667  0.34795210  1.0
  Ni  Ni588  1  0.50000000  0.25000000  0.34795210  1.0
  Ni  Ni589  1  0.50000000  0.58333333  0.34795210  1.0
  Ni  Ni590  1  0.50000000  0.91666667  0.34795210  1.0
  Ni  Ni591  1  0.83333333  0.25000000  0.34795210  1.0
  Ni  Ni592  1  0.83333333  0.58333333  0.34795210  1.0
  Ni  Ni593  1  0.83333333  0.91666667  0.34795210  1.0
  Ni  Ni594  1  0.15176800  0.00000000  0.26253290  1.0
  Ni  Ni595  1  0.15176800  0.33333333  0.26253290  1.0
  Ni  Ni596  1  0.15176800  0.66666667  0.26253290  1.0
  Ni  Ni597  1  0.48510133  0.00000000  0.26253290  1.0
  Ni  Ni598  1  0.48510133  0.33333333  0.26253290  1.0
  Ni  Ni599  1  0.48510133  0.66666667  0.26253290  1.0
  Ni  Ni600  1  0.81843467  0.00000000  0.26253290  1.0
  Ni  Ni601  1  0.81843467  0.33333333  0.26253290  1.0
  Ni  Ni602  1  0.81843467  0.66666667  0.26253290  1.0
  Ni  Ni603  1  0.15176800  0.16666667  0.36253290  1.0
  Ni  Ni604  1  0.15176800  0.50000000  0.36253290  1.0
  Ni  Ni605  1  0.15176800  0.83333333  0.36253290  1.0
  Ni  Ni606  1  0.48510133  0.16666667  0.36253290  1.0
  Ni  Ni607  1  0.48510133  0.50000000  0.36253290  1.0
  Ni  Ni608  1  0.48510133  0.83333333  0.36253290  1.0
  Ni  Ni609  1  0.81843467  0.16666667  0.36253290  1.0
  Ni  Ni610  1  0.81843467  0.50000000  0.36253290  1.0
  Ni  Ni611  1  0.81843467  0.83333333  0.36253290  1.0
  Ni  Ni612  1  0.31168567  0.25315150  0.21422480  1.0
  Ni  Ni613  1  0.31168567  0.58648483  0.21422480  1.0
  Ni  Ni614  1  0.31168567  0.91981817  0.21422480  1.0
  Ni  Ni615  1  0.64501900  0.25315150  0.21422480  1.0
  Ni  Ni616  1  0.64501900  0.58648483  0.21422480  1.0
  Ni  Ni617  1  0.64501900  0.91981817  0.21422480  1.0
  Ni  Ni618  1  0.97835233  0.25315150  0.21422480  1.0
  Ni  Ni619  1  0.97835233  0.58648483  0.21422480  1.0
  Ni  Ni620  1  0.97835233  0.91981817  0.21422480  1.0
  Ni  Ni621  1  0.31168567  0.08648483  0.31422480  1.0
  Ni  Ni622  1  0.31168567  0.41981817  0.31422480  1.0
  Ni  Ni623  1  0.31168567  0.75315150  0.31422480  1.0
  Ni  Ni624  1  0.64501900  0.08648483  0.31422480  1.0
  Ni  Ni625  1  0.64501900  0.41981817  0.31422480  1.0
  Ni  Ni626  1  0.64501900  0.75315150  0.31422480  1.0
  Ni  Ni627  1  0.97835233  0.08648483  0.31422480  1.0
  Ni  Ni628  1  0.97835233  0.41981817  0.31422480  1.0
  Ni  Ni629  1  0.97835233  0.75315150  0.31422480  1.0
  Ni  Ni630  1  0.18156533  0.00000000  0.33337130  1.0
  Ni  Ni631  1  0.18156533  0.33333333  0.33337130  1.0
  Ni  Ni632  1  0.18156533  0.66666667  0.33337130  1.0
  Ni  Ni633  1  0.51489867  0.00000000  0.33337130  1.0
  Ni  Ni634  1  0.51489867  0.33333333  0.33337130  1.0
  Ni  Ni635  1  0.51489867  0.66666667  0.33337130  1.0
  Ni  Ni636  1  0.84823200  0.00000000  0.33337130  1.0
  Ni  Ni637  1  0.84823200  0.33333333  0.33337130  1.0
  Ni  Ni638  1  0.84823200  0.66666667  0.33337130  1.0
  Ni  Ni639  1  0.18156533  0.16666667  0.23337130  1.0
  Ni  Ni640  1  0.18156533  0.50000000  0.23337130  1.0
  Ni  Ni641  1  0.18156533  0.83333333  0.23337130  1.0
  Ni  Ni642  1  0.51489867  0.16666667  0.23337130  1.0
  Ni  Ni643  1  0.51489867  0.50000000  0.23337130  1.0
  Ni  Ni644  1  0.51489867  0.83333333  0.23337130  1.0
  Ni  Ni645  1  0.84823200  0.16666667  0.23337130  1.0
  Ni  Ni646  1  0.84823200  0.50000000  0.23337130  1.0
  Ni  Ni647  1  0.84823200  0.83333333  0.23337130  1.0
  Ni  Ni648  1  0.24452867  0.25547133  0.34466930  1.0
  Ni  Ni649  1  0.24452867  0.58880467  0.34466930  1.0
  Ni  Ni650  1  0.24452867  0.92213800  0.34466930  1.0
  Ni  Ni651  1  0.57786200  0.25547133  0.34466930  1.0
  Ni  Ni652  1  0.57786200  0.58880467  0.34466930  1.0
  Ni  Ni653  1  0.57786200  0.92213800  0.34466930  1.0
  Ni  Ni654  1  0.91119533  0.25547133  0.34466930  1.0
  Ni  Ni655  1  0.91119533  0.58880467  0.34466930  1.0
  Ni  Ni656  1  0.91119533  0.92213800  0.34466930  1.0
  Ni  Ni657  1  0.24452867  0.08880467  0.24466930  1.0
  Ni  Ni658  1  0.24452867  0.42213800  0.24466930  1.0
  Ni  Ni659  1  0.24452867  0.75547133  0.24466930  1.0
  Ni  Ni660  1  0.57786200  0.08880467  0.24466930  1.0
  Ni  Ni661  1  0.57786200  0.42213800  0.24466930  1.0
  Ni  Ni662  1  0.57786200  0.75547133  0.24466930  1.0
  Ni  Ni663  1  0.91119533  0.08880467  0.24466930  1.0
  Ni  Ni664  1  0.91119533  0.42213800  0.24466930  1.0
  Ni  Ni665  1  0.91119533  0.75547133  0.24466930  1.0
  Ni  Ni666  1  0.24712100  0.00000000  0.20204790  1.0
  Ni  Ni667  1  0.24712100  0.33333333  0.20204790  1.0
  Ni  Ni668  1  0.24712100  0.66666667  0.20204790  1.0
  Ni  Ni669  1  0.58045433  0.00000000  0.20204790  1.0
  Ni  Ni670  1  0.58045433  0.33333333  0.20204790  1.0
  Ni  Ni671  1  0.58045433  0.66666667  0.20204790  1.0
  Ni  Ni672  1  0.91378767  0.00000000  0.20204790  1.0
  Ni  Ni673  1  0.91378767  0.33333333  0.20204790  1.0
  Ni  Ni674  1  0.91378767  0.66666667  0.20204790  1.0
  Ni  Ni675  1  0.24712100  0.16666667  0.30204790  1.0
  Ni  Ni676  1  0.24712100  0.50000000  0.30204790  1.0
  Ni  Ni677  1  0.24712100  0.83333333  0.30204790  1.0
  Ni  Ni678  1  0.58045433  0.16666667  0.30204790  1.0
  Ni  Ni679  1  0.58045433  0.50000000  0.30204790  1.0
  Ni  Ni680  1  0.58045433  0.83333333  0.30204790  1.0
  Ni  Ni681  1  0.91378767  0.16666667  0.30204790  1.0
  Ni  Ni682  1  0.91378767  0.50000000  0.30204790  1.0
  Ni  Ni683  1  0.91378767  0.83333333  0.30204790  1.0
  Ni  Ni684  1  0.02164767  0.08018183  0.38167940  1.0
  Ni  Ni685  1  0.02164767  0.41351517  0.38167940  1.0
  Ni  Ni686  1  0.02164767  0.74684850  0.38167940  1.0
  Ni  Ni687  1  0.35498100  0.08018183  0.38167940  1.0
  Ni  Ni688  1  0.35498100  0.41351517  0.38167940  1.0
  Ni  Ni689  1  0.35498100  0.74684850  0.38167940  1.0
  Ni  Ni690  1  0.68831433  0.08018183  0.38167940  1.0
  Ni  Ni691  1  0.68831433  0.41351517  0.38167940  1.0
  Ni  Ni692  1  0.68831433  0.74684850  0.38167940  1.0
  Ni  Ni693  1  0.02164767  0.24684850  0.28167940  1.0
  Ni  Ni694  1  0.02164767  0.58018183  0.28167940  1.0
  Ni  Ni695  1  0.02164767  0.91351517  0.28167940  1.0
  Ni  Ni696  1  0.35498100  0.24684850  0.28167940  1.0
  Ni  Ni697  1  0.35498100  0.58018183  0.28167940  1.0
  Ni  Ni698  1  0.35498100  0.91351517  0.28167940  1.0
  Ni  Ni699  1  0.68831433  0.24684850  0.28167940  1.0
  Ni  Ni700  1  0.68831433  0.58018183  0.28167940  1.0
  Ni  Ni701  1  0.68831433  0.91351517  0.28167940  1.0
  Ni  Ni702  1  0.08621233  0.00000000  0.39385630  1.0
  Ni  Ni703  1  0.08621233  0.33333333  0.39385630  1.0
  Ni  Ni704  1  0.08621233  0.66666667  0.39385630  1.0
  Ni  Ni705  1  0.41954567  0.00000000  0.39385630  1.0
  Ni  Ni706  1  0.41954567  0.33333333  0.39385630  1.0
  Ni  Ni707  1  0.41954567  0.66666667  0.39385630  1.0
  Ni  Ni708  1  0.75287900  0.00000000  0.39385630  1.0
  Ni  Ni709  1  0.75287900  0.33333333  0.39385630  1.0
  Ni  Ni710  1  0.75287900  0.66666667  0.39385630  1.0
  Ni  Ni711  1  0.08621233  0.16666667  0.29385630  1.0
  Ni  Ni712  1  0.08621233  0.50000000  0.29385630  1.0
  Ni  Ni713  1  0.08621233  0.83333333  0.29385630  1.0
  Ni  Ni714  1  0.41954567  0.16666667  0.29385630  1.0
  Ni  Ni715  1  0.41954567  0.50000000  0.29385630  1.0
  Ni  Ni716  1  0.41954567  0.83333333  0.29385630  1.0
  Ni  Ni717  1  0.75287900  0.16666667  0.29385630  1.0
  Ni  Ni718  1  0.75287900  0.50000000  0.29385630  1.0
  Ni  Ni719  1  0.75287900  0.83333333  0.29385630  1.0
  Ni  Ni720  1  0.18201133  0.25315150  0.27789760  1.0
  Ni  Ni721  1  0.18201133  0.58648483  0.27789760  1.0
  Ni  Ni722  1  0.18201133  0.91981817  0.27789760  1.0
  Ni  Ni723  1  0.51534467  0.25315150  0.27789760  1.0
  Ni  Ni724  1  0.51534467  0.58648483  0.27789760  1.0
  Ni  Ni725  1  0.51534467  0.91981817  0.27789760  1.0
  Ni  Ni726  1  0.84867800  0.25315150  0.27789760  1.0
  Ni  Ni727  1  0.84867800  0.58648483  0.27789760  1.0
  Ni  Ni728  1  0.84867800  0.91981817  0.27789760  1.0
  Ni  Ni729  1  0.18201133  0.08648483  0.37789760  1.0
  Ni  Ni730  1  0.18201133  0.41981817  0.37789760  1.0
  Ni  Ni731  1  0.18201133  0.75315150  0.37789760  1.0
  Ni  Ni732  1  0.51534467  0.08648483  0.37789760  1.0
  Ni  Ni733  1  0.51534467  0.41981817  0.37789760  1.0
  Ni  Ni734  1  0.51534467  0.75315150  0.37789760  1.0
  Ni  Ni735  1  0.84867800  0.08648483  0.37789760  1.0
  Ni  Ni736  1  0.84867800  0.41981817  0.37789760  1.0
  Ni  Ni737  1  0.84867800  0.75315150  0.37789760  1.0
  Ni  Ni738  1  0.08880467  0.07786200  0.25123490  1.0
  Ni  Ni739  1  0.08880467  0.41119533  0.25123490  1.0
  Ni  Ni740  1  0.08880467  0.74452867  0.25123490  1.0
  Ni  Ni741  1  0.42213800  0.07786200  0.25123490  1.0
  Ni  Ni742  1  0.42213800  0.41119533  0.25123490  1.0
  Ni  Ni743  1  0.42213800  0.74452867  0.25123490  1.0
  Ni  Ni744  1  0.75547133  0.07786200  0.25123490  1.0
  Ni  Ni745  1  0.75547133  0.41119533  0.25123490  1.0
  Ni  Ni746  1  0.75547133  0.74452867  0.25123490  1.0
  Ni  Ni747  1  0.08880467  0.24452867  0.35123490  1.0
  Ni  Ni748  1  0.08880467  0.57786200  0.35123490  1.0
  Ni  Ni749  1  0.08880467  0.91119533  0.35123490  1.0
  Ni  Ni750  1  0.42213800  0.24452867  0.35123490  1.0
  Ni  Ni751  1  0.42213800  0.57786200  0.35123490  1.0
  Ni  Ni752  1  0.42213800  0.91119533  0.35123490  1.0
  Ni  Ni753  1  0.75547133  0.24452867  0.35123490  1.0
  Ni  Ni754  1  0.75547133  0.57786200  0.35123490  1.0
  Ni  Ni755  1  0.75547133  0.91119533  0.35123490  1.0
  Ni  Ni756  1  0.00000000  0.16666667  0.29795210  1.0
  Ni  Ni757  1  0.00000000  0.50000000  0.29795210  1.0
  Ni  Ni758  1  0.00000000  0.83333333  0.29795210  1.0
  Ni  Ni759  1  0.33333333  0.16666667  0.29795210  1.0
  Ni  Ni760  1  0.33333333  0.50000000  0.29795210  1.0
  Ni  Ni761  1  0.33333333  0.83333333  0.29795210  1.0
  Ni  Ni762  1  0.66666667  0.16666667  0.29795210  1.0
  Ni  Ni763  1  0.66666667  0.50000000  0.29795210  1.0
  Ni  Ni764  1  0.66666667  0.83333333  0.29795210  1.0
  Ni  Ni765  1  0.00000000  0.00000000  0.39795210  1.0
  Ni  Ni766  1  0.00000000  0.33333333  0.39795210  1.0
  Ni  Ni767  1  0.00000000  0.66666667  0.39795210  1.0
  Ni  Ni768  1  0.33333333  0.00000000  0.39795210  1.0
  Ni  Ni769  1  0.33333333  0.33333333  0.39795210  1.0
  Ni  Ni770  1  0.33333333  0.66666667  0.39795210  1.0
  Ni  Ni771  1  0.66666667  0.00000000  0.39795210  1.0
  Ni  Ni772  1  0.66666667  0.33333333  0.39795210  1.0
  Ni  Ni773  1  0.66666667  0.66666667  0.39795210  1.0
  Ni  Ni774  1  0.00000000  0.08333333  0.24795210  1.0
  Ni  Ni775  1  0.00000000  0.41666667  0.24795210  1.0
  Ni  Ni776  1  0.00000000  0.75000000  0.24795210  1.0
  Ni  Ni777  1  0.33333333  0.08333333  0.24795210  1.0
  Ni  Ni778  1  0.33333333  0.41666667  0.24795210  1.0
  Ni  Ni779  1  0.33333333  0.75000000  0.24795210  1.0
  Ni  Ni780  1  0.66666667  0.08333333  0.24795210  1.0
  Ni  Ni781  1  0.66666667  0.41666667  0.24795210  1.0
  Ni  Ni782  1  0.66666667  0.75000000  0.24795210  1.0
  Ni  Ni783  1  0.00000000  0.25000000  0.34795210  1.0
  Ni  Ni784  1  0.00000000  0.58333333  0.34795210  1.0
  Ni  Ni785  1  0.00000000  0.91666667  0.34795210  1.0
  Ni  Ni786  1  0.33333333  0.25000000  0.34795210  1.0
  Ni  Ni787  1  0.33333333  0.58333333  0.34795210  1.0
  Ni  Ni788  1  0.33333333  0.91666667  0.34795210  1.0
  Ni  Ni789  1  0.66666667  0.25000000  0.34795210  1.0
  Ni  Ni790  1  0.66666667  0.58333333  0.34795210  1.0
  Ni  Ni791  1  0.66666667  0.91666667  0.34795210  1.0
