# generated using pymatgen
data_In9Ni13
_symmetry_space_group_name_H-M   'P 1'
_cell_length_a   25.60289559
_cell_length_b   37.23140660
_cell_length_c   32.16395115
_cell_angle_alpha   98.62333829
_cell_angle_beta   93.37539196
_cell_angle_gamma   100.38714978
_symmetry_Int_Tables_number   1
_chemical_formula_structural   In9Ni13
_chemical_formula_sum   'In324 Ni468'
_cell_volume   29699.75837973
_cell_formula_units_Z   36
loop_
 _symmetry_equiv_pos_site_id
 _symmetry_equiv_pos_as_xyz
  1  'x, y, z'
loop_
 _atom_site_type_symbol
 _atom_site_label
 _atom_site_symmetry_multiplicity
 _atom_site_fract_x
 _atom_site_fract_y
 _atom_site_fract_z
 _atom_site_occupancy
  In  In0  1  0.00847523  0.07368917  0.00553280  1.0
  In  In1  1  0.00847523  0.40702250  0.00553280  1.0
  In  In2  1  0.00847523  0.74035583  0.00553280  1.0
  In  In3  1  0.34180857  0.07368917  0.00553280  1.0
  In  In4  1  0.34180857  0.40702250  0.00553280  1.0
  In  In5  1  0.34180857  0.74035583  0.00553280  1.0
  In  In6  1  0.67514190  0.07368917  0.00553280  1.0
  In  In7  1  0.67514190  0.40702250  0.00553280  1.0
  In  In8  1  0.67514190  0.74035583  0.00553280  1.0
  In  In9  1  0.14180857  0.24035583  0.10553280  1.0
  In  In10  1  0.14180857  0.57368917  0.10553280  1.0
  In  In11  1  0.14180857  0.90702250  0.10553280  1.0
  In  In12  1  0.47514190  0.24035583  0.10553280  1.0
  In  In13  1  0.47514190  0.57368917  0.10553280  1.0
  In  In14  1  0.47514190  0.90702250  0.10553280  1.0
  In  In15  1  0.80847523  0.24035583  0.10553280  1.0
  In  In16  1  0.80847523  0.57368917  0.10553280  1.0
  In  In17  1  0.80847523  0.90702250  0.10553280  1.0
  In  In18  1  0.26929743  0.09298533  0.08534470  1.0
  In  In19  1  0.26929743  0.42631867  0.08534470  1.0
  In  In20  1  0.26929743  0.75965200  0.08534470  1.0
  In  In21  1  0.60263077  0.09298533  0.08534470  1.0
  In  In22  1  0.60263077  0.42631867  0.08534470  1.0
  In  In23  1  0.60263077  0.75965200  0.08534470  1.0
  In  In24  1  0.93596410  0.09298533  0.08534470  1.0
  In  In25  1  0.93596410  0.42631867  0.08534470  1.0
  In  In26  1  0.93596410  0.75965200  0.08534470  1.0
  In  In27  1  0.06929743  0.25965200  0.18534470  1.0
  In  In28  1  0.06929743  0.59298533  0.18534470  1.0
  In  In29  1  0.06929743  0.92631867  0.18534470  1.0
  In  In30  1  0.40263077  0.25965200  0.18534470  1.0
  In  In31  1  0.40263077  0.59298533  0.18534470  1.0
  In  In32  1  0.40263077  0.92631867  0.18534470  1.0
  In  In33  1  0.73596410  0.25965200  0.18534470  1.0
  In  In34  1  0.73596410  0.59298533  0.18534470  1.0
  In  In35  1  0.73596410  0.92631867  0.18534470  1.0
  In  In36  1  0.22042370  0.15882167  0.14744390  1.0
  In  In37  1  0.22042370  0.49215500  0.14744390  1.0
  In  In38  1  0.22042370  0.82548833  0.14744390  1.0
  In  In39  1  0.55375703  0.15882167  0.14744390  1.0
  In  In40  1  0.55375703  0.49215500  0.14744390  1.0
  In  In41  1  0.55375703  0.82548833  0.14744390  1.0
  In  In42  1  0.88709037  0.15882167  0.14744390  1.0
  In  In43  1  0.88709037  0.49215500  0.14744390  1.0
  In  In44  1  0.88709037  0.82548833  0.14744390  1.0
  In  In45  1  0.08709037  0.32548833  0.04744390  1.0
  In  In46  1  0.08709037  0.65882167  0.04744390  1.0
  In  In47  1  0.08709037  0.99215500  0.04744390  1.0
  In  In48  1  0.42042370  0.32548833  0.04744390  1.0
  In  In49  1  0.42042370  0.65882167  0.04744390  1.0
  In  In50  1  0.42042370  0.99215500  0.04744390  1.0
  In  In51  1  0.75375703  0.32548833  0.04744390  1.0
  In  In52  1  0.75375703  0.65882167  0.04744390  1.0
  In  In53  1  0.75375703  0.99215500  0.04744390  1.0
  In  In54  1  0.05760777  0.17018850  0.14763320  1.0
  In  In55  1  0.05760777  0.50352183  0.14763320  1.0
  In  In56  1  0.05760777  0.83685517  0.14763320  1.0
  In  In57  1  0.39094110  0.17018850  0.14763320  1.0
  In  In58  1  0.39094110  0.50352183  0.14763320  1.0
  In  In59  1  0.39094110  0.83685517  0.14763320  1.0
  In  In60  1  0.72427443  0.17018850  0.14763320  1.0
  In  In61  1  0.72427443  0.50352183  0.14763320  1.0
  In  In62  1  0.72427443  0.83685517  0.14763320  1.0
  In  In63  1  0.25760777  0.00352183  0.04763320  1.0
  In  In64  1  0.25760777  0.33685517  0.04763320  1.0
  In  In65  1  0.25760777  0.67018850  0.04763320  1.0
  In  In66  1  0.59094110  0.00352183  0.04763320  1.0
  In  In67  1  0.59094110  0.33685517  0.04763320  1.0
  In  In68  1  0.59094110  0.67018850  0.04763320  1.0
  In  In69  1  0.92427443  0.00352183  0.04763320  1.0
  In  In70  1  0.92427443  0.33685517  0.04763320  1.0
  In  In71  1  0.92427443  0.67018850  0.04763320  1.0
  In  In72  1  0.04949970  0.17451167  0.04278590  1.0
  In  In73  1  0.04949970  0.50784500  0.04278590  1.0
  In  In74  1  0.04949970  0.84117833  0.04278590  1.0
  In  In75  1  0.38283303  0.17451167  0.04278590  1.0
  In  In76  1  0.38283303  0.50784500  0.04278590  1.0
  In  In77  1  0.38283303  0.84117833  0.04278590  1.0
  In  In78  1  0.71616637  0.17451167  0.04278590  1.0
  In  In79  1  0.71616637  0.50784500  0.04278590  1.0
  In  In80  1  0.71616637  0.84117833  0.04278590  1.0
  In  In81  1  0.18283303  0.00784500  0.14278590  1.0
  In  In82  1  0.18283303  0.34117833  0.14278590  1.0
  In  In83  1  0.18283303  0.67451167  0.14278590  1.0
  In  In84  1  0.51616637  0.00784500  0.14278590  1.0
  In  In85  1  0.51616637  0.34117833  0.14278590  1.0
  In  In86  1  0.51616637  0.67451167  0.14278590  1.0
  In  In87  1  0.84949970  0.00784500  0.14278590  1.0
  In  In88  1  0.84949970  0.34117833  0.14278590  1.0
  In  In89  1  0.84949970  0.67451167  0.14278590  1.0
  In  In90  1  0.23496170  0.25000000  0.04511490  1.0
  In  In91  1  0.23496170  0.58333333  0.04511490  1.0
  In  In92  1  0.23496170  0.91666667  0.04511490  1.0
  In  In93  1  0.56829503  0.25000000  0.04511490  1.0
  In  In94  1  0.56829503  0.58333333  0.04511490  1.0
  In  In95  1  0.56829503  0.91666667  0.04511490  1.0
  In  In96  1  0.90162837  0.25000000  0.04511490  1.0
  In  In97  1  0.90162837  0.58333333  0.04511490  1.0
  In  In98  1  0.90162837  0.91666667  0.04511490  1.0
  In  In99  1  0.03496170  0.08333333  0.14511490  1.0
  In  In100  1  0.03496170  0.41666667  0.14511490  1.0
  In  In101  1  0.03496170  0.75000000  0.14511490  1.0
  In  In102  1  0.36829503  0.08333333  0.14511490  1.0
  In  In103  1  0.36829503  0.41666667  0.14511490  1.0
  In  In104  1  0.36829503  0.75000000  0.14511490  1.0
  In  In105  1  0.70162837  0.08333333  0.14511490  1.0
  In  In106  1  0.70162837  0.41666667  0.14511490  1.0
  In  In107  1  0.70162837  0.75000000  0.14511490  1.0
  In  In108  1  0.26144817  0.25964417  0.18469700  1.0
  In  In109  1  0.26144817  0.59297750  0.18469700  1.0
  In  In110  1  0.26144817  0.92631083  0.18469700  1.0
  In  In111  1  0.59478150  0.25964417  0.18469700  1.0
  In  In112  1  0.59478150  0.59297750  0.18469700  1.0
  In  In113  1  0.59478150  0.92631083  0.18469700  1.0
  In  In114  1  0.92811483  0.25964417  0.18469700  1.0
  In  In115  1  0.92811483  0.59297750  0.18469700  1.0
  In  In116  1  0.92811483  0.92631083  0.18469700  1.0
  In  In117  1  0.12811483  0.09297750  0.08469700  1.0
  In  In118  1  0.12811483  0.42631083  0.08469700  1.0
  In  In119  1  0.12811483  0.75964417  0.08469700  1.0
  In  In120  1  0.46144817  0.09297750  0.08469700  1.0
  In  In121  1  0.46144817  0.42631083  0.08469700  1.0
  In  In122  1  0.46144817  0.75964417  0.08469700  1.0
  In  In123  1  0.79478150  0.09297750  0.08469700  1.0
  In  In124  1  0.79478150  0.42631083  0.08469700  1.0
  In  In125  1  0.79478150  0.75964417  0.08469700  1.0
  In  In126  1  0.21231563  0.16314483  0.04259660  1.0
  In  In127  1  0.21231563  0.49647817  0.04259660  1.0
  In  In128  1  0.21231563  0.82981150  0.04259660  1.0
  In  In129  1  0.54564897  0.16314483  0.04259660  1.0
  In  In130  1  0.54564897  0.49647817  0.04259660  1.0
  In  In131  1  0.54564897  0.82981150  0.04259660  1.0
  In  In132  1  0.87898230  0.16314483  0.04259660  1.0
  In  In133  1  0.87898230  0.49647817  0.04259660  1.0
  In  In134  1  0.87898230  0.82981150  0.04259660  1.0
  In  In135  1  0.01231563  0.32981150  0.14259660  1.0
  In  In136  1  0.01231563  0.66314483  0.14259660  1.0
  In  In137  1  0.01231563  0.99647817  0.14259660  1.0
  In  In138  1  0.34564897  0.32981150  0.14259660  1.0
  In  In139  1  0.34564897  0.66314483  0.14259660  1.0
  In  In140  1  0.34564897  0.99647817  0.14259660  1.0
  In  In141  1  0.67898230  0.32981150  0.14259660  1.0
  In  In142  1  0.67898230  0.66314483  0.14259660  1.0
  In  In143  1  0.67898230  0.99647817  0.14259660  1.0
  In  In144  1  0.00062597  0.24034800  0.10488510  1.0
  In  In145  1  0.00062597  0.57368133  0.10488510  1.0
  In  In146  1  0.00062597  0.90701467  0.10488510  1.0
  In  In147  1  0.33395930  0.24034800  0.10488510  1.0
  In  In148  1  0.33395930  0.57368133  0.10488510  1.0
  In  In149  1  0.33395930  0.90701467  0.10488510  1.0
  In  In150  1  0.66729263  0.24034800  0.10488510  1.0
  In  In151  1  0.66729263  0.57368133  0.10488510  1.0
  In  In152  1  0.66729263  0.90701467  0.10488510  1.0
  In  In153  1  0.20062597  0.07368133  0.00488510  1.0
  In  In154  1  0.20062597  0.40701467  0.00488510  1.0
  In  In155  1  0.20062597  0.74034800  0.00488510  1.0
  In  In156  1  0.53395930  0.07368133  0.00488510  1.0
  In  In157  1  0.53395930  0.40701467  0.00488510  1.0
  In  In158  1  0.53395930  0.74034800  0.00488510  1.0
  In  In159  1  0.86729263  0.07368133  0.00488510  1.0
  In  In160  1  0.86729263  0.40701467  0.00488510  1.0
  In  In161  1  0.86729263  0.74034800  0.00488510  1.0
  In  In162  1  0.27514190  0.07368917  0.20553280  1.0
  In  In163  1  0.27514190  0.40702250  0.20553280  1.0
  In  In164  1  0.27514190  0.74035583  0.20553280  1.0
  In  In165  1  0.60847523  0.07368917  0.20553280  1.0
  In  In166  1  0.60847523  0.40702250  0.20553280  1.0
  In  In167  1  0.60847523  0.74035583  0.20553280  1.0
  In  In168  1  0.94180857  0.07368917  0.20553280  1.0
  In  In169  1  0.94180857  0.40702250  0.20553280  1.0
  In  In170  1  0.94180857  0.74035583  0.20553280  1.0
  In  In171  1  0.07514190  0.24035583  0.30553280  1.0
  In  In172  1  0.07514190  0.57368917  0.30553280  1.0
  In  In173  1  0.07514190  0.90702250  0.30553280  1.0
  In  In174  1  0.40847523  0.24035583  0.30553280  1.0
  In  In175  1  0.40847523  0.57368917  0.30553280  1.0
  In  In176  1  0.40847523  0.90702250  0.30553280  1.0
  In  In177  1  0.74180857  0.24035583  0.30553280  1.0
  In  In178  1  0.74180857  0.57368917  0.30553280  1.0
  In  In179  1  0.74180857  0.90702250  0.30553280  1.0
  In  In180  1  0.20263077  0.09298533  0.28534470  1.0
  In  In181  1  0.20263077  0.42631867  0.28534470  1.0
  In  In182  1  0.20263077  0.75965200  0.28534470  1.0
  In  In183  1  0.53596410  0.09298533  0.28534470  1.0
  In  In184  1  0.53596410  0.42631867  0.28534470  1.0
  In  In185  1  0.53596410  0.75965200  0.28534470  1.0
  In  In186  1  0.86929743  0.09298533  0.28534470  1.0
  In  In187  1  0.86929743  0.42631867  0.28534470  1.0
  In  In188  1  0.86929743  0.75965200  0.28534470  1.0
  In  In189  1  0.00263077  0.25965200  0.38534470  1.0
  In  In190  1  0.00263077  0.59298533  0.38534470  1.0
  In  In191  1  0.00263077  0.92631867  0.38534470  1.0
  In  In192  1  0.33596410  0.25965200  0.38534470  1.0
  In  In193  1  0.33596410  0.59298533  0.38534470  1.0
  In  In194  1  0.33596410  0.92631867  0.38534470  1.0
  In  In195  1  0.66929743  0.25965200  0.38534470  1.0
  In  In196  1  0.66929743  0.59298533  0.38534470  1.0
  In  In197  1  0.66929743  0.92631867  0.38534470  1.0
  In  In198  1  0.15375703  0.15882167  0.34744390  1.0
  In  In199  1  0.15375703  0.49215500  0.34744390  1.0
  In  In200  1  0.15375703  0.82548833  0.34744390  1.0
  In  In201  1  0.48709037  0.15882167  0.34744390  1.0
  In  In202  1  0.48709037  0.49215500  0.34744390  1.0
  In  In203  1  0.48709037  0.82548833  0.34744390  1.0
  In  In204  1  0.82042370  0.15882167  0.34744390  1.0
  In  In205  1  0.82042370  0.49215500  0.34744390  1.0
  In  In206  1  0.82042370  0.82548833  0.34744390  1.0
  In  In207  1  0.02042370  0.32548833  0.24744390  1.0
  In  In208  1  0.02042370  0.65882167  0.24744390  1.0
  In  In209  1  0.02042370  0.99215500  0.24744390  1.0
  In  In210  1  0.35375703  0.32548833  0.24744390  1.0
  In  In211  1  0.35375703  0.65882167  0.24744390  1.0
  In  In212  1  0.35375703  0.99215500  0.24744390  1.0
  In  In213  1  0.68709037  0.32548833  0.24744390  1.0
  In  In214  1  0.68709037  0.65882167  0.24744390  1.0
  In  In215  1  0.68709037  0.99215500  0.24744390  1.0
  In  In216  1  0.32427443  0.17018850  0.34763320  1.0
  In  In217  1  0.32427443  0.50352183  0.34763320  1.0
  In  In218  1  0.32427443  0.83685517  0.34763320  1.0
  In  In219  1  0.65760777  0.17018850  0.34763320  1.0
  In  In220  1  0.65760777  0.50352183  0.34763320  1.0
  In  In221  1  0.65760777  0.83685517  0.34763320  1.0
  In  In222  1  0.99094110  0.17018850  0.34763320  1.0
  In  In223  1  0.99094110  0.50352183  0.34763320  1.0
  In  In224  1  0.99094110  0.83685517  0.34763320  1.0
  In  In225  1  0.19094110  0.00352183  0.24763320  1.0
  In  In226  1  0.19094110  0.33685517  0.24763320  1.0
  In  In227  1  0.19094110  0.67018850  0.24763320  1.0
  In  In228  1  0.52427443  0.00352183  0.24763320  1.0
  In  In229  1  0.52427443  0.33685517  0.24763320  1.0
  In  In230  1  0.52427443  0.67018850  0.24763320  1.0
  In  In231  1  0.85760777  0.00352183  0.24763320  1.0
  In  In232  1  0.85760777  0.33685517  0.24763320  1.0
  In  In233  1  0.85760777  0.67018850  0.24763320  1.0
  In  In234  1  0.31616637  0.17451167  0.24278590  1.0
  In  In235  1  0.31616637  0.50784500  0.24278590  1.0
  In  In236  1  0.31616637  0.84117833  0.24278590  1.0
  In  In237  1  0.64949970  0.17451167  0.24278590  1.0
  In  In238  1  0.64949970  0.50784500  0.24278590  1.0
  In  In239  1  0.64949970  0.84117833  0.24278590  1.0
  In  In240  1  0.98283303  0.17451167  0.24278590  1.0
  In  In241  1  0.98283303  0.50784500  0.24278590  1.0
  In  In242  1  0.98283303  0.84117833  0.24278590  1.0
  In  In243  1  0.11616637  0.00784500  0.34278590  1.0
  In  In244  1  0.11616637  0.34117833  0.34278590  1.0
  In  In245  1  0.11616637  0.67451167  0.34278590  1.0
  In  In246  1  0.44949970  0.00784500  0.34278590  1.0
  In  In247  1  0.44949970  0.34117833  0.34278590  1.0
  In  In248  1  0.44949970  0.67451167  0.34278590  1.0
  In  In249  1  0.78283303  0.00784500  0.34278590  1.0
  In  In250  1  0.78283303  0.34117833  0.34278590  1.0
  In  In251  1  0.78283303  0.67451167  0.34278590  1.0
  In  In252  1  0.16829503  0.25000000  0.24511490  1.0
  In  In253  1  0.16829503  0.58333333  0.24511490  1.0
  In  In254  1  0.16829503  0.91666667  0.24511490  1.0
  In  In255  1  0.50162837  0.25000000  0.24511490  1.0
  In  In256  1  0.50162837  0.58333333  0.24511490  1.0
  In  In257  1  0.50162837  0.91666667  0.24511490  1.0
  In  In258  1  0.83496170  0.25000000  0.24511490  1.0
  In  In259  1  0.83496170  0.58333333  0.24511490  1.0
  In  In260  1  0.83496170  0.91666667  0.24511490  1.0
  In  In261  1  0.30162837  0.08333333  0.34511490  1.0
  In  In262  1  0.30162837  0.41666667  0.34511490  1.0
  In  In263  1  0.30162837  0.75000000  0.34511490  1.0
  In  In264  1  0.63496170  0.08333333  0.34511490  1.0
  In  In265  1  0.63496170  0.41666667  0.34511490  1.0
  In  In266  1  0.63496170  0.75000000  0.34511490  1.0
  In  In267  1  0.96829503  0.08333333  0.34511490  1.0
  In  In268  1  0.96829503  0.41666667  0.34511490  1.0
  In  In269  1  0.96829503  0.75000000  0.34511490  1.0
  In  In270  1  0.19478150  0.25964417  0.38469700  1.0
  In  In271  1  0.19478150  0.59297750  0.38469700  1.0
  In  In272  1  0.19478150  0.92631083  0.38469700  1.0
  In  In273  1  0.52811483  0.25964417  0.38469700  1.0
  In  In274  1  0.52811483  0.59297750  0.38469700  1.0
  In  In275  1  0.52811483  0.92631083  0.38469700  1.0
  In  In276  1  0.86144817  0.25964417  0.38469700  1.0
  In  In277  1  0.86144817  0.59297750  0.38469700  1.0
  In  In278  1  0.86144817  0.92631083  0.38469700  1.0
  In  In279  1  0.06144817  0.09297750  0.28469700  1.0
  In  In280  1  0.06144817  0.42631083  0.28469700  1.0
  In  In281  1  0.06144817  0.75964417  0.28469700  1.0
  In  In282  1  0.39478150  0.09297750  0.28469700  1.0
  In  In283  1  0.39478150  0.42631083  0.28469700  1.0
  In  In284  1  0.39478150  0.75964417  0.28469700  1.0
  In  In285  1  0.72811483  0.09297750  0.28469700  1.0
  In  In286  1  0.72811483  0.42631083  0.28469700  1.0
  In  In287  1  0.72811483  0.75964417  0.28469700  1.0
  In  In288  1  0.14564897  0.16314483  0.24259660  1.0
  In  In289  1  0.14564897  0.49647817  0.24259660  1.0
  In  In290  1  0.14564897  0.82981150  0.24259660  1.0
  In  In291  1  0.47898230  0.16314483  0.24259660  1.0
  In  In292  1  0.47898230  0.49647817  0.24259660  1.0
  In  In293  1  0.47898230  0.82981150  0.24259660  1.0
  In  In294  1  0.81231563  0.16314483  0.24259660  1.0
  In  In295  1  0.81231563  0.49647817  0.24259660  1.0
  In  In296  1  0.81231563  0.82981150  0.24259660  1.0
  In  In297  1  0.27898230  0.32981150  0.34259660  1.0
  In  In298  1  0.27898230  0.66314483  0.34259660  1.0
  In  In299  1  0.27898230  0.99647817  0.34259660  1.0
  In  In300  1  0.61231563  0.32981150  0.34259660  1.0
  In  In301  1  0.61231563  0.66314483  0.34259660  1.0
  In  In302  1  0.61231563  0.99647817  0.34259660  1.0
  In  In303  1  0.94564897  0.32981150  0.34259660  1.0
  In  In304  1  0.94564897  0.66314483  0.34259660  1.0
  In  In305  1  0.94564897  0.99647817  0.34259660  1.0
  In  In306  1  0.26729263  0.24034800  0.30488510  1.0
  In  In307  1  0.26729263  0.57368133  0.30488510  1.0
  In  In308  1  0.26729263  0.90701467  0.30488510  1.0
  In  In309  1  0.60062597  0.24034800  0.30488510  1.0
  In  In310  1  0.60062597  0.57368133  0.30488510  1.0
  In  In311  1  0.60062597  0.90701467  0.30488510  1.0
  In  In312  1  0.93395930  0.24034800  0.30488510  1.0
  In  In313  1  0.93395930  0.57368133  0.30488510  1.0
  In  In314  1  0.93395930  0.90701467  0.30488510  1.0
  In  In315  1  0.13395930  0.07368133  0.20488510  1.0
  In  In316  1  0.13395930  0.40701467  0.20488510  1.0
  In  In317  1  0.13395930  0.74034800  0.20488510  1.0
  In  In318  1  0.46729263  0.07368133  0.20488510  1.0
  In  In319  1  0.46729263  0.40701467  0.20488510  1.0
  In  In320  1  0.46729263  0.74034800  0.20488510  1.0
  In  In321  1  0.80062597  0.07368133  0.20488510  1.0
  In  In322  1  0.80062597  0.40701467  0.20488510  1.0
  In  In323  1  0.80062597  0.74034800  0.20488510  1.0
  Ni  Ni324  1  0.03826697  0.11753600  0.07862510  1.0
  Ni  Ni325  1  0.03826697  0.45086933  0.07862510  1.0
  Ni  Ni326  1  0.03826697  0.78420267  0.07862510  1.0
  Ni  Ni327  1  0.37160030  0.11753600  0.07862510  1.0
  Ni  Ni328  1  0.37160030  0.45086933  0.07862510  1.0
  Ni  Ni329  1  0.37160030  0.78420267  0.07862510  1.0
  Ni  Ni330  1  0.70493363  0.11753600  0.07862510  1.0
  Ni  Ni331  1  0.70493363  0.45086933  0.07862510  1.0
  Ni  Ni332  1  0.70493363  0.78420267  0.07862510  1.0
  Ni  Ni333  1  0.17160030  0.28420267  0.17862510  1.0
  Ni  Ni334  1  0.17160030  0.61753600  0.17862510  1.0
  Ni  Ni335  1  0.17160030  0.95086933  0.17862510  1.0
  Ni  Ni336  1  0.50493363  0.28420267  0.17862510  1.0
  Ni  Ni337  1  0.50493363  0.61753600  0.17862510  1.0
  Ni  Ni338  1  0.50493363  0.95086933  0.17862510  1.0
  Ni  Ni339  1  0.83826697  0.28420267  0.17862510  1.0
  Ni  Ni340  1  0.83826697  0.61753600  0.17862510  1.0
  Ni  Ni341  1  0.83826697  0.95086933  0.17862510  1.0
  Ni  Ni342  1  0.30162837  0.16666667  0.09511490  1.0
  Ni  Ni343  1  0.30162837  0.50000000  0.09511490  1.0
  Ni  Ni344  1  0.30162837  0.83333333  0.09511490  1.0
  Ni  Ni345  1  0.63496170  0.16666667  0.09511490  1.0
  Ni  Ni346  1  0.63496170  0.50000000  0.09511490  1.0
  Ni  Ni347  1  0.63496170  0.83333333  0.09511490  1.0
  Ni  Ni348  1  0.96829503  0.16666667  0.09511490  1.0
  Ni  Ni349  1  0.96829503  0.50000000  0.09511490  1.0
  Ni  Ni350  1  0.96829503  0.83333333  0.09511490  1.0
  Ni  Ni351  1  0.10162837  0.33333333  0.19511490  1.0
  Ni  Ni352  1  0.10162837  0.66666667  0.19511490  1.0
  Ni  Ni353  1  0.10162837  0.00000000  0.19511490  1.0
  Ni  Ni354  1  0.43496170  0.33333333  0.19511490  1.0
  Ni  Ni355  1  0.43496170  0.66666667  0.19511490  1.0
  Ni  Ni356  1  0.43496170  0.00000000  0.19511490  1.0
  Ni  Ni357  1  0.76829503  0.33333333  0.19511490  1.0
  Ni  Ni358  1  0.76829503  0.66666667  0.19511490  1.0
  Ni  Ni359  1  0.76829503  0.00000000  0.19511490  1.0
  Ni  Ni360  1  0.30252223  0.20363200  0.02623330  1.0
  Ni  Ni361  1  0.30252223  0.53696533  0.02623330  1.0
  Ni  Ni362  1  0.30252223  0.87029867  0.02623330  1.0
  Ni  Ni363  1  0.63585557  0.20363200  0.02623330  1.0
  Ni  Ni364  1  0.63585557  0.53696533  0.02623330  1.0
  Ni  Ni365  1  0.63585557  0.87029867  0.02623330  1.0
  Ni  Ni366  1  0.96918890  0.20363200  0.02623330  1.0
  Ni  Ni367  1  0.96918890  0.53696533  0.02623330  1.0
  Ni  Ni368  1  0.96918890  0.87029867  0.02623330  1.0
  Ni  Ni369  1  0.10252223  0.03696533  0.12623330  1.0
  Ni  Ni370  1  0.10252223  0.37029867  0.12623330  1.0
  Ni  Ni371  1  0.10252223  0.70363200  0.12623330  1.0
  Ni  Ni372  1  0.43585557  0.03696533  0.12623330  1.0
  Ni  Ni373  1  0.43585557  0.37029867  0.12623330  1.0
  Ni  Ni374  1  0.43585557  0.70363200  0.12623330  1.0
  Ni  Ni375  1  0.76918890  0.03696533  0.12623330  1.0
  Ni  Ni376  1  0.76918890  0.37029867  0.12623330  1.0
  Ni  Ni377  1  0.76918890  0.70363200  0.12623330  1.0
  Ni  Ni378  1  0.27538210  0.03735417  0.12673420  1.0
  Ni  Ni379  1  0.27538210  0.37068750  0.12673420  1.0
  Ni  Ni380  1  0.27538210  0.70402083  0.12673420  1.0
  Ni  Ni381  1  0.60871543  0.03735417  0.12673420  1.0
  Ni  Ni382  1  0.60871543  0.37068750  0.12673420  1.0
  Ni  Ni383  1  0.60871543  0.70402083  0.12673420  1.0
  Ni  Ni384  1  0.94204877  0.03735417  0.12673420  1.0
  Ni  Ni385  1  0.94204877  0.37068750  0.12673420  1.0
  Ni  Ni386  1  0.94204877  0.70402083  0.12673420  1.0
  Ni  Ni387  1  0.14204877  0.20402083  0.02673420  1.0
  Ni  Ni388  1  0.14204877  0.53735417  0.02673420  1.0
  Ni  Ni389  1  0.14204877  0.87068750  0.02673420  1.0
  Ni  Ni390  1  0.47538210  0.20402083  0.02673420  1.0
  Ni  Ni391  1  0.47538210  0.53735417  0.02673420  1.0
  Ni  Ni392  1  0.47538210  0.87068750  0.02673420  1.0
  Ni  Ni393  1  0.80871543  0.20402083  0.02673420  1.0
  Ni  Ni394  1  0.80871543  0.53735417  0.02673420  1.0
  Ni  Ni395  1  0.80871543  0.87068750  0.02673420  1.0
  Ni  Ni396  1  0.30073450  0.12970133  0.16399650  1.0
  Ni  Ni397  1  0.30073450  0.46303467  0.16399650  1.0
  Ni  Ni398  1  0.30073450  0.79636800  0.16399650  1.0
  Ni  Ni399  1  0.63406783  0.12970133  0.16399650  1.0
  Ni  Ni400  1  0.63406783  0.46303467  0.16399650  1.0
  Ni  Ni401  1  0.63406783  0.79636800  0.16399650  1.0
  Ni  Ni402  1  0.96740117  0.12970133  0.16399650  1.0
  Ni  Ni403  1  0.96740117  0.46303467  0.16399650  1.0
  Ni  Ni404  1  0.96740117  0.79636800  0.16399650  1.0
  Ni  Ni405  1  0.16740117  0.29636800  0.06399650  1.0
  Ni  Ni406  1  0.16740117  0.62970133  0.06399650  1.0
  Ni  Ni407  1  0.16740117  0.96303467  0.06399650  1.0
  Ni  Ni408  1  0.50073450  0.29636800  0.06399650  1.0
  Ni  Ni409  1  0.50073450  0.62970133  0.06399650  1.0
  Ni  Ni410  1  0.50073450  0.96303467  0.06399650  1.0
  Ni  Ni411  1  0.83406783  0.29636800  0.06399650  1.0
  Ni  Ni412  1  0.83406783  0.62970133  0.06399650  1.0
  Ni  Ni413  1  0.83406783  0.96303467  0.06399650  1.0
  Ni  Ni414  1  0.28824450  0.12773567  0.01847350  1.0
  Ni  Ni415  1  0.28824450  0.46106900  0.01847350  1.0
  Ni  Ni416  1  0.28824450  0.79440233  0.01847350  1.0
  Ni  Ni417  1  0.62157783  0.12773567  0.01847350  1.0
  Ni  Ni418  1  0.62157783  0.46106900  0.01847350  1.0
  Ni  Ni419  1  0.62157783  0.79440233  0.01847350  1.0
  Ni  Ni420  1  0.95491117  0.12773567  0.01847350  1.0
  Ni  Ni421  1  0.95491117  0.46106900  0.01847350  1.0
  Ni  Ni422  1  0.95491117  0.79440233  0.01847350  1.0
  Ni  Ni423  1  0.08824450  0.29440233  0.11847350  1.0
  Ni  Ni424  1  0.08824450  0.62773567  0.11847350  1.0
  Ni  Ni425  1  0.08824450  0.96106900  0.11847350  1.0
  Ni  Ni426  1  0.42157783  0.29440233  0.11847350  1.0
  Ni  Ni427  1  0.42157783  0.62773567  0.11847350  1.0
  Ni  Ni428  1  0.42157783  0.96106900  0.11847350  1.0
  Ni  Ni429  1  0.75491117  0.29440233  0.11847350  1.0
  Ni  Ni430  1  0.75491117  0.62773567  0.11847350  1.0
  Ni  Ni431  1  0.75491117  0.96106900  0.11847350  1.0
  Ni  Ni432  1  0.15629997  0.20635967  0.17065810  1.0
  Ni  Ni433  1  0.15629997  0.53969300  0.17065810  1.0
  Ni  Ni434  1  0.15629997  0.87302633  0.17065810  1.0
  Ni  Ni435  1  0.48963330  0.20635967  0.17065810  1.0
  Ni  Ni436  1  0.48963330  0.53969300  0.17065810  1.0
  Ni  Ni437  1  0.48963330  0.87302633  0.17065810  1.0
  Ni  Ni438  1  0.82296663  0.20635967  0.17065810  1.0
  Ni  Ni439  1  0.82296663  0.53969300  0.17065810  1.0
  Ni  Ni440  1  0.82296663  0.87302633  0.17065810  1.0
  Ni  Ni441  1  0.02296663  0.03969300  0.07065810  1.0
  Ni  Ni442  1  0.02296663  0.37302633  0.07065810  1.0
  Ni  Ni443  1  0.02296663  0.70635967  0.07065810  1.0
  Ni  Ni444  1  0.35629997  0.03969300  0.07065810  1.0
  Ni  Ni445  1  0.35629997  0.37302633  0.07065810  1.0
  Ni  Ni446  1  0.35629997  0.70635967  0.07065810  1.0
  Ni  Ni447  1  0.68963330  0.03969300  0.07065810  1.0
  Ni  Ni448  1  0.68963330  0.37302633  0.07065810  1.0
  Ni  Ni449  1  0.68963330  0.70635967  0.07065810  1.0
  Ni  Ni450  1  0.32787463  0.29597917  0.06349560  1.0
  Ni  Ni451  1  0.32787463  0.62931250  0.06349560  1.0
  Ni  Ni452  1  0.32787463  0.96264583  0.06349560  1.0
  Ni  Ni453  1  0.66120797  0.29597917  0.06349560  1.0
  Ni  Ni454  1  0.66120797  0.62931250  0.06349560  1.0
  Ni  Ni455  1  0.66120797  0.96264583  0.06349560  1.0
  Ni  Ni456  1  0.99454130  0.29597917  0.06349560  1.0
  Ni  Ni457  1  0.99454130  0.62931250  0.06349560  1.0
  Ni  Ni458  1  0.99454130  0.96264583  0.06349560  1.0
  Ni  Ni459  1  0.12787463  0.12931250  0.16349560  1.0
  Ni  Ni460  1  0.12787463  0.46264583  0.16349560  1.0
  Ni  Ni461  1  0.12787463  0.79597917  0.16349560  1.0
  Ni  Ni462  1  0.46120797  0.12931250  0.16349560  1.0
  Ni  Ni463  1  0.46120797  0.46264583  0.16349560  1.0
  Ni  Ni464  1  0.46120797  0.79597917  0.16349560  1.0
  Ni  Ni465  1  0.79454130  0.12931250  0.16349560  1.0
  Ni  Ni466  1  0.79454130  0.46264583  0.16349560  1.0
  Ni  Ni467  1  0.79454130  0.79597917  0.16349560  1.0
  Ni  Ni468  1  0.11362343  0.12697367  0.01957170  1.0
  Ni  Ni469  1  0.11362343  0.46030700  0.01957170  1.0
  Ni  Ni470  1  0.11362343  0.79364033  0.01957170  1.0
  Ni  Ni471  1  0.44695677  0.12697367  0.01957170  1.0
  Ni  Ni472  1  0.44695677  0.46030700  0.01957170  1.0
  Ni  Ni473  1  0.44695677  0.79364033  0.01957170  1.0
  Ni  Ni474  1  0.78029010  0.12697367  0.01957170  1.0
  Ni  Ni475  1  0.78029010  0.46030700  0.01957170  1.0
  Ni  Ni476  1  0.78029010  0.79364033  0.01957170  1.0
  Ni  Ni477  1  0.24695677  0.29364033  0.11957170  1.0
  Ni  Ni478  1  0.24695677  0.62697367  0.11957170  1.0
  Ni  Ni479  1  0.24695677  0.96030700  0.11957170  1.0
  Ni  Ni480  1  0.58029010  0.29364033  0.11957170  1.0
  Ni  Ni481  1  0.58029010  0.62697367  0.11957170  1.0
  Ni  Ni482  1  0.58029010  0.96030700  0.11957170  1.0
  Ni  Ni483  1  0.91362343  0.29364033  0.11957170  1.0
  Ni  Ni484  1  0.91362343  0.62697367  0.11957170  1.0
  Ni  Ni485  1  0.91362343  0.96030700  0.11957170  1.0
  Ni  Ni486  1  0.23165643  0.21579733  0.11160470  1.0
  Ni  Ni487  1  0.23165643  0.54913067  0.11160470  1.0
  Ni  Ni488  1  0.23165643  0.88246400  0.11160470  1.0
  Ni  Ni489  1  0.56498977  0.21579733  0.11160470  1.0
  Ni  Ni490  1  0.56498977  0.54913067  0.11160470  1.0
  Ni  Ni491  1  0.56498977  0.88246400  0.11160470  1.0
  Ni  Ni492  1  0.89832310  0.21579733  0.11160470  1.0
  Ni  Ni493  1  0.89832310  0.54913067  0.11160470  1.0
  Ni  Ni494  1  0.89832310  0.88246400  0.11160470  1.0
  Ni  Ni495  1  0.09832310  0.04913067  0.01160470  1.0
  Ni  Ni496  1  0.09832310  0.38246400  0.01160470  1.0
  Ni  Ni497  1  0.09832310  0.71579733  0.01160470  1.0
  Ni  Ni498  1  0.43165643  0.04913067  0.01160470  1.0
  Ni  Ni499  1  0.43165643  0.38246400  0.01160470  1.0
  Ni  Ni500  1  0.43165643  0.71579733  0.01160470  1.0
  Ni  Ni501  1  0.76498977  0.04913067  0.01160470  1.0
  Ni  Ni502  1  0.76498977  0.38246400  0.01160470  1.0
  Ni  Ni503  1  0.76498977  0.71579733  0.01160470  1.0
  Ni  Ni504  1  0.31501223  0.20559767  0.17175630  1.0
  Ni  Ni505  1  0.31501223  0.53893100  0.17175630  1.0
  Ni  Ni506  1  0.31501223  0.87226433  0.17175630  1.0
  Ni  Ni507  1  0.64834557  0.20559767  0.17175630  1.0
  Ni  Ni508  1  0.64834557  0.53893100  0.17175630  1.0
  Ni  Ni509  1  0.64834557  0.87226433  0.17175630  1.0
  Ni  Ni510  1  0.98167890  0.20559767  0.17175630  1.0
  Ni  Ni511  1  0.98167890  0.53893100  0.17175630  1.0
  Ni  Ni512  1  0.98167890  0.87226433  0.17175630  1.0
  Ni  Ni513  1  0.18167890  0.03893100  0.07175630  1.0
  Ni  Ni514  1  0.18167890  0.37226433  0.07175630  1.0
  Ni  Ni515  1  0.18167890  0.70559767  0.07175630  1.0
  Ni  Ni516  1  0.51501223  0.03893100  0.07175630  1.0
  Ni  Ni517  1  0.51501223  0.37226433  0.07175630  1.0
  Ni  Ni518  1  0.51501223  0.70559767  0.07175630  1.0
  Ni  Ni519  1  0.84834557  0.03893100  0.07175630  1.0
  Ni  Ni520  1  0.84834557  0.37226433  0.07175630  1.0
  Ni  Ni521  1  0.84834557  0.70559767  0.07175630  1.0
  Ni  Ni522  1  0.26829503  0.00000000  0.19511490  1.0
  Ni  Ni523  1  0.26829503  0.33333333  0.19511490  1.0
  Ni  Ni524  1  0.26829503  0.66666667  0.19511490  1.0
  Ni  Ni525  1  0.60162837  0.00000000  0.19511490  1.0
  Ni  Ni526  1  0.60162837  0.33333333  0.19511490  1.0
  Ni  Ni527  1  0.60162837  0.66666667  0.19511490  1.0
  Ni  Ni528  1  0.93496170  0.00000000  0.19511490  1.0
  Ni  Ni529  1  0.93496170  0.33333333  0.19511490  1.0
  Ni  Ni530  1  0.93496170  0.66666667  0.19511490  1.0
  Ni  Ni531  1  0.13496170  0.16666667  0.09511490  1.0
  Ni  Ni532  1  0.13496170  0.50000000  0.09511490  1.0
  Ni  Ni533  1  0.13496170  0.83333333  0.09511490  1.0
  Ni  Ni534  1  0.46829503  0.16666667  0.09511490  1.0
  Ni  Ni535  1  0.46829503  0.50000000  0.09511490  1.0
  Ni  Ni536  1  0.46829503  0.83333333  0.09511490  1.0
  Ni  Ni537  1  0.80162837  0.16666667  0.09511490  1.0
  Ni  Ni538  1  0.80162837  0.50000000  0.09511490  1.0
  Ni  Ni539  1  0.80162837  0.83333333  0.09511490  1.0
  Ni  Ni540  1  0.06829503  0.25000000  0.04511490  1.0
  Ni  Ni541  1  0.06829503  0.58333333  0.04511490  1.0
  Ni  Ni542  1  0.06829503  0.91666667  0.04511490  1.0
  Ni  Ni543  1  0.40162837  0.25000000  0.04511490  1.0
  Ni  Ni544  1  0.40162837  0.58333333  0.04511490  1.0
  Ni  Ni545  1  0.40162837  0.91666667  0.04511490  1.0
  Ni  Ni546  1  0.73496170  0.25000000  0.04511490  1.0
  Ni  Ni547  1  0.73496170  0.58333333  0.04511490  1.0
  Ni  Ni548  1  0.73496170  0.91666667  0.04511490  1.0
  Ni  Ni549  1  0.20162837  0.08333333  0.14511490  1.0
  Ni  Ni550  1  0.20162837  0.41666667  0.14511490  1.0
  Ni  Ni551  1  0.20162837  0.75000000  0.14511490  1.0
  Ni  Ni552  1  0.53496170  0.08333333  0.14511490  1.0
  Ni  Ni553  1  0.53496170  0.41666667  0.14511490  1.0
  Ni  Ni554  1  0.53496170  0.75000000  0.14511490  1.0
  Ni  Ni555  1  0.86829503  0.08333333  0.14511490  1.0
  Ni  Ni556  1  0.86829503  0.41666667  0.14511490  1.0
  Ni  Ni557  1  0.86829503  0.75000000  0.14511490  1.0
  Ni  Ni558  1  0.30493363  0.11753600  0.27862510  1.0
  Ni  Ni559  1  0.30493363  0.45086933  0.27862510  1.0
  Ni  Ni560  1  0.30493363  0.78420267  0.27862510  1.0
  Ni  Ni561  1  0.63826697  0.11753600  0.27862510  1.0
  Ni  Ni562  1  0.63826697  0.45086933  0.27862510  1.0
  Ni  Ni563  1  0.63826697  0.78420267  0.27862510  1.0
  Ni  Ni564  1  0.97160030  0.11753600  0.27862510  1.0
  Ni  Ni565  1  0.97160030  0.45086933  0.27862510  1.0
  Ni  Ni566  1  0.97160030  0.78420267  0.27862510  1.0
  Ni  Ni567  1  0.10493363  0.28420267  0.37862510  1.0
  Ni  Ni568  1  0.10493363  0.61753600  0.37862510  1.0
  Ni  Ni569  1  0.10493363  0.95086933  0.37862510  1.0
  Ni  Ni570  1  0.43826697  0.28420267  0.37862510  1.0
  Ni  Ni571  1  0.43826697  0.61753600  0.37862510  1.0
  Ni  Ni572  1  0.43826697  0.95086933  0.37862510  1.0
  Ni  Ni573  1  0.77160030  0.28420267  0.37862510  1.0
  Ni  Ni574  1  0.77160030  0.61753600  0.37862510  1.0
  Ni  Ni575  1  0.77160030  0.95086933  0.37862510  1.0
  Ni  Ni576  1  0.23496170  0.16666667  0.29511490  1.0
  Ni  Ni577  1  0.23496170  0.50000000  0.29511490  1.0
  Ni  Ni578  1  0.23496170  0.83333333  0.29511490  1.0
  Ni  Ni579  1  0.56829503  0.16666667  0.29511490  1.0
  Ni  Ni580  1  0.56829503  0.50000000  0.29511490  1.0
  Ni  Ni581  1  0.56829503  0.83333333  0.29511490  1.0
  Ni  Ni582  1  0.90162837  0.16666667  0.29511490  1.0
  Ni  Ni583  1  0.90162837  0.50000000  0.29511490  1.0
  Ni  Ni584  1  0.90162837  0.83333333  0.29511490  1.0
  Ni  Ni585  1  0.03496170  0.33333333  0.39511490  1.0
  Ni  Ni586  1  0.03496170  0.66666667  0.39511490  1.0
  Ni  Ni587  1  0.03496170  0.00000000  0.39511490  1.0
  Ni  Ni588  1  0.36829503  0.33333333  0.39511490  1.0
  Ni  Ni589  1  0.36829503  0.66666667  0.39511490  1.0
  Ni  Ni590  1  0.36829503  0.00000000  0.39511490  1.0
  Ni  Ni591  1  0.70162837  0.33333333  0.39511490  1.0
  Ni  Ni592  1  0.70162837  0.66666667  0.39511490  1.0
  Ni  Ni593  1  0.70162837  0.00000000  0.39511490  1.0
  Ni  Ni594  1  0.23585557  0.20363200  0.22623330  1.0
  Ni  Ni595  1  0.23585557  0.53696533  0.22623330  1.0
  Ni  Ni596  1  0.23585557  0.87029867  0.22623330  1.0
  Ni  Ni597  1  0.56918890  0.20363200  0.22623330  1.0
  Ni  Ni598  1  0.56918890  0.53696533  0.22623330  1.0
  Ni  Ni599  1  0.56918890  0.87029867  0.22623330  1.0
  Ni  Ni600  1  0.90252223  0.20363200  0.22623330  1.0
  Ni  Ni601  1  0.90252223  0.53696533  0.22623330  1.0
  Ni  Ni602  1  0.90252223  0.87029867  0.22623330  1.0
  Ni  Ni603  1  0.03585557  0.03696533  0.32623330  1.0
  Ni  Ni604  1  0.03585557  0.37029867  0.32623330  1.0
  Ni  Ni605  1  0.03585557  0.70363200  0.32623330  1.0
  Ni  Ni606  1  0.36918890  0.03696533  0.32623330  1.0
  Ni  Ni607  1  0.36918890  0.37029867  0.32623330  1.0
  Ni  Ni608  1  0.36918890  0.70363200  0.32623330  1.0
  Ni  Ni609  1  0.70252223  0.03696533  0.32623330  1.0
  Ni  Ni610  1  0.70252223  0.37029867  0.32623330  1.0
  Ni  Ni611  1  0.70252223  0.70363200  0.32623330  1.0
  Ni  Ni612  1  0.20871543  0.03735417  0.32673420  1.0
  Ni  Ni613  1  0.20871543  0.37068750  0.32673420  1.0
  Ni  Ni614  1  0.20871543  0.70402083  0.32673420  1.0
  Ni  Ni615  1  0.54204877  0.03735417  0.32673420  1.0
  Ni  Ni616  1  0.54204877  0.37068750  0.32673420  1.0
  Ni  Ni617  1  0.54204877  0.70402083  0.32673420  1.0
  Ni  Ni618  1  0.87538210  0.03735417  0.32673420  1.0
  Ni  Ni619  1  0.87538210  0.37068750  0.32673420  1.0
  Ni  Ni620  1  0.87538210  0.70402083  0.32673420  1.0
  Ni  Ni621  1  0.07538210  0.20402083  0.22673420  1.0
  Ni  Ni622  1  0.07538210  0.53735417  0.22673420  1.0
  Ni  Ni623  1  0.07538210  0.87068750  0.22673420  1.0
  Ni  Ni624  1  0.40871543  0.20402083  0.22673420  1.0
  Ni  Ni625  1  0.40871543  0.53735417  0.22673420  1.0
  Ni  Ni626  1  0.40871543  0.87068750  0.22673420  1.0
  Ni  Ni627  1  0.74204877  0.20402083  0.22673420  1.0
  Ni  Ni628  1  0.74204877  0.53735417  0.22673420  1.0
  Ni  Ni629  1  0.74204877  0.87068750  0.22673420  1.0
  Ni  Ni630  1  0.23406783  0.12970133  0.36399650  1.0
  Ni  Ni631  1  0.23406783  0.46303467  0.36399650  1.0
  Ni  Ni632  1  0.23406783  0.79636800  0.36399650  1.0
  Ni  Ni633  1  0.56740117  0.12970133  0.36399650  1.0
  Ni  Ni634  1  0.56740117  0.46303467  0.36399650  1.0
  Ni  Ni635  1  0.56740117  0.79636800  0.36399650  1.0
  Ni  Ni636  1  0.90073450  0.12970133  0.36399650  1.0
  Ni  Ni637  1  0.90073450  0.46303467  0.36399650  1.0
  Ni  Ni638  1  0.90073450  0.79636800  0.36399650  1.0
  Ni  Ni639  1  0.10073450  0.29636800  0.26399650  1.0
  Ni  Ni640  1  0.10073450  0.62970133  0.26399650  1.0
  Ni  Ni641  1  0.10073450  0.96303467  0.26399650  1.0
  Ni  Ni642  1  0.43406783  0.29636800  0.26399650  1.0
  Ni  Ni643  1  0.43406783  0.62970133  0.26399650  1.0
  Ni  Ni644  1  0.43406783  0.96303467  0.26399650  1.0
  Ni  Ni645  1  0.76740117  0.29636800  0.26399650  1.0
  Ni  Ni646  1  0.76740117  0.62970133  0.26399650  1.0
  Ni  Ni647  1  0.76740117  0.96303467  0.26399650  1.0
  Ni  Ni648  1  0.22157783  0.12773567  0.21847350  1.0
  Ni  Ni649  1  0.22157783  0.46106900  0.21847350  1.0
  Ni  Ni650  1  0.22157783  0.79440233  0.21847350  1.0
  Ni  Ni651  1  0.55491117  0.12773567  0.21847350  1.0
  Ni  Ni652  1  0.55491117  0.46106900  0.21847350  1.0
  Ni  Ni653  1  0.55491117  0.79440233  0.21847350  1.0
  Ni  Ni654  1  0.88824450  0.12773567  0.21847350  1.0
  Ni  Ni655  1  0.88824450  0.46106900  0.21847350  1.0
  Ni  Ni656  1  0.88824450  0.79440233  0.21847350  1.0
  Ni  Ni657  1  0.02157783  0.29440233  0.31847350  1.0
  Ni  Ni658  1  0.02157783  0.62773567  0.31847350  1.0
  Ni  Ni659  1  0.02157783  0.96106900  0.31847350  1.0
  Ni  Ni660  1  0.35491117  0.29440233  0.31847350  1.0
  Ni  Ni661  1  0.35491117  0.62773567  0.31847350  1.0
  Ni  Ni662  1  0.35491117  0.96106900  0.31847350  1.0
  Ni  Ni663  1  0.68824450  0.29440233  0.31847350  1.0
  Ni  Ni664  1  0.68824450  0.62773567  0.31847350  1.0
  Ni  Ni665  1  0.68824450  0.96106900  0.31847350  1.0
  Ni  Ni666  1  0.08963330  0.20635967  0.37065810  1.0
  Ni  Ni667  1  0.08963330  0.53969300  0.37065810  1.0
  Ni  Ni668  1  0.08963330  0.87302633  0.37065810  1.0
  Ni  Ni669  1  0.42296663  0.20635967  0.37065810  1.0
  Ni  Ni670  1  0.42296663  0.53969300  0.37065810  1.0
  Ni  Ni671  1  0.42296663  0.87302633  0.37065810  1.0
  Ni  Ni672  1  0.75629997  0.20635967  0.37065810  1.0
  Ni  Ni673  1  0.75629997  0.53969300  0.37065810  1.0
  Ni  Ni674  1  0.75629997  0.87302633  0.37065810  1.0
  Ni  Ni675  1  0.28963330  0.03969300  0.27065810  1.0
  Ni  Ni676  1  0.28963330  0.37302633  0.27065810  1.0
  Ni  Ni677  1  0.28963330  0.70635967  0.27065810  1.0
  Ni  Ni678  1  0.62296663  0.03969300  0.27065810  1.0
  Ni  Ni679  1  0.62296663  0.37302633  0.27065810  1.0
  Ni  Ni680  1  0.62296663  0.70635967  0.27065810  1.0
  Ni  Ni681  1  0.95629997  0.03969300  0.27065810  1.0
  Ni  Ni682  1  0.95629997  0.37302633  0.27065810  1.0
  Ni  Ni683  1  0.95629997  0.70635967  0.27065810  1.0
  Ni  Ni684  1  0.26120797  0.29597917  0.26349560  1.0
  Ni  Ni685  1  0.26120797  0.62931250  0.26349560  1.0
  Ni  Ni686  1  0.26120797  0.96264583  0.26349560  1.0
  Ni  Ni687  1  0.59454130  0.29597917  0.26349560  1.0
  Ni  Ni688  1  0.59454130  0.62931250  0.26349560  1.0
  Ni  Ni689  1  0.59454130  0.96264583  0.26349560  1.0
  Ni  Ni690  1  0.92787463  0.29597917  0.26349560  1.0
  Ni  Ni691  1  0.92787463  0.62931250  0.26349560  1.0
  Ni  Ni692  1  0.92787463  0.96264583  0.26349560  1.0
  Ni  Ni693  1  0.06120797  0.12931250  0.36349560  1.0
  Ni  Ni694  1  0.06120797  0.46264583  0.36349560  1.0
  Ni  Ni695  1  0.06120797  0.79597917  0.36349560  1.0
  Ni  Ni696  1  0.39454130  0.12931250  0.36349560  1.0
  Ni  Ni697  1  0.39454130  0.46264583  0.36349560  1.0
  Ni  Ni698  1  0.39454130  0.79597917  0.36349560  1.0
  Ni  Ni699  1  0.72787463  0.12931250  0.36349560  1.0
  Ni  Ni700  1  0.72787463  0.46264583  0.36349560  1.0
  Ni  Ni701  1  0.72787463  0.79597917  0.36349560  1.0
  Ni  Ni702  1  0.04695677  0.12697367  0.21957170  1.0
  Ni  Ni703  1  0.04695677  0.46030700  0.21957170  1.0
  Ni  Ni704  1  0.04695677  0.79364033  0.21957170  1.0
  Ni  Ni705  1  0.38029010  0.12697367  0.21957170  1.0
  Ni  Ni706  1  0.38029010  0.46030700  0.21957170  1.0
  Ni  Ni707  1  0.38029010  0.79364033  0.21957170  1.0
  Ni  Ni708  1  0.71362343  0.12697367  0.21957170  1.0
  Ni  Ni709  1  0.71362343  0.46030700  0.21957170  1.0
  Ni  Ni710  1  0.71362343  0.79364033  0.21957170  1.0
  Ni  Ni711  1  0.18029010  0.29364033  0.31957170  1.0
  Ni  Ni712  1  0.18029010  0.62697367  0.31957170  1.0
  Ni  Ni713  1  0.18029010  0.96030700  0.31957170  1.0
  Ni  Ni714  1  0.51362343  0.29364033  0.31957170  1.0
  Ni  Ni715  1  0.51362343  0.62697367  0.31957170  1.0
  Ni  Ni716  1  0.51362343  0.96030700  0.31957170  1.0
  Ni  Ni717  1  0.84695677  0.29364033  0.31957170  1.0
  Ni  Ni718  1  0.84695677  0.62697367  0.31957170  1.0
  Ni  Ni719  1  0.84695677  0.96030700  0.31957170  1.0
  Ni  Ni720  1  0.16498977  0.21579733  0.31160470  1.0
  Ni  Ni721  1  0.16498977  0.54913067  0.31160470  1.0
  Ni  Ni722  1  0.16498977  0.88246400  0.31160470  1.0
  Ni  Ni723  1  0.49832310  0.21579733  0.31160470  1.0
  Ni  Ni724  1  0.49832310  0.54913067  0.31160470  1.0
  Ni  Ni725  1  0.49832310  0.88246400  0.31160470  1.0
  Ni  Ni726  1  0.83165643  0.21579733  0.31160470  1.0
  Ni  Ni727  1  0.83165643  0.54913067  0.31160470  1.0
  Ni  Ni728  1  0.83165643  0.88246400  0.31160470  1.0
  Ni  Ni729  1  0.03165643  0.04913067  0.21160470  1.0
  Ni  Ni730  1  0.03165643  0.38246400  0.21160470  1.0
  Ni  Ni731  1  0.03165643  0.71579733  0.21160470  1.0
  Ni  Ni732  1  0.36498977  0.04913067  0.21160470  1.0
  Ni  Ni733  1  0.36498977  0.38246400  0.21160470  1.0
  Ni  Ni734  1  0.36498977  0.71579733  0.21160470  1.0
  Ni  Ni735  1  0.69832310  0.04913067  0.21160470  1.0
  Ni  Ni736  1  0.69832310  0.38246400  0.21160470  1.0
  Ni  Ni737  1  0.69832310  0.71579733  0.21160470  1.0
  Ni  Ni738  1  0.24834557  0.20559767  0.37175630  1.0
  Ni  Ni739  1  0.24834557  0.53893100  0.37175630  1.0
  Ni  Ni740  1  0.24834557  0.87226433  0.37175630  1.0
  Ni  Ni741  1  0.58167890  0.20559767  0.37175630  1.0
  Ni  Ni742  1  0.58167890  0.53893100  0.37175630  1.0
  Ni  Ni743  1  0.58167890  0.87226433  0.37175630  1.0
  Ni  Ni744  1  0.91501223  0.20559767  0.37175630  1.0
  Ni  Ni745  1  0.91501223  0.53893100  0.37175630  1.0
  Ni  Ni746  1  0.91501223  0.87226433  0.37175630  1.0
  Ni  Ni747  1  0.11501223  0.03893100  0.27175630  1.0
  Ni  Ni748  1  0.11501223  0.37226433  0.27175630  1.0
  Ni  Ni749  1  0.11501223  0.70559767  0.27175630  1.0
  Ni  Ni750  1  0.44834557  0.03893100  0.27175630  1.0
  Ni  Ni751  1  0.44834557  0.37226433  0.27175630  1.0
  Ni  Ni752  1  0.44834557  0.70559767  0.27175630  1.0
  Ni  Ni753  1  0.78167890  0.03893100  0.27175630  1.0
  Ni  Ni754  1  0.78167890  0.37226433  0.27175630  1.0
  Ni  Ni755  1  0.78167890  0.70559767  0.27175630  1.0
  Ni  Ni756  1  0.20162837  0.00000000  0.39511490  1.0
  Ni  Ni757  1  0.20162837  0.33333333  0.39511490  1.0
  Ni  Ni758  1  0.20162837  0.66666667  0.39511490  1.0
  Ni  Ni759  1  0.53496170  0.00000000  0.39511490  1.0
  Ni  Ni760  1  0.53496170  0.33333333  0.39511490  1.0
  Ni  Ni761  1  0.53496170  0.66666667  0.39511490  1.0
  Ni  Ni762  1  0.86829503  0.00000000  0.39511490  1.0
  Ni  Ni763  1  0.86829503  0.33333333  0.39511490  1.0
  Ni  Ni764  1  0.86829503  0.66666667  0.39511490  1.0
  Ni  Ni765  1  0.06829503  0.16666667  0.29511490  1.0
  Ni  Ni766  1  0.06829503  0.50000000  0.29511490  1.0
  Ni  Ni767  1  0.06829503  0.83333333  0.29511490  1.0
  Ni  Ni768  1  0.40162837  0.16666667  0.29511490  1.0
  Ni  Ni769  1  0.40162837  0.50000000  0.29511490  1.0
  Ni  Ni770  1  0.40162837  0.83333333  0.29511490  1.0
  Ni  Ni771  1  0.73496170  0.16666667  0.29511490  1.0
  Ni  Ni772  1  0.73496170  0.50000000  0.29511490  1.0
  Ni  Ni773  1  0.73496170  0.83333333  0.29511490  1.0
  Ni  Ni774  1  0.00162837  0.25000000  0.24511490  1.0
  Ni  Ni775  1  0.00162837  0.58333333  0.24511490  1.0
  Ni  Ni776  1  0.00162837  0.91666667  0.24511490  1.0
  Ni  Ni777  1  0.33496170  0.25000000  0.24511490  1.0
  Ni  Ni778  1  0.33496170  0.58333333  0.24511490  1.0
  Ni  Ni779  1  0.33496170  0.91666667  0.24511490  1.0
  Ni  Ni780  1  0.66829503  0.25000000  0.24511490  1.0
  Ni  Ni781  1  0.66829503  0.58333333  0.24511490  1.0
  Ni  Ni782  1  0.66829503  0.91666667  0.24511490  1.0
  Ni  Ni783  1  0.13496170  0.08333333  0.34511490  1.0
  Ni  Ni784  1  0.13496170  0.41666667  0.34511490  1.0
  Ni  Ni785  1  0.13496170  0.75000000  0.34511490  1.0
  Ni  Ni786  1  0.46829503  0.08333333  0.34511490  1.0
  Ni  Ni787  1  0.46829503  0.41666667  0.34511490  1.0
  Ni  Ni788  1  0.46829503  0.75000000  0.34511490  1.0
  Ni  Ni789  1  0.80162837  0.08333333  0.34511490  1.0
  Ni  Ni790  1  0.80162837  0.41666667  0.34511490  1.0
  Ni  Ni791  1  0.80162837  0.75000000  0.34511490  1.0
