# generated using pymatgen
data_In9Ni13
_symmetry_space_group_name_H-M   'P 1'
_cell_length_a   25.37389799
_cell_length_b   66.13541219
_cell_length_c   54.01457448
_cell_angle_alpha   115.91635030
_cell_angle_beta   51.21888156
_cell_angle_gamma   78.94022954
_symmetry_Int_Tables_number   1
_chemical_formula_structural   In9Ni13
_chemical_formula_sum   'In486 Ni702'
_cell_volume   47519.61340756
_cell_formula_units_Z   54
loop_
 _symmetry_equiv_pos_site_id
 _symmetry_equiv_pos_as_xyz
  1  'x, y, z'
loop_
 _atom_site_type_symbol
 _atom_site_label
 _atom_site_symmetry_multiplicity
 _atom_site_fract_x
 _atom_site_fract_y
 _atom_site_fract_z
 _atom_site_occupancy
  In  In0  1  0.07865583  0.19835150  0.05453041  1.0
  In  In1  1  0.07865583  0.53168483  0.05453041  1.0
  In  In2  1  0.07865583  0.86501817  0.05453041  1.0
  In  In3  1  0.41198917  0.19835150  0.05453041  1.0
  In  In4  1  0.41198917  0.53168483  0.05453041  1.0
  In  In5  1  0.41198917  0.86501817  0.05453041  1.0
  In  In6  1  0.74532250  0.19835150  0.05453041  1.0
  In  In7  1  0.74532250  0.53168483  0.05453041  1.0
  In  In8  1  0.74532250  0.86501817  0.05453041  1.0
  In  In9  1  0.24532250  0.03168483  0.11703041  1.0
  In  In10  1  0.24532250  0.36501817  0.11703041  1.0
  In  In11  1  0.24532250  0.69835150  0.11703041  1.0
  In  In12  1  0.57865583  0.03168483  0.11703041  1.0
  In  In13  1  0.57865583  0.36501817  0.11703041  1.0
  In  In14  1  0.57865583  0.69835150  0.11703041  1.0
  In  In15  1  0.91198917  0.03168483  0.11703041  1.0
  In  In16  1  0.91198917  0.36501817  0.11703041  1.0
  In  In17  1  0.91198917  0.69835150  0.11703041  1.0
  In  In18  1  0.15977783  0.23095317  0.03408878  1.0
  In  In19  1  0.15977783  0.56428650  0.03408878  1.0
  In  In20  1  0.15977783  0.89761983  0.03408878  1.0
  In  In21  1  0.49311117  0.23095317  0.03408878  1.0
  In  In22  1  0.49311117  0.56428650  0.03408878  1.0
  In  In23  1  0.49311117  0.89761983  0.03408878  1.0
  In  In24  1  0.82644450  0.23095317  0.03408878  1.0
  In  In25  1  0.82644450  0.56428650  0.03408878  1.0
  In  In26  1  0.82644450  0.89761983  0.03408878  1.0
  In  In27  1  0.32644450  0.06428650  0.09658878  1.0
  In  In28  1  0.32644450  0.39761983  0.09658878  1.0
  In  In29  1  0.32644450  0.73095317  0.09658878  1.0
  In  In30  1  0.65977783  0.06428650  0.09658878  1.0
  In  In31  1  0.65977783  0.39761983  0.09658878  1.0
  In  In32  1  0.65977783  0.73095317  0.09658878  1.0
  In  In33  1  0.99311117  0.06428650  0.09658878  1.0
  In  In34  1  0.99311117  0.39761983  0.09658878  1.0
  In  In35  1  0.99311117  0.73095317  0.09658878  1.0
  In  In36  1  0.15043500  0.27795833  0.02346897  1.0
  In  In37  1  0.15043500  0.61129167  0.02346897  1.0
  In  In38  1  0.15043500  0.94462500  0.02346897  1.0
  In  In39  1  0.48376833  0.27795833  0.02346897  1.0
  In  In40  1  0.48376833  0.61129167  0.02346897  1.0
  In  In41  1  0.48376833  0.94462500  0.02346897  1.0
  In  In42  1  0.81710167  0.27795833  0.02346897  1.0
  In  In43  1  0.81710167  0.61129167  0.02346897  1.0
  In  In44  1  0.81710167  0.94462500  0.02346897  1.0
  In  In45  1  0.31710167  0.11129167  0.08596897  1.0
  In  In46  1  0.31710167  0.44462500  0.08596897  1.0
  In  In47  1  0.31710167  0.77795833  0.08596897  1.0
  In  In48  1  0.65043500  0.11129167  0.08596897  1.0
  In  In49  1  0.65043500  0.44462500  0.08596897  1.0
  In  In50  1  0.65043500  0.77795833  0.08596897  1.0
  In  In51  1  0.98376833  0.11129167  0.08596897  1.0
  In  In52  1  0.98376833  0.44462500  0.08596897  1.0
  In  In53  1  0.98376833  0.77795833  0.08596897  1.0
  In  In54  1  0.21899050  0.19835150  0.05453041  1.0
  In  In55  1  0.21899050  0.53168483  0.05453041  1.0
  In  In56  1  0.21899050  0.86501817  0.05453041  1.0
  In  In57  1  0.55232383  0.19835150  0.05453041  1.0
  In  In58  1  0.55232383  0.53168483  0.05453041  1.0
  In  In59  1  0.55232383  0.86501817  0.05453041  1.0
  In  In60  1  0.88565717  0.19835150  0.05453041  1.0
  In  In61  1  0.88565717  0.53168483  0.05453041  1.0
  In  In62  1  0.88565717  0.86501817  0.05453041  1.0
  In  In63  1  0.05232383  0.03168483  0.11703041  1.0
  In  In64  1  0.05232383  0.36501817  0.11703041  1.0
  In  In65  1  0.05232383  0.69835150  0.11703041  1.0
  In  In66  1  0.38565717  0.03168483  0.11703041  1.0
  In  In67  1  0.38565717  0.36501817  0.11703041  1.0
  In  In68  1  0.38565717  0.69835150  0.11703041  1.0
  In  In69  1  0.71899050  0.03168483  0.11703041  1.0
  In  In70  1  0.71899050  0.36501817  0.11703041  1.0
  In  In71  1  0.71899050  0.69835150  0.11703041  1.0
  In  In72  1  0.01623167  0.22204167  0.02009022  1.0
  In  In73  1  0.01623167  0.55537500  0.02009022  1.0
  In  In74  1  0.01623167  0.88870833  0.02009022  1.0
  In  In75  1  0.34956500  0.22204167  0.02009022  1.0
  In  In76  1  0.34956500  0.55537500  0.02009022  1.0
  In  In77  1  0.34956500  0.88870833  0.02009022  1.0
  In  In78  1  0.68289833  0.22204167  0.02009022  1.0
  In  In79  1  0.68289833  0.55537500  0.02009022  1.0
  In  In80  1  0.68289833  0.88870833  0.02009022  1.0
  In  In81  1  0.18289833  0.05537500  0.08259022  1.0
  In  In82  1  0.18289833  0.38870833  0.08259022  1.0
  In  In83  1  0.18289833  0.72204167  0.08259022  1.0
  In  In84  1  0.51623167  0.05537500  0.08259022  1.0
  In  In85  1  0.51623167  0.38870833  0.08259022  1.0
  In  In86  1  0.51623167  0.72204167  0.08259022  1.0
  In  In87  1  0.84956500  0.05537500  0.08259022  1.0
  In  In88  1  0.84956500  0.38870833  0.08259022  1.0
  In  In89  1  0.84956500  0.72204167  0.08259022  1.0
  In  In90  1  0.16666667  0.00000000  0.11552959  1.0
  In  In91  1  0.16666667  0.33333333  0.11552959  1.0
  In  In92  1  0.16666667  0.66666667  0.11552959  1.0
  In  In93  1  0.50000000  0.00000000  0.11552959  1.0
  In  In94  1  0.50000000  0.33333333  0.11552959  1.0
  In  In95  1  0.50000000  0.66666667  0.11552959  1.0
  In  In96  1  0.83333333  0.00000000  0.11552959  1.0
  In  In97  1  0.83333333  0.33333333  0.11552959  1.0
  In  In98  1  0.83333333  0.66666667  0.11552959  1.0
  In  In99  1  0.00000000  0.16666667  0.05302959  1.0
  In  In100  1  0.00000000  0.50000000  0.05302959  1.0
  In  In101  1  0.00000000  0.83333333  0.05302959  1.0
  In  In102  1  0.33333333  0.16666667  0.05302959  1.0
  In  In103  1  0.33333333  0.50000000  0.05302959  1.0
  In  In104  1  0.33333333  0.83333333  0.05302959  1.0
  In  In105  1  0.66666667  0.16666667  0.05302959  1.0
  In  In106  1  0.66666667  0.50000000  0.05302959  1.0
  In  In107  1  0.66666667  0.83333333  0.05302959  1.0
  In  In108  1  0.08801083  0.30164850  0.11402878  1.0
  In  In109  1  0.08801083  0.63498183  0.11402878  1.0
  In  In110  1  0.08801083  0.96831517  0.11402878  1.0
  In  In111  1  0.42134417  0.30164850  0.11402878  1.0
  In  In112  1  0.42134417  0.63498183  0.11402878  1.0
  In  In113  1  0.42134417  0.96831517  0.11402878  1.0
  In  In114  1  0.75467750  0.30164850  0.11402878  1.0
  In  In115  1  0.75467750  0.63498183  0.11402878  1.0
  In  In116  1  0.75467750  0.96831517  0.11402878  1.0
  In  In117  1  0.25467750  0.13498183  0.05152878  1.0
  In  In118  1  0.25467750  0.46831517  0.05152878  1.0
  In  In119  1  0.25467750  0.80164850  0.05152878  1.0
  In  In120  1  0.58801083  0.13498183  0.05152878  1.0
  In  In121  1  0.58801083  0.46831517  0.05152878  1.0
  In  In122  1  0.58801083  0.80164850  0.05152878  1.0
  In  In123  1  0.92134417  0.13498183  0.05152878  1.0
  In  In124  1  0.92134417  0.46831517  0.05152878  1.0
  In  In125  1  0.92134417  0.80164850  0.05152878  1.0
  In  In126  1  0.28100950  0.30164850  0.11402878  1.0
  In  In127  1  0.28100950  0.63498183  0.11402878  1.0
  In  In128  1  0.28100950  0.96831517  0.11402878  1.0
  In  In129  1  0.61434283  0.30164850  0.11402878  1.0
  In  In130  1  0.61434283  0.63498183  0.11402878  1.0
  In  In131  1  0.61434283  0.96831517  0.11402878  1.0
  In  In132  1  0.94767617  0.30164850  0.11402878  1.0
  In  In133  1  0.94767617  0.63498183  0.11402878  1.0
  In  In134  1  0.94767617  0.96831517  0.11402878  1.0
  In  In135  1  0.11434283  0.13498183  0.05152878  1.0
  In  In136  1  0.11434283  0.46831517  0.05152878  1.0
  In  In137  1  0.11434283  0.80164850  0.05152878  1.0
  In  In138  1  0.44767617  0.13498183  0.05152878  1.0
  In  In139  1  0.44767617  0.46831517  0.05152878  1.0
  In  In140  1  0.44767617  0.80164850  0.05152878  1.0
  In  In141  1  0.78100950  0.13498183  0.05152878  1.0
  In  In142  1  0.78100950  0.46831517  0.05152878  1.0
  In  In143  1  0.78100950  0.80164850  0.05152878  1.0
  In  In144  1  0.00688883  0.26904683  0.00947041  1.0
  In  In145  1  0.00688883  0.60238017  0.00947041  1.0
  In  In146  1  0.00688883  0.93571350  0.00947041  1.0
  In  In147  1  0.34022217  0.26904683  0.00947041  1.0
  In  In148  1  0.34022217  0.60238017  0.00947041  1.0
  In  In149  1  0.34022217  0.93571350  0.00947041  1.0
  In  In150  1  0.67355550  0.26904683  0.00947041  1.0
  In  In151  1  0.67355550  0.60238017  0.00947041  1.0
  In  In152  1  0.67355550  0.93571350  0.00947041  1.0
  In  In153  1  0.17355550  0.10238017  0.07197041  1.0
  In  In154  1  0.17355550  0.43571350  0.07197041  1.0
  In  In155  1  0.17355550  0.76904683  0.07197041  1.0
  In  In156  1  0.50688883  0.10238017  0.07197041  1.0
  In  In157  1  0.50688883  0.43571350  0.07197041  1.0
  In  In158  1  0.50688883  0.76904683  0.07197041  1.0
  In  In159  1  0.84022217  0.10238017  0.07197041  1.0
  In  In160  1  0.84022217  0.43571350  0.07197041  1.0
  In  In161  1  0.84022217  0.76904683  0.07197041  1.0
  Ni  Ni162  1  0.16178400  0.19319700  0.11160634  1.0
  Ni  Ni163  1  0.16178400  0.52653033  0.11160634  1.0
  Ni  Ni164  1  0.16178400  0.85986367  0.11160634  1.0
  Ni  Ni165  1  0.49511733  0.19319700  0.11160634  1.0
  Ni  Ni166  1  0.49511733  0.52653033  0.11160634  1.0
  Ni  Ni167  1  0.49511733  0.85986367  0.11160634  1.0
  Ni  Ni168  1  0.82845067  0.19319700  0.11160634  1.0
  Ni  Ni169  1  0.82845067  0.52653033  0.11160634  1.0
  Ni  Ni170  1  0.82845067  0.85986367  0.11160634  1.0
  Ni  Ni171  1  0.32845067  0.02653033  0.04910634  1.0
  Ni  Ni172  1  0.32845067  0.35986367  0.04910634  1.0
  Ni  Ni173  1  0.32845067  0.69319700  0.04910634  1.0
  Ni  Ni174  1  0.66178400  0.02653033  0.04910634  1.0
  Ni  Ni175  1  0.66178400  0.35986367  0.04910634  1.0
  Ni  Ni176  1  0.66178400  0.69319700  0.04910634  1.0
  Ni  Ni177  1  0.99511733  0.02653033  0.04910634  1.0
  Ni  Ni178  1  0.99511733  0.35986367  0.04910634  1.0
  Ni  Ni179  1  0.99511733  0.69319700  0.04910634  1.0
  Ni  Ni180  1  0.08333333  0.25000000  0.02177959  1.0
  Ni  Ni181  1  0.08333333  0.58333333  0.02177959  1.0
  Ni  Ni182  1  0.08333333  0.91666667  0.02177959  1.0
  Ni  Ni183  1  0.41666667  0.25000000  0.02177959  1.0
  Ni  Ni184  1  0.41666667  0.58333333  0.02177959  1.0
  Ni  Ni185  1  0.41666667  0.91666667  0.02177959  1.0
  Ni  Ni186  1  0.75000000  0.25000000  0.02177959  1.0
  Ni  Ni187  1  0.75000000  0.58333333  0.02177959  1.0
  Ni  Ni188  1  0.75000000  0.91666667  0.02177959  1.0
  Ni  Ni189  1  0.25000000  0.08333333  0.08427959  1.0
  Ni  Ni190  1  0.25000000  0.41666667  0.08427959  1.0
  Ni  Ni191  1  0.25000000  0.75000000  0.08427959  1.0
  Ni  Ni192  1  0.58333333  0.08333333  0.08427959  1.0
  Ni  Ni193  1  0.58333333  0.41666667  0.08427959  1.0
  Ni  Ni194  1  0.58333333  0.75000000  0.08427959  1.0
  Ni  Ni195  1  0.91666667  0.08333333  0.08427959  1.0
  Ni  Ni196  1  0.91666667  0.41666667  0.08427959  1.0
  Ni  Ni197  1  0.91666667  0.75000000  0.08427959  1.0
  Ni  Ni198  1  0.23538267  0.27951600  0.08417409  1.0
  Ni  Ni199  1  0.23538267  0.61284933  0.08417409  1.0
  Ni  Ni200  1  0.23538267  0.94618267  0.08417409  1.0
  Ni  Ni201  1  0.56871600  0.27951600  0.08417409  1.0
  Ni  Ni202  1  0.56871600  0.61284933  0.08417409  1.0
  Ni  Ni203  1  0.56871600  0.94618267  0.08417409  1.0
  Ni  Ni204  1  0.90204933  0.27951600  0.08417409  1.0
  Ni  Ni205  1  0.90204933  0.61284933  0.08417409  1.0
  Ni  Ni206  1  0.90204933  0.94618267  0.08417409  1.0
  Ni  Ni207  1  0.06871600  0.11284933  0.02167409  1.0
  Ni  Ni208  1  0.06871600  0.44618267  0.02167409  1.0
  Ni  Ni209  1  0.06871600  0.77951600  0.02167409  1.0
  Ni  Ni210  1  0.40204933  0.11284933  0.02167409  1.0
  Ni  Ni211  1  0.40204933  0.44618267  0.02167409  1.0
  Ni  Ni212  1  0.40204933  0.77951600  0.02167409  1.0
  Ni  Ni213  1  0.73538267  0.11284933  0.02167409  1.0
  Ni  Ni214  1  0.73538267  0.44618267  0.02167409  1.0
  Ni  Ni215  1  0.73538267  0.77951600  0.02167409  1.0
  Ni  Ni216  1  0.32214767  0.19319700  0.11160634  1.0
  Ni  Ni217  1  0.32214767  0.52653033  0.11160634  1.0
  Ni  Ni218  1  0.32214767  0.85986367  0.11160634  1.0
  Ni  Ni219  1  0.65548100  0.19319700  0.11160634  1.0
  Ni  Ni220  1  0.65548100  0.52653033  0.11160634  1.0
  Ni  Ni221  1  0.65548100  0.85986367  0.11160634  1.0
  Ni  Ni222  1  0.98881433  0.19319700  0.11160634  1.0
  Ni  Ni223  1  0.98881433  0.52653033  0.11160634  1.0
  Ni  Ni224  1  0.98881433  0.85986367  0.11160634  1.0
  Ni  Ni225  1  0.15548100  0.02653033  0.04910634  1.0
  Ni  Ni226  1  0.15548100  0.35986367  0.04910634  1.0
  Ni  Ni227  1  0.15548100  0.69319700  0.04910634  1.0
  Ni  Ni228  1  0.48881433  0.02653033  0.04910634  1.0
  Ni  Ni229  1  0.48881433  0.35986367  0.04910634  1.0
  Ni  Ni230  1  0.48881433  0.69319700  0.04910634  1.0
  Ni  Ni231  1  0.82214767  0.02653033  0.04910634  1.0
  Ni  Ni232  1  0.82214767  0.35986367  0.04910634  1.0
  Ni  Ni233  1  0.82214767  0.69319700  0.04910634  1.0
  Ni  Ni234  1  0.26461733  0.22048400  0.08438509  1.0
  Ni  Ni235  1  0.26461733  0.55381733  0.08438509  1.0
  Ni  Ni236  1  0.26461733  0.88715067  0.08438509  1.0
  Ni  Ni237  1  0.59795067  0.22048400  0.08438509  1.0
  Ni  Ni238  1  0.59795067  0.55381733  0.08438509  1.0
  Ni  Ni239  1  0.59795067  0.88715067  0.08438509  1.0
  Ni  Ni240  1  0.93128400  0.22048400  0.08438509  1.0
  Ni  Ni241  1  0.93128400  0.55381733  0.08438509  1.0
  Ni  Ni242  1  0.93128400  0.88715067  0.08438509  1.0
  Ni  Ni243  1  0.09795067  0.05381733  0.02188509  1.0
  Ni  Ni244  1  0.09795067  0.38715067  0.02188509  1.0
  Ni  Ni245  1  0.09795067  0.72048400  0.02188509  1.0
  Ni  Ni246  1  0.43128400  0.05381733  0.02188509  1.0
  Ni  Ni247  1  0.43128400  0.38715067  0.02188509  1.0
  Ni  Ni248  1  0.43128400  0.72048400  0.02188509  1.0
  Ni  Ni249  1  0.76461733  0.05381733  0.02188509  1.0
  Ni  Ni250  1  0.76461733  0.38715067  0.02188509  1.0
  Ni  Ni251  1  0.76461733  0.72048400  0.02188509  1.0
  Ni  Ni252  1  0.32786200  0.25000000  0.08427959  1.0
  Ni  Ni253  1  0.32786200  0.58333333  0.08427959  1.0
  Ni  Ni254  1  0.32786200  0.91666667  0.08427959  1.0
  Ni  Ni255  1  0.66119533  0.25000000  0.08427959  1.0
  Ni  Ni256  1  0.66119533  0.58333333  0.08427959  1.0
  Ni  Ni257  1  0.66119533  0.91666667  0.08427959  1.0
  Ni  Ni258  1  0.99452867  0.25000000  0.08427959  1.0
  Ni  Ni259  1  0.99452867  0.58333333  0.08427959  1.0
  Ni  Ni260  1  0.99452867  0.91666667  0.08427959  1.0
  Ni  Ni261  1  0.16119533  0.08333333  0.02177959  1.0
  Ni  Ni262  1  0.16119533  0.41666667  0.02177959  1.0
  Ni  Ni263  1  0.16119533  0.75000000  0.02177959  1.0
  Ni  Ni264  1  0.49452867  0.08333333  0.02177959  1.0
  Ni  Ni265  1  0.49452867  0.41666667  0.02177959  1.0
  Ni  Ni266  1  0.49452867  0.75000000  0.02177959  1.0
  Ni  Ni267  1  0.82786200  0.08333333  0.02177959  1.0
  Ni  Ni268  1  0.82786200  0.41666667  0.02177959  1.0
  Ni  Ni269  1  0.82786200  0.75000000  0.02177959  1.0
  Ni  Ni270  1  0.08962550  0.32992017  0.04959041  1.0
  Ni  Ni271  1  0.08962550  0.66325350  0.04959041  1.0
  Ni  Ni272  1  0.08962550  0.99658683  0.04959041  1.0
  Ni  Ni273  1  0.42295883  0.32992017  0.04959041  1.0
  Ni  Ni274  1  0.42295883  0.66325350  0.04959041  1.0
  Ni  Ni275  1  0.42295883  0.99658683  0.04959041  1.0
  Ni  Ni276  1  0.75629217  0.32992017  0.04959041  1.0
  Ni  Ni277  1  0.75629217  0.66325350  0.04959041  1.0
  Ni  Ni278  1  0.75629217  0.99658683  0.04959041  1.0
  Ni  Ni279  1  0.25629217  0.16325350  0.11209041  1.0
  Ni  Ni280  1  0.25629217  0.49658683  0.11209041  1.0
  Ni  Ni281  1  0.25629217  0.82992017  0.11209041  1.0
  Ni  Ni282  1  0.58962550  0.16325350  0.11209041  1.0
  Ni  Ni283  1  0.58962550  0.49658683  0.11209041  1.0
  Ni  Ni284  1  0.58962550  0.82992017  0.11209041  1.0
  Ni  Ni285  1  0.92295883  0.16325350  0.11209041  1.0
  Ni  Ni286  1  0.92295883  0.49658683  0.11209041  1.0
  Ni  Ni287  1  0.92295883  0.82992017  0.11209041  1.0
  Ni  Ni288  1  0.17785233  0.30680300  0.05695284  1.0
  Ni  Ni289  1  0.17785233  0.64013633  0.05695284  1.0
  Ni  Ni290  1  0.17785233  0.97346967  0.05695284  1.0
  Ni  Ni291  1  0.51118567  0.30680300  0.05695284  1.0
  Ni  Ni292  1  0.51118567  0.64013633  0.05695284  1.0
  Ni  Ni293  1  0.51118567  0.97346967  0.05695284  1.0
  Ni  Ni294  1  0.84451900  0.30680300  0.05695284  1.0
  Ni  Ni295  1  0.84451900  0.64013633  0.05695284  1.0
  Ni  Ni296  1  0.84451900  0.97346967  0.05695284  1.0
  Ni  Ni297  1  0.01118567  0.14013633  0.11945284  1.0
  Ni  Ni298  1  0.01118567  0.47346967  0.11945284  1.0
  Ni  Ni299  1  0.01118567  0.80680300  0.11945284  1.0
  Ni  Ni300  1  0.34451900  0.14013633  0.11945284  1.0
  Ni  Ni301  1  0.34451900  0.47346967  0.11945284  1.0
  Ni  Ni302  1  0.34451900  0.80680300  0.11945284  1.0
  Ni  Ni303  1  0.67785233  0.14013633  0.11945284  1.0
  Ni  Ni304  1  0.67785233  0.47346967  0.11945284  1.0
  Ni  Ni305  1  0.67785233  0.80680300  0.11945284  1.0
  Ni  Ni306  1  0.07704117  0.17007983  0.11896878  1.0
  Ni  Ni307  1  0.07704117  0.50341317  0.11896878  1.0
  Ni  Ni308  1  0.07704117  0.83674650  0.11896878  1.0
  Ni  Ni309  1  0.41037450  0.17007983  0.11896878  1.0
  Ni  Ni310  1  0.41037450  0.50341317  0.11896878  1.0
  Ni  Ni311  1  0.41037450  0.83674650  0.11896878  1.0
  Ni  Ni312  1  0.74370783  0.17007983  0.11896878  1.0
  Ni  Ni313  1  0.74370783  0.50341317  0.11896878  1.0
  Ni  Ni314  1  0.74370783  0.83674650  0.11896878  1.0
  Ni  Ni315  1  0.24370783  0.00341317  0.05646878  1.0
  Ni  Ni316  1  0.24370783  0.33674650  0.05646878  1.0
  Ni  Ni317  1  0.24370783  0.67007983  0.05646878  1.0
  Ni  Ni318  1  0.57704117  0.00341317  0.05646878  1.0
  Ni  Ni319  1  0.57704117  0.33674650  0.05646878  1.0
  Ni  Ni320  1  0.57704117  0.67007983  0.05646878  1.0
  Ni  Ni321  1  0.91037450  0.00341317  0.05646878  1.0
  Ni  Ni322  1  0.91037450  0.33674650  0.05646878  1.0
  Ni  Ni323  1  0.91037450  0.67007983  0.05646878  1.0
  Ni  Ni324  1  0.00488267  0.30680300  0.05695284  1.0
  Ni  Ni325  1  0.00488267  0.64013633  0.05695284  1.0
  Ni  Ni326  1  0.00488267  0.97346967  0.05695284  1.0
  Ni  Ni327  1  0.33821600  0.30680300  0.05695284  1.0
  Ni  Ni328  1  0.33821600  0.64013633  0.05695284  1.0
  Ni  Ni329  1  0.33821600  0.97346967  0.05695284  1.0
  Ni  Ni330  1  0.67154933  0.30680300  0.05695284  1.0
  Ni  Ni331  1  0.67154933  0.64013633  0.05695284  1.0
  Ni  Ni332  1  0.67154933  0.97346967  0.05695284  1.0
  Ni  Ni333  1  0.17154933  0.14013633  0.11945284  1.0
  Ni  Ni334  1  0.17154933  0.47346967  0.11945284  1.0
  Ni  Ni335  1  0.17154933  0.80680300  0.11945284  1.0
  Ni  Ni336  1  0.50488267  0.14013633  0.11945284  1.0
  Ni  Ni337  1  0.50488267  0.47346967  0.11945284  1.0
  Ni  Ni338  1  0.50488267  0.80680300  0.11945284  1.0
  Ni  Ni339  1  0.83821600  0.14013633  0.11945284  1.0
  Ni  Ni340  1  0.83821600  0.47346967  0.11945284  1.0
  Ni  Ni341  1  0.83821600  0.80680300  0.11945284  1.0
  Ni  Ni342  1  0.17213800  0.25000000  0.08427959  1.0
  Ni  Ni343  1  0.17213800  0.58333333  0.08427959  1.0
  Ni  Ni344  1  0.17213800  0.91666667  0.08427959  1.0
  Ni  Ni345  1  0.50547133  0.25000000  0.08427959  1.0
  Ni  Ni346  1  0.50547133  0.58333333  0.08427959  1.0
  Ni  Ni347  1  0.50547133  0.91666667  0.08427959  1.0
  Ni  Ni348  1  0.83880467  0.25000000  0.08427959  1.0
  Ni  Ni349  1  0.83880467  0.58333333  0.08427959  1.0
  Ni  Ni350  1  0.83880467  0.91666667  0.08427959  1.0
  Ni  Ni351  1  0.00547133  0.08333333  0.02177959  1.0
  Ni  Ni352  1  0.00547133  0.41666667  0.02177959  1.0
  Ni  Ni353  1  0.00547133  0.75000000  0.02177959  1.0
  Ni  Ni354  1  0.33880467  0.08333333  0.02177959  1.0
  Ni  Ni355  1  0.33880467  0.41666667  0.02177959  1.0
  Ni  Ni356  1  0.33880467  0.75000000  0.02177959  1.0
  Ni  Ni357  1  0.67213800  0.08333333  0.02177959  1.0
  Ni  Ni358  1  0.67213800  0.41666667  0.02177959  1.0
  Ni  Ni359  1  0.67213800  0.75000000  0.02177959  1.0
  Ni  Ni360  1  0.00000000  0.00000000  0.11552959  1.0
  Ni  Ni361  1  0.00000000  0.33333333  0.11552959  1.0
  Ni  Ni362  1  0.00000000  0.66666667  0.11552959  1.0
  Ni  Ni363  1  0.33333333  0.00000000  0.11552959  1.0
  Ni  Ni364  1  0.33333333  0.33333333  0.11552959  1.0
  Ni  Ni365  1  0.33333333  0.66666667  0.11552959  1.0
  Ni  Ni366  1  0.66666667  0.00000000  0.11552959  1.0
  Ni  Ni367  1  0.66666667  0.33333333  0.11552959  1.0
  Ni  Ni368  1  0.66666667  0.66666667  0.11552959  1.0
  Ni  Ni369  1  0.16666667  0.16666667  0.05302959  1.0
  Ni  Ni370  1  0.16666667  0.50000000  0.05302959  1.0
  Ni  Ni371  1  0.16666667  0.83333333  0.05302959  1.0
  Ni  Ni372  1  0.50000000  0.16666667  0.05302959  1.0
  Ni  Ni373  1  0.50000000  0.50000000  0.05302959  1.0
  Ni  Ni374  1  0.50000000  0.83333333  0.05302959  1.0
  Ni  Ni375  1  0.83333333  0.16666667  0.05302959  1.0
  Ni  Ni376  1  0.83333333  0.50000000  0.05302959  1.0
  Ni  Ni377  1  0.83333333  0.83333333  0.05302959  1.0
  Ni  Ni378  1  0.25000000  0.25000000  0.02177959  1.0
  Ni  Ni379  1  0.25000000  0.58333333  0.02177959  1.0
  Ni  Ni380  1  0.25000000  0.91666667  0.02177959  1.0
  Ni  Ni381  1  0.58333333  0.25000000  0.02177959  1.0
  Ni  Ni382  1  0.58333333  0.58333333  0.02177959  1.0
  Ni  Ni383  1  0.58333333  0.91666667  0.02177959  1.0
  Ni  Ni384  1  0.91666667  0.25000000  0.02177959  1.0
  Ni  Ni385  1  0.91666667  0.58333333  0.02177959  1.0
  Ni  Ni386  1  0.91666667  0.91666667  0.02177959  1.0
  Ni  Ni387  1  0.08333333  0.08333333  0.08427959  1.0
  Ni  Ni388  1  0.08333333  0.41666667  0.08427959  1.0
  Ni  Ni389  1  0.08333333  0.75000000  0.08427959  1.0
  Ni  Ni390  1  0.41666667  0.08333333  0.08427959  1.0
  Ni  Ni391  1  0.41666667  0.41666667  0.08427959  1.0
  Ni  Ni392  1  0.41666667  0.75000000  0.08427959  1.0
  Ni  Ni393  1  0.75000000  0.08333333  0.08427959  1.0
  Ni  Ni394  1  0.75000000  0.41666667  0.08427959  1.0
  Ni  Ni395  1  0.75000000  0.75000000  0.08427959  1.0
  In  In396  1  0.07865583  0.19835150  0.17953041  1.0
  In  In397  1  0.07865583  0.53168483  0.17953041  1.0
  In  In398  1  0.07865583  0.86501817  0.17953041  1.0
  In  In399  1  0.41198917  0.19835150  0.17953041  1.0
  In  In400  1  0.41198917  0.53168483  0.17953041  1.0
  In  In401  1  0.41198917  0.86501817  0.17953041  1.0
  In  In402  1  0.74532250  0.19835150  0.17953041  1.0
  In  In403  1  0.74532250  0.53168483  0.17953041  1.0
  In  In404  1  0.74532250  0.86501817  0.17953041  1.0
  In  In405  1  0.24532250  0.03168483  0.24203041  1.0
  In  In406  1  0.24532250  0.36501817  0.24203041  1.0
  In  In407  1  0.24532250  0.69835150  0.24203041  1.0
  In  In408  1  0.57865583  0.03168483  0.24203041  1.0
  In  In409  1  0.57865583  0.36501817  0.24203041  1.0
  In  In410  1  0.57865583  0.69835150  0.24203041  1.0
  In  In411  1  0.91198917  0.03168483  0.24203041  1.0
  In  In412  1  0.91198917  0.36501817  0.24203041  1.0
  In  In413  1  0.91198917  0.69835150  0.24203041  1.0
  In  In414  1  0.15977783  0.23095317  0.15908878  1.0
  In  In415  1  0.15977783  0.56428650  0.15908878  1.0
  In  In416  1  0.15977783  0.89761983  0.15908878  1.0
  In  In417  1  0.49311117  0.23095317  0.15908878  1.0
  In  In418  1  0.49311117  0.56428650  0.15908878  1.0
  In  In419  1  0.49311117  0.89761983  0.15908878  1.0
  In  In420  1  0.82644450  0.23095317  0.15908878  1.0
  In  In421  1  0.82644450  0.56428650  0.15908878  1.0
  In  In422  1  0.82644450  0.89761983  0.15908878  1.0
  In  In423  1  0.32644450  0.06428650  0.22158878  1.0
  In  In424  1  0.32644450  0.39761983  0.22158878  1.0
  In  In425  1  0.32644450  0.73095317  0.22158878  1.0
  In  In426  1  0.65977783  0.06428650  0.22158878  1.0
  In  In427  1  0.65977783  0.39761983  0.22158878  1.0
  In  In428  1  0.65977783  0.73095317  0.22158878  1.0
  In  In429  1  0.99311117  0.06428650  0.22158878  1.0
  In  In430  1  0.99311117  0.39761983  0.22158878  1.0
  In  In431  1  0.99311117  0.73095317  0.22158878  1.0
  In  In432  1  0.15043500  0.27795833  0.14846897  1.0
  In  In433  1  0.15043500  0.61129167  0.14846897  1.0
  In  In434  1  0.15043500  0.94462500  0.14846897  1.0
  In  In435  1  0.48376833  0.27795833  0.14846897  1.0
  In  In436  1  0.48376833  0.61129167  0.14846897  1.0
  In  In437  1  0.48376833  0.94462500  0.14846897  1.0
  In  In438  1  0.81710167  0.27795833  0.14846897  1.0
  In  In439  1  0.81710167  0.61129167  0.14846897  1.0
  In  In440  1  0.81710167  0.94462500  0.14846897  1.0
  In  In441  1  0.31710167  0.11129167  0.21096897  1.0
  In  In442  1  0.31710167  0.44462500  0.21096897  1.0
  In  In443  1  0.31710167  0.77795833  0.21096897  1.0
  In  In444  1  0.65043500  0.11129167  0.21096897  1.0
  In  In445  1  0.65043500  0.44462500  0.21096897  1.0
  In  In446  1  0.65043500  0.77795833  0.21096897  1.0
  In  In447  1  0.98376833  0.11129167  0.21096897  1.0
  In  In448  1  0.98376833  0.44462500  0.21096897  1.0
  In  In449  1  0.98376833  0.77795833  0.21096897  1.0
  In  In450  1  0.21899050  0.19835150  0.17953041  1.0
  In  In451  1  0.21899050  0.53168483  0.17953041  1.0
  In  In452  1  0.21899050  0.86501817  0.17953041  1.0
  In  In453  1  0.55232383  0.19835150  0.17953041  1.0
  In  In454  1  0.55232383  0.53168483  0.17953041  1.0
  In  In455  1  0.55232383  0.86501817  0.17953041  1.0
  In  In456  1  0.88565717  0.19835150  0.17953041  1.0
  In  In457  1  0.88565717  0.53168483  0.17953041  1.0
  In  In458  1  0.88565717  0.86501817  0.17953041  1.0
  In  In459  1  0.05232383  0.03168483  0.24203041  1.0
  In  In460  1  0.05232383  0.36501817  0.24203041  1.0
  In  In461  1  0.05232383  0.69835150  0.24203041  1.0
  In  In462  1  0.38565717  0.03168483  0.24203041  1.0
  In  In463  1  0.38565717  0.36501817  0.24203041  1.0
  In  In464  1  0.38565717  0.69835150  0.24203041  1.0
  In  In465  1  0.71899050  0.03168483  0.24203041  1.0
  In  In466  1  0.71899050  0.36501817  0.24203041  1.0
  In  In467  1  0.71899050  0.69835150  0.24203041  1.0
  In  In468  1  0.01623167  0.22204167  0.14509022  1.0
  In  In469  1  0.01623167  0.55537500  0.14509022  1.0
  In  In470  1  0.01623167  0.88870833  0.14509022  1.0
  In  In471  1  0.34956500  0.22204167  0.14509022  1.0
  In  In472  1  0.34956500  0.55537500  0.14509022  1.0
  In  In473  1  0.34956500  0.88870833  0.14509022  1.0
  In  In474  1  0.68289833  0.22204167  0.14509022  1.0
  In  In475  1  0.68289833  0.55537500  0.14509022  1.0
  In  In476  1  0.68289833  0.88870833  0.14509022  1.0
  In  In477  1  0.18289833  0.05537500  0.20759022  1.0
  In  In478  1  0.18289833  0.38870833  0.20759022  1.0
  In  In479  1  0.18289833  0.72204167  0.20759022  1.0
  In  In480  1  0.51623167  0.05537500  0.20759022  1.0
  In  In481  1  0.51623167  0.38870833  0.20759022  1.0
  In  In482  1  0.51623167  0.72204167  0.20759022  1.0
  In  In483  1  0.84956500  0.05537500  0.20759022  1.0
  In  In484  1  0.84956500  0.38870833  0.20759022  1.0
  In  In485  1  0.84956500  0.72204167  0.20759022  1.0
  In  In486  1  0.16666667  0.00000000  0.24052959  1.0
  In  In487  1  0.16666667  0.33333333  0.24052959  1.0
  In  In488  1  0.16666667  0.66666667  0.24052959  1.0
  In  In489  1  0.50000000  0.00000000  0.24052959  1.0
  In  In490  1  0.50000000  0.33333333  0.24052959  1.0
  In  In491  1  0.50000000  0.66666667  0.24052959  1.0
  In  In492  1  0.83333333  0.00000000  0.24052959  1.0
  In  In493  1  0.83333333  0.33333333  0.24052959  1.0
  In  In494  1  0.83333333  0.66666667  0.24052959  1.0
  In  In495  1  0.00000000  0.16666667  0.17802959  1.0
  In  In496  1  0.00000000  0.50000000  0.17802959  1.0
  In  In497  1  0.00000000  0.83333333  0.17802959  1.0
  In  In498  1  0.33333333  0.16666667  0.17802959  1.0
  In  In499  1  0.33333333  0.50000000  0.17802959  1.0
  In  In500  1  0.33333333  0.83333333  0.17802959  1.0
  In  In501  1  0.66666667  0.16666667  0.17802959  1.0
  In  In502  1  0.66666667  0.50000000  0.17802959  1.0
  In  In503  1  0.66666667  0.83333333  0.17802959  1.0
  In  In504  1  0.08801083  0.30164850  0.23902878  1.0
  In  In505  1  0.08801083  0.63498183  0.23902878  1.0
  In  In506  1  0.08801083  0.96831517  0.23902878  1.0
  In  In507  1  0.42134417  0.30164850  0.23902878  1.0
  In  In508  1  0.42134417  0.63498183  0.23902878  1.0
  In  In509  1  0.42134417  0.96831517  0.23902878  1.0
  In  In510  1  0.75467750  0.30164850  0.23902878  1.0
  In  In511  1  0.75467750  0.63498183  0.23902878  1.0
  In  In512  1  0.75467750  0.96831517  0.23902878  1.0
  In  In513  1  0.25467750  0.13498183  0.17652878  1.0
  In  In514  1  0.25467750  0.46831517  0.17652878  1.0
  In  In515  1  0.25467750  0.80164850  0.17652878  1.0
  In  In516  1  0.58801083  0.13498183  0.17652878  1.0
  In  In517  1  0.58801083  0.46831517  0.17652878  1.0
  In  In518  1  0.58801083  0.80164850  0.17652878  1.0
  In  In519  1  0.92134417  0.13498183  0.17652878  1.0
  In  In520  1  0.92134417  0.46831517  0.17652878  1.0
  In  In521  1  0.92134417  0.80164850  0.17652878  1.0
  In  In522  1  0.28100950  0.30164850  0.23902878  1.0
  In  In523  1  0.28100950  0.63498183  0.23902878  1.0
  In  In524  1  0.28100950  0.96831517  0.23902878  1.0
  In  In525  1  0.61434283  0.30164850  0.23902878  1.0
  In  In526  1  0.61434283  0.63498183  0.23902878  1.0
  In  In527  1  0.61434283  0.96831517  0.23902878  1.0
  In  In528  1  0.94767617  0.30164850  0.23902878  1.0
  In  In529  1  0.94767617  0.63498183  0.23902878  1.0
  In  In530  1  0.94767617  0.96831517  0.23902878  1.0
  In  In531  1  0.11434283  0.13498183  0.17652878  1.0
  In  In532  1  0.11434283  0.46831517  0.17652878  1.0
  In  In533  1  0.11434283  0.80164850  0.17652878  1.0
  In  In534  1  0.44767617  0.13498183  0.17652878  1.0
  In  In535  1  0.44767617  0.46831517  0.17652878  1.0
  In  In536  1  0.44767617  0.80164850  0.17652878  1.0
  In  In537  1  0.78100950  0.13498183  0.17652878  1.0
  In  In538  1  0.78100950  0.46831517  0.17652878  1.0
  In  In539  1  0.78100950  0.80164850  0.17652878  1.0
  In  In540  1  0.00688883  0.26904683  0.13447041  1.0
  In  In541  1  0.00688883  0.60238017  0.13447041  1.0
  In  In542  1  0.00688883  0.93571350  0.13447041  1.0
  In  In543  1  0.34022217  0.26904683  0.13447041  1.0
  In  In544  1  0.34022217  0.60238017  0.13447041  1.0
  In  In545  1  0.34022217  0.93571350  0.13447041  1.0
  In  In546  1  0.67355550  0.26904683  0.13447041  1.0
  In  In547  1  0.67355550  0.60238017  0.13447041  1.0
  In  In548  1  0.67355550  0.93571350  0.13447041  1.0
  In  In549  1  0.17355550  0.10238017  0.19697041  1.0
  In  In550  1  0.17355550  0.43571350  0.19697041  1.0
  In  In551  1  0.17355550  0.76904683  0.19697041  1.0
  In  In552  1  0.50688883  0.10238017  0.19697041  1.0
  In  In553  1  0.50688883  0.43571350  0.19697041  1.0
  In  In554  1  0.50688883  0.76904683  0.19697041  1.0
  In  In555  1  0.84022217  0.10238017  0.19697041  1.0
  In  In556  1  0.84022217  0.43571350  0.19697041  1.0
  In  In557  1  0.84022217  0.76904683  0.19697041  1.0
  Ni  Ni558  1  0.16178400  0.19319700  0.23660634  1.0
  Ni  Ni559  1  0.16178400  0.52653033  0.23660634  1.0
  Ni  Ni560  1  0.16178400  0.85986367  0.23660634  1.0
  Ni  Ni561  1  0.49511733  0.19319700  0.23660634  1.0
  Ni  Ni562  1  0.49511733  0.52653033  0.23660634  1.0
  Ni  Ni563  1  0.49511733  0.85986367  0.23660634  1.0
  Ni  Ni564  1  0.82845067  0.19319700  0.23660634  1.0
  Ni  Ni565  1  0.82845067  0.52653033  0.23660634  1.0
  Ni  Ni566  1  0.82845067  0.85986367  0.23660634  1.0
  Ni  Ni567  1  0.32845067  0.02653033  0.17410634  1.0
  Ni  Ni568  1  0.32845067  0.35986367  0.17410634  1.0
  Ni  Ni569  1  0.32845067  0.69319700  0.17410634  1.0
  Ni  Ni570  1  0.66178400  0.02653033  0.17410634  1.0
  Ni  Ni571  1  0.66178400  0.35986367  0.17410634  1.0
  Ni  Ni572  1  0.66178400  0.69319700  0.17410634  1.0
  Ni  Ni573  1  0.99511733  0.02653033  0.17410634  1.0
  Ni  Ni574  1  0.99511733  0.35986367  0.17410634  1.0
  Ni  Ni575  1  0.99511733  0.69319700  0.17410634  1.0
  Ni  Ni576  1  0.08333333  0.25000000  0.14677959  1.0
  Ni  Ni577  1  0.08333333  0.58333333  0.14677959  1.0
  Ni  Ni578  1  0.08333333  0.91666667  0.14677959  1.0
  Ni  Ni579  1  0.41666667  0.25000000  0.14677959  1.0
  Ni  Ni580  1  0.41666667  0.58333333  0.14677959  1.0
  Ni  Ni581  1  0.41666667  0.91666667  0.14677959  1.0
  Ni  Ni582  1  0.75000000  0.25000000  0.14677959  1.0
  Ni  Ni583  1  0.75000000  0.58333333  0.14677959  1.0
  Ni  Ni584  1  0.75000000  0.91666667  0.14677959  1.0
  Ni  Ni585  1  0.25000000  0.08333333  0.20927959  1.0
  Ni  Ni586  1  0.25000000  0.41666667  0.20927959  1.0
  Ni  Ni587  1  0.25000000  0.75000000  0.20927959  1.0
  Ni  Ni588  1  0.58333333  0.08333333  0.20927959  1.0
  Ni  Ni589  1  0.58333333  0.41666667  0.20927959  1.0
  Ni  Ni590  1  0.58333333  0.75000000  0.20927959  1.0
  Ni  Ni591  1  0.91666667  0.08333333  0.20927959  1.0
  Ni  Ni592  1  0.91666667  0.41666667  0.20927959  1.0
  Ni  Ni593  1  0.91666667  0.75000000  0.20927959  1.0
  Ni  Ni594  1  0.23538267  0.27951600  0.20917409  1.0
  Ni  Ni595  1  0.23538267  0.61284933  0.20917409  1.0
  Ni  Ni596  1  0.23538267  0.94618267  0.20917409  1.0
  Ni  Ni597  1  0.56871600  0.27951600  0.20917409  1.0
  Ni  Ni598  1  0.56871600  0.61284933  0.20917409  1.0
  Ni  Ni599  1  0.56871600  0.94618267  0.20917409  1.0
  Ni  Ni600  1  0.90204933  0.27951600  0.20917409  1.0
  Ni  Ni601  1  0.90204933  0.61284933  0.20917409  1.0
  Ni  Ni602  1  0.90204933  0.94618267  0.20917409  1.0
  Ni  Ni603  1  0.06871600  0.11284933  0.14667409  1.0
  Ni  Ni604  1  0.06871600  0.44618267  0.14667409  1.0
  Ni  Ni605  1  0.06871600  0.77951600  0.14667409  1.0
  Ni  Ni606  1  0.40204933  0.11284933  0.14667409  1.0
  Ni  Ni607  1  0.40204933  0.44618267  0.14667409  1.0
  Ni  Ni608  1  0.40204933  0.77951600  0.14667409  1.0
  Ni  Ni609  1  0.73538267  0.11284933  0.14667409  1.0
  Ni  Ni610  1  0.73538267  0.44618267  0.14667409  1.0
  Ni  Ni611  1  0.73538267  0.77951600  0.14667409  1.0
  Ni  Ni612  1  0.32214767  0.19319700  0.23660634  1.0
  Ni  Ni613  1  0.32214767  0.52653033  0.23660634  1.0
  Ni  Ni614  1  0.32214767  0.85986367  0.23660634  1.0
  Ni  Ni615  1  0.65548100  0.19319700  0.23660634  1.0
  Ni  Ni616  1  0.65548100  0.52653033  0.23660634  1.0
  Ni  Ni617  1  0.65548100  0.85986367  0.23660634  1.0
  Ni  Ni618  1  0.98881433  0.19319700  0.23660634  1.0
  Ni  Ni619  1  0.98881433  0.52653033  0.23660634  1.0
  Ni  Ni620  1  0.98881433  0.85986367  0.23660634  1.0
  Ni  Ni621  1  0.15548100  0.02653033  0.17410634  1.0
  Ni  Ni622  1  0.15548100  0.35986367  0.17410634  1.0
  Ni  Ni623  1  0.15548100  0.69319700  0.17410634  1.0
  Ni  Ni624  1  0.48881433  0.02653033  0.17410634  1.0
  Ni  Ni625  1  0.48881433  0.35986367  0.17410634  1.0
  Ni  Ni626  1  0.48881433  0.69319700  0.17410634  1.0
  Ni  Ni627  1  0.82214767  0.02653033  0.17410634  1.0
  Ni  Ni628  1  0.82214767  0.35986367  0.17410634  1.0
  Ni  Ni629  1  0.82214767  0.69319700  0.17410634  1.0
  Ni  Ni630  1  0.26461733  0.22048400  0.20938509  1.0
  Ni  Ni631  1  0.26461733  0.55381733  0.20938509  1.0
  Ni  Ni632  1  0.26461733  0.88715067  0.20938509  1.0
  Ni  Ni633  1  0.59795067  0.22048400  0.20938509  1.0
  Ni  Ni634  1  0.59795067  0.55381733  0.20938509  1.0
  Ni  Ni635  1  0.59795067  0.88715067  0.20938509  1.0
  Ni  Ni636  1  0.93128400  0.22048400  0.20938509  1.0
  Ni  Ni637  1  0.93128400  0.55381733  0.20938509  1.0
  Ni  Ni638  1  0.93128400  0.88715067  0.20938509  1.0
  Ni  Ni639  1  0.09795067  0.05381733  0.14688509  1.0
  Ni  Ni640  1  0.09795067  0.38715067  0.14688509  1.0
  Ni  Ni641  1  0.09795067  0.72048400  0.14688509  1.0
  Ni  Ni642  1  0.43128400  0.05381733  0.14688509  1.0
  Ni  Ni643  1  0.43128400  0.38715067  0.14688509  1.0
  Ni  Ni644  1  0.43128400  0.72048400  0.14688509  1.0
  Ni  Ni645  1  0.76461733  0.05381733  0.14688509  1.0
  Ni  Ni646  1  0.76461733  0.38715067  0.14688509  1.0
  Ni  Ni647  1  0.76461733  0.72048400  0.14688509  1.0
  Ni  Ni648  1  0.32786200  0.25000000  0.20927959  1.0
  Ni  Ni649  1  0.32786200  0.58333333  0.20927959  1.0
  Ni  Ni650  1  0.32786200  0.91666667  0.20927959  1.0
  Ni  Ni651  1  0.66119533  0.25000000  0.20927959  1.0
  Ni  Ni652  1  0.66119533  0.58333333  0.20927959  1.0
  Ni  Ni653  1  0.66119533  0.91666667  0.20927959  1.0
  Ni  Ni654  1  0.99452867  0.25000000  0.20927959  1.0
  Ni  Ni655  1  0.99452867  0.58333333  0.20927959  1.0
  Ni  Ni656  1  0.99452867  0.91666667  0.20927959  1.0
  Ni  Ni657  1  0.16119533  0.08333333  0.14677959  1.0
  Ni  Ni658  1  0.16119533  0.41666667  0.14677959  1.0
  Ni  Ni659  1  0.16119533  0.75000000  0.14677959  1.0
  Ni  Ni660  1  0.49452867  0.08333333  0.14677959  1.0
  Ni  Ni661  1  0.49452867  0.41666667  0.14677959  1.0
  Ni  Ni662  1  0.49452867  0.75000000  0.14677959  1.0
  Ni  Ni663  1  0.82786200  0.08333333  0.14677959  1.0
  Ni  Ni664  1  0.82786200  0.41666667  0.14677959  1.0
  Ni  Ni665  1  0.82786200  0.75000000  0.14677959  1.0
  Ni  Ni666  1  0.08962550  0.32992017  0.17459041  1.0
  Ni  Ni667  1  0.08962550  0.66325350  0.17459041  1.0
  Ni  Ni668  1  0.08962550  0.99658683  0.17459041  1.0
  Ni  Ni669  1  0.42295883  0.32992017  0.17459041  1.0
  Ni  Ni670  1  0.42295883  0.66325350  0.17459041  1.0
  Ni  Ni671  1  0.42295883  0.99658683  0.17459041  1.0
  Ni  Ni672  1  0.75629217  0.32992017  0.17459041  1.0
  Ni  Ni673  1  0.75629217  0.66325350  0.17459041  1.0
  Ni  Ni674  1  0.75629217  0.99658683  0.17459041  1.0
  Ni  Ni675  1  0.25629217  0.16325350  0.23709041  1.0
  Ni  Ni676  1  0.25629217  0.49658683  0.23709041  1.0
  Ni  Ni677  1  0.25629217  0.82992017  0.23709041  1.0
  Ni  Ni678  1  0.58962550  0.16325350  0.23709041  1.0
  Ni  Ni679  1  0.58962550  0.49658683  0.23709041  1.0
  Ni  Ni680  1  0.58962550  0.82992017  0.23709041  1.0
  Ni  Ni681  1  0.92295883  0.16325350  0.23709041  1.0
  Ni  Ni682  1  0.92295883  0.49658683  0.23709041  1.0
  Ni  Ni683  1  0.92295883  0.82992017  0.23709041  1.0
  Ni  Ni684  1  0.17785233  0.30680300  0.18195284  1.0
  Ni  Ni685  1  0.17785233  0.64013633  0.18195284  1.0
  Ni  Ni686  1  0.17785233  0.97346967  0.18195284  1.0
  Ni  Ni687  1  0.51118567  0.30680300  0.18195284  1.0
  Ni  Ni688  1  0.51118567  0.64013633  0.18195284  1.0
  Ni  Ni689  1  0.51118567  0.97346967  0.18195284  1.0
  Ni  Ni690  1  0.84451900  0.30680300  0.18195284  1.0
  Ni  Ni691  1  0.84451900  0.64013633  0.18195284  1.0
  Ni  Ni692  1  0.84451900  0.97346967  0.18195284  1.0
  Ni  Ni693  1  0.01118567  0.14013633  0.24445284  1.0
  Ni  Ni694  1  0.01118567  0.47346967  0.24445284  1.0
  Ni  Ni695  1  0.01118567  0.80680300  0.24445284  1.0
  Ni  Ni696  1  0.34451900  0.14013633  0.24445284  1.0
  Ni  Ni697  1  0.34451900  0.47346967  0.24445284  1.0
  Ni  Ni698  1  0.34451900  0.80680300  0.24445284  1.0
  Ni  Ni699  1  0.67785233  0.14013633  0.24445284  1.0
  Ni  Ni700  1  0.67785233  0.47346967  0.24445284  1.0
  Ni  Ni701  1  0.67785233  0.80680300  0.24445284  1.0
  Ni  Ni702  1  0.07704117  0.17007983  0.24396878  1.0
  Ni  Ni703  1  0.07704117  0.50341317  0.24396878  1.0
  Ni  Ni704  1  0.07704117  0.83674650  0.24396878  1.0
  Ni  Ni705  1  0.41037450  0.17007983  0.24396878  1.0
  Ni  Ni706  1  0.41037450  0.50341317  0.24396878  1.0
  Ni  Ni707  1  0.41037450  0.83674650  0.24396878  1.0
  Ni  Ni708  1  0.74370783  0.17007983  0.24396878  1.0
  Ni  Ni709  1  0.74370783  0.50341317  0.24396878  1.0
  Ni  Ni710  1  0.74370783  0.83674650  0.24396878  1.0
  Ni  Ni711  1  0.24370783  0.00341317  0.18146878  1.0
  Ni  Ni712  1  0.24370783  0.33674650  0.18146878  1.0
  Ni  Ni713  1  0.24370783  0.67007983  0.18146878  1.0
  Ni  Ni714  1  0.57704117  0.00341317  0.18146878  1.0
  Ni  Ni715  1  0.57704117  0.33674650  0.18146878  1.0
  Ni  Ni716  1  0.57704117  0.67007983  0.18146878  1.0
  Ni  Ni717  1  0.91037450  0.00341317  0.18146878  1.0
  Ni  Ni718  1  0.91037450  0.33674650  0.18146878  1.0
  Ni  Ni719  1  0.91037450  0.67007983  0.18146878  1.0
  Ni  Ni720  1  0.00488267  0.30680300  0.18195284  1.0
  Ni  Ni721  1  0.00488267  0.64013633  0.18195284  1.0
  Ni  Ni722  1  0.00488267  0.97346967  0.18195284  1.0
  Ni  Ni723  1  0.33821600  0.30680300  0.18195284  1.0
  Ni  Ni724  1  0.33821600  0.64013633  0.18195284  1.0
  Ni  Ni725  1  0.33821600  0.97346967  0.18195284  1.0
  Ni  Ni726  1  0.67154933  0.30680300  0.18195284  1.0
  Ni  Ni727  1  0.67154933  0.64013633  0.18195284  1.0
  Ni  Ni728  1  0.67154933  0.97346967  0.18195284  1.0
  Ni  Ni729  1  0.17154933  0.14013633  0.24445284  1.0
  Ni  Ni730  1  0.17154933  0.47346967  0.24445284  1.0
  Ni  Ni731  1  0.17154933  0.80680300  0.24445284  1.0
  Ni  Ni732  1  0.50488267  0.14013633  0.24445284  1.0
  Ni  Ni733  1  0.50488267  0.47346967  0.24445284  1.0
  Ni  Ni734  1  0.50488267  0.80680300  0.24445284  1.0
  Ni  Ni735  1  0.83821600  0.14013633  0.24445284  1.0
  Ni  Ni736  1  0.83821600  0.47346967  0.24445284  1.0
  Ni  Ni737  1  0.83821600  0.80680300  0.24445284  1.0
  Ni  Ni738  1  0.17213800  0.25000000  0.20927959  1.0
  Ni  Ni739  1  0.17213800  0.58333333  0.20927959  1.0
  Ni  Ni740  1  0.17213800  0.91666667  0.20927959  1.0
  Ni  Ni741  1  0.50547133  0.25000000  0.20927959  1.0
  Ni  Ni742  1  0.50547133  0.58333333  0.20927959  1.0
  Ni  Ni743  1  0.50547133  0.91666667  0.20927959  1.0
  Ni  Ni744  1  0.83880467  0.25000000  0.20927959  1.0
  Ni  Ni745  1  0.83880467  0.58333333  0.20927959  1.0
  Ni  Ni746  1  0.83880467  0.91666667  0.20927959  1.0
  Ni  Ni747  1  0.00547133  0.08333333  0.14677959  1.0
  Ni  Ni748  1  0.00547133  0.41666667  0.14677959  1.0
  Ni  Ni749  1  0.00547133  0.75000000  0.14677959  1.0
  Ni  Ni750  1  0.33880467  0.08333333  0.14677959  1.0
  Ni  Ni751  1  0.33880467  0.41666667  0.14677959  1.0
  Ni  Ni752  1  0.33880467  0.75000000  0.14677959  1.0
  Ni  Ni753  1  0.67213800  0.08333333  0.14677959  1.0
  Ni  Ni754  1  0.67213800  0.41666667  0.14677959  1.0
  Ni  Ni755  1  0.67213800  0.75000000  0.14677959  1.0
  Ni  Ni756  1  0.00000000  0.00000000  0.24052959  1.0
  Ni  Ni757  1  0.00000000  0.33333333  0.24052959  1.0
  Ni  Ni758  1  0.00000000  0.66666667  0.24052959  1.0
  Ni  Ni759  1  0.33333333  0.00000000  0.24052959  1.0
  Ni  Ni760  1  0.33333333  0.33333333  0.24052959  1.0
  Ni  Ni761  1  0.33333333  0.66666667  0.24052959  1.0
  Ni  Ni762  1  0.66666667  0.00000000  0.24052959  1.0
  Ni  Ni763  1  0.66666667  0.33333333  0.24052959  1.0
  Ni  Ni764  1  0.66666667  0.66666667  0.24052959  1.0
  Ni  Ni765  1  0.16666667  0.16666667  0.17802959  1.0
  Ni  Ni766  1  0.16666667  0.50000000  0.17802959  1.0
  Ni  Ni767  1  0.16666667  0.83333333  0.17802959  1.0
  Ni  Ni768  1  0.50000000  0.16666667  0.17802959  1.0
  Ni  Ni769  1  0.50000000  0.50000000  0.17802959  1.0
  Ni  Ni770  1  0.50000000  0.83333333  0.17802959  1.0
  Ni  Ni771  1  0.83333333  0.16666667  0.17802959  1.0
  Ni  Ni772  1  0.83333333  0.50000000  0.17802959  1.0
  Ni  Ni773  1  0.83333333  0.83333333  0.17802959  1.0
  Ni  Ni774  1  0.25000000  0.25000000  0.14677959  1.0
  Ni  Ni775  1  0.25000000  0.58333333  0.14677959  1.0
  Ni  Ni776  1  0.25000000  0.91666667  0.14677959  1.0
  Ni  Ni777  1  0.58333333  0.25000000  0.14677959  1.0
  Ni  Ni778  1  0.58333333  0.58333333  0.14677959  1.0
  Ni  Ni779  1  0.58333333  0.91666667  0.14677959  1.0
  Ni  Ni780  1  0.91666667  0.25000000  0.14677959  1.0
  Ni  Ni781  1  0.91666667  0.58333333  0.14677959  1.0
  Ni  Ni782  1  0.91666667  0.91666667  0.14677959  1.0
  Ni  Ni783  1  0.08333333  0.08333333  0.20927959  1.0
  Ni  Ni784  1  0.08333333  0.41666667  0.20927959  1.0
  Ni  Ni785  1  0.08333333  0.75000000  0.20927959  1.0
  Ni  Ni786  1  0.41666667  0.08333333  0.20927959  1.0
  Ni  Ni787  1  0.41666667  0.41666667  0.20927959  1.0
  Ni  Ni788  1  0.41666667  0.75000000  0.20927959  1.0
  Ni  Ni789  1  0.75000000  0.08333333  0.20927959  1.0
  Ni  Ni790  1  0.75000000  0.41666667  0.20927959  1.0
  Ni  Ni791  1  0.75000000  0.75000000  0.20927959  1.0
  In  In792  1  0.07865583  0.19835150  0.30453041  1.0
  In  In793  1  0.07865583  0.53168483  0.30453041  1.0
  In  In794  1  0.07865583  0.86501817  0.30453041  1.0
  In  In795  1  0.41198917  0.19835150  0.30453041  1.0
  In  In796  1  0.41198917  0.53168483  0.30453041  1.0
  In  In797  1  0.41198917  0.86501817  0.30453041  1.0
  In  In798  1  0.74532250  0.19835150  0.30453041  1.0
  In  In799  1  0.74532250  0.53168483  0.30453041  1.0
  In  In800  1  0.74532250  0.86501817  0.30453041  1.0
  In  In801  1  0.24532250  0.03168483  0.36703041  1.0
  In  In802  1  0.24532250  0.36501817  0.36703041  1.0
  In  In803  1  0.24532250  0.69835150  0.36703041  1.0
  In  In804  1  0.57865583  0.03168483  0.36703041  1.0
  In  In805  1  0.57865583  0.36501817  0.36703041  1.0
  In  In806  1  0.57865583  0.69835150  0.36703041  1.0
  In  In807  1  0.91198917  0.03168483  0.36703041  1.0
  In  In808  1  0.91198917  0.36501817  0.36703041  1.0
  In  In809  1  0.91198917  0.69835150  0.36703041  1.0
  In  In810  1  0.15977783  0.23095317  0.28408878  1.0
  In  In811  1  0.15977783  0.56428650  0.28408878  1.0
  In  In812  1  0.15977783  0.89761983  0.28408878  1.0
  In  In813  1  0.49311117  0.23095317  0.28408878  1.0
  In  In814  1  0.49311117  0.56428650  0.28408878  1.0
  In  In815  1  0.49311117  0.89761983  0.28408878  1.0
  In  In816  1  0.82644450  0.23095317  0.28408878  1.0
  In  In817  1  0.82644450  0.56428650  0.28408878  1.0
  In  In818  1  0.82644450  0.89761983  0.28408878  1.0
  In  In819  1  0.32644450  0.06428650  0.34658878  1.0
  In  In820  1  0.32644450  0.39761983  0.34658878  1.0
  In  In821  1  0.32644450  0.73095317  0.34658878  1.0
  In  In822  1  0.65977783  0.06428650  0.34658878  1.0
  In  In823  1  0.65977783  0.39761983  0.34658878  1.0
  In  In824  1  0.65977783  0.73095317  0.34658878  1.0
  In  In825  1  0.99311117  0.06428650  0.34658878  1.0
  In  In826  1  0.99311117  0.39761983  0.34658878  1.0
  In  In827  1  0.99311117  0.73095317  0.34658878  1.0
  In  In828  1  0.15043500  0.27795833  0.27346897  1.0
  In  In829  1  0.15043500  0.61129167  0.27346897  1.0
  In  In830  1  0.15043500  0.94462500  0.27346897  1.0
  In  In831  1  0.48376833  0.27795833  0.27346897  1.0
  In  In832  1  0.48376833  0.61129167  0.27346897  1.0
  In  In833  1  0.48376833  0.94462500  0.27346897  1.0
  In  In834  1  0.81710167  0.27795833  0.27346897  1.0
  In  In835  1  0.81710167  0.61129167  0.27346897  1.0
  In  In836  1  0.81710167  0.94462500  0.27346897  1.0
  In  In837  1  0.31710167  0.11129167  0.33596897  1.0
  In  In838  1  0.31710167  0.44462500  0.33596897  1.0
  In  In839  1  0.31710167  0.77795833  0.33596897  1.0
  In  In840  1  0.65043500  0.11129167  0.33596897  1.0
  In  In841  1  0.65043500  0.44462500  0.33596897  1.0
  In  In842  1  0.65043500  0.77795833  0.33596897  1.0
  In  In843  1  0.98376833  0.11129167  0.33596897  1.0
  In  In844  1  0.98376833  0.44462500  0.33596897  1.0
  In  In845  1  0.98376833  0.77795833  0.33596897  1.0
  In  In846  1  0.21899050  0.19835150  0.30453041  1.0
  In  In847  1  0.21899050  0.53168483  0.30453041  1.0
  In  In848  1  0.21899050  0.86501817  0.30453041  1.0
  In  In849  1  0.55232383  0.19835150  0.30453041  1.0
  In  In850  1  0.55232383  0.53168483  0.30453041  1.0
  In  In851  1  0.55232383  0.86501817  0.30453041  1.0
  In  In852  1  0.88565717  0.19835150  0.30453041  1.0
  In  In853  1  0.88565717  0.53168483  0.30453041  1.0
  In  In854  1  0.88565717  0.86501817  0.30453041  1.0
  In  In855  1  0.05232383  0.03168483  0.36703041  1.0
  In  In856  1  0.05232383  0.36501817  0.36703041  1.0
  In  In857  1  0.05232383  0.69835150  0.36703041  1.0
  In  In858  1  0.38565717  0.03168483  0.36703041  1.0
  In  In859  1  0.38565717  0.36501817  0.36703041  1.0
  In  In860  1  0.38565717  0.69835150  0.36703041  1.0
  In  In861  1  0.71899050  0.03168483  0.36703041  1.0
  In  In862  1  0.71899050  0.36501817  0.36703041  1.0
  In  In863  1  0.71899050  0.69835150  0.36703041  1.0
  In  In864  1  0.01623167  0.22204167  0.27009022  1.0
  In  In865  1  0.01623167  0.55537500  0.27009022  1.0
  In  In866  1  0.01623167  0.88870833  0.27009022  1.0
  In  In867  1  0.34956500  0.22204167  0.27009022  1.0
  In  In868  1  0.34956500  0.55537500  0.27009022  1.0
  In  In869  1  0.34956500  0.88870833  0.27009022  1.0
  In  In870  1  0.68289833  0.22204167  0.27009022  1.0
  In  In871  1  0.68289833  0.55537500  0.27009022  1.0
  In  In872  1  0.68289833  0.88870833  0.27009022  1.0
  In  In873  1  0.18289833  0.05537500  0.33259022  1.0
  In  In874  1  0.18289833  0.38870833  0.33259022  1.0
  In  In875  1  0.18289833  0.72204167  0.33259022  1.0
  In  In876  1  0.51623167  0.05537500  0.33259022  1.0
  In  In877  1  0.51623167  0.38870833  0.33259022  1.0
  In  In878  1  0.51623167  0.72204167  0.33259022  1.0
  In  In879  1  0.84956500  0.05537500  0.33259022  1.0
  In  In880  1  0.84956500  0.38870833  0.33259022  1.0
  In  In881  1  0.84956500  0.72204167  0.33259022  1.0
  In  In882  1  0.16666667  0.00000000  0.36552959  1.0
  In  In883  1  0.16666667  0.33333333  0.36552959  1.0
  In  In884  1  0.16666667  0.66666667  0.36552959  1.0
  In  In885  1  0.50000000  0.00000000  0.36552959  1.0
  In  In886  1  0.50000000  0.33333333  0.36552959  1.0
  In  In887  1  0.50000000  0.66666667  0.36552959  1.0
  In  In888  1  0.83333333  0.00000000  0.36552959  1.0
  In  In889  1  0.83333333  0.33333333  0.36552959  1.0
  In  In890  1  0.83333333  0.66666667  0.36552959  1.0
  In  In891  1  0.00000000  0.16666667  0.30302959  1.0
  In  In892  1  0.00000000  0.50000000  0.30302959  1.0
  In  In893  1  0.00000000  0.83333333  0.30302959  1.0
  In  In894  1  0.33333333  0.16666667  0.30302959  1.0
  In  In895  1  0.33333333  0.50000000  0.30302959  1.0
  In  In896  1  0.33333333  0.83333333  0.30302959  1.0
  In  In897  1  0.66666667  0.16666667  0.30302959  1.0
  In  In898  1  0.66666667  0.50000000  0.30302959  1.0
  In  In899  1  0.66666667  0.83333333  0.30302959  1.0
  In  In900  1  0.08801083  0.30164850  0.36402878  1.0
  In  In901  1  0.08801083  0.63498183  0.36402878  1.0
  In  In902  1  0.08801083  0.96831517  0.36402878  1.0
  In  In903  1  0.42134417  0.30164850  0.36402878  1.0
  In  In904  1  0.42134417  0.63498183  0.36402878  1.0
  In  In905  1  0.42134417  0.96831517  0.36402878  1.0
  In  In906  1  0.75467750  0.30164850  0.36402878  1.0
  In  In907  1  0.75467750  0.63498183  0.36402878  1.0
  In  In908  1  0.75467750  0.96831517  0.36402878  1.0
  In  In909  1  0.25467750  0.13498183  0.30152878  1.0
  In  In910  1  0.25467750  0.46831517  0.30152878  1.0
  In  In911  1  0.25467750  0.80164850  0.30152878  1.0
  In  In912  1  0.58801083  0.13498183  0.30152878  1.0
  In  In913  1  0.58801083  0.46831517  0.30152878  1.0
  In  In914  1  0.58801083  0.80164850  0.30152878  1.0
  In  In915  1  0.92134417  0.13498183  0.30152878  1.0
  In  In916  1  0.92134417  0.46831517  0.30152878  1.0
  In  In917  1  0.92134417  0.80164850  0.30152878  1.0
  In  In918  1  0.28100950  0.30164850  0.36402878  1.0
  In  In919  1  0.28100950  0.63498183  0.36402878  1.0
  In  In920  1  0.28100950  0.96831517  0.36402878  1.0
  In  In921  1  0.61434283  0.30164850  0.36402878  1.0
  In  In922  1  0.61434283  0.63498183  0.36402878  1.0
  In  In923  1  0.61434283  0.96831517  0.36402878  1.0
  In  In924  1  0.94767617  0.30164850  0.36402878  1.0
  In  In925  1  0.94767617  0.63498183  0.36402878  1.0
  In  In926  1  0.94767617  0.96831517  0.36402878  1.0
  In  In927  1  0.11434283  0.13498183  0.30152878  1.0
  In  In928  1  0.11434283  0.46831517  0.30152878  1.0
  In  In929  1  0.11434283  0.80164850  0.30152878  1.0
  In  In930  1  0.44767617  0.13498183  0.30152878  1.0
  In  In931  1  0.44767617  0.46831517  0.30152878  1.0
  In  In932  1  0.44767617  0.80164850  0.30152878  1.0
  In  In933  1  0.78100950  0.13498183  0.30152878  1.0
  In  In934  1  0.78100950  0.46831517  0.30152878  1.0
  In  In935  1  0.78100950  0.80164850  0.30152878  1.0
  In  In936  1  0.00688883  0.26904683  0.25947041  1.0
  In  In937  1  0.00688883  0.60238017  0.25947041  1.0
  In  In938  1  0.00688883  0.93571350  0.25947041  1.0
  In  In939  1  0.34022217  0.26904683  0.25947041  1.0
  In  In940  1  0.34022217  0.60238017  0.25947041  1.0
  In  In941  1  0.34022217  0.93571350  0.25947041  1.0
  In  In942  1  0.67355550  0.26904683  0.25947041  1.0
  In  In943  1  0.67355550  0.60238017  0.25947041  1.0
  In  In944  1  0.67355550  0.93571350  0.25947041  1.0
  In  In945  1  0.17355550  0.10238017  0.32197041  1.0
  In  In946  1  0.17355550  0.43571350  0.32197041  1.0
  In  In947  1  0.17355550  0.76904683  0.32197041  1.0
  In  In948  1  0.50688883  0.10238017  0.32197041  1.0
  In  In949  1  0.50688883  0.43571350  0.32197041  1.0
  In  In950  1  0.50688883  0.76904683  0.32197041  1.0
  In  In951  1  0.84022217  0.10238017  0.32197041  1.0
  In  In952  1  0.84022217  0.43571350  0.32197041  1.0
  In  In953  1  0.84022217  0.76904683  0.32197041  1.0
  Ni  Ni954  1  0.16178400  0.19319700  0.36160634  1.0
  Ni  Ni955  1  0.16178400  0.52653033  0.36160634  1.0
  Ni  Ni956  1  0.16178400  0.85986367  0.36160634  1.0
  Ni  Ni957  1  0.49511733  0.19319700  0.36160634  1.0
  Ni  Ni958  1  0.49511733  0.52653033  0.36160634  1.0
  Ni  Ni959  1  0.49511733  0.85986367  0.36160634  1.0
  Ni  Ni960  1  0.82845067  0.19319700  0.36160634  1.0
  Ni  Ni961  1  0.82845067  0.52653033  0.36160634  1.0
  Ni  Ni962  1  0.82845067  0.85986367  0.36160634  1.0
  Ni  Ni963  1  0.32845067  0.02653033  0.29910634  1.0
  Ni  Ni964  1  0.32845067  0.35986367  0.29910634  1.0
  Ni  Ni965  1  0.32845067  0.69319700  0.29910634  1.0
  Ni  Ni966  1  0.66178400  0.02653033  0.29910634  1.0
  Ni  Ni967  1  0.66178400  0.35986367  0.29910634  1.0
  Ni  Ni968  1  0.66178400  0.69319700  0.29910634  1.0
  Ni  Ni969  1  0.99511733  0.02653033  0.29910634  1.0
  Ni  Ni970  1  0.99511733  0.35986367  0.29910634  1.0
  Ni  Ni971  1  0.99511733  0.69319700  0.29910634  1.0
  Ni  Ni972  1  0.08333333  0.25000000  0.27177959  1.0
  Ni  Ni973  1  0.08333333  0.58333333  0.27177959  1.0
  Ni  Ni974  1  0.08333333  0.91666667  0.27177959  1.0
  Ni  Ni975  1  0.41666667  0.25000000  0.27177959  1.0
  Ni  Ni976  1  0.41666667  0.58333333  0.27177959  1.0
  Ni  Ni977  1  0.41666667  0.91666667  0.27177959  1.0
  Ni  Ni978  1  0.75000000  0.25000000  0.27177959  1.0
  Ni  Ni979  1  0.75000000  0.58333333  0.27177959  1.0
  Ni  Ni980  1  0.75000000  0.91666667  0.27177959  1.0
  Ni  Ni981  1  0.25000000  0.08333333  0.33427959  1.0
  Ni  Ni982  1  0.25000000  0.41666667  0.33427959  1.0
  Ni  Ni983  1  0.25000000  0.75000000  0.33427959  1.0
  Ni  Ni984  1  0.58333333  0.08333333  0.33427959  1.0
  Ni  Ni985  1  0.58333333  0.41666667  0.33427959  1.0
  Ni  Ni986  1  0.58333333  0.75000000  0.33427959  1.0
  Ni  Ni987  1  0.91666667  0.08333333  0.33427959  1.0
  Ni  Ni988  1  0.91666667  0.41666667  0.33427959  1.0
  Ni  Ni989  1  0.91666667  0.75000000  0.33427959  1.0
  Ni  Ni990  1  0.23538267  0.27951600  0.33417409  1.0
  Ni  Ni991  1  0.23538267  0.61284933  0.33417409  1.0
  Ni  Ni992  1  0.23538267  0.94618267  0.33417409  1.0
  Ni  Ni993  1  0.56871600  0.27951600  0.33417409  1.0
  Ni  Ni994  1  0.56871600  0.61284933  0.33417409  1.0
  Ni  Ni995  1  0.56871600  0.94618267  0.33417409  1.0
  Ni  Ni996  1  0.90204933  0.27951600  0.33417409  1.0
  Ni  Ni997  1  0.90204933  0.61284933  0.33417409  1.0
  Ni  Ni998  1  0.90204933  0.94618267  0.33417409  1.0
  Ni  Ni999  1  0.06871600  0.11284933  0.27167409  1.0
  Ni  Ni1000  1  0.06871600  0.44618267  0.27167409  1.0
  Ni  Ni1001  1  0.06871600  0.77951600  0.27167409  1.0
  Ni  Ni1002  1  0.40204933  0.11284933  0.27167409  1.0
  Ni  Ni1003  1  0.40204933  0.44618267  0.27167409  1.0
  Ni  Ni1004  1  0.40204933  0.77951600  0.27167409  1.0
  Ni  Ni1005  1  0.73538267  0.11284933  0.27167409  1.0
  Ni  Ni1006  1  0.73538267  0.44618267  0.27167409  1.0
  Ni  Ni1007  1  0.73538267  0.77951600  0.27167409  1.0
  Ni  Ni1008  1  0.32214767  0.19319700  0.36160634  1.0
  Ni  Ni1009  1  0.32214767  0.52653033  0.36160634  1.0
  Ni  Ni1010  1  0.32214767  0.85986367  0.36160634  1.0
  Ni  Ni1011  1  0.65548100  0.19319700  0.36160634  1.0
  Ni  Ni1012  1  0.65548100  0.52653033  0.36160634  1.0
  Ni  Ni1013  1  0.65548100  0.85986367  0.36160634  1.0
  Ni  Ni1014  1  0.98881433  0.19319700  0.36160634  1.0
  Ni  Ni1015  1  0.98881433  0.52653033  0.36160634  1.0
  Ni  Ni1016  1  0.98881433  0.85986367  0.36160634  1.0
  Ni  Ni1017  1  0.15548100  0.02653033  0.29910634  1.0
  Ni  Ni1018  1  0.15548100  0.35986367  0.29910634  1.0
  Ni  Ni1019  1  0.15548100  0.69319700  0.29910634  1.0
  Ni  Ni1020  1  0.48881433  0.02653033  0.29910634  1.0
  Ni  Ni1021  1  0.48881433  0.35986367  0.29910634  1.0
  Ni  Ni1022  1  0.48881433  0.69319700  0.29910634  1.0
  Ni  Ni1023  1  0.82214767  0.02653033  0.29910634  1.0
  Ni  Ni1024  1  0.82214767  0.35986367  0.29910634  1.0
  Ni  Ni1025  1  0.82214767  0.69319700  0.29910634  1.0
  Ni  Ni1026  1  0.26461733  0.22048400  0.33438509  1.0
  Ni  Ni1027  1  0.26461733  0.55381733  0.33438509  1.0
  Ni  Ni1028  1  0.26461733  0.88715067  0.33438509  1.0
  Ni  Ni1029  1  0.59795067  0.22048400  0.33438509  1.0
  Ni  Ni1030  1  0.59795067  0.55381733  0.33438509  1.0
  Ni  Ni1031  1  0.59795067  0.88715067  0.33438509  1.0
  Ni  Ni1032  1  0.93128400  0.22048400  0.33438509  1.0
  Ni  Ni1033  1  0.93128400  0.55381733  0.33438509  1.0
  Ni  Ni1034  1  0.93128400  0.88715067  0.33438509  1.0
  Ni  Ni1035  1  0.09795067  0.05381733  0.27188509  1.0
  Ni  Ni1036  1  0.09795067  0.38715067  0.27188509  1.0
  Ni  Ni1037  1  0.09795067  0.72048400  0.27188509  1.0
  Ni  Ni1038  1  0.43128400  0.05381733  0.27188509  1.0
  Ni  Ni1039  1  0.43128400  0.38715067  0.27188509  1.0
  Ni  Ni1040  1  0.43128400  0.72048400  0.27188509  1.0
  Ni  Ni1041  1  0.76461733  0.05381733  0.27188509  1.0
  Ni  Ni1042  1  0.76461733  0.38715067  0.27188509  1.0
  Ni  Ni1043  1  0.76461733  0.72048400  0.27188509  1.0
  Ni  Ni1044  1  0.32786200  0.25000000  0.33427959  1.0
  Ni  Ni1045  1  0.32786200  0.58333333  0.33427959  1.0
  Ni  Ni1046  1  0.32786200  0.91666667  0.33427959  1.0
  Ni  Ni1047  1  0.66119533  0.25000000  0.33427959  1.0
  Ni  Ni1048  1  0.66119533  0.58333333  0.33427959  1.0
  Ni  Ni1049  1  0.66119533  0.91666667  0.33427959  1.0
  Ni  Ni1050  1  0.99452867  0.25000000  0.33427959  1.0
  Ni  Ni1051  1  0.99452867  0.58333333  0.33427959  1.0
  Ni  Ni1052  1  0.99452867  0.91666667  0.33427959  1.0
  Ni  Ni1053  1  0.16119533  0.08333333  0.27177959  1.0
  Ni  Ni1054  1  0.16119533  0.41666667  0.27177959  1.0
  Ni  Ni1055  1  0.16119533  0.75000000  0.27177959  1.0
  Ni  Ni1056  1  0.49452867  0.08333333  0.27177959  1.0
  Ni  Ni1057  1  0.49452867  0.41666667  0.27177959  1.0
  Ni  Ni1058  1  0.49452867  0.75000000  0.27177959  1.0
  Ni  Ni1059  1  0.82786200  0.08333333  0.27177959  1.0
  Ni  Ni1060  1  0.82786200  0.41666667  0.27177959  1.0
  Ni  Ni1061  1  0.82786200  0.75000000  0.27177959  1.0
  Ni  Ni1062  1  0.08962550  0.32992017  0.29959041  1.0
  Ni  Ni1063  1  0.08962550  0.66325350  0.29959041  1.0
  Ni  Ni1064  1  0.08962550  0.99658683  0.29959041  1.0
  Ni  Ni1065  1  0.42295883  0.32992017  0.29959041  1.0
  Ni  Ni1066  1  0.42295883  0.66325350  0.29959041  1.0
  Ni  Ni1067  1  0.42295883  0.99658683  0.29959041  1.0
  Ni  Ni1068  1  0.75629217  0.32992017  0.29959041  1.0
  Ni  Ni1069  1  0.75629217  0.66325350  0.29959041  1.0
  Ni  Ni1070  1  0.75629217  0.99658683  0.29959041  1.0
  Ni  Ni1071  1  0.25629217  0.16325350  0.36209041  1.0
  Ni  Ni1072  1  0.25629217  0.49658683  0.36209041  1.0
  Ni  Ni1073  1  0.25629217  0.82992017  0.36209041  1.0
  Ni  Ni1074  1  0.58962550  0.16325350  0.36209041  1.0
  Ni  Ni1075  1  0.58962550  0.49658683  0.36209041  1.0
  Ni  Ni1076  1  0.58962550  0.82992017  0.36209041  1.0
  Ni  Ni1077  1  0.92295883  0.16325350  0.36209041  1.0
  Ni  Ni1078  1  0.92295883  0.49658683  0.36209041  1.0
  Ni  Ni1079  1  0.92295883  0.82992017  0.36209041  1.0
  Ni  Ni1080  1  0.17785233  0.30680300  0.30695284  1.0
  Ni  Ni1081  1  0.17785233  0.64013633  0.30695284  1.0
  Ni  Ni1082  1  0.17785233  0.97346967  0.30695284  1.0
  Ni  Ni1083  1  0.51118567  0.30680300  0.30695284  1.0
  Ni  Ni1084  1  0.51118567  0.64013633  0.30695284  1.0
  Ni  Ni1085  1  0.51118567  0.97346967  0.30695284  1.0
  Ni  Ni1086  1  0.84451900  0.30680300  0.30695284  1.0
  Ni  Ni1087  1  0.84451900  0.64013633  0.30695284  1.0
  Ni  Ni1088  1  0.84451900  0.97346967  0.30695284  1.0
  Ni  Ni1089  1  0.01118567  0.14013633  0.36945284  1.0
  Ni  Ni1090  1  0.01118567  0.47346967  0.36945284  1.0
  Ni  Ni1091  1  0.01118567  0.80680300  0.36945284  1.0
  Ni  Ni1092  1  0.34451900  0.14013633  0.36945284  1.0
  Ni  Ni1093  1  0.34451900  0.47346967  0.36945284  1.0
  Ni  Ni1094  1  0.34451900  0.80680300  0.36945284  1.0
  Ni  Ni1095  1  0.67785233  0.14013633  0.36945284  1.0
  Ni  Ni1096  1  0.67785233  0.47346967  0.36945284  1.0
  Ni  Ni1097  1  0.67785233  0.80680300  0.36945284  1.0
  Ni  Ni1098  1  0.07704117  0.17007983  0.36896878  1.0
  Ni  Ni1099  1  0.07704117  0.50341317  0.36896878  1.0
  Ni  Ni1100  1  0.07704117  0.83674650  0.36896878  1.0
  Ni  Ni1101  1  0.41037450  0.17007983  0.36896878  1.0
  Ni  Ni1102  1  0.41037450  0.50341317  0.36896878  1.0
  Ni  Ni1103  1  0.41037450  0.83674650  0.36896878  1.0
  Ni  Ni1104  1  0.74370783  0.17007983  0.36896878  1.0
  Ni  Ni1105  1  0.74370783  0.50341317  0.36896878  1.0
  Ni  Ni1106  1  0.74370783  0.83674650  0.36896878  1.0
  Ni  Ni1107  1  0.24370783  0.00341317  0.30646878  1.0
  Ni  Ni1108  1  0.24370783  0.33674650  0.30646878  1.0
  Ni  Ni1109  1  0.24370783  0.67007983  0.30646878  1.0
  Ni  Ni1110  1  0.57704117  0.00341317  0.30646878  1.0
  Ni  Ni1111  1  0.57704117  0.33674650  0.30646878  1.0
  Ni  Ni1112  1  0.57704117  0.67007983  0.30646878  1.0
  Ni  Ni1113  1  0.91037450  0.00341317  0.30646878  1.0
  Ni  Ni1114  1  0.91037450  0.33674650  0.30646878  1.0
  Ni  Ni1115  1  0.91037450  0.67007983  0.30646878  1.0
  Ni  Ni1116  1  0.00488267  0.30680300  0.30695284  1.0
  Ni  Ni1117  1  0.00488267  0.64013633  0.30695284  1.0
  Ni  Ni1118  1  0.00488267  0.97346967  0.30695284  1.0
  Ni  Ni1119  1  0.33821600  0.30680300  0.30695284  1.0
  Ni  Ni1120  1  0.33821600  0.64013633  0.30695284  1.0
  Ni  Ni1121  1  0.33821600  0.97346967  0.30695284  1.0
  Ni  Ni1122  1  0.67154933  0.30680300  0.30695284  1.0
  Ni  Ni1123  1  0.67154933  0.64013633  0.30695284  1.0
  Ni  Ni1124  1  0.67154933  0.97346967  0.30695284  1.0
  Ni  Ni1125  1  0.17154933  0.14013633  0.36945284  1.0
  Ni  Ni1126  1  0.17154933  0.47346967  0.36945284  1.0
  Ni  Ni1127  1  0.17154933  0.80680300  0.36945284  1.0
  Ni  Ni1128  1  0.50488267  0.14013633  0.36945284  1.0
  Ni  Ni1129  1  0.50488267  0.47346967  0.36945284  1.0
  Ni  Ni1130  1  0.50488267  0.80680300  0.36945284  1.0
  Ni  Ni1131  1  0.83821600  0.14013633  0.36945284  1.0
  Ni  Ni1132  1  0.83821600  0.47346967  0.36945284  1.0
  Ni  Ni1133  1  0.83821600  0.80680300  0.36945284  1.0
  Ni  Ni1134  1  0.17213800  0.25000000  0.33427959  1.0
  Ni  Ni1135  1  0.17213800  0.58333333  0.33427959  1.0
  Ni  Ni1136  1  0.17213800  0.91666667  0.33427959  1.0
  Ni  Ni1137  1  0.50547133  0.25000000  0.33427959  1.0
  Ni  Ni1138  1  0.50547133  0.58333333  0.33427959  1.0
  Ni  Ni1139  1  0.50547133  0.91666667  0.33427959  1.0
  Ni  Ni1140  1  0.83880467  0.25000000  0.33427959  1.0
  Ni  Ni1141  1  0.83880467  0.58333333  0.33427959  1.0
  Ni  Ni1142  1  0.83880467  0.91666667  0.33427959  1.0
  Ni  Ni1143  1  0.00547133  0.08333333  0.27177959  1.0
  Ni  Ni1144  1  0.00547133  0.41666667  0.27177959  1.0
  Ni  Ni1145  1  0.00547133  0.75000000  0.27177959  1.0
  Ni  Ni1146  1  0.33880467  0.08333333  0.27177959  1.0
  Ni  Ni1147  1  0.33880467  0.41666667  0.27177959  1.0
  Ni  Ni1148  1  0.33880467  0.75000000  0.27177959  1.0
  Ni  Ni1149  1  0.67213800  0.08333333  0.27177959  1.0
  Ni  Ni1150  1  0.67213800  0.41666667  0.27177959  1.0
  Ni  Ni1151  1  0.67213800  0.75000000  0.27177959  1.0
  Ni  Ni1152  1  0.00000000  0.00000000  0.36552959  1.0
  Ni  Ni1153  1  0.00000000  0.33333333  0.36552959  1.0
  Ni  Ni1154  1  0.00000000  0.66666667  0.36552959  1.0
  Ni  Ni1155  1  0.33333333  0.00000000  0.36552959  1.0
  Ni  Ni1156  1  0.33333333  0.33333333  0.36552959  1.0
  Ni  Ni1157  1  0.33333333  0.66666667  0.36552959  1.0
  Ni  Ni1158  1  0.66666667  0.00000000  0.36552959  1.0
  Ni  Ni1159  1  0.66666667  0.33333333  0.36552959  1.0
  Ni  Ni1160  1  0.66666667  0.66666667  0.36552959  1.0
  Ni  Ni1161  1  0.16666667  0.16666667  0.30302959  1.0
  Ni  Ni1162  1  0.16666667  0.50000000  0.30302959  1.0
  Ni  Ni1163  1  0.16666667  0.83333333  0.30302959  1.0
  Ni  Ni1164  1  0.50000000  0.16666667  0.30302959  1.0
  Ni  Ni1165  1  0.50000000  0.50000000  0.30302959  1.0
  Ni  Ni1166  1  0.50000000  0.83333333  0.30302959  1.0
  Ni  Ni1167  1  0.83333333  0.16666667  0.30302959  1.0
  Ni  Ni1168  1  0.83333333  0.50000000  0.30302959  1.0
  Ni  Ni1169  1  0.83333333  0.83333333  0.30302959  1.0
  Ni  Ni1170  1  0.25000000  0.25000000  0.27177959  1.0
  Ni  Ni1171  1  0.25000000  0.58333333  0.27177959  1.0
  Ni  Ni1172  1  0.25000000  0.91666667  0.27177959  1.0
  Ni  Ni1173  1  0.58333333  0.25000000  0.27177959  1.0
  Ni  Ni1174  1  0.58333333  0.58333333  0.27177959  1.0
  Ni  Ni1175  1  0.58333333  0.91666667  0.27177959  1.0
  Ni  Ni1176  1  0.91666667  0.25000000  0.27177959  1.0
  Ni  Ni1177  1  0.91666667  0.58333333  0.27177959  1.0
  Ni  Ni1178  1  0.91666667  0.91666667  0.27177959  1.0
  Ni  Ni1179  1  0.08333333  0.08333333  0.33427959  1.0
  Ni  Ni1180  1  0.08333333  0.41666667  0.33427959  1.0
  Ni  Ni1181  1  0.08333333  0.75000000  0.33427959  1.0
  Ni  Ni1182  1  0.41666667  0.08333333  0.33427959  1.0
  Ni  Ni1183  1  0.41666667  0.41666667  0.33427959  1.0
  Ni  Ni1184  1  0.41666667  0.75000000  0.33427959  1.0
  Ni  Ni1185  1  0.75000000  0.08333333  0.33427959  1.0
  Ni  Ni1186  1  0.75000000  0.41666667  0.33427959  1.0
  Ni  Ni1187  1  0.75000000  0.75000000  0.33427959  1.0
