# generated using pymatgen
data_In9Ni13
_symmetry_space_group_name_H-M   'P 1'
_cell_length_a   37.23140660
_cell_length_b   40.61705767
_cell_length_c   30.94707040
_cell_angle_alpha   95.34886836
_cell_angle_beta   92.73929465
_cell_angle_gamma   116.25602246
_symmetry_Int_Tables_number   1
_chemical_formula_structural   In9Ni13
_chemical_formula_sum   'In486 Ni702'
_cell_volume   41579.66173162
_cell_formula_units_Z   54
loop_
 _symmetry_equiv_pos_site_id
 _symmetry_equiv_pos_as_xyz
  1  'x, y, z'
loop_
 _atom_site_type_symbol
 _atom_site_label
 _atom_site_symmetry_multiplicity
 _atom_site_fract_x
 _atom_site_fract_y
 _atom_site_fract_z
 _atom_site_occupancy
  In  In0  1  0.07354388  0.09297750  0.91719671  1.0
  In  In1  1  0.07354388  0.42631083  0.91719671  1.0
  In  In2  1  0.07354388  0.75964417  0.91719671  1.0
  In  In3  1  0.40687721  0.09297750  0.91719671  1.0
  In  In4  1  0.40687721  0.42631083  0.91719671  1.0
  In  In5  1  0.40687721  0.75964417  0.91719671  1.0
  In  In6  1  0.74021055  0.09297750  0.91719671  1.0
  In  In7  1  0.74021055  0.42631083  0.91719671  1.0
  In  In8  1  0.74021055  0.75964417  0.91719671  1.0
  In  In9  1  0.31163912  0.25964417  0.98862529  1.0
  In  In10  1  0.31163912  0.59297750  0.98862529  1.0
  In  In11  1  0.31163912  0.92631083  0.98862529  1.0
  In  In12  1  0.64497245  0.25964417  0.98862529  1.0
  In  In13  1  0.64497245  0.59297750  0.98862529  1.0
  In  In14  1  0.64497245  0.92631083  0.98862529  1.0
  In  In15  1  0.97830579  0.25964417  0.98862529  1.0
  In  In16  1  0.97830579  0.59297750  0.98862529  1.0
  In  In17  1  0.97830579  0.92631083  0.98862529  1.0
  In  In18  1  0.14851526  0.07368133  0.94626093  1.0
  In  In19  1  0.14851526  0.40701467  0.94626093  1.0
  In  In20  1  0.14851526  0.74034800  0.94626093  1.0
  In  In21  1  0.48184860  0.07368133  0.94626093  1.0
  In  In22  1  0.48184860  0.40701467  0.94626093  1.0
  In  In23  1  0.48184860  0.74034800  0.94626093  1.0
  In  In24  1  0.81518193  0.07368133  0.94626093  1.0
  In  In25  1  0.81518193  0.40701467  0.94626093  1.0
  In  In26  1  0.81518193  0.74034800  0.94626093  1.0
  In  In27  1  0.24375336  0.24034800  0.87483236  1.0
  In  In28  1  0.24375336  0.57368133  0.87483236  1.0
  In  In29  1  0.24375336  0.90701467  0.87483236  1.0
  In  In30  1  0.57708669  0.24034800  0.87483236  1.0
  In  In31  1  0.57708669  0.57368133  0.87483236  1.0
  In  In32  1  0.57708669  0.90701467  0.87483236  1.0
  In  In33  1  0.91042002  0.24034800  0.87483236  1.0
  In  In34  1  0.91042002  0.57368133  0.87483236  1.0
  In  In35  1  0.91042002  0.90701467  0.87483236  1.0
  In  In36  1  0.18075569  0.00784500  0.95032736  1.0
  In  In37  1  0.18075569  0.34117833  0.95032736  1.0
  In  In38  1  0.18075569  0.67451167  0.95032736  1.0
  In  In39  1  0.51408902  0.00784500  0.95032736  1.0
  In  In40  1  0.51408902  0.34117833  0.95032736  1.0
  In  In41  1  0.51408902  0.67451167  0.95032736  1.0
  In  In42  1  0.84742236  0.00784500  0.95032736  1.0
  In  In43  1  0.84742236  0.34117833  0.95032736  1.0
  In  In44  1  0.84742236  0.67451167  0.95032736  1.0
  In  In45  1  0.27599379  0.17451167  0.87889879  1.0
  In  In46  1  0.27599379  0.50784500  0.87889879  1.0
  In  In47  1  0.27599379  0.84117833  0.87889879  1.0
  In  In48  1  0.60932712  0.17451167  0.87889879  1.0
  In  In49  1  0.60932712  0.50784500  0.87889879  1.0
  In  In50  1  0.60932712  0.84117833  0.87889879  1.0
  In  In51  1  0.94266045  0.17451167  0.87889879  1.0
  In  In52  1  0.94266045  0.50784500  0.87889879  1.0
  In  In53  1  0.94266045  0.84117833  0.87889879  1.0
  In  In54  1  0.26902102  0.32981150  0.87583986  1.0
  In  In55  1  0.26902102  0.66314483  0.87583986  1.0
  In  In56  1  0.26902102  0.99647817  0.87583986  1.0
  In  In57  1  0.60235436  0.32981150  0.87583986  1.0
  In  In58  1  0.60235436  0.66314483  0.87583986  1.0
  In  In59  1  0.60235436  0.99647817  0.87583986  1.0
  In  In60  1  0.93568769  0.32981150  0.87583986  1.0
  In  In61  1  0.93568769  0.66314483  0.87583986  1.0
  In  In62  1  0.93568769  0.99647817  0.87583986  1.0
  In  In63  1  0.17378293  0.16314483  0.94726843  1.0
  In  In64  1  0.17378293  0.49647817  0.94726843  1.0
  In  In65  1  0.17378293  0.82981150  0.94726843  1.0
  In  In66  1  0.50711626  0.16314483  0.94726843  1.0
  In  In67  1  0.50711626  0.49647817  0.94726843  1.0
  In  In68  1  0.50711626  0.82981150  0.94726843  1.0
  In  In69  1  0.84044960  0.16314483  0.94726843  1.0
  In  In70  1  0.84044960  0.49647817  0.94726843  1.0
  In  In71  1  0.84044960  0.82981150  0.94726843  1.0
  In  In72  1  0.02640521  0.32548833  0.92350021  1.0
  In  In73  1  0.02640521  0.65882167  0.92350021  1.0
  In  In74  1  0.02640521  0.99215500  0.92350021  1.0
  In  In75  1  0.35973855  0.32548833  0.92350021  1.0
  In  In76  1  0.35973855  0.65882167  0.92350021  1.0
  In  In77  1  0.35973855  0.99215500  0.92350021  1.0
  In  In78  1  0.69307188  0.32548833  0.92350021  1.0
  In  In79  1  0.69307188  0.65882167  0.92350021  1.0
  In  In80  1  0.69307188  0.99215500  0.92350021  1.0
  In  In81  1  0.26450045  0.15882167  0.99492879  1.0
  In  In82  1  0.26450045  0.49215500  0.99492879  1.0
  In  In83  1  0.26450045  0.82548833  0.99492879  1.0
  In  In84  1  0.59783379  0.15882167  0.99492879  1.0
  In  In85  1  0.59783379  0.49215500  0.99492879  1.0
  In  In86  1  0.59783379  0.82548833  0.99492879  1.0
  In  In87  1  0.93116712  0.15882167  0.99492879  1.0
  In  In88  1  0.93116712  0.49215500  0.99492879  1.0
  In  In89  1  0.93116712  0.82548833  0.99492879  1.0
  In  In90  1  0.22262807  0.25000000  0.97262807  1.0
  In  In91  1  0.22262807  0.58333333  0.97262807  1.0
  In  In92  1  0.22262807  0.91666667  0.97262807  1.0
  In  In93  1  0.55596140  0.25000000  0.97262807  1.0
  In  In94  1  0.55596140  0.58333333  0.97262807  1.0
  In  In95  1  0.55596140  0.91666667  0.97262807  1.0
  In  In96  1  0.88929474  0.25000000  0.97262807  1.0
  In  In97  1  0.88929474  0.58333333  0.97262807  1.0
  In  In98  1  0.88929474  0.91666667  0.97262807  1.0
  In  In99  1  0.31786617  0.08333333  0.90119950  1.0
  In  In100  1  0.31786617  0.41666667  0.90119950  1.0
  In  In101  1  0.31786617  0.75000000  0.90119950  1.0
  In  In102  1  0.65119950  0.08333333  0.90119950  1.0
  In  In103  1  0.65119950  0.41666667  0.90119950  1.0
  In  In104  1  0.65119950  0.75000000  0.90119950  1.0
  In  In105  1  0.98453283  0.08333333  0.90119950  1.0
  In  In106  1  0.98453283  0.41666667  0.90119950  1.0
  In  In107  1  0.98453283  0.75000000  0.90119950  1.0
  In  In108  1  0.13361702  0.24035583  0.95663086  1.0
  In  In109  1  0.13361702  0.57368917  0.95663086  1.0
  In  In110  1  0.13361702  0.90702250  0.95663086  1.0
  In  In111  1  0.46695036  0.24035583  0.95663086  1.0
  In  In112  1  0.46695036  0.57368917  0.95663086  1.0
  In  In113  1  0.46695036  0.90702250  0.95663086  1.0
  In  In114  1  0.80028369  0.24035583  0.95663086  1.0
  In  In115  1  0.80028369  0.57368917  0.95663086  1.0
  In  In116  1  0.80028369  0.90702250  0.95663086  1.0
  In  In117  1  0.22885512  0.07368917  0.88520229  1.0
  In  In118  1  0.22885512  0.40702250  0.88520229  1.0
  In  In119  1  0.22885512  0.74035583  0.88520229  1.0
  In  In120  1  0.56218845  0.07368917  0.88520229  1.0
  In  In121  1  0.56218845  0.40702250  0.88520229  1.0
  In  In122  1  0.56218845  0.74035583  0.88520229  1.0
  In  In123  1  0.89552179  0.07368917  0.88520229  1.0
  In  In124  1  0.89552179  0.40702250  0.88520229  1.0
  In  In125  1  0.89552179  0.74035583  0.88520229  1.0
  In  In126  1  0.27147321  0.00352183  0.99798771  1.0
  In  In127  1  0.27147321  0.33685517  0.99798771  1.0
  In  In128  1  0.27147321  0.67018850  0.99798771  1.0
  In  In129  1  0.60480655  0.00352183  0.99798771  1.0
  In  In130  1  0.60480655  0.33685517  0.99798771  1.0
  In  In131  1  0.60480655  0.67018850  0.99798771  1.0
  In  In132  1  0.93813988  0.00352183  0.99798771  1.0
  In  In133  1  0.93813988  0.33685517  0.99798771  1.0
  In  In134  1  0.93813988  0.67018850  0.99798771  1.0
  In  In135  1  0.03337798  0.17018850  0.92655914  1.0
  In  In136  1  0.03337798  0.50352183  0.92655914  1.0
  In  In137  1  0.03337798  0.83685517  0.92655914  1.0
  In  In138  1  0.36671131  0.17018850  0.92655914  1.0
  In  In139  1  0.36671131  0.50352183  0.92655914  1.0
  In  In140  1  0.36671131  0.83685517  0.92655914  1.0
  In  In141  1  0.70004464  0.17018850  0.92655914  1.0
  In  In142  1  0.70004464  0.50352183  0.92655914  1.0
  In  In143  1  0.70004464  0.83685517  0.92655914  1.0
  In  In144  1  0.05864564  0.25965200  0.92756664  1.0
  In  In145  1  0.05864564  0.59298533  0.92756664  1.0
  In  In146  1  0.05864564  0.92631867  0.92756664  1.0
  In  In147  1  0.39197898  0.25965200  0.92756664  1.0
  In  In148  1  0.39197898  0.59298533  0.92756664  1.0
  In  In149  1  0.39197898  0.92631867  0.92756664  1.0
  In  In150  1  0.72531231  0.25965200  0.92756664  1.0
  In  In151  1  0.72531231  0.59298533  0.92756664  1.0
  In  In152  1  0.72531231  0.92631867  0.92756664  1.0
  In  In153  1  0.29674088  0.09298533  0.99899521  1.0
  In  In154  1  0.29674088  0.42631867  0.99899521  1.0
  In  In155  1  0.29674088  0.75965200  0.99899521  1.0
  In  In156  1  0.63007421  0.09298533  0.99899521  1.0
  In  In157  1  0.63007421  0.42631867  0.99899521  1.0
  In  In158  1  0.63007421  0.75965200  0.99899521  1.0
  In  In159  1  0.96340755  0.09298533  0.99899521  1.0
  In  In160  1  0.96340755  0.42631867  0.99899521  1.0
  In  In161  1  0.96340755  0.75965200  0.99899521  1.0
  In  In162  1  0.26402007  0.09297750  0.77433957  1.0
  In  In163  1  0.26402007  0.42631083  0.77433957  1.0
  In  In164  1  0.26402007  0.75964417  0.77433957  1.0
  In  In165  1  0.59735340  0.09297750  0.77433957  1.0
  In  In166  1  0.59735340  0.42631083  0.77433957  1.0
  In  In167  1  0.59735340  0.75964417  0.77433957  1.0
  In  In168  1  0.93068674  0.09297750  0.77433957  1.0
  In  In169  1  0.93068674  0.42631083  0.77433957  1.0
  In  In170  1  0.93068674  0.75964417  0.77433957  1.0
  In  In171  1  0.16878198  0.25964417  0.84576814  1.0
  In  In172  1  0.16878198  0.59297750  0.84576814  1.0
  In  In173  1  0.16878198  0.92631083  0.84576814  1.0
  In  In174  1  0.50211531  0.25964417  0.84576814  1.0
  In  In175  1  0.50211531  0.59297750  0.84576814  1.0
  In  In176  1  0.50211531  0.92631083  0.84576814  1.0
  In  In177  1  0.83544864  0.25964417  0.84576814  1.0
  In  In178  1  0.83544864  0.59297750  0.84576814  1.0
  In  In179  1  0.83544864  0.92631083  0.84576814  1.0
  In  In180  1  0.00565812  0.07368133  0.80340379  1.0
  In  In181  1  0.00565812  0.40701467  0.80340379  1.0
  In  In182  1  0.00565812  0.74034800  0.80340379  1.0
  In  In183  1  0.33899145  0.07368133  0.80340379  1.0
  In  In184  1  0.33899145  0.40701467  0.80340379  1.0
  In  In185  1  0.33899145  0.74034800  0.80340379  1.0
  In  In186  1  0.67232479  0.07368133  0.80340379  1.0
  In  In187  1  0.67232479  0.40701467  0.80340379  1.0
  In  In188  1  0.67232479  0.74034800  0.80340379  1.0
  In  In189  1  0.10089621  0.24034800  0.73197521  1.0
  In  In190  1  0.10089621  0.57368133  0.73197521  1.0
  In  In191  1  0.10089621  0.90701467  0.73197521  1.0
  In  In192  1  0.43422955  0.24034800  0.73197521  1.0
  In  In193  1  0.43422955  0.57368133  0.73197521  1.0
  In  In194  1  0.43422955  0.90701467  0.73197521  1.0
  In  In195  1  0.76756288  0.24034800  0.73197521  1.0
  In  In196  1  0.76756288  0.57368133  0.73197521  1.0
  In  In197  1  0.76756288  0.90701467  0.73197521  1.0
  In  In198  1  0.03789855  0.00784500  0.80747021  1.0
  In  In199  1  0.03789855  0.34117833  0.80747021  1.0
  In  In200  1  0.03789855  0.67451167  0.80747021  1.0
  In  In201  1  0.37123188  0.00784500  0.80747021  1.0
  In  In202  1  0.37123188  0.34117833  0.80747021  1.0
  In  In203  1  0.37123188  0.67451167  0.80747021  1.0
  In  In204  1  0.70456521  0.00784500  0.80747021  1.0
  In  In205  1  0.70456521  0.34117833  0.80747021  1.0
  In  In206  1  0.70456521  0.67451167  0.80747021  1.0
  In  In207  1  0.13313664  0.17451167  0.73604164  1.0
  In  In208  1  0.13313664  0.50784500  0.73604164  1.0
  In  In209  1  0.13313664  0.84117833  0.73604164  1.0
  In  In210  1  0.46646998  0.17451167  0.73604164  1.0
  In  In211  1  0.46646998  0.50784500  0.73604164  1.0
  In  In212  1  0.46646998  0.84117833  0.73604164  1.0
  In  In213  1  0.79980331  0.17451167  0.73604164  1.0
  In  In214  1  0.79980331  0.50784500  0.73604164  1.0
  In  In215  1  0.79980331  0.84117833  0.73604164  1.0
  In  In216  1  0.12616388  0.32981150  0.73298271  1.0
  In  In217  1  0.12616388  0.66314483  0.73298271  1.0
  In  In218  1  0.12616388  0.99647817  0.73298271  1.0
  In  In219  1  0.45949721  0.32981150  0.73298271  1.0
  In  In220  1  0.45949721  0.66314483  0.73298271  1.0
  In  In221  1  0.45949721  0.99647817  0.73298271  1.0
  In  In222  1  0.79283055  0.32981150  0.73298271  1.0
  In  In223  1  0.79283055  0.66314483  0.73298271  1.0
  In  In224  1  0.79283055  0.99647817  0.73298271  1.0
  In  In225  1  0.03092579  0.16314483  0.80441129  1.0
  In  In226  1  0.03092579  0.49647817  0.80441129  1.0
  In  In227  1  0.03092579  0.82981150  0.80441129  1.0
  In  In228  1  0.36425912  0.16314483  0.80441129  1.0
  In  In229  1  0.36425912  0.49647817  0.80441129  1.0
  In  In230  1  0.36425912  0.82981150  0.80441129  1.0
  In  In231  1  0.69759245  0.16314483  0.80441129  1.0
  In  In232  1  0.69759245  0.49647817  0.80441129  1.0
  In  In233  1  0.69759245  0.82981150  0.80441129  1.0
  In  In234  1  0.21688140  0.32548833  0.78064307  1.0
  In  In235  1  0.21688140  0.65882167  0.78064307  1.0
  In  In236  1  0.21688140  0.99215500  0.78064307  1.0
  In  In237  1  0.55021474  0.32548833  0.78064307  1.0
  In  In238  1  0.55021474  0.65882167  0.78064307  1.0
  In  In239  1  0.55021474  0.99215500  0.78064307  1.0
  In  In240  1  0.88354807  0.32548833  0.78064307  1.0
  In  In241  1  0.88354807  0.65882167  0.78064307  1.0
  In  In242  1  0.88354807  0.99215500  0.78064307  1.0
  In  In243  1  0.12164331  0.15882167  0.85207164  1.0
  In  In244  1  0.12164331  0.49215500  0.85207164  1.0
  In  In245  1  0.12164331  0.82548833  0.85207164  1.0
  In  In246  1  0.45497664  0.15882167  0.85207164  1.0
  In  In247  1  0.45497664  0.49215500  0.85207164  1.0
  In  In248  1  0.45497664  0.82548833  0.85207164  1.0
  In  In249  1  0.78830998  0.15882167  0.85207164  1.0
  In  In250  1  0.78830998  0.49215500  0.85207164  1.0
  In  In251  1  0.78830998  0.82548833  0.85207164  1.0
  In  In252  1  0.07977093  0.25000000  0.82977093  1.0
  In  In253  1  0.07977093  0.58333333  0.82977093  1.0
  In  In254  1  0.07977093  0.91666667  0.82977093  1.0
  In  In255  1  0.41310426  0.25000000  0.82977093  1.0
  In  In256  1  0.41310426  0.58333333  0.82977093  1.0
  In  In257  1  0.41310426  0.91666667  0.82977093  1.0
  In  In258  1  0.74643760  0.25000000  0.82977093  1.0
  In  In259  1  0.74643760  0.58333333  0.82977093  1.0
  In  In260  1  0.74643760  0.91666667  0.82977093  1.0
  In  In261  1  0.17500902  0.08333333  0.75834236  1.0
  In  In262  1  0.17500902  0.41666667  0.75834236  1.0
  In  In263  1  0.17500902  0.75000000  0.75834236  1.0
  In  In264  1  0.50834236  0.08333333  0.75834236  1.0
  In  In265  1  0.50834236  0.41666667  0.75834236  1.0
  In  In266  1  0.50834236  0.75000000  0.75834236  1.0
  In  In267  1  0.84167569  0.08333333  0.75834236  1.0
  In  In268  1  0.84167569  0.41666667  0.75834236  1.0
  In  In269  1  0.84167569  0.75000000  0.75834236  1.0
  In  In270  1  0.32409321  0.24035583  0.81377371  1.0
  In  In271  1  0.32409321  0.57368917  0.81377371  1.0
  In  In272  1  0.32409321  0.90702250  0.81377371  1.0
  In  In273  1  0.65742655  0.24035583  0.81377371  1.0
  In  In274  1  0.65742655  0.57368917  0.81377371  1.0
  In  In275  1  0.65742655  0.90702250  0.81377371  1.0
  In  In276  1  0.99075988  0.24035583  0.81377371  1.0
  In  In277  1  0.99075988  0.57368917  0.81377371  1.0
  In  In278  1  0.99075988  0.90702250  0.81377371  1.0
  In  In279  1  0.08599798  0.07368917  0.74234514  1.0
  In  In280  1  0.08599798  0.40702250  0.74234514  1.0
  In  In281  1  0.08599798  0.74035583  0.74234514  1.0
  In  In282  1  0.41933131  0.07368917  0.74234514  1.0
  In  In283  1  0.41933131  0.40702250  0.74234514  1.0
  In  In284  1  0.41933131  0.74035583  0.74234514  1.0
  In  In285  1  0.75266464  0.07368917  0.74234514  1.0
  In  In286  1  0.75266464  0.40702250  0.74234514  1.0
  In  In287  1  0.75266464  0.74035583  0.74234514  1.0
  In  In288  1  0.12861607  0.00352183  0.85513057  1.0
  In  In289  1  0.12861607  0.33685517  0.85513057  1.0
  In  In290  1  0.12861607  0.67018850  0.85513057  1.0
  In  In291  1  0.46194940  0.00352183  0.85513057  1.0
  In  In292  1  0.46194940  0.33685517  0.85513057  1.0
  In  In293  1  0.46194940  0.67018850  0.85513057  1.0
  In  In294  1  0.79528274  0.00352183  0.85513057  1.0
  In  In295  1  0.79528274  0.33685517  0.85513057  1.0
  In  In296  1  0.79528274  0.67018850  0.85513057  1.0
  In  In297  1  0.22385417  0.17018850  0.78370200  1.0
  In  In298  1  0.22385417  0.50352183  0.78370200  1.0
  In  In299  1  0.22385417  0.83685517  0.78370200  1.0
  In  In300  1  0.55718750  0.17018850  0.78370200  1.0
  In  In301  1  0.55718750  0.50352183  0.78370200  1.0
  In  In302  1  0.55718750  0.83685517  0.78370200  1.0
  In  In303  1  0.89052083  0.17018850  0.78370200  1.0
  In  In304  1  0.89052083  0.50352183  0.78370200  1.0
  In  In305  1  0.89052083  0.83685517  0.78370200  1.0
  In  In306  1  0.24912183  0.25965200  0.78470950  1.0
  In  In307  1  0.24912183  0.59298533  0.78470950  1.0
  In  In308  1  0.24912183  0.92631867  0.78470950  1.0
  In  In309  1  0.58245517  0.25965200  0.78470950  1.0
  In  In310  1  0.58245517  0.59298533  0.78470950  1.0
  In  In311  1  0.58245517  0.92631867  0.78470950  1.0
  In  In312  1  0.91578850  0.25965200  0.78470950  1.0
  In  In313  1  0.91578850  0.59298533  0.78470950  1.0
  In  In314  1  0.91578850  0.92631867  0.78470950  1.0
  In  In315  1  0.15388374  0.09298533  0.85613807  1.0
  In  In316  1  0.15388374  0.42631867  0.85613807  1.0
  In  In317  1  0.15388374  0.75965200  0.85613807  1.0
  In  In318  1  0.48721707  0.09298533  0.85613807  1.0
  In  In319  1  0.48721707  0.42631867  0.85613807  1.0
  In  In320  1  0.48721707  0.75965200  0.85613807  1.0
  In  In321  1  0.82055040  0.09298533  0.85613807  1.0
  In  In322  1  0.82055040  0.42631867  0.85613807  1.0
  In  In323  1  0.82055040  0.75965200  0.85613807  1.0
  In  In324  1  0.12116293  0.09297750  0.63148243  1.0
  In  In325  1  0.12116293  0.42631083  0.63148243  1.0
  In  In326  1  0.12116293  0.75964417  0.63148243  1.0
  In  In327  1  0.45449626  0.09297750  0.63148243  1.0
  In  In328  1  0.45449626  0.42631083  0.63148243  1.0
  In  In329  1  0.45449626  0.75964417  0.63148243  1.0
  In  In330  1  0.78782960  0.09297750  0.63148243  1.0
  In  In331  1  0.78782960  0.42631083  0.63148243  1.0
  In  In332  1  0.78782960  0.75964417  0.63148243  1.0
  In  In333  1  0.02592483  0.25964417  0.70291100  1.0
  In  In334  1  0.02592483  0.59297750  0.70291100  1.0
  In  In335  1  0.02592483  0.92631083  0.70291100  1.0
  In  In336  1  0.35925817  0.25964417  0.70291100  1.0
  In  In337  1  0.35925817  0.59297750  0.70291100  1.0
  In  In338  1  0.35925817  0.92631083  0.70291100  1.0
  In  In339  1  0.69259150  0.25964417  0.70291100  1.0
  In  In340  1  0.69259150  0.59297750  0.70291100  1.0
  In  In341  1  0.69259150  0.92631083  0.70291100  1.0
  In  In342  1  0.19613431  0.07368133  0.66054664  1.0
  In  In343  1  0.19613431  0.40701467  0.66054664  1.0
  In  In344  1  0.19613431  0.74034800  0.66054664  1.0
  In  In345  1  0.52946764  0.07368133  0.66054664  1.0
  In  In346  1  0.52946764  0.40701467  0.66054664  1.0
  In  In347  1  0.52946764  0.74034800  0.66054664  1.0
  In  In348  1  0.86280098  0.07368133  0.66054664  1.0
  In  In349  1  0.86280098  0.40701467  0.66054664  1.0
  In  In350  1  0.86280098  0.74034800  0.66054664  1.0
  In  In351  1  0.29137240  0.24034800  0.58911807  1.0
  In  In352  1  0.29137240  0.57368133  0.58911807  1.0
  In  In353  1  0.29137240  0.90701467  0.58911807  1.0
  In  In354  1  0.62470574  0.24034800  0.58911807  1.0
  In  In355  1  0.62470574  0.57368133  0.58911807  1.0
  In  In356  1  0.62470574  0.90701467  0.58911807  1.0
  In  In357  1  0.95803907  0.24034800  0.58911807  1.0
  In  In358  1  0.95803907  0.57368133  0.58911807  1.0
  In  In359  1  0.95803907  0.90701467  0.58911807  1.0
  In  In360  1  0.22837474  0.00784500  0.66461307  1.0
  In  In361  1  0.22837474  0.34117833  0.66461307  1.0
  In  In362  1  0.22837474  0.67451167  0.66461307  1.0
  In  In363  1  0.56170807  0.00784500  0.66461307  1.0
  In  In364  1  0.56170807  0.34117833  0.66461307  1.0
  In  In365  1  0.56170807  0.67451167  0.66461307  1.0
  In  In366  1  0.89504140  0.00784500  0.66461307  1.0
  In  In367  1  0.89504140  0.34117833  0.66461307  1.0
  In  In368  1  0.89504140  0.67451167  0.66461307  1.0
  In  In369  1  0.32361283  0.17451167  0.59318450  1.0
  In  In370  1  0.32361283  0.50784500  0.59318450  1.0
  In  In371  1  0.32361283  0.84117833  0.59318450  1.0
  In  In372  1  0.65694617  0.17451167  0.59318450  1.0
  In  In373  1  0.65694617  0.50784500  0.59318450  1.0
  In  In374  1  0.65694617  0.84117833  0.59318450  1.0
  In  In375  1  0.99027950  0.17451167  0.59318450  1.0
  In  In376  1  0.99027950  0.50784500  0.59318450  1.0
  In  In377  1  0.99027950  0.84117833  0.59318450  1.0
  In  In378  1  0.31664007  0.32981150  0.59012557  1.0
  In  In379  1  0.31664007  0.66314483  0.59012557  1.0
  In  In380  1  0.31664007  0.99647817  0.59012557  1.0
  In  In381  1  0.64997340  0.32981150  0.59012557  1.0
  In  In382  1  0.64997340  0.66314483  0.59012557  1.0
  In  In383  1  0.64997340  0.99647817  0.59012557  1.0
  In  In384  1  0.98330674  0.32981150  0.59012557  1.0
  In  In385  1  0.98330674  0.66314483  0.59012557  1.0
  In  In386  1  0.98330674  0.99647817  0.59012557  1.0
  In  In387  1  0.22140198  0.16314483  0.66155414  1.0
  In  In388  1  0.22140198  0.49647817  0.66155414  1.0
  In  In389  1  0.22140198  0.82981150  0.66155414  1.0
  In  In390  1  0.55473531  0.16314483  0.66155414  1.0
  In  In391  1  0.55473531  0.49647817  0.66155414  1.0
  In  In392  1  0.55473531  0.82981150  0.66155414  1.0
  In  In393  1  0.88806864  0.16314483  0.66155414  1.0
  In  In394  1  0.88806864  0.49647817  0.66155414  1.0
  In  In395  1  0.88806864  0.82981150  0.66155414  1.0
  In  In396  1  0.07402426  0.32548833  0.63778593  1.0
  In  In397  1  0.07402426  0.65882167  0.63778593  1.0
  In  In398  1  0.07402426  0.99215500  0.63778593  1.0
  In  In399  1  0.40735760  0.32548833  0.63778593  1.0
  In  In400  1  0.40735760  0.65882167  0.63778593  1.0
  In  In401  1  0.40735760  0.99215500  0.63778593  1.0
  In  In402  1  0.74069093  0.32548833  0.63778593  1.0
  In  In403  1  0.74069093  0.65882167  0.63778593  1.0
  In  In404  1  0.74069093  0.99215500  0.63778593  1.0
  In  In405  1  0.31211950  0.15882167  0.70921450  1.0
  In  In406  1  0.31211950  0.49215500  0.70921450  1.0
  In  In407  1  0.31211950  0.82548833  0.70921450  1.0
  In  In408  1  0.64545283  0.15882167  0.70921450  1.0
  In  In409  1  0.64545283  0.49215500  0.70921450  1.0
  In  In410  1  0.64545283  0.82548833  0.70921450  1.0
  In  In411  1  0.97878617  0.15882167  0.70921450  1.0
  In  In412  1  0.97878617  0.49215500  0.70921450  1.0
  In  In413  1  0.97878617  0.82548833  0.70921450  1.0
  In  In414  1  0.27024712  0.25000000  0.68691379  1.0
  In  In415  1  0.27024712  0.58333333  0.68691379  1.0
  In  In416  1  0.27024712  0.91666667  0.68691379  1.0
  In  In417  1  0.60358045  0.25000000  0.68691379  1.0
  In  In418  1  0.60358045  0.58333333  0.68691379  1.0
  In  In419  1  0.60358045  0.91666667  0.68691379  1.0
  In  In420  1  0.93691379  0.25000000  0.68691379  1.0
  In  In421  1  0.93691379  0.58333333  0.68691379  1.0
  In  In422  1  0.93691379  0.91666667  0.68691379  1.0
  In  In423  1  0.03215188  0.08333333  0.61548521  1.0
  In  In424  1  0.03215188  0.41666667  0.61548521  1.0
  In  In425  1  0.03215188  0.75000000  0.61548521  1.0
  In  In426  1  0.36548521  0.08333333  0.61548521  1.0
  In  In427  1  0.36548521  0.41666667  0.61548521  1.0
  In  In428  1  0.36548521  0.75000000  0.61548521  1.0
  In  In429  1  0.69881855  0.08333333  0.61548521  1.0
  In  In430  1  0.69881855  0.41666667  0.61548521  1.0
  In  In431  1  0.69881855  0.75000000  0.61548521  1.0
  In  In432  1  0.18123607  0.24035583  0.67091657  1.0
  In  In433  1  0.18123607  0.57368917  0.67091657  1.0
  In  In434  1  0.18123607  0.90702250  0.67091657  1.0
  In  In435  1  0.51456940  0.24035583  0.67091657  1.0
  In  In436  1  0.51456940  0.57368917  0.67091657  1.0
  In  In437  1  0.51456940  0.90702250  0.67091657  1.0
  In  In438  1  0.84790274  0.24035583  0.67091657  1.0
  In  In439  1  0.84790274  0.57368917  0.67091657  1.0
  In  In440  1  0.84790274  0.90702250  0.67091657  1.0
  In  In441  1  0.27647417  0.07368917  0.59948800  1.0
  In  In442  1  0.27647417  0.40702250  0.59948800  1.0
  In  In443  1  0.27647417  0.74035583  0.59948800  1.0
  In  In444  1  0.60980750  0.07368917  0.59948800  1.0
  In  In445  1  0.60980750  0.40702250  0.59948800  1.0
  In  In446  1  0.60980750  0.74035583  0.59948800  1.0
  In  In447  1  0.94314083  0.07368917  0.59948800  1.0
  In  In448  1  0.94314083  0.40702250  0.59948800  1.0
  In  In449  1  0.94314083  0.74035583  0.59948800  1.0
  In  In450  1  0.31909226  0.00352183  0.71227343  1.0
  In  In451  1  0.31909226  0.33685517  0.71227343  1.0
  In  In452  1  0.31909226  0.67018850  0.71227343  1.0
  In  In453  1  0.65242560  0.00352183  0.71227343  1.0
  In  In454  1  0.65242560  0.33685517  0.71227343  1.0
  In  In455  1  0.65242560  0.67018850  0.71227343  1.0
  In  In456  1  0.98575893  0.00352183  0.71227343  1.0
  In  In457  1  0.98575893  0.33685517  0.71227343  1.0
  In  In458  1  0.98575893  0.67018850  0.71227343  1.0
  In  In459  1  0.08099702  0.17018850  0.64084486  1.0
  In  In460  1  0.08099702  0.50352183  0.64084486  1.0
  In  In461  1  0.08099702  0.83685517  0.64084486  1.0
  In  In462  1  0.41433036  0.17018850  0.64084486  1.0
  In  In463  1  0.41433036  0.50352183  0.64084486  1.0
  In  In464  1  0.41433036  0.83685517  0.64084486  1.0
  In  In465  1  0.74766369  0.17018850  0.64084486  1.0
  In  In466  1  0.74766369  0.50352183  0.64084486  1.0
  In  In467  1  0.74766369  0.83685517  0.64084486  1.0
  In  In468  1  0.10626469  0.25965200  0.64185236  1.0
  In  In469  1  0.10626469  0.59298533  0.64185236  1.0
  In  In470  1  0.10626469  0.92631867  0.64185236  1.0
  In  In471  1  0.43959802  0.25965200  0.64185236  1.0
  In  In472  1  0.43959802  0.59298533  0.64185236  1.0
  In  In473  1  0.43959802  0.92631867  0.64185236  1.0
  In  In474  1  0.77293136  0.25965200  0.64185236  1.0
  In  In475  1  0.77293136  0.59298533  0.64185236  1.0
  In  In476  1  0.77293136  0.92631867  0.64185236  1.0
  In  In477  1  0.01102660  0.09298533  0.71328093  1.0
  In  In478  1  0.01102660  0.42631867  0.71328093  1.0
  In  In479  1  0.01102660  0.75965200  0.71328093  1.0
  In  In480  1  0.34435993  0.09298533  0.71328093  1.0
  In  In481  1  0.34435993  0.42631867  0.71328093  1.0
  In  In482  1  0.34435993  0.75965200  0.71328093  1.0
  In  In483  1  0.67769326  0.09298533  0.71328093  1.0
  In  In484  1  0.67769326  0.42631867  0.71328093  1.0
  In  In485  1  0.67769326  0.75965200  0.71328093  1.0
  Ni  Ni486  1  0.07601498  0.04913067  0.97382364  1.0
  Ni  Ni487  1  0.07601498  0.38246400  0.97382364  1.0
  Ni  Ni488  1  0.07601498  0.71579733  0.97382364  1.0
  Ni  Ni489  1  0.40934831  0.04913067  0.97382364  1.0
  Ni  Ni490  1  0.40934831  0.38246400  0.97382364  1.0
  Ni  Ni491  1  0.40934831  0.71579733  0.97382364  1.0
  Ni  Ni492  1  0.74268164  0.04913067  0.97382364  1.0
  Ni  Ni493  1  0.74268164  0.38246400  0.97382364  1.0
  Ni  Ni494  1  0.74268164  0.71579733  0.97382364  1.0
  Ni  Ni495  1  0.17125307  0.21579733  0.90239507  1.0
  Ni  Ni496  1  0.17125307  0.54913067  0.90239507  1.0
  Ni  Ni497  1  0.17125307  0.88246400  0.90239507  1.0
  Ni  Ni498  1  0.50458640  0.21579733  0.90239507  1.0
  Ni  Ni499  1  0.50458640  0.54913067  0.90239507  1.0
  Ni  Ni500  1  0.50458640  0.88246400  0.90239507  1.0
  Ni  Ni501  1  0.83791974  0.21579733  0.90239507  1.0
  Ni  Ni502  1  0.83791974  0.54913067  0.90239507  1.0
  Ni  Ni503  1  0.83791974  0.88246400  0.90239507  1.0
  Ni  Ni504  1  0.10358045  0.00000000  0.93691379  1.0
  Ni  Ni505  1  0.10358045  0.33333333  0.93691379  1.0
  Ni  Ni506  1  0.10358045  0.66666667  0.93691379  1.0
  Ni  Ni507  1  0.43691379  0.00000000  0.93691379  1.0
  Ni  Ni508  1  0.43691379  0.33333333  0.93691379  1.0
  Ni  Ni509  1  0.43691379  0.66666667  0.93691379  1.0
  Ni  Ni510  1  0.77024712  0.00000000  0.93691379  1.0
  Ni  Ni511  1  0.77024712  0.33333333  0.93691379  1.0
  Ni  Ni512  1  0.77024712  0.66666667  0.93691379  1.0
  Ni  Ni513  1  0.19881855  0.16666667  0.86548521  1.0
  Ni  Ni514  1  0.19881855  0.50000000  0.86548521  1.0
  Ni  Ni515  1  0.19881855  0.83333333  0.86548521  1.0
  Ni  Ni516  1  0.53215188  0.16666667  0.86548521  1.0
  Ni  Ni517  1  0.53215188  0.50000000  0.86548521  1.0
  Ni  Ni518  1  0.53215188  0.83333333  0.86548521  1.0
  Ni  Ni519  1  0.86548521  0.16666667  0.86548521  1.0
  Ni  Ni520  1  0.86548521  0.50000000  0.86548521  1.0
  Ni  Ni521  1  0.86548521  0.83333333  0.86548521  1.0
  Ni  Ni522  1  0.05114655  0.29636800  0.86241321  1.0
  Ni  Ni523  1  0.05114655  0.62970133  0.86241321  1.0
  Ni  Ni524  1  0.05114655  0.96303467  0.86241321  1.0
  Ni  Ni525  1  0.38447988  0.29636800  0.86241321  1.0
  Ni  Ni526  1  0.38447988  0.62970133  0.86241321  1.0
  Ni  Ni527  1  0.38447988  0.96303467  0.86241321  1.0
  Ni  Ni528  1  0.71781321  0.29636800  0.86241321  1.0
  Ni  Ni529  1  0.71781321  0.62970133  0.86241321  1.0
  Ni  Ni530  1  0.71781321  0.96303467  0.86241321  1.0
  Ni  Ni531  1  0.28924179  0.12970133  0.93384179  1.0
  Ni  Ni532  1  0.28924179  0.46303467  0.93384179  1.0
  Ni  Ni533  1  0.28924179  0.79636800  0.93384179  1.0
  Ni  Ni534  1  0.62257512  0.12970133  0.93384179  1.0
  Ni  Ni535  1  0.62257512  0.46303467  0.93384179  1.0
  Ni  Ni536  1  0.62257512  0.79636800  0.93384179  1.0
  Ni  Ni537  1  0.95590845  0.12970133  0.93384179  1.0
  Ni  Ni538  1  0.95590845  0.46303467  0.93384179  1.0
  Ni  Ni539  1  0.95590845  0.79636800  0.93384179  1.0
  Ni  Ni540  1  0.04770331  0.12931250  0.86533014  1.0
  Ni  Ni541  1  0.04770331  0.46264583  0.86533014  1.0
  Ni  Ni542  1  0.04770331  0.79597917  0.86533014  1.0
  Ni  Ni543  1  0.38103664  0.12931250  0.86533014  1.0
  Ni  Ni544  1  0.38103664  0.46264583  0.86533014  1.0
  Ni  Ni545  1  0.38103664  0.79597917  0.86533014  1.0
  Ni  Ni546  1  0.71436998  0.12931250  0.86533014  1.0
  Ni  Ni547  1  0.71436998  0.46264583  0.86533014  1.0
  Ni  Ni548  1  0.71436998  0.79597917  0.86533014  1.0
  Ni  Ni549  1  0.28579855  0.29597917  0.93675871  1.0
  Ni  Ni550  1  0.28579855  0.62931250  0.93675871  1.0
  Ni  Ni551  1  0.28579855  0.96264583  0.93675871  1.0
  Ni  Ni552  1  0.61913188  0.29597917  0.93675871  1.0
  Ni  Ni553  1  0.61913188  0.62931250  0.93675871  1.0
  Ni  Ni554  1  0.61913188  0.96264583  0.93675871  1.0
  Ni  Ni555  1  0.95246521  0.29597917  0.93675871  1.0
  Ni  Ni556  1  0.95246521  0.62931250  0.93675871  1.0
  Ni  Ni557  1  0.95246521  0.96264583  0.93675871  1.0
  Ni  Ni558  1  0.01315721  0.03696533  0.86855721  1.0
  Ni  Ni559  1  0.01315721  0.37029867  0.86855721  1.0
  Ni  Ni560  1  0.01315721  0.70363200  0.86855721  1.0
  Ni  Ni561  1  0.34649055  0.03696533  0.86855721  1.0
  Ni  Ni562  1  0.34649055  0.37029867  0.86855721  1.0
  Ni  Ni563  1  0.34649055  0.70363200  0.86855721  1.0
  Ni  Ni564  1  0.67982388  0.03696533  0.86855721  1.0
  Ni  Ni565  1  0.67982388  0.37029867  0.86855721  1.0
  Ni  Ni566  1  0.67982388  0.70363200  0.86855721  1.0
  Ni  Ni567  1  0.25125245  0.20363200  0.93998579  1.0
  Ni  Ni568  1  0.25125245  0.53696533  0.93998579  1.0
  Ni  Ni569  1  0.25125245  0.87029867  0.93998579  1.0
  Ni  Ni570  1  0.58458579  0.20363200  0.93998579  1.0
  Ni  Ni571  1  0.58458579  0.53696533  0.93998579  1.0
  Ni  Ni572  1  0.58458579  0.87029867  0.93998579  1.0
  Ni  Ni573  1  0.91791912  0.20363200  0.93998579  1.0
  Ni  Ni574  1  0.91791912  0.53696533  0.93998579  1.0
  Ni  Ni575  1  0.91791912  0.87029867  0.93998579  1.0
  Ni  Ni576  1  0.08776760  0.03893100  0.88216993  1.0
  Ni  Ni577  1  0.08776760  0.37226433  0.88216993  1.0
  Ni  Ni578  1  0.08776760  0.70559767  0.88216993  1.0
  Ni  Ni579  1  0.42110093  0.03893100  0.88216993  1.0
  Ni  Ni580  1  0.42110093  0.37226433  0.88216993  1.0
  Ni  Ni581  1  0.42110093  0.70559767  0.88216993  1.0
  Ni  Ni582  1  0.75443426  0.03893100  0.88216993  1.0
  Ni  Ni583  1  0.75443426  0.37226433  0.88216993  1.0
  Ni  Ni584  1  0.75443426  0.70559767  0.88216993  1.0
  Ni  Ni585  1  0.32586283  0.20559767  0.95359850  1.0
  Ni  Ni586  1  0.32586283  0.53893100  0.95359850  1.0
  Ni  Ni587  1  0.32586283  0.87226433  0.95359850  1.0
  Ni  Ni588  1  0.65919617  0.20559767  0.95359850  1.0
  Ni  Ni589  1  0.65919617  0.53893100  0.95359850  1.0
  Ni  Ni590  1  0.65919617  0.87226433  0.95359850  1.0
  Ni  Ni591  1  0.99252950  0.20559767  0.95359850  1.0
  Ni  Ni592  1  0.99252950  0.53893100  0.95359850  1.0
  Ni  Ni593  1  0.99252950  0.87226433  0.95359850  1.0
  Ni  Ni594  1  0.20918421  0.29364033  0.92237021  1.0
  Ni  Ni595  1  0.20918421  0.62697367  0.92237021  1.0
  Ni  Ni596  1  0.20918421  0.96030700  0.92237021  1.0
  Ni  Ni597  1  0.54251755  0.29364033  0.92237021  1.0
  Ni  Ni598  1  0.54251755  0.62697367  0.92237021  1.0
  Ni  Ni599  1  0.54251755  0.96030700  0.92237021  1.0
  Ni  Ni600  1  0.87585088  0.29364033  0.92237021  1.0
  Ni  Ni601  1  0.87585088  0.62697367  0.92237021  1.0
  Ni  Ni602  1  0.87585088  0.96030700  0.92237021  1.0
  Ni  Ni603  1  0.11394612  0.12697367  0.99379879  1.0
  Ni  Ni604  1  0.11394612  0.46030700  0.99379879  1.0
  Ni  Ni605  1  0.11394612  0.79364033  0.99379879  1.0
  Ni  Ni606  1  0.44727945  0.12697367  0.99379879  1.0
  Ni  Ni607  1  0.44727945  0.46030700  0.99379879  1.0
  Ni  Ni608  1  0.44727945  0.79364033  0.99379879  1.0
  Ni  Ni609  1  0.78061279  0.12697367  0.99379879  1.0
  Ni  Ni610  1  0.78061279  0.46030700  0.99379879  1.0
  Ni  Ni611  1  0.78061279  0.79364033  0.99379879  1.0
  Ni  Ni612  1  0.01660045  0.20402083  0.86564029  1.0
  Ni  Ni613  1  0.01660045  0.53735417  0.86564029  1.0
  Ni  Ni614  1  0.01660045  0.87068750  0.86564029  1.0
  Ni  Ni615  1  0.34993379  0.20402083  0.86564029  1.0
  Ni  Ni616  1  0.34993379  0.53735417  0.86564029  1.0
  Ni  Ni617  1  0.34993379  0.87068750  0.86564029  1.0
  Ni  Ni618  1  0.68326712  0.20402083  0.86564029  1.0
  Ni  Ni619  1  0.68326712  0.53735417  0.86564029  1.0
  Ni  Ni620  1  0.68326712  0.87068750  0.86564029  1.0
  Ni  Ni621  1  0.25469569  0.03735417  0.93706886  1.0
  Ni  Ni622  1  0.25469569  0.37068750  0.93706886  1.0
  Ni  Ni623  1  0.25469569  0.70402083  0.93706886  1.0
  Ni  Ni624  1  0.58802902  0.03735417  0.93706886  1.0
  Ni  Ni625  1  0.58802902  0.37068750  0.93706886  1.0
  Ni  Ni626  1  0.58802902  0.70402083  0.93706886  1.0
  Ni  Ni627  1  0.92136236  0.03735417  0.93706886  1.0
  Ni  Ni628  1  0.92136236  0.37068750  0.93706886  1.0
  Ni  Ni629  1  0.92136236  0.70402083  0.93706886  1.0
  Ni  Ni630  1  0.33131002  0.03969300  0.95145736  1.0
  Ni  Ni631  1  0.33131002  0.37302633  0.95145736  1.0
  Ni  Ni632  1  0.33131002  0.70635967  0.95145736  1.0
  Ni  Ni633  1  0.66464336  0.03969300  0.95145736  1.0
  Ni  Ni634  1  0.66464336  0.37302633  0.95145736  1.0
  Ni  Ni635  1  0.66464336  0.70635967  0.95145736  1.0
  Ni  Ni636  1  0.99797669  0.03969300  0.95145736  1.0
  Ni  Ni637  1  0.99797669  0.37302633  0.95145736  1.0
  Ni  Ni638  1  0.99797669  0.70635967  0.95145736  1.0
  Ni  Ni639  1  0.09321479  0.20635967  0.88002879  1.0
  Ni  Ni640  1  0.09321479  0.53969300  0.88002879  1.0
  Ni  Ni641  1  0.09321479  0.87302633  0.88002879  1.0
  Ni  Ni642  1  0.42654812  0.20635967  0.88002879  1.0
  Ni  Ni643  1  0.42654812  0.53969300  0.88002879  1.0
  Ni  Ni644  1  0.42654812  0.87302633  0.88002879  1.0
  Ni  Ni645  1  0.75988145  0.20635967  0.88002879  1.0
  Ni  Ni646  1  0.75988145  0.53969300  0.88002879  1.0
  Ni  Ni647  1  0.75988145  0.87302633  0.88002879  1.0
  Ni  Ni648  1  0.13114593  0.28420267  0.90000393  1.0
  Ni  Ni649  1  0.13114593  0.61753600  0.90000393  1.0
  Ni  Ni650  1  0.13114593  0.95086933  0.90000393  1.0
  Ni  Ni651  1  0.46447926  0.28420267  0.90000393  1.0
  Ni  Ni652  1  0.46447926  0.61753600  0.90000393  1.0
  Ni  Ni653  1  0.46447926  0.95086933  0.90000393  1.0
  Ni  Ni654  1  0.79781260  0.28420267  0.90000393  1.0
  Ni  Ni655  1  0.79781260  0.61753600  0.90000393  1.0
  Ni  Ni656  1  0.79781260  0.95086933  0.90000393  1.0
  Ni  Ni657  1  0.03590783  0.11753600  0.97143250  1.0
  Ni  Ni658  1  0.03590783  0.45086933  0.97143250  1.0
  Ni  Ni659  1  0.03590783  0.78420267  0.97143250  1.0
  Ni  Ni660  1  0.36924117  0.11753600  0.97143250  1.0
  Ni  Ni661  1  0.36924117  0.45086933  0.97143250  1.0
  Ni  Ni662  1  0.36924117  0.78420267  0.97143250  1.0
  Ni  Ni663  1  0.70257450  0.11753600  0.97143250  1.0
  Ni  Ni664  1  0.70257450  0.45086933  0.97143250  1.0
  Ni  Ni665  1  0.70257450  0.78420267  0.97143250  1.0
  Ni  Ni666  1  0.11939331  0.29440233  0.99165764  1.0
  Ni  Ni667  1  0.11939331  0.62773567  0.99165764  1.0
  Ni  Ni668  1  0.11939331  0.96106900  0.99165764  1.0
  Ni  Ni669  1  0.45272664  0.29440233  0.99165764  1.0
  Ni  Ni670  1  0.45272664  0.62773567  0.99165764  1.0
  Ni  Ni671  1  0.45272664  0.96106900  0.99165764  1.0
  Ni  Ni672  1  0.78605998  0.29440233  0.99165764  1.0
  Ni  Ni673  1  0.78605998  0.62773567  0.99165764  1.0
  Ni  Ni674  1  0.78605998  0.96106900  0.99165764  1.0
  Ni  Ni675  1  0.21463140  0.12773567  0.92022907  1.0
  Ni  Ni676  1  0.21463140  0.46106900  0.92022907  1.0
  Ni  Ni677  1  0.21463140  0.79440233  0.92022907  1.0
  Ni  Ni678  1  0.54796474  0.12773567  0.92022907  1.0
  Ni  Ni679  1  0.54796474  0.46106900  0.92022907  1.0
  Ni  Ni680  1  0.54796474  0.79440233  0.92022907  1.0
  Ni  Ni681  1  0.88129807  0.12773567  0.92022907  1.0
  Ni  Ni682  1  0.88129807  0.46106900  0.92022907  1.0
  Ni  Ni683  1  0.88129807  0.79440233  0.92022907  1.0
  Ni  Ni684  1  0.10358045  0.16666667  0.93691379  1.0
  Ni  Ni685  1  0.10358045  0.50000000  0.93691379  1.0
  Ni  Ni686  1  0.10358045  0.83333333  0.93691379  1.0
  Ni  Ni687  1  0.43691379  0.16666667  0.93691379  1.0
  Ni  Ni688  1  0.43691379  0.50000000  0.93691379  1.0
  Ni  Ni689  1  0.43691379  0.83333333  0.93691379  1.0
  Ni  Ni690  1  0.77024712  0.16666667  0.93691379  1.0
  Ni  Ni691  1  0.77024712  0.50000000  0.93691379  1.0
  Ni  Ni692  1  0.77024712  0.83333333  0.93691379  1.0
  Ni  Ni693  1  0.19881855  0.33333333  0.86548521  1.0
  Ni  Ni694  1  0.19881855  0.66666667  0.86548521  1.0
  Ni  Ni695  1  0.19881855  1.00000000  0.86548521  1.0
  Ni  Ni696  1  0.53215188  0.33333333  0.86548521  1.0
  Ni  Ni697  1  0.53215188  0.66666667  0.86548521  1.0
  Ni  Ni698  1  0.53215188  1.00000000  0.86548521  1.0
  Ni  Ni699  1  0.86548521  0.33333333  0.86548521  1.0
  Ni  Ni700  1  0.86548521  0.66666667  0.86548521  1.0
  Ni  Ni701  1  0.86548521  1.00000000  0.86548521  1.0
  Ni  Ni702  1  0.31786617  0.25000000  0.90119950  1.0
  Ni  Ni703  1  0.31786617  0.58333333  0.90119950  1.0
  Ni  Ni704  1  0.31786617  0.91666667  0.90119950  1.0
  Ni  Ni705  1  0.65119950  0.25000000  0.90119950  1.0
  Ni  Ni706  1  0.65119950  0.58333333  0.90119950  1.0
  Ni  Ni707  1  0.65119950  0.91666667  0.90119950  1.0
  Ni  Ni708  1  0.98453283  0.25000000  0.90119950  1.0
  Ni  Ni709  1  0.98453283  0.58333333  0.90119950  1.0
  Ni  Ni710  1  0.98453283  0.91666667  0.90119950  1.0
  Ni  Ni711  1  0.22262807  0.08333333  0.97262807  1.0
  Ni  Ni712  1  0.22262807  0.41666667  0.97262807  1.0
  Ni  Ni713  1  0.22262807  0.75000000  0.97262807  1.0
  Ni  Ni714  1  0.55596140  0.08333333  0.97262807  1.0
  Ni  Ni715  1  0.55596140  0.41666667  0.97262807  1.0
  Ni  Ni716  1  0.55596140  0.75000000  0.97262807  1.0
  Ni  Ni717  1  0.88929474  0.08333333  0.97262807  1.0
  Ni  Ni718  1  0.88929474  0.41666667  0.97262807  1.0
  Ni  Ni719  1  0.88929474  0.75000000  0.97262807  1.0
  Ni  Ni720  1  0.26649117  0.04913067  0.83096650  1.0
  Ni  Ni721  1  0.26649117  0.38246400  0.83096650  1.0
  Ni  Ni722  1  0.26649117  0.71579733  0.83096650  1.0
  Ni  Ni723  1  0.59982450  0.04913067  0.83096650  1.0
  Ni  Ni724  1  0.59982450  0.38246400  0.83096650  1.0
  Ni  Ni725  1  0.59982450  0.71579733  0.83096650  1.0
  Ni  Ni726  1  0.93315783  0.04913067  0.83096650  1.0
  Ni  Ni727  1  0.93315783  0.38246400  0.83096650  1.0
  Ni  Ni728  1  0.93315783  0.71579733  0.83096650  1.0
  Ni  Ni729  1  0.02839593  0.21579733  0.75953793  1.0
  Ni  Ni730  1  0.02839593  0.54913067  0.75953793  1.0
  Ni  Ni731  1  0.02839593  0.88246400  0.75953793  1.0
  Ni  Ni732  1  0.36172926  0.21579733  0.75953793  1.0
  Ni  Ni733  1  0.36172926  0.54913067  0.75953793  1.0
  Ni  Ni734  1  0.36172926  0.88246400  0.75953793  1.0
  Ni  Ni735  1  0.69506260  0.21579733  0.75953793  1.0
  Ni  Ni736  1  0.69506260  0.54913067  0.75953793  1.0
  Ni  Ni737  1  0.69506260  0.88246400  0.75953793  1.0
  Ni  Ni738  1  0.29405664  0.33333333  0.79405664  1.0
  Ni  Ni739  1  0.29405664  0.66666667  0.79405664  1.0
  Ni  Ni740  1  0.29405664  0.00000000  0.79405664  1.0
  Ni  Ni741  1  0.62738998  0.33333333  0.79405664  1.0
  Ni  Ni742  1  0.62738998  0.66666667  0.79405664  1.0
  Ni  Ni743  1  0.62738998  0.00000000  0.79405664  1.0
  Ni  Ni744  1  0.96072331  0.33333333  0.79405664  1.0
  Ni  Ni745  1  0.96072331  0.66666667  0.79405664  1.0
  Ni  Ni746  1  0.96072331  0.00000000  0.79405664  1.0
  Ni  Ni747  1  0.05596140  0.16666667  0.72262807  1.0
  Ni  Ni748  1  0.05596140  0.50000000  0.72262807  1.0
  Ni  Ni749  1  0.05596140  0.83333333  0.72262807  1.0
  Ni  Ni750  1  0.38929474  0.16666667  0.72262807  1.0
  Ni  Ni751  1  0.38929474  0.50000000  0.72262807  1.0
  Ni  Ni752  1  0.38929474  0.83333333  0.72262807  1.0
  Ni  Ni753  1  0.72262807  0.16666667  0.72262807  1.0
  Ni  Ni754  1  0.72262807  0.50000000  0.72262807  1.0
  Ni  Ni755  1  0.72262807  0.83333333  0.72262807  1.0
  Ni  Ni756  1  0.24162274  0.29636800  0.71955607  1.0
  Ni  Ni757  1  0.24162274  0.62970133  0.71955607  1.0
  Ni  Ni758  1  0.24162274  0.96303467  0.71955607  1.0
  Ni  Ni759  1  0.57495607  0.29636800  0.71955607  1.0
  Ni  Ni760  1  0.57495607  0.62970133  0.71955607  1.0
  Ni  Ni761  1  0.57495607  0.96303467  0.71955607  1.0
  Ni  Ni762  1  0.90828940  0.29636800  0.71955607  1.0
  Ni  Ni763  1  0.90828940  0.62970133  0.71955607  1.0
  Ni  Ni764  1  0.90828940  0.96303467  0.71955607  1.0
  Ni  Ni765  1  0.14638464  0.12970133  0.79098464  1.0
  Ni  Ni766  1  0.14638464  0.46303467  0.79098464  1.0
  Ni  Ni767  1  0.14638464  0.79636800  0.79098464  1.0
  Ni  Ni768  1  0.47971798  0.12970133  0.79098464  1.0
  Ni  Ni769  1  0.47971798  0.46303467  0.79098464  1.0
  Ni  Ni770  1  0.47971798  0.79636800  0.79098464  1.0
  Ni  Ni771  1  0.81305131  0.12970133  0.79098464  1.0
  Ni  Ni772  1  0.81305131  0.46303467  0.79098464  1.0
  Ni  Ni773  1  0.81305131  0.79636800  0.79098464  1.0
  Ni  Ni774  1  0.23817950  0.12931250  0.72247300  1.0
  Ni  Ni775  1  0.23817950  0.46264583  0.72247300  1.0
  Ni  Ni776  1  0.23817950  0.79597917  0.72247300  1.0
  Ni  Ni777  1  0.57151283  0.12931250  0.72247300  1.0
  Ni  Ni778  1  0.57151283  0.46264583  0.72247300  1.0
  Ni  Ni779  1  0.57151283  0.79597917  0.72247300  1.0
  Ni  Ni780  1  0.90484617  0.12931250  0.72247300  1.0
  Ni  Ni781  1  0.90484617  0.46264583  0.72247300  1.0
  Ni  Ni782  1  0.90484617  0.79597917  0.72247300  1.0
  Ni  Ni783  1  0.14294140  0.29597917  0.79390157  1.0
  Ni  Ni784  1  0.14294140  0.62931250  0.79390157  1.0
  Ni  Ni785  1  0.14294140  0.96264583  0.79390157  1.0
  Ni  Ni786  1  0.47627474  0.29597917  0.79390157  1.0
  Ni  Ni787  1  0.47627474  0.62931250  0.79390157  1.0
  Ni  Ni788  1  0.47627474  0.96264583  0.79390157  1.0
  Ni  Ni789  1  0.80960807  0.29597917  0.79390157  1.0
  Ni  Ni790  1  0.80960807  0.62931250  0.79390157  1.0
  Ni  Ni791  1  0.80960807  0.96264583  0.79390157  1.0
  Ni  Ni792  1  0.20363340  0.03696533  0.72570007  1.0
  Ni  Ni793  1  0.20363340  0.37029867  0.72570007  1.0
  Ni  Ni794  1  0.20363340  0.70363200  0.72570007  1.0
  Ni  Ni795  1  0.53696674  0.03696533  0.72570007  1.0
  Ni  Ni796  1  0.53696674  0.37029867  0.72570007  1.0
  Ni  Ni797  1  0.53696674  0.70363200  0.72570007  1.0
  Ni  Ni798  1  0.87030007  0.03696533  0.72570007  1.0
  Ni  Ni799  1  0.87030007  0.37029867  0.72570007  1.0
  Ni  Ni800  1  0.87030007  0.70363200  0.72570007  1.0
  Ni  Ni801  1  0.10839531  0.20363200  0.79712864  1.0
  Ni  Ni802  1  0.10839531  0.53696533  0.79712864  1.0
  Ni  Ni803  1  0.10839531  0.87029867  0.79712864  1.0
  Ni  Ni804  1  0.44172864  0.20363200  0.79712864  1.0
  Ni  Ni805  1  0.44172864  0.53696533  0.79712864  1.0
  Ni  Ni806  1  0.44172864  0.87029867  0.79712864  1.0
  Ni  Ni807  1  0.77506198  0.20363200  0.79712864  1.0
  Ni  Ni808  1  0.77506198  0.53696533  0.79712864  1.0
  Ni  Ni809  1  0.77506198  0.87029867  0.79712864  1.0
  Ni  Ni810  1  0.27824379  0.03893100  0.73931279  1.0
  Ni  Ni811  1  0.27824379  0.37226433  0.73931279  1.0
  Ni  Ni812  1  0.27824379  0.70559767  0.73931279  1.0
  Ni  Ni813  1  0.61157712  0.03893100  0.73931279  1.0
  Ni  Ni814  1  0.61157712  0.37226433  0.73931279  1.0
  Ni  Ni815  1  0.61157712  0.70559767  0.73931279  1.0
  Ni  Ni816  1  0.94491045  0.03893100  0.73931279  1.0
  Ni  Ni817  1  0.94491045  0.37226433  0.73931279  1.0
  Ni  Ni818  1  0.94491045  0.70559767  0.73931279  1.0
  Ni  Ni819  1  0.18300569  0.20559767  0.81074136  1.0
  Ni  Ni820  1  0.18300569  0.53893100  0.81074136  1.0
  Ni  Ni821  1  0.18300569  0.87226433  0.81074136  1.0
  Ni  Ni822  1  0.51633902  0.20559767  0.81074136  1.0
  Ni  Ni823  1  0.51633902  0.53893100  0.81074136  1.0
  Ni  Ni824  1  0.51633902  0.87226433  0.81074136  1.0
  Ni  Ni825  1  0.84967236  0.20559767  0.81074136  1.0
  Ni  Ni826  1  0.84967236  0.53893100  0.81074136  1.0
  Ni  Ni827  1  0.84967236  0.87226433  0.81074136  1.0
  Ni  Ni828  1  0.06632707  0.29364033  0.77951307  1.0
  Ni  Ni829  1  0.06632707  0.62697367  0.77951307  1.0
  Ni  Ni830  1  0.06632707  0.96030700  0.77951307  1.0
  Ni  Ni831  1  0.39966040  0.29364033  0.77951307  1.0
  Ni  Ni832  1  0.39966040  0.62697367  0.77951307  1.0
  Ni  Ni833  1  0.39966040  0.96030700  0.77951307  1.0
  Ni  Ni834  1  0.73299374  0.29364033  0.77951307  1.0
  Ni  Ni835  1  0.73299374  0.62697367  0.77951307  1.0
  Ni  Ni836  1  0.73299374  0.96030700  0.77951307  1.0
  Ni  Ni837  1  0.30442231  0.12697367  0.85094164  1.0
  Ni  Ni838  1  0.30442231  0.46030700  0.85094164  1.0
  Ni  Ni839  1  0.30442231  0.79364033  0.85094164  1.0
  Ni  Ni840  1  0.63775564  0.12697367  0.85094164  1.0
  Ni  Ni841  1  0.63775564  0.46030700  0.85094164  1.0
  Ni  Ni842  1  0.63775564  0.79364033  0.85094164  1.0
  Ni  Ni843  1  0.97108898  0.12697367  0.85094164  1.0
  Ni  Ni844  1  0.97108898  0.46030700  0.85094164  1.0
  Ni  Ni845  1  0.97108898  0.79364033  0.85094164  1.0
  Ni  Ni846  1  0.20707664  0.20402083  0.72278314  1.0
  Ni  Ni847  1  0.20707664  0.53735417  0.72278314  1.0
  Ni  Ni848  1  0.20707664  0.87068750  0.72278314  1.0
  Ni  Ni849  1  0.54040998  0.20402083  0.72278314  1.0
  Ni  Ni850  1  0.54040998  0.53735417  0.72278314  1.0
  Ni  Ni851  1  0.54040998  0.87068750  0.72278314  1.0
  Ni  Ni852  1  0.87374331  0.20402083  0.72278314  1.0
  Ni  Ni853  1  0.87374331  0.53735417  0.72278314  1.0
  Ni  Ni854  1  0.87374331  0.87068750  0.72278314  1.0
  Ni  Ni855  1  0.11183855  0.03735417  0.79421171  1.0
  Ni  Ni856  1  0.11183855  0.37068750  0.79421171  1.0
  Ni  Ni857  1  0.11183855  0.70402083  0.79421171  1.0
  Ni  Ni858  1  0.44517188  0.03735417  0.79421171  1.0
  Ni  Ni859  1  0.44517188  0.37068750  0.79421171  1.0
  Ni  Ni860  1  0.44517188  0.70402083  0.79421171  1.0
  Ni  Ni861  1  0.77850521  0.03735417  0.79421171  1.0
  Ni  Ni862  1  0.77850521  0.37068750  0.79421171  1.0
  Ni  Ni863  1  0.77850521  0.70402083  0.79421171  1.0
  Ni  Ni864  1  0.18845288  0.03969300  0.80860021  1.0
  Ni  Ni865  1  0.18845288  0.37302633  0.80860021  1.0
  Ni  Ni866  1  0.18845288  0.70635967  0.80860021  1.0
  Ni  Ni867  1  0.52178621  0.03969300  0.80860021  1.0
  Ni  Ni868  1  0.52178621  0.37302633  0.80860021  1.0
  Ni  Ni869  1  0.52178621  0.70635967  0.80860021  1.0
  Ni  Ni870  1  0.85511955  0.03969300  0.80860021  1.0
  Ni  Ni871  1  0.85511955  0.37302633  0.80860021  1.0
  Ni  Ni872  1  0.85511955  0.70635967  0.80860021  1.0
  Ni  Ni873  1  0.28369098  0.20635967  0.73717164  1.0
  Ni  Ni874  1  0.28369098  0.53969300  0.73717164  1.0
  Ni  Ni875  1  0.28369098  0.87302633  0.73717164  1.0
  Ni  Ni876  1  0.61702431  0.20635967  0.73717164  1.0
  Ni  Ni877  1  0.61702431  0.53969300  0.73717164  1.0
  Ni  Ni878  1  0.61702431  0.87302633  0.73717164  1.0
  Ni  Ni879  1  0.95035764  0.20635967  0.73717164  1.0
  Ni  Ni880  1  0.95035764  0.53969300  0.73717164  1.0
  Ni  Ni881  1  0.95035764  0.87302633  0.73717164  1.0
  Ni  Ni882  1  0.32162212  0.28420267  0.75714679  1.0
  Ni  Ni883  1  0.32162212  0.61753600  0.75714679  1.0
  Ni  Ni884  1  0.32162212  0.95086933  0.75714679  1.0
  Ni  Ni885  1  0.65495545  0.28420267  0.75714679  1.0
  Ni  Ni886  1  0.65495545  0.61753600  0.75714679  1.0
  Ni  Ni887  1  0.65495545  0.95086933  0.75714679  1.0
  Ni  Ni888  1  0.98828879  0.28420267  0.75714679  1.0
  Ni  Ni889  1  0.98828879  0.61753600  0.75714679  1.0
  Ni  Ni890  1  0.98828879  0.95086933  0.75714679  1.0
  Ni  Ni891  1  0.22638402  0.11753600  0.82857536  1.0
  Ni  Ni892  1  0.22638402  0.45086933  0.82857536  1.0
  Ni  Ni893  1  0.22638402  0.78420267  0.82857536  1.0
  Ni  Ni894  1  0.55971736  0.11753600  0.82857536  1.0
  Ni  Ni895  1  0.55971736  0.45086933  0.82857536  1.0
  Ni  Ni896  1  0.55971736  0.78420267  0.82857536  1.0
  Ni  Ni897  1  0.89305069  0.11753600  0.82857536  1.0
  Ni  Ni898  1  0.89305069  0.45086933  0.82857536  1.0
  Ni  Ni899  1  0.89305069  0.78420267  0.82857536  1.0
  Ni  Ni900  1  0.30986950  0.29440233  0.84880050  1.0
  Ni  Ni901  1  0.30986950  0.62773567  0.84880050  1.0
  Ni  Ni902  1  0.30986950  0.96106900  0.84880050  1.0
  Ni  Ni903  1  0.64320283  0.29440233  0.84880050  1.0
  Ni  Ni904  1  0.64320283  0.62773567  0.84880050  1.0
  Ni  Ni905  1  0.64320283  0.96106900  0.84880050  1.0
  Ni  Ni906  1  0.97653617  0.29440233  0.84880050  1.0
  Ni  Ni907  1  0.97653617  0.62773567  0.84880050  1.0
  Ni  Ni908  1  0.97653617  0.96106900  0.84880050  1.0
  Ni  Ni909  1  0.07177426  0.12773567  0.77737193  1.0
  Ni  Ni910  1  0.07177426  0.46106900  0.77737193  1.0
  Ni  Ni911  1  0.07177426  0.79440233  0.77737193  1.0
  Ni  Ni912  1  0.40510760  0.12773567  0.77737193  1.0
  Ni  Ni913  1  0.40510760  0.46106900  0.77737193  1.0
  Ni  Ni914  1  0.40510760  0.79440233  0.77737193  1.0
  Ni  Ni915  1  0.73844093  0.12773567  0.77737193  1.0
  Ni  Ni916  1  0.73844093  0.46106900  0.77737193  1.0
  Ni  Ni917  1  0.73844093  0.79440233  0.77737193  1.0
  Ni  Ni918  1  0.29405664  0.16666667  0.79405664  1.0
  Ni  Ni919  1  0.29405664  0.50000000  0.79405664  1.0
  Ni  Ni920  1  0.29405664  0.83333333  0.79405664  1.0
  Ni  Ni921  1  0.62738998  0.16666667  0.79405664  1.0
  Ni  Ni922  1  0.62738998  0.50000000  0.79405664  1.0
  Ni  Ni923  1  0.62738998  0.83333333  0.79405664  1.0
  Ni  Ni924  1  0.96072331  0.16666667  0.79405664  1.0
  Ni  Ni925  1  0.96072331  0.50000000  0.79405664  1.0
  Ni  Ni926  1  0.96072331  0.83333333  0.79405664  1.0
  Ni  Ni927  1  0.05596140  0.00000000  0.72262807  1.0
  Ni  Ni928  1  0.05596140  0.33333333  0.72262807  1.0
  Ni  Ni929  1  0.05596140  0.66666667  0.72262807  1.0
  Ni  Ni930  1  0.38929474  0.00000000  0.72262807  1.0
  Ni  Ni931  1  0.38929474  0.33333333  0.72262807  1.0
  Ni  Ni932  1  0.38929474  0.66666667  0.72262807  1.0
  Ni  Ni933  1  0.72262807  0.00000000  0.72262807  1.0
  Ni  Ni934  1  0.72262807  0.33333333  0.72262807  1.0
  Ni  Ni935  1  0.72262807  0.66666667  0.72262807  1.0
  Ni  Ni936  1  0.17500902  0.25000000  0.75834236  1.0
  Ni  Ni937  1  0.17500902  0.58333333  0.75834236  1.0
  Ni  Ni938  1  0.17500902  0.91666667  0.75834236  1.0
  Ni  Ni939  1  0.50834236  0.25000000  0.75834236  1.0
  Ni  Ni940  1  0.50834236  0.58333333  0.75834236  1.0
  Ni  Ni941  1  0.50834236  0.91666667  0.75834236  1.0
  Ni  Ni942  1  0.84167569  0.25000000  0.75834236  1.0
  Ni  Ni943  1  0.84167569  0.58333333  0.75834236  1.0
  Ni  Ni944  1  0.84167569  0.91666667  0.75834236  1.0
  Ni  Ni945  1  0.07977093  0.08333333  0.82977093  1.0
  Ni  Ni946  1  0.07977093  0.41666667  0.82977093  1.0
  Ni  Ni947  1  0.07977093  0.75000000  0.82977093  1.0
  Ni  Ni948  1  0.41310426  0.08333333  0.82977093  1.0
  Ni  Ni949  1  0.41310426  0.41666667  0.82977093  1.0
  Ni  Ni950  1  0.41310426  0.75000000  0.82977093  1.0
  Ni  Ni951  1  0.74643760  0.08333333  0.82977093  1.0
  Ni  Ni952  1  0.74643760  0.41666667  0.82977093  1.0
  Ni  Ni953  1  0.74643760  0.75000000  0.82977093  1.0
  Ni  Ni954  1  0.12363402  0.04913067  0.68810936  1.0
  Ni  Ni955  1  0.12363402  0.38246400  0.68810936  1.0
  Ni  Ni956  1  0.12363402  0.71579733  0.68810936  1.0
  Ni  Ni957  1  0.45696736  0.04913067  0.68810936  1.0
  Ni  Ni958  1  0.45696736  0.38246400  0.68810936  1.0
  Ni  Ni959  1  0.45696736  0.71579733  0.68810936  1.0
  Ni  Ni960  1  0.79030069  0.04913067  0.68810936  1.0
  Ni  Ni961  1  0.79030069  0.38246400  0.68810936  1.0
  Ni  Ni962  1  0.79030069  0.71579733  0.68810936  1.0
  Ni  Ni963  1  0.21887212  0.21579733  0.61668079  1.0
  Ni  Ni964  1  0.21887212  0.54913067  0.61668079  1.0
  Ni  Ni965  1  0.21887212  0.88246400  0.61668079  1.0
  Ni  Ni966  1  0.55220545  0.21579733  0.61668079  1.0
  Ni  Ni967  1  0.55220545  0.54913067  0.61668079  1.0
  Ni  Ni968  1  0.55220545  0.88246400  0.61668079  1.0
  Ni  Ni969  1  0.88553879  0.21579733  0.61668079  1.0
  Ni  Ni970  1  0.88553879  0.54913067  0.61668079  1.0
  Ni  Ni971  1  0.88553879  0.88246400  0.61668079  1.0
  Ni  Ni972  1  0.15119950  0.33333333  0.65119950  1.0
  Ni  Ni973  1  0.15119950  0.66666667  0.65119950  1.0
  Ni  Ni974  1  0.15119950  1.00000000  0.65119950  1.0
  Ni  Ni975  1  0.48453283  0.33333333  0.65119950  1.0
  Ni  Ni976  1  0.48453283  0.66666667  0.65119950  1.0
  Ni  Ni977  1  0.48453283  1.00000000  0.65119950  1.0
  Ni  Ni978  1  0.81786617  0.33333333  0.65119950  1.0
  Ni  Ni979  1  0.81786617  0.66666667  0.65119950  1.0
  Ni  Ni980  1  0.81786617  1.00000000  0.65119950  1.0
  Ni  Ni981  1  0.24643760  0.16666667  0.57977093  1.0
  Ni  Ni982  1  0.24643760  0.50000000  0.57977093  1.0
  Ni  Ni983  1  0.24643760  0.83333333  0.57977093  1.0
  Ni  Ni984  1  0.57977093  0.16666667  0.57977093  1.0
  Ni  Ni985  1  0.57977093  0.50000000  0.57977093  1.0
  Ni  Ni986  1  0.57977093  0.83333333  0.57977093  1.0
  Ni  Ni987  1  0.91310426  0.16666667  0.57977093  1.0
  Ni  Ni988  1  0.91310426  0.50000000  0.57977093  1.0
  Ni  Ni989  1  0.91310426  0.83333333  0.57977093  1.0
  Ni  Ni990  1  0.09876560  0.29636800  0.57669893  1.0
  Ni  Ni991  1  0.09876560  0.62970133  0.57669893  1.0
  Ni  Ni992  1  0.09876560  0.96303467  0.57669893  1.0
  Ni  Ni993  1  0.43209893  0.29636800  0.57669893  1.0
  Ni  Ni994  1  0.43209893  0.62970133  0.57669893  1.0
  Ni  Ni995  1  0.43209893  0.96303467  0.57669893  1.0
  Ni  Ni996  1  0.76543226  0.29636800  0.57669893  1.0
  Ni  Ni997  1  0.76543226  0.62970133  0.57669893  1.0
  Ni  Ni998  1  0.76543226  0.96303467  0.57669893  1.0
  Ni  Ni999  1  0.00352750  0.12970133  0.64812750  1.0
  Ni  Ni1000  1  0.00352750  0.46303467  0.64812750  1.0
  Ni  Ni1001  1  0.00352750  0.79636800  0.64812750  1.0
  Ni  Ni1002  1  0.33686083  0.12970133  0.64812750  1.0
  Ni  Ni1003  1  0.33686083  0.46303467  0.64812750  1.0
  Ni  Ni1004  1  0.33686083  0.79636800  0.64812750  1.0
  Ni  Ni1005  1  0.67019417  0.12970133  0.64812750  1.0
  Ni  Ni1006  1  0.67019417  0.46303467  0.64812750  1.0
  Ni  Ni1007  1  0.67019417  0.79636800  0.64812750  1.0
  Ni  Ni1008  1  0.09532236  0.12931250  0.57961586  1.0
  Ni  Ni1009  1  0.09532236  0.46264583  0.57961586  1.0
  Ni  Ni1010  1  0.09532236  0.79597917  0.57961586  1.0
  Ni  Ni1011  1  0.42865569  0.12931250  0.57961586  1.0
  Ni  Ni1012  1  0.42865569  0.46264583  0.57961586  1.0
  Ni  Ni1013  1  0.42865569  0.79597917  0.57961586  1.0
  Ni  Ni1014  1  0.76198902  0.12931250  0.57961586  1.0
  Ni  Ni1015  1  0.76198902  0.46264583  0.57961586  1.0
  Ni  Ni1016  1  0.76198902  0.79597917  0.57961586  1.0
  Ni  Ni1017  1  0.00008426  0.29597917  0.65104443  1.0
  Ni  Ni1018  1  0.00008426  0.62931250  0.65104443  1.0
  Ni  Ni1019  1  0.00008426  0.96264583  0.65104443  1.0
  Ni  Ni1020  1  0.33341760  0.29597917  0.65104443  1.0
  Ni  Ni1021  1  0.33341760  0.62931250  0.65104443  1.0
  Ni  Ni1022  1  0.33341760  0.96264583  0.65104443  1.0
  Ni  Ni1023  1  0.66675093  0.29597917  0.65104443  1.0
  Ni  Ni1024  1  0.66675093  0.62931250  0.65104443  1.0
  Ni  Ni1025  1  0.66675093  0.96264583  0.65104443  1.0
  Ni  Ni1026  1  0.06077626  0.03696533  0.58284293  1.0
  Ni  Ni1027  1  0.06077626  0.37029867  0.58284293  1.0
  Ni  Ni1028  1  0.06077626  0.70363200  0.58284293  1.0
  Ni  Ni1029  1  0.39410960  0.03696533  0.58284293  1.0
  Ni  Ni1030  1  0.39410960  0.37029867  0.58284293  1.0
  Ni  Ni1031  1  0.39410960  0.70363200  0.58284293  1.0
  Ni  Ni1032  1  0.72744293  0.03696533  0.58284293  1.0
  Ni  Ni1033  1  0.72744293  0.37029867  0.58284293  1.0
  Ni  Ni1034  1  0.72744293  0.70363200  0.58284293  1.0
  Ni  Ni1035  1  0.29887150  0.20363200  0.65427150  1.0
  Ni  Ni1036  1  0.29887150  0.53696533  0.65427150  1.0
  Ni  Ni1037  1  0.29887150  0.87029867  0.65427150  1.0
  Ni  Ni1038  1  0.63220483  0.20363200  0.65427150  1.0
  Ni  Ni1039  1  0.63220483  0.53696533  0.65427150  1.0
  Ni  Ni1040  1  0.63220483  0.87029867  0.65427150  1.0
  Ni  Ni1041  1  0.96553817  0.20363200  0.65427150  1.0
  Ni  Ni1042  1  0.96553817  0.53696533  0.65427150  1.0
  Ni  Ni1043  1  0.96553817  0.87029867  0.65427150  1.0
  Ni  Ni1044  1  0.13538664  0.03893100  0.59645564  1.0
  Ni  Ni1045  1  0.13538664  0.37226433  0.59645564  1.0
  Ni  Ni1046  1  0.13538664  0.70559767  0.59645564  1.0
  Ni  Ni1047  1  0.46871998  0.03893100  0.59645564  1.0
  Ni  Ni1048  1  0.46871998  0.37226433  0.59645564  1.0
  Ni  Ni1049  1  0.46871998  0.70559767  0.59645564  1.0
  Ni  Ni1050  1  0.80205331  0.03893100  0.59645564  1.0
  Ni  Ni1051  1  0.80205331  0.37226433  0.59645564  1.0
  Ni  Ni1052  1  0.80205331  0.70559767  0.59645564  1.0
  Ni  Ni1053  1  0.04014855  0.20559767  0.66788421  1.0
  Ni  Ni1054  1  0.04014855  0.53893100  0.66788421  1.0
  Ni  Ni1055  1  0.04014855  0.87226433  0.66788421  1.0
  Ni  Ni1056  1  0.37348188  0.20559767  0.66788421  1.0
  Ni  Ni1057  1  0.37348188  0.53893100  0.66788421  1.0
  Ni  Ni1058  1  0.37348188  0.87226433  0.66788421  1.0
  Ni  Ni1059  1  0.70681521  0.20559767  0.66788421  1.0
  Ni  Ni1060  1  0.70681521  0.53893100  0.66788421  1.0
  Ni  Ni1061  1  0.70681521  0.87226433  0.66788421  1.0
  Ni  Ni1062  1  0.25680326  0.29364033  0.63665593  1.0
  Ni  Ni1063  1  0.25680326  0.62697367  0.63665593  1.0
  Ni  Ni1064  1  0.25680326  0.96030700  0.63665593  1.0
  Ni  Ni1065  1  0.59013660  0.29364033  0.63665593  1.0
  Ni  Ni1066  1  0.59013660  0.62697367  0.63665593  1.0
  Ni  Ni1067  1  0.59013660  0.96030700  0.63665593  1.0
  Ni  Ni1068  1  0.92346993  0.29364033  0.63665593  1.0
  Ni  Ni1069  1  0.92346993  0.62697367  0.63665593  1.0
  Ni  Ni1070  1  0.92346993  0.96030700  0.63665593  1.0
  Ni  Ni1071  1  0.16156517  0.12697367  0.70808450  1.0
  Ni  Ni1072  1  0.16156517  0.46030700  0.70808450  1.0
  Ni  Ni1073  1  0.16156517  0.79364033  0.70808450  1.0
  Ni  Ni1074  1  0.49489850  0.12697367  0.70808450  1.0
  Ni  Ni1075  1  0.49489850  0.46030700  0.70808450  1.0
  Ni  Ni1076  1  0.49489850  0.79364033  0.70808450  1.0
  Ni  Ni1077  1  0.82823183  0.12697367  0.70808450  1.0
  Ni  Ni1078  1  0.82823183  0.46030700  0.70808450  1.0
  Ni  Ni1079  1  0.82823183  0.79364033  0.70808450  1.0
  Ni  Ni1080  1  0.06421950  0.20402083  0.57992600  1.0
  Ni  Ni1081  1  0.06421950  0.53735417  0.57992600  1.0
  Ni  Ni1082  1  0.06421950  0.87068750  0.57992600  1.0
  Ni  Ni1083  1  0.39755283  0.20402083  0.57992600  1.0
  Ni  Ni1084  1  0.39755283  0.53735417  0.57992600  1.0
  Ni  Ni1085  1  0.39755283  0.87068750  0.57992600  1.0
  Ni  Ni1086  1  0.73088617  0.20402083  0.57992600  1.0
  Ni  Ni1087  1  0.73088617  0.53735417  0.57992600  1.0
  Ni  Ni1088  1  0.73088617  0.87068750  0.57992600  1.0
  Ni  Ni1089  1  0.30231474  0.03735417  0.65135457  1.0
  Ni  Ni1090  1  0.30231474  0.37068750  0.65135457  1.0
  Ni  Ni1091  1  0.30231474  0.70402083  0.65135457  1.0
  Ni  Ni1092  1  0.63564807  0.03735417  0.65135457  1.0
  Ni  Ni1093  1  0.63564807  0.37068750  0.65135457  1.0
  Ni  Ni1094  1  0.63564807  0.70402083  0.65135457  1.0
  Ni  Ni1095  1  0.96898140  0.03735417  0.65135457  1.0
  Ni  Ni1096  1  0.96898140  0.37068750  0.65135457  1.0
  Ni  Ni1097  1  0.96898140  0.70402083  0.65135457  1.0
  Ni  Ni1098  1  0.04559574  0.03969300  0.66574307  1.0
  Ni  Ni1099  1  0.04559574  0.37302633  0.66574307  1.0
  Ni  Ni1100  1  0.04559574  0.70635967  0.66574307  1.0
  Ni  Ni1101  1  0.37892907  0.03969300  0.66574307  1.0
  Ni  Ni1102  1  0.37892907  0.37302633  0.66574307  1.0
  Ni  Ni1103  1  0.37892907  0.70635967  0.66574307  1.0
  Ni  Ni1104  1  0.71226240  0.03969300  0.66574307  1.0
  Ni  Ni1105  1  0.71226240  0.37302633  0.66574307  1.0
  Ni  Ni1106  1  0.71226240  0.70635967  0.66574307  1.0
  Ni  Ni1107  1  0.14083383  0.20635967  0.59431450  1.0
  Ni  Ni1108  1  0.14083383  0.53969300  0.59431450  1.0
  Ni  Ni1109  1  0.14083383  0.87302633  0.59431450  1.0
  Ni  Ni1110  1  0.47416717  0.20635967  0.59431450  1.0
  Ni  Ni1111  1  0.47416717  0.53969300  0.59431450  1.0
  Ni  Ni1112  1  0.47416717  0.87302633  0.59431450  1.0
  Ni  Ni1113  1  0.80750050  0.20635967  0.59431450  1.0
  Ni  Ni1114  1  0.80750050  0.53969300  0.59431450  1.0
  Ni  Ni1115  1  0.80750050  0.87302633  0.59431450  1.0
  Ni  Ni1116  1  0.17876498  0.28420267  0.61428964  1.0
  Ni  Ni1117  1  0.17876498  0.61753600  0.61428964  1.0
  Ni  Ni1118  1  0.17876498  0.95086933  0.61428964  1.0
  Ni  Ni1119  1  0.51209831  0.28420267  0.61428964  1.0
  Ni  Ni1120  1  0.51209831  0.61753600  0.61428964  1.0
  Ni  Ni1121  1  0.51209831  0.95086933  0.61428964  1.0
  Ni  Ni1122  1  0.84543164  0.28420267  0.61428964  1.0
  Ni  Ni1123  1  0.84543164  0.61753600  0.61428964  1.0
  Ni  Ni1124  1  0.84543164  0.95086933  0.61428964  1.0
  Ni  Ni1125  1  0.08352688  0.11753600  0.68571821  1.0
  Ni  Ni1126  1  0.08352688  0.45086933  0.68571821  1.0
  Ni  Ni1127  1  0.08352688  0.78420267  0.68571821  1.0
  Ni  Ni1128  1  0.41686021  0.11753600  0.68571821  1.0
  Ni  Ni1129  1  0.41686021  0.45086933  0.68571821  1.0
  Ni  Ni1130  1  0.41686021  0.78420267  0.68571821  1.0
  Ni  Ni1131  1  0.75019355  0.11753600  0.68571821  1.0
  Ni  Ni1132  1  0.75019355  0.45086933  0.68571821  1.0
  Ni  Ni1133  1  0.75019355  0.78420267  0.68571821  1.0
  Ni  Ni1134  1  0.16701236  0.29440233  0.70594336  1.0
  Ni  Ni1135  1  0.16701236  0.62773567  0.70594336  1.0
  Ni  Ni1136  1  0.16701236  0.96106900  0.70594336  1.0
  Ni  Ni1137  1  0.50034569  0.29440233  0.70594336  1.0
  Ni  Ni1138  1  0.50034569  0.62773567  0.70594336  1.0
  Ni  Ni1139  1  0.50034569  0.96106900  0.70594336  1.0
  Ni  Ni1140  1  0.83367902  0.29440233  0.70594336  1.0
  Ni  Ni1141  1  0.83367902  0.62773567  0.70594336  1.0
  Ni  Ni1142  1  0.83367902  0.96106900  0.70594336  1.0
  Ni  Ni1143  1  0.26225045  0.12773567  0.63451479  1.0
  Ni  Ni1144  1  0.26225045  0.46106900  0.63451479  1.0
  Ni  Ni1145  1  0.26225045  0.79440233  0.63451479  1.0
  Ni  Ni1146  1  0.59558379  0.12773567  0.63451479  1.0
  Ni  Ni1147  1  0.59558379  0.46106900  0.63451479  1.0
  Ni  Ni1148  1  0.59558379  0.79440233  0.63451479  1.0
  Ni  Ni1149  1  0.92891712  0.12773567  0.63451479  1.0
  Ni  Ni1150  1  0.92891712  0.46106900  0.63451479  1.0
  Ni  Ni1151  1  0.92891712  0.79440233  0.63451479  1.0
  Ni  Ni1152  1  0.15119950  0.16666667  0.65119950  1.0
  Ni  Ni1153  1  0.15119950  0.50000000  0.65119950  1.0
  Ni  Ni1154  1  0.15119950  0.83333333  0.65119950  1.0
  Ni  Ni1155  1  0.48453283  0.16666667  0.65119950  1.0
  Ni  Ni1156  1  0.48453283  0.50000000  0.65119950  1.0
  Ni  Ni1157  1  0.48453283  0.83333333  0.65119950  1.0
  Ni  Ni1158  1  0.81786617  0.16666667  0.65119950  1.0
  Ni  Ni1159  1  0.81786617  0.50000000  0.65119950  1.0
  Ni  Ni1160  1  0.81786617  0.83333333  0.65119950  1.0
  Ni  Ni1161  1  0.24643760  0.00000000  0.57977093  1.0
  Ni  Ni1162  1  0.24643760  0.33333333  0.57977093  1.0
  Ni  Ni1163  1  0.24643760  0.66666667  0.57977093  1.0
  Ni  Ni1164  1  0.57977093  0.00000000  0.57977093  1.0
  Ni  Ni1165  1  0.57977093  0.33333333  0.57977093  1.0
  Ni  Ni1166  1  0.57977093  0.66666667  0.57977093  1.0
  Ni  Ni1167  1  0.91310426  0.00000000  0.57977093  1.0
  Ni  Ni1168  1  0.91310426  0.33333333  0.57977093  1.0
  Ni  Ni1169  1  0.91310426  0.66666667  0.57977093  1.0
  Ni  Ni1170  1  0.03215188  0.25000000  0.61548521  1.0
  Ni  Ni1171  1  0.03215188  0.58333333  0.61548521  1.0
  Ni  Ni1172  1  0.03215188  0.91666667  0.61548521  1.0
  Ni  Ni1173  1  0.36548521  0.25000000  0.61548521  1.0
  Ni  Ni1174  1  0.36548521  0.58333333  0.61548521  1.0
  Ni  Ni1175  1  0.36548521  0.91666667  0.61548521  1.0
  Ni  Ni1176  1  0.69881855  0.25000000  0.61548521  1.0
  Ni  Ni1177  1  0.69881855  0.58333333  0.61548521  1.0
  Ni  Ni1178  1  0.69881855  0.91666667  0.61548521  1.0
  Ni  Ni1179  1  0.27024712  0.08333333  0.68691379  1.0
  Ni  Ni1180  1  0.27024712  0.41666667  0.68691379  1.0
  Ni  Ni1181  1  0.27024712  0.75000000  0.68691379  1.0
  Ni  Ni1182  1  0.60358045  0.08333333  0.68691379  1.0
  Ni  Ni1183  1  0.60358045  0.41666667  0.68691379  1.0
  Ni  Ni1184  1  0.60358045  0.75000000  0.68691379  1.0
  Ni  Ni1185  1  0.93691379  0.08333333  0.68691379  1.0
  Ni  Ni1186  1  0.93691379  0.41666667  0.68691379  1.0
  Ni  Ni1187  1  0.93691379  0.75000000  0.68691379  1.0
