# generated using pymatgen
data_In9Ni13
_symmetry_space_group_name_H-M   'P 1'
_cell_length_a   25.60289559
_cell_length_b   49.03963213
_cell_length_c   33.52869804
_cell_angle_alpha   85.65000860
_cell_angle_beta   86.95399158
_cell_angle_gamma   82.52883822
_symmetry_Int_Tables_number   1
_chemical_formula_structural   In9Ni13
_chemical_formula_sum   'In486 Ni702'
_cell_volume   41579.66173162
_cell_formula_units_Z   54
loop_
 _symmetry_equiv_pos_site_id
 _symmetry_equiv_pos_as_xyz
  1  'x, y, z'
loop_
 _atom_site_type_symbol
 _atom_site_label
 _atom_site_symmetry_multiplicity
 _atom_site_fract_x
 _atom_site_fract_y
 _atom_site_fract_z
 _atom_site_occupancy
  In  In0  1  0.11831636  0.20469748  0.08242004  1.0
  In  In1  1  0.11831636  0.53803081  0.08242004  1.0
  In  In2  1  0.11831636  0.87136414  0.08242004  1.0
  In  In3  1  0.45164969  0.20469748  0.08242004  1.0
  In  In4  1  0.45164969  0.53803081  0.08242004  1.0
  In  In5  1  0.45164969  0.87136414  0.08242004  1.0
  In  In6  1  0.78498302  0.20469748  0.08242004  1.0
  In  In7  1  0.78498302  0.53803081  0.08242004  1.0
  In  In8  1  0.78498302  0.87136414  0.08242004  1.0
  In  In9  1  0.07069731  0.08564986  0.01099146  1.0
  In  In10  1  0.07069731  0.41898319  0.01099146  1.0
  In  In11  1  0.07069731  0.75231652  0.01099146  1.0
  In  In12  1  0.40403064  0.08564986  0.01099146  1.0
  In  In13  1  0.40403064  0.41898319  0.01099146  1.0
  In  In14  1  0.40403064  0.75231652  0.01099146  1.0
  In  In15  1  0.73736398  0.08564986  0.01099146  1.0
  In  In16  1  0.73736398  0.41898319  0.01099146  1.0
  In  In17  1  0.73736398  0.75231652  0.01099146  1.0
  In  In18  1  0.21049898  0.15842202  0.12288896  1.0
  In  In19  1  0.21049898  0.49175536  0.12288896  1.0
  In  In20  1  0.21049898  0.82508869  0.12288896  1.0
  In  In21  1  0.54383231  0.15842202  0.12288896  1.0
  In  In22  1  0.54383231  0.49175536  0.12288896  1.0
  In  In23  1  0.54383231  0.82508869  0.12288896  1.0
  In  In24  1  0.87716564  0.15842202  0.12288896  1.0
  In  In25  1  0.87716564  0.49175536  0.12288896  1.0
  In  In26  1  0.87716564  0.82508869  0.12288896  1.0
  In  In27  1  0.16287993  0.03937440  0.05146039  1.0
  In  In28  1  0.16287993  0.37270774  0.05146039  1.0
  In  In29  1  0.16287993  0.70604107  0.05146039  1.0
  In  In30  1  0.49621326  0.03937440  0.05146039  1.0
  In  In31  1  0.49621326  0.37270774  0.05146039  1.0
  In  In32  1  0.49621326  0.70604107  0.05146039  1.0
  In  In33  1  0.82954660  0.03937440  0.05146039  1.0
  In  In34  1  0.82954660  0.37270774  0.05146039  1.0
  In  In35  1  0.82954660  0.70604107  0.05146039  1.0
  In  In36  1  0.29645960  0.10063540  0.11081439  1.0
  In  In37  1  0.29645960  0.43396874  0.11081439  1.0
  In  In38  1  0.29645960  0.76730207  0.11081439  1.0
  In  In39  1  0.62979293  0.10063540  0.11081439  1.0
  In  In40  1  0.62979293  0.43396874  0.11081439  1.0
  In  In41  1  0.62979293  0.76730207  0.11081439  1.0
  In  In42  1  0.96312626  0.10063540  0.11081439  1.0
  In  In43  1  0.96312626  0.43396874  0.11081439  1.0
  In  In44  1  0.96312626  0.76730207  0.11081439  1.0
  In  In45  1  0.24884055  0.31492112  0.03938582  1.0
  In  In46  1  0.24884055  0.64825445  0.03938582  1.0
  In  In47  1  0.24884055  0.98158779  0.03938582  1.0
  In  In48  1  0.58217388  0.31492112  0.03938582  1.0
  In  In49  1  0.58217388  0.64825445  0.03938582  1.0
  In  In50  1  0.58217388  0.98158779  0.03938582  1.0
  In  In51  1  0.91550721  0.31492112  0.03938582  1.0
  In  In52  1  0.91550721  0.64825445  0.03938582  1.0
  In  In53  1  0.91550721  0.98158779  0.03938582  1.0
  In  In54  1  0.13084074  0.09567376  0.10120661  1.0
  In  In55  1  0.13084074  0.42900710  0.10120661  1.0
  In  In56  1  0.13084074  0.76234043  0.10120661  1.0
  In  In57  1  0.46417407  0.09567376  0.10120661  1.0
  In  In58  1  0.46417407  0.42900710  0.10120661  1.0
  In  In59  1  0.46417407  0.76234043  0.10120661  1.0
  In  In60  1  0.79750740  0.09567376  0.10120661  1.0
  In  In61  1  0.79750740  0.42900710  0.10120661  1.0
  In  In62  1  0.79750740  0.76234043  0.10120661  1.0
  In  In63  1  0.08322169  0.30995948  0.02977804  1.0
  In  In64  1  0.08322169  0.64329281  0.02977804  1.0
  In  In65  1  0.08322169  0.97662614  0.02977804  1.0
  In  In66  1  0.41655502  0.30995948  0.02977804  1.0
  In  In67  1  0.41655502  0.64329281  0.02977804  1.0
  In  In68  1  0.41655502  0.97662614  0.02977804  1.0
  In  In69  1  0.74988836  0.30995948  0.02977804  1.0
  In  In70  1  0.74988836  0.64329281  0.02977804  1.0
  In  In71  1  0.74988836  0.97662614  0.02977804  1.0
  In  In72  1  0.12582340  0.14374826  0.02261011  1.0
  In  In73  1  0.12582340  0.47708160  0.02261011  1.0
  In  In74  1  0.12582340  0.81041493  0.02261011  1.0
  In  In75  1  0.45915674  0.14374826  0.02261011  1.0
  In  In76  1  0.45915674  0.47708160  0.02261011  1.0
  In  In77  1  0.45915674  0.81041493  0.02261011  1.0
  In  In78  1  0.79249007  0.14374826  0.02261011  1.0
  In  In79  1  0.79249007  0.47708160  0.02261011  1.0
  In  In80  1  0.79249007  0.81041493  0.02261011  1.0
  In  In81  1  0.17344245  0.26279588  0.09403868  1.0
  In  In82  1  0.17344245  0.59612921  0.09403868  1.0
  In  In83  1  0.17344245  0.92946255  0.09403868  1.0
  In  In84  1  0.50677579  0.26279588  0.09403868  1.0
  In  In85  1  0.50677579  0.59612921  0.09403868  1.0
  In  In86  1  0.50677579  0.92946255  0.09403868  1.0
  In  In87  1  0.84010912  0.26279588  0.09403868  1.0
  In  In88  1  0.84010912  0.59612921  0.09403868  1.0
  In  In89  1  0.84010912  0.92946255  0.09403868  1.0
  In  In90  1  0.06828436  0.01504898  0.10242654  1.0
  In  In91  1  0.06828436  0.34838231  0.10242654  1.0
  In  In92  1  0.06828436  0.68171564  0.10242654  1.0
  In  In93  1  0.40161769  0.01504898  0.10242654  1.0
  In  In94  1  0.40161769  0.34838231  0.10242654  1.0
  In  In95  1  0.40161769  0.68171564  0.10242654  1.0
  In  In96  1  0.73495102  0.01504898  0.10242654  1.0
  In  In97  1  0.73495102  0.34838231  0.10242654  1.0
  In  In98  1  0.73495102  0.68171564  0.10242654  1.0
  In  In99  1  0.02066531  0.22933469  0.03099796  1.0
  In  In100  1  0.02066531  0.56266802  0.03099796  1.0
  In  In101  1  0.02066531  0.89600136  0.03099796  1.0
  In  In102  1  0.35399864  0.22933469  0.03099796  1.0
  In  In103  1  0.35399864  0.56266802  0.03099796  1.0
  In  In104  1  0.35399864  0.89600136  0.03099796  1.0
  In  In105  1  0.68733198  0.22933469  0.03099796  1.0
  In  In106  1  0.68733198  0.56266802  0.03099796  1.0
  In  In107  1  0.68733198  0.89600136  0.03099796  1.0
  In  In108  1  0.30396664  0.03968619  0.05100446  1.0
  In  In109  1  0.30396664  0.37301952  0.05100446  1.0
  In  In110  1  0.30396664  0.70635286  0.05100446  1.0
  In  In111  1  0.63729998  0.03968619  0.05100446  1.0
  In  In112  1  0.63729998  0.37301952  0.05100446  1.0
  In  In113  1  0.63729998  0.70635286  0.05100446  1.0
  In  In114  1  0.97063331  0.03968619  0.05100446  1.0
  In  In115  1  0.97063331  0.37301952  0.05100446  1.0
  In  In116  1  0.97063331  0.70635286  0.05100446  1.0
  In  In117  1  0.01825236  0.15873381  0.12243304  1.0
  In  In118  1  0.01825236  0.49206714  0.12243304  1.0
  In  In119  1  0.01825236  0.82540048  0.12243304  1.0
  In  In120  1  0.35158569  0.15873381  0.12243304  1.0
  In  In121  1  0.35158569  0.49206714  0.12243304  1.0
  In  In122  1  0.35158569  0.82540048  0.12243304  1.0
  In  In123  1  0.68491902  0.15873381  0.12243304  1.0
  In  In124  1  0.68491902  0.49206714  0.12243304  1.0
  In  In125  1  0.68491902  0.82540048  0.12243304  1.0
  In  In126  1  0.29144226  0.14870990  0.03221789  1.0
  In  In127  1  0.29144226  0.48204324  0.03221789  1.0
  In  In128  1  0.29144226  0.81537657  0.03221789  1.0
  In  In129  1  0.62477560  0.14870990  0.03221789  1.0
  In  In130  1  0.62477560  0.48204324  0.03221789  1.0
  In  In131  1  0.62477560  0.81537657  0.03221789  1.0
  In  In132  1  0.95810893  0.14870990  0.03221789  1.0
  In  In133  1  0.95810893  0.48204324  0.03221789  1.0
  In  In134  1  0.95810893  0.81537657  0.03221789  1.0
  In  In135  1  0.00572798  0.26775752  0.10364646  1.0
  In  In136  1  0.00572798  0.60109086  0.10364646  1.0
  In  In137  1  0.00572798  0.93442419  0.10364646  1.0
  In  In138  1  0.33906131  0.26775752  0.10364646  1.0
  In  In139  1  0.33906131  0.60109086  0.10364646  1.0
  In  In140  1  0.33906131  0.93442419  0.10364646  1.0
  In  In141  1  0.67239464  0.26775752  0.10364646  1.0
  In  In142  1  0.67239464  0.60109086  0.10364646  1.0
  In  In143  1  0.67239464  0.93442419  0.10364646  1.0
  In  In144  1  0.21178402  0.08596164  0.01053554  1.0
  In  In145  1  0.21178402  0.41929498  0.01053554  1.0
  In  In146  1  0.21178402  0.75262831  0.01053554  1.0
  In  In147  1  0.54511736  0.08596164  0.01053554  1.0
  In  In148  1  0.54511736  0.41929498  0.01053554  1.0
  In  In149  1  0.54511736  0.75262831  0.01053554  1.0
  In  In150  1  0.87845069  0.08596164  0.01053554  1.0
  In  In151  1  0.87845069  0.41929498  0.01053554  1.0
  In  In152  1  0.87845069  0.75262831  0.01053554  1.0
  In  In153  1  0.25940307  0.20500926  0.08196411  1.0
  In  In154  1  0.25940307  0.53834260  0.08196411  1.0
  In  In155  1  0.25940307  0.87167593  0.08196411  1.0
  In  In156  1  0.59273640  0.20500926  0.08196411  1.0
  In  In157  1  0.59273640  0.53834260  0.08196411  1.0
  In  In158  1  0.59273640  0.87167593  0.08196411  1.0
  In  In159  1  0.92606974  0.20500926  0.08196411  1.0
  In  In160  1  0.92606974  0.53834260  0.08196411  1.0
  In  In161  1  0.92606974  0.87167593  0.08196411  1.0
  In  In162  1  0.21355445  0.10945938  0.22527718  1.0
  In  In163  1  0.21355445  0.44279271  0.22527718  1.0
  In  In164  1  0.21355445  0.77612605  0.22527718  1.0
  In  In165  1  0.54688779  0.10945938  0.22527718  1.0
  In  In166  1  0.54688779  0.44279271  0.22527718  1.0
  In  In167  1  0.54688779  0.77612605  0.22527718  1.0
  In  In168  1  0.88022112  0.10945938  0.22527718  1.0
  In  In169  1  0.88022112  0.44279271  0.22527718  1.0
  In  In170  1  0.88022112  0.77612605  0.22527718  1.0
  In  In171  1  0.16593540  0.32374510  0.15384861  1.0
  In  In172  1  0.16593540  0.65707843  0.15384861  1.0
  In  In173  1  0.16593540  0.99041176  0.15384861  1.0
  In  In174  1  0.49926874  0.32374510  0.15384861  1.0
  In  In175  1  0.49926874  0.65707843  0.15384861  1.0
  In  In176  1  0.49926874  0.99041176  0.15384861  1.0
  In  In177  1  0.83260207  0.32374510  0.15384861  1.0
  In  In178  1  0.83260207  0.65707843  0.15384861  1.0
  In  In179  1  0.83260207  0.99041176  0.15384861  1.0
  In  In180  1  0.30573707  0.06318393  0.26574611  1.0
  In  In181  1  0.30573707  0.39651726  0.26574611  1.0
  In  In182  1  0.30573707  0.72985060  0.26574611  1.0
  In  In183  1  0.63907040  0.06318393  0.26574611  1.0
  In  In184  1  0.63907040  0.39651726  0.26574611  1.0
  In  In185  1  0.63907040  0.72985060  0.26574611  1.0
  In  In186  1  0.97240374  0.06318393  0.26574611  1.0
  In  In187  1  0.97240374  0.39651726  0.26574611  1.0
  In  In188  1  0.97240374  0.72985060  0.26574611  1.0
  In  In189  1  0.25811802  0.27746964  0.19431754  1.0
  In  In190  1  0.25811802  0.61080298  0.19431754  1.0
  In  In191  1  0.25811802  0.94413631  0.19431754  1.0
  In  In192  1  0.59145136  0.27746964  0.19431754  1.0
  In  In193  1  0.59145136  0.61080298  0.19431754  1.0
  In  In194  1  0.59145136  0.94413631  0.19431754  1.0
  In  In195  1  0.92478469  0.27746964  0.19431754  1.0
  In  In196  1  0.92478469  0.61080298  0.19431754  1.0
  In  In197  1  0.92478469  0.94413631  0.19431754  1.0
  In  In198  1  0.05836436  0.00539731  0.25367154  1.0
  In  In199  1  0.05836436  0.33873064  0.25367154  1.0
  In  In200  1  0.05836436  0.67206398  0.25367154  1.0
  In  In201  1  0.39169769  0.00539731  0.25367154  1.0
  In  In202  1  0.39169769  0.33873064  0.25367154  1.0
  In  In203  1  0.39169769  0.67206398  0.25367154  1.0
  In  In204  1  0.72503102  0.00539731  0.25367154  1.0
  In  In205  1  0.72503102  0.33873064  0.25367154  1.0
  In  In206  1  0.72503102  0.67206398  0.25367154  1.0
  In  In207  1  0.01074531  0.21968302  0.18224296  1.0
  In  In208  1  0.01074531  0.55301636  0.18224296  1.0
  In  In209  1  0.01074531  0.88634969  0.18224296  1.0
  In  In210  1  0.34407864  0.21968302  0.18224296  1.0
  In  In211  1  0.34407864  0.55301636  0.18224296  1.0
  In  In212  1  0.34407864  0.88634969  0.18224296  1.0
  In  In213  1  0.67741198  0.21968302  0.18224296  1.0
  In  In214  1  0.67741198  0.55301636  0.18224296  1.0
  In  In215  1  0.67741198  0.88634969  0.18224296  1.0
  In  In216  1  0.22607883  0.00043567  0.24406375  1.0
  In  In217  1  0.22607883  0.33376900  0.24406375  1.0
  In  In218  1  0.22607883  0.66710233  0.24406375  1.0
  In  In219  1  0.55941217  0.00043567  0.24406375  1.0
  In  In220  1  0.55941217  0.33376900  0.24406375  1.0
  In  In221  1  0.55941217  0.66710233  0.24406375  1.0
  In  In222  1  0.89274550  0.00043567  0.24406375  1.0
  In  In223  1  0.89274550  0.33376900  0.24406375  1.0
  In  In224  1  0.89274550  0.66710233  0.24406375  1.0
  In  In225  1  0.17845979  0.21472138  0.17263518  1.0
  In  In226  1  0.17845979  0.54805471  0.17263518  1.0
  In  In227  1  0.17845979  0.88138805  0.17263518  1.0
  In  In228  1  0.51179312  0.21472138  0.17263518  1.0
  In  In229  1  0.51179312  0.54805471  0.17263518  1.0
  In  In230  1  0.51179312  0.88138805  0.17263518  1.0
  In  In231  1  0.84512645  0.21472138  0.17263518  1.0
  In  In232  1  0.84512645  0.54805471  0.17263518  1.0
  In  In233  1  0.84512645  0.88138805  0.17263518  1.0
  In  In234  1  0.22106150  0.04851017  0.16546725  1.0
  In  In235  1  0.22106150  0.38184350  0.16546725  1.0
  In  In236  1  0.22106150  0.71517683  0.16546725  1.0
  In  In237  1  0.55439483  0.04851017  0.16546725  1.0
  In  In238  1  0.55439483  0.38184350  0.16546725  1.0
  In  In239  1  0.55439483  0.71517683  0.16546725  1.0
  In  In240  1  0.88772817  0.04851017  0.16546725  1.0
  In  In241  1  0.88772817  0.38184350  0.16546725  1.0
  In  In242  1  0.88772817  0.71517683  0.16546725  1.0
  In  In243  1  0.26868055  0.16755779  0.23689582  1.0
  In  In244  1  0.26868055  0.50089112  0.23689582  1.0
  In  In245  1  0.26868055  0.83422445  0.23689582  1.0
  In  In246  1  0.60201388  0.16755779  0.23689582  1.0
  In  In247  1  0.60201388  0.50089112  0.23689582  1.0
  In  In248  1  0.60201388  0.83422445  0.23689582  1.0
  In  In249  1  0.93534721  0.16755779  0.23689582  1.0
  In  In250  1  0.93534721  0.50089112  0.23689582  1.0
  In  In251  1  0.93534721  0.83422445  0.23689582  1.0
  In  In252  1  0.16352245  0.25314421  0.24528368  1.0
  In  In253  1  0.16352245  0.58647755  0.24528368  1.0
  In  In254  1  0.16352245  0.91981088  0.24528368  1.0
  In  In255  1  0.49685579  0.25314421  0.24528368  1.0
  In  In256  1  0.49685579  0.58647755  0.24528368  1.0
  In  In257  1  0.49685579  0.91981088  0.24528368  1.0
  In  In258  1  0.83018912  0.25314421  0.24528368  1.0
  In  In259  1  0.83018912  0.58647755  0.24528368  1.0
  In  In260  1  0.83018912  0.91981088  0.24528368  1.0
  In  In261  1  0.11590340  0.13409660  0.17385511  1.0
  In  In262  1  0.11590340  0.46742993  0.17385511  1.0
  In  In263  1  0.11590340  0.80076326  0.17385511  1.0
  In  In264  1  0.44923674  0.13409660  0.17385511  1.0
  In  In265  1  0.44923674  0.46742993  0.17385511  1.0
  In  In266  1  0.44923674  0.80076326  0.17385511  1.0
  In  In267  1  0.78257007  0.13409660  0.17385511  1.0
  In  In268  1  0.78257007  0.46742993  0.17385511  1.0
  In  In269  1  0.78257007  0.80076326  0.17385511  1.0
  In  In270  1  0.06587140  0.27778143  0.19386161  1.0
  In  In271  1  0.06587140  0.61111476  0.19386161  1.0
  In  In272  1  0.06587140  0.94444810  0.19386161  1.0
  In  In273  1  0.39920474  0.27778143  0.19386161  1.0
  In  In274  1  0.39920474  0.61111476  0.19386161  1.0
  In  In275  1  0.39920474  0.94444810  0.19386161  1.0
  In  In276  1  0.73253807  0.27778143  0.19386161  1.0
  In  In277  1  0.73253807  0.61111476  0.19386161  1.0
  In  In278  1  0.73253807  0.94444810  0.19386161  1.0
  In  In279  1  0.11349045  0.06349571  0.26529018  1.0
  In  In280  1  0.11349045  0.39682905  0.26529018  1.0
  In  In281  1  0.11349045  0.73016238  0.26529018  1.0
  In  In282  1  0.44682379  0.06349571  0.26529018  1.0
  In  In283  1  0.44682379  0.39682905  0.26529018  1.0
  In  In284  1  0.44682379  0.73016238  0.26529018  1.0
  In  In285  1  0.78015712  0.06349571  0.26529018  1.0
  In  In286  1  0.78015712  0.39682905  0.26529018  1.0
  In  In287  1  0.78015712  0.73016238  0.26529018  1.0
  In  In288  1  0.05334702  0.05347181  0.17507504  1.0
  In  In289  1  0.05334702  0.38680514  0.17507504  1.0
  In  In290  1  0.05334702  0.72013848  0.17507504  1.0
  In  In291  1  0.38668036  0.05347181  0.17507504  1.0
  In  In292  1  0.38668036  0.38680514  0.17507504  1.0
  In  In293  1  0.38668036  0.72013848  0.17507504  1.0
  In  In294  1  0.72001369  0.05347181  0.17507504  1.0
  In  In295  1  0.72001369  0.38680514  0.17507504  1.0
  In  In296  1  0.72001369  0.72013848  0.17507504  1.0
  In  In297  1  0.10096607  0.17251943  0.24650361  1.0
  In  In298  1  0.10096607  0.50585276  0.24650361  1.0
  In  In299  1  0.10096607  0.83918610  0.24650361  1.0
  In  In300  1  0.43429940  0.17251943  0.24650361  1.0
  In  In301  1  0.43429940  0.50585276  0.24650361  1.0
  In  In302  1  0.43429940  0.83918610  0.24650361  1.0
  In  In303  1  0.76763274  0.17251943  0.24650361  1.0
  In  In304  1  0.76763274  0.50585276  0.24650361  1.0
  In  In305  1  0.76763274  0.83918610  0.24650361  1.0
  In  In306  1  0.30702212  0.32405688  0.15339268  1.0
  In  In307  1  0.30702212  0.65739021  0.15339268  1.0
  In  In308  1  0.30702212  0.99072355  0.15339268  1.0
  In  In309  1  0.64035545  0.32405688  0.15339268  1.0
  In  In310  1  0.64035545  0.65739021  0.15339268  1.0
  In  In311  1  0.64035545  0.99072355  0.15339268  1.0
  In  In312  1  0.97368879  0.32405688  0.15339268  1.0
  In  In313  1  0.97368879  0.65739021  0.15339268  1.0
  In  In314  1  0.97368879  0.99072355  0.15339268  1.0
  In  In315  1  0.02130783  0.10977117  0.22482125  1.0
  In  In316  1  0.02130783  0.44310450  0.22482125  1.0
  In  In317  1  0.02130783  0.77643783  0.22482125  1.0
  In  In318  1  0.35464117  0.10977117  0.22482125  1.0
  In  In319  1  0.35464117  0.44310450  0.22482125  1.0
  In  In320  1  0.35464117  0.77643783  0.22482125  1.0
  In  In321  1  0.68797450  0.10977117  0.22482125  1.0
  In  In322  1  0.68797450  0.44310450  0.22482125  1.0
  In  In323  1  0.68797450  0.77643783  0.22482125  1.0
  In  In324  1  0.30879255  0.01422129  0.36813432  1.0
  In  In325  1  0.30879255  0.34755462  0.36813432  1.0
  In  In326  1  0.30879255  0.68088795  0.36813432  1.0
  In  In327  1  0.64212588  0.01422129  0.36813432  1.0
  In  In328  1  0.64212588  0.34755462  0.36813432  1.0
  In  In329  1  0.64212588  0.68088795  0.36813432  1.0
  In  In330  1  0.97545921  0.01422129  0.36813432  1.0
  In  In331  1  0.97545921  0.34755462  0.36813432  1.0
  In  In332  1  0.97545921  0.68088795  0.36813432  1.0
  In  In333  1  0.26117350  0.22850700  0.29670575  1.0
  In  In334  1  0.26117350  0.56184033  0.29670575  1.0
  In  In335  1  0.26117350  0.89517367  0.29670575  1.0
  In  In336  1  0.59450683  0.22850700  0.29670575  1.0
  In  In337  1  0.59450683  0.56184033  0.29670575  1.0
  In  In338  1  0.59450683  0.89517367  0.29670575  1.0
  In  In339  1  0.92784017  0.22850700  0.29670575  1.0
  In  In340  1  0.92784017  0.56184033  0.29670575  1.0
  In  In341  1  0.92784017  0.89517367  0.29670575  1.0
  In  In342  1  0.06764183  0.30127917  0.40860325  1.0
  In  In343  1  0.06764183  0.63461250  0.40860325  1.0
  In  In344  1  0.06764183  0.96794583  0.40860325  1.0
  In  In345  1  0.40097517  0.30127917  0.40860325  1.0
  In  In346  1  0.40097517  0.63461250  0.40860325  1.0
  In  In347  1  0.40097517  0.96794583  0.40860325  1.0
  In  In348  1  0.73430850  0.30127917  0.40860325  1.0
  In  In349  1  0.73430850  0.63461250  0.40860325  1.0
  In  In350  1  0.73430850  0.96794583  0.40860325  1.0
  In  In351  1  0.02002279  0.18223155  0.33717468  1.0
  In  In352  1  0.02002279  0.51556488  0.33717468  1.0
  In  In353  1  0.02002279  0.84889821  0.33717468  1.0
  In  In354  1  0.35335612  0.18223155  0.33717468  1.0
  In  In355  1  0.35335612  0.51556488  0.33717468  1.0
  In  In356  1  0.35335612  0.84889821  0.33717468  1.0
  In  In357  1  0.68668945  0.18223155  0.33717468  1.0
  In  In358  1  0.68668945  0.51556488  0.33717468  1.0
  In  In359  1  0.68668945  0.84889821  0.33717468  1.0
  In  In360  1  0.15360245  0.24349255  0.39652868  1.0
  In  In361  1  0.15360245  0.57682588  0.39652868  1.0
  In  In362  1  0.15360245  0.91015921  0.39652868  1.0
  In  In363  1  0.48693579  0.24349255  0.39652868  1.0
  In  In364  1  0.48693579  0.57682588  0.39652868  1.0
  In  In365  1  0.48693579  0.91015921  0.39652868  1.0
  In  In366  1  0.82026912  0.24349255  0.39652868  1.0
  In  In367  1  0.82026912  0.57682588  0.39652868  1.0
  In  In368  1  0.82026912  0.91015921  0.39652868  1.0
  In  In369  1  0.10598340  0.12444493  0.32510011  1.0
  In  In370  1  0.10598340  0.45777826  0.32510011  1.0
  In  In371  1  0.10598340  0.79111160  0.32510011  1.0
  In  In372  1  0.43931674  0.12444493  0.32510011  1.0
  In  In373  1  0.43931674  0.45777826  0.32510011  1.0
  In  In374  1  0.43931674  0.79111160  0.32510011  1.0
  In  In375  1  0.77265007  0.12444493  0.32510011  1.0
  In  In376  1  0.77265007  0.45777826  0.32510011  1.0
  In  In377  1  0.77265007  0.79111160  0.32510011  1.0
  In  In378  1  0.32131693  0.23853090  0.38692089  1.0
  In  In379  1  0.32131693  0.57186424  0.38692089  1.0
  In  In380  1  0.32131693  0.90519757  0.38692089  1.0
  In  In381  1  0.65465026  0.23853090  0.38692089  1.0
  In  In382  1  0.65465026  0.57186424  0.38692089  1.0
  In  In383  1  0.65465026  0.90519757  0.38692089  1.0
  In  In384  1  0.98798360  0.23853090  0.38692089  1.0
  In  In385  1  0.98798360  0.57186424  0.38692089  1.0
  In  In386  1  0.98798360  0.90519757  0.38692089  1.0
  In  In387  1  0.27369788  0.11948329  0.31549232  1.0
  In  In388  1  0.27369788  0.45281662  0.31549232  1.0
  In  In389  1  0.27369788  0.78614995  0.31549232  1.0
  In  In390  1  0.60703121  0.11948329  0.31549232  1.0
  In  In391  1  0.60703121  0.45281662  0.31549232  1.0
  In  In392  1  0.60703121  0.78614995  0.31549232  1.0
  In  In393  1  0.94036455  0.11948329  0.31549232  1.0
  In  In394  1  0.94036455  0.45281662  0.31549232  1.0
  In  In395  1  0.94036455  0.78614995  0.31549232  1.0
  In  In396  1  0.31629960  0.28660540  0.30832439  1.0
  In  In397  1  0.31629960  0.61993874  0.30832439  1.0
  In  In398  1  0.31629960  0.95327207  0.30832439  1.0
  In  In399  1  0.64963293  0.28660540  0.30832439  1.0
  In  In400  1  0.64963293  0.61993874  0.30832439  1.0
  In  In401  1  0.64963293  0.95327207  0.30832439  1.0
  In  In402  1  0.98296626  0.28660540  0.30832439  1.0
  In  In403  1  0.98296626  0.61993874  0.30832439  1.0
  In  In404  1  0.98296626  0.95327207  0.30832439  1.0
  In  In405  1  0.03058531  0.07231969  0.37975296  1.0
  In  In406  1  0.03058531  0.40565302  0.37975296  1.0
  In  In407  1  0.03058531  0.73898636  0.37975296  1.0
  In  In408  1  0.36391864  0.07231969  0.37975296  1.0
  In  In409  1  0.36391864  0.40565302  0.37975296  1.0
  In  In410  1  0.36391864  0.73898636  0.37975296  1.0
  In  In411  1  0.69725198  0.07231969  0.37975296  1.0
  In  In412  1  0.69725198  0.40565302  0.37975296  1.0
  In  In413  1  0.69725198  0.73898636  0.37975296  1.0
  In  In414  1  0.25876055  0.15790612  0.38814082  1.0
  In  In415  1  0.25876055  0.49123945  0.38814082  1.0
  In  In416  1  0.25876055  0.82457279  0.38814082  1.0
  In  In417  1  0.59209388  0.15790612  0.38814082  1.0
  In  In418  1  0.59209388  0.49123945  0.38814082  1.0
  In  In419  1  0.59209388  0.82457279  0.38814082  1.0
  In  In420  1  0.92542721  0.15790612  0.38814082  1.0
  In  In421  1  0.92542721  0.49123945  0.38814082  1.0
  In  In422  1  0.92542721  0.82457279  0.38814082  1.0
  In  In423  1  0.21114150  0.03885850  0.31671225  1.0
  In  In424  1  0.21114150  0.37219183  0.31671225  1.0
  In  In425  1  0.21114150  0.70552517  0.31671225  1.0
  In  In426  1  0.54447483  0.03885850  0.31671225  1.0
  In  In427  1  0.54447483  0.37219183  0.31671225  1.0
  In  In428  1  0.54447483  0.70552517  0.31671225  1.0
  In  In429  1  0.87780817  0.03885850  0.31671225  1.0
  In  In430  1  0.87780817  0.37219183  0.31671225  1.0
  In  In431  1  0.87780817  0.70552517  0.31671225  1.0
  In  In432  1  0.16110950  0.18254333  0.33671875  1.0
  In  In433  1  0.16110950  0.51587667  0.33671875  1.0
  In  In434  1  0.16110950  0.84921000  0.33671875  1.0
  In  In435  1  0.49444283  0.18254333  0.33671875  1.0
  In  In436  1  0.49444283  0.51587667  0.33671875  1.0
  In  In437  1  0.49444283  0.84921000  0.33671875  1.0
  In  In438  1  0.82777617  0.18254333  0.33671875  1.0
  In  In439  1  0.82777617  0.51587667  0.33671875  1.0
  In  In440  1  0.82777617  0.84921000  0.33671875  1.0
  In  In441  1  0.20872855  0.30159095  0.40814732  1.0
  In  In442  1  0.20872855  0.63492429  0.40814732  1.0
  In  In443  1  0.20872855  0.96825762  0.40814732  1.0
  In  In444  1  0.54206188  0.30159095  0.40814732  1.0
  In  In445  1  0.54206188  0.63492429  0.40814732  1.0
  In  In446  1  0.54206188  0.96825762  0.40814732  1.0
  In  In447  1  0.87539521  0.30159095  0.40814732  1.0
  In  In448  1  0.87539521  0.63492429  0.40814732  1.0
  In  In449  1  0.87539521  0.96825762  0.40814732  1.0
  In  In450  1  0.14858512  0.29156705  0.31793218  1.0
  In  In451  1  0.14858512  0.62490038  0.31793218  1.0
  In  In452  1  0.14858512  0.95823371  0.31793218  1.0
  In  In453  1  0.48191845  0.29156705  0.31793218  1.0
  In  In454  1  0.48191845  0.62490038  0.31793218  1.0
  In  In455  1  0.48191845  0.95823371  0.31793218  1.0
  In  In456  1  0.81525179  0.29156705  0.31793218  1.0
  In  In457  1  0.81525179  0.62490038  0.31793218  1.0
  In  In458  1  0.81525179  0.95823371  0.31793218  1.0
  In  In459  1  0.19620417  0.07728133  0.38936075  1.0
  In  In460  1  0.19620417  0.41061467  0.38936075  1.0
  In  In461  1  0.19620417  0.74394800  0.38936075  1.0
  In  In462  1  0.52953750  0.07728133  0.38936075  1.0
  In  In463  1  0.52953750  0.41061467  0.38936075  1.0
  In  In464  1  0.52953750  0.74394800  0.38936075  1.0
  In  In465  1  0.86287083  0.07728133  0.38936075  1.0
  In  In466  1  0.86287083  0.41061467  0.38936075  1.0
  In  In467  1  0.86287083  0.74394800  0.38936075  1.0
  In  In468  1  0.06892688  0.22881879  0.29624982  1.0
  In  In469  1  0.06892688  0.56215212  0.29624982  1.0
  In  In470  1  0.06892688  0.89548545  0.29624982  1.0
  In  In471  1  0.40226021  0.22881879  0.29624982  1.0
  In  In472  1  0.40226021  0.56215212  0.29624982  1.0
  In  In473  1  0.40226021  0.89548545  0.29624982  1.0
  In  In474  1  0.73559355  0.22881879  0.29624982  1.0
  In  In475  1  0.73559355  0.56215212  0.29624982  1.0
  In  In476  1  0.73559355  0.89548545  0.29624982  1.0
  In  In477  1  0.11654593  0.01453307  0.36767839  1.0
  In  In478  1  0.11654593  0.34786640  0.36767839  1.0
  In  In479  1  0.11654593  0.68119974  0.36767839  1.0
  In  In480  1  0.44987926  0.01453307  0.36767839  1.0
  In  In481  1  0.44987926  0.34786640  0.36767839  1.0
  In  In482  1  0.44987926  0.68119974  0.36767839  1.0
  In  In483  1  0.78321260  0.01453307  0.36767839  1.0
  In  In484  1  0.78321260  0.34786640  0.36767839  1.0
  In  In485  1  0.78321260  0.68119974  0.36767839  1.0
  Ni  Ni486  1  0.11775788  0.15110012  0.09704582  1.0
  Ni  Ni487  1  0.11775788  0.48443345  0.09704582  1.0
  Ni  Ni488  1  0.11775788  0.81776679  0.09704582  1.0
  Ni  Ni489  1  0.45109121  0.15110012  0.09704582  1.0
  Ni  Ni490  1  0.45109121  0.48443345  0.09704582  1.0
  Ni  Ni491  1  0.45109121  0.81776679  0.09704582  1.0
  Ni  Ni492  1  0.78442455  0.15110012  0.09704582  1.0
  Ni  Ni493  1  0.78442455  0.48443345  0.09704582  1.0
  Ni  Ni494  1  0.78442455  0.81776679  0.09704582  1.0
  Ni  Ni495  1  0.07013883  0.03205250  0.02561725  1.0
  Ni  Ni496  1  0.07013883  0.36538583  0.02561725  1.0
  Ni  Ni497  1  0.07013883  0.69871917  0.02561725  1.0
  Ni  Ni498  1  0.40347217  0.03205250  0.02561725  1.0
  Ni  Ni499  1  0.40347217  0.36538583  0.02561725  1.0
  Ni  Ni500  1  0.40347217  0.69871917  0.02561725  1.0
  Ni  Ni501  1  0.73680550  0.03205250  0.02561725  1.0
  Ni  Ni502  1  0.73680550  0.36538583  0.02561725  1.0
  Ni  Ni503  1  0.73680550  0.69871917  0.02561725  1.0
  Ni  Ni504  1  0.21114150  0.12219183  0.06671225  1.0
  Ni  Ni505  1  0.21114150  0.45552517  0.06671225  1.0
  Ni  Ni506  1  0.21114150  0.78885850  0.06671225  1.0
  Ni  Ni507  1  0.54447483  0.12219183  0.06671225  1.0
  Ni  Ni508  1  0.54447483  0.45552517  0.06671225  1.0
  Ni  Ni509  1  0.54447483  0.78885850  0.06671225  1.0
  Ni  Ni510  1  0.87780817  0.12219183  0.06671225  1.0
  Ni  Ni511  1  0.87780817  0.45552517  0.06671225  1.0
  Ni  Ni512  1  0.87780817  0.78885850  0.06671225  1.0
  Ni  Ni513  1  0.25876055  0.24123945  0.13814082  1.0
  Ni  Ni514  1  0.25876055  0.57457279  0.13814082  1.0
  Ni  Ni515  1  0.25876055  0.90790612  0.13814082  1.0
  Ni  Ni516  1  0.59209388  0.24123945  0.13814082  1.0
  Ni  Ni517  1  0.59209388  0.57457279  0.13814082  1.0
  Ni  Ni518  1  0.59209388  0.90790612  0.13814082  1.0
  Ni  Ni519  1  0.92542721  0.24123945  0.13814082  1.0
  Ni  Ni520  1  0.92542721  0.57457279  0.13814082  1.0
  Ni  Ni521  1  0.92542721  0.90790612  0.13814082  1.0
  Ni  Ni522  1  0.31148779  0.04391221  0.12868368  1.0
  Ni  Ni523  1  0.31148779  0.37724555  0.12868368  1.0
  Ni  Ni524  1  0.31148779  0.71057888  0.12868368  1.0
  Ni  Ni525  1  0.64482112  0.04391221  0.12868368  1.0
  Ni  Ni526  1  0.64482112  0.37724555  0.12868368  1.0
  Ni  Ni527  1  0.64482112  0.71057888  0.12868368  1.0
  Ni  Ni528  1  0.97815445  0.04391221  0.12868368  1.0
  Ni  Ni529  1  0.97815445  0.37724555  0.12868368  1.0
  Ni  Ni530  1  0.97815445  0.71057888  0.12868368  1.0
  Ni  Ni531  1  0.26386874  0.25819793  0.05725511  1.0
  Ni  Ni532  1  0.26386874  0.59153126  0.05725511  1.0
  Ni  Ni533  1  0.26386874  0.92486460  0.05725511  1.0
  Ni  Ni534  1  0.59720207  0.25819793  0.05725511  1.0
  Ni  Ni535  1  0.59720207  0.59153126  0.05725511  1.0
  Ni  Ni536  1  0.59720207  0.92486460  0.05725511  1.0
  Ni  Ni537  1  0.93053540  0.25819793  0.05725511  1.0
  Ni  Ni538  1  0.93053540  0.59153126  0.05725511  1.0
  Ni  Ni539  1  0.93053540  0.92486460  0.05725511  1.0
  Ni  Ni540  1  0.09124707  0.25779276  0.05727961  1.0
  Ni  Ni541  1  0.09124707  0.59112610  0.05727961  1.0
  Ni  Ni542  1  0.09124707  0.92445943  0.05727961  1.0
  Ni  Ni543  1  0.42458040  0.25779276  0.05727961  1.0
  Ni  Ni544  1  0.42458040  0.59112610  0.05727961  1.0
  Ni  Ni545  1  0.42458040  0.92445943  0.05727961  1.0
  Ni  Ni546  1  0.75791374  0.25779276  0.05727961  1.0
  Ni  Ni547  1  0.75791374  0.59112610  0.05727961  1.0
  Ni  Ni548  1  0.75791374  0.92445943  0.05727961  1.0
  Ni  Ni549  1  0.13886612  0.04350705  0.12870818  1.0
  Ni  Ni550  1  0.13886612  0.37684038  0.12870818  1.0
  Ni  Ni551  1  0.13886612  0.71017371  0.12870818  1.0
  Ni  Ni552  1  0.47219945  0.04350705  0.12870818  1.0
  Ni  Ni553  1  0.47219945  0.37684038  0.12870818  1.0
  Ni  Ni554  1  0.47219945  0.71017371  0.12870818  1.0
  Ni  Ni555  1  0.80553279  0.04350705  0.12870818  1.0
  Ni  Ni556  1  0.80553279  0.37684038  0.12870818  1.0
  Ni  Ni557  1  0.80553279  0.71017371  0.12870818  1.0
  Ni  Ni558  1  0.11079521  0.20047145  0.00474082  1.0
  Ni  Ni559  1  0.11079521  0.53380479  0.00474082  1.0
  Ni  Ni560  1  0.11079521  0.86713812  0.00474082  1.0
  Ni  Ni561  1  0.44412855  0.20047145  0.00474082  1.0
  Ni  Ni562  1  0.44412855  0.53380479  0.00474082  1.0
  Ni  Ni563  1  0.44412855  0.86713812  0.00474082  1.0
  Ni  Ni564  1  0.77746188  0.20047145  0.00474082  1.0
  Ni  Ni565  1  0.77746188  0.53380479  0.00474082  1.0
  Ni  Ni566  1  0.77746188  0.86713812  0.00474082  1.0
  Ni  Ni567  1  0.15841426  0.31951907  0.07616939  1.0
  Ni  Ni568  1  0.15841426  0.65285240  0.07616939  1.0
  Ni  Ni569  1  0.15841426  0.98618574  0.07616939  1.0
  Ni  Ni570  1  0.49174760  0.31951907  0.07616939  1.0
  Ni  Ni571  1  0.49174760  0.65285240  0.07616939  1.0
  Ni  Ni572  1  0.49174760  0.98618574  0.07616939  1.0
  Ni  Ni573  1  0.82508093  0.31951907  0.07616939  1.0
  Ni  Ni574  1  0.82508093  0.65285240  0.07616939  1.0
  Ni  Ni575  1  0.82508093  0.98618574  0.07616939  1.0
  Ni  Ni576  1  0.19689188  0.17537245  0.04533782  1.0
  Ni  Ni577  1  0.19689188  0.50870579  0.04533782  1.0
  Ni  Ni578  1  0.19689188  0.84203912  0.04533782  1.0
  Ni  Ni579  1  0.53022521  0.17537245  0.04533782  1.0
  Ni  Ni580  1  0.53022521  0.50870579  0.04533782  1.0
  Ni  Ni581  1  0.53022521  0.84203912  0.04533782  1.0
  Ni  Ni582  1  0.86355855  0.17537245  0.04533782  1.0
  Ni  Ni583  1  0.86355855  0.50870579  0.04533782  1.0
  Ni  Ni584  1  0.86355855  0.84203912  0.04533782  1.0
  Ni  Ni585  1  0.24451093  0.29442007  0.11676639  1.0
  Ni  Ni586  1  0.24451093  0.62775340  0.11676639  1.0
  Ni  Ni587  1  0.24451093  0.96108674  0.11676639  1.0
  Ni  Ni588  1  0.57784426  0.29442007  0.11676639  1.0
  Ni  Ni589  1  0.57784426  0.62775340  0.11676639  1.0
  Ni  Ni590  1  0.57784426  0.96108674  0.11676639  1.0
  Ni  Ni591  1  0.91117760  0.29442007  0.11676639  1.0
  Ni  Ni592  1  0.91117760  0.62775340  0.11676639  1.0
  Ni  Ni593  1  0.91117760  0.96108674  0.11676639  1.0
  Ni  Ni594  1  0.05093974  0.06920760  0.08664911  1.0
  Ni  Ni595  1  0.05093974  0.40254093  0.08664911  1.0
  Ni  Ni596  1  0.05093974  0.73587426  0.08664911  1.0
  Ni  Ni597  1  0.38427307  0.06920760  0.08664911  1.0
  Ni  Ni598  1  0.38427307  0.40254093  0.08664911  1.0
  Ni  Ni599  1  0.38427307  0.73587426  0.08664911  1.0
  Ni  Ni600  1  0.71760640  0.06920760  0.08664911  1.0
  Ni  Ni601  1  0.71760640  0.40254093  0.08664911  1.0
  Ni  Ni602  1  0.71760640  0.73587426  0.08664911  1.0
  Ni  Ni603  1  0.00332069  0.28349331  0.01522054  1.0
  Ni  Ni604  1  0.00332069  0.61682664  0.01522054  1.0
  Ni  Ni605  1  0.00332069  0.95015998  0.01522054  1.0
  Ni  Ni606  1  0.33665402  0.28349331  0.01522054  1.0
  Ni  Ni607  1  0.33665402  0.61682664  0.01522054  1.0
  Ni  Ni608  1  0.33665402  0.95015998  0.01522054  1.0
  Ni  Ni609  1  0.66998736  0.28349331  0.01522054  1.0
  Ni  Ni610  1  0.66998736  0.61682664  0.01522054  1.0
  Ni  Ni611  1  0.66998736  0.95015998  0.01522054  1.0
  Ni  Ni612  1  0.33103593  0.31992424  0.07614489  1.0
  Ni  Ni613  1  0.33103593  0.65325757  0.07614489  1.0
  Ni  Ni614  1  0.33103593  0.98659090  0.07614489  1.0
  Ni  Ni615  1  0.66436926  0.31992424  0.07614489  1.0
  Ni  Ni616  1  0.66436926  0.65325757  0.07614489  1.0
  Ni  Ni617  1  0.66436926  0.98659090  0.07614489  1.0
  Ni  Ni618  1  0.99770260  0.31992424  0.07614489  1.0
  Ni  Ni619  1  0.99770260  0.65325757  0.07614489  1.0
  Ni  Ni620  1  0.99770260  0.98659090  0.07614489  1.0
  Ni  Ni621  1  0.28341688  0.20087662  0.00471632  1.0
  Ni  Ni622  1  0.28341688  0.53420995  0.00471632  1.0
  Ni  Ni623  1  0.28341688  0.86754329  0.00471632  1.0
  Ni  Ni624  1  0.61675021  0.20087662  0.00471632  1.0
  Ni  Ni625  1  0.61675021  0.53420995  0.00471632  1.0
  Ni  Ni626  1  0.61675021  0.86754329  0.00471632  1.0
  Ni  Ni627  1  0.95008355  0.20087662  0.00471632  1.0
  Ni  Ni628  1  0.95008355  0.53420995  0.00471632  1.0
  Ni  Ni629  1  0.95008355  0.86754329  0.00471632  1.0
  Ni  Ni630  1  0.03800993  0.17517607  0.04677539  1.0
  Ni  Ni631  1  0.03800993  0.50850940  0.04677539  1.0
  Ni  Ni632  1  0.03800993  0.84184274  0.04677539  1.0
  Ni  Ni633  1  0.37134326  0.17517607  0.04677539  1.0
  Ni  Ni634  1  0.37134326  0.50850940  0.04677539  1.0
  Ni  Ni635  1  0.37134326  0.84184274  0.04677539  1.0
  Ni  Ni636  1  0.70467660  0.17517607  0.04677539  1.0
  Ni  Ni637  1  0.70467660  0.50850940  0.04677539  1.0
  Ni  Ni638  1  0.70467660  0.84184274  0.04677539  1.0
  Ni  Ni639  1  0.08562898  0.29422369  0.11820396  1.0
  Ni  Ni640  1  0.08562898  0.62755702  0.11820396  1.0
  Ni  Ni641  1  0.08562898  0.96089036  0.11820396  1.0
  Ni  Ni642  1  0.41896231  0.29422369  0.11820396  1.0
  Ni  Ni643  1  0.41896231  0.62755702  0.11820396  1.0
  Ni  Ni644  1  0.41896231  0.96089036  0.11820396  1.0
  Ni  Ni645  1  0.75229564  0.29422369  0.11820396  1.0
  Ni  Ni646  1  0.75229564  0.62755702  0.11820396  1.0
  Ni  Ni647  1  0.75229564  0.96089036  0.11820396  1.0
  Ni  Ni648  1  0.30452512  0.09328355  0.03637868  1.0
  Ni  Ni649  1  0.30452512  0.42661688  0.03637868  1.0
  Ni  Ni650  1  0.30452512  0.75995021  0.03637868  1.0
  Ni  Ni651  1  0.63785845  0.09328355  0.03637868  1.0
  Ni  Ni652  1  0.63785845  0.42661688  0.03637868  1.0
  Ni  Ni653  1  0.63785845  0.75995021  0.03637868  1.0
  Ni  Ni654  1  0.97119179  0.09328355  0.03637868  1.0
  Ni  Ni655  1  0.97119179  0.42661688  0.03637868  1.0
  Ni  Ni656  1  0.97119179  0.75995021  0.03637868  1.0
  Ni  Ni657  1  0.01881083  0.21233117  0.10780725  1.0
  Ni  Ni658  1  0.01881083  0.54566450  0.10780725  1.0
  Ni  Ni659  1  0.01881083  0.87899783  0.10780725  1.0
  Ni  Ni660  1  0.35214417  0.21233117  0.10780725  1.0
  Ni  Ni661  1  0.35214417  0.54566450  0.10780725  1.0
  Ni  Ni662  1  0.35214417  0.87899783  0.10780725  1.0
  Ni  Ni663  1  0.68547750  0.21233117  0.10780725  1.0
  Ni  Ni664  1  0.68547750  0.54566450  0.10780725  1.0
  Ni  Ni665  1  0.68547750  0.87899783  0.10780725  1.0
  Ni  Ni666  1  0.22539112  0.06901121  0.08808668  1.0
  Ni  Ni667  1  0.22539112  0.40234455  0.08808668  1.0
  Ni  Ni668  1  0.22539112  0.73567788  0.08808668  1.0
  Ni  Ni669  1  0.55872445  0.06901121  0.08808668  1.0
  Ni  Ni670  1  0.55872445  0.40234455  0.08808668  1.0
  Ni  Ni671  1  0.55872445  0.73567788  0.08808668  1.0
  Ni  Ni672  1  0.89205779  0.06901121  0.08808668  1.0
  Ni  Ni673  1  0.89205779  0.40234455  0.08808668  1.0
  Ni  Ni674  1  0.89205779  0.73567788  0.08808668  1.0
  Ni  Ni675  1  0.17777207  0.28329693  0.01665811  1.0
  Ni  Ni676  1  0.17777207  0.61663026  0.01665811  1.0
  Ni  Ni677  1  0.17777207  0.94996360  0.01665811  1.0
  Ni  Ni678  1  0.51110540  0.28329693  0.01665811  1.0
  Ni  Ni679  1  0.51110540  0.61663026  0.01665811  1.0
  Ni  Ni680  1  0.51110540  0.94996360  0.01665811  1.0
  Ni  Ni681  1  0.84443874  0.28329693  0.01665811  1.0
  Ni  Ni682  1  0.84443874  0.61663026  0.01665811  1.0
  Ni  Ni683  1  0.84443874  0.94996360  0.01665811  1.0
  Ni  Ni684  1  0.09209388  0.24123945  0.13814082  1.0
  Ni  Ni685  1  0.09209388  0.57457279  0.13814082  1.0
  Ni  Ni686  1  0.09209388  0.90790612  0.13814082  1.0
  Ni  Ni687  1  0.42542721  0.24123945  0.13814082  1.0
  Ni  Ni688  1  0.42542721  0.57457279  0.13814082  1.0
  Ni  Ni689  1  0.42542721  0.90790612  0.13814082  1.0
  Ni  Ni690  1  0.75876055  0.24123945  0.13814082  1.0
  Ni  Ni691  1  0.75876055  0.57457279  0.13814082  1.0
  Ni  Ni692  1  0.75876055  0.90790612  0.13814082  1.0
  Ni  Ni693  1  0.04447483  0.12219183  0.06671225  1.0
  Ni  Ni694  1  0.04447483  0.45552517  0.06671225  1.0
  Ni  Ni695  1  0.04447483  0.78885850  0.06671225  1.0
  Ni  Ni696  1  0.37780817  0.12219183  0.06671225  1.0
  Ni  Ni697  1  0.37780817  0.45552517  0.06671225  1.0
  Ni  Ni698  1  0.37780817  0.78885850  0.06671225  1.0
  Ni  Ni699  1  0.71114150  0.12219183  0.06671225  1.0
  Ni  Ni700  1  0.71114150  0.45552517  0.06671225  1.0
  Ni  Ni701  1  0.71114150  0.78885850  0.06671225  1.0
  Ni  Ni702  1  0.23495102  0.01504898  0.10242654  1.0
  Ni  Ni703  1  0.23495102  0.34838231  0.10242654  1.0
  Ni  Ni704  1  0.23495102  0.68171564  0.10242654  1.0
  Ni  Ni705  1  0.56828436  0.01504898  0.10242654  1.0
  Ni  Ni706  1  0.56828436  0.34838231  0.10242654  1.0
  Ni  Ni707  1  0.56828436  0.68171564  0.10242654  1.0
  Ni  Ni708  1  0.90161769  0.01504898  0.10242654  1.0
  Ni  Ni709  1  0.90161769  0.34838231  0.10242654  1.0
  Ni  Ni710  1  0.90161769  0.68171564  0.10242654  1.0
  Ni  Ni711  1  0.18733198  0.22933469  0.03099796  1.0
  Ni  Ni712  1  0.18733198  0.56266802  0.03099796  1.0
  Ni  Ni713  1  0.18733198  0.89600136  0.03099796  1.0
  Ni  Ni714  1  0.52066531  0.22933469  0.03099796  1.0
  Ni  Ni715  1  0.52066531  0.56266802  0.03099796  1.0
  Ni  Ni716  1  0.52066531  0.89600136  0.03099796  1.0
  Ni  Ni717  1  0.85399864  0.22933469  0.03099796  1.0
  Ni  Ni718  1  0.85399864  0.56266802  0.03099796  1.0
  Ni  Ni719  1  0.85399864  0.89600136  0.03099796  1.0
  Ni  Ni720  1  0.21299598  0.05586202  0.23990296  1.0
  Ni  Ni721  1  0.21299598  0.38919536  0.23990296  1.0
  Ni  Ni722  1  0.21299598  0.72252869  0.23990296  1.0
  Ni  Ni723  1  0.54632931  0.05586202  0.23990296  1.0
  Ni  Ni724  1  0.54632931  0.38919536  0.23990296  1.0
  Ni  Ni725  1  0.54632931  0.72252869  0.23990296  1.0
  Ni  Ni726  1  0.87966264  0.05586202  0.23990296  1.0
  Ni  Ni727  1  0.87966264  0.38919536  0.23990296  1.0
  Ni  Ni728  1  0.87966264  0.72252869  0.23990296  1.0
  Ni  Ni729  1  0.16537693  0.27014774  0.16847439  1.0
  Ni  Ni730  1  0.16537693  0.60348107  0.16847439  1.0
  Ni  Ni731  1  0.16537693  0.93681440  0.16847439  1.0
  Ni  Ni732  1  0.49871026  0.27014774  0.16847439  1.0
  Ni  Ni733  1  0.49871026  0.60348107  0.16847439  1.0
  Ni  Ni734  1  0.49871026  0.93681440  0.16847439  1.0
  Ni  Ni735  1  0.83204360  0.27014774  0.16847439  1.0
  Ni  Ni736  1  0.83204360  0.60348107  0.16847439  1.0
  Ni  Ni737  1  0.83204360  0.93681440  0.16847439  1.0
  Ni  Ni738  1  0.30637960  0.02695374  0.20956939  1.0
  Ni  Ni739  1  0.30637960  0.36028707  0.20956939  1.0
  Ni  Ni740  1  0.30637960  0.69362040  0.20956939  1.0
  Ni  Ni741  1  0.63971293  0.02695374  0.20956939  1.0
  Ni  Ni742  1  0.63971293  0.36028707  0.20956939  1.0
  Ni  Ni743  1  0.63971293  0.69362040  0.20956939  1.0
  Ni  Ni744  1  0.97304626  0.02695374  0.20956939  1.0
  Ni  Ni745  1  0.97304626  0.36028707  0.20956939  1.0
  Ni  Ni746  1  0.97304626  0.69362040  0.20956939  1.0
  Ni  Ni747  1  0.02066531  0.14600136  0.28099796  1.0
  Ni  Ni748  1  0.02066531  0.47933469  0.28099796  1.0
  Ni  Ni749  1  0.02066531  0.81266802  0.28099796  1.0
  Ni  Ni750  1  0.35399864  0.14600136  0.28099796  1.0
  Ni  Ni751  1  0.35399864  0.47933469  0.28099796  1.0
  Ni  Ni752  1  0.35399864  0.81266802  0.28099796  1.0
  Ni  Ni753  1  0.68733198  0.14600136  0.28099796  1.0
  Ni  Ni754  1  0.68733198  0.47933469  0.28099796  1.0
  Ni  Ni755  1  0.68733198  0.81266802  0.28099796  1.0
  Ni  Ni756  1  0.07339255  0.28200745  0.27154082  1.0
  Ni  Ni757  1  0.07339255  0.61534079  0.27154082  1.0
  Ni  Ni758  1  0.07339255  0.94867412  0.27154082  1.0
  Ni  Ni759  1  0.40672588  0.28200745  0.27154082  1.0
  Ni  Ni760  1  0.40672588  0.61534079  0.27154082  1.0
  Ni  Ni761  1  0.40672588  0.94867412  0.27154082  1.0
  Ni  Ni762  1  0.74005921  0.28200745  0.27154082  1.0
  Ni  Ni763  1  0.74005921  0.61534079  0.27154082  1.0
  Ni  Ni764  1  0.74005921  0.94867412  0.27154082  1.0
  Ni  Ni765  1  0.02577350  0.16295983  0.20011225  1.0
  Ni  Ni766  1  0.02577350  0.49629317  0.20011225  1.0
  Ni  Ni767  1  0.02577350  0.82962650  0.20011225  1.0
  Ni  Ni768  1  0.35910683  0.16295983  0.20011225  1.0
  Ni  Ni769  1  0.35910683  0.49629317  0.20011225  1.0
  Ni  Ni770  1  0.35910683  0.82962650  0.20011225  1.0
  Ni  Ni771  1  0.69244017  0.16295983  0.20011225  1.0
  Ni  Ni772  1  0.69244017  0.49629317  0.20011225  1.0
  Ni  Ni773  1  0.69244017  0.82962650  0.20011225  1.0
  Ni  Ni774  1  0.18648517  0.16255467  0.20013675  1.0
  Ni  Ni775  1  0.18648517  0.49588800  0.20013675  1.0
  Ni  Ni776  1  0.18648517  0.82922133  0.20013675  1.0
  Ni  Ni777  1  0.51981850  0.16255467  0.20013675  1.0
  Ni  Ni778  1  0.51981850  0.49588800  0.20013675  1.0
  Ni  Ni779  1  0.51981850  0.82922133  0.20013675  1.0
  Ni  Ni780  1  0.85315183  0.16255467  0.20013675  1.0
  Ni  Ni781  1  0.85315183  0.49588800  0.20013675  1.0
  Ni  Ni782  1  0.85315183  0.82922133  0.20013675  1.0
  Ni  Ni783  1  0.23410421  0.28160229  0.27156532  1.0
  Ni  Ni784  1  0.23410421  0.61493562  0.27156532  1.0
  Ni  Ni785  1  0.23410421  0.94826895  0.27156532  1.0
  Ni  Ni786  1  0.56743755  0.28160229  0.27156532  1.0
  Ni  Ni787  1  0.56743755  0.61493562  0.27156532  1.0
  Ni  Ni788  1  0.56743755  0.94826895  0.27156532  1.0
  Ni  Ni789  1  0.90077088  0.28160229  0.27156532  1.0
  Ni  Ni790  1  0.90077088  0.61493562  0.27156532  1.0
  Ni  Ni791  1  0.90077088  0.94826895  0.27156532  1.0
  Ni  Ni792  1  0.20603331  0.10523336  0.14759796  1.0
  Ni  Ni793  1  0.20603331  0.43856669  0.14759796  1.0
  Ni  Ni794  1  0.20603331  0.77190002  0.14759796  1.0
  Ni  Ni795  1  0.53936664  0.10523336  0.14759796  1.0
  Ni  Ni796  1  0.53936664  0.43856669  0.14759796  1.0
  Ni  Ni797  1  0.53936664  0.77190002  0.14759796  1.0
  Ni  Ni798  1  0.87269998  0.10523336  0.14759796  1.0
  Ni  Ni799  1  0.87269998  0.43856669  0.14759796  1.0
  Ni  Ni800  1  0.87269998  0.77190002  0.14759796  1.0
  Ni  Ni801  1  0.25365236  0.22428098  0.21902654  1.0
  Ni  Ni802  1  0.25365236  0.55761431  0.21902654  1.0
  Ni  Ni803  1  0.25365236  0.89094764  0.21902654  1.0
  Ni  Ni804  1  0.58698569  0.22428098  0.21902654  1.0
  Ni  Ni805  1  0.58698569  0.55761431  0.21902654  1.0
  Ni  Ni806  1  0.58698569  0.89094764  0.21902654  1.0
  Ni  Ni807  1  0.92031902  0.22428098  0.21902654  1.0
  Ni  Ni808  1  0.92031902  0.55761431  0.21902654  1.0
  Ni  Ni809  1  0.92031902  0.89094764  0.21902654  1.0
  Ni  Ni810  1  0.29212998  0.08013436  0.18819496  1.0
  Ni  Ni811  1  0.29212998  0.41346769  0.18819496  1.0
  Ni  Ni812  1  0.29212998  0.74680102  0.18819496  1.0
  Ni  Ni813  1  0.62546331  0.08013436  0.18819496  1.0
  Ni  Ni814  1  0.62546331  0.41346769  0.18819496  1.0
  Ni  Ni815  1  0.62546331  0.74680102  0.18819496  1.0
  Ni  Ni816  1  0.95879664  0.08013436  0.18819496  1.0
  Ni  Ni817  1  0.95879664  0.41346769  0.18819496  1.0
  Ni  Ni818  1  0.95879664  0.74680102  0.18819496  1.0
  Ni  Ni819  1  0.00641569  0.19918198  0.25962354  1.0
  Ni  Ni820  1  0.00641569  0.53251531  0.25962354  1.0
  Ni  Ni821  1  0.00641569  0.86584864  0.25962354  1.0
  Ni  Ni822  1  0.33974902  0.19918198  0.25962354  1.0
  Ni  Ni823  1  0.33974902  0.53251531  0.25962354  1.0
  Ni  Ni824  1  0.33974902  0.86584864  0.25962354  1.0
  Ni  Ni825  1  0.67308236  0.19918198  0.25962354  1.0
  Ni  Ni826  1  0.67308236  0.53251531  0.25962354  1.0
  Ni  Ni827  1  0.67308236  0.86584864  0.25962354  1.0
  Ni  Ni828  1  0.14617783  0.30730283  0.22950625  1.0
  Ni  Ni829  1  0.14617783  0.64063617  0.22950625  1.0
  Ni  Ni830  1  0.14617783  0.97396950  0.22950625  1.0
  Ni  Ni831  1  0.47951117  0.30730283  0.22950625  1.0
  Ni  Ni832  1  0.47951117  0.64063617  0.22950625  1.0
  Ni  Ni833  1  0.47951117  0.97396950  0.22950625  1.0
  Ni  Ni834  1  0.81284450  0.30730283  0.22950625  1.0
  Ni  Ni835  1  0.81284450  0.64063617  0.22950625  1.0
  Ni  Ni836  1  0.81284450  0.97396950  0.22950625  1.0
  Ni  Ni837  1  0.09855879  0.18825521  0.15807768  1.0
  Ni  Ni838  1  0.09855879  0.52158855  0.15807768  1.0
  Ni  Ni839  1  0.09855879  0.85492188  0.15807768  1.0
  Ni  Ni840  1  0.43189212  0.18825521  0.15807768  1.0
  Ni  Ni841  1  0.43189212  0.52158855  0.15807768  1.0
  Ni  Ni842  1  0.43189212  0.85492188  0.15807768  1.0
  Ni  Ni843  1  0.76522545  0.18825521  0.15807768  1.0
  Ni  Ni844  1  0.76522545  0.52158855  0.15807768  1.0
  Ni  Ni845  1  0.76522545  0.85492188  0.15807768  1.0
  Ni  Ni846  1  0.09294069  0.22468614  0.21900204  1.0
  Ni  Ni847  1  0.09294069  0.55801948  0.21900204  1.0
  Ni  Ni848  1  0.09294069  0.89135281  0.21900204  1.0
  Ni  Ni849  1  0.42627402  0.22468614  0.21900204  1.0
  Ni  Ni850  1  0.42627402  0.55801948  0.21900204  1.0
  Ni  Ni851  1  0.42627402  0.89135281  0.21900204  1.0
  Ni  Ni852  1  0.75960736  0.22468614  0.21900204  1.0
  Ni  Ni853  1  0.75960736  0.55801948  0.21900204  1.0
  Ni  Ni854  1  0.75960736  0.89135281  0.21900204  1.0
  Ni  Ni855  1  0.04532164  0.10563852  0.14757346  1.0
  Ni  Ni856  1  0.04532164  0.43897186  0.14757346  1.0
  Ni  Ni857  1  0.04532164  0.77230519  0.14757346  1.0
  Ni  Ni858  1  0.37865498  0.10563852  0.14757346  1.0
  Ni  Ni859  1  0.37865498  0.43897186  0.14757346  1.0
  Ni  Ni860  1  0.37865498  0.77230519  0.14757346  1.0
  Ni  Ni861  1  0.71198831  0.10563852  0.14757346  1.0
  Ni  Ni862  1  0.71198831  0.43897186  0.14757346  1.0
  Ni  Ni863  1  0.71198831  0.77230519  0.14757346  1.0
  Ni  Ni864  1  0.13324802  0.07993798  0.18963254  1.0
  Ni  Ni865  1  0.13324802  0.41327131  0.18963254  1.0
  Ni  Ni866  1  0.13324802  0.74660464  0.18963254  1.0
  Ni  Ni867  1  0.46658136  0.07993798  0.18963254  1.0
  Ni  Ni868  1  0.46658136  0.41327131  0.18963254  1.0
  Ni  Ni869  1  0.46658136  0.74660464  0.18963254  1.0
  Ni  Ni870  1  0.79991469  0.07993798  0.18963254  1.0
  Ni  Ni871  1  0.79991469  0.41327131  0.18963254  1.0
  Ni  Ni872  1  0.79991469  0.74660464  0.18963254  1.0
  Ni  Ni873  1  0.18086707  0.19898560  0.26106111  1.0
  Ni  Ni874  1  0.18086707  0.53231893  0.26106111  1.0
  Ni  Ni875  1  0.18086707  0.86565226  0.26106111  1.0
  Ni  Ni876  1  0.51420040  0.19898560  0.26106111  1.0
  Ni  Ni877  1  0.51420040  0.53231893  0.26106111  1.0
  Ni  Ni878  1  0.51420040  0.86565226  0.26106111  1.0
  Ni  Ni879  1  0.84753374  0.19898560  0.26106111  1.0
  Ni  Ni880  1  0.84753374  0.53231893  0.26106111  1.0
  Ni  Ni881  1  0.84753374  0.86565226  0.26106111  1.0
  Ni  Ni882  1  0.06642988  0.33137879  0.17923582  1.0
  Ni  Ni883  1  0.06642988  0.66471212  0.17923582  1.0
  Ni  Ni884  1  0.06642988  0.99804545  0.17923582  1.0
  Ni  Ni885  1  0.39976321  0.33137879  0.17923582  1.0
  Ni  Ni886  1  0.39976321  0.66471212  0.17923582  1.0
  Ni  Ni887  1  0.39976321  0.99804545  0.17923582  1.0
  Ni  Ni888  1  0.73309655  0.33137879  0.17923582  1.0
  Ni  Ni889  1  0.73309655  0.66471212  0.17923582  1.0
  Ni  Ni890  1  0.73309655  0.99804545  0.17923582  1.0
  Ni  Ni891  1  0.11404893  0.11709307  0.25066439  1.0
  Ni  Ni892  1  0.11404893  0.45042640  0.25066439  1.0
  Ni  Ni893  1  0.11404893  0.78375974  0.25066439  1.0
  Ni  Ni894  1  0.44738226  0.11709307  0.25066439  1.0
  Ni  Ni895  1  0.44738226  0.45042640  0.25066439  1.0
  Ni  Ni896  1  0.44738226  0.78375974  0.25066439  1.0
  Ni  Ni897  1  0.78071560  0.11709307  0.25066439  1.0
  Ni  Ni898  1  0.78071560  0.45042640  0.25066439  1.0
  Ni  Ni899  1  0.78071560  0.78375974  0.25066439  1.0
  Ni  Ni900  1  0.32062921  0.30710645  0.23094382  1.0
  Ni  Ni901  1  0.32062921  0.64043979  0.23094382  1.0
  Ni  Ni902  1  0.32062921  0.97377312  0.23094382  1.0
  Ni  Ni903  1  0.65396255  0.30710645  0.23094382  1.0
  Ni  Ni904  1  0.65396255  0.64043979  0.23094382  1.0
  Ni  Ni905  1  0.65396255  0.97377312  0.23094382  1.0
  Ni  Ni906  1  0.98729588  0.30710645  0.23094382  1.0
  Ni  Ni907  1  0.98729588  0.64043979  0.23094382  1.0
  Ni  Ni908  1  0.98729588  0.97377312  0.23094382  1.0
  Ni  Ni909  1  0.27301017  0.18805883  0.15951525  1.0
  Ni  Ni910  1  0.27301017  0.52139217  0.15951525  1.0
  Ni  Ni911  1  0.27301017  0.85472550  0.15951525  1.0
  Ni  Ni912  1  0.60634350  0.18805883  0.15951525  1.0
  Ni  Ni913  1  0.60634350  0.52139217  0.15951525  1.0
  Ni  Ni914  1  0.60634350  0.85472550  0.15951525  1.0
  Ni  Ni915  1  0.93967683  0.18805883  0.15951525  1.0
  Ni  Ni916  1  0.93967683  0.52139217  0.15951525  1.0
  Ni  Ni917  1  0.93967683  0.85472550  0.15951525  1.0
  Ni  Ni918  1  0.18733198  0.14600136  0.28099796  1.0
  Ni  Ni919  1  0.18733198  0.47933469  0.28099796  1.0
  Ni  Ni920  1  0.18733198  0.81266802  0.28099796  1.0
  Ni  Ni921  1  0.52066531  0.14600136  0.28099796  1.0
  Ni  Ni922  1  0.52066531  0.47933469  0.28099796  1.0
  Ni  Ni923  1  0.52066531  0.81266802  0.28099796  1.0
  Ni  Ni924  1  0.85399864  0.14600136  0.28099796  1.0
  Ni  Ni925  1  0.85399864  0.47933469  0.28099796  1.0
  Ni  Ni926  1  0.85399864  0.81266802  0.28099796  1.0
  Ni  Ni927  1  0.13971293  0.02695374  0.20956939  1.0
  Ni  Ni928  1  0.13971293  0.36028707  0.20956939  1.0
  Ni  Ni929  1  0.13971293  0.69362040  0.20956939  1.0
  Ni  Ni930  1  0.47304626  0.02695374  0.20956939  1.0
  Ni  Ni931  1  0.47304626  0.36028707  0.20956939  1.0
  Ni  Ni932  1  0.47304626  0.69362040  0.20956939  1.0
  Ni  Ni933  1  0.80637960  0.02695374  0.20956939  1.0
  Ni  Ni934  1  0.80637960  0.36028707  0.20956939  1.0
  Ni  Ni935  1  0.80637960  0.69362040  0.20956939  1.0
  Ni  Ni936  1  0.33018912  0.25314421  0.24528368  1.0
  Ni  Ni937  1  0.33018912  0.58647755  0.24528368  1.0
  Ni  Ni938  1  0.33018912  0.91981088  0.24528368  1.0
  Ni  Ni939  1  0.66352245  0.25314421  0.24528368  1.0
  Ni  Ni940  1  0.66352245  0.58647755  0.24528368  1.0
  Ni  Ni941  1  0.66352245  0.91981088  0.24528368  1.0
  Ni  Ni942  1  0.99685579  0.25314421  0.24528368  1.0
  Ni  Ni943  1  0.99685579  0.58647755  0.24528368  1.0
  Ni  Ni944  1  0.99685579  0.91981088  0.24528368  1.0
  Ni  Ni945  1  0.28257007  0.13409660  0.17385511  1.0
  Ni  Ni946  1  0.28257007  0.46742993  0.17385511  1.0
  Ni  Ni947  1  0.28257007  0.80076326  0.17385511  1.0
  Ni  Ni948  1  0.61590340  0.13409660  0.17385511  1.0
  Ni  Ni949  1  0.61590340  0.46742993  0.17385511  1.0
  Ni  Ni950  1  0.61590340  0.80076326  0.17385511  1.0
  Ni  Ni951  1  0.94923674  0.13409660  0.17385511  1.0
  Ni  Ni952  1  0.94923674  0.46742993  0.17385511  1.0
  Ni  Ni953  1  0.94923674  0.80076326  0.17385511  1.0
  Ni  Ni954  1  0.30823407  0.29395726  0.38276011  1.0
  Ni  Ni955  1  0.30823407  0.62729060  0.38276011  1.0
  Ni  Ni956  1  0.30823407  0.96062393  0.38276011  1.0
  Ni  Ni957  1  0.64156740  0.29395726  0.38276011  1.0
  Ni  Ni958  1  0.64156740  0.62729060  0.38276011  1.0
  Ni  Ni959  1  0.64156740  0.96062393  0.38276011  1.0
  Ni  Ni960  1  0.97490074  0.29395726  0.38276011  1.0
  Ni  Ni961  1  0.97490074  0.62729060  0.38276011  1.0
  Ni  Ni962  1  0.97490074  0.96062393  0.38276011  1.0
  Ni  Ni963  1  0.26061502  0.17490964  0.31133154  1.0
  Ni  Ni964  1  0.26061502  0.50824298  0.31133154  1.0
  Ni  Ni965  1  0.26061502  0.84157631  0.31133154  1.0
  Ni  Ni966  1  0.59394836  0.17490964  0.31133154  1.0
  Ni  Ni967  1  0.59394836  0.50824298  0.31133154  1.0
  Ni  Ni968  1  0.59394836  0.84157631  0.31133154  1.0
  Ni  Ni969  1  0.92728169  0.17490964  0.31133154  1.0
  Ni  Ni970  1  0.92728169  0.50824298  0.31133154  1.0
  Ni  Ni971  1  0.92728169  0.84157631  0.31133154  1.0
  Ni  Ni972  1  0.06828436  0.26504898  0.35242654  1.0
  Ni  Ni973  1  0.06828436  0.59838231  0.35242654  1.0
  Ni  Ni974  1  0.06828436  0.93171564  0.35242654  1.0
  Ni  Ni975  1  0.40161769  0.26504898  0.35242654  1.0
  Ni  Ni976  1  0.40161769  0.59838231  0.35242654  1.0
  Ni  Ni977  1  0.40161769  0.93171564  0.35242654  1.0
  Ni  Ni978  1  0.73495102  0.26504898  0.35242654  1.0
  Ni  Ni979  1  0.73495102  0.59838231  0.35242654  1.0
  Ni  Ni980  1  0.73495102  0.93171564  0.35242654  1.0
  Ni  Ni981  1  0.11590340  0.05076326  0.42385511  1.0
  Ni  Ni982  1  0.11590340  0.38409660  0.42385511  1.0
  Ni  Ni983  1  0.11590340  0.71742993  0.42385511  1.0
  Ni  Ni984  1  0.44923674  0.05076326  0.42385511  1.0
  Ni  Ni985  1  0.44923674  0.38409660  0.42385511  1.0
  Ni  Ni986  1  0.44923674  0.71742993  0.42385511  1.0
  Ni  Ni987  1  0.78257007  0.05076326  0.42385511  1.0
  Ni  Ni988  1  0.78257007  0.38409660  0.42385511  1.0
  Ni  Ni989  1  0.78257007  0.71742993  0.42385511  1.0
  Ni  Ni990  1  0.16863064  0.18676936  0.41439796  1.0
  Ni  Ni991  1  0.16863064  0.52010269  0.41439796  1.0
  Ni  Ni992  1  0.16863064  0.85343602  0.41439796  1.0
  Ni  Ni993  1  0.50196398  0.18676936  0.41439796  1.0
  Ni  Ni994  1  0.50196398  0.52010269  0.41439796  1.0
  Ni  Ni995  1  0.50196398  0.85343602  0.41439796  1.0
  Ni  Ni996  1  0.83529731  0.18676936  0.41439796  1.0
  Ni  Ni997  1  0.83529731  0.52010269  0.41439796  1.0
  Ni  Ni998  1  0.83529731  0.85343602  0.41439796  1.0
  Ni  Ni999  1  0.12101160  0.06772174  0.34296939  1.0
  Ni  Ni1000  1  0.12101160  0.40105507  0.34296939  1.0
  Ni  Ni1001  1  0.12101160  0.73438840  0.34296939  1.0
  Ni  Ni1002  1  0.45434493  0.06772174  0.34296939  1.0
  Ni  Ni1003  1  0.45434493  0.40105507  0.34296939  1.0
  Ni  Ni1004  1  0.45434493  0.73438840  0.34296939  1.0
  Ni  Ni1005  1  0.78767826  0.06772174  0.34296939  1.0
  Ni  Ni1006  1  0.78767826  0.40105507  0.34296939  1.0
  Ni  Ni1007  1  0.78767826  0.73438840  0.34296939  1.0
  Ni  Ni1008  1  0.28172326  0.06731657  0.34299389  1.0
  Ni  Ni1009  1  0.28172326  0.40064990  0.34299389  1.0
  Ni  Ni1010  1  0.28172326  0.73398324  0.34299389  1.0
  Ni  Ni1011  1  0.61505660  0.06731657  0.34299389  1.0
  Ni  Ni1012  1  0.61505660  0.40064990  0.34299389  1.0
  Ni  Ni1013  1  0.61505660  0.73398324  0.34299389  1.0
  Ni  Ni1014  1  0.94838993  0.06731657  0.34299389  1.0
  Ni  Ni1015  1  0.94838993  0.40064990  0.34299389  1.0
  Ni  Ni1016  1  0.94838993  0.73398324  0.34299389  1.0
  Ni  Ni1017  1  0.32934231  0.18636419  0.41442246  1.0
  Ni  Ni1018  1  0.32934231  0.51969752  0.41442246  1.0
  Ni  Ni1019  1  0.32934231  0.85303086  0.41442246  1.0
  Ni  Ni1020  1  0.66267564  0.18636419  0.41442246  1.0
  Ni  Ni1021  1  0.66267564  0.51969752  0.41442246  1.0
  Ni  Ni1022  1  0.66267564  0.85303086  0.41442246  1.0
  Ni  Ni1023  1  0.99600898  0.18636419  0.41442246  1.0
  Ni  Ni1024  1  0.99600898  0.51969752  0.41442246  1.0
  Ni  Ni1025  1  0.99600898  0.85303086  0.41442246  1.0
  Ni  Ni1026  1  0.30127140  0.00999526  0.29045511  1.0
  Ni  Ni1027  1  0.30127140  0.34332860  0.29045511  1.0
  Ni  Ni1028  1  0.30127140  0.67666193  0.29045511  1.0
  Ni  Ni1029  1  0.63460474  0.00999526  0.29045511  1.0
  Ni  Ni1030  1  0.63460474  0.34332860  0.29045511  1.0
  Ni  Ni1031  1  0.63460474  0.67666193  0.29045511  1.0
  Ni  Ni1032  1  0.96793807  0.00999526  0.29045511  1.0
  Ni  Ni1033  1  0.96793807  0.34332860  0.29045511  1.0
  Ni  Ni1034  1  0.96793807  0.67666193  0.29045511  1.0
  Ni  Ni1035  1  0.01555712  0.12904288  0.36188368  1.0
  Ni  Ni1036  1  0.01555712  0.46237621  0.36188368  1.0
  Ni  Ni1037  1  0.01555712  0.79570955  0.36188368  1.0
  Ni  Ni1038  1  0.34889045  0.12904288  0.36188368  1.0
  Ni  Ni1039  1  0.34889045  0.46237621  0.36188368  1.0
  Ni  Ni1040  1  0.34889045  0.79570955  0.36188368  1.0
  Ni  Ni1041  1  0.68222379  0.12904288  0.36188368  1.0
  Ni  Ni1042  1  0.68222379  0.46237621  0.36188368  1.0
  Ni  Ni1043  1  0.68222379  0.79570955  0.36188368  1.0
  Ni  Ni1044  1  0.05403474  0.31822960  0.33105211  1.0
  Ni  Ni1045  1  0.05403474  0.65156293  0.33105211  1.0
  Ni  Ni1046  1  0.05403474  0.98489626  0.33105211  1.0
  Ni  Ni1047  1  0.38736807  0.31822960  0.33105211  1.0
  Ni  Ni1048  1  0.38736807  0.65156293  0.33105211  1.0
  Ni  Ni1049  1  0.38736807  0.98489626  0.33105211  1.0
  Ni  Ni1050  1  0.72070140  0.31822960  0.33105211  1.0
  Ni  Ni1051  1  0.72070140  0.65156293  0.33105211  1.0
  Ni  Ni1052  1  0.72070140  0.98489626  0.33105211  1.0
  Ni  Ni1053  1  0.10165379  0.10394388  0.40248068  1.0
  Ni  Ni1054  1  0.10165379  0.43727721  0.40248068  1.0
  Ni  Ni1055  1  0.10165379  0.77061055  0.40248068  1.0
  Ni  Ni1056  1  0.43498712  0.10394388  0.40248068  1.0
  Ni  Ni1057  1  0.43498712  0.43727721  0.40248068  1.0
  Ni  Ni1058  1  0.43498712  0.77061055  0.40248068  1.0
  Ni  Ni1059  1  0.76832045  0.10394388  0.40248068  1.0
  Ni  Ni1060  1  0.76832045  0.43727721  0.40248068  1.0
  Ni  Ni1061  1  0.76832045  0.77061055  0.40248068  1.0
  Ni  Ni1062  1  0.24141593  0.21206474  0.37236339  1.0
  Ni  Ni1063  1  0.24141593  0.54539807  0.37236339  1.0
  Ni  Ni1064  1  0.24141593  0.87873140  0.37236339  1.0
  Ni  Ni1065  1  0.57474926  0.21206474  0.37236339  1.0
  Ni  Ni1066  1  0.57474926  0.54539807  0.37236339  1.0
  Ni  Ni1067  1  0.57474926  0.87873140  0.37236339  1.0
  Ni  Ni1068  1  0.90808260  0.21206474  0.37236339  1.0
  Ni  Ni1069  1  0.90808260  0.54539807  0.37236339  1.0
  Ni  Ni1070  1  0.90808260  0.87873140  0.37236339  1.0
  Ni  Ni1071  1  0.19379688  0.09301712  0.30093482  1.0
  Ni  Ni1072  1  0.19379688  0.42635045  0.30093482  1.0
  Ni  Ni1073  1  0.19379688  0.75968379  0.30093482  1.0
  Ni  Ni1074  1  0.52713021  0.09301712  0.30093482  1.0
  Ni  Ni1075  1  0.52713021  0.42635045  0.30093482  1.0
  Ni  Ni1076  1  0.52713021  0.75968379  0.30093482  1.0
  Ni  Ni1077  1  0.86046355  0.09301712  0.30093482  1.0
  Ni  Ni1078  1  0.86046355  0.42635045  0.30093482  1.0
  Ni  Ni1079  1  0.86046355  0.75968379  0.30093482  1.0
  Ni  Ni1080  1  0.18817879  0.12944805  0.36185918  1.0
  Ni  Ni1081  1  0.18817879  0.46278138  0.36185918  1.0
  Ni  Ni1082  1  0.18817879  0.79611471  0.36185918  1.0
  Ni  Ni1083  1  0.52151212  0.12944805  0.36185918  1.0
  Ni  Ni1084  1  0.52151212  0.46278138  0.36185918  1.0
  Ni  Ni1085  1  0.52151212  0.79611471  0.36185918  1.0
  Ni  Ni1086  1  0.85484545  0.12944805  0.36185918  1.0
  Ni  Ni1087  1  0.85484545  0.46278138  0.36185918  1.0
  Ni  Ni1088  1  0.85484545  0.79611471  0.36185918  1.0
  Ni  Ni1089  1  0.14055974  0.01040043  0.29043061  1.0
  Ni  Ni1090  1  0.14055974  0.34373376  0.29043061  1.0
  Ni  Ni1091  1  0.14055974  0.67706710  0.29043061  1.0
  Ni  Ni1092  1  0.47389307  0.01040043  0.29043061  1.0
  Ni  Ni1093  1  0.47389307  0.34373376  0.29043061  1.0
  Ni  Ni1094  1  0.47389307  0.67706710  0.29043061  1.0
  Ni  Ni1095  1  0.80722640  0.01040043  0.29043061  1.0
  Ni  Ni1096  1  0.80722640  0.34373376  0.29043061  1.0
  Ni  Ni1097  1  0.80722640  0.67706710  0.29043061  1.0
  Ni  Ni1098  1  0.22848612  0.31803321  0.33248968  1.0
  Ni  Ni1099  1  0.22848612  0.65136655  0.33248968  1.0
  Ni  Ni1100  1  0.22848612  0.98469988  0.33248968  1.0
  Ni  Ni1101  1  0.56181945  0.31803321  0.33248968  1.0
  Ni  Ni1102  1  0.56181945  0.65136655  0.33248968  1.0
  Ni  Ni1103  1  0.56181945  0.98469988  0.33248968  1.0
  Ni  Ni1104  1  0.89515279  0.31803321  0.33248968  1.0
  Ni  Ni1105  1  0.89515279  0.65136655  0.33248968  1.0
  Ni  Ni1106  1  0.89515279  0.98469988  0.33248968  1.0
  Ni  Ni1107  1  0.27610517  0.10374750  0.40391825  1.0
  Ni  Ni1108  1  0.27610517  0.43708083  0.40391825  1.0
  Ni  Ni1109  1  0.27610517  0.77041417  0.40391825  1.0
  Ni  Ni1110  1  0.60943850  0.10374750  0.40391825  1.0
  Ni  Ni1111  1  0.60943850  0.43708083  0.40391825  1.0
  Ni  Ni1112  1  0.60943850  0.77041417  0.40391825  1.0
  Ni  Ni1113  1  0.94277183  0.10374750  0.40391825  1.0
  Ni  Ni1114  1  0.94277183  0.43708083  0.40391825  1.0
  Ni  Ni1115  1  0.94277183  0.77041417  0.40391825  1.0
  Ni  Ni1116  1  0.16166798  0.23614069  0.32209296  1.0
  Ni  Ni1117  1  0.16166798  0.56947402  0.32209296  1.0
  Ni  Ni1118  1  0.16166798  0.90280736  0.32209296  1.0
  Ni  Ni1119  1  0.49500131  0.23614069  0.32209296  1.0
  Ni  Ni1120  1  0.49500131  0.56947402  0.32209296  1.0
  Ni  Ni1121  1  0.49500131  0.90280736  0.32209296  1.0
  Ni  Ni1122  1  0.82833464  0.23614069  0.32209296  1.0
  Ni  Ni1123  1  0.82833464  0.56947402  0.32209296  1.0
  Ni  Ni1124  1  0.82833464  0.90280736  0.32209296  1.0
  Ni  Ni1125  1  0.20928702  0.02185498  0.39352154  1.0
  Ni  Ni1126  1  0.20928702  0.35518831  0.39352154  1.0
  Ni  Ni1127  1  0.20928702  0.68852164  0.39352154  1.0
  Ni  Ni1128  1  0.54262036  0.02185498  0.39352154  1.0
  Ni  Ni1129  1  0.54262036  0.35518831  0.39352154  1.0
  Ni  Ni1130  1  0.54262036  0.68852164  0.39352154  1.0
  Ni  Ni1131  1  0.87595369  0.02185498  0.39352154  1.0
  Ni  Ni1132  1  0.87595369  0.35518831  0.39352154  1.0
  Ni  Ni1133  1  0.87595369  0.68852164  0.39352154  1.0
  Ni  Ni1134  1  0.08253398  0.21186836  0.37380096  1.0
  Ni  Ni1135  1  0.08253398  0.54520169  0.37380096  1.0
  Ni  Ni1136  1  0.08253398  0.87853502  0.37380096  1.0
  Ni  Ni1137  1  0.41586731  0.21186836  0.37380096  1.0
  Ni  Ni1138  1  0.41586731  0.54520169  0.37380096  1.0
  Ni  Ni1139  1  0.41586731  0.87853502  0.37380096  1.0
  Ni  Ni1140  1  0.74920064  0.21186836  0.37380096  1.0
  Ni  Ni1141  1  0.74920064  0.54520169  0.37380096  1.0
  Ni  Ni1142  1  0.74920064  0.87853502  0.37380096  1.0
  Ni  Ni1143  1  0.03491493  0.09282074  0.30237239  1.0
  Ni  Ni1144  1  0.03491493  0.42615407  0.30237239  1.0
  Ni  Ni1145  1  0.03491493  0.75948740  0.30237239  1.0
  Ni  Ni1146  1  0.36824826  0.09282074  0.30237239  1.0
  Ni  Ni1147  1  0.36824826  0.42615407  0.30237239  1.0
  Ni  Ni1148  1  0.36824826  0.75948740  0.30237239  1.0
  Ni  Ni1149  1  0.70158160  0.09282074  0.30237239  1.0
  Ni  Ni1150  1  0.70158160  0.42615407  0.30237239  1.0
  Ni  Ni1151  1  0.70158160  0.75948740  0.30237239  1.0
  Ni  Ni1152  1  0.28257007  0.05076326  0.42385511  1.0
  Ni  Ni1153  1  0.28257007  0.38409660  0.42385511  1.0
  Ni  Ni1154  1  0.28257007  0.71742993  0.42385511  1.0
  Ni  Ni1155  1  0.61590340  0.05076326  0.42385511  1.0
  Ni  Ni1156  1  0.61590340  0.38409660  0.42385511  1.0
  Ni  Ni1157  1  0.61590340  0.71742993  0.42385511  1.0
  Ni  Ni1158  1  0.94923674  0.05076326  0.42385511  1.0
  Ni  Ni1159  1  0.94923674  0.38409660  0.42385511  1.0
  Ni  Ni1160  1  0.94923674  0.71742993  0.42385511  1.0
  Ni  Ni1161  1  0.23495102  0.26504898  0.35242654  1.0
  Ni  Ni1162  1  0.23495102  0.59838231  0.35242654  1.0
  Ni  Ni1163  1  0.23495102  0.93171564  0.35242654  1.0
  Ni  Ni1164  1  0.56828436  0.26504898  0.35242654  1.0
  Ni  Ni1165  1  0.56828436  0.59838231  0.35242654  1.0
  Ni  Ni1166  1  0.56828436  0.93171564  0.35242654  1.0
  Ni  Ni1167  1  0.90161769  0.26504898  0.35242654  1.0
  Ni  Ni1168  1  0.90161769  0.59838231  0.35242654  1.0
  Ni  Ni1169  1  0.90161769  0.93171564  0.35242654  1.0
  Ni  Ni1170  1  0.09209388  0.15790612  0.38814082  1.0
  Ni  Ni1171  1  0.09209388  0.49123945  0.38814082  1.0
  Ni  Ni1172  1  0.09209388  0.82457279  0.38814082  1.0
  Ni  Ni1173  1  0.42542721  0.15790612  0.38814082  1.0
  Ni  Ni1174  1  0.42542721  0.49123945  0.38814082  1.0
  Ni  Ni1175  1  0.42542721  0.82457279  0.38814082  1.0
  Ni  Ni1176  1  0.75876055  0.15790612  0.38814082  1.0
  Ni  Ni1177  1  0.75876055  0.49123945  0.38814082  1.0
  Ni  Ni1178  1  0.75876055  0.82457279  0.38814082  1.0
  Ni  Ni1179  1  0.04447483  0.03885850  0.31671225  1.0
  Ni  Ni1180  1  0.04447483  0.37219183  0.31671225  1.0
  Ni  Ni1181  1  0.04447483  0.70552517  0.31671225  1.0
  Ni  Ni1182  1  0.37780817  0.03885850  0.31671225  1.0
  Ni  Ni1183  1  0.37780817  0.37219183  0.31671225  1.0
  Ni  Ni1184  1  0.37780817  0.70552517  0.31671225  1.0
  Ni  Ni1185  1  0.71114150  0.03885850  0.31671225  1.0
  Ni  Ni1186  1  0.71114150  0.37219183  0.31671225  1.0
  Ni  Ni1187  1  0.71114150  0.70552517  0.31671225  1.0
