# generated using pymatgen
data_Nb5Ni
_symmetry_space_group_name_H-M   'P 1'
_cell_length_a   35.79018600
_cell_length_b   43.83384675
_cell_length_c   26.67642961
_cell_angle_alpha   90.00000000
_cell_angle_beta   90.00000000
_cell_angle_gamma   114.09484255
_symmetry_Int_Tables_number   1
_chemical_formula_structural   Nb5Ni
_chemical_formula_sum   'Nb720 Ni144'
_cell_volume   38204.15691291
_cell_formula_units_Z   144
loop_
 _symmetry_equiv_pos_site_id
 _symmetry_equiv_pos_as_xyz
  1  'x, y, z'
loop_
 _atom_site_type_symbol
 _atom_site_label
 _atom_site_symmetry_multiplicity
 _atom_site_fract_x
 _atom_site_fract_y
 _atom_site_fract_z
 _atom_site_occupancy
  Nb  Nb0  1  0.21485179  0.00026097  0.16133457  1.0
  Nb  Nb1  1  0.21485179  0.33359430  0.16133457  1.0
  Nb  Nb2  1  0.21485179  0.66692763  0.16133457  1.0
  Nb  Nb3  1  0.54818512  0.00026097  0.16133457  1.0
  Nb  Nb4  1  0.54818512  0.33359430  0.16133457  1.0
  Nb  Nb5  1  0.54818512  0.66692763  0.16133457  1.0
  Nb  Nb6  1  0.88151846  0.00026097  0.16133457  1.0
  Nb  Nb7  1  0.88151846  0.33359430  0.16133457  1.0
  Nb  Nb8  1  0.88151846  0.66692763  0.16133457  1.0
  Nb  Nb9  1  0.11485179  0.13359430  0.06133457  1.0
  Nb  Nb10  1  0.11485179  0.46692763  0.06133457  1.0
  Nb  Nb11  1  0.11485179  0.80026097  0.06133457  1.0
  Nb  Nb12  1  0.44818512  0.13359430  0.06133457  1.0
  Nb  Nb13  1  0.44818512  0.46692763  0.06133457  1.0
  Nb  Nb14  1  0.44818512  0.80026097  0.06133457  1.0
  Nb  Nb15  1  0.78151846  0.13359430  0.06133457  1.0
  Nb  Nb16  1  0.78151846  0.46692763  0.06133457  1.0
  Nb  Nb17  1  0.78151846  0.80026097  0.06133457  1.0
  Nb  Nb18  1  0.00574150  0.02240817  0.06722450  1.0
  Nb  Nb19  1  0.00574150  0.35574150  0.06722450  1.0
  Nb  Nb20  1  0.00574150  0.68907483  0.06722450  1.0
  Nb  Nb21  1  0.33907483  0.02240817  0.06722450  1.0
  Nb  Nb22  1  0.33907483  0.35574150  0.06722450  1.0
  Nb  Nb23  1  0.33907483  0.68907483  0.06722450  1.0
  Nb  Nb24  1  0.67240817  0.02240817  0.06722450  1.0
  Nb  Nb25  1  0.67240817  0.35574150  0.06722450  1.0
  Nb  Nb26  1  0.67240817  0.68907483  0.06722450  1.0
  Nb  Nb27  1  0.10574150  0.22240817  0.16722450  1.0
  Nb  Nb28  1  0.10574150  0.55574150  0.16722450  1.0
  Nb  Nb29  1  0.10574150  0.88907483  0.16722450  1.0
  Nb  Nb30  1  0.43907483  0.22240817  0.16722450  1.0
  Nb  Nb31  1  0.43907483  0.55574150  0.16722450  1.0
  Nb  Nb32  1  0.43907483  0.88907483  0.16722450  1.0
  Nb  Nb33  1  0.77240817  0.22240817  0.16722450  1.0
  Nb  Nb34  1  0.77240817  0.55574150  0.16722450  1.0
  Nb  Nb35  1  0.77240817  0.88907483  0.16722450  1.0
  Nb  Nb36  1  0.26255757  0.30974141  0.08977590  1.0
  Nb  Nb37  1  0.26255757  0.64307475  0.08977590  1.0
  Nb  Nb38  1  0.26255757  0.97640808  0.08977590  1.0
  Nb  Nb39  1  0.59589090  0.30974141  0.08977590  1.0
  Nb  Nb40  1  0.59589090  0.64307475  0.08977590  1.0
  Nb  Nb41  1  0.59589090  0.97640808  0.08977590  1.0
  Nb  Nb42  1  0.92922423  0.30974141  0.08977590  1.0
  Nb  Nb43  1  0.92922423  0.64307475  0.08977590  1.0
  Nb  Nb44  1  0.92922423  0.97640808  0.08977590  1.0
  Nb  Nb45  1  0.02922423  0.17640808  0.18977590  1.0
  Nb  Nb46  1  0.02922423  0.50974141  0.18977590  1.0
  Nb  Nb47  1  0.02922423  0.84307475  0.18977590  1.0
  Nb  Nb48  1  0.36255757  0.17640808  0.18977590  1.0
  Nb  Nb49  1  0.36255757  0.50974141  0.18977590  1.0
  Nb  Nb50  1  0.36255757  0.84307475  0.18977590  1.0
  Nb  Nb51  1  0.69589090  0.17640808  0.18977590  1.0
  Nb  Nb52  1  0.69589090  0.50974141  0.18977590  1.0
  Nb  Nb53  1  0.69589090  0.84307475  0.18977590  1.0
  Nb  Nb54  1  0.14781497  0.13988843  0.16966530  1.0
  Nb  Nb55  1  0.14781497  0.47322177  0.16966530  1.0
  Nb  Nb56  1  0.14781497  0.80655510  0.16966530  1.0
  Nb  Nb57  1  0.48114830  0.13988843  0.16966530  1.0
  Nb  Nb58  1  0.48114830  0.47322177  0.16966530  1.0
  Nb  Nb59  1  0.48114830  0.80655510  0.16966530  1.0
  Nb  Nb60  1  0.81448163  0.13988843  0.16966530  1.0
  Nb  Nb61  1  0.81448163  0.47322177  0.16966530  1.0
  Nb  Nb62  1  0.81448163  0.80655510  0.16966530  1.0
  Nb  Nb63  1  0.04781497  0.27322177  0.06966530  1.0
  Nb  Nb64  1  0.04781497  0.60655510  0.06966530  1.0
  Nb  Nb65  1  0.04781497  0.93988843  0.06966530  1.0
  Nb  Nb66  1  0.38114830  0.27322177  0.06966530  1.0
  Nb  Nb67  1  0.38114830  0.60655510  0.06966530  1.0
  Nb  Nb68  1  0.38114830  0.93988843  0.06966530  1.0
  Nb  Nb69  1  0.71448163  0.27322177  0.06966530  1.0
  Nb  Nb70  1  0.71448163  0.60655510  0.06966530  1.0
  Nb  Nb71  1  0.71448163  0.93988843  0.06966530  1.0
  Nb  Nb72  1  0.03870468  0.02870230  0.17555523  1.0
  Nb  Nb73  1  0.03870468  0.36203563  0.17555523  1.0
  Nb  Nb74  1  0.03870468  0.69536897  0.17555523  1.0
  Nb  Nb75  1  0.37203801  0.02870230  0.17555523  1.0
  Nb  Nb76  1  0.37203801  0.36203563  0.17555523  1.0
  Nb  Nb77  1  0.37203801  0.69536897  0.17555523  1.0
  Nb  Nb78  1  0.70537134  0.02870230  0.17555523  1.0
  Nb  Nb79  1  0.70537134  0.36203563  0.17555523  1.0
  Nb  Nb80  1  0.70537134  0.69536897  0.17555523  1.0
  Nb  Nb81  1  0.27203801  0.16203563  0.07555523  1.0
  Nb  Nb82  1  0.27203801  0.49536897  0.07555523  1.0
  Nb  Nb83  1  0.27203801  0.82870230  0.07555523  1.0
  Nb  Nb84  1  0.60537134  0.16203563  0.07555523  1.0
  Nb  Nb85  1  0.60537134  0.49536897  0.07555523  1.0
  Nb  Nb86  1  0.60537134  0.82870230  0.07555523  1.0
  Nb  Nb87  1  0.93870468  0.16203563  0.07555523  1.0
  Nb  Nb88  1  0.93870468  0.49536897  0.07555523  1.0
  Nb  Nb89  1  0.93870468  0.82870230  0.07555523  1.0
  Nb  Nb90  1  0.02159457  0.09781497  0.04344490  1.0
  Nb  Nb91  1  0.02159457  0.43114830  0.04344490  1.0
  Nb  Nb92  1  0.02159457  0.76448163  0.04344490  1.0
  Nb  Nb93  1  0.35492790  0.09781497  0.04344490  1.0
  Nb  Nb94  1  0.35492790  0.43114830  0.04344490  1.0
  Nb  Nb95  1  0.35492790  0.76448163  0.04344490  1.0
  Nb  Nb96  1  0.68826123  0.09781497  0.04344490  1.0
  Nb  Nb97  1  0.68826123  0.43114830  0.04344490  1.0
  Nb  Nb98  1  0.68826123  0.76448163  0.04344490  1.0
  Nb  Nb99  1  0.12159457  0.29781497  0.14344490  1.0
  Nb  Nb100  1  0.12159457  0.63114830  0.14344490  1.0
  Nb  Nb101  1  0.12159457  0.96448163  0.14344490  1.0
  Nb  Nb102  1  0.45492790  0.29781497  0.14344490  1.0
  Nb  Nb103  1  0.45492790  0.63114830  0.14344490  1.0
  Nb  Nb104  1  0.45492790  0.96448163  0.14344490  1.0
  Nb  Nb105  1  0.78826123  0.29781497  0.14344490  1.0
  Nb  Nb106  1  0.78826123  0.63114830  0.14344490  1.0
  Nb  Nb107  1  0.78826123  0.96448163  0.14344490  1.0
  Nb  Nb108  1  0.23196190  0.09781497  0.04344490  1.0
  Nb  Nb109  1  0.23196190  0.43114830  0.04344490  1.0
  Nb  Nb110  1  0.23196190  0.76448163  0.04344490  1.0
  Nb  Nb111  1  0.56529523  0.09781497  0.04344490  1.0
  Nb  Nb112  1  0.56529523  0.43114830  0.04344490  1.0
  Nb  Nb113  1  0.56529523  0.76448163  0.04344490  1.0
  Nb  Nb114  1  0.89862857  0.09781497  0.04344490  1.0
  Nb  Nb115  1  0.89862857  0.43114830  0.04344490  1.0
  Nb  Nb116  1  0.89862857  0.76448163  0.04344490  1.0
  Nb  Nb117  1  0.33196190  0.29781497  0.14344490  1.0
  Nb  Nb118  1  0.33196190  0.63114830  0.14344490  1.0
  Nb  Nb119  1  0.33196190  0.96448163  0.14344490  1.0
  Nb  Nb120  1  0.66529523  0.29781497  0.14344490  1.0
  Nb  Nb121  1  0.66529523  0.63114830  0.14344490  1.0
  Nb  Nb122  1  0.66529523  0.96448163  0.14344490  1.0
  Nb  Nb123  1  0.99862857  0.29781497  0.14344490  1.0
  Nb  Nb124  1  0.99862857  0.63114830  0.14344490  1.0
  Nb  Nb125  1  0.99862857  0.96448163  0.14344490  1.0
  Nb  Nb126  1  0.12433223  0.31922185  0.04711390  1.0
  Nb  Nb127  1  0.12433223  0.65255519  0.04711390  1.0
  Nb  Nb128  1  0.12433223  0.98588852  0.04711390  1.0
  Nb  Nb129  1  0.45766557  0.31922185  0.04711390  1.0
  Nb  Nb130  1  0.45766557  0.65255519  0.04711390  1.0
  Nb  Nb131  1  0.45766557  0.98588852  0.04711390  1.0
  Nb  Nb132  1  0.79099890  0.31922185  0.04711390  1.0
  Nb  Nb133  1  0.79099890  0.65255519  0.04711390  1.0
  Nb  Nb134  1  0.79099890  0.98588852  0.04711390  1.0
  Nb  Nb135  1  0.22433223  0.18588852  0.14711390  1.0
  Nb  Nb136  1  0.22433223  0.51922185  0.14711390  1.0
  Nb  Nb137  1  0.22433223  0.85255519  0.14711390  1.0
  Nb  Nb138  1  0.55766557  0.18588852  0.14711390  1.0
  Nb  Nb139  1  0.55766557  0.51922185  0.14711390  1.0
  Nb  Nb140  1  0.55766557  0.85255519  0.14711390  1.0
  Nb  Nb141  1  0.89099890  0.18588852  0.14711390  1.0
  Nb  Nb142  1  0.89099890  0.51922185  0.14711390  1.0
  Nb  Nb143  1  0.89099890  0.85255519  0.14711390  1.0
  Nb  Nb144  1  0.25063112  0.28588852  0.19711390  1.0
  Nb  Nb145  1  0.25063112  0.61922186  0.19711390  1.0
  Nb  Nb146  1  0.25063112  0.95255519  0.19711390  1.0
  Nb  Nb147  1  0.58396446  0.28588852  0.19711390  1.0
  Nb  Nb148  1  0.58396446  0.61922186  0.19711390  1.0
  Nb  Nb149  1  0.58396446  0.95255519  0.19711390  1.0
  Nb  Nb150  1  0.91729779  0.28588852  0.19711390  1.0
  Nb  Nb151  1  0.91729779  0.61922186  0.19711390  1.0
  Nb  Nb152  1  0.91729779  0.95255519  0.19711390  1.0
  Nb  Nb153  1  0.15063112  0.08588852  0.09711390  1.0
  Nb  Nb154  1  0.15063112  0.41922186  0.09711390  1.0
  Nb  Nb155  1  0.15063112  0.75255519  0.09711390  1.0
  Nb  Nb156  1  0.48396446  0.08588852  0.09711390  1.0
  Nb  Nb157  1  0.48396446  0.41922186  0.09711390  1.0
  Nb  Nb158  1  0.48396446  0.75255519  0.09711390  1.0
  Nb  Nb159  1  0.81729779  0.08588852  0.09711390  1.0
  Nb  Nb160  1  0.81729779  0.41922186  0.09711390  1.0
  Nb  Nb161  1  0.81729779  0.75255519  0.09711390  1.0
  Nb  Nb162  1  0.20781734  0.03359430  0.01133457  1.0
  Nb  Nb163  1  0.20781734  0.36692763  0.01133457  1.0
  Nb  Nb164  1  0.20781734  0.70026097  0.01133457  1.0
  Nb  Nb165  1  0.54115068  0.03359430  0.01133457  1.0
  Nb  Nb166  1  0.54115068  0.36692763  0.01133457  1.0
  Nb  Nb167  1  0.54115068  0.70026097  0.01133457  1.0
  Nb  Nb168  1  0.87448401  0.03359430  0.01133457  1.0
  Nb  Nb169  1  0.87448401  0.36692763  0.01133457  1.0
  Nb  Nb170  1  0.87448401  0.70026097  0.01133457  1.0
  Nb  Nb171  1  0.30781734  0.23359430  0.11133457  1.0
  Nb  Nb172  1  0.30781734  0.56692763  0.11133457  1.0
  Nb  Nb173  1  0.30781734  0.90026097  0.11133457  1.0
  Nb  Nb174  1  0.64115068  0.23359430  0.11133457  1.0
  Nb  Nb175  1  0.64115068  0.56692763  0.11133457  1.0
  Nb  Nb176  1  0.64115068  0.90026097  0.11133457  1.0
  Nb  Nb177  1  0.97448401  0.23359430  0.11133457  1.0
  Nb  Nb178  1  0.97448401  0.56692763  0.11133457  1.0
  Nb  Nb179  1  0.97448401  0.90026097  0.11133457  1.0
  Nb  Nb180  1  0.31803810  0.14700137  0.00655510  1.0
  Nb  Nb181  1  0.31803810  0.48033470  0.00655510  1.0
  Nb  Nb182  1  0.31803810  0.81366803  0.00655510  1.0
  Nb  Nb183  1  0.65137143  0.14700137  0.00655510  1.0
  Nb  Nb184  1  0.65137143  0.48033470  0.00655510  1.0
  Nb  Nb185  1  0.65137143  0.81366803  0.00655510  1.0
  Nb  Nb186  1  0.98470477  0.14700137  0.00655510  1.0
  Nb  Nb187  1  0.98470477  0.48033470  0.00655510  1.0
  Nb  Nb188  1  0.98470477  0.81366803  0.00655510  1.0
  Nb  Nb189  1  0.08470477  0.01366803  0.10655510  1.0
  Nb  Nb190  1  0.08470477  0.34700137  0.10655510  1.0
  Nb  Nb191  1  0.08470477  0.68033470  0.10655510  1.0
  Nb  Nb192  1  0.41803810  0.01366803  0.10655510  1.0
  Nb  Nb193  1  0.41803810  0.34700137  0.10655510  1.0
  Nb  Nb194  1  0.41803810  0.68033470  0.10655510  1.0
  Nb  Nb195  1  0.75137143  0.01366803  0.10655510  1.0
  Nb  Nb196  1  0.75137143  0.34700137  0.10655510  1.0
  Nb  Nb197  1  0.75137143  0.68033470  0.10655510  1.0
  Nb  Nb198  1  0.26885170  0.04862857  0.08033470  1.0
  Nb  Nb199  1  0.26885170  0.38196190  0.08033470  1.0
  Nb  Nb200  1  0.26885170  0.71529523  0.08033470  1.0
  Nb  Nb201  1  0.60218503  0.04862857  0.08033470  1.0
  Nb  Nb202  1  0.60218503  0.38196190  0.08033470  1.0
  Nb  Nb203  1  0.60218503  0.71529523  0.08033470  1.0
  Nb  Nb204  1  0.93551837  0.04862857  0.08033470  1.0
  Nb  Nb205  1  0.93551837  0.38196190  0.08033470  1.0
  Nb  Nb206  1  0.93551837  0.71529523  0.08033470  1.0
  Nb  Nb207  1  0.03551837  0.24862857  0.18033470  1.0
  Nb  Nb208  1  0.03551837  0.58196190  0.18033470  1.0
  Nb  Nb209  1  0.03551837  0.91529523  0.18033470  1.0
  Nb  Nb210  1  0.36885170  0.24862857  0.18033470  1.0
  Nb  Nb211  1  0.36885170  0.58196190  0.18033470  1.0
  Nb  Nb212  1  0.36885170  0.91529523  0.18033470  1.0
  Nb  Nb213  1  0.70218503  0.24862857  0.18033470  1.0
  Nb  Nb214  1  0.70218503  0.58196190  0.18033470  1.0
  Nb  Nb215  1  0.70218503  0.91529523  0.18033470  1.0
  Nb  Nb216  1  0.11803810  0.24700137  0.05655510  1.0
  Nb  Nb217  1  0.11803810  0.58033470  0.05655510  1.0
  Nb  Nb218  1  0.11803810  0.91366803  0.05655510  1.0
  Nb  Nb219  1  0.45137143  0.24700137  0.05655510  1.0
  Nb  Nb220  1  0.45137143  0.58033470  0.05655510  1.0
  Nb  Nb221  1  0.45137143  0.91366803  0.05655510  1.0
  Nb  Nb222  1  0.78470477  0.24700137  0.05655510  1.0
  Nb  Nb223  1  0.78470477  0.58033470  0.05655510  1.0
  Nb  Nb224  1  0.78470477  0.91366803  0.05655510  1.0
  Nb  Nb225  1  0.21803810  0.11366803  0.15655510  1.0
  Nb  Nb226  1  0.21803810  0.44700137  0.15655510  1.0
  Nb  Nb227  1  0.21803810  0.78033470  0.15655510  1.0
  Nb  Nb228  1  0.55137143  0.11366803  0.15655510  1.0
  Nb  Nb229  1  0.55137143  0.44700137  0.15655510  1.0
  Nb  Nb230  1  0.55137143  0.78033470  0.15655510  1.0
  Nb  Nb231  1  0.88470477  0.11366803  0.15655510  1.0
  Nb  Nb232  1  0.88470477  0.44700137  0.15655510  1.0
  Nb  Nb233  1  0.88470477  0.78033470  0.15655510  1.0
  Nb  Nb234  1  0.25492790  0.06448163  0.19344490  1.0
  Nb  Nb235  1  0.25492790  0.39781497  0.19344490  1.0
  Nb  Nb236  1  0.25492790  0.73114830  0.19344490  1.0
  Nb  Nb237  1  0.58826123  0.06448163  0.19344490  1.0
  Nb  Nb238  1  0.58826123  0.39781497  0.19344490  1.0
  Nb  Nb239  1  0.58826123  0.73114830  0.19344490  1.0
  Nb  Nb240  1  0.92159457  0.06448163  0.19344490  1.0
  Nb  Nb241  1  0.92159457  0.39781497  0.19344490  1.0
  Nb  Nb242  1  0.92159457  0.73114830  0.19344490  1.0
  Nb  Nb243  1  0.15492790  0.19781497  0.09344490  1.0
  Nb  Nb244  1  0.15492790  0.53114830  0.09344490  1.0
  Nb  Nb245  1  0.15492790  0.86448163  0.09344490  1.0
  Nb  Nb246  1  0.48826123  0.19781497  0.09344490  1.0
  Nb  Nb247  1  0.48826123  0.53114830  0.09344490  1.0
  Nb  Nb248  1  0.48826123  0.86448163  0.09344490  1.0
  Nb  Nb249  1  0.82159457  0.19781497  0.09344490  1.0
  Nb  Nb250  1  0.82159457  0.53114830  0.09344490  1.0
  Nb  Nb251  1  0.82159457  0.86448163  0.09344490  1.0
  Nb  Nb252  1  0.30574150  0.12240817  0.11722450  1.0
  Nb  Nb253  1  0.30574150  0.45574150  0.11722450  1.0
  Nb  Nb254  1  0.30574150  0.78907483  0.11722450  1.0
  Nb  Nb255  1  0.63907483  0.12240817  0.11722450  1.0
  Nb  Nb256  1  0.63907483  0.45574150  0.11722450  1.0
  Nb  Nb257  1  0.63907483  0.78907483  0.11722450  1.0
  Nb  Nb258  1  0.97240817  0.12240817  0.11722450  1.0
  Nb  Nb259  1  0.97240817  0.45574150  0.11722450  1.0
  Nb  Nb260  1  0.97240817  0.78907483  0.11722450  1.0
  Nb  Nb261  1  0.20574150  0.25574150  0.01722450  1.0
  Nb  Nb262  1  0.20574150  0.58907483  0.01722450  1.0
  Nb  Nb263  1  0.20574150  0.92240817  0.01722450  1.0
  Nb  Nb264  1  0.53907483  0.25574150  0.01722450  1.0
  Nb  Nb265  1  0.53907483  0.58907483  0.01722450  1.0
  Nb  Nb266  1  0.53907483  0.92240817  0.01722450  1.0
  Nb  Nb267  1  0.87240817  0.25574150  0.01722450  1.0
  Nb  Nb268  1  0.87240817  0.58907483  0.01722450  1.0
  Nb  Nb269  1  0.87240817  0.92240817  0.01722450  1.0
  Nb  Nb270  1  0.00292534  0.07640808  0.13977590  1.0
  Nb  Nb271  1  0.00292534  0.40974141  0.13977590  1.0
  Nb  Nb272  1  0.00292534  0.74307474  0.13977590  1.0
  Nb  Nb273  1  0.33625868  0.07640808  0.13977590  1.0
  Nb  Nb274  1  0.33625868  0.40974141  0.13977590  1.0
  Nb  Nb275  1  0.33625868  0.74307474  0.13977590  1.0
  Nb  Nb276  1  0.66959201  0.07640808  0.13977590  1.0
  Nb  Nb277  1  0.66959201  0.40974141  0.13977590  1.0
  Nb  Nb278  1  0.66959201  0.74307474  0.13977590  1.0
  Nb  Nb279  1  0.23625868  0.20974141  0.03977590  1.0
  Nb  Nb280  1  0.23625868  0.54307474  0.03977590  1.0
  Nb  Nb281  1  0.23625868  0.87640808  0.03977590  1.0
  Nb  Nb282  1  0.56959201  0.20974141  0.03977590  1.0
  Nb  Nb283  1  0.56959201  0.54307474  0.03977590  1.0
  Nb  Nb284  1  0.56959201  0.87640808  0.03977590  1.0
  Nb  Nb285  1  0.90292534  0.20974141  0.03977590  1.0
  Nb  Nb286  1  0.90292534  0.54307474  0.03977590  1.0
  Nb  Nb287  1  0.90292534  0.87640808  0.03977590  1.0
  Nb  Nb288  1  0.17907246  0.26203563  0.12555523  1.0
  Nb  Nb289  1  0.17907246  0.59536897  0.12555523  1.0
  Nb  Nb290  1  0.17907246  0.92870230  0.12555523  1.0
  Nb  Nb291  1  0.51240579  0.26203563  0.12555523  1.0
  Nb  Nb292  1  0.51240579  0.59536897  0.12555523  1.0
  Nb  Nb293  1  0.51240579  0.92870230  0.12555523  1.0
  Nb  Nb294  1  0.84573912  0.26203563  0.12555523  1.0
  Nb  Nb295  1  0.84573912  0.59536897  0.12555523  1.0
  Nb  Nb296  1  0.84573912  0.92870230  0.12555523  1.0
  Nb  Nb297  1  0.07907246  0.06203563  0.02555523  1.0
  Nb  Nb298  1  0.07907246  0.39536897  0.02555523  1.0
  Nb  Nb299  1  0.07907246  0.72870230  0.02555523  1.0
  Nb  Nb300  1  0.41240579  0.06203563  0.02555523  1.0
  Nb  Nb301  1  0.41240579  0.39536897  0.02555523  1.0
  Nb  Nb302  1  0.41240579  0.72870230  0.02555523  1.0
  Nb  Nb303  1  0.74573912  0.06203563  0.02555523  1.0
  Nb  Nb304  1  0.74573912  0.39536897  0.02555523  1.0
  Nb  Nb305  1  0.74573912  0.72870230  0.02555523  1.0
  Nb  Nb306  1  0.13196190  0.06448163  0.19344490  1.0
  Nb  Nb307  1  0.13196190  0.39781497  0.19344490  1.0
  Nb  Nb308  1  0.13196190  0.73114830  0.19344490  1.0
  Nb  Nb309  1  0.46529523  0.06448163  0.19344490  1.0
  Nb  Nb310  1  0.46529523  0.39781497  0.19344490  1.0
  Nb  Nb311  1  0.46529523  0.73114830  0.19344490  1.0
  Nb  Nb312  1  0.79862857  0.06448163  0.19344490  1.0
  Nb  Nb313  1  0.79862857  0.39781497  0.19344490  1.0
  Nb  Nb314  1  0.79862857  0.73114830  0.19344490  1.0
  Nb  Nb315  1  0.03196190  0.19781497  0.09344490  1.0
  Nb  Nb316  1  0.03196190  0.53114830  0.09344490  1.0
  Nb  Nb317  1  0.03196190  0.86448163  0.09344490  1.0
  Nb  Nb318  1  0.36529523  0.19781497  0.09344490  1.0
  Nb  Nb319  1  0.36529523  0.53114830  0.09344490  1.0
  Nb  Nb320  1  0.36529523  0.86448163  0.09344490  1.0
  Nb  Nb321  1  0.69862857  0.19781497  0.09344490  1.0
  Nb  Nb322  1  0.69862857  0.53114830  0.09344490  1.0
  Nb  Nb323  1  0.69862857  0.86448163  0.09344490  1.0
  Nb  Nb324  1  0.18114830  0.03988843  0.11966530  1.0
  Nb  Nb325  1  0.18114830  0.37322177  0.11966530  1.0
  Nb  Nb326  1  0.18114830  0.70655510  0.11966530  1.0
  Nb  Nb327  1  0.51448163  0.03988843  0.11966530  1.0
  Nb  Nb328  1  0.51448163  0.37322177  0.11966530  1.0
  Nb  Nb329  1  0.51448163  0.70655510  0.11966530  1.0
  Nb  Nb330  1  0.84781497  0.03988843  0.11966530  1.0
  Nb  Nb331  1  0.84781497  0.37322177  0.11966530  1.0
  Nb  Nb332  1  0.84781497  0.70655510  0.11966530  1.0
  Nb  Nb333  1  0.08114830  0.17322177  0.01966530  1.0
  Nb  Nb334  1  0.08114830  0.50655510  0.01966530  1.0
  Nb  Nb335  1  0.08114830  0.83988843  0.01966530  1.0
  Nb  Nb336  1  0.41448163  0.17322177  0.01966530  1.0
  Nb  Nb337  1  0.41448163  0.50655510  0.01966530  1.0
  Nb  Nb338  1  0.41448163  0.83988843  0.01966530  1.0
  Nb  Nb339  1  0.74781497  0.17322177  0.01966530  1.0
  Nb  Nb340  1  0.74781497  0.50655510  0.01966530  1.0
  Nb  Nb341  1  0.74781497  0.83988843  0.01966530  1.0
  Nb  Nb342  1  0.06885170  0.14862857  0.13033470  1.0
  Nb  Nb343  1  0.06885170  0.48196190  0.13033470  1.0
  Nb  Nb344  1  0.06885170  0.81529523  0.13033470  1.0
  Nb  Nb345  1  0.40218503  0.14862857  0.13033470  1.0
  Nb  Nb346  1  0.40218503  0.48196190  0.13033470  1.0
  Nb  Nb347  1  0.40218503  0.81529523  0.13033470  1.0
  Nb  Nb348  1  0.73551837  0.14862857  0.13033470  1.0
  Nb  Nb349  1  0.73551837  0.48196190  0.13033470  1.0
  Nb  Nb350  1  0.73551837  0.81529523  0.13033470  1.0
  Nb  Nb351  1  0.30218503  0.28196190  0.03033470  1.0
  Nb  Nb352  1  0.30218503  0.61529523  0.03033470  1.0
  Nb  Nb353  1  0.30218503  0.94862857  0.03033470  1.0
  Nb  Nb354  1  0.63551837  0.28196190  0.03033470  1.0
  Nb  Nb355  1  0.63551837  0.61529523  0.03033470  1.0
  Nb  Nb356  1  0.63551837  0.94862857  0.03033470  1.0
  Nb  Nb357  1  0.96885170  0.28196190  0.03033470  1.0
  Nb  Nb358  1  0.96885170  0.61529523  0.03033470  1.0
  Nb  Nb359  1  0.96885170  0.94862857  0.03033470  1.0
  Nb  Nb360  1  0.08151846  0.06692763  0.36133457  1.0
  Nb  Nb361  1  0.08151846  0.40026097  0.36133457  1.0
  Nb  Nb362  1  0.08151846  0.73359430  0.36133457  1.0
  Nb  Nb363  1  0.41485179  0.06692763  0.36133457  1.0
  Nb  Nb364  1  0.41485179  0.40026097  0.36133457  1.0
  Nb  Nb365  1  0.41485179  0.73359430  0.36133457  1.0
  Nb  Nb366  1  0.74818512  0.06692763  0.36133457  1.0
  Nb  Nb367  1  0.74818512  0.40026097  0.36133457  1.0
  Nb  Nb368  1  0.74818512  0.73359430  0.36133457  1.0
  Nb  Nb369  1  0.31485179  0.20026097  0.26133457  1.0
  Nb  Nb370  1  0.31485179  0.53359430  0.26133457  1.0
  Nb  Nb371  1  0.31485179  0.86692763  0.26133457  1.0
  Nb  Nb372  1  0.64818512  0.20026097  0.26133457  1.0
  Nb  Nb373  1  0.64818512  0.53359430  0.26133457  1.0
  Nb  Nb374  1  0.64818512  0.86692763  0.26133457  1.0
  Nb  Nb375  1  0.98151846  0.20026097  0.26133457  1.0
  Nb  Nb376  1  0.98151846  0.53359430  0.26133457  1.0
  Nb  Nb377  1  0.98151846  0.86692763  0.26133457  1.0
  Nb  Nb378  1  0.20574150  0.08907483  0.26722450  1.0
  Nb  Nb379  1  0.20574150  0.42240817  0.26722450  1.0
  Nb  Nb380  1  0.20574150  0.75574150  0.26722450  1.0
  Nb  Nb381  1  0.53907483  0.08907483  0.26722450  1.0
  Nb  Nb382  1  0.53907483  0.42240817  0.26722450  1.0
  Nb  Nb383  1  0.53907483  0.75574150  0.26722450  1.0
  Nb  Nb384  1  0.87240817  0.08907483  0.26722450  1.0
  Nb  Nb385  1  0.87240817  0.42240817  0.26722450  1.0
  Nb  Nb386  1  0.87240817  0.75574150  0.26722450  1.0
  Nb  Nb387  1  0.30574150  0.28907483  0.36722450  1.0
  Nb  Nb388  1  0.30574150  0.62240817  0.36722450  1.0
  Nb  Nb389  1  0.30574150  0.95574150  0.36722450  1.0
  Nb  Nb390  1  0.63907483  0.28907483  0.36722450  1.0
  Nb  Nb391  1  0.63907483  0.62240817  0.36722450  1.0
  Nb  Nb392  1  0.63907483  0.95574150  0.36722450  1.0
  Nb  Nb393  1  0.97240817  0.28907483  0.36722450  1.0
  Nb  Nb394  1  0.97240817  0.62240817  0.36722450  1.0
  Nb  Nb395  1  0.97240817  0.95574150  0.36722450  1.0
  Nb  Nb396  1  0.12922423  0.04307475  0.28977590  1.0
  Nb  Nb397  1  0.12922423  0.37640808  0.28977590  1.0
  Nb  Nb398  1  0.12922423  0.70974141  0.28977590  1.0
  Nb  Nb399  1  0.46255757  0.04307475  0.28977590  1.0
  Nb  Nb400  1  0.46255757  0.37640808  0.28977590  1.0
  Nb  Nb401  1  0.46255757  0.70974141  0.28977590  1.0
  Nb  Nb402  1  0.79589090  0.04307475  0.28977590  1.0
  Nb  Nb403  1  0.79589090  0.37640808  0.28977590  1.0
  Nb  Nb404  1  0.79589090  0.70974141  0.28977590  1.0
  Nb  Nb405  1  0.22922423  0.24307475  0.38977590  1.0
  Nb  Nb406  1  0.22922423  0.57640808  0.38977590  1.0
  Nb  Nb407  1  0.22922423  0.90974141  0.38977590  1.0
  Nb  Nb408  1  0.56255757  0.24307475  0.38977590  1.0
  Nb  Nb409  1  0.56255757  0.57640808  0.38977590  1.0
  Nb  Nb410  1  0.56255757  0.90974141  0.38977590  1.0
  Nb  Nb411  1  0.89589090  0.24307475  0.38977590  1.0
  Nb  Nb412  1  0.89589090  0.57640808  0.38977590  1.0
  Nb  Nb413  1  0.89589090  0.90974141  0.38977590  1.0
  Nb  Nb414  1  0.01448163  0.20655510  0.36966530  1.0
  Nb  Nb415  1  0.01448163  0.53988843  0.36966530  1.0
  Nb  Nb416  1  0.01448163  0.87322177  0.36966530  1.0
  Nb  Nb417  1  0.34781497  0.20655510  0.36966530  1.0
  Nb  Nb418  1  0.34781497  0.53988843  0.36966530  1.0
  Nb  Nb419  1  0.34781497  0.87322177  0.36966530  1.0
  Nb  Nb420  1  0.68114830  0.20655510  0.36966530  1.0
  Nb  Nb421  1  0.68114830  0.53988843  0.36966530  1.0
  Nb  Nb422  1  0.68114830  0.87322177  0.36966530  1.0
  Nb  Nb423  1  0.24781497  0.00655510  0.26966530  1.0
  Nb  Nb424  1  0.24781497  0.33988843  0.26966530  1.0
  Nb  Nb425  1  0.24781497  0.67322177  0.26966530  1.0
  Nb  Nb426  1  0.58114830  0.00655510  0.26966530  1.0
  Nb  Nb427  1  0.58114830  0.33988843  0.26966530  1.0
  Nb  Nb428  1  0.58114830  0.67322177  0.26966530  1.0
  Nb  Nb429  1  0.91448163  0.00655510  0.26966530  1.0
  Nb  Nb430  1  0.91448163  0.33988843  0.26966530  1.0
  Nb  Nb431  1  0.91448163  0.67322177  0.26966530  1.0
  Nb  Nb432  1  0.23870468  0.09536897  0.37555523  1.0
  Nb  Nb433  1  0.23870468  0.42870230  0.37555523  1.0
  Nb  Nb434  1  0.23870468  0.76203563  0.37555523  1.0
  Nb  Nb435  1  0.57203801  0.09536897  0.37555523  1.0
  Nb  Nb436  1  0.57203801  0.42870230  0.37555523  1.0
  Nb  Nb437  1  0.57203801  0.76203563  0.37555523  1.0
  Nb  Nb438  1  0.90537134  0.09536897  0.37555523  1.0
  Nb  Nb439  1  0.90537134  0.42870230  0.37555523  1.0
  Nb  Nb440  1  0.90537134  0.76203563  0.37555523  1.0
  Nb  Nb441  1  0.13870468  0.22870230  0.27555523  1.0
  Nb  Nb442  1  0.13870468  0.56203563  0.27555523  1.0
  Nb  Nb443  1  0.13870468  0.89536897  0.27555523  1.0
  Nb  Nb444  1  0.47203801  0.22870230  0.27555523  1.0
  Nb  Nb445  1  0.47203801  0.56203563  0.27555523  1.0
  Nb  Nb446  1  0.47203801  0.89536897  0.27555523  1.0
  Nb  Nb447  1  0.80537134  0.22870230  0.27555523  1.0
  Nb  Nb448  1  0.80537134  0.56203563  0.27555523  1.0
  Nb  Nb449  1  0.80537134  0.89536897  0.27555523  1.0
  Nb  Nb450  1  0.22159457  0.16448163  0.24344490  1.0
  Nb  Nb451  1  0.22159457  0.49781497  0.24344490  1.0
  Nb  Nb452  1  0.22159457  0.83114830  0.24344490  1.0
  Nb  Nb453  1  0.55492790  0.16448163  0.24344490  1.0
  Nb  Nb454  1  0.55492790  0.49781497  0.24344490  1.0
  Nb  Nb455  1  0.55492790  0.83114830  0.24344490  1.0
  Nb  Nb456  1  0.88826123  0.16448163  0.24344490  1.0
  Nb  Nb457  1  0.88826123  0.49781497  0.24344490  1.0
  Nb  Nb458  1  0.88826123  0.83114830  0.24344490  1.0
  Nb  Nb459  1  0.32159457  0.03114830  0.34344490  1.0
  Nb  Nb460  1  0.32159457  0.36448163  0.34344490  1.0
  Nb  Nb461  1  0.32159457  0.69781497  0.34344490  1.0
  Nb  Nb462  1  0.65492790  0.03114830  0.34344490  1.0
  Nb  Nb463  1  0.65492790  0.36448163  0.34344490  1.0
  Nb  Nb464  1  0.65492790  0.69781497  0.34344490  1.0
  Nb  Nb465  1  0.98826123  0.03114830  0.34344490  1.0
  Nb  Nb466  1  0.98826123  0.36448163  0.34344490  1.0
  Nb  Nb467  1  0.98826123  0.69781497  0.34344490  1.0
  Nb  Nb468  1  0.09862857  0.16448163  0.24344490  1.0
  Nb  Nb469  1  0.09862857  0.49781497  0.24344490  1.0
  Nb  Nb470  1  0.09862857  0.83114830  0.24344490  1.0
  Nb  Nb471  1  0.43196190  0.16448163  0.24344490  1.0
  Nb  Nb472  1  0.43196190  0.49781497  0.24344490  1.0
  Nb  Nb473  1  0.43196190  0.83114830  0.24344490  1.0
  Nb  Nb474  1  0.76529523  0.16448163  0.24344490  1.0
  Nb  Nb475  1  0.76529523  0.49781497  0.24344490  1.0
  Nb  Nb476  1  0.76529523  0.83114830  0.24344490  1.0
  Nb  Nb477  1  0.19862857  0.03114830  0.34344490  1.0
  Nb  Nb478  1  0.19862857  0.36448163  0.34344490  1.0
  Nb  Nb479  1  0.19862857  0.69781497  0.34344490  1.0
  Nb  Nb480  1  0.53196190  0.03114830  0.34344490  1.0
  Nb  Nb481  1  0.53196190  0.36448163  0.34344490  1.0
  Nb  Nb482  1  0.53196190  0.69781497  0.34344490  1.0
  Nb  Nb483  1  0.86529523  0.03114830  0.34344490  1.0
  Nb  Nb484  1  0.86529523  0.36448163  0.34344490  1.0
  Nb  Nb485  1  0.86529523  0.69781497  0.34344490  1.0
  Nb  Nb486  1  0.32433223  0.05255519  0.24711390  1.0
  Nb  Nb487  1  0.32433223  0.38588852  0.24711390  1.0
  Nb  Nb488  1  0.32433223  0.71922185  0.24711390  1.0
  Nb  Nb489  1  0.65766557  0.05255519  0.24711390  1.0
  Nb  Nb490  1  0.65766557  0.38588852  0.24711390  1.0
  Nb  Nb491  1  0.65766557  0.71922185  0.24711390  1.0
  Nb  Nb492  1  0.99099890  0.05255519  0.24711390  1.0
  Nb  Nb493  1  0.99099890  0.38588852  0.24711390  1.0
  Nb  Nb494  1  0.99099890  0.71922185  0.24711390  1.0
  Nb  Nb495  1  0.09099890  0.25255519  0.34711390  1.0
  Nb  Nb496  1  0.09099890  0.58588852  0.34711390  1.0
  Nb  Nb497  1  0.09099890  0.91922185  0.34711390  1.0
  Nb  Nb498  1  0.42433223  0.25255519  0.34711390  1.0
  Nb  Nb499  1  0.42433223  0.58588852  0.34711390  1.0
  Nb  Nb500  1  0.42433223  0.91922185  0.34711390  1.0
  Nb  Nb501  1  0.75766557  0.25255519  0.34711390  1.0
  Nb  Nb502  1  0.75766557  0.58588852  0.34711390  1.0
  Nb  Nb503  1  0.75766557  0.91922185  0.34711390  1.0
  Nb  Nb504  1  0.11729779  0.01922186  0.39711390  1.0
  Nb  Nb505  1  0.11729779  0.35255519  0.39711390  1.0
  Nb  Nb506  1  0.11729779  0.68588852  0.39711390  1.0
  Nb  Nb507  1  0.45063112  0.01922186  0.39711390  1.0
  Nb  Nb508  1  0.45063112  0.35255519  0.39711390  1.0
  Nb  Nb509  1  0.45063112  0.68588852  0.39711390  1.0
  Nb  Nb510  1  0.78396446  0.01922186  0.39711390  1.0
  Nb  Nb511  1  0.78396446  0.35255519  0.39711390  1.0
  Nb  Nb512  1  0.78396446  0.68588852  0.39711390  1.0
  Nb  Nb513  1  0.01729779  0.15255519  0.29711390  1.0
  Nb  Nb514  1  0.01729779  0.48588852  0.29711390  1.0
  Nb  Nb515  1  0.01729779  0.81922186  0.29711390  1.0
  Nb  Nb516  1  0.35063112  0.15255519  0.29711390  1.0
  Nb  Nb517  1  0.35063112  0.48588852  0.29711390  1.0
  Nb  Nb518  1  0.35063112  0.81922186  0.29711390  1.0
  Nb  Nb519  1  0.68396446  0.15255519  0.29711390  1.0
  Nb  Nb520  1  0.68396446  0.48588852  0.29711390  1.0
  Nb  Nb521  1  0.68396446  0.81922186  0.29711390  1.0
  Nb  Nb522  1  0.07448401  0.10026097  0.21133457  1.0
  Nb  Nb523  1  0.07448401  0.43359430  0.21133457  1.0
  Nb  Nb524  1  0.07448401  0.76692763  0.21133457  1.0
  Nb  Nb525  1  0.40781734  0.10026097  0.21133457  1.0
  Nb  Nb526  1  0.40781734  0.43359430  0.21133457  1.0
  Nb  Nb527  1  0.40781734  0.76692763  0.21133457  1.0
  Nb  Nb528  1  0.74115068  0.10026097  0.21133457  1.0
  Nb  Nb529  1  0.74115068  0.43359430  0.21133457  1.0
  Nb  Nb530  1  0.74115068  0.76692763  0.21133457  1.0
  Nb  Nb531  1  0.17448401  0.30026097  0.31133457  1.0
  Nb  Nb532  1  0.17448401  0.63359430  0.31133457  1.0
  Nb  Nb533  1  0.17448401  0.96692763  0.31133457  1.0
  Nb  Nb534  1  0.50781734  0.30026097  0.31133457  1.0
  Nb  Nb535  1  0.50781734  0.63359430  0.31133457  1.0
  Nb  Nb536  1  0.50781734  0.96692763  0.31133457  1.0
  Nb  Nb537  1  0.84115068  0.30026097  0.31133457  1.0
  Nb  Nb538  1  0.84115068  0.63359430  0.31133457  1.0
  Nb  Nb539  1  0.84115068  0.96692763  0.31133457  1.0
  Nb  Nb540  1  0.18470477  0.21366803  0.20655510  1.0
  Nb  Nb541  1  0.18470477  0.54700137  0.20655510  1.0
  Nb  Nb542  1  0.18470477  0.88033470  0.20655510  1.0
  Nb  Nb543  1  0.51803810  0.21366803  0.20655510  1.0
  Nb  Nb544  1  0.51803810  0.54700137  0.20655510  1.0
  Nb  Nb545  1  0.51803810  0.88033470  0.20655510  1.0
  Nb  Nb546  1  0.85137143  0.21366803  0.20655510  1.0
  Nb  Nb547  1  0.85137143  0.54700137  0.20655510  1.0
  Nb  Nb548  1  0.85137143  0.88033470  0.20655510  1.0
  Nb  Nb549  1  0.28470477  0.08033470  0.30655510  1.0
  Nb  Nb550  1  0.28470477  0.41366803  0.30655510  1.0
  Nb  Nb551  1  0.28470477  0.74700137  0.30655510  1.0
  Nb  Nb552  1  0.61803810  0.08033470  0.30655510  1.0
  Nb  Nb553  1  0.61803810  0.41366803  0.30655510  1.0
  Nb  Nb554  1  0.61803810  0.74700137  0.30655510  1.0
  Nb  Nb555  1  0.95137143  0.08033470  0.30655510  1.0
  Nb  Nb556  1  0.95137143  0.41366803  0.30655510  1.0
  Nb  Nb557  1  0.95137143  0.74700137  0.30655510  1.0
  Nb  Nb558  1  0.13551837  0.11529523  0.28033470  1.0
  Nb  Nb559  1  0.13551837  0.44862857  0.28033470  1.0
  Nb  Nb560  1  0.13551837  0.78196190  0.28033470  1.0
  Nb  Nb561  1  0.46885170  0.11529523  0.28033470  1.0
  Nb  Nb562  1  0.46885170  0.44862857  0.28033470  1.0
  Nb  Nb563  1  0.46885170  0.78196190  0.28033470  1.0
  Nb  Nb564  1  0.80218503  0.11529523  0.28033470  1.0
  Nb  Nb565  1  0.80218503  0.44862857  0.28033470  1.0
  Nb  Nb566  1  0.80218503  0.78196190  0.28033470  1.0
  Nb  Nb567  1  0.23551837  0.31529523  0.38033470  1.0
  Nb  Nb568  1  0.23551837  0.64862857  0.38033470  1.0
  Nb  Nb569  1  0.23551837  0.98196190  0.38033470  1.0
  Nb  Nb570  1  0.56885170  0.31529523  0.38033470  1.0
  Nb  Nb571  1  0.56885170  0.64862857  0.38033470  1.0
  Nb  Nb572  1  0.56885170  0.98196190  0.38033470  1.0
  Nb  Nb573  1  0.90218503  0.31529523  0.38033470  1.0
  Nb  Nb574  1  0.90218503  0.64862857  0.38033470  1.0
  Nb  Nb575  1  0.90218503  0.98196190  0.38033470  1.0
  Nb  Nb576  1  0.31803810  0.31366803  0.25655510  1.0
  Nb  Nb577  1  0.31803810  0.64700137  0.25655510  1.0
  Nb  Nb578  1  0.31803810  0.98033470  0.25655510  1.0
  Nb  Nb579  1  0.65137143  0.31366803  0.25655510  1.0
  Nb  Nb580  1  0.65137143  0.64700137  0.25655510  1.0
  Nb  Nb581  1  0.65137143  0.98033470  0.25655510  1.0
  Nb  Nb582  1  0.98470477  0.31366803  0.25655510  1.0
  Nb  Nb583  1  0.98470477  0.64700137  0.25655510  1.0
  Nb  Nb584  1  0.98470477  0.98033470  0.25655510  1.0
  Nb  Nb585  1  0.08470477  0.18033470  0.35655510  1.0
  Nb  Nb586  1  0.08470477  0.51366803  0.35655510  1.0
  Nb  Nb587  1  0.08470477  0.84700137  0.35655510  1.0
  Nb  Nb588  1  0.41803810  0.18033470  0.35655510  1.0
  Nb  Nb589  1  0.41803810  0.51366803  0.35655510  1.0
  Nb  Nb590  1  0.41803810  0.84700137  0.35655510  1.0
  Nb  Nb591  1  0.75137143  0.18033470  0.35655510  1.0
  Nb  Nb592  1  0.75137143  0.51366803  0.35655510  1.0
  Nb  Nb593  1  0.75137143  0.84700137  0.35655510  1.0
  Nb  Nb594  1  0.12159457  0.13114830  0.39344490  1.0
  Nb  Nb595  1  0.12159457  0.46448163  0.39344490  1.0
  Nb  Nb596  1  0.12159457  0.79781497  0.39344490  1.0
  Nb  Nb597  1  0.45492790  0.13114830  0.39344490  1.0
  Nb  Nb598  1  0.45492790  0.46448163  0.39344490  1.0
  Nb  Nb599  1  0.45492790  0.79781497  0.39344490  1.0
  Nb  Nb600  1  0.78826123  0.13114830  0.39344490  1.0
  Nb  Nb601  1  0.78826123  0.46448163  0.39344490  1.0
  Nb  Nb602  1  0.78826123  0.79781497  0.39344490  1.0
  Nb  Nb603  1  0.02159457  0.26448163  0.29344490  1.0
  Nb  Nb604  1  0.02159457  0.59781497  0.29344490  1.0
  Nb  Nb605  1  0.02159457  0.93114830  0.29344490  1.0
  Nb  Nb606  1  0.35492790  0.26448163  0.29344490  1.0
  Nb  Nb607  1  0.35492790  0.59781497  0.29344490  1.0
  Nb  Nb608  1  0.35492790  0.93114830  0.29344490  1.0
  Nb  Nb609  1  0.68826123  0.26448163  0.29344490  1.0
  Nb  Nb610  1  0.68826123  0.59781497  0.29344490  1.0
  Nb  Nb611  1  0.68826123  0.93114830  0.29344490  1.0
  Nb  Nb612  1  0.17240817  0.18907483  0.31722450  1.0
  Nb  Nb613  1  0.17240817  0.52240817  0.31722450  1.0
  Nb  Nb614  1  0.17240817  0.85574150  0.31722450  1.0
  Nb  Nb615  1  0.50574150  0.18907483  0.31722450  1.0
  Nb  Nb616  1  0.50574150  0.52240817  0.31722450  1.0
  Nb  Nb617  1  0.50574150  0.85574150  0.31722450  1.0
  Nb  Nb618  1  0.83907483  0.18907483  0.31722450  1.0
  Nb  Nb619  1  0.83907483  0.52240817  0.31722450  1.0
  Nb  Nb620  1  0.83907483  0.85574150  0.31722450  1.0
  Nb  Nb621  1  0.07240817  0.32240817  0.21722450  1.0
  Nb  Nb622  1  0.07240817  0.65574150  0.21722450  1.0
  Nb  Nb623  1  0.07240817  0.98907483  0.21722450  1.0
  Nb  Nb624  1  0.40574150  0.32240817  0.21722450  1.0
  Nb  Nb625  1  0.40574150  0.65574150  0.21722450  1.0
  Nb  Nb626  1  0.40574150  0.98907483  0.21722450  1.0
  Nb  Nb627  1  0.73907483  0.32240817  0.21722450  1.0
  Nb  Nb628  1  0.73907483  0.65574150  0.21722450  1.0
  Nb  Nb629  1  0.73907483  0.98907483  0.21722450  1.0
  Nb  Nb630  1  0.20292534  0.14307474  0.33977590  1.0
  Nb  Nb631  1  0.20292534  0.47640808  0.33977590  1.0
  Nb  Nb632  1  0.20292534  0.80974141  0.33977590  1.0
  Nb  Nb633  1  0.53625868  0.14307474  0.33977590  1.0
  Nb  Nb634  1  0.53625868  0.47640808  0.33977590  1.0
  Nb  Nb635  1  0.53625868  0.80974141  0.33977590  1.0
  Nb  Nb636  1  0.86959201  0.14307474  0.33977590  1.0
  Nb  Nb637  1  0.86959201  0.47640808  0.33977590  1.0
  Nb  Nb638  1  0.86959201  0.80974141  0.33977590  1.0
  Nb  Nb639  1  0.10292534  0.27640808  0.23977590  1.0
  Nb  Nb640  1  0.10292534  0.60974141  0.23977590  1.0
  Nb  Nb641  1  0.10292534  0.94307474  0.23977590  1.0
  Nb  Nb642  1  0.43625868  0.27640808  0.23977590  1.0
  Nb  Nb643  1  0.43625868  0.60974141  0.23977590  1.0
  Nb  Nb644  1  0.43625868  0.94307474  0.23977590  1.0
  Nb  Nb645  1  0.76959201  0.27640808  0.23977590  1.0
  Nb  Nb646  1  0.76959201  0.60974141  0.23977590  1.0
  Nb  Nb647  1  0.76959201  0.94307474  0.23977590  1.0
  Nb  Nb648  1  0.04573912  0.32870230  0.32555523  1.0
  Nb  Nb649  1  0.04573912  0.66203563  0.32555523  1.0
  Nb  Nb650  1  0.04573912  0.99536897  0.32555523  1.0
  Nb  Nb651  1  0.37907246  0.32870230  0.32555523  1.0
  Nb  Nb652  1  0.37907246  0.66203563  0.32555523  1.0
  Nb  Nb653  1  0.37907246  0.99536897  0.32555523  1.0
  Nb  Nb654  1  0.71240579  0.32870230  0.32555523  1.0
  Nb  Nb655  1  0.71240579  0.66203563  0.32555523  1.0
  Nb  Nb656  1  0.71240579  0.99536897  0.32555523  1.0
  Nb  Nb657  1  0.27907246  0.12870230  0.22555523  1.0
  Nb  Nb658  1  0.27907246  0.46203563  0.22555523  1.0
  Nb  Nb659  1  0.27907246  0.79536897  0.22555523  1.0
  Nb  Nb660  1  0.61240579  0.12870230  0.22555523  1.0
  Nb  Nb661  1  0.61240579  0.46203563  0.22555523  1.0
  Nb  Nb662  1  0.61240579  0.79536897  0.22555523  1.0
  Nb  Nb663  1  0.94573912  0.12870230  0.22555523  1.0
  Nb  Nb664  1  0.94573912  0.46203563  0.22555523  1.0
  Nb  Nb665  1  0.94573912  0.79536897  0.22555523  1.0
  Nb  Nb666  1  0.33196190  0.13114830  0.39344490  1.0
  Nb  Nb667  1  0.33196190  0.46448163  0.39344490  1.0
  Nb  Nb668  1  0.33196190  0.79781497  0.39344490  1.0
  Nb  Nb669  1  0.66529523  0.13114830  0.39344490  1.0
  Nb  Nb670  1  0.66529523  0.46448163  0.39344490  1.0
  Nb  Nb671  1  0.66529523  0.79781497  0.39344490  1.0
  Nb  Nb672  1  0.99862857  0.13114830  0.39344490  1.0
  Nb  Nb673  1  0.99862857  0.46448163  0.39344490  1.0
  Nb  Nb674  1  0.99862857  0.79781497  0.39344490  1.0
  Nb  Nb675  1  0.23196190  0.26448163  0.29344490  1.0
  Nb  Nb676  1  0.23196190  0.59781497  0.29344490  1.0
  Nb  Nb677  1  0.23196190  0.93114830  0.29344490  1.0
  Nb  Nb678  1  0.56529523  0.26448163  0.29344490  1.0
  Nb  Nb679  1  0.56529523  0.59781497  0.29344490  1.0
  Nb  Nb680  1  0.56529523  0.93114830  0.29344490  1.0
  Nb  Nb681  1  0.89862857  0.26448163  0.29344490  1.0
  Nb  Nb682  1  0.89862857  0.59781497  0.29344490  1.0
  Nb  Nb683  1  0.89862857  0.93114830  0.29344490  1.0
  Nb  Nb684  1  0.04781497  0.10655510  0.31966530  1.0
  Nb  Nb685  1  0.04781497  0.43988843  0.31966530  1.0
  Nb  Nb686  1  0.04781497  0.77322177  0.31966530  1.0
  Nb  Nb687  1  0.38114830  0.10655510  0.31966530  1.0
  Nb  Nb688  1  0.38114830  0.43988843  0.31966530  1.0
  Nb  Nb689  1  0.38114830  0.77322177  0.31966530  1.0
  Nb  Nb690  1  0.71448163  0.10655510  0.31966530  1.0
  Nb  Nb691  1  0.71448163  0.43988843  0.31966530  1.0
  Nb  Nb692  1  0.71448163  0.77322177  0.31966530  1.0
  Nb  Nb693  1  0.28114830  0.23988843  0.21966530  1.0
  Nb  Nb694  1  0.28114830  0.57322177  0.21966530  1.0
  Nb  Nb695  1  0.28114830  0.90655510  0.21966530  1.0
  Nb  Nb696  1  0.61448163  0.23988843  0.21966530  1.0
  Nb  Nb697  1  0.61448163  0.57322177  0.21966530  1.0
  Nb  Nb698  1  0.61448163  0.90655510  0.21966530  1.0
  Nb  Nb699  1  0.94781497  0.23988843  0.21966530  1.0
  Nb  Nb700  1  0.94781497  0.57322177  0.21966530  1.0
  Nb  Nb701  1  0.94781497  0.90655510  0.21966530  1.0
  Nb  Nb702  1  0.26885170  0.21529523  0.33033470  1.0
  Nb  Nb703  1  0.26885170  0.54862857  0.33033470  1.0
  Nb  Nb704  1  0.26885170  0.88196190  0.33033470  1.0
  Nb  Nb705  1  0.60218503  0.21529523  0.33033470  1.0
  Nb  Nb706  1  0.60218503  0.54862857  0.33033470  1.0
  Nb  Nb707  1  0.60218503  0.88196190  0.33033470  1.0
  Nb  Nb708  1  0.93551837  0.21529523  0.33033470  1.0
  Nb  Nb709  1  0.93551837  0.54862857  0.33033470  1.0
  Nb  Nb710  1  0.93551837  0.88196190  0.33033470  1.0
  Nb  Nb711  1  0.16885170  0.01529523  0.23033470  1.0
  Nb  Nb712  1  0.16885170  0.34862857  0.23033470  1.0
  Nb  Nb713  1  0.16885170  0.68196190  0.23033470  1.0
  Nb  Nb714  1  0.50218503  0.01529523  0.23033470  1.0
  Nb  Nb715  1  0.50218503  0.34862857  0.23033470  1.0
  Nb  Nb716  1  0.50218503  0.68196190  0.23033470  1.0
  Nb  Nb717  1  0.83551837  0.01529523  0.23033470  1.0
  Nb  Nb718  1  0.83551837  0.34862857  0.23033470  1.0
  Nb  Nb719  1  0.83551837  0.68196190  0.23033470  1.0
  Ni  Ni720  1  0.07677823  0.08114830  0.11844490  1.0
  Ni  Ni721  1  0.07677823  0.41448163  0.11844490  1.0
  Ni  Ni722  1  0.07677823  0.74781497  0.11844490  1.0
  Ni  Ni723  1  0.41011157  0.08114830  0.11844490  1.0
  Ni  Ni724  1  0.41011157  0.41448163  0.11844490  1.0
  Ni  Ni725  1  0.41011157  0.74781497  0.11844490  1.0
  Ni  Ni726  1  0.74344490  0.08114830  0.11844490  1.0
  Ni  Ni727  1  0.74344490  0.41448163  0.11844490  1.0
  Ni  Ni728  1  0.74344490  0.74781497  0.11844490  1.0
  Ni  Ni729  1  0.31011157  0.21448163  0.01844490  1.0
  Ni  Ni730  1  0.31011157  0.54781497  0.01844490  1.0
  Ni  Ni731  1  0.31011157  0.88114830  0.01844490  1.0
  Ni  Ni732  1  0.64344490  0.21448163  0.01844490  1.0
  Ni  Ni733  1  0.64344490  0.54781497  0.01844490  1.0
  Ni  Ni734  1  0.64344490  0.88114830  0.01844490  1.0
  Ni  Ni735  1  0.97677823  0.21448163  0.01844490  1.0
  Ni  Ni736  1  0.97677823  0.54781497  0.01844490  1.0
  Ni  Ni737  1  0.97677823  0.88114830  0.01844490  1.0
  Ni  Ni738  1  0.14344490  0.04781497  0.01844490  1.0
  Ni  Ni739  1  0.14344490  0.38114830  0.01844490  1.0
  Ni  Ni740  1  0.14344490  0.71448163  0.01844490  1.0
  Ni  Ni741  1  0.47677823  0.04781497  0.01844490  1.0
  Ni  Ni742  1  0.47677823  0.38114830  0.01844490  1.0
  Ni  Ni743  1  0.47677823  0.71448163  0.01844490  1.0
  Ni  Ni744  1  0.81011157  0.04781497  0.01844490  1.0
  Ni  Ni745  1  0.81011157  0.38114830  0.01844490  1.0
  Ni  Ni746  1  0.81011157  0.71448163  0.01844490  1.0
  Ni  Ni747  1  0.24344490  0.24781497  0.11844490  1.0
  Ni  Ni748  1  0.24344490  0.58114830  0.11844490  1.0
  Ni  Ni749  1  0.24344490  0.91448163  0.11844490  1.0
  Ni  Ni750  1  0.57677823  0.24781497  0.11844490  1.0
  Ni  Ni751  1  0.57677823  0.58114830  0.11844490  1.0
  Ni  Ni752  1  0.57677823  0.91448163  0.11844490  1.0
  Ni  Ni753  1  0.91011157  0.24781497  0.11844490  1.0
  Ni  Ni754  1  0.91011157  0.58114830  0.11844490  1.0
  Ni  Ni755  1  0.91011157  0.91448163  0.11844490  1.0
  Ni  Ni756  1  0.29344490  0.01448163  0.16844490  1.0
  Ni  Ni757  1  0.29344490  0.34781497  0.16844490  1.0
  Ni  Ni758  1  0.29344490  0.68114830  0.16844490  1.0
  Ni  Ni759  1  0.62677823  0.01448163  0.16844490  1.0
  Ni  Ni760  1  0.62677823  0.34781497  0.16844490  1.0
  Ni  Ni761  1  0.62677823  0.68114830  0.16844490  1.0
  Ni  Ni762  1  0.96011157  0.01448163  0.16844490  1.0
  Ni  Ni763  1  0.96011157  0.34781497  0.16844490  1.0
  Ni  Ni764  1  0.96011157  0.68114830  0.16844490  1.0
  Ni  Ni765  1  0.19344490  0.14781497  0.06844490  1.0
  Ni  Ni766  1  0.19344490  0.48114830  0.06844490  1.0
  Ni  Ni767  1  0.19344490  0.81448163  0.06844490  1.0
  Ni  Ni768  1  0.52677823  0.14781497  0.06844490  1.0
  Ni  Ni769  1  0.52677823  0.48114830  0.06844490  1.0
  Ni  Ni770  1  0.52677823  0.81448163  0.06844490  1.0
  Ni  Ni771  1  0.86011157  0.14781497  0.06844490  1.0
  Ni  Ni772  1  0.86011157  0.48114830  0.06844490  1.0
  Ni  Ni773  1  0.86011157  0.81448163  0.06844490  1.0
  Ni  Ni774  1  0.19344490  0.31448163  0.06844490  1.0
  Ni  Ni775  1  0.19344490  0.64781497  0.06844490  1.0
  Ni  Ni776  1  0.19344490  0.98114830  0.06844490  1.0
  Ni  Ni777  1  0.52677823  0.31448163  0.06844490  1.0
  Ni  Ni778  1  0.52677823  0.64781497  0.06844490  1.0
  Ni  Ni779  1  0.52677823  0.98114830  0.06844490  1.0
  Ni  Ni780  1  0.86011157  0.31448163  0.06844490  1.0
  Ni  Ni781  1  0.86011157  0.64781497  0.06844490  1.0
  Ni  Ni782  1  0.86011157  0.98114830  0.06844490  1.0
  Ni  Ni783  1  0.29344490  0.18114830  0.16844490  1.0
  Ni  Ni784  1  0.29344490  0.51448163  0.16844490  1.0
  Ni  Ni785  1  0.29344490  0.84781497  0.16844490  1.0
  Ni  Ni786  1  0.62677823  0.18114830  0.16844490  1.0
  Ni  Ni787  1  0.62677823  0.51448163  0.16844490  1.0
  Ni  Ni788  1  0.62677823  0.84781497  0.16844490  1.0
  Ni  Ni789  1  0.96011157  0.18114830  0.16844490  1.0
  Ni  Ni790  1  0.96011157  0.51448163  0.16844490  1.0
  Ni  Ni791  1  0.96011157  0.84781497  0.16844490  1.0
  Ni  Ni792  1  0.27677823  0.14781497  0.31844490  1.0
  Ni  Ni793  1  0.27677823  0.48114830  0.31844490  1.0
  Ni  Ni794  1  0.27677823  0.81448163  0.31844490  1.0
  Ni  Ni795  1  0.61011157  0.14781497  0.31844490  1.0
  Ni  Ni796  1  0.61011157  0.48114830  0.31844490  1.0
  Ni  Ni797  1  0.61011157  0.81448163  0.31844490  1.0
  Ni  Ni798  1  0.94344490  0.14781497  0.31844490  1.0
  Ni  Ni799  1  0.94344490  0.48114830  0.31844490  1.0
  Ni  Ni800  1  0.94344490  0.81448163  0.31844490  1.0
  Ni  Ni801  1  0.17677823  0.28114830  0.21844490  1.0
  Ni  Ni802  1  0.17677823  0.61448163  0.21844490  1.0
  Ni  Ni803  1  0.17677823  0.94781497  0.21844490  1.0
  Ni  Ni804  1  0.51011157  0.28114830  0.21844490  1.0
  Ni  Ni805  1  0.51011157  0.61448163  0.21844490  1.0
  Ni  Ni806  1  0.51011157  0.94781497  0.21844490  1.0
  Ni  Ni807  1  0.84344490  0.28114830  0.21844490  1.0
  Ni  Ni808  1  0.84344490  0.61448163  0.21844490  1.0
  Ni  Ni809  1  0.84344490  0.94781497  0.21844490  1.0
  Ni  Ni810  1  0.01011157  0.11448163  0.21844490  1.0
  Ni  Ni811  1  0.01011157  0.44781497  0.21844490  1.0
  Ni  Ni812  1  0.01011157  0.78114830  0.21844490  1.0
  Ni  Ni813  1  0.34344490  0.11448163  0.21844490  1.0
  Ni  Ni814  1  0.34344490  0.44781497  0.21844490  1.0
  Ni  Ni815  1  0.34344490  0.78114830  0.21844490  1.0
  Ni  Ni816  1  0.67677823  0.11448163  0.21844490  1.0
  Ni  Ni817  1  0.67677823  0.44781497  0.21844490  1.0
  Ni  Ni818  1  0.67677823  0.78114830  0.21844490  1.0
  Ni  Ni819  1  0.11011157  0.31448163  0.31844490  1.0
  Ni  Ni820  1  0.11011157  0.64781497  0.31844490  1.0
  Ni  Ni821  1  0.11011157  0.98114830  0.31844490  1.0
  Ni  Ni822  1  0.44344490  0.31448163  0.31844490  1.0
  Ni  Ni823  1  0.44344490  0.64781497  0.31844490  1.0
  Ni  Ni824  1  0.44344490  0.98114830  0.31844490  1.0
  Ni  Ni825  1  0.77677823  0.31448163  0.31844490  1.0
  Ni  Ni826  1  0.77677823  0.64781497  0.31844490  1.0
  Ni  Ni827  1  0.77677823  0.98114830  0.31844490  1.0
  Ni  Ni828  1  0.16011157  0.08114830  0.36844490  1.0
  Ni  Ni829  1  0.16011157  0.41448163  0.36844490  1.0
  Ni  Ni830  1  0.16011157  0.74781497  0.36844490  1.0
  Ni  Ni831  1  0.49344490  0.08114830  0.36844490  1.0
  Ni  Ni832  1  0.49344490  0.41448163  0.36844490  1.0
  Ni  Ni833  1  0.49344490  0.74781497  0.36844490  1.0
  Ni  Ni834  1  0.82677823  0.08114830  0.36844490  1.0
  Ni  Ni835  1  0.82677823  0.41448163  0.36844490  1.0
  Ni  Ni836  1  0.82677823  0.74781497  0.36844490  1.0
  Ni  Ni837  1  0.06011157  0.21448163  0.26844490  1.0
  Ni  Ni838  1  0.06011157  0.54781497  0.26844490  1.0
  Ni  Ni839  1  0.06011157  0.88114830  0.26844490  1.0
  Ni  Ni840  1  0.39344490  0.21448163  0.26844490  1.0
  Ni  Ni841  1  0.39344490  0.54781497  0.26844490  1.0
  Ni  Ni842  1  0.39344490  0.88114830  0.26844490  1.0
  Ni  Ni843  1  0.72677823  0.21448163  0.26844490  1.0
  Ni  Ni844  1  0.72677823  0.54781497  0.26844490  1.0
  Ni  Ni845  1  0.72677823  0.88114830  0.26844490  1.0
  Ni  Ni846  1  0.06011157  0.04781497  0.26844490  1.0
  Ni  Ni847  1  0.06011157  0.38114830  0.26844490  1.0
  Ni  Ni848  1  0.06011157  0.71448163  0.26844490  1.0
  Ni  Ni849  1  0.39344490  0.04781497  0.26844490  1.0
  Ni  Ni850  1  0.39344490  0.38114830  0.26844490  1.0
  Ni  Ni851  1  0.39344490  0.71448163  0.26844490  1.0
  Ni  Ni852  1  0.72677823  0.04781497  0.26844490  1.0
  Ni  Ni853  1  0.72677823  0.38114830  0.26844490  1.0
  Ni  Ni854  1  0.72677823  0.71448163  0.26844490  1.0
  Ni  Ni855  1  0.16011157  0.24781497  0.36844490  1.0
  Ni  Ni856  1  0.16011157  0.58114830  0.36844490  1.0
  Ni  Ni857  1  0.16011157  0.91448163  0.36844490  1.0
  Ni  Ni858  1  0.49344490  0.24781497  0.36844490  1.0
  Ni  Ni859  1  0.49344490  0.58114830  0.36844490  1.0
  Ni  Ni860  1  0.49344490  0.91448163  0.36844490  1.0
  Ni  Ni861  1  0.82677823  0.24781497  0.36844490  1.0
  Ni  Ni862  1  0.82677823  0.58114830  0.36844490  1.0
  Ni  Ni863  1  0.82677823  0.91448163  0.36844490  1.0
