# generated using pymatgen
data_Nb5Ni
_symmetry_space_group_name_H-M   'P 1'
_cell_length_a   25.30748322
_cell_length_b   61.99042056
_cell_length_c   34.78180881
_cell_angle_alpha   101.42175366
_cell_angle_beta   90.00000000
_cell_angle_gamma   90.00000000
_symmetry_Int_Tables_number   1
_chemical_formula_structural   Nb5Ni
_chemical_formula_sum   'Nb1080 Ni216'
_cell_volume   53485.81967808
_cell_formula_units_Z   216
loop_
 _symmetry_equiv_pos_site_id
 _symmetry_equiv_pos_as_xyz
  1  'x, y, z'
loop_
 _atom_site_type_symbol
 _atom_site_label
 _atom_site_symmetry_multiplicity
 _atom_site_fract_x
 _atom_site_fract_y
 _atom_site_fract_z
 _atom_site_occupancy
  Nb  Nb0  1  0.05963222  0.10235462  0.01619224  1.0
  Nb  Nb1  1  0.05963222  0.43568795  0.01619224  1.0
  Nb  Nb2  1  0.05963222  0.76902129  0.01619224  1.0
  Nb  Nb3  1  0.39296555  0.10235462  0.01619224  1.0
  Nb  Nb4  1  0.39296555  0.43568795  0.01619224  1.0
  Nb  Nb5  1  0.39296556  0.76902129  0.01619224  1.0
  Nb  Nb6  1  0.72629889  0.10235462  0.01619224  1.0
  Nb  Nb7  1  0.72629889  0.43568795  0.01619224  1.0
  Nb  Nb8  1  0.72629889  0.76902129  0.01619224  1.0
  Nb  Nb9  1  0.22629889  0.22140224  0.08762081  1.0
  Nb  Nb10  1  0.22629889  0.55473557  0.08762081  1.0
  Nb  Nb11  1  0.22629889  0.88806891  0.08762081  1.0
  Nb  Nb12  1  0.55963222  0.22140224  0.08762081  1.0
  Nb  Nb13  1  0.55963222  0.55473557  0.08762081  1.0
  Nb  Nb14  1  0.55963222  0.88806891  0.08762081  1.0
  Nb  Nb15  1  0.89296555  0.22140224  0.08762081  1.0
  Nb  Nb16  1  0.89296555  0.55473557  0.08762081  1.0
  Nb  Nb17  1  0.89296555  0.88806891  0.08762081  1.0
  Nb  Nb18  1  0.22814967  0.14285714  0.03571429  1.0
  Nb  Nb19  1  0.22814967  0.47619048  0.03571429  1.0
  Nb  Nb20  1  0.22814967  0.80952381  0.03571429  1.0
  Nb  Nb21  1  0.56148300  0.14285714  0.03571429  1.0
  Nb  Nb22  1  0.56148300  0.47619048  0.03571429  1.0
  Nb  Nb23  1  0.56148300  0.80952381  0.03571429  1.0
  Nb  Nb24  1  0.89481633  0.14285714  0.03571429  1.0
  Nb  Nb25  1  0.89481633  0.47619048  0.03571429  1.0
  Nb  Nb26  1  0.89481633  0.80952381  0.03571429  1.0
  Nb  Nb27  1  0.06148300  0.26190476  0.10714286  1.0
  Nb  Nb28  1  0.06148300  0.59523810  0.10714286  1.0
  Nb  Nb29  1  0.06148300  0.92857143  0.10714286  1.0
  Nb  Nb30  1  0.39481633  0.26190476  0.10714286  1.0
  Nb  Nb31  1  0.39481633  0.59523810  0.10714286  1.0
  Nb  Nb32  1  0.39481633  0.92857143  0.10714286  1.0
  Nb  Nb33  1  0.72814967  0.26190476  0.10714286  1.0
  Nb  Nb34  1  0.72814967  0.59523810  0.10714286  1.0
  Nb  Nb35  1  0.72814967  0.92857143  0.10714286  1.0
  Nb  Nb36  1  0.27370111  0.10235462  0.01619224  1.0
  Nb  Nb37  1  0.27370111  0.43568795  0.01619224  1.0
  Nb  Nb38  1  0.27370111  0.76902129  0.01619224  1.0
  Nb  Nb39  1  0.60703445  0.10235462  0.01619224  1.0
  Nb  Nb40  1  0.60703444  0.43568795  0.01619224  1.0
  Nb  Nb41  1  0.60703444  0.76902129  0.01619224  1.0
  Nb  Nb42  1  0.94036778  0.10235462  0.01619224  1.0
  Nb  Nb43  1  0.94036778  0.43568795  0.01619224  1.0
  Nb  Nb44  1  0.94036778  0.76902129  0.01619224  1.0
  Nb  Nb45  1  0.10703445  0.22140224  0.08762081  1.0
  Nb  Nb46  1  0.10703445  0.55473557  0.08762081  1.0
  Nb  Nb47  1  0.10703445  0.88806891  0.08762081  1.0
  Nb  Nb48  1  0.44036778  0.22140224  0.08762081  1.0
  Nb  Nb49  1  0.44036778  0.55473557  0.08762081  1.0
  Nb  Nb50  1  0.44036778  0.88806891  0.08762081  1.0
  Nb  Nb51  1  0.77370111  0.22140224  0.08762081  1.0
  Nb  Nb52  1  0.77370111  0.55473557  0.08762081  1.0
  Nb  Nb53  1  0.77370111  0.88806891  0.08762081  1.0
  Nb  Nb54  1  0.27185033  0.23867638  0.01698543  1.0
  Nb  Nb55  1  0.27185033  0.57200971  0.01698543  1.0
  Nb  Nb56  1  0.27185033  0.90534305  0.01698543  1.0
  Nb  Nb57  1  0.60518367  0.23867638  0.01698543  1.0
  Nb  Nb58  1  0.60518367  0.57200971  0.01698543  1.0
  Nb  Nb59  1  0.60518367  0.90534305  0.01698543  1.0
  Nb  Nb60  1  0.93851700  0.23867638  0.01698543  1.0
  Nb  Nb61  1  0.93851700  0.57200971  0.01698543  1.0
  Nb  Nb62  1  0.93851700  0.90534305  0.01698543  1.0
  Nb  Nb63  1  0.10518367  0.02439067  0.08841400  1.0
  Nb  Nb64  1  0.10518367  0.35772400  0.08841400  1.0
  Nb  Nb65  1  0.10518367  0.69105733  0.08841400  1.0
  Nb  Nb66  1  0.43851700  0.02439067  0.08841400  1.0
  Nb  Nb67  1  0.43851700  0.35772400  0.08841400  1.0
  Nb  Nb68  1  0.43851700  0.69105733  0.08841400  1.0
  Nb  Nb69  1  0.77185033  0.02439067  0.08841400  1.0
  Nb  Nb70  1  0.77185033  0.35772400  0.08841400  1.0
  Nb  Nb71  1  0.77185033  0.69105733  0.08841400  1.0
  Nb  Nb72  1  0.27370111  0.06489319  0.10793605  1.0
  Nb  Nb73  1  0.27370111  0.39822652  0.10793605  1.0
  Nb  Nb74  1  0.27370111  0.73155986  0.10793605  1.0
  Nb  Nb75  1  0.60703445  0.06489319  0.10793605  1.0
  Nb  Nb76  1  0.60703445  0.39822652  0.10793605  1.0
  Nb  Nb77  1  0.60703444  0.73155986  0.10793605  1.0
  Nb  Nb78  1  0.94036778  0.06489319  0.10793605  1.0
  Nb  Nb79  1  0.94036778  0.39822652  0.10793605  1.0
  Nb  Nb80  1  0.94036778  0.73155986  0.10793605  1.0
  Nb  Nb81  1  0.10703444  0.27917890  0.03650748  1.0
  Nb  Nb82  1  0.10703444  0.61251224  0.03650748  1.0
  Nb  Nb83  1  0.10703445  0.94584557  0.03650748  1.0
  Nb  Nb84  1  0.44036778  0.27917890  0.03650748  1.0
  Nb  Nb85  1  0.44036778  0.61251224  0.03650748  1.0
  Nb  Nb86  1  0.44036778  0.94584557  0.03650748  1.0
  Nb  Nb87  1  0.77370111  0.27917890  0.03650748  1.0
  Nb  Nb88  1  0.77370111  0.61251224  0.03650748  1.0
  Nb  Nb89  1  0.77370111  0.94584557  0.03650748  1.0
  Nb  Nb90  1  0.27185033  0.17857143  0.10714286  1.0
  Nb  Nb91  1  0.27185033  0.51190476  0.10714286  1.0
  Nb  Nb92  1  0.27185033  0.84523810  0.10714286  1.0
  Nb  Nb93  1  0.60518367  0.17857143  0.10714286  1.0
  Nb  Nb94  1  0.60518367  0.51190476  0.10714286  1.0
  Nb  Nb95  1  0.60518367  0.84523810  0.10714286  1.0
  Nb  Nb96  1  0.93851700  0.17857143  0.10714286  1.0
  Nb  Nb97  1  0.93851700  0.51190476  0.10714286  1.0
  Nb  Nb98  1  0.93851700  0.84523810  0.10714286  1.0
  Nb  Nb99  1  0.10518367  0.05952381  0.03571429  1.0
  Nb  Nb100  1  0.10518367  0.39285714  0.03571429  1.0
  Nb  Nb101  1  0.10518367  0.72619048  0.03571429  1.0
  Nb  Nb102  1  0.43851700  0.05952381  0.03571429  1.0
  Nb  Nb103  1  0.43851700  0.39285714  0.03571429  1.0
  Nb  Nb104  1  0.43851700  0.72619048  0.03571429  1.0
  Nb  Nb105  1  0.77185033  0.05952381  0.03571429  1.0
  Nb  Nb106  1  0.77185033  0.39285714  0.03571429  1.0
  Nb  Nb107  1  0.77185033  0.72619048  0.03571429  1.0
  Nb  Nb108  1  0.06148300  0.23867638  0.01698543  1.0
  Nb  Nb109  1  0.06148300  0.57200971  0.01698543  1.0
  Nb  Nb110  1  0.06148300  0.90534305  0.01698543  1.0
  Nb  Nb111  1  0.39481633  0.23867638  0.01698543  1.0
  Nb  Nb112  1  0.39481633  0.57200971  0.01698543  1.0
  Nb  Nb113  1  0.39481633  0.90534305  0.01698543  1.0
  Nb  Nb114  1  0.72814967  0.23867638  0.01698543  1.0
  Nb  Nb115  1  0.72814967  0.57200971  0.01698543  1.0
  Nb  Nb116  1  0.72814967  0.90534305  0.01698543  1.0
  Nb  Nb117  1  0.22814967  0.02439067  0.08841400  1.0
  Nb  Nb118  1  0.22814967  0.35772400  0.08841400  1.0
  Nb  Nb119  1  0.22814967  0.69105733  0.08841400  1.0
  Nb  Nb120  1  0.56148300  0.02439067  0.08841400  1.0
  Nb  Nb121  1  0.56148300  0.35772400  0.08841400  1.0
  Nb  Nb122  1  0.56148300  0.69105733  0.08841400  1.0
  Nb  Nb123  1  0.89481633  0.02439067  0.08841400  1.0
  Nb  Nb124  1  0.89481633  0.35772400  0.08841400  1.0
  Nb  Nb125  1  0.89481633  0.69105733  0.08841400  1.0
  Nb  Nb126  1  0.05963222  0.06489319  0.10793605  1.0
  Nb  Nb127  1  0.05963222  0.39822652  0.10793605  1.0
  Nb  Nb128  1  0.05963222  0.73155986  0.10793605  1.0
  Nb  Nb129  1  0.39296556  0.06489319  0.10793605  1.0
  Nb  Nb130  1  0.39296555  0.39822652  0.10793605  1.0
  Nb  Nb131  1  0.39296556  0.73155986  0.10793605  1.0
  Nb  Nb132  1  0.72629889  0.06489319  0.10793605  1.0
  Nb  Nb133  1  0.72629889  0.39822652  0.10793605  1.0
  Nb  Nb134  1  0.72629889  0.73155986  0.10793605  1.0
  Nb  Nb135  1  0.22629889  0.27917890  0.03650748  1.0
  Nb  Nb136  1  0.22629889  0.61251224  0.03650748  1.0
  Nb  Nb137  1  0.22629889  0.94584557  0.03650748  1.0
  Nb  Nb138  1  0.55963222  0.27917890  0.03650748  1.0
  Nb  Nb139  1  0.55963222  0.61251224  0.03650748  1.0
  Nb  Nb140  1  0.55963222  0.94584557  0.03650748  1.0
  Nb  Nb141  1  0.89296555  0.27917890  0.03650748  1.0
  Nb  Nb142  1  0.89296555  0.61251224  0.03650748  1.0
  Nb  Nb143  1  0.89296555  0.94584557  0.03650748  1.0
  Nb  Nb144  1  0.33333333  0.33193097  0.08237938  1.0
  Nb  Nb145  1  0.33333333  0.66526430  0.08237938  1.0
  Nb  Nb146  1  0.33333333  0.99859764  0.08237938  1.0
  Nb  Nb147  1  0.66666667  0.33193097  0.08237938  1.0
  Nb  Nb148  1  0.66666667  0.66526430  0.08237938  1.0
  Nb  Nb149  1  0.66666667  0.99859764  0.08237938  1.0
  Nb  Nb150  1  1.00000000  0.33193097  0.08237938  1.0
  Nb  Nb151  1  0.00000000  0.66526430  0.08237938  1.0
  Nb  Nb152  1  1.00000000  0.99859764  0.08237938  1.0
  Nb  Nb153  1  0.16666667  0.21288335  0.01095081  1.0
  Nb  Nb154  1  0.16666667  0.54621668  0.01095081  1.0
  Nb  Nb155  1  0.16666667  0.87955002  0.01095081  1.0
  Nb  Nb156  1  0.50000000  0.21288335  0.01095081  1.0
  Nb  Nb157  1  0.50000000  0.54621668  0.01095081  1.0
  Nb  Nb158  1  0.50000000  0.87955002  0.01095081  1.0
  Nb  Nb159  1  0.83333333  0.21288335  0.01095081  1.0
  Nb  Nb160  1  0.83333333  0.54621668  0.01095081  1.0
  Nb  Nb161  1  0.83333333  0.87955002  0.01095081  1.0
  Nb  Nb162  1  0.00000000  0.10748763  0.13349271  1.0
  Nb  Nb163  1  0.00000000  0.44082097  0.13349271  1.0
  Nb  Nb164  1  0.00000000  0.77415430  0.13349271  1.0
  Nb  Nb165  1  0.33333333  0.10748763  0.13349271  1.0
  Nb  Nb166  1  0.33333333  0.44082097  0.13349271  1.0
  Nb  Nb167  1  0.33333333  0.77415430  0.13349271  1.0
  Nb  Nb168  1  0.66666667  0.10748763  0.13349271  1.0
  Nb  Nb169  1  0.66666667  0.44082097  0.13349271  1.0
  Nb  Nb170  1  0.66666667  0.77415430  0.13349271  1.0
  Nb  Nb171  1  0.16666667  0.32177335  0.06206414  1.0
  Nb  Nb172  1  0.16666667  0.65510668  0.06206414  1.0
  Nb  Nb173  1  0.16666667  0.98844001  0.06206414  1.0
  Nb  Nb174  1  0.50000000  0.32177335  0.06206414  1.0
  Nb  Nb175  1  0.50000000  0.65510668  0.06206414  1.0
  Nb  Nb176  1  0.50000000  0.98844001  0.06206414  1.0
  Nb  Nb177  1  0.83333333  0.32177335  0.06206414  1.0
  Nb  Nb178  1  0.83333333  0.65510668  0.06206414  1.0
  Nb  Nb179  1  0.83333333  0.98844001  0.06206414  1.0
  Nb  Nb180  1  0.00000000  0.28259281  0.04333529  1.0
  Nb  Nb181  1  0.00000000  0.61592614  0.04333529  1.0
  Nb  Nb182  1  0.00000000  0.94925948  0.04333529  1.0
  Nb  Nb183  1  0.33333333  0.28259281  0.04333529  1.0
  Nb  Nb184  1  0.33333333  0.61592614  0.04333529  1.0
  Nb  Nb185  1  0.33333333  0.94925948  0.04333529  1.0
  Nb  Nb186  1  0.66666667  0.28259281  0.04333529  1.0
  Nb  Nb187  1  0.66666667  0.61592614  0.04333529  1.0
  Nb  Nb188  1  0.66666667  0.94925948  0.04333529  1.0
  Nb  Nb189  1  0.16666667  0.06830710  0.11476386  1.0
  Nb  Nb190  1  0.16666667  0.40164043  0.11476386  1.0
  Nb  Nb191  1  0.16666667  0.73497376  0.11476386  1.0
  Nb  Nb192  1  0.50000000  0.06830710  0.11476386  1.0
  Nb  Nb193  1  0.50000000  0.40164043  0.11476386  1.0
  Nb  Nb194  1  0.50000000  0.73497376  0.11476386  1.0
  Nb  Nb195  1  0.83333333  0.06830710  0.11476386  1.0
  Nb  Nb196  1  0.83333333  0.40164043  0.11476386  1.0
  Nb  Nb197  1  0.83333333  0.73497376  0.11476386  1.0
  Nb  Nb198  1  0.00000000  0.13465500  0.08079300  1.0
  Nb  Nb199  1  0.00000000  0.46798833  0.08079300  1.0
  Nb  Nb200  1  0.00000000  0.80132167  0.08079300  1.0
  Nb  Nb201  1  0.33333333  0.13465500  0.08079300  1.0
  Nb  Nb202  1  0.33333333  0.46798833  0.08079300  1.0
  Nb  Nb203  1  0.33333333  0.80132167  0.08079300  1.0
  Nb  Nb204  1  0.66666667  0.13465500  0.08079300  1.0
  Nb  Nb205  1  0.66666667  0.46798833  0.08079300  1.0
  Nb  Nb206  1  0.66666667  0.80132167  0.08079300  1.0
  Nb  Nb207  1  0.16666667  0.01560738  0.00936443  1.0
  Nb  Nb208  1  0.16666667  0.34894071  0.00936443  1.0
  Nb  Nb209  1  0.16666667  0.68227405  0.00936443  1.0
  Nb  Nb210  1  0.50000000  0.01560738  0.00936443  1.0
  Nb  Nb211  1  0.50000000  0.34894071  0.00936443  1.0
  Nb  Nb212  1  0.50000000  0.68227405  0.00936443  1.0
  Nb  Nb213  1  0.83333333  0.01560738  0.00936443  1.0
  Nb  Nb214  1  0.83333333  0.34894071  0.00936443  1.0
  Nb  Nb215  1  0.83333333  0.68227405  0.00936443  1.0
  Nb  Nb216  1  0.33333333  0.03259281  0.04333529  1.0
  Nb  Nb217  1  0.33333333  0.36592614  0.04333529  1.0
  Nb  Nb218  1  0.33333333  0.69925948  0.04333529  1.0
  Nb  Nb219  1  0.66666667  0.03259281  0.04333529  1.0
  Nb  Nb220  1  0.66666667  0.36592614  0.04333529  1.0
  Nb  Nb221  1  0.66666667  0.69925948  0.04333529  1.0
  Nb  Nb222  1  1.00000000  0.03259281  0.04333529  1.0
  Nb  Nb223  1  1.00000000  0.36592614  0.04333529  1.0
  Nb  Nb224  1  0.00000000  0.69925948  0.04333529  1.0
  Nb  Nb225  1  0.16666667  0.15164043  0.11476386  1.0
  Nb  Nb226  1  0.16666667  0.48497376  0.11476386  1.0
  Nb  Nb227  1  0.16666667  0.81830710  0.11476386  1.0
  Nb  Nb228  1  0.50000000  0.15164043  0.11476386  1.0
  Nb  Nb229  1  0.50000000  0.48497376  0.11476386  1.0
  Nb  Nb230  1  0.50000000  0.81830710  0.11476386  1.0
  Nb  Nb231  1  0.83333333  0.15164043  0.11476386  1.0
  Nb  Nb232  1  0.83333333  0.48497376  0.11476386  1.0
  Nb  Nb233  1  0.83333333  0.81830710  0.11476386  1.0
  Nb  Nb234  1  0.10518367  0.14285714  0.03571429  1.0
  Nb  Nb235  1  0.10518367  0.47619048  0.03571429  1.0
  Nb  Nb236  1  0.10518367  0.80952381  0.03571429  1.0
  Nb  Nb237  1  0.43851700  0.14285714  0.03571429  1.0
  Nb  Nb238  1  0.43851700  0.47619048  0.03571429  1.0
  Nb  Nb239  1  0.43851700  0.80952381  0.03571429  1.0
  Nb  Nb240  1  0.77185033  0.14285714  0.03571429  1.0
  Nb  Nb241  1  0.77185033  0.47619048  0.03571429  1.0
  Nb  Nb242  1  0.77185033  0.80952381  0.03571429  1.0
  Nb  Nb243  1  0.27185033  0.26190476  0.10714286  1.0
  Nb  Nb244  1  0.27185033  0.59523810  0.10714286  1.0
  Nb  Nb245  1  0.27185033  0.92857143  0.10714286  1.0
  Nb  Nb246  1  0.60518367  0.26190476  0.10714286  1.0
  Nb  Nb247  1  0.60518367  0.59523810  0.10714286  1.0
  Nb  Nb248  1  0.60518367  0.92857143  0.10714286  1.0
  Nb  Nb249  1  0.93851700  0.26190476  0.10714286  1.0
  Nb  Nb250  1  0.93851700  0.59523810  0.10714286  1.0
  Nb  Nb251  1  0.93851700  0.92857143  0.10714286  1.0
  Nb  Nb252  1  0.06148300  0.17857143  0.10714286  1.0
  Nb  Nb253  1  0.06148300  0.51190476  0.10714286  1.0
  Nb  Nb254  1  0.06148300  0.84523810  0.10714286  1.0
  Nb  Nb255  1  0.39481633  0.17857143  0.10714286  1.0
  Nb  Nb256  1  0.39481633  0.51190476  0.10714286  1.0
  Nb  Nb257  1  0.39481633  0.84523810  0.10714286  1.0
  Nb  Nb258  1  0.72814967  0.17857143  0.10714286  1.0
  Nb  Nb259  1  0.72814967  0.51190476  0.10714286  1.0
  Nb  Nb260  1  0.72814967  0.84523810  0.10714286  1.0
  Nb  Nb261  1  0.22814967  0.05952381  0.03571429  1.0
  Nb  Nb262  1  0.22814967  0.39285714  0.03571429  1.0
  Nb  Nb263  1  0.22814967  0.72619048  0.03571429  1.0
  Nb  Nb264  1  0.56148300  0.05952381  0.03571429  1.0
  Nb  Nb265  1  0.56148300  0.39285714  0.03571429  1.0
  Nb  Nb266  1  0.56148300  0.72619048  0.03571429  1.0
  Nb  Nb267  1  0.89481633  0.05952381  0.03571429  1.0
  Nb  Nb268  1  0.89481633  0.39285714  0.03571429  1.0
  Nb  Nb269  1  0.89481633  0.72619048  0.03571429  1.0
  Nb  Nb270  1  0.00000000  0.16865017  0.04174890  1.0
  Nb  Nb271  1  0.00000000  0.50198351  0.04174890  1.0
  Nb  Nb272  1  0.00000000  0.83531684  0.04174890  1.0
  Nb  Nb273  1  0.33333333  0.16865017  0.04174890  1.0
  Nb  Nb274  1  0.33333333  0.50198351  0.04174890  1.0
  Nb  Nb275  1  0.33333333  0.83531684  0.04174890  1.0
  Nb  Nb276  1  0.66666667  0.16865017  0.04174890  1.0
  Nb  Nb277  1  0.66666667  0.50198351  0.04174890  1.0
  Nb  Nb278  1  0.66666667  0.83531684  0.04174890  1.0
  Nb  Nb279  1  0.16666667  0.28769779  0.11317748  1.0
  Nb  Nb280  1  0.16666667  0.62103113  0.11317748  1.0
  Nb  Nb281  1  0.16666667  0.95436446  0.11317748  1.0
  Nb  Nb282  1  0.50000000  0.28769779  0.11317748  1.0
  Nb  Nb283  1  0.50000000  0.62103113  0.11317748  1.0
  Nb  Nb284  1  0.50000000  0.95436446  0.11317748  1.0
  Nb  Nb285  1  0.83333333  0.28769779  0.11317748  1.0
  Nb  Nb286  1  0.83333333  0.62103113  0.11317748  1.0
  Nb  Nb287  1  0.83333333  0.95436446  0.11317748  1.0
  Nb  Nb288  1  0.00000000  0.29785541  0.13349271  1.0
  Nb  Nb289  1  0.00000000  0.63118875  0.13349271  1.0
  Nb  Nb290  1  0.00000000  0.96452208  0.13349271  1.0
  Nb  Nb291  1  0.33333333  0.29785541  0.13349271  1.0
  Nb  Nb292  1  0.33333333  0.63118875  0.13349271  1.0
  Nb  Nb293  1  0.33333333  0.96452208  0.13349271  1.0
  Nb  Nb294  1  0.66666667  0.29785541  0.13349271  1.0
  Nb  Nb295  1  0.66666667  0.63118875  0.13349271  1.0
  Nb  Nb296  1  0.66666667  0.96452208  0.13349271  1.0
  Nb  Nb297  1  0.16666667  0.17880779  0.06206414  1.0
  Nb  Nb298  1  0.16666667  0.51214113  0.06206414  1.0
  Nb  Nb299  1  0.16666667  0.84547446  0.06206414  1.0
  Nb  Nb300  1  0.50000000  0.17880779  0.06206414  1.0
  Nb  Nb301  1  0.50000000  0.51214113  0.06206414  1.0
  Nb  Nb302  1  0.50000000  0.84547446  0.06206414  1.0
  Nb  Nb303  1  0.83333333  0.17880779  0.06206414  1.0
  Nb  Nb304  1  0.83333333  0.51214113  0.06206414  1.0
  Nb  Nb305  1  0.83333333  0.84547446  0.06206414  1.0
  Nb  Nb306  1  0.22814967  0.10772400  0.08841400  1.0
  Nb  Nb307  1  0.22814967  0.44105733  0.08841400  1.0
  Nb  Nb308  1  0.22814967  0.77439067  0.08841400  1.0
  Nb  Nb309  1  0.56148300  0.10772400  0.08841400  1.0
  Nb  Nb310  1  0.56148300  0.44105733  0.08841400  1.0
  Nb  Nb311  1  0.56148300  0.77439067  0.08841400  1.0
  Nb  Nb312  1  0.89481633  0.10772400  0.08841400  1.0
  Nb  Nb313  1  0.89481633  0.44105733  0.08841400  1.0
  Nb  Nb314  1  0.89481633  0.77439067  0.08841400  1.0
  Nb  Nb315  1  0.06148300  0.32200971  0.01698543  1.0
  Nb  Nb316  1  0.06148300  0.65534305  0.01698543  1.0
  Nb  Nb317  1  0.06148300  0.98867638  0.01698543  1.0
  Nb  Nb318  1  0.39481633  0.32200971  0.01698543  1.0
  Nb  Nb319  1  0.39481633  0.65534305  0.01698543  1.0
  Nb  Nb320  1  0.39481633  0.98867638  0.01698543  1.0
  Nb  Nb321  1  0.72814967  0.32200971  0.01698543  1.0
  Nb  Nb322  1  0.72814967  0.65534305  0.01698543  1.0
  Nb  Nb323  1  0.72814967  0.98867638  0.01698543  1.0
  Nb  Nb324  1  0.10518367  0.10772400  0.08841400  1.0
  Nb  Nb325  1  0.10518367  0.44105733  0.08841400  1.0
  Nb  Nb326  1  0.10518367  0.77439067  0.08841400  1.0
  Nb  Nb327  1  0.43851700  0.10772400  0.08841400  1.0
  Nb  Nb328  1  0.43851700  0.44105733  0.08841400  1.0
  Nb  Nb329  1  0.43851700  0.77439067  0.08841400  1.0
  Nb  Nb330  1  0.77185033  0.10772400  0.08841400  1.0
  Nb  Nb331  1  0.77185033  0.44105733  0.08841400  1.0
  Nb  Nb332  1  0.77185033  0.77439067  0.08841400  1.0
  Nb  Nb333  1  0.27185033  0.32200971  0.01698543  1.0
  Nb  Nb334  1  0.27185033  0.65534305  0.01698543  1.0
  Nb  Nb335  1  0.27185033  0.98867638  0.01698543  1.0
  Nb  Nb336  1  0.60518367  0.32200971  0.01698543  1.0
  Nb  Nb337  1  0.60518367  0.65534305  0.01698543  1.0
  Nb  Nb338  1  0.60518367  0.98867638  0.01698543  1.0
  Nb  Nb339  1  0.93851700  0.32200971  0.01698543  1.0
  Nb  Nb340  1  0.93851700  0.65534305  0.01698543  1.0
  Nb  Nb341  1  0.93851700  0.98867638  0.01698543  1.0
  Nb  Nb342  1  0.00000000  0.21798833  0.08079300  1.0
  Nb  Nb343  1  0.00000000  0.55132167  0.08079300  1.0
  Nb  Nb344  1  0.00000000  0.88465500  0.08079300  1.0
  Nb  Nb345  1  0.33333333  0.21798833  0.08079300  1.0
  Nb  Nb346  1  0.33333333  0.55132167  0.08079300  1.0
  Nb  Nb347  1  0.33333333  0.88465500  0.08079300  1.0
  Nb  Nb348  1  0.66666667  0.21798833  0.08079300  1.0
  Nb  Nb349  1  0.66666667  0.55132167  0.08079300  1.0
  Nb  Nb350  1  0.66666667  0.88465500  0.08079300  1.0
  Nb  Nb351  1  0.16666667  0.09894071  0.00936443  1.0
  Nb  Nb352  1  0.16666667  0.43227405  0.00936443  1.0
  Nb  Nb353  1  0.16666667  0.76560738  0.00936443  1.0
  Nb  Nb354  1  0.50000000  0.09894071  0.00936443  1.0
  Nb  Nb355  1  0.50000000  0.43227405  0.00936443  1.0
  Nb  Nb356  1  0.50000000  0.76560738  0.00936443  1.0
  Nb  Nb357  1  0.83333333  0.09894071  0.00936443  1.0
  Nb  Nb358  1  0.83333333  0.43227405  0.00936443  1.0
  Nb  Nb359  1  0.83333333  0.76560738  0.00936443  1.0
  Nb  Nb360  1  0.05963222  0.00711652  0.15904938  1.0
  Nb  Nb361  1  0.05963222  0.34044986  0.15904938  1.0
  Nb  Nb362  1  0.05963222  0.67378319  0.15904938  1.0
  Nb  Nb363  1  0.39296555  0.00711652  0.15904938  1.0
  Nb  Nb364  1  0.39296555  0.34044986  0.15904938  1.0
  Nb  Nb365  1  0.39296555  0.67378319  0.15904938  1.0
  Nb  Nb366  1  0.72629889  0.00711652  0.15904938  1.0
  Nb  Nb367  1  0.72629889  0.34044986  0.15904938  1.0
  Nb  Nb368  1  0.72629889  0.67378319  0.15904938  1.0
  Nb  Nb369  1  0.22629889  0.12616414  0.23047795  1.0
  Nb  Nb370  1  0.22629889  0.45949748  0.23047795  1.0
  Nb  Nb371  1  0.22629889  0.79283081  0.23047795  1.0
  Nb  Nb372  1  0.55963222  0.12616414  0.23047795  1.0
  Nb  Nb373  1  0.55963222  0.45949748  0.23047795  1.0
  Nb  Nb374  1  0.55963222  0.79283081  0.23047795  1.0
  Nb  Nb375  1  0.89296555  0.12616414  0.23047795  1.0
  Nb  Nb376  1  0.89296555  0.45949748  0.23047795  1.0
  Nb  Nb377  1  0.89296555  0.79283081  0.23047795  1.0
  Nb  Nb378  1  0.22814967  0.04761905  0.17857143  1.0
  Nb  Nb379  1  0.22814967  0.38095238  0.17857143  1.0
  Nb  Nb380  1  0.22814967  0.71428571  0.17857143  1.0
  Nb  Nb381  1  0.56148300  0.04761905  0.17857143  1.0
  Nb  Nb382  1  0.56148300  0.38095238  0.17857143  1.0
  Nb  Nb383  1  0.56148300  0.71428571  0.17857143  1.0
  Nb  Nb384  1  0.89481633  0.04761905  0.17857143  1.0
  Nb  Nb385  1  0.89481633  0.38095238  0.17857143  1.0
  Nb  Nb386  1  0.89481633  0.71428571  0.17857143  1.0
  Nb  Nb387  1  0.06148300  0.16666667  0.25000000  1.0
  Nb  Nb388  1  0.06148300  0.50000000  0.25000000  1.0
  Nb  Nb389  1  0.06148300  0.83333333  0.25000000  1.0
  Nb  Nb390  1  0.39481633  0.16666667  0.25000000  1.0
  Nb  Nb391  1  0.39481633  0.50000000  0.25000000  1.0
  Nb  Nb392  1  0.39481633  0.83333333  0.25000000  1.0
  Nb  Nb393  1  0.72814967  0.16666667  0.25000000  1.0
  Nb  Nb394  1  0.72814967  0.50000000  0.25000000  1.0
  Nb  Nb395  1  0.72814967  0.83333333  0.25000000  1.0
  Nb  Nb396  1  0.27370111  0.00711652  0.15904938  1.0
  Nb  Nb397  1  0.27370111  0.34044986  0.15904938  1.0
  Nb  Nb398  1  0.27370111  0.67378319  0.15904938  1.0
  Nb  Nb399  1  0.60703445  0.00711652  0.15904938  1.0
  Nb  Nb400  1  0.60703445  0.34044986  0.15904938  1.0
  Nb  Nb401  1  0.60703445  0.67378319  0.15904938  1.0
  Nb  Nb402  1  0.94036778  0.00711652  0.15904938  1.0
  Nb  Nb403  1  0.94036778  0.34044986  0.15904938  1.0
  Nb  Nb404  1  0.94036778  0.67378319  0.15904938  1.0
  Nb  Nb405  1  0.10703444  0.12616414  0.23047795  1.0
  Nb  Nb406  1  0.10703444  0.45949748  0.23047795  1.0
  Nb  Nb407  1  0.10703445  0.79283081  0.23047795  1.0
  Nb  Nb408  1  0.44036778  0.12616414  0.23047795  1.0
  Nb  Nb409  1  0.44036778  0.45949748  0.23047795  1.0
  Nb  Nb410  1  0.44036778  0.79283081  0.23047795  1.0
  Nb  Nb411  1  0.77370111  0.12616414  0.23047795  1.0
  Nb  Nb412  1  0.77370111  0.45949748  0.23047795  1.0
  Nb  Nb413  1  0.77370111  0.79283081  0.23047795  1.0
  Nb  Nb414  1  0.27185033  0.14343829  0.15984257  1.0
  Nb  Nb415  1  0.27185033  0.47677162  0.15984257  1.0
  Nb  Nb416  1  0.27185033  0.81010495  0.15984257  1.0
  Nb  Nb417  1  0.60518367  0.14343829  0.15984257  1.0
  Nb  Nb418  1  0.60518367  0.47677162  0.15984257  1.0
  Nb  Nb419  1  0.60518367  0.81010495  0.15984257  1.0
  Nb  Nb420  1  0.93851700  0.14343829  0.15984257  1.0
  Nb  Nb421  1  0.93851700  0.47677162  0.15984257  1.0
  Nb  Nb422  1  0.93851700  0.81010495  0.15984257  1.0
  Nb  Nb423  1  0.10518367  0.26248590  0.23127114  1.0
  Nb  Nb424  1  0.10518367  0.59581924  0.23127114  1.0
  Nb  Nb425  1  0.10518367  0.92915257  0.23127114  1.0
  Nb  Nb426  1  0.43851700  0.26248590  0.23127114  1.0
  Nb  Nb427  1  0.43851700  0.59581924  0.23127114  1.0
  Nb  Nb428  1  0.43851700  0.92915257  0.23127114  1.0
  Nb  Nb429  1  0.77185033  0.26248590  0.23127114  1.0
  Nb  Nb430  1  0.77185033  0.59581924  0.23127114  1.0
  Nb  Nb431  1  0.77185033  0.92915257  0.23127114  1.0
  Nb  Nb432  1  0.27370111  0.30298843  0.25079319  1.0
  Nb  Nb433  1  0.27370111  0.63632176  0.25079319  1.0
  Nb  Nb434  1  0.27370111  0.96965509  0.25079319  1.0
  Nb  Nb435  1  0.60703444  0.30298843  0.25079319  1.0
  Nb  Nb436  1  0.60703444  0.63632176  0.25079319  1.0
  Nb  Nb437  1  0.60703444  0.96965509  0.25079319  1.0
  Nb  Nb438  1  0.94036778  0.30298843  0.25079319  1.0
  Nb  Nb439  1  0.94036778  0.63632176  0.25079319  1.0
  Nb  Nb440  1  0.94036778  0.96965509  0.25079319  1.0
  Nb  Nb441  1  0.10703444  0.18394081  0.17936462  1.0
  Nb  Nb442  1  0.10703444  0.51727414  0.17936462  1.0
  Nb  Nb443  1  0.10703444  0.85060748  0.17936462  1.0
  Nb  Nb444  1  0.44036778  0.18394081  0.17936462  1.0
  Nb  Nb445  1  0.44036778  0.51727414  0.17936462  1.0
  Nb  Nb446  1  0.44036778  0.85060748  0.17936462  1.0
  Nb  Nb447  1  0.77370111  0.18394081  0.17936462  1.0
  Nb  Nb448  1  0.77370111  0.51727414  0.17936462  1.0
  Nb  Nb449  1  0.77370111  0.85060748  0.17936462  1.0
  Nb  Nb450  1  0.27185033  0.08333333  0.25000000  1.0
  Nb  Nb451  1  0.27185033  0.41666667  0.25000000  1.0
  Nb  Nb452  1  0.27185033  0.75000000  0.25000000  1.0
  Nb  Nb453  1  0.60518367  0.08333333  0.25000000  1.0
  Nb  Nb454  1  0.60518367  0.41666667  0.25000000  1.0
  Nb  Nb455  1  0.60518367  0.75000000  0.25000000  1.0
  Nb  Nb456  1  0.93851700  0.08333333  0.25000000  1.0
  Nb  Nb457  1  0.93851700  0.41666667  0.25000000  1.0
  Nb  Nb458  1  0.93851700  0.75000000  0.25000000  1.0
  Nb  Nb459  1  0.10518367  0.29761905  0.17857143  1.0
  Nb  Nb460  1  0.10518367  0.63095238  0.17857143  1.0
  Nb  Nb461  1  0.10518367  0.96428571  0.17857143  1.0
  Nb  Nb462  1  0.43851700  0.29761905  0.17857143  1.0
  Nb  Nb463  1  0.43851700  0.63095238  0.17857143  1.0
  Nb  Nb464  1  0.43851700  0.96428571  0.17857143  1.0
  Nb  Nb465  1  0.77185033  0.29761905  0.17857143  1.0
  Nb  Nb466  1  0.77185033  0.63095238  0.17857143  1.0
  Nb  Nb467  1  0.77185033  0.96428571  0.17857143  1.0
  Nb  Nb468  1  0.06148300  0.14343829  0.15984257  1.0
  Nb  Nb469  1  0.06148300  0.47677162  0.15984257  1.0
  Nb  Nb470  1  0.06148300  0.81010495  0.15984257  1.0
  Nb  Nb471  1  0.39481633  0.14343829  0.15984257  1.0
  Nb  Nb472  1  0.39481633  0.47677162  0.15984257  1.0
  Nb  Nb473  1  0.39481633  0.81010495  0.15984257  1.0
  Nb  Nb474  1  0.72814967  0.14343829  0.15984257  1.0
  Nb  Nb475  1  0.72814967  0.47677162  0.15984257  1.0
  Nb  Nb476  1  0.72814967  0.81010495  0.15984257  1.0
  Nb  Nb477  1  0.22814967  0.26248590  0.23127114  1.0
  Nb  Nb478  1  0.22814967  0.59581924  0.23127114  1.0
  Nb  Nb479  1  0.22814967  0.92915257  0.23127114  1.0
  Nb  Nb480  1  0.56148300  0.26248590  0.23127114  1.0
  Nb  Nb481  1  0.56148300  0.59581924  0.23127114  1.0
  Nb  Nb482  1  0.56148300  0.92915257  0.23127114  1.0
  Nb  Nb483  1  0.89481633  0.26248590  0.23127114  1.0
  Nb  Nb484  1  0.89481633  0.59581924  0.23127114  1.0
  Nb  Nb485  1  0.89481633  0.92915257  0.23127114  1.0
  Nb  Nb486  1  0.05963222  0.30298843  0.25079319  1.0
  Nb  Nb487  1  0.05963222  0.63632176  0.25079319  1.0
  Nb  Nb488  1  0.05963222  0.96965509  0.25079319  1.0
  Nb  Nb489  1  0.39296555  0.30298843  0.25079319  1.0
  Nb  Nb490  1  0.39296555  0.63632176  0.25079319  1.0
  Nb  Nb491  1  0.39296555  0.96965509  0.25079319  1.0
  Nb  Nb492  1  0.72629889  0.30298843  0.25079319  1.0
  Nb  Nb493  1  0.72629889  0.63632176  0.25079319  1.0
  Nb  Nb494  1  0.72629889  0.96965509  0.25079319  1.0
  Nb  Nb495  1  0.22629889  0.18394081  0.17936462  1.0
  Nb  Nb496  1  0.22629889  0.51727414  0.17936462  1.0
  Nb  Nb497  1  0.22629889  0.85060748  0.17936462  1.0
  Nb  Nb498  1  0.55963222  0.18394081  0.17936462  1.0
  Nb  Nb499  1  0.55963222  0.51727414  0.17936462  1.0
  Nb  Nb500  1  0.55963222  0.85060748  0.17936462  1.0
  Nb  Nb501  1  0.89296555  0.18394081  0.17936462  1.0
  Nb  Nb502  1  0.89296555  0.51727414  0.17936462  1.0
  Nb  Nb503  1  0.89296555  0.85060748  0.17936462  1.0
  Nb  Nb504  1  0.33333333  0.23669287  0.22523652  1.0
  Nb  Nb505  1  0.33333333  0.57002621  0.22523652  1.0
  Nb  Nb506  1  0.33333333  0.90335954  0.22523652  1.0
  Nb  Nb507  1  0.66666667  0.23669287  0.22523652  1.0
  Nb  Nb508  1  0.66666667  0.57002621  0.22523652  1.0
  Nb  Nb509  1  0.66666667  0.90335954  0.22523652  1.0
  Nb  Nb510  1  1.00000000  0.23669287  0.22523652  1.0
  Nb  Nb511  1  0.00000000  0.57002621  0.22523652  1.0
  Nb  Nb512  1  1.00000000  0.90335954  0.22523652  1.0
  Nb  Nb513  1  0.16666667  0.11764525  0.15380795  1.0
  Nb  Nb514  1  0.16666667  0.45097859  0.15380795  1.0
  Nb  Nb515  1  0.16666667  0.78431192  0.15380795  1.0
  Nb  Nb516  1  0.50000000  0.11764525  0.15380795  1.0
  Nb  Nb517  1  0.50000000  0.45097859  0.15380795  1.0
  Nb  Nb518  1  0.50000000  0.78431192  0.15380795  1.0
  Nb  Nb519  1  0.83333333  0.11764525  0.15380795  1.0
  Nb  Nb520  1  0.83333333  0.45097859  0.15380795  1.0
  Nb  Nb521  1  0.83333333  0.78431192  0.15380795  1.0
  Nb  Nb522  1  0.00000000  0.01224954  0.27634986  1.0
  Nb  Nb523  1  0.00000000  0.34558287  0.27634986  1.0
  Nb  Nb524  1  0.00000000  0.67891621  0.27634986  1.0
  Nb  Nb525  1  0.33333333  0.01224954  0.27634986  1.0
  Nb  Nb526  1  0.33333333  0.34558287  0.27634986  1.0
  Nb  Nb527  1  0.33333333  0.67891621  0.27634986  1.0
  Nb  Nb528  1  0.66666667  0.01224954  0.27634986  1.0
  Nb  Nb529  1  0.66666667  0.34558287  0.27634986  1.0
  Nb  Nb530  1  0.66666667  0.67891621  0.27634986  1.0
  Nb  Nb531  1  0.16666667  0.22653525  0.20492129  1.0
  Nb  Nb532  1  0.16666667  0.55986859  0.20492129  1.0
  Nb  Nb533  1  0.16666667  0.89320192  0.20492129  1.0
  Nb  Nb534  1  0.50000000  0.22653525  0.20492129  1.0
  Nb  Nb535  1  0.50000000  0.55986859  0.20492129  1.0
  Nb  Nb536  1  0.50000000  0.89320192  0.20492129  1.0
  Nb  Nb537  1  0.83333333  0.22653525  0.20492129  1.0
  Nb  Nb538  1  0.83333333  0.55986859  0.20492129  1.0
  Nb  Nb539  1  0.83333333  0.89320192  0.20492129  1.0
  Nb  Nb540  1  0.00000000  0.18735471  0.18619243  1.0
  Nb  Nb541  1  0.00000000  0.52068805  0.18619243  1.0
  Nb  Nb542  1  0.00000000  0.85402138  0.18619243  1.0
  Nb  Nb543  1  0.33333333  0.18735471  0.18619243  1.0
  Nb  Nb544  1  0.33333333  0.52068805  0.18619243  1.0
  Nb  Nb545  1  0.33333333  0.85402138  0.18619243  1.0
  Nb  Nb546  1  0.66666667  0.18735471  0.18619243  1.0
  Nb  Nb547  1  0.66666667  0.52068805  0.18619243  1.0
  Nb  Nb548  1  0.66666667  0.85402138  0.18619243  1.0
  Nb  Nb549  1  0.16666667  0.30640233  0.25762100  1.0
  Nb  Nb550  1  0.16666667  0.63973567  0.25762100  1.0
  Nb  Nb551  1  0.16666667  0.97306900  0.25762100  1.0
  Nb  Nb552  1  0.50000000  0.30640233  0.25762100  1.0
  Nb  Nb553  1  0.50000000  0.63973567  0.25762100  1.0
  Nb  Nb554  1  0.50000000  0.97306900  0.25762100  1.0
  Nb  Nb555  1  0.83333333  0.30640233  0.25762100  1.0
  Nb  Nb556  1  0.83333333  0.63973567  0.25762100  1.0
  Nb  Nb557  1  0.83333333  0.97306900  0.25762100  1.0
  Nb  Nb558  1  0.00000000  0.03941690  0.22365014  1.0
  Nb  Nb559  1  0.00000000  0.37275024  0.22365014  1.0
  Nb  Nb560  1  0.00000000  0.70608357  0.22365014  1.0
  Nb  Nb561  1  0.33333333  0.03941690  0.22365014  1.0
  Nb  Nb562  1  0.33333333  0.37275024  0.22365014  1.0
  Nb  Nb563  1  0.33333333  0.70608357  0.22365014  1.0
  Nb  Nb564  1  0.66666667  0.03941690  0.22365014  1.0
  Nb  Nb565  1  0.66666667  0.37275024  0.22365014  1.0
  Nb  Nb566  1  0.66666667  0.70608357  0.22365014  1.0
  Nb  Nb567  1  0.16666667  0.25370262  0.15222157  1.0
  Nb  Nb568  1  0.16666667  0.58703595  0.15222157  1.0
  Nb  Nb569  1  0.16666667  0.92036929  0.15222157  1.0
  Nb  Nb570  1  0.50000000  0.25370262  0.15222157  1.0
  Nb  Nb571  1  0.50000000  0.58703595  0.15222157  1.0
  Nb  Nb572  1  0.50000000  0.92036929  0.15222157  1.0
  Nb  Nb573  1  0.83333333  0.25370262  0.15222157  1.0
  Nb  Nb574  1  0.83333333  0.58703595  0.15222157  1.0
  Nb  Nb575  1  0.83333333  0.92036929  0.15222157  1.0
  Nb  Nb576  1  0.33333333  0.27068805  0.18619243  1.0
  Nb  Nb577  1  0.33333333  0.60402138  0.18619243  1.0
  Nb  Nb578  1  0.33333333  0.93735471  0.18619243  1.0
  Nb  Nb579  1  0.66666667  0.27068805  0.18619243  1.0
  Nb  Nb580  1  0.66666667  0.60402138  0.18619243  1.0
  Nb  Nb581  1  0.66666667  0.93735471  0.18619243  1.0
  Nb  Nb582  1  1.00000000  0.27068805  0.18619243  1.0
  Nb  Nb583  1  1.00000000  0.60402138  0.18619243  1.0
  Nb  Nb584  1  1.00000000  0.93735471  0.18619243  1.0
  Nb  Nb585  1  0.16666667  0.05640233  0.25762100  1.0
  Nb  Nb586  1  0.16666667  0.38973567  0.25762100  1.0
  Nb  Nb587  1  0.16666667  0.72306900  0.25762100  1.0
  Nb  Nb588  1  0.50000000  0.05640233  0.25762100  1.0
  Nb  Nb589  1  0.50000000  0.38973567  0.25762100  1.0
  Nb  Nb590  1  0.50000000  0.72306900  0.25762100  1.0
  Nb  Nb591  1  0.83333333  0.05640233  0.25762100  1.0
  Nb  Nb592  1  0.83333333  0.38973567  0.25762100  1.0
  Nb  Nb593  1  0.83333333  0.72306900  0.25762100  1.0
  Nb  Nb594  1  0.10518367  0.04761905  0.17857143  1.0
  Nb  Nb595  1  0.10518367  0.38095238  0.17857143  1.0
  Nb  Nb596  1  0.10518367  0.71428571  0.17857143  1.0
  Nb  Nb597  1  0.43851700  0.04761905  0.17857143  1.0
  Nb  Nb598  1  0.43851700  0.38095238  0.17857143  1.0
  Nb  Nb599  1  0.43851700  0.71428571  0.17857143  1.0
  Nb  Nb600  1  0.77185033  0.04761905  0.17857143  1.0
  Nb  Nb601  1  0.77185033  0.38095238  0.17857143  1.0
  Nb  Nb602  1  0.77185033  0.71428571  0.17857143  1.0
  Nb  Nb603  1  0.27185033  0.16666667  0.25000000  1.0
  Nb  Nb604  1  0.27185033  0.50000000  0.25000000  1.0
  Nb  Nb605  1  0.27185033  0.83333333  0.25000000  1.0
  Nb  Nb606  1  0.60518367  0.16666667  0.25000000  1.0
  Nb  Nb607  1  0.60518367  0.50000000  0.25000000  1.0
  Nb  Nb608  1  0.60518367  0.83333333  0.25000000  1.0
  Nb  Nb609  1  0.93851700  0.16666667  0.25000000  1.0
  Nb  Nb610  1  0.93851700  0.50000000  0.25000000  1.0
  Nb  Nb611  1  0.93851700  0.83333333  0.25000000  1.0
  Nb  Nb612  1  0.06148300  0.08333333  0.25000000  1.0
  Nb  Nb613  1  0.06148300  0.41666667  0.25000000  1.0
  Nb  Nb614  1  0.06148300  0.75000000  0.25000000  1.0
  Nb  Nb615  1  0.39481633  0.08333333  0.25000000  1.0
  Nb  Nb616  1  0.39481633  0.41666667  0.25000000  1.0
  Nb  Nb617  1  0.39481633  0.75000000  0.25000000  1.0
  Nb  Nb618  1  0.72814967  0.08333333  0.25000000  1.0
  Nb  Nb619  1  0.72814967  0.41666667  0.25000000  1.0
  Nb  Nb620  1  0.72814967  0.75000000  0.25000000  1.0
  Nb  Nb621  1  0.22814967  0.29761905  0.17857143  1.0
  Nb  Nb622  1  0.22814967  0.63095238  0.17857143  1.0
  Nb  Nb623  1  0.22814967  0.96428571  0.17857143  1.0
  Nb  Nb624  1  0.56148300  0.29761905  0.17857143  1.0
  Nb  Nb625  1  0.56148300  0.63095238  0.17857143  1.0
  Nb  Nb626  1  0.56148300  0.96428571  0.17857143  1.0
  Nb  Nb627  1  0.89481633  0.29761905  0.17857143  1.0
  Nb  Nb628  1  0.89481633  0.63095238  0.17857143  1.0
  Nb  Nb629  1  0.89481633  0.96428571  0.17857143  1.0
  Nb  Nb630  1  0.00000000  0.07341208  0.18460605  1.0
  Nb  Nb631  1  0.00000000  0.40674541  0.18460605  1.0
  Nb  Nb632  1  0.00000000  0.74007875  0.18460605  1.0
  Nb  Nb633  1  0.33333333  0.07341208  0.18460605  1.0
  Nb  Nb634  1  0.33333333  0.40674541  0.18460605  1.0
  Nb  Nb635  1  0.33333333  0.74007875  0.18460605  1.0
  Nb  Nb636  1  0.66666667  0.07341208  0.18460605  1.0
  Nb  Nb637  1  0.66666667  0.40674541  0.18460605  1.0
  Nb  Nb638  1  0.66666667  0.74007875  0.18460605  1.0
  Nb  Nb639  1  0.16666667  0.19245970  0.25603462  1.0
  Nb  Nb640  1  0.16666667  0.52579303  0.25603462  1.0
  Nb  Nb641  1  0.16666667  0.85912636  0.25603462  1.0
  Nb  Nb642  1  0.50000000  0.19245970  0.25603462  1.0
  Nb  Nb643  1  0.50000000  0.52579303  0.25603462  1.0
  Nb  Nb644  1  0.50000000  0.85912636  0.25603462  1.0
  Nb  Nb645  1  0.83333333  0.19245970  0.25603462  1.0
  Nb  Nb646  1  0.83333333  0.52579303  0.25603462  1.0
  Nb  Nb647  1  0.83333333  0.85912636  0.25603462  1.0
  Nb  Nb648  1  0.00000000  0.20261732  0.27634986  1.0
  Nb  Nb649  1  0.00000000  0.53595065  0.27634986  1.0
  Nb  Nb650  1  0.00000000  0.86928399  0.27634986  1.0
  Nb  Nb651  1  0.33333333  0.20261732  0.27634986  1.0
  Nb  Nb652  1  0.33333333  0.53595065  0.27634986  1.0
  Nb  Nb653  1  0.33333333  0.86928399  0.27634986  1.0
  Nb  Nb654  1  0.66666667  0.20261732  0.27634986  1.0
  Nb  Nb655  1  0.66666667  0.53595065  0.27634986  1.0
  Nb  Nb656  1  0.66666667  0.86928399  0.27634986  1.0
  Nb  Nb657  1  0.16666667  0.08356970  0.20492129  1.0
  Nb  Nb658  1  0.16666667  0.41690303  0.20492129  1.0
  Nb  Nb659  1  0.16666667  0.75023637  0.20492129  1.0
  Nb  Nb660  1  0.50000000  0.08356970  0.20492129  1.0
  Nb  Nb661  1  0.50000000  0.41690303  0.20492129  1.0
  Nb  Nb662  1  0.50000000  0.75023637  0.20492129  1.0
  Nb  Nb663  1  0.83333333  0.08356970  0.20492129  1.0
  Nb  Nb664  1  0.83333333  0.41690303  0.20492129  1.0
  Nb  Nb665  1  0.83333333  0.75023637  0.20492129  1.0
  Nb  Nb666  1  0.22814967  0.01248590  0.23127114  1.0
  Nb  Nb667  1  0.22814967  0.34581924  0.23127114  1.0
  Nb  Nb668  1  0.22814967  0.67915257  0.23127114  1.0
  Nb  Nb669  1  0.56148300  0.01248590  0.23127114  1.0
  Nb  Nb670  1  0.56148300  0.34581924  0.23127114  1.0
  Nb  Nb671  1  0.56148300  0.67915257  0.23127114  1.0
  Nb  Nb672  1  0.89481633  0.01248590  0.23127114  1.0
  Nb  Nb673  1  0.89481633  0.34581924  0.23127114  1.0
  Nb  Nb674  1  0.89481633  0.67915257  0.23127114  1.0
  Nb  Nb675  1  0.06148300  0.22677162  0.15984257  1.0
  Nb  Nb676  1  0.06148300  0.56010495  0.15984257  1.0
  Nb  Nb677  1  0.06148300  0.89343829  0.15984257  1.0
  Nb  Nb678  1  0.39481633  0.22677162  0.15984257  1.0
  Nb  Nb679  1  0.39481633  0.56010495  0.15984257  1.0
  Nb  Nb680  1  0.39481633  0.89343829  0.15984257  1.0
  Nb  Nb681  1  0.72814967  0.22677162  0.15984257  1.0
  Nb  Nb682  1  0.72814967  0.56010495  0.15984257  1.0
  Nb  Nb683  1  0.72814967  0.89343829  0.15984257  1.0
  Nb  Nb684  1  0.10518367  0.01248590  0.23127114  1.0
  Nb  Nb685  1  0.10518367  0.34581924  0.23127114  1.0
  Nb  Nb686  1  0.10518367  0.67915257  0.23127114  1.0
  Nb  Nb687  1  0.43851700  0.01248590  0.23127114  1.0
  Nb  Nb688  1  0.43851700  0.34581924  0.23127114  1.0
  Nb  Nb689  1  0.43851700  0.67915257  0.23127114  1.0
  Nb  Nb690  1  0.77185033  0.01248590  0.23127114  1.0
  Nb  Nb691  1  0.77185033  0.34581924  0.23127114  1.0
  Nb  Nb692  1  0.77185033  0.67915257  0.23127114  1.0
  Nb  Nb693  1  0.27185033  0.22677162  0.15984257  1.0
  Nb  Nb694  1  0.27185033  0.56010495  0.15984257  1.0
  Nb  Nb695  1  0.27185033  0.89343829  0.15984257  1.0
  Nb  Nb696  1  0.60518367  0.22677162  0.15984257  1.0
  Nb  Nb697  1  0.60518367  0.56010495  0.15984257  1.0
  Nb  Nb698  1  0.60518367  0.89343829  0.15984257  1.0
  Nb  Nb699  1  0.93851700  0.22677162  0.15984257  1.0
  Nb  Nb700  1  0.93851700  0.56010495  0.15984257  1.0
  Nb  Nb701  1  0.93851700  0.89343829  0.15984257  1.0
  Nb  Nb702  1  0.33333333  0.12275024  0.22365014  1.0
  Nb  Nb703  1  0.33333333  0.45608357  0.22365014  1.0
  Nb  Nb704  1  0.33333333  0.78941690  0.22365014  1.0
  Nb  Nb705  1  0.66666667  0.12275024  0.22365014  1.0
  Nb  Nb706  1  0.66666667  0.45608357  0.22365014  1.0
  Nb  Nb707  1  0.66666667  0.78941690  0.22365014  1.0
  Nb  Nb708  1  0.00000000  0.12275024  0.22365014  1.0
  Nb  Nb709  1  0.00000000  0.45608357  0.22365014  1.0
  Nb  Nb710  1  1.00000000  0.78941690  0.22365014  1.0
  Nb  Nb711  1  0.16666667  0.00370262  0.15222157  1.0
  Nb  Nb712  1  0.16666667  0.33703595  0.15222157  1.0
  Nb  Nb713  1  0.16666667  0.67036929  0.15222157  1.0
  Nb  Nb714  1  0.50000000  0.00370262  0.15222157  1.0
  Nb  Nb715  1  0.50000000  0.33703595  0.15222157  1.0
  Nb  Nb716  1  0.50000000  0.67036929  0.15222157  1.0
  Nb  Nb717  1  0.83333333  0.00370262  0.15222157  1.0
  Nb  Nb718  1  0.83333333  0.33703595  0.15222157  1.0
  Nb  Nb719  1  0.83333333  0.67036929  0.15222157  1.0
  Nb  Nb720  1  0.05963222  0.24521176  0.30190652  1.0
  Nb  Nb721  1  0.05963222  0.57854510  0.30190652  1.0
  Nb  Nb722  1  0.05963222  0.91187843  0.30190652  1.0
  Nb  Nb723  1  0.39296555  0.24521176  0.30190652  1.0
  Nb  Nb724  1  0.39296555  0.57854510  0.30190652  1.0
  Nb  Nb725  1  0.39296555  0.91187843  0.30190652  1.0
  Nb  Nb726  1  0.72629889  0.24521176  0.30190652  1.0
  Nb  Nb727  1  0.72629889  0.57854510  0.30190652  1.0
  Nb  Nb728  1  0.72629889  0.91187843  0.30190652  1.0
  Nb  Nb729  1  0.22629889  0.03092605  0.37333510  1.0
  Nb  Nb730  1  0.22629889  0.36425938  0.37333510  1.0
  Nb  Nb731  1  0.22629889  0.69759272  0.37333510  1.0
  Nb  Nb732  1  0.55963222  0.03092605  0.37333510  1.0
  Nb  Nb733  1  0.55963222  0.36425938  0.37333510  1.0
  Nb  Nb734  1  0.55963222  0.69759272  0.37333510  1.0
  Nb  Nb735  1  0.89296555  0.03092605  0.37333510  1.0
  Nb  Nb736  1  0.89296555  0.36425938  0.37333510  1.0
  Nb  Nb737  1  0.89296555  0.69759272  0.37333510  1.0
  Nb  Nb738  1  0.22814967  0.28571429  0.32142857  1.0
  Nb  Nb739  1  0.22814967  0.61904762  0.32142857  1.0
  Nb  Nb740  1  0.22814967  0.95238095  0.32142857  1.0
  Nb  Nb741  1  0.56148300  0.28571429  0.32142857  1.0
  Nb  Nb742  1  0.56148300  0.61904762  0.32142857  1.0
  Nb  Nb743  1  0.56148300  0.95238095  0.32142857  1.0
  Nb  Nb744  1  0.89481633  0.28571429  0.32142857  1.0
  Nb  Nb745  1  0.89481633  0.61904762  0.32142857  1.0
  Nb  Nb746  1  0.89481633  0.95238095  0.32142857  1.0
  Nb  Nb747  1  0.06148300  0.07142857  0.39285714  1.0
  Nb  Nb748  1  0.06148300  0.40476190  0.39285714  1.0
  Nb  Nb749  1  0.06148300  0.73809524  0.39285714  1.0
  Nb  Nb750  1  0.39481633  0.07142857  0.39285714  1.0
  Nb  Nb751  1  0.39481633  0.40476190  0.39285714  1.0
  Nb  Nb752  1  0.39481633  0.73809524  0.39285714  1.0
  Nb  Nb753  1  0.72814967  0.07142857  0.39285714  1.0
  Nb  Nb754  1  0.72814967  0.40476190  0.39285714  1.0
  Nb  Nb755  1  0.72814967  0.73809524  0.39285714  1.0
  Nb  Nb756  1  0.27370111  0.24521176  0.30190652  1.0
  Nb  Nb757  1  0.27370111  0.57854510  0.30190652  1.0
  Nb  Nb758  1  0.27370111  0.91187843  0.30190652  1.0
  Nb  Nb759  1  0.60703444  0.24521176  0.30190652  1.0
  Nb  Nb760  1  0.60703445  0.57854510  0.30190652  1.0
  Nb  Nb761  1  0.60703445  0.91187843  0.30190652  1.0
  Nb  Nb762  1  0.94036778  0.24521176  0.30190652  1.0
  Nb  Nb763  1  0.94036778  0.57854510  0.30190652  1.0
  Nb  Nb764  1  0.94036778  0.91187843  0.30190652  1.0
  Nb  Nb765  1  0.10703445  0.03092605  0.37333510  1.0
  Nb  Nb766  1  0.10703445  0.36425938  0.37333510  1.0
  Nb  Nb767  1  0.10703445  0.69759272  0.37333510  1.0
  Nb  Nb768  1  0.44036778  0.03092605  0.37333510  1.0
  Nb  Nb769  1  0.44036778  0.36425938  0.37333510  1.0
  Nb  Nb770  1  0.44036778  0.69759272  0.37333510  1.0
  Nb  Nb771  1  0.77370111  0.03092605  0.37333510  1.0
  Nb  Nb772  1  0.77370111  0.36425938  0.37333510  1.0
  Nb  Nb773  1  0.77370111  0.69759272  0.37333510  1.0
  Nb  Nb774  1  0.27185033  0.04820019  0.30269971  1.0
  Nb  Nb775  1  0.27185033  0.38153352  0.30269971  1.0
  Nb  Nb776  1  0.27185033  0.71486686  0.30269971  1.0
  Nb  Nb777  1  0.60518367  0.04820019  0.30269971  1.0
  Nb  Nb778  1  0.60518367  0.38153352  0.30269971  1.0
  Nb  Nb779  1  0.60518367  0.71486686  0.30269971  1.0
  Nb  Nb780  1  0.93851700  0.04820019  0.30269971  1.0
  Nb  Nb781  1  0.93851700  0.38153352  0.30269971  1.0
  Nb  Nb782  1  0.93851700  0.71486686  0.30269971  1.0
  Nb  Nb783  1  0.10518367  0.16724781  0.37412829  1.0
  Nb  Nb784  1  0.10518367  0.50058114  0.37412829  1.0
  Nb  Nb785  1  0.10518367  0.83391448  0.37412829  1.0
  Nb  Nb786  1  0.43851700  0.16724781  0.37412829  1.0
  Nb  Nb787  1  0.43851700  0.50058114  0.37412829  1.0
  Nb  Nb788  1  0.43851700  0.83391448  0.37412829  1.0
  Nb  Nb789  1  0.77185033  0.16724781  0.37412829  1.0
  Nb  Nb790  1  0.77185033  0.50058114  0.37412829  1.0
  Nb  Nb791  1  0.77185033  0.83391448  0.37412829  1.0
  Nb  Nb792  1  0.27370111  0.20775033  0.39365033  1.0
  Nb  Nb793  1  0.27370111  0.54108367  0.39365033  1.0
  Nb  Nb794  1  0.27370111  0.87441700  0.39365033  1.0
  Nb  Nb795  1  0.60703444  0.20775033  0.39365033  1.0
  Nb  Nb796  1  0.60703444  0.54108367  0.39365033  1.0
  Nb  Nb797  1  0.60703444  0.87441700  0.39365033  1.0
  Nb  Nb798  1  0.94036778  0.20775033  0.39365033  1.0
  Nb  Nb799  1  0.94036778  0.54108367  0.39365033  1.0
  Nb  Nb800  1  0.94036778  0.87441700  0.39365033  1.0
  Nb  Nb801  1  0.10703445  0.08870271  0.32222176  1.0
  Nb  Nb802  1  0.10703444  0.42203605  0.32222176  1.0
  Nb  Nb803  1  0.10703445  0.75536938  0.32222176  1.0
  Nb  Nb804  1  0.44036778  0.08870271  0.32222176  1.0
  Nb  Nb805  1  0.44036778  0.42203605  0.32222176  1.0
  Nb  Nb806  1  0.44036778  0.75536938  0.32222176  1.0
  Nb  Nb807  1  0.77370111  0.08870271  0.32222176  1.0
  Nb  Nb808  1  0.77370111  0.42203605  0.32222176  1.0
  Nb  Nb809  1  0.77370111  0.75536938  0.32222176  1.0
  Nb  Nb810  1  0.27185033  0.32142857  0.39285714  1.0
  Nb  Nb811  1  0.27185033  0.65476190  0.39285714  1.0
  Nb  Nb812  1  0.27185033  0.98809524  0.39285714  1.0
  Nb  Nb813  1  0.60518367  0.32142857  0.39285714  1.0
  Nb  Nb814  1  0.60518367  0.65476190  0.39285714  1.0
  Nb  Nb815  1  0.60518367  0.98809524  0.39285714  1.0
  Nb  Nb816  1  0.93851700  0.32142857  0.39285714  1.0
  Nb  Nb817  1  0.93851700  0.65476190  0.39285714  1.0
  Nb  Nb818  1  0.93851700  0.98809524  0.39285714  1.0
  Nb  Nb819  1  0.10518367  0.20238095  0.32142857  1.0
  Nb  Nb820  1  0.10518367  0.53571429  0.32142857  1.0
  Nb  Nb821  1  0.10518367  0.86904762  0.32142857  1.0
  Nb  Nb822  1  0.43851700  0.20238095  0.32142857  1.0
  Nb  Nb823  1  0.43851700  0.53571429  0.32142857  1.0
  Nb  Nb824  1  0.43851700  0.86904762  0.32142857  1.0
  Nb  Nb825  1  0.77185033  0.20238095  0.32142857  1.0
  Nb  Nb826  1  0.77185033  0.53571429  0.32142857  1.0
  Nb  Nb827  1  0.77185033  0.86904762  0.32142857  1.0
  Nb  Nb828  1  0.06148300  0.04820019  0.30269971  1.0
  Nb  Nb829  1  0.06148300  0.38153352  0.30269971  1.0
  Nb  Nb830  1  0.06148300  0.71486686  0.30269971  1.0
  Nb  Nb831  1  0.39481633  0.04820019  0.30269971  1.0
  Nb  Nb832  1  0.39481633  0.38153352  0.30269971  1.0
  Nb  Nb833  1  0.39481633  0.71486686  0.30269971  1.0
  Nb  Nb834  1  0.72814967  0.04820019  0.30269971  1.0
  Nb  Nb835  1  0.72814967  0.38153352  0.30269971  1.0
  Nb  Nb836  1  0.72814967  0.71486686  0.30269971  1.0
  Nb  Nb837  1  0.22814967  0.16724781  0.37412829  1.0
  Nb  Nb838  1  0.22814967  0.50058114  0.37412829  1.0
  Nb  Nb839  1  0.22814967  0.83391448  0.37412829  1.0
  Nb  Nb840  1  0.56148300  0.16724781  0.37412829  1.0
  Nb  Nb841  1  0.56148300  0.50058114  0.37412829  1.0
  Nb  Nb842  1  0.56148300  0.83391448  0.37412829  1.0
  Nb  Nb843  1  0.89481633  0.16724781  0.37412829  1.0
  Nb  Nb844  1  0.89481633  0.50058114  0.37412829  1.0
  Nb  Nb845  1  0.89481633  0.83391448  0.37412829  1.0
  Nb  Nb846  1  0.05963222  0.20775033  0.39365033  1.0
  Nb  Nb847  1  0.05963222  0.54108367  0.39365033  1.0
  Nb  Nb848  1  0.05963222  0.87441700  0.39365033  1.0
  Nb  Nb849  1  0.39296556  0.20775033  0.39365033  1.0
  Nb  Nb850  1  0.39296555  0.54108367  0.39365033  1.0
  Nb  Nb851  1  0.39296556  0.87441700  0.39365033  1.0
  Nb  Nb852  1  0.72629889  0.20775033  0.39365033  1.0
  Nb  Nb853  1  0.72629889  0.54108367  0.39365033  1.0
  Nb  Nb854  1  0.72629889  0.87441700  0.39365033  1.0
  Nb  Nb855  1  0.22629889  0.08870271  0.32222176  1.0
  Nb  Nb856  1  0.22629889  0.42203605  0.32222176  1.0
  Nb  Nb857  1  0.22629889  0.75536938  0.32222176  1.0
  Nb  Nb858  1  0.55963222  0.08870271  0.32222176  1.0
  Nb  Nb859  1  0.55963222  0.42203605  0.32222176  1.0
  Nb  Nb860  1  0.55963222  0.75536938  0.32222176  1.0
  Nb  Nb861  1  0.89296555  0.08870271  0.32222176  1.0
  Nb  Nb862  1  0.89296555  0.42203605  0.32222176  1.0
  Nb  Nb863  1  0.89296555  0.75536938  0.32222176  1.0
  Nb  Nb864  1  0.33333333  0.14145478  0.36809367  1.0
  Nb  Nb865  1  0.33333333  0.47478811  0.36809367  1.0
  Nb  Nb866  1  0.33333333  0.80812145  0.36809367  1.0
  Nb  Nb867  1  0.66666667  0.14145478  0.36809367  1.0
  Nb  Nb868  1  0.66666667  0.47478811  0.36809367  1.0
  Nb  Nb869  1  0.66666667  0.80812145  0.36809367  1.0
  Nb  Nb870  1  0.00000000  0.14145478  0.36809367  1.0
  Nb  Nb871  1  1.00000000  0.47478811  0.36809367  1.0
  Nb  Nb872  1  1.00000000  0.80812145  0.36809367  1.0
  Nb  Nb873  1  0.16666667  0.02240716  0.29666510  1.0
  Nb  Nb874  1  0.16666667  0.35574049  0.29666510  1.0
  Nb  Nb875  1  0.16666667  0.68907383  0.29666510  1.0
  Nb  Nb876  1  0.50000000  0.02240716  0.29666510  1.0
  Nb  Nb877  1  0.50000000  0.35574049  0.29666510  1.0
  Nb  Nb878  1  0.50000000  0.68907383  0.29666510  1.0
  Nb  Nb879  1  0.83333333  0.02240716  0.29666510  1.0
  Nb  Nb880  1  0.83333333  0.35574049  0.29666510  1.0
  Nb  Nb881  1  0.83333333  0.68907383  0.29666510  1.0
  Nb  Nb882  1  0.00000000  0.25034478  0.41920700  1.0
  Nb  Nb883  1  0.00000000  0.58367811  0.41920700  1.0
  Nb  Nb884  1  0.00000000  0.91701144  0.41920700  1.0
  Nb  Nb885  1  0.33333333  0.25034478  0.41920700  1.0
  Nb  Nb886  1  0.33333333  0.58367811  0.41920700  1.0
  Nb  Nb887  1  0.33333333  0.91701144  0.41920700  1.0
  Nb  Nb888  1  0.66666667  0.25034478  0.41920700  1.0
  Nb  Nb889  1  0.66666667  0.58367811  0.41920700  1.0
  Nb  Nb890  1  0.66666667  0.91701144  0.41920700  1.0
  Nb  Nb891  1  0.16666667  0.13129716  0.34777843  1.0
  Nb  Nb892  1  0.16666667  0.46463049  0.34777843  1.0
  Nb  Nb893  1  0.16666667  0.79796382  0.34777843  1.0
  Nb  Nb894  1  0.50000000  0.13129716  0.34777843  1.0
  Nb  Nb895  1  0.50000000  0.46463049  0.34777843  1.0
  Nb  Nb896  1  0.50000000  0.79796382  0.34777843  1.0
  Nb  Nb897  1  0.83333333  0.13129716  0.34777843  1.0
  Nb  Nb898  1  0.83333333  0.46463049  0.34777843  1.0
  Nb  Nb899  1  0.83333333  0.79796382  0.34777843  1.0
  Nb  Nb900  1  0.00000000  0.09211662  0.32904957  1.0
  Nb  Nb901  1  0.00000000  0.42544995  0.32904957  1.0
  Nb  Nb902  1  0.00000000  0.75878329  0.32904957  1.0
  Nb  Nb903  1  0.33333333  0.09211662  0.32904957  1.0
  Nb  Nb904  1  0.33333333  0.42544995  0.32904957  1.0
  Nb  Nb905  1  0.33333333  0.75878329  0.32904957  1.0
  Nb  Nb906  1  0.66666667  0.09211662  0.32904957  1.0
  Nb  Nb907  1  0.66666667  0.42544995  0.32904957  1.0
  Nb  Nb908  1  0.66666667  0.75878329  0.32904957  1.0
  Nb  Nb909  1  0.16666667  0.21116424  0.40047814  1.0
  Nb  Nb910  1  0.16666667  0.54449757  0.40047814  1.0
  Nb  Nb911  1  0.16666667  0.87783090  0.40047814  1.0
  Nb  Nb912  1  0.50000000  0.21116424  0.40047814  1.0
  Nb  Nb913  1  0.50000000  0.54449757  0.40047814  1.0
  Nb  Nb914  1  0.50000000  0.87783090  0.40047814  1.0
  Nb  Nb915  1  0.83333333  0.21116424  0.40047814  1.0
  Nb  Nb916  1  0.83333333  0.54449757  0.40047814  1.0
  Nb  Nb917  1  0.83333333  0.87783090  0.40047814  1.0
  Nb  Nb918  1  0.00000000  0.27751214  0.36650729  1.0
  Nb  Nb919  1  0.00000000  0.61084548  0.36650729  1.0
  Nb  Nb920  1  0.00000000  0.94417881  0.36650729  1.0
  Nb  Nb921  1  0.33333333  0.27751214  0.36650729  1.0
  Nb  Nb922  1  0.33333333  0.61084548  0.36650729  1.0
  Nb  Nb923  1  0.33333333  0.94417881  0.36650729  1.0
  Nb  Nb924  1  0.66666667  0.27751214  0.36650729  1.0
  Nb  Nb925  1  0.66666667  0.61084548  0.36650729  1.0
  Nb  Nb926  1  0.66666667  0.94417881  0.36650729  1.0
  Nb  Nb927  1  0.16666667  0.15846452  0.29507871  1.0
  Nb  Nb928  1  0.16666667  0.49179786  0.29507871  1.0
  Nb  Nb929  1  0.16666667  0.82513119  0.29507871  1.0
  Nb  Nb930  1  0.50000000  0.15846452  0.29507871  1.0
  Nb  Nb931  1  0.50000000  0.49179786  0.29507871  1.0
  Nb  Nb932  1  0.50000000  0.82513119  0.29507871  1.0
  Nb  Nb933  1  0.83333333  0.15846452  0.29507871  1.0
  Nb  Nb934  1  0.83333333  0.49179786  0.29507871  1.0
  Nb  Nb935  1  0.83333333  0.82513119  0.29507871  1.0
  Nb  Nb936  1  0.33333333  0.17544995  0.32904957  1.0
  Nb  Nb937  1  0.33333333  0.50878329  0.32904957  1.0
  Nb  Nb938  1  0.33333333  0.84211662  0.32904957  1.0
  Nb  Nb939  1  0.66666667  0.17544995  0.32904957  1.0
  Nb  Nb940  1  0.66666667  0.50878329  0.32904957  1.0
  Nb  Nb941  1  0.66666667  0.84211662  0.32904957  1.0
  Nb  Nb942  1  1.00000000  0.17544995  0.32904957  1.0
  Nb  Nb943  1  1.00000000  0.50878329  0.32904957  1.0
  Nb  Nb944  1  1.00000000  0.84211662  0.32904957  1.0
  Nb  Nb945  1  0.16666667  0.29449757  0.40047814  1.0
  Nb  Nb946  1  0.16666667  0.62783090  0.40047814  1.0
  Nb  Nb947  1  0.16666667  0.96116424  0.40047814  1.0
  Nb  Nb948  1  0.50000000  0.29449757  0.40047814  1.0
  Nb  Nb949  1  0.50000000  0.62783090  0.40047814  1.0
  Nb  Nb950  1  0.50000000  0.96116424  0.40047814  1.0
  Nb  Nb951  1  0.83333333  0.29449757  0.40047814  1.0
  Nb  Nb952  1  0.83333333  0.62783090  0.40047814  1.0
  Nb  Nb953  1  0.83333333  0.96116424  0.40047814  1.0
  Nb  Nb954  1  0.10518367  0.28571429  0.32142857  1.0
  Nb  Nb955  1  0.10518367  0.61904762  0.32142857  1.0
  Nb  Nb956  1  0.10518367  0.95238095  0.32142857  1.0
  Nb  Nb957  1  0.43851700  0.28571429  0.32142857  1.0
  Nb  Nb958  1  0.43851700  0.61904762  0.32142857  1.0
  Nb  Nb959  1  0.43851700  0.95238095  0.32142857  1.0
  Nb  Nb960  1  0.77185033  0.28571429  0.32142857  1.0
  Nb  Nb961  1  0.77185033  0.61904762  0.32142857  1.0
  Nb  Nb962  1  0.77185033  0.95238095  0.32142857  1.0
  Nb  Nb963  1  0.27185033  0.07142857  0.39285714  1.0
  Nb  Nb964  1  0.27185033  0.40476190  0.39285714  1.0
  Nb  Nb965  1  0.27185033  0.73809524  0.39285714  1.0
  Nb  Nb966  1  0.60518367  0.07142857  0.39285714  1.0
  Nb  Nb967  1  0.60518367  0.40476190  0.39285714  1.0
  Nb  Nb968  1  0.60518367  0.73809524  0.39285714  1.0
  Nb  Nb969  1  0.93851700  0.07142857  0.39285714  1.0
  Nb  Nb970  1  0.93851700  0.40476190  0.39285714  1.0
  Nb  Nb971  1  0.93851700  0.73809524  0.39285714  1.0
  Nb  Nb972  1  0.06148300  0.32142857  0.39285714  1.0
  Nb  Nb973  1  0.06148300  0.65476190  0.39285714  1.0
  Nb  Nb974  1  0.06148300  0.98809524  0.39285714  1.0
  Nb  Nb975  1  0.39481633  0.32142857  0.39285714  1.0
  Nb  Nb976  1  0.39481633  0.65476190  0.39285714  1.0
  Nb  Nb977  1  0.39481633  0.98809524  0.39285714  1.0
  Nb  Nb978  1  0.72814967  0.32142857  0.39285714  1.0
  Nb  Nb979  1  0.72814967  0.65476190  0.39285714  1.0
  Nb  Nb980  1  0.72814967  0.98809524  0.39285714  1.0
  Nb  Nb981  1  0.22814967  0.20238095  0.32142857  1.0
  Nb  Nb982  1  0.22814967  0.53571429  0.32142857  1.0
  Nb  Nb983  1  0.22814967  0.86904762  0.32142857  1.0
  Nb  Nb984  1  0.56148300  0.20238095  0.32142857  1.0
  Nb  Nb985  1  0.56148300  0.53571429  0.32142857  1.0
  Nb  Nb986  1  0.56148300  0.86904762  0.32142857  1.0
  Nb  Nb987  1  0.89481633  0.20238095  0.32142857  1.0
  Nb  Nb988  1  0.89481633  0.53571429  0.32142857  1.0
  Nb  Nb989  1  0.89481633  0.86904762  0.32142857  1.0
  Nb  Nb990  1  0.00000000  0.31150732  0.32746319  1.0
  Nb  Nb991  1  0.00000000  0.64484065  0.32746319  1.0
  Nb  Nb992  1  0.00000000  0.97817398  0.32746319  1.0
  Nb  Nb993  1  0.33333333  0.31150732  0.32746319  1.0
  Nb  Nb994  1  0.33333333  0.64484065  0.32746319  1.0
  Nb  Nb995  1  0.33333333  0.97817398  0.32746319  1.0
  Nb  Nb996  1  0.66666667  0.31150732  0.32746319  1.0
  Nb  Nb997  1  0.66666667  0.64484065  0.32746319  1.0
  Nb  Nb998  1  0.66666667  0.97817398  0.32746319  1.0
  Nb  Nb999  1  0.16666667  0.09722160  0.39889176  1.0
  Nb  Nb1000  1  0.16666667  0.43055494  0.39889176  1.0
  Nb  Nb1001  1  0.16666667  0.76388827  0.39889176  1.0
  Nb  Nb1002  1  0.50000000  0.09722160  0.39889176  1.0
  Nb  Nb1003  1  0.50000000  0.43055494  0.39889176  1.0
  Nb  Nb1004  1  0.50000000  0.76388827  0.39889176  1.0
  Nb  Nb1005  1  0.83333333  0.09722160  0.39889176  1.0
  Nb  Nb1006  1  0.83333333  0.43055494  0.39889176  1.0
  Nb  Nb1007  1  0.83333333  0.76388827  0.39889176  1.0
  Nb  Nb1008  1  0.00000000  0.10737922  0.41920700  1.0
  Nb  Nb1009  1  0.00000000  0.44071256  0.41920700  1.0
  Nb  Nb1010  1  0.00000000  0.77404589  0.41920700  1.0
  Nb  Nb1011  1  0.33333333  0.10737922  0.41920700  1.0
  Nb  Nb1012  1  0.33333333  0.44071256  0.41920700  1.0
  Nb  Nb1013  1  0.33333333  0.77404589  0.41920700  1.0
  Nb  Nb1014  1  0.66666667  0.10737922  0.41920700  1.0
  Nb  Nb1015  1  0.66666667  0.44071256  0.41920700  1.0
  Nb  Nb1016  1  0.66666667  0.77404589  0.41920700  1.0
  Nb  Nb1017  1  0.16666667  0.32166494  0.34777843  1.0
  Nb  Nb1018  1  0.16666667  0.65499827  0.34777843  1.0
  Nb  Nb1019  1  0.16666667  0.98833160  0.34777843  1.0
  Nb  Nb1020  1  0.50000000  0.32166494  0.34777843  1.0
  Nb  Nb1021  1  0.50000000  0.65499827  0.34777843  1.0
  Nb  Nb1022  1  0.50000000  0.98833160  0.34777843  1.0
  Nb  Nb1023  1  0.83333333  0.32166494  0.34777843  1.0
  Nb  Nb1024  1  0.83333333  0.65499827  0.34777843  1.0
  Nb  Nb1025  1  0.83333333  0.98833160  0.34777843  1.0
  Nb  Nb1026  1  0.22814967  0.25058114  0.37412829  1.0
  Nb  Nb1027  1  0.22814967  0.58391448  0.37412829  1.0
  Nb  Nb1028  1  0.22814967  0.91724781  0.37412829  1.0
  Nb  Nb1029  1  0.56148300  0.25058114  0.37412829  1.0
  Nb  Nb1030  1  0.56148300  0.58391448  0.37412829  1.0
  Nb  Nb1031  1  0.56148300  0.91724781  0.37412829  1.0
  Nb  Nb1032  1  0.89481633  0.25058114  0.37412829  1.0
  Nb  Nb1033  1  0.89481633  0.58391448  0.37412829  1.0
  Nb  Nb1034  1  0.89481633  0.91724781  0.37412829  1.0
  Nb  Nb1035  1  0.06148300  0.13153352  0.30269971  1.0
  Nb  Nb1036  1  0.06148300  0.46486686  0.30269971  1.0
  Nb  Nb1037  1  0.06148300  0.79820019  0.30269971  1.0
  Nb  Nb1038  1  0.39481633  0.13153352  0.30269971  1.0
  Nb  Nb1039  1  0.39481633  0.46486686  0.30269971  1.0
  Nb  Nb1040  1  0.39481633  0.79820019  0.30269971  1.0
  Nb  Nb1041  1  0.72814967  0.13153352  0.30269971  1.0
  Nb  Nb1042  1  0.72814967  0.46486686  0.30269971  1.0
  Nb  Nb1043  1  0.72814967  0.79820019  0.30269971  1.0
  Nb  Nb1044  1  0.10518367  0.25058114  0.37412829  1.0
  Nb  Nb1045  1  0.10518367  0.58391448  0.37412829  1.0
  Nb  Nb1046  1  0.10518367  0.91724781  0.37412829  1.0
  Nb  Nb1047  1  0.43851700  0.25058114  0.37412829  1.0
  Nb  Nb1048  1  0.43851700  0.58391448  0.37412829  1.0
  Nb  Nb1049  1  0.43851700  0.91724781  0.37412829  1.0
  Nb  Nb1050  1  0.77185033  0.25058114  0.37412829  1.0
  Nb  Nb1051  1  0.77185033  0.58391448  0.37412829  1.0
  Nb  Nb1052  1  0.77185033  0.91724781  0.37412829  1.0
  Nb  Nb1053  1  0.27185033  0.13153352  0.30269971  1.0
  Nb  Nb1054  1  0.27185033  0.46486686  0.30269971  1.0
  Nb  Nb1055  1  0.27185033  0.79820019  0.30269971  1.0
  Nb  Nb1056  1  0.60518367  0.13153352  0.30269971  1.0
  Nb  Nb1057  1  0.60518367  0.46486686  0.30269971  1.0
  Nb  Nb1058  1  0.60518367  0.79820019  0.30269971  1.0
  Nb  Nb1059  1  0.93851700  0.13153352  0.30269971  1.0
  Nb  Nb1060  1  0.93851700  0.46486686  0.30269971  1.0
  Nb  Nb1061  1  0.93851700  0.79820019  0.30269971  1.0
  Nb  Nb1062  1  0.00000000  0.02751214  0.36650729  1.0
  Nb  Nb1063  1  0.00000000  0.36084548  0.36650729  1.0
  Nb  Nb1064  1  0.00000000  0.69417881  0.36650729  1.0
  Nb  Nb1065  1  0.33333333  0.02751214  0.36650729  1.0
  Nb  Nb1066  1  0.33333333  0.36084548  0.36650729  1.0
  Nb  Nb1067  1  0.33333333  0.69417881  0.36650729  1.0
  Nb  Nb1068  1  0.66666667  0.02751214  0.36650729  1.0
  Nb  Nb1069  1  0.66666667  0.36084548  0.36650729  1.0
  Nb  Nb1070  1  0.66666667  0.69417881  0.36650729  1.0
  Nb  Nb1071  1  0.16666667  0.24179786  0.29507871  1.0
  Nb  Nb1072  1  0.16666667  0.57513119  0.29507871  1.0
  Nb  Nb1073  1  0.16666667  0.90846452  0.29507871  1.0
  Nb  Nb1074  1  0.50000000  0.24179786  0.29507871  1.0
  Nb  Nb1075  1  0.50000000  0.57513119  0.29507871  1.0
  Nb  Nb1076  1  0.50000000  0.90846452  0.29507871  1.0
  Nb  Nb1077  1  0.83333333  0.24179786  0.29507871  1.0
  Nb  Nb1078  1  0.83333333  0.57513119  0.29507871  1.0
  Nb  Nb1079  1  0.83333333  0.90846452  0.29507871  1.0
  Ni  Ni1080  1  0.25000000  0.19076676  0.02634986  1.0
  Ni  Ni1081  1  0.25000000  0.52410010  0.02634986  1.0
  Ni  Ni1082  1  0.25000000  0.85743343  0.02634986  1.0
  Ni  Ni1083  1  0.58333333  0.19076676  0.02634986  1.0
  Ni  Ni1084  1  0.58333333  0.52410010  0.02634986  1.0
  Ni  Ni1085  1  0.58333333  0.85743343  0.02634986  1.0
  Ni  Ni1086  1  0.91666667  0.19076676  0.02634986  1.0
  Ni  Ni1087  1  0.91666667  0.52410010  0.02634986  1.0
  Ni  Ni1088  1  0.91666667  0.85743343  0.02634986  1.0
  Ni  Ni1089  1  0.08333333  0.30981438  0.09777843  1.0
  Ni  Ni1090  1  0.08333333  0.64314771  0.09777843  1.0
  Ni  Ni1091  1  0.08333333  0.97648105  0.09777843  1.0
  Ni  Ni1092  1  0.41666667  0.30981438  0.09777843  1.0
  Ni  Ni1093  1  0.41666667  0.64314771  0.09777843  1.0
  Ni  Ni1094  1  0.41666667  0.97648105  0.09777843  1.0
  Ni  Ni1095  1  0.75000000  0.30981438  0.09777843  1.0
  Ni  Ni1096  1  0.75000000  0.64314771  0.09777843  1.0
  Ni  Ni1097  1  0.75000000  0.97648105  0.09777843  1.0
  Ni  Ni1098  1  0.08333333  0.19076676  0.02634986  1.0
  Ni  Ni1099  1  0.08333333  0.52410010  0.02634986  1.0
  Ni  Ni1100  1  0.08333333  0.85743343  0.02634986  1.0
  Ni  Ni1101  1  0.41666667  0.19076676  0.02634986  1.0
  Ni  Ni1102  1  0.41666667  0.52410010  0.02634986  1.0
  Ni  Ni1103  1  0.41666667  0.85743343  0.02634986  1.0
  Ni  Ni1104  1  0.75000000  0.19076676  0.02634986  1.0
  Ni  Ni1105  1  0.75000000  0.52410010  0.02634986  1.0
  Ni  Ni1106  1  0.75000000  0.85743343  0.02634986  1.0
  Ni  Ni1107  1  0.25000000  0.30981438  0.09777843  1.0
  Ni  Ni1108  1  0.25000000  0.64314771  0.09777843  1.0
  Ni  Ni1109  1  0.25000000  0.97648105  0.09777843  1.0
  Ni  Ni1110  1  0.58333333  0.30981438  0.09777843  1.0
  Ni  Ni1111  1  0.58333333  0.64314771  0.09777843  1.0
  Ni  Ni1112  1  0.58333333  0.97648105  0.09777843  1.0
  Ni  Ni1113  1  0.91666667  0.30981438  0.09777843  1.0
  Ni  Ni1114  1  0.91666667  0.64314771  0.09777843  1.0
  Ni  Ni1115  1  0.91666667  0.97648105  0.09777843  1.0
  Ni  Ni1116  1  0.00000000  0.03600486  0.13349271  1.0
  Ni  Ni1117  1  0.00000000  0.36933819  0.13349271  1.0
  Ni  Ni1118  1  0.00000000  0.70267152  0.13349271  1.0
  Ni  Ni1119  1  0.33333333  0.03600486  0.13349271  1.0
  Ni  Ni1120  1  0.33333333  0.36933819  0.13349271  1.0
  Ni  Ni1121  1  0.33333333  0.70267152  0.13349271  1.0
  Ni  Ni1122  1  0.66666667  0.03600486  0.13349271  1.0
  Ni  Ni1123  1  0.66666667  0.36933819  0.13349271  1.0
  Ni  Ni1124  1  0.66666667  0.70267152  0.13349271  1.0
  Ni  Ni1125  1  0.16666667  0.25029057  0.06206414  1.0
  Ni  Ni1126  1  0.16666667  0.58362390  0.06206414  1.0
  Ni  Ni1127  1  0.16666667  0.91695724  0.06206414  1.0
  Ni  Ni1128  1  0.50000000  0.25029057  0.06206414  1.0
  Ni  Ni1129  1  0.50000000  0.58362390  0.06206414  1.0
  Ni  Ni1130  1  0.50000000  0.91695724  0.06206414  1.0
  Ni  Ni1131  1  0.83333333  0.25029057  0.06206414  1.0
  Ni  Ni1132  1  0.83333333  0.58362390  0.06206414  1.0
  Ni  Ni1133  1  0.83333333  0.91695724  0.06206414  1.0
  Ni  Ni1134  1  0.00000000  0.08362390  0.06206414  1.0
  Ni  Ni1135  1  0.00000000  0.41695724  0.06206414  1.0
  Ni  Ni1136  1  0.00000000  0.75029057  0.06206414  1.0
  Ni  Ni1137  1  0.33333333  0.08362390  0.06206414  1.0
  Ni  Ni1138  1  0.33333333  0.41695724  0.06206414  1.0
  Ni  Ni1139  1  0.33333333  0.75029057  0.06206414  1.0
  Ni  Ni1140  1  0.66666667  0.08362390  0.06206414  1.0
  Ni  Ni1141  1  0.66666667  0.41695724  0.06206414  1.0
  Ni  Ni1142  1  0.66666667  0.75029057  0.06206414  1.0
  Ni  Ni1143  1  0.16666667  0.20267152  0.13349271  1.0
  Ni  Ni1144  1  0.16666667  0.53600486  0.13349271  1.0
  Ni  Ni1145  1  0.16666667  0.86933819  0.13349271  1.0
  Ni  Ni1146  1  0.50000000  0.20267152  0.13349271  1.0
  Ni  Ni1147  1  0.50000000  0.53600486  0.13349271  1.0
  Ni  Ni1148  1  0.50000000  0.86933819  0.13349271  1.0
  Ni  Ni1149  1  0.83333333  0.20267152  0.13349271  1.0
  Ni  Ni1150  1  0.83333333  0.53600486  0.13349271  1.0
  Ni  Ni1151  1  0.83333333  0.86933819  0.13349271  1.0
  Ni  Ni1152  1  0.25000000  0.09552867  0.16920700  1.0
  Ni  Ni1153  1  0.25000000  0.42886200  0.16920700  1.0
  Ni  Ni1154  1  0.25000000  0.76219533  0.16920700  1.0
  Ni  Ni1155  1  0.58333333  0.09552867  0.16920700  1.0
  Ni  Ni1156  1  0.58333333  0.42886200  0.16920700  1.0
  Ni  Ni1157  1  0.58333333  0.76219533  0.16920700  1.0
  Ni  Ni1158  1  0.91666667  0.09552867  0.16920700  1.0
  Ni  Ni1159  1  0.91666667  0.42886200  0.16920700  1.0
  Ni  Ni1160  1  0.91666667  0.76219533  0.16920700  1.0
  Ni  Ni1161  1  0.08333333  0.21457629  0.24063557  1.0
  Ni  Ni1162  1  0.08333333  0.54790962  0.24063557  1.0
  Ni  Ni1163  1  0.08333333  0.88124295  0.24063557  1.0
  Ni  Ni1164  1  0.41666667  0.21457629  0.24063557  1.0
  Ni  Ni1165  1  0.41666667  0.54790962  0.24063557  1.0
  Ni  Ni1166  1  0.41666667  0.88124295  0.24063557  1.0
  Ni  Ni1167  1  0.75000000  0.21457629  0.24063557  1.0
  Ni  Ni1168  1  0.75000000  0.54790962  0.24063557  1.0
  Ni  Ni1169  1  0.75000000  0.88124295  0.24063557  1.0
  Ni  Ni1170  1  0.08333333  0.09552867  0.16920700  1.0
  Ni  Ni1171  1  0.08333333  0.42886200  0.16920700  1.0
  Ni  Ni1172  1  0.08333333  0.76219533  0.16920700  1.0
  Ni  Ni1173  1  0.41666667  0.09552867  0.16920700  1.0
  Ni  Ni1174  1  0.41666667  0.42886200  0.16920700  1.0
  Ni  Ni1175  1  0.41666667  0.76219533  0.16920700  1.0
  Ni  Ni1176  1  0.75000000  0.09552867  0.16920700  1.0
  Ni  Ni1177  1  0.75000000  0.42886200  0.16920700  1.0
  Ni  Ni1178  1  0.75000000  0.76219533  0.16920700  1.0
  Ni  Ni1179  1  0.25000000  0.21457629  0.24063557  1.0
  Ni  Ni1180  1  0.25000000  0.54790962  0.24063557  1.0
  Ni  Ni1181  1  0.25000000  0.88124295  0.24063557  1.0
  Ni  Ni1182  1  0.58333333  0.21457629  0.24063557  1.0
  Ni  Ni1183  1  0.58333333  0.54790962  0.24063557  1.0
  Ni  Ni1184  1  0.58333333  0.88124295  0.24063557  1.0
  Ni  Ni1185  1  0.91666667  0.21457629  0.24063557  1.0
  Ni  Ni1186  1  0.91666667  0.54790962  0.24063557  1.0
  Ni  Ni1187  1  0.91666667  0.88124295  0.24063557  1.0
  Ni  Ni1188  1  0.00000000  0.27410010  0.27634986  1.0
  Ni  Ni1189  1  0.00000000  0.60743343  0.27634986  1.0
  Ni  Ni1190  1  0.00000000  0.94076676  0.27634986  1.0
  Ni  Ni1191  1  0.33333333  0.27410010  0.27634986  1.0
  Ni  Ni1192  1  0.33333333  0.60743343  0.27634986  1.0
  Ni  Ni1193  1  0.33333333  0.94076676  0.27634986  1.0
  Ni  Ni1194  1  0.66666667  0.27410010  0.27634986  1.0
  Ni  Ni1195  1  0.66666667  0.60743343  0.27634986  1.0
  Ni  Ni1196  1  0.66666667  0.94076676  0.27634986  1.0
  Ni  Ni1197  1  0.16666667  0.15505248  0.20492129  1.0
  Ni  Ni1198  1  0.16666667  0.48838581  0.20492129  1.0
  Ni  Ni1199  1  0.16666667  0.82171914  0.20492129  1.0
  Ni  Ni1200  1  0.50000000  0.15505248  0.20492129  1.0
  Ni  Ni1201  1  0.50000000  0.48838581  0.20492129  1.0
  Ni  Ni1202  1  0.50000000  0.82171914  0.20492129  1.0
  Ni  Ni1203  1  0.83333333  0.15505248  0.20492129  1.0
  Ni  Ni1204  1  0.83333333  0.48838581  0.20492129  1.0
  Ni  Ni1205  1  0.83333333  0.82171914  0.20492129  1.0
  Ni  Ni1206  1  0.00000000  0.32171914  0.20492129  1.0
  Ni  Ni1207  1  0.00000000  0.65505248  0.20492129  1.0
  Ni  Ni1208  1  0.00000000  0.98838581  0.20492129  1.0
  Ni  Ni1209  1  0.33333333  0.32171914  0.20492129  1.0
  Ni  Ni1210  1  0.33333333  0.65505248  0.20492129  1.0
  Ni  Ni1211  1  0.33333333  0.98838581  0.20492129  1.0
  Ni  Ni1212  1  0.66666667  0.32171914  0.20492129  1.0
  Ni  Ni1213  1  0.66666667  0.65505248  0.20492129  1.0
  Ni  Ni1214  1  0.66666667  0.98838581  0.20492129  1.0
  Ni  Ni1215  1  0.16666667  0.10743343  0.27634986  1.0
  Ni  Ni1216  1  0.16666667  0.44076676  0.27634986  1.0
  Ni  Ni1217  1  0.16666667  0.77410010  0.27634986  1.0
  Ni  Ni1218  1  0.50000000  0.10743343  0.27634986  1.0
  Ni  Ni1219  1  0.50000000  0.44076676  0.27634986  1.0
  Ni  Ni1220  1  0.50000000  0.77410010  0.27634986  1.0
  Ni  Ni1221  1  0.83333333  0.10743343  0.27634986  1.0
  Ni  Ni1222  1  0.83333333  0.44076676  0.27634986  1.0
  Ni  Ni1223  1  0.83333333  0.77410010  0.27634986  1.0
  Ni  Ni1224  1  0.25000000  0.00029057  0.31206414  1.0
  Ni  Ni1225  1  0.25000000  0.33362390  0.31206414  1.0
  Ni  Ni1226  1  0.25000000  0.66695724  0.31206414  1.0
  Ni  Ni1227  1  0.58333333  0.00029057  0.31206414  1.0
  Ni  Ni1228  1  0.58333333  0.33362390  0.31206414  1.0
  Ni  Ni1229  1  0.58333333  0.66695724  0.31206414  1.0
  Ni  Ni1230  1  0.91666667  0.00029057  0.31206414  1.0
  Ni  Ni1231  1  0.91666667  0.33362390  0.31206414  1.0
  Ni  Ni1232  1  0.91666667  0.66695724  0.31206414  1.0
  Ni  Ni1233  1  0.08333333  0.11933819  0.38349271  1.0
  Ni  Ni1234  1  0.08333333  0.45267152  0.38349271  1.0
  Ni  Ni1235  1  0.08333333  0.78600486  0.38349271  1.0
  Ni  Ni1236  1  0.41666667  0.11933819  0.38349271  1.0
  Ni  Ni1237  1  0.41666667  0.45267152  0.38349271  1.0
  Ni  Ni1238  1  0.41666667  0.78600486  0.38349271  1.0
  Ni  Ni1239  1  0.75000000  0.11933819  0.38349271  1.0
  Ni  Ni1240  1  0.75000000  0.45267152  0.38349271  1.0
  Ni  Ni1241  1  0.75000000  0.78600486  0.38349271  1.0
  Ni  Ni1242  1  0.08333333  0.00029057  0.31206414  1.0
  Ni  Ni1243  1  0.08333333  0.33362390  0.31206414  1.0
  Ni  Ni1244  1  0.08333333  0.66695724  0.31206414  1.0
  Ni  Ni1245  1  0.41666667  0.00029057  0.31206414  1.0
  Ni  Ni1246  1  0.41666667  0.33362390  0.31206414  1.0
  Ni  Ni1247  1  0.41666667  0.66695724  0.31206414  1.0
  Ni  Ni1248  1  0.75000000  0.00029057  0.31206414  1.0
  Ni  Ni1249  1  0.75000000  0.33362390  0.31206414  1.0
  Ni  Ni1250  1  0.75000000  0.66695724  0.31206414  1.0
  Ni  Ni1251  1  0.25000000  0.11933819  0.38349271  1.0
  Ni  Ni1252  1  0.25000000  0.45267152  0.38349271  1.0
  Ni  Ni1253  1  0.25000000  0.78600486  0.38349271  1.0
  Ni  Ni1254  1  0.58333333  0.11933819  0.38349271  1.0
  Ni  Ni1255  1  0.58333333  0.45267152  0.38349271  1.0
  Ni  Ni1256  1  0.58333333  0.78600486  0.38349271  1.0
  Ni  Ni1257  1  0.91666667  0.11933819  0.38349271  1.0
  Ni  Ni1258  1  0.91666667  0.45267152  0.38349271  1.0
  Ni  Ni1259  1  0.91666667  0.78600486  0.38349271  1.0
  Ni  Ni1260  1  0.00000000  0.17886200  0.41920700  1.0
  Ni  Ni1261  1  0.00000000  0.51219533  0.41920700  1.0
  Ni  Ni1262  1  0.00000000  0.84552867  0.41920700  1.0
  Ni  Ni1263  1  0.33333333  0.17886200  0.41920700  1.0
  Ni  Ni1264  1  0.33333333  0.51219533  0.41920700  1.0
  Ni  Ni1265  1  0.33333333  0.84552867  0.41920700  1.0
  Ni  Ni1266  1  0.66666667  0.17886200  0.41920700  1.0
  Ni  Ni1267  1  0.66666667  0.51219533  0.41920700  1.0
  Ni  Ni1268  1  0.66666667  0.84552867  0.41920700  1.0
  Ni  Ni1269  1  0.16666667  0.05981438  0.34777843  1.0
  Ni  Ni1270  1  0.16666667  0.39314771  0.34777843  1.0
  Ni  Ni1271  1  0.16666667  0.72648105  0.34777843  1.0
  Ni  Ni1272  1  0.50000000  0.05981438  0.34777843  1.0
  Ni  Ni1273  1  0.50000000  0.39314771  0.34777843  1.0
  Ni  Ni1274  1  0.50000000  0.72648105  0.34777843  1.0
  Ni  Ni1275  1  0.83333333  0.05981438  0.34777843  1.0
  Ni  Ni1276  1  0.83333333  0.39314771  0.34777843  1.0
  Ni  Ni1277  1  0.83333333  0.72648105  0.34777843  1.0
  Ni  Ni1278  1  0.00000000  0.22648105  0.34777843  1.0
  Ni  Ni1279  1  0.00000000  0.55981438  0.34777843  1.0
  Ni  Ni1280  1  0.00000000  0.89314771  0.34777843  1.0
  Ni  Ni1281  1  0.33333333  0.22648105  0.34777843  1.0
  Ni  Ni1282  1  0.33333333  0.55981438  0.34777843  1.0
  Ni  Ni1283  1  0.33333333  0.89314771  0.34777843  1.0
  Ni  Ni1284  1  0.66666667  0.22648105  0.34777843  1.0
  Ni  Ni1285  1  0.66666667  0.55981438  0.34777843  1.0
  Ni  Ni1286  1  0.66666667  0.89314771  0.34777843  1.0
  Ni  Ni1287  1  0.16666667  0.01219533  0.41920700  1.0
  Ni  Ni1288  1  0.16666667  0.34552867  0.41920700  1.0
  Ni  Ni1289  1  0.16666667  0.67886200  0.41920700  1.0
  Ni  Ni1290  1  0.50000000  0.01219533  0.41920700  1.0
  Ni  Ni1291  1  0.50000000  0.34552867  0.41920700  1.0
  Ni  Ni1292  1  0.50000000  0.67886200  0.41920700  1.0
  Ni  Ni1293  1  0.83333333  0.01219533  0.41920700  1.0
  Ni  Ni1294  1  0.83333333  0.34552867  0.41920700  1.0
  Ni  Ni1295  1  0.83333333  0.67886200  0.41920700  1.0
