# generated using pymatgen
data_Nb5Ni
_symmetry_space_group_name_H-M   'P 1'
_cell_length_a   43.83384675
_cell_length_b   43.83384675
_cell_length_c   59.05079418
_cell_angle_alpha   30.00000000
_cell_angle_beta   90.00000000
_cell_angle_gamma   99.59406823
_symmetry_Int_Tables_number   1
_chemical_formula_structural   Nb5Ni
_chemical_formula_sum   'Nb1080 Ni216'
_cell_volume   53485.81967808
_cell_formula_units_Z   216
loop_
 _symmetry_equiv_pos_site_id
 _symmetry_equiv_pos_as_xyz
  1  'x, y, z'
loop_
 _atom_site_type_symbol
 _atom_site_label
 _atom_site_symmetry_multiplicity
 _atom_site_fract_x
 _atom_site_fract_y
 _atom_site_fract_z
 _atom_site_occupancy
  Nb  Nb0  1  0.24694250  0.05351722  0.02766021  1.0
  Nb  Nb1  1  0.24694250  0.38685056  0.02766021  1.0
  Nb  Nb2  1  0.24694250  0.72018389  0.02766021  1.0
  Nb  Nb3  1  0.58027583  0.05351722  0.02766021  1.0
  Nb  Nb4  1  0.58027583  0.38685056  0.02766021  1.0
  Nb  Nb5  1  0.58027583  0.72018389  0.02766021  1.0
  Nb  Nb6  1  0.91360917  0.05351722  0.02766021  1.0
  Nb  Nb7  1  0.91360917  0.38685056  0.02766021  1.0
  Nb  Nb8  1  0.91360917  0.72018389  0.02766021  1.0
  Nb  Nb9  1  0.08027583  0.05351722  0.09908879  1.0
  Nb  Nb10  1  0.08027583  0.38685056  0.09908879  1.0
  Nb  Nb11  1  0.08027583  0.72018389  0.09908879  1.0
  Nb  Nb12  1  0.41360917  0.05351722  0.09908879  1.0
  Nb  Nb13  1  0.41360917  0.38685056  0.09908879  1.0
  Nb  Nb14  1  0.41360917  0.72018389  0.09908879  1.0
  Nb  Nb15  1  0.74694250  0.05351722  0.09908879  1.0
  Nb  Nb16  1  0.74694250  0.38685056  0.09908879  1.0
  Nb  Nb17  1  0.74694250  0.72018389  0.09908879  1.0
  Nb  Nb18  1  0.30259183  0.27185033  0.05651021  1.0
  Nb  Nb19  1  0.30259183  0.60518367  0.05651021  1.0
  Nb  Nb20  1  0.30259183  0.93851700  0.05651021  1.0
  Nb  Nb21  1  0.63592517  0.27185033  0.05651021  1.0
  Nb  Nb22  1  0.63592517  0.60518367  0.05651021  1.0
  Nb  Nb23  1  0.63592517  0.93851700  0.05651021  1.0
  Nb  Nb24  1  0.96925850  0.27185033  0.05651021  1.0
  Nb  Nb25  1  0.96925850  0.60518367  0.05651021  1.0
  Nb  Nb26  1  0.96925850  0.93851700  0.05651021  1.0
  Nb  Nb27  1  0.13592517  0.27185033  0.12793879  1.0
  Nb  Nb28  1  0.13592517  0.60518367  0.12793879  1.0
  Nb  Nb29  1  0.13592517  0.93851700  0.12793879  1.0
  Nb  Nb30  1  0.46925850  0.27185033  0.12793879  1.0
  Nb  Nb31  1  0.46925850  0.60518367  0.12793879  1.0
  Nb  Nb32  1  0.46925850  0.93851700  0.12793879  1.0
  Nb  Nb33  1  0.80259183  0.27185033  0.12793879  1.0
  Nb  Nb34  1  0.80259183  0.60518367  0.12793879  1.0
  Nb  Nb35  1  0.80259183  0.93851700  0.12793879  1.0
  Nb  Nb36  1  0.30657472  0.17278167  0.09384736  1.0
  Nb  Nb37  1  0.30657472  0.50611500  0.09384736  1.0
  Nb  Nb38  1  0.30657472  0.83944833  0.09384736  1.0
  Nb  Nb39  1  0.63990805  0.17278167  0.09384736  1.0
  Nb  Nb40  1  0.63990806  0.50611500  0.09384736  1.0
  Nb  Nb41  1  0.63990805  0.83944833  0.09384736  1.0
  Nb  Nb42  1  0.97324139  0.17278167  0.09384736  1.0
  Nb  Nb43  1  0.97324139  0.50611500  0.09384736  1.0
  Nb  Nb44  1  0.97324139  0.83944833  0.09384736  1.0
  Nb  Nb45  1  0.13990805  0.17278167  0.02241879  1.0
  Nb  Nb46  1  0.13990805  0.50611500  0.02241879  1.0
  Nb  Nb47  1  0.13990805  0.83944833  0.02241879  1.0
  Nb  Nb48  1  0.47324139  0.17278167  0.02241879  1.0
  Nb  Nb49  1  0.47324139  0.50611500  0.02241879  1.0
  Nb  Nb50  1  0.47324139  0.83944833  0.02241879  1.0
  Nb  Nb51  1  0.80657472  0.17278167  0.02241879  1.0
  Nb  Nb52  1  0.80657472  0.50611500  0.02241879  1.0
  Nb  Nb53  1  0.80657472  0.83944833  0.02241879  1.0
  Nb  Nb54  1  0.23907483  0.31148300  0.12118950  1.0
  Nb  Nb55  1  0.23907483  0.64481633  0.12118950  1.0
  Nb  Nb56  1  0.23907483  0.97814967  0.12118950  1.0
  Nb  Nb57  1  0.57240817  0.31148300  0.12118950  1.0
  Nb  Nb58  1  0.57240817  0.64481633  0.12118950  1.0
  Nb  Nb59  1  0.57240817  0.97814967  0.12118950  1.0
  Nb  Nb60  1  0.90574150  0.31148300  0.12118950  1.0
  Nb  Nb61  1  0.90574150  0.64481633  0.12118950  1.0
  Nb  Nb62  1  0.90574150  0.97814967  0.12118950  1.0
  Nb  Nb63  1  0.07240817  0.31148300  0.04976093  1.0
  Nb  Nb64  1  0.07240817  0.64481633  0.04976093  1.0
  Nb  Nb65  1  0.07240817  0.97814967  0.04976093  1.0
  Nb  Nb66  1  0.40574150  0.31148300  0.04976093  1.0
  Nb  Nb67  1  0.40574150  0.64481633  0.04976093  1.0
  Nb  Nb68  1  0.40574150  0.97814967  0.04976093  1.0
  Nb  Nb69  1  0.73907483  0.31148300  0.04976093  1.0
  Nb  Nb70  1  0.73907483  0.64481633  0.04976093  1.0
  Nb  Nb71  1  0.73907483  0.97814967  0.04976093  1.0
  Nb  Nb72  1  0.29472417  0.19648278  0.00718236  1.0
  Nb  Nb73  1  0.29472417  0.52981611  0.00718236  1.0
  Nb  Nb74  1  0.29472417  0.86314944  0.00718236  1.0
  Nb  Nb75  1  0.62805750  0.19648278  0.00718236  1.0
  Nb  Nb76  1  0.62805750  0.52981611  0.00718236  1.0
  Nb  Nb77  1  0.62805750  0.86314944  0.00718236  1.0
  Nb  Nb78  1  0.96139083  0.19648278  0.00718236  1.0
  Nb  Nb79  1  0.96139083  0.52981611  0.00718236  1.0
  Nb  Nb80  1  0.96139083  0.86314944  0.00718236  1.0
  Nb  Nb81  1  0.12805750  0.19648278  0.07861093  1.0
  Nb  Nb82  1  0.12805750  0.52981611  0.07861093  1.0
  Nb  Nb83  1  0.12805750  0.86314944  0.07861093  1.0
  Nb  Nb84  1  0.46139083  0.19648278  0.07861093  1.0
  Nb  Nb85  1  0.46139083  0.52981611  0.07861093  1.0
  Nb  Nb86  1  0.46139083  0.86314944  0.07861093  1.0
  Nb  Nb87  1  0.79472417  0.19648278  0.07861093  1.0
  Nb  Nb88  1  0.79472417  0.52981611  0.07861093  1.0
  Nb  Nb89  1  0.79472417  0.86314944  0.07861093  1.0
  Nb  Nb90  1  0.23907483  0.31148300  0.03103207  1.0
  Nb  Nb91  1  0.23907483  0.64481633  0.03103207  1.0
  Nb  Nb92  1  0.23907483  0.97814967  0.03103207  1.0
  Nb  Nb93  1  0.57240817  0.31148300  0.03103207  1.0
  Nb  Nb94  1  0.57240817  0.64481633  0.03103207  1.0
  Nb  Nb95  1  0.57240817  0.97814967  0.03103207  1.0
  Nb  Nb96  1  0.90574150  0.31148300  0.03103207  1.0
  Nb  Nb97  1  0.90574150  0.64481633  0.03103207  1.0
  Nb  Nb98  1  0.90574150  0.97814967  0.03103207  1.0
  Nb  Nb99  1  0.07240817  0.31148300  0.10246064  1.0
  Nb  Nb100  1  0.07240817  0.64481633  0.10246064  1.0
  Nb  Nb101  1  0.07240817  0.97814967  0.10246064  1.0
  Nb  Nb102  1  0.40574150  0.31148300  0.10246064  1.0
  Nb  Nb103  1  0.40574150  0.64481633  0.10246064  1.0
  Nb  Nb104  1  0.40574150  0.97814967  0.10246064  1.0
  Nb  Nb105  1  0.73907483  0.31148300  0.10246064  1.0
  Nb  Nb106  1  0.73907483  0.64481633  0.10246064  1.0
  Nb  Nb107  1  0.73907483  0.97814967  0.10246064  1.0
  Nb  Nb108  1  0.17759183  0.18851700  0.05738193  1.0
  Nb  Nb109  1  0.17759183  0.52185033  0.05738193  1.0
  Nb  Nb110  1  0.17759183  0.85518367  0.05738193  1.0
  Nb  Nb111  1  0.51092517  0.18851700  0.05738193  1.0
  Nb  Nb112  1  0.51092517  0.52185033  0.05738193  1.0
  Nb  Nb113  1  0.51092517  0.85518367  0.05738193  1.0
  Nb  Nb114  1  0.84425850  0.18851700  0.05738193  1.0
  Nb  Nb115  1  0.84425850  0.52185033  0.05738193  1.0
  Nb  Nb116  1  0.84425850  0.85518367  0.05738193  1.0
  Nb  Nb117  1  0.01092517  0.18851700  0.12881050  1.0
  Nb  Nb118  1  0.01092517  0.52185033  0.12881050  1.0
  Nb  Nb119  1  0.01092517  0.85518367  0.12881050  1.0
  Nb  Nb120  1  0.34425850  0.18851700  0.12881050  1.0
  Nb  Nb121  1  0.34425850  0.52185033  0.12881050  1.0
  Nb  Nb122  1  0.34425850  0.85518367  0.12881050  1.0
  Nb  Nb123  1  0.67759183  0.18851700  0.12881050  1.0
  Nb  Nb124  1  0.67759183  0.52185033  0.12881050  1.0
  Nb  Nb125  1  0.67759183  0.85518367  0.12881050  1.0
  Nb  Nb126  1  0.23509195  0.07721833  0.08385236  1.0
  Nb  Nb127  1  0.23509195  0.41055167  0.08385236  1.0
  Nb  Nb128  1  0.23509195  0.74388500  0.08385236  1.0
  Nb  Nb129  1  0.56842528  0.07721833  0.08385236  1.0
  Nb  Nb130  1  0.56842528  0.41055167  0.08385236  1.0
  Nb  Nb131  1  0.56842528  0.74388500  0.08385236  1.0
  Nb  Nb132  1  0.90175861  0.07721833  0.08385236  1.0
  Nb  Nb133  1  0.90175861  0.41055167  0.08385236  1.0
  Nb  Nb134  1  0.90175861  0.74388500  0.08385236  1.0
  Nb  Nb135  1  0.06842528  0.07721833  0.01242379  1.0
  Nb  Nb136  1  0.06842528  0.41055167  0.01242379  1.0
  Nb  Nb137  1  0.06842528  0.74388500  0.01242379  1.0
  Nb  Nb138  1  0.40175861  0.07721833  0.01242379  1.0
  Nb  Nb139  1  0.40175861  0.41055167  0.01242379  1.0
  Nb  Nb140  1  0.40175861  0.74388500  0.01242379  1.0
  Nb  Nb141  1  0.73509194  0.07721833  0.01242379  1.0
  Nb  Nb142  1  0.73509194  0.41055167  0.01242378  1.0
  Nb  Nb143  1  0.73509195  0.74388500  0.01242379  1.0
  Nb  Nb144  1  0.30657472  0.05351722  0.05321688  1.0
  Nb  Nb145  1  0.30657472  0.38685056  0.05321688  1.0
  Nb  Nb146  1  0.30657472  0.72018389  0.05321688  1.0
  Nb  Nb147  1  0.63990806  0.05351722  0.05321688  1.0
  Nb  Nb148  1  0.63990806  0.38685056  0.05321688  1.0
  Nb  Nb149  1  0.63990806  0.72018389  0.05321688  1.0
  Nb  Nb150  1  0.97324139  0.05351722  0.05321688  1.0
  Nb  Nb151  1  0.97324139  0.38685056  0.05321688  1.0
  Nb  Nb152  1  0.97324139  0.72018389  0.05321688  1.0
  Nb  Nb153  1  0.13990805  0.05351722  0.12464545  1.0
  Nb  Nb154  1  0.13990805  0.38685056  0.12464545  1.0
  Nb  Nb155  1  0.13990805  0.72018389  0.12464545  1.0
  Nb  Nb156  1  0.47324139  0.05351722  0.12464545  1.0
  Nb  Nb157  1  0.47324139  0.38685056  0.12464545  1.0
  Nb  Nb158  1  0.47324139  0.72018389  0.12464545  1.0
  Nb  Nb159  1  0.80657472  0.05351722  0.12464545  1.0
  Nb  Nb160  1  0.80657472  0.38685056  0.12464545  1.0
  Nb  Nb161  1  0.80657472  0.72018389  0.12464545  1.0
  Nb  Nb162  1  0.23509195  0.19648278  0.03273902  1.0
  Nb  Nb163  1  0.23509195  0.52981611  0.03273902  1.0
  Nb  Nb164  1  0.23509195  0.86314944  0.03273902  1.0
  Nb  Nb165  1  0.56842528  0.19648278  0.03273902  1.0
  Nb  Nb166  1  0.56842528  0.52981611  0.03273902  1.0
  Nb  Nb167  1  0.56842528  0.86314944  0.03273902  1.0
  Nb  Nb168  1  0.90175861  0.19648278  0.03273902  1.0
  Nb  Nb169  1  0.90175861  0.52981611  0.03273902  1.0
  Nb  Nb170  1  0.90175861  0.86314944  0.03273902  1.0
  Nb  Nb171  1  0.06842528  0.19648278  0.10416760  1.0
  Nb  Nb172  1  0.06842528  0.52981611  0.10416760  1.0
  Nb  Nb173  1  0.06842528  0.86314944  0.10416760  1.0
  Nb  Nb174  1  0.40175861  0.19648278  0.10416760  1.0
  Nb  Nb175  1  0.40175861  0.52981611  0.10416760  1.0
  Nb  Nb176  1  0.40175861  0.86314944  0.10416760  1.0
  Nb  Nb177  1  0.73509194  0.19648278  0.10416760  1.0
  Nb  Nb178  1  0.73509194  0.52981611  0.10416760  1.0
  Nb  Nb179  1  0.73509194  0.86314944  0.10416760  1.0
  Nb  Nb180  1  0.17759183  0.31148300  0.00468221  1.0
  Nb  Nb181  1  0.17759183  0.64481633  0.00468221  1.0
  Nb  Nb182  1  0.17759183  0.97814967  0.00468221  1.0
  Nb  Nb183  1  0.51092517  0.31148300  0.00468221  1.0
  Nb  Nb184  1  0.51092517  0.64481633  0.00468221  1.0
  Nb  Nb185  1  0.51092517  0.97814967  0.00468221  1.0
  Nb  Nb186  1  0.84425850  0.31148300  0.00468221  1.0
  Nb  Nb187  1  0.84425850  0.64481633  0.00468221  1.0
  Nb  Nb188  1  0.84425850  0.97814967  0.00468221  1.0
  Nb  Nb189  1  0.01092517  0.31148300  0.07611079  1.0
  Nb  Nb190  1  0.01092517  0.64481633  0.07611079  1.0
  Nb  Nb191  1  0.01092517  0.97814967  0.07611079  1.0
  Nb  Nb192  1  0.34425850  0.31148300  0.07611079  1.0
  Nb  Nb193  1  0.34425850  0.64481633  0.07611079  1.0
  Nb  Nb194  1  0.34425850  0.97814967  0.07611079  1.0
  Nb  Nb195  1  0.67759183  0.31148300  0.07611079  1.0
  Nb  Nb196  1  0.67759183  0.64481633  0.07611079  1.0
  Nb  Nb197  1  0.67759183  0.97814967  0.07611079  1.0
  Nb  Nb198  1  0.23907483  0.18851700  0.08373179  1.0
  Nb  Nb199  1  0.23907483  0.52185033  0.08373179  1.0
  Nb  Nb200  1  0.23907483  0.85518367  0.08373179  1.0
  Nb  Nb201  1  0.57240817  0.18851700  0.08373179  1.0
  Nb  Nb202  1  0.57240817  0.52185033  0.08373179  1.0
  Nb  Nb203  1  0.57240817  0.85518367  0.08373179  1.0
  Nb  Nb204  1  0.90574150  0.18851700  0.08373179  1.0
  Nb  Nb205  1  0.90574150  0.52185033  0.08373179  1.0
  Nb  Nb206  1  0.90574150  0.85518367  0.08373179  1.0
  Nb  Nb207  1  0.07240817  0.18851700  0.01230321  1.0
  Nb  Nb208  1  0.07240817  0.52185033  0.01230321  1.0
  Nb  Nb209  1  0.07240817  0.85518367  0.01230321  1.0
  Nb  Nb210  1  0.40574150  0.18851700  0.01230321  1.0
  Nb  Nb211  1  0.40574150  0.52185033  0.01230321  1.0
  Nb  Nb212  1  0.40574150  0.85518367  0.01230321  1.0
  Nb  Nb213  1  0.73907483  0.18851700  0.01230321  1.0
  Nb  Nb214  1  0.73907483  0.52185033  0.01230321  1.0
  Nb  Nb215  1  0.73907483  0.85518367  0.01230321  1.0
  Nb  Nb216  1  0.30259183  0.06148300  0.09396793  1.0
  Nb  Nb217  1  0.30259183  0.39481633  0.09396793  1.0
  Nb  Nb218  1  0.30259183  0.72814967  0.09396793  1.0
  Nb  Nb219  1  0.63592517  0.06148300  0.09396793  1.0
  Nb  Nb220  1  0.63592517  0.39481633  0.09396793  1.0
  Nb  Nb221  1  0.63592517  0.72814967  0.09396793  1.0
  Nb  Nb222  1  0.96925850  0.06148300  0.09396793  1.0
  Nb  Nb223  1  0.96925850  0.39481633  0.09396793  1.0
  Nb  Nb224  1  0.96925850  0.72814967  0.09396793  1.0
  Nb  Nb225  1  0.13592517  0.06148300  0.02253936  1.0
  Nb  Nb226  1  0.13592517  0.39481633  0.02253936  1.0
  Nb  Nb227  1  0.13592517  0.72814967  0.02253936  1.0
  Nb  Nb228  1  0.46925850  0.06148300  0.02253936  1.0
  Nb  Nb229  1  0.46925850  0.39481633  0.02253936  1.0
  Nb  Nb230  1  0.46925850  0.72814967  0.02253936  1.0
  Nb  Nb231  1  0.80259183  0.06148300  0.02253936  1.0
  Nb  Nb232  1  0.80259183  0.39481633  0.02253936  1.0
  Nb  Nb233  1  0.80259183  0.72814967  0.02253936  1.0
  Nb  Nb234  1  0.19740817  0.06148300  0.04888921  1.0
  Nb  Nb235  1  0.19740817  0.39481633  0.04888921  1.0
  Nb  Nb236  1  0.19740817  0.72814967  0.04888921  1.0
  Nb  Nb237  1  0.53074150  0.06148300  0.04888921  1.0
  Nb  Nb238  1  0.53074150  0.39481633  0.04888921  1.0
  Nb  Nb239  1  0.53074150  0.72814967  0.04888921  1.0
  Nb  Nb240  1  0.86407483  0.06148300  0.04888921  1.0
  Nb  Nb241  1  0.86407483  0.39481633  0.04888921  1.0
  Nb  Nb242  1  0.86407483  0.72814967  0.04888921  1.0
  Nb  Nb243  1  0.03074150  0.06148300  0.12031779  1.0
  Nb  Nb244  1  0.03074150  0.39481633  0.12031779  1.0
  Nb  Nb245  1  0.03074150  0.72814967  0.12031779  1.0
  Nb  Nb246  1  0.36407483  0.06148300  0.12031779  1.0
  Nb  Nb247  1  0.36407483  0.39481633  0.12031779  1.0
  Nb  Nb248  1  0.36407483  0.72814967  0.12031779  1.0
  Nb  Nb249  1  0.69740817  0.06148300  0.12031779  1.0
  Nb  Nb250  1  0.69740817  0.39481633  0.12031779  1.0
  Nb  Nb251  1  0.69740817  0.72814967  0.12031779  1.0
  Nb  Nb252  1  0.17759183  0.18851700  0.11008164  1.0
  Nb  Nb253  1  0.17759183  0.52185033  0.11008164  1.0
  Nb  Nb254  1  0.17759183  0.85518367  0.11008164  1.0
  Nb  Nb255  1  0.51092517  0.18851700  0.11008164  1.0
  Nb  Nb256  1  0.51092517  0.52185033  0.11008164  1.0
  Nb  Nb257  1  0.51092517  0.85518367  0.11008164  1.0
  Nb  Nb258  1  0.84425850  0.18851700  0.11008164  1.0
  Nb  Nb259  1  0.84425850  0.52185033  0.11008164  1.0
  Nb  Nb260  1  0.84425850  0.85518367  0.11008164  1.0
  Nb  Nb261  1  0.01092517  0.18851700  0.03865307  1.0
  Nb  Nb262  1  0.01092517  0.52185033  0.03865307  1.0
  Nb  Nb263  1  0.01092517  0.85518367  0.03865307  1.0
  Nb  Nb264  1  0.34425850  0.18851700  0.03865307  1.0
  Nb  Nb265  1  0.34425850  0.52185033  0.03865307  1.0
  Nb  Nb266  1  0.34425850  0.85518367  0.03865307  1.0
  Nb  Nb267  1  0.67759183  0.18851700  0.03865307  1.0
  Nb  Nb268  1  0.67759183  0.52185033  0.03865307  1.0
  Nb  Nb269  1  0.67759183  0.85518367  0.03865307  1.0
  Nb  Nb270  1  0.23509195  0.19648278  0.12448283  1.0
  Nb  Nb271  1  0.23509195  0.52981611  0.12448283  1.0
  Nb  Nb272  1  0.23509195  0.86314944  0.12448283  1.0
  Nb  Nb273  1  0.56842528  0.19648278  0.12448283  1.0
  Nb  Nb274  1  0.56842528  0.52981611  0.12448283  1.0
  Nb  Nb275  1  0.56842528  0.86314944  0.12448283  1.0
  Nb  Nb276  1  0.90175861  0.19648278  0.12448283  1.0
  Nb  Nb277  1  0.90175861  0.52981611  0.12448283  1.0
  Nb  Nb278  1  0.90175861  0.86314944  0.12448283  1.0
  Nb  Nb279  1  0.06842528  0.19648278  0.05305426  1.0
  Nb  Nb280  1  0.06842528  0.52981611  0.05305426  1.0
  Nb  Nb281  1  0.06842528  0.86314944  0.05305426  1.0
  Nb  Nb282  1  0.40175861  0.19648278  0.05305426  1.0
  Nb  Nb283  1  0.40175861  0.52981611  0.05305426  1.0
  Nb  Nb284  1  0.40175861  0.86314944  0.05305426  1.0
  Nb  Nb285  1  0.73509194  0.19648278  0.05305426  1.0
  Nb  Nb286  1  0.73509194  0.52981611  0.05305426  1.0
  Nb  Nb287  1  0.73509194  0.86314944  0.05305426  1.0
  Nb  Nb288  1  0.30657472  0.05351722  0.00210355  1.0
  Nb  Nb289  1  0.30657472  0.38685056  0.00210355  1.0
  Nb  Nb290  1  0.30657472  0.72018389  0.00210355  1.0
  Nb  Nb291  1  0.63990805  0.05351722  0.00210355  1.0
  Nb  Nb292  1  0.63990806  0.38685056  0.00210355  1.0
  Nb  Nb293  1  0.63990806  0.72018389  0.00210355  1.0
  Nb  Nb294  1  0.97324139  0.05351722  0.00210355  1.0
  Nb  Nb295  1  0.97324139  0.38685056  0.00210355  1.0
  Nb  Nb296  1  0.97324139  0.72018389  0.00210355  1.0
  Nb  Nb297  1  0.13990805  0.05351722  0.07353212  1.0
  Nb  Nb298  1  0.13990806  0.38685056  0.07353212  1.0
  Nb  Nb299  1  0.13990805  0.72018389  0.07353212  1.0
  Nb  Nb300  1  0.47324139  0.05351722  0.07353212  1.0
  Nb  Nb301  1  0.47324139  0.38685056  0.07353212  1.0
  Nb  Nb302  1  0.47324139  0.72018389  0.07353212  1.0
  Nb  Nb303  1  0.80657472  0.05351722  0.07353212  1.0
  Nb  Nb304  1  0.80657472  0.38685056  0.07353212  1.0
  Nb  Nb305  1  0.80657472  0.72018389  0.07353212  1.0
  Nb  Nb306  1  0.30259183  0.27185033  0.00381050  1.0
  Nb  Nb307  1  0.30259183  0.60518367  0.00381050  1.0
  Nb  Nb308  1  0.30259183  0.93851700  0.00381050  1.0
  Nb  Nb309  1  0.63592517  0.27185033  0.00381050  1.0
  Nb  Nb310  1  0.63592517  0.60518367  0.00381050  1.0
  Nb  Nb311  1  0.63592517  0.93851700  0.00381050  1.0
  Nb  Nb312  1  0.96925850  0.27185033  0.00381050  1.0
  Nb  Nb313  1  0.96925850  0.60518367  0.00381050  1.0
  Nb  Nb314  1  0.96925850  0.93851700  0.00381050  1.0
  Nb  Nb315  1  0.13592517  0.27185033  0.07523907  1.0
  Nb  Nb316  1  0.13592517  0.60518367  0.07523907  1.0
  Nb  Nb317  1  0.13592517  0.93851700  0.07523907  1.0
  Nb  Nb318  1  0.46925850  0.27185033  0.07523907  1.0
  Nb  Nb319  1  0.46925850  0.60518367  0.07523907  1.0
  Nb  Nb320  1  0.46925850  0.93851700  0.07523907  1.0
  Nb  Nb321  1  0.80259183  0.27185033  0.07523907  1.0
  Nb  Nb322  1  0.80259183  0.60518367  0.07523907  1.0
  Nb  Nb323  1  0.80259183  0.93851700  0.07523907  1.0
  Nb  Nb324  1  0.19740817  0.06148300  0.13904664  1.0
  Nb  Nb325  1  0.19740817  0.39481633  0.13904664  1.0
  Nb  Nb326  1  0.19740817  0.72814967  0.13904664  1.0
  Nb  Nb327  1  0.53074150  0.06148300  0.13904664  1.0
  Nb  Nb328  1  0.53074150  0.39481633  0.13904664  1.0
  Nb  Nb329  1  0.53074150  0.72814967  0.13904664  1.0
  Nb  Nb330  1  0.86407483  0.06148300  0.13904664  1.0
  Nb  Nb331  1  0.86407483  0.39481633  0.13904664  1.0
  Nb  Nb332  1  0.86407483  0.72814967  0.13904664  1.0
  Nb  Nb333  1  0.03074150  0.06148300  0.06761807  1.0
  Nb  Nb334  1  0.03074150  0.39481633  0.06761807  1.0
  Nb  Nb335  1  0.03074150  0.72814967  0.06761807  1.0
  Nb  Nb336  1  0.36407483  0.06148300  0.06761807  1.0
  Nb  Nb337  1  0.36407483  0.39481633  0.06761807  1.0
  Nb  Nb338  1  0.36407483  0.72814967  0.06761807  1.0
  Nb  Nb339  1  0.69740817  0.06148300  0.06761807  1.0
  Nb  Nb340  1  0.69740817  0.39481633  0.06761807  1.0
  Nb  Nb341  1  0.69740817  0.72814967  0.06761807  1.0
  Nb  Nb342  1  0.19740817  0.27185033  0.10158893  1.0
  Nb  Nb343  1  0.19740817  0.60518367  0.10158893  1.0
  Nb  Nb344  1  0.19740817  0.93851700  0.10158893  1.0
  Nb  Nb345  1  0.53074150  0.27185033  0.10158893  1.0
  Nb  Nb346  1  0.53074150  0.60518367  0.10158893  1.0
  Nb  Nb347  1  0.53074150  0.93851700  0.10158893  1.0
  Nb  Nb348  1  0.86407483  0.27185033  0.10158893  1.0
  Nb  Nb349  1  0.86407483  0.60518367  0.10158893  1.0
  Nb  Nb350  1  0.86407483  0.93851700  0.10158893  1.0
  Nb  Nb351  1  0.03074150  0.27185033  0.03016036  1.0
  Nb  Nb352  1  0.03074150  0.60518367  0.03016036  1.0
  Nb  Nb353  1  0.03074150  0.93851700  0.03016036  1.0
  Nb  Nb354  1  0.36407483  0.27185033  0.03016036  1.0
  Nb  Nb355  1  0.36407483  0.60518367  0.03016036  1.0
  Nb  Nb356  1  0.36407483  0.93851700  0.03016036  1.0
  Nb  Nb357  1  0.69740817  0.27185033  0.03016036  1.0
  Nb  Nb358  1  0.69740817  0.60518367  0.03016036  1.0
  Nb  Nb359  1  0.69740817  0.93851700  0.03016036  1.0
  Ni  Ni360  1  0.27083333  0.29166667  0.08884986  1.0
  Ni  Ni361  1  0.27083333  0.62500000  0.08884986  1.0
  Ni  Ni362  1  0.27083333  0.95833333  0.08884986  1.0
  Ni  Ni363  1  0.60416667  0.29166667  0.08884986  1.0
  Ni  Ni364  1  0.60416667  0.62500000  0.08884986  1.0
  Ni  Ni365  1  0.60416667  0.95833333  0.08884986  1.0
  Ni  Ni366  1  0.93750000  0.29166667  0.08884986  1.0
  Ni  Ni367  1  0.93750000  0.62500000  0.08884986  1.0
  Ni  Ni368  1  0.93750000  0.95833333  0.08884986  1.0
  Ni  Ni369  1  0.10416667  0.29166667  0.01742129  1.0
  Ni  Ni370  1  0.10416667  0.62500000  0.01742129  1.0
  Ni  Ni371  1  0.10416667  0.95833333  0.01742129  1.0
  Ni  Ni372  1  0.43750000  0.29166667  0.01742129  1.0
  Ni  Ni373  1  0.43750000  0.62500000  0.01742129  1.0
  Ni  Ni374  1  0.43750000  0.95833333  0.01742129  1.0
  Ni  Ni375  1  0.77083333  0.29166667  0.01742129  1.0
  Ni  Ni376  1  0.77083333  0.62500000  0.01742129  1.0
  Ni  Ni377  1  0.77083333  0.95833333  0.01742129  1.0
  Ni  Ni378  1  0.18750000  0.12500000  0.05313557  1.0
  Ni  Ni379  1  0.18750000  0.45833333  0.05313557  1.0
  Ni  Ni380  1  0.18750000  0.79166667  0.05313557  1.0
  Ni  Ni381  1  0.52083333  0.12500000  0.05313557  1.0
  Ni  Ni382  1  0.52083333  0.45833333  0.05313557  1.0
  Ni  Ni383  1  0.52083333  0.79166667  0.05313557  1.0
  Ni  Ni384  1  0.85416667  0.12500000  0.05313557  1.0
  Ni  Ni385  1  0.85416667  0.45833333  0.05313557  1.0
  Ni  Ni386  1  0.85416667  0.79166667  0.05313557  1.0
  Ni  Ni387  1  0.02083333  0.12500000  0.12456414  1.0
  Ni  Ni388  1  0.02083333  0.45833333  0.12456414  1.0
  Ni  Ni389  1  0.02083333  0.79166667  0.12456414  1.0
  Ni  Ni390  1  0.35416667  0.12500000  0.12456414  1.0
  Ni  Ni391  1  0.35416667  0.45833333  0.12456414  1.0
  Ni  Ni392  1  0.35416667  0.79166667  0.12456414  1.0
  Ni  Ni393  1  0.68750000  0.12500000  0.12456414  1.0
  Ni  Ni394  1  0.68750000  0.45833333  0.12456414  1.0
  Ni  Ni395  1  0.68750000  0.79166667  0.12456414  1.0
  Ni  Ni396  1  0.27083333  0.12500000  0.01742129  1.0
  Ni  Ni397  1  0.27083333  0.45833333  0.01742129  1.0
  Ni  Ni398  1  0.27083333  0.79166667  0.01742129  1.0
  Ni  Ni399  1  0.60416667  0.12500000  0.01742129  1.0
  Ni  Ni400  1  0.60416667  0.45833333  0.01742129  1.0
  Ni  Ni401  1  0.60416667  0.79166667  0.01742129  1.0
  Ni  Ni402  1  0.93750000  0.12500000  0.01742129  1.0
  Ni  Ni403  1  0.93750000  0.45833333  0.01742129  1.0
  Ni  Ni404  1  0.93750000  0.79166667  0.01742129  1.0
  Ni  Ni405  1  0.10416667  0.12500000  0.08884986  1.0
  Ni  Ni406  1  0.10416667  0.45833333  0.08884986  1.0
  Ni  Ni407  1  0.10416667  0.79166667  0.08884986  1.0
  Ni  Ni408  1  0.43750000  0.12500000  0.08884986  1.0
  Ni  Ni409  1  0.43750000  0.45833333  0.08884986  1.0
  Ni  Ni410  1  0.43750000  0.79166667  0.08884986  1.0
  Ni  Ni411  1  0.77083333  0.12500000  0.08884986  1.0
  Ni  Ni412  1  0.77083333  0.45833333  0.08884986  1.0
  Ni  Ni413  1  0.77083333  0.79166667  0.08884986  1.0
  Ni  Ni414  1  0.27083333  0.12500000  0.08884986  1.0
  Ni  Ni415  1  0.27083333  0.45833333  0.08884986  1.0
  Ni  Ni416  1  0.27083333  0.79166667  0.08884986  1.0
  Ni  Ni417  1  0.60416667  0.12500000  0.08884986  1.0
  Ni  Ni418  1  0.60416667  0.45833333  0.08884986  1.0
  Ni  Ni419  1  0.60416667  0.79166667  0.08884986  1.0
  Ni  Ni420  1  0.93750000  0.12500000  0.08884986  1.0
  Ni  Ni421  1  0.93750000  0.45833333  0.08884986  1.0
  Ni  Ni422  1  0.93750000  0.79166667  0.08884986  1.0
  Ni  Ni423  1  0.10416667  0.12500000  0.01742129  1.0
  Ni  Ni424  1  0.10416667  0.45833333  0.01742129  1.0
  Ni  Ni425  1  0.10416667  0.79166667  0.01742129  1.0
  Ni  Ni426  1  0.43750000  0.12500000  0.01742129  1.0
  Ni  Ni427  1  0.43750000  0.45833333  0.01742129  1.0
  Ni  Ni428  1  0.43750000  0.79166667  0.01742129  1.0
  Ni  Ni429  1  0.77083333  0.12500000  0.01742129  1.0
  Ni  Ni430  1  0.77083333  0.45833333  0.01742129  1.0
  Ni  Ni431  1  0.77083333  0.79166667  0.01742129  1.0
  Nb  Nb432  1  0.24694250  0.05351722  0.17051736  1.0
  Nb  Nb433  1  0.24694250  0.38685056  0.17051736  1.0
  Nb  Nb434  1  0.24694250  0.72018389  0.17051736  1.0
  Nb  Nb435  1  0.58027583  0.05351722  0.17051736  1.0
  Nb  Nb436  1  0.58027583  0.38685056  0.17051736  1.0
  Nb  Nb437  1  0.58027583  0.72018389  0.17051736  1.0
  Nb  Nb438  1  0.91360917  0.05351722  0.17051736  1.0
  Nb  Nb439  1  0.91360917  0.38685056  0.17051736  1.0
  Nb  Nb440  1  0.91360917  0.72018389  0.17051736  1.0
  Nb  Nb441  1  0.08027583  0.05351722  0.24194593  1.0
  Nb  Nb442  1  0.08027583  0.38685056  0.24194593  1.0
  Nb  Nb443  1  0.08027583  0.72018389  0.24194593  1.0
  Nb  Nb444  1  0.41360917  0.05351722  0.24194593  1.0
  Nb  Nb445  1  0.41360917  0.38685056  0.24194593  1.0
  Nb  Nb446  1  0.41360917  0.72018389  0.24194593  1.0
  Nb  Nb447  1  0.74694250  0.05351722  0.24194593  1.0
  Nb  Nb448  1  0.74694250  0.38685056  0.24194593  1.0
  Nb  Nb449  1  0.74694250  0.72018389  0.24194593  1.0
  Nb  Nb450  1  0.30259183  0.27185033  0.19936736  1.0
  Nb  Nb451  1  0.30259183  0.60518367  0.19936736  1.0
  Nb  Nb452  1  0.30259183  0.93851700  0.19936736  1.0
  Nb  Nb453  1  0.63592517  0.27185033  0.19936736  1.0
  Nb  Nb454  1  0.63592517  0.60518367  0.19936736  1.0
  Nb  Nb455  1  0.63592517  0.93851700  0.19936736  1.0
  Nb  Nb456  1  0.96925850  0.27185033  0.19936736  1.0
  Nb  Nb457  1  0.96925850  0.60518367  0.19936736  1.0
  Nb  Nb458  1  0.96925850  0.93851700  0.19936736  1.0
  Nb  Nb459  1  0.13592517  0.27185033  0.27079593  1.0
  Nb  Nb460  1  0.13592517  0.60518367  0.27079593  1.0
  Nb  Nb461  1  0.13592517  0.93851700  0.27079593  1.0
  Nb  Nb462  1  0.46925850  0.27185033  0.27079593  1.0
  Nb  Nb463  1  0.46925850  0.60518367  0.27079593  1.0
  Nb  Nb464  1  0.46925850  0.93851700  0.27079593  1.0
  Nb  Nb465  1  0.80259183  0.27185033  0.27079593  1.0
  Nb  Nb466  1  0.80259183  0.60518367  0.27079593  1.0
  Nb  Nb467  1  0.80259183  0.93851700  0.27079593  1.0
  Nb  Nb468  1  0.30657472  0.17278167  0.23670450  1.0
  Nb  Nb469  1  0.30657472  0.50611500  0.23670450  1.0
  Nb  Nb470  1  0.30657472  0.83944833  0.23670450  1.0
  Nb  Nb471  1  0.63990805  0.17278167  0.23670450  1.0
  Nb  Nb472  1  0.63990806  0.50611500  0.23670450  1.0
  Nb  Nb473  1  0.63990805  0.83944833  0.23670450  1.0
  Nb  Nb474  1  0.97324139  0.17278167  0.23670450  1.0
  Nb  Nb475  1  0.97324139  0.50611500  0.23670450  1.0
  Nb  Nb476  1  0.97324139  0.83944833  0.23670450  1.0
  Nb  Nb477  1  0.13990805  0.17278167  0.16527593  1.0
  Nb  Nb478  1  0.13990805  0.50611500  0.16527593  1.0
  Nb  Nb479  1  0.13990805  0.83944833  0.16527593  1.0
  Nb  Nb480  1  0.47324139  0.17278167  0.16527593  1.0
  Nb  Nb481  1  0.47324139  0.50611500  0.16527593  1.0
  Nb  Nb482  1  0.47324139  0.83944833  0.16527593  1.0
  Nb  Nb483  1  0.80657472  0.17278167  0.16527593  1.0
  Nb  Nb484  1  0.80657472  0.50611500  0.16527593  1.0
  Nb  Nb485  1  0.80657472  0.83944833  0.16527593  1.0
  Nb  Nb486  1  0.23907483  0.31148300  0.26404664  1.0
  Nb  Nb487  1  0.23907483  0.64481633  0.26404664  1.0
  Nb  Nb488  1  0.23907483  0.97814967  0.26404664  1.0
  Nb  Nb489  1  0.57240817  0.31148300  0.26404664  1.0
  Nb  Nb490  1  0.57240817  0.64481633  0.26404664  1.0
  Nb  Nb491  1  0.57240817  0.97814967  0.26404664  1.0
  Nb  Nb492  1  0.90574150  0.31148300  0.26404664  1.0
  Nb  Nb493  1  0.90574150  0.64481633  0.26404664  1.0
  Nb  Nb494  1  0.90574150  0.97814967  0.26404664  1.0
  Nb  Nb495  1  0.07240817  0.31148300  0.19261807  1.0
  Nb  Nb496  1  0.07240817  0.64481633  0.19261807  1.0
  Nb  Nb497  1  0.07240817  0.97814967  0.19261807  1.0
  Nb  Nb498  1  0.40574150  0.31148300  0.19261807  1.0
  Nb  Nb499  1  0.40574150  0.64481633  0.19261807  1.0
  Nb  Nb500  1  0.40574150  0.97814967  0.19261807  1.0
  Nb  Nb501  1  0.73907483  0.31148300  0.19261807  1.0
  Nb  Nb502  1  0.73907483  0.64481633  0.19261807  1.0
  Nb  Nb503  1  0.73907483  0.97814967  0.19261807  1.0
  Nb  Nb504  1  0.29472417  0.19648278  0.15003950  1.0
  Nb  Nb505  1  0.29472417  0.52981611  0.15003950  1.0
  Nb  Nb506  1  0.29472417  0.86314944  0.15003950  1.0
  Nb  Nb507  1  0.62805750  0.19648278  0.15003950  1.0
  Nb  Nb508  1  0.62805750  0.52981611  0.15003950  1.0
  Nb  Nb509  1  0.62805750  0.86314944  0.15003950  1.0
  Nb  Nb510  1  0.96139083  0.19648278  0.15003950  1.0
  Nb  Nb511  1  0.96139083  0.52981611  0.15003950  1.0
  Nb  Nb512  1  0.96139083  0.86314944  0.15003950  1.0
  Nb  Nb513  1  0.12805750  0.19648278  0.22146807  1.0
  Nb  Nb514  1  0.12805750  0.52981611  0.22146807  1.0
  Nb  Nb515  1  0.12805750  0.86314944  0.22146807  1.0
  Nb  Nb516  1  0.46139083  0.19648278  0.22146807  1.0
  Nb  Nb517  1  0.46139083  0.52981611  0.22146807  1.0
  Nb  Nb518  1  0.46139083  0.86314944  0.22146807  1.0
  Nb  Nb519  1  0.79472417  0.19648278  0.22146807  1.0
  Nb  Nb520  1  0.79472417  0.52981611  0.22146807  1.0
  Nb  Nb521  1  0.79472417  0.86314944  0.22146807  1.0
  Nb  Nb522  1  0.23907483  0.31148300  0.17388921  1.0
  Nb  Nb523  1  0.23907483  0.64481633  0.17388921  1.0
  Nb  Nb524  1  0.23907483  0.97814967  0.17388921  1.0
  Nb  Nb525  1  0.57240817  0.31148300  0.17388921  1.0
  Nb  Nb526  1  0.57240817  0.64481633  0.17388921  1.0
  Nb  Nb527  1  0.57240817  0.97814967  0.17388921  1.0
  Nb  Nb528  1  0.90574150  0.31148300  0.17388921  1.0
  Nb  Nb529  1  0.90574150  0.64481633  0.17388921  1.0
  Nb  Nb530  1  0.90574150  0.97814967  0.17388921  1.0
  Nb  Nb531  1  0.07240817  0.31148300  0.24531779  1.0
  Nb  Nb532  1  0.07240817  0.64481633  0.24531779  1.0
  Nb  Nb533  1  0.07240817  0.97814967  0.24531779  1.0
  Nb  Nb534  1  0.40574150  0.31148300  0.24531779  1.0
  Nb  Nb535  1  0.40574150  0.64481633  0.24531779  1.0
  Nb  Nb536  1  0.40574150  0.97814967  0.24531779  1.0
  Nb  Nb537  1  0.73907483  0.31148300  0.24531779  1.0
  Nb  Nb538  1  0.73907483  0.64481633  0.24531779  1.0
  Nb  Nb539  1  0.73907483  0.97814967  0.24531779  1.0
  Nb  Nb540  1  0.17759183  0.18851700  0.20023907  1.0
  Nb  Nb541  1  0.17759183  0.52185033  0.20023907  1.0
  Nb  Nb542  1  0.17759183  0.85518367  0.20023907  1.0
  Nb  Nb543  1  0.51092517  0.18851700  0.20023907  1.0
  Nb  Nb544  1  0.51092517  0.52185033  0.20023907  1.0
  Nb  Nb545  1  0.51092517  0.85518367  0.20023907  1.0
  Nb  Nb546  1  0.84425850  0.18851700  0.20023907  1.0
  Nb  Nb547  1  0.84425850  0.52185033  0.20023907  1.0
  Nb  Nb548  1  0.84425850  0.85518367  0.20023907  1.0
  Nb  Nb549  1  0.01092517  0.18851700  0.27166764  1.0
  Nb  Nb550  1  0.01092517  0.52185033  0.27166764  1.0
  Nb  Nb551  1  0.01092517  0.85518367  0.27166764  1.0
  Nb  Nb552  1  0.34425850  0.18851700  0.27166764  1.0
  Nb  Nb553  1  0.34425850  0.52185033  0.27166764  1.0
  Nb  Nb554  1  0.34425850  0.85518367  0.27166764  1.0
  Nb  Nb555  1  0.67759183  0.18851700  0.27166764  1.0
  Nb  Nb556  1  0.67759183  0.52185033  0.27166764  1.0
  Nb  Nb557  1  0.67759183  0.85518367  0.27166764  1.0
  Nb  Nb558  1  0.23509195  0.07721833  0.22670950  1.0
  Nb  Nb559  1  0.23509195  0.41055167  0.22670950  1.0
  Nb  Nb560  1  0.23509195  0.74388500  0.22670950  1.0
  Nb  Nb561  1  0.56842528  0.07721833  0.22670950  1.0
  Nb  Nb562  1  0.56842528  0.41055167  0.22670950  1.0
  Nb  Nb563  1  0.56842528  0.74388500  0.22670950  1.0
  Nb  Nb564  1  0.90175861  0.07721833  0.22670950  1.0
  Nb  Nb565  1  0.90175861  0.41055167  0.22670950  1.0
  Nb  Nb566  1  0.90175861  0.74388500  0.22670950  1.0
  Nb  Nb567  1  0.06842528  0.07721833  0.15528093  1.0
  Nb  Nb568  1  0.06842528  0.41055167  0.15528093  1.0
  Nb  Nb569  1  0.06842528  0.74388500  0.15528093  1.0
  Nb  Nb570  1  0.40175861  0.07721833  0.15528093  1.0
  Nb  Nb571  1  0.40175861  0.41055167  0.15528093  1.0
  Nb  Nb572  1  0.40175861  0.74388500  0.15528093  1.0
  Nb  Nb573  1  0.73509194  0.07721833  0.15528093  1.0
  Nb  Nb574  1  0.73509194  0.41055167  0.15528093  1.0
  Nb  Nb575  1  0.73509195  0.74388500  0.15528093  1.0
  Nb  Nb576  1  0.30657472  0.05351722  0.19607402  1.0
  Nb  Nb577  1  0.30657472  0.38685056  0.19607402  1.0
  Nb  Nb578  1  0.30657472  0.72018389  0.19607402  1.0
  Nb  Nb579  1  0.63990806  0.05351722  0.19607402  1.0
  Nb  Nb580  1  0.63990806  0.38685056  0.19607402  1.0
  Nb  Nb581  1  0.63990806  0.72018389  0.19607402  1.0
  Nb  Nb582  1  0.97324139  0.05351722  0.19607402  1.0
  Nb  Nb583  1  0.97324139  0.38685056  0.19607402  1.0
  Nb  Nb584  1  0.97324139  0.72018389  0.19607402  1.0
  Nb  Nb585  1  0.13990805  0.05351722  0.26750260  1.0
  Nb  Nb586  1  0.13990805  0.38685056  0.26750260  1.0
  Nb  Nb587  1  0.13990805  0.72018389  0.26750259  1.0
  Nb  Nb588  1  0.47324139  0.05351722  0.26750260  1.0
  Nb  Nb589  1  0.47324139  0.38685056  0.26750260  1.0
  Nb  Nb590  1  0.47324139  0.72018389  0.26750259  1.0
  Nb  Nb591  1  0.80657472  0.05351722  0.26750260  1.0
  Nb  Nb592  1  0.80657472  0.38685056  0.26750260  1.0
  Nb  Nb593  1  0.80657472  0.72018389  0.26750259  1.0
  Nb  Nb594  1  0.23509195  0.19648278  0.17559617  1.0
  Nb  Nb595  1  0.23509195  0.52981611  0.17559617  1.0
  Nb  Nb596  1  0.23509195  0.86314944  0.17559617  1.0
  Nb  Nb597  1  0.56842528  0.19648278  0.17559617  1.0
  Nb  Nb598  1  0.56842528  0.52981611  0.17559617  1.0
  Nb  Nb599  1  0.56842528  0.86314944  0.17559617  1.0
  Nb  Nb600  1  0.90175861  0.19648278  0.17559617  1.0
  Nb  Nb601  1  0.90175861  0.52981611  0.17559617  1.0
  Nb  Nb602  1  0.90175861  0.86314944  0.17559617  1.0
  Nb  Nb603  1  0.06842528  0.19648278  0.24702474  1.0
  Nb  Nb604  1  0.06842528  0.52981611  0.24702474  1.0
  Nb  Nb605  1  0.06842528  0.86314944  0.24702474  1.0
  Nb  Nb606  1  0.40175861  0.19648278  0.24702474  1.0
  Nb  Nb607  1  0.40175861  0.52981611  0.24702474  1.0
  Nb  Nb608  1  0.40175861  0.86314944  0.24702474  1.0
  Nb  Nb609  1  0.73509194  0.19648278  0.24702474  1.0
  Nb  Nb610  1  0.73509194  0.52981611  0.24702474  1.0
  Nb  Nb611  1  0.73509194  0.86314944  0.24702474  1.0
  Nb  Nb612  1  0.17759183  0.31148300  0.14753936  1.0
  Nb  Nb613  1  0.17759183  0.64481633  0.14753936  1.0
  Nb  Nb614  1  0.17759183  0.97814967  0.14753936  1.0
  Nb  Nb615  1  0.51092517  0.31148300  0.14753936  1.0
  Nb  Nb616  1  0.51092517  0.64481633  0.14753936  1.0
  Nb  Nb617  1  0.51092517  0.97814967  0.14753936  1.0
  Nb  Nb618  1  0.84425850  0.31148300  0.14753936  1.0
  Nb  Nb619  1  0.84425850  0.64481633  0.14753936  1.0
  Nb  Nb620  1  0.84425850  0.97814967  0.14753936  1.0
  Nb  Nb621  1  0.01092517  0.31148300  0.21896793  1.0
  Nb  Nb622  1  0.01092517  0.64481633  0.21896793  1.0
  Nb  Nb623  1  0.01092517  0.97814967  0.21896793  1.0
  Nb  Nb624  1  0.34425850  0.31148300  0.21896793  1.0
  Nb  Nb625  1  0.34425850  0.64481633  0.21896793  1.0
  Nb  Nb626  1  0.34425850  0.97814967  0.21896793  1.0
  Nb  Nb627  1  0.67759183  0.31148300  0.21896793  1.0
  Nb  Nb628  1  0.67759183  0.64481633  0.21896793  1.0
  Nb  Nb629  1  0.67759183  0.97814967  0.21896793  1.0
  Nb  Nb630  1  0.23907483  0.18851700  0.22658893  1.0
  Nb  Nb631  1  0.23907483  0.52185033  0.22658893  1.0
  Nb  Nb632  1  0.23907483  0.85518367  0.22658893  1.0
  Nb  Nb633  1  0.57240817  0.18851700  0.22658893  1.0
  Nb  Nb634  1  0.57240817  0.52185033  0.22658893  1.0
  Nb  Nb635  1  0.57240817  0.85518367  0.22658893  1.0
  Nb  Nb636  1  0.90574150  0.18851700  0.22658893  1.0
  Nb  Nb637  1  0.90574150  0.52185033  0.22658893  1.0
  Nb  Nb638  1  0.90574150  0.85518367  0.22658893  1.0
  Nb  Nb639  1  0.07240817  0.18851700  0.15516036  1.0
  Nb  Nb640  1  0.07240817  0.52185033  0.15516036  1.0
  Nb  Nb641  1  0.07240817  0.85518367  0.15516036  1.0
  Nb  Nb642  1  0.40574150  0.18851700  0.15516036  1.0
  Nb  Nb643  1  0.40574150  0.52185033  0.15516036  1.0
  Nb  Nb644  1  0.40574150  0.85518367  0.15516036  1.0
  Nb  Nb645  1  0.73907483  0.18851700  0.15516036  1.0
  Nb  Nb646  1  0.73907483  0.52185033  0.15516036  1.0
  Nb  Nb647  1  0.73907483  0.85518367  0.15516036  1.0
  Nb  Nb648  1  0.30259183  0.06148300  0.23682507  1.0
  Nb  Nb649  1  0.30259183  0.39481633  0.23682507  1.0
  Nb  Nb650  1  0.30259183  0.72814967  0.23682507  1.0
  Nb  Nb651  1  0.63592517  0.06148300  0.23682507  1.0
  Nb  Nb652  1  0.63592517  0.39481633  0.23682507  1.0
  Nb  Nb653  1  0.63592517  0.72814967  0.23682507  1.0
  Nb  Nb654  1  0.96925850  0.06148300  0.23682507  1.0
  Nb  Nb655  1  0.96925850  0.39481633  0.23682507  1.0
  Nb  Nb656  1  0.96925850  0.72814967  0.23682507  1.0
  Nb  Nb657  1  0.13592517  0.06148300  0.16539650  1.0
  Nb  Nb658  1  0.13592517  0.39481633  0.16539650  1.0
  Nb  Nb659  1  0.13592517  0.72814967  0.16539650  1.0
  Nb  Nb660  1  0.46925850  0.06148300  0.16539650  1.0
  Nb  Nb661  1  0.46925850  0.39481633  0.16539650  1.0
  Nb  Nb662  1  0.46925850  0.72814967  0.16539650  1.0
  Nb  Nb663  1  0.80259183  0.06148300  0.16539650  1.0
  Nb  Nb664  1  0.80259183  0.39481633  0.16539650  1.0
  Nb  Nb665  1  0.80259183  0.72814967  0.16539650  1.0
  Nb  Nb666  1  0.19740817  0.06148300  0.19174636  1.0
  Nb  Nb667  1  0.19740817  0.39481633  0.19174636  1.0
  Nb  Nb668  1  0.19740817  0.72814967  0.19174636  1.0
  Nb  Nb669  1  0.53074150  0.06148300  0.19174636  1.0
  Nb  Nb670  1  0.53074150  0.39481633  0.19174636  1.0
  Nb  Nb671  1  0.53074150  0.72814967  0.19174636  1.0
  Nb  Nb672  1  0.86407483  0.06148300  0.19174636  1.0
  Nb  Nb673  1  0.86407483  0.39481633  0.19174636  1.0
  Nb  Nb674  1  0.86407483  0.72814967  0.19174636  1.0
  Nb  Nb675  1  0.03074150  0.06148300  0.26317493  1.0
  Nb  Nb676  1  0.03074150  0.39481633  0.26317493  1.0
  Nb  Nb677  1  0.03074150  0.72814967  0.26317493  1.0
  Nb  Nb678  1  0.36407483  0.06148300  0.26317493  1.0
  Nb  Nb679  1  0.36407483  0.39481633  0.26317493  1.0
  Nb  Nb680  1  0.36407483  0.72814967  0.26317493  1.0
  Nb  Nb681  1  0.69740817  0.06148300  0.26317493  1.0
  Nb  Nb682  1  0.69740817  0.39481633  0.26317493  1.0
  Nb  Nb683  1  0.69740817  0.72814967  0.26317493  1.0
  Nb  Nb684  1  0.17759183  0.18851700  0.25293879  1.0
  Nb  Nb685  1  0.17759183  0.52185033  0.25293879  1.0
  Nb  Nb686  1  0.17759183  0.85518367  0.25293879  1.0
  Nb  Nb687  1  0.51092517  0.18851700  0.25293879  1.0
  Nb  Nb688  1  0.51092517  0.52185033  0.25293879  1.0
  Nb  Nb689  1  0.51092517  0.85518367  0.25293879  1.0
  Nb  Nb690  1  0.84425850  0.18851700  0.25293879  1.0
  Nb  Nb691  1  0.84425850  0.52185033  0.25293879  1.0
  Nb  Nb692  1  0.84425850  0.85518367  0.25293879  1.0
  Nb  Nb693  1  0.01092517  0.18851700  0.18151021  1.0
  Nb  Nb694  1  0.01092517  0.52185033  0.18151021  1.0
  Nb  Nb695  1  0.01092517  0.85518367  0.18151021  1.0
  Nb  Nb696  1  0.34425850  0.18851700  0.18151021  1.0
  Nb  Nb697  1  0.34425850  0.52185033  0.18151021  1.0
  Nb  Nb698  1  0.34425850  0.85518367  0.18151021  1.0
  Nb  Nb699  1  0.67759183  0.18851700  0.18151021  1.0
  Nb  Nb700  1  0.67759183  0.52185033  0.18151021  1.0
  Nb  Nb701  1  0.67759183  0.85518367  0.18151021  1.0
  Nb  Nb702  1  0.23509195  0.19648278  0.26733998  1.0
  Nb  Nb703  1  0.23509195  0.52981611  0.26733998  1.0
  Nb  Nb704  1  0.23509195  0.86314944  0.26733998  1.0
  Nb  Nb705  1  0.56842528  0.19648278  0.26733998  1.0
  Nb  Nb706  1  0.56842528  0.52981611  0.26733998  1.0
  Nb  Nb707  1  0.56842528  0.86314944  0.26733998  1.0
  Nb  Nb708  1  0.90175861  0.19648278  0.26733998  1.0
  Nb  Nb709  1  0.90175861  0.52981611  0.26733998  1.0
  Nb  Nb710  1  0.90175861  0.86314944  0.26733998  1.0
  Nb  Nb711  1  0.06842528  0.19648278  0.19591140  1.0
  Nb  Nb712  1  0.06842528  0.52981611  0.19591141  1.0
  Nb  Nb713  1  0.06842528  0.86314944  0.19591141  1.0
  Nb  Nb714  1  0.40175861  0.19648278  0.19591140  1.0
  Nb  Nb715  1  0.40175861  0.52981611  0.19591141  1.0
  Nb  Nb716  1  0.40175861  0.86314944  0.19591141  1.0
  Nb  Nb717  1  0.73509194  0.19648278  0.19591141  1.0
  Nb  Nb718  1  0.73509194  0.52981611  0.19591140  1.0
  Nb  Nb719  1  0.73509194  0.86314944  0.19591141  1.0
  Nb  Nb720  1  0.30657472  0.05351722  0.14496069  1.0
  Nb  Nb721  1  0.30657472  0.38685056  0.14496069  1.0
  Nb  Nb722  1  0.30657472  0.72018389  0.14496069  1.0
  Nb  Nb723  1  0.63990805  0.05351722  0.14496069  1.0
  Nb  Nb724  1  0.63990806  0.38685056  0.14496069  1.0
  Nb  Nb725  1  0.63990806  0.72018389  0.14496069  1.0
  Nb  Nb726  1  0.97324139  0.05351722  0.14496069  1.0
  Nb  Nb727  1  0.97324139  0.38685056  0.14496069  1.0
  Nb  Nb728  1  0.97324139  0.72018389  0.14496069  1.0
  Nb  Nb729  1  0.13990805  0.05351722  0.21638926  1.0
  Nb  Nb730  1  0.13990806  0.38685056  0.21638926  1.0
  Nb  Nb731  1  0.13990805  0.72018389  0.21638926  1.0
  Nb  Nb732  1  0.47324139  0.05351722  0.21638926  1.0
  Nb  Nb733  1  0.47324139  0.38685056  0.21638926  1.0
  Nb  Nb734  1  0.47324139  0.72018389  0.21638926  1.0
  Nb  Nb735  1  0.80657472  0.05351722  0.21638926  1.0
  Nb  Nb736  1  0.80657472  0.38685056  0.21638926  1.0
  Nb  Nb737  1  0.80657472  0.72018389  0.21638926  1.0
  Nb  Nb738  1  0.30259183  0.27185033  0.14666764  1.0
  Nb  Nb739  1  0.30259183  0.60518367  0.14666764  1.0
  Nb  Nb740  1  0.30259183  0.93851700  0.14666764  1.0
  Nb  Nb741  1  0.63592517  0.27185033  0.14666764  1.0
  Nb  Nb742  1  0.63592517  0.60518367  0.14666764  1.0
  Nb  Nb743  1  0.63592517  0.93851700  0.14666764  1.0
  Nb  Nb744  1  0.96925850  0.27185033  0.14666764  1.0
  Nb  Nb745  1  0.96925850  0.60518367  0.14666764  1.0
  Nb  Nb746  1  0.96925850  0.93851700  0.14666764  1.0
  Nb  Nb747  1  0.13592517  0.27185033  0.21809621  1.0
  Nb  Nb748  1  0.13592517  0.60518367  0.21809621  1.0
  Nb  Nb749  1  0.13592517  0.93851700  0.21809621  1.0
  Nb  Nb750  1  0.46925850  0.27185033  0.21809621  1.0
  Nb  Nb751  1  0.46925850  0.60518367  0.21809621  1.0
  Nb  Nb752  1  0.46925850  0.93851700  0.21809621  1.0
  Nb  Nb753  1  0.80259183  0.27185033  0.21809621  1.0
  Nb  Nb754  1  0.80259183  0.60518367  0.21809621  1.0
  Nb  Nb755  1  0.80259183  0.93851700  0.21809621  1.0
  Nb  Nb756  1  0.19740817  0.06148300  0.28190379  1.0
  Nb  Nb757  1  0.19740817  0.39481633  0.28190379  1.0
  Nb  Nb758  1  0.19740817  0.72814967  0.28190379  1.0
  Nb  Nb759  1  0.53074150  0.06148300  0.28190379  1.0
  Nb  Nb760  1  0.53074150  0.39481633  0.28190379  1.0
  Nb  Nb761  1  0.53074150  0.72814967  0.28190379  1.0
  Nb  Nb762  1  0.86407483  0.06148300  0.28190379  1.0
  Nb  Nb763  1  0.86407483  0.39481633  0.28190379  1.0
  Nb  Nb764  1  0.86407483  0.72814967  0.28190379  1.0
  Nb  Nb765  1  0.03074150  0.06148300  0.21047521  1.0
  Nb  Nb766  1  0.03074150  0.39481633  0.21047521  1.0
  Nb  Nb767  1  0.03074150  0.72814967  0.21047521  1.0
  Nb  Nb768  1  0.36407483  0.06148300  0.21047521  1.0
  Nb  Nb769  1  0.36407483  0.39481633  0.21047521  1.0
  Nb  Nb770  1  0.36407483  0.72814967  0.21047521  1.0
  Nb  Nb771  1  0.69740817  0.06148300  0.21047521  1.0
  Nb  Nb772  1  0.69740817  0.39481633  0.21047521  1.0
  Nb  Nb773  1  0.69740817  0.72814967  0.21047521  1.0
  Nb  Nb774  1  0.19740817  0.27185033  0.24444607  1.0
  Nb  Nb775  1  0.19740817  0.60518367  0.24444607  1.0
  Nb  Nb776  1  0.19740817  0.93851700  0.24444607  1.0
  Nb  Nb777  1  0.53074150  0.27185033  0.24444607  1.0
  Nb  Nb778  1  0.53074150  0.60518367  0.24444607  1.0
  Nb  Nb779  1  0.53074150  0.93851700  0.24444607  1.0
  Nb  Nb780  1  0.86407483  0.27185033  0.24444607  1.0
  Nb  Nb781  1  0.86407483  0.60518367  0.24444607  1.0
  Nb  Nb782  1  0.86407483  0.93851700  0.24444607  1.0
  Nb  Nb783  1  0.03074150  0.27185033  0.17301750  1.0
  Nb  Nb784  1  0.03074150  0.60518367  0.17301750  1.0
  Nb  Nb785  1  0.03074150  0.93851700  0.17301750  1.0
  Nb  Nb786  1  0.36407483  0.27185033  0.17301750  1.0
  Nb  Nb787  1  0.36407483  0.60518367  0.17301750  1.0
  Nb  Nb788  1  0.36407483  0.93851700  0.17301750  1.0
  Nb  Nb789  1  0.69740817  0.27185033  0.17301750  1.0
  Nb  Nb790  1  0.69740817  0.60518367  0.17301750  1.0
  Nb  Nb791  1  0.69740817  0.93851700  0.17301750  1.0
  Ni  Ni792  1  0.27083333  0.29166667  0.23170700  1.0
  Ni  Ni793  1  0.27083333  0.62500000  0.23170700  1.0
  Ni  Ni794  1  0.27083333  0.95833333  0.23170700  1.0
  Ni  Ni795  1  0.60416667  0.29166667  0.23170700  1.0
  Ni  Ni796  1  0.60416667  0.62500000  0.23170700  1.0
  Ni  Ni797  1  0.60416667  0.95833333  0.23170700  1.0
  Ni  Ni798  1  0.93750000  0.29166667  0.23170700  1.0
  Ni  Ni799  1  0.93750000  0.62500000  0.23170700  1.0
  Ni  Ni800  1  0.93750000  0.95833333  0.23170700  1.0
  Ni  Ni801  1  0.10416667  0.29166667  0.16027843  1.0
  Ni  Ni802  1  0.10416667  0.62500000  0.16027843  1.0
  Ni  Ni803  1  0.10416667  0.95833333  0.16027843  1.0
  Ni  Ni804  1  0.43750000  0.29166667  0.16027843  1.0
  Ni  Ni805  1  0.43750000  0.62500000  0.16027843  1.0
  Ni  Ni806  1  0.43750000  0.95833333  0.16027843  1.0
  Ni  Ni807  1  0.77083333  0.29166667  0.16027843  1.0
  Ni  Ni808  1  0.77083333  0.62500000  0.16027843  1.0
  Ni  Ni809  1  0.77083333  0.95833333  0.16027843  1.0
  Ni  Ni810  1  0.18750000  0.12500000  0.19599271  1.0
  Ni  Ni811  1  0.18750000  0.45833333  0.19599271  1.0
  Ni  Ni812  1  0.18750000  0.79166667  0.19599271  1.0
  Ni  Ni813  1  0.52083333  0.12500000  0.19599271  1.0
  Ni  Ni814  1  0.52083333  0.45833333  0.19599271  1.0
  Ni  Ni815  1  0.52083333  0.79166667  0.19599271  1.0
  Ni  Ni816  1  0.85416667  0.12500000  0.19599271  1.0
  Ni  Ni817  1  0.85416667  0.45833333  0.19599271  1.0
  Ni  Ni818  1  0.85416667  0.79166667  0.19599271  1.0
  Ni  Ni819  1  0.02083333  0.12500000  0.26742129  1.0
  Ni  Ni820  1  0.02083333  0.45833333  0.26742129  1.0
  Ni  Ni821  1  0.02083333  0.79166667  0.26742129  1.0
  Ni  Ni822  1  0.35416667  0.12500000  0.26742129  1.0
  Ni  Ni823  1  0.35416667  0.45833333  0.26742129  1.0
  Ni  Ni824  1  0.35416667  0.79166667  0.26742129  1.0
  Ni  Ni825  1  0.68750000  0.12500000  0.26742129  1.0
  Ni  Ni826  1  0.68750000  0.45833333  0.26742129  1.0
  Ni  Ni827  1  0.68750000  0.79166667  0.26742129  1.0
  Ni  Ni828  1  0.27083333  0.12500000  0.16027843  1.0
  Ni  Ni829  1  0.27083333  0.45833333  0.16027843  1.0
  Ni  Ni830  1  0.27083333  0.79166667  0.16027843  1.0
  Ni  Ni831  1  0.60416667  0.12500000  0.16027843  1.0
  Ni  Ni832  1  0.60416667  0.45833333  0.16027843  1.0
  Ni  Ni833  1  0.60416667  0.79166667  0.16027843  1.0
  Ni  Ni834  1  0.93750000  0.12500000  0.16027843  1.0
  Ni  Ni835  1  0.93750000  0.45833333  0.16027843  1.0
  Ni  Ni836  1  0.93750000  0.79166667  0.16027843  1.0
  Ni  Ni837  1  0.10416667  0.12500000  0.23170700  1.0
  Ni  Ni838  1  0.10416667  0.45833333  0.23170700  1.0
  Ni  Ni839  1  0.10416667  0.79166667  0.23170700  1.0
  Ni  Ni840  1  0.43750000  0.12500000  0.23170700  1.0
  Ni  Ni841  1  0.43750000  0.45833333  0.23170700  1.0
  Ni  Ni842  1  0.43750000  0.79166667  0.23170700  1.0
  Ni  Ni843  1  0.77083333  0.12500000  0.23170700  1.0
  Ni  Ni844  1  0.77083333  0.45833333  0.23170700  1.0
  Ni  Ni845  1  0.77083333  0.79166667  0.23170700  1.0
  Ni  Ni846  1  0.27083333  0.12500000  0.23170700  1.0
  Ni  Ni847  1  0.27083333  0.45833333  0.23170700  1.0
  Ni  Ni848  1  0.27083333  0.79166667  0.23170700  1.0
  Ni  Ni849  1  0.60416667  0.12500000  0.23170700  1.0
  Ni  Ni850  1  0.60416667  0.45833333  0.23170700  1.0
  Ni  Ni851  1  0.60416667  0.79166667  0.23170700  1.0
  Ni  Ni852  1  0.93750000  0.12500000  0.23170700  1.0
  Ni  Ni853  1  0.93750000  0.45833333  0.23170700  1.0
  Ni  Ni854  1  0.93750000  0.79166667  0.23170700  1.0
  Ni  Ni855  1  0.10416667  0.12500000  0.16027843  1.0
  Ni  Ni856  1  0.10416667  0.45833333  0.16027843  1.0
  Ni  Ni857  1  0.10416667  0.79166667  0.16027843  1.0
  Ni  Ni858  1  0.43750000  0.12500000  0.16027843  1.0
  Ni  Ni859  1  0.43750000  0.45833333  0.16027843  1.0
  Ni  Ni860  1  0.43750000  0.79166667  0.16027843  1.0
  Ni  Ni861  1  0.77083333  0.12500000  0.16027843  1.0
  Ni  Ni862  1  0.77083333  0.45833333  0.16027843  1.0
  Ni  Ni863  1  0.77083333  0.79166667  0.16027843  1.0
  Nb  Nb864  1  0.24694250  0.05351722  0.31337450  1.0
  Nb  Nb865  1  0.24694250  0.38685056  0.31337450  1.0
  Nb  Nb866  1  0.24694250  0.72018389  0.31337450  1.0
  Nb  Nb867  1  0.58027583  0.05351722  0.31337450  1.0
  Nb  Nb868  1  0.58027583  0.38685056  0.31337450  1.0
  Nb  Nb869  1  0.58027583  0.72018389  0.31337450  1.0
  Nb  Nb870  1  0.91360917  0.05351722  0.31337450  1.0
  Nb  Nb871  1  0.91360917  0.38685056  0.31337450  1.0
  Nb  Nb872  1  0.91360917  0.72018389  0.31337450  1.0
  Nb  Nb873  1  0.08027583  0.05351722  0.38480307  1.0
  Nb  Nb874  1  0.08027583  0.38685056  0.38480307  1.0
  Nb  Nb875  1  0.08027583  0.72018389  0.38480307  1.0
  Nb  Nb876  1  0.41360917  0.05351722  0.38480307  1.0
  Nb  Nb877  1  0.41360917  0.38685056  0.38480307  1.0
  Nb  Nb878  1  0.41360917  0.72018389  0.38480307  1.0
  Nb  Nb879  1  0.74694250  0.05351722  0.38480307  1.0
  Nb  Nb880  1  0.74694250  0.38685056  0.38480307  1.0
  Nb  Nb881  1  0.74694250  0.72018389  0.38480307  1.0
  Nb  Nb882  1  0.30259183  0.27185033  0.34222450  1.0
  Nb  Nb883  1  0.30259183  0.60518367  0.34222450  1.0
  Nb  Nb884  1  0.30259183  0.93851700  0.34222450  1.0
  Nb  Nb885  1  0.63592517  0.27185033  0.34222450  1.0
  Nb  Nb886  1  0.63592517  0.60518367  0.34222450  1.0
  Nb  Nb887  1  0.63592517  0.93851700  0.34222450  1.0
  Nb  Nb888  1  0.96925850  0.27185033  0.34222450  1.0
  Nb  Nb889  1  0.96925850  0.60518367  0.34222450  1.0
  Nb  Nb890  1  0.96925850  0.93851700  0.34222450  1.0
  Nb  Nb891  1  0.13592517  0.27185033  0.41365307  1.0
  Nb  Nb892  1  0.13592517  0.60518367  0.41365307  1.0
  Nb  Nb893  1  0.13592517  0.93851700  0.41365307  1.0
  Nb  Nb894  1  0.46925850  0.27185033  0.41365307  1.0
  Nb  Nb895  1  0.46925850  0.60518367  0.41365307  1.0
  Nb  Nb896  1  0.46925850  0.93851700  0.41365307  1.0
  Nb  Nb897  1  0.80259183  0.27185033  0.41365307  1.0
  Nb  Nb898  1  0.80259183  0.60518367  0.41365307  1.0
  Nb  Nb899  1  0.80259183  0.93851700  0.41365307  1.0
  Nb  Nb900  1  0.30657472  0.17278167  0.37956164  1.0
  Nb  Nb901  1  0.30657472  0.50611500  0.37956164  1.0
  Nb  Nb902  1  0.30657472  0.83944833  0.37956164  1.0
  Nb  Nb903  1  0.63990805  0.17278167  0.37956164  1.0
  Nb  Nb904  1  0.63990806  0.50611500  0.37956164  1.0
  Nb  Nb905  1  0.63990805  0.83944833  0.37956164  1.0
  Nb  Nb906  1  0.97324139  0.17278167  0.37956164  1.0
  Nb  Nb907  1  0.97324139  0.50611500  0.37956164  1.0
  Nb  Nb908  1  0.97324139  0.83944833  0.37956164  1.0
  Nb  Nb909  1  0.13990805  0.17278167  0.30813307  1.0
  Nb  Nb910  1  0.13990805  0.50611500  0.30813307  1.0
  Nb  Nb911  1  0.13990805  0.83944833  0.30813307  1.0
  Nb  Nb912  1  0.47324139  0.17278167  0.30813307  1.0
  Nb  Nb913  1  0.47324139  0.50611500  0.30813307  1.0
  Nb  Nb914  1  0.47324139  0.83944833  0.30813307  1.0
  Nb  Nb915  1  0.80657472  0.17278167  0.30813307  1.0
  Nb  Nb916  1  0.80657472  0.50611500  0.30813307  1.0
  Nb  Nb917  1  0.80657472  0.83944833  0.30813307  1.0
  Nb  Nb918  1  0.23907483  0.31148300  0.40690379  1.0
  Nb  Nb919  1  0.23907483  0.64481633  0.40690379  1.0
  Nb  Nb920  1  0.23907483  0.97814967  0.40690379  1.0
  Nb  Nb921  1  0.57240817  0.31148300  0.40690379  1.0
  Nb  Nb922  1  0.57240817  0.64481633  0.40690379  1.0
  Nb  Nb923  1  0.57240817  0.97814967  0.40690379  1.0
  Nb  Nb924  1  0.90574150  0.31148300  0.40690379  1.0
  Nb  Nb925  1  0.90574150  0.64481633  0.40690379  1.0
  Nb  Nb926  1  0.90574150  0.97814967  0.40690379  1.0
  Nb  Nb927  1  0.07240817  0.31148300  0.33547521  1.0
  Nb  Nb928  1  0.07240817  0.64481633  0.33547521  1.0
  Nb  Nb929  1  0.07240817  0.97814967  0.33547521  1.0
  Nb  Nb930  1  0.40574150  0.31148300  0.33547521  1.0
  Nb  Nb931  1  0.40574150  0.64481633  0.33547521  1.0
  Nb  Nb932  1  0.40574150  0.97814967  0.33547521  1.0
  Nb  Nb933  1  0.73907483  0.31148300  0.33547521  1.0
  Nb  Nb934  1  0.73907483  0.64481633  0.33547521  1.0
  Nb  Nb935  1  0.73907483  0.97814967  0.33547521  1.0
  Nb  Nb936  1  0.29472417  0.19648278  0.29289664  1.0
  Nb  Nb937  1  0.29472417  0.52981611  0.29289664  1.0
  Nb  Nb938  1  0.29472417  0.86314944  0.29289664  1.0
  Nb  Nb939  1  0.62805750  0.19648278  0.29289664  1.0
  Nb  Nb940  1  0.62805750  0.52981611  0.29289664  1.0
  Nb  Nb941  1  0.62805750  0.86314944  0.29289664  1.0
  Nb  Nb942  1  0.96139083  0.19648278  0.29289664  1.0
  Nb  Nb943  1  0.96139083  0.52981611  0.29289664  1.0
  Nb  Nb944  1  0.96139083  0.86314944  0.29289664  1.0
  Nb  Nb945  1  0.12805750  0.19648278  0.36432521  1.0
  Nb  Nb946  1  0.12805750  0.52981611  0.36432521  1.0
  Nb  Nb947  1  0.12805750  0.86314944  0.36432521  1.0
  Nb  Nb948  1  0.46139083  0.19648278  0.36432521  1.0
  Nb  Nb949  1  0.46139083  0.52981611  0.36432521  1.0
  Nb  Nb950  1  0.46139083  0.86314944  0.36432521  1.0
  Nb  Nb951  1  0.79472417  0.19648278  0.36432521  1.0
  Nb  Nb952  1  0.79472417  0.52981611  0.36432521  1.0
  Nb  Nb953  1  0.79472417  0.86314944  0.36432521  1.0
  Nb  Nb954  1  0.23907483  0.31148300  0.31674636  1.0
  Nb  Nb955  1  0.23907483  0.64481633  0.31674636  1.0
  Nb  Nb956  1  0.23907483  0.97814967  0.31674636  1.0
  Nb  Nb957  1  0.57240817  0.31148300  0.31674636  1.0
  Nb  Nb958  1  0.57240817  0.64481633  0.31674636  1.0
  Nb  Nb959  1  0.57240817  0.97814967  0.31674636  1.0
  Nb  Nb960  1  0.90574150  0.31148300  0.31674636  1.0
  Nb  Nb961  1  0.90574150  0.64481633  0.31674636  1.0
  Nb  Nb962  1  0.90574150  0.97814967  0.31674636  1.0
  Nb  Nb963  1  0.07240817  0.31148300  0.38817493  1.0
  Nb  Nb964  1  0.07240817  0.64481633  0.38817493  1.0
  Nb  Nb965  1  0.07240817  0.97814967  0.38817493  1.0
  Nb  Nb966  1  0.40574150  0.31148300  0.38817493  1.0
  Nb  Nb967  1  0.40574150  0.64481633  0.38817493  1.0
  Nb  Nb968  1  0.40574150  0.97814967  0.38817493  1.0
  Nb  Nb969  1  0.73907483  0.31148300  0.38817493  1.0
  Nb  Nb970  1  0.73907483  0.64481633  0.38817493  1.0
  Nb  Nb971  1  0.73907483  0.97814967  0.38817493  1.0
  Nb  Nb972  1  0.17759183  0.18851700  0.34309621  1.0
  Nb  Nb973  1  0.17759183  0.52185033  0.34309621  1.0
  Nb  Nb974  1  0.17759183  0.85518367  0.34309621  1.0
  Nb  Nb975  1  0.51092517  0.18851700  0.34309621  1.0
  Nb  Nb976  1  0.51092517  0.52185033  0.34309621  1.0
  Nb  Nb977  1  0.51092517  0.85518367  0.34309621  1.0
  Nb  Nb978  1  0.84425850  0.18851700  0.34309621  1.0
  Nb  Nb979  1  0.84425850  0.52185033  0.34309621  1.0
  Nb  Nb980  1  0.84425850  0.85518367  0.34309621  1.0
  Nb  Nb981  1  0.01092517  0.18851700  0.41452479  1.0
  Nb  Nb982  1  0.01092517  0.52185033  0.41452479  1.0
  Nb  Nb983  1  0.01092517  0.85518367  0.41452479  1.0
  Nb  Nb984  1  0.34425850  0.18851700  0.41452479  1.0
  Nb  Nb985  1  0.34425850  0.52185033  0.41452479  1.0
  Nb  Nb986  1  0.34425850  0.85518367  0.41452479  1.0
  Nb  Nb987  1  0.67759183  0.18851700  0.41452479  1.0
  Nb  Nb988  1  0.67759183  0.52185033  0.41452479  1.0
  Nb  Nb989  1  0.67759183  0.85518367  0.41452479  1.0
  Nb  Nb990  1  0.23509195  0.07721833  0.36956664  1.0
  Nb  Nb991  1  0.23509195  0.41055167  0.36956664  1.0
  Nb  Nb992  1  0.23509195  0.74388500  0.36956664  1.0
  Nb  Nb993  1  0.56842528  0.07721833  0.36956664  1.0
  Nb  Nb994  1  0.56842528  0.41055167  0.36956664  1.0
  Nb  Nb995  1  0.56842528  0.74388500  0.36956664  1.0
  Nb  Nb996  1  0.90175861  0.07721833  0.36956664  1.0
  Nb  Nb997  1  0.90175861  0.41055167  0.36956664  1.0
  Nb  Nb998  1  0.90175861  0.74388500  0.36956664  1.0
  Nb  Nb999  1  0.06842528  0.07721833  0.29813807  1.0
  Nb  Nb1000  1  0.06842528  0.41055167  0.29813807  1.0
  Nb  Nb1001  1  0.06842528  0.74388500  0.29813807  1.0
  Nb  Nb1002  1  0.40175861  0.07721833  0.29813807  1.0
  Nb  Nb1003  1  0.40175861  0.41055167  0.29813807  1.0
  Nb  Nb1004  1  0.40175861  0.74388500  0.29813807  1.0
  Nb  Nb1005  1  0.73509194  0.07721833  0.29813807  1.0
  Nb  Nb1006  1  0.73509194  0.41055167  0.29813807  1.0
  Nb  Nb1007  1  0.73509195  0.74388500  0.29813807  1.0
  Nb  Nb1008  1  0.30657472  0.05351722  0.33893117  1.0
  Nb  Nb1009  1  0.30657472  0.38685056  0.33893117  1.0
  Nb  Nb1010  1  0.30657472  0.72018389  0.33893117  1.0
  Nb  Nb1011  1  0.63990806  0.05351722  0.33893117  1.0
  Nb  Nb1012  1  0.63990806  0.38685056  0.33893117  1.0
  Nb  Nb1013  1  0.63990806  0.72018389  0.33893117  1.0
  Nb  Nb1014  1  0.97324139  0.05351722  0.33893117  1.0
  Nb  Nb1015  1  0.97324139  0.38685056  0.33893117  1.0
  Nb  Nb1016  1  0.97324139  0.72018389  0.33893117  1.0
  Nb  Nb1017  1  0.13990805  0.05351722  0.41035974  1.0
  Nb  Nb1018  1  0.13990805  0.38685056  0.41035974  1.0
  Nb  Nb1019  1  0.13990805  0.72018389  0.41035974  1.0
  Nb  Nb1020  1  0.47324139  0.05351722  0.41035974  1.0
  Nb  Nb1021  1  0.47324139  0.38685056  0.41035974  1.0
  Nb  Nb1022  1  0.47324139  0.72018389  0.41035974  1.0
  Nb  Nb1023  1  0.80657472  0.05351722  0.41035974  1.0
  Nb  Nb1024  1  0.80657472  0.38685056  0.41035974  1.0
  Nb  Nb1025  1  0.80657472  0.72018389  0.41035974  1.0
  Nb  Nb1026  1  0.23509195  0.19648278  0.31845331  1.0
  Nb  Nb1027  1  0.23509195  0.52981611  0.31845331  1.0
  Nb  Nb1028  1  0.23509195  0.86314944  0.31845331  1.0
  Nb  Nb1029  1  0.56842528  0.19648278  0.31845331  1.0
  Nb  Nb1030  1  0.56842528  0.52981611  0.31845331  1.0
  Nb  Nb1031  1  0.56842528  0.86314944  0.31845331  1.0
  Nb  Nb1032  1  0.90175861  0.19648278  0.31845331  1.0
  Nb  Nb1033  1  0.90175861  0.52981611  0.31845331  1.0
  Nb  Nb1034  1  0.90175861  0.86314944  0.31845331  1.0
  Nb  Nb1035  1  0.06842528  0.19648278  0.38988188  1.0
  Nb  Nb1036  1  0.06842528  0.52981611  0.38988188  1.0
  Nb  Nb1037  1  0.06842528  0.86314944  0.38988188  1.0
  Nb  Nb1038  1  0.40175861  0.19648278  0.38988188  1.0
  Nb  Nb1039  1  0.40175861  0.52981611  0.38988188  1.0
  Nb  Nb1040  1  0.40175861  0.86314944  0.38988188  1.0
  Nb  Nb1041  1  0.73509194  0.19648278  0.38988188  1.0
  Nb  Nb1042  1  0.73509194  0.52981611  0.38988188  1.0
  Nb  Nb1043  1  0.73509194  0.86314944  0.38988188  1.0
  Nb  Nb1044  1  0.17759183  0.31148300  0.29039650  1.0
  Nb  Nb1045  1  0.17759183  0.64481633  0.29039650  1.0
  Nb  Nb1046  1  0.17759183  0.97814967  0.29039650  1.0
  Nb  Nb1047  1  0.51092517  0.31148300  0.29039650  1.0
  Nb  Nb1048  1  0.51092517  0.64481633  0.29039650  1.0
  Nb  Nb1049  1  0.51092517  0.97814967  0.29039650  1.0
  Nb  Nb1050  1  0.84425850  0.31148300  0.29039650  1.0
  Nb  Nb1051  1  0.84425850  0.64481633  0.29039650  1.0
  Nb  Nb1052  1  0.84425850  0.97814967  0.29039650  1.0
  Nb  Nb1053  1  0.01092517  0.31148300  0.36182507  1.0
  Nb  Nb1054  1  0.01092517  0.64481633  0.36182507  1.0
  Nb  Nb1055  1  0.01092517  0.97814967  0.36182507  1.0
  Nb  Nb1056  1  0.34425850  0.31148300  0.36182507  1.0
  Nb  Nb1057  1  0.34425850  0.64481633  0.36182507  1.0
  Nb  Nb1058  1  0.34425850  0.97814967  0.36182507  1.0
  Nb  Nb1059  1  0.67759183  0.31148300  0.36182507  1.0
  Nb  Nb1060  1  0.67759183  0.64481633  0.36182507  1.0
  Nb  Nb1061  1  0.67759183  0.97814967  0.36182507  1.0
  Nb  Nb1062  1  0.23907483  0.18851700  0.36944607  1.0
  Nb  Nb1063  1  0.23907483  0.52185033  0.36944607  1.0
  Nb  Nb1064  1  0.23907483  0.85518367  0.36944607  1.0
  Nb  Nb1065  1  0.57240817  0.18851700  0.36944607  1.0
  Nb  Nb1066  1  0.57240817  0.52185033  0.36944607  1.0
  Nb  Nb1067  1  0.57240817  0.85518367  0.36944607  1.0
  Nb  Nb1068  1  0.90574150  0.18851700  0.36944607  1.0
  Nb  Nb1069  1  0.90574150  0.52185033  0.36944607  1.0
  Nb  Nb1070  1  0.90574150  0.85518367  0.36944607  1.0
  Nb  Nb1071  1  0.07240817  0.18851700  0.29801750  1.0
  Nb  Nb1072  1  0.07240817  0.52185033  0.29801750  1.0
  Nb  Nb1073  1  0.07240817  0.85518367  0.29801750  1.0
  Nb  Nb1074  1  0.40574150  0.18851700  0.29801750  1.0
  Nb  Nb1075  1  0.40574150  0.52185033  0.29801750  1.0
  Nb  Nb1076  1  0.40574150  0.85518367  0.29801750  1.0
  Nb  Nb1077  1  0.73907483  0.18851700  0.29801750  1.0
  Nb  Nb1078  1  0.73907483  0.52185033  0.29801750  1.0
  Nb  Nb1079  1  0.73907483  0.85518367  0.29801750  1.0
  Nb  Nb1080  1  0.30259183  0.06148300  0.37968221  1.0
  Nb  Nb1081  1  0.30259183  0.39481633  0.37968221  1.0
  Nb  Nb1082  1  0.30259183  0.72814967  0.37968221  1.0
  Nb  Nb1083  1  0.63592517  0.06148300  0.37968221  1.0
  Nb  Nb1084  1  0.63592517  0.39481633  0.37968221  1.0
  Nb  Nb1085  1  0.63592517  0.72814967  0.37968221  1.0
  Nb  Nb1086  1  0.96925850  0.06148300  0.37968221  1.0
  Nb  Nb1087  1  0.96925850  0.39481633  0.37968221  1.0
  Nb  Nb1088  1  0.96925850  0.72814967  0.37968221  1.0
  Nb  Nb1089  1  0.13592517  0.06148300  0.30825364  1.0
  Nb  Nb1090  1  0.13592517  0.39481633  0.30825364  1.0
  Nb  Nb1091  1  0.13592517  0.72814967  0.30825364  1.0
  Nb  Nb1092  1  0.46925850  0.06148300  0.30825364  1.0
  Nb  Nb1093  1  0.46925850  0.39481633  0.30825364  1.0
  Nb  Nb1094  1  0.46925850  0.72814967  0.30825364  1.0
  Nb  Nb1095  1  0.80259183  0.06148300  0.30825364  1.0
  Nb  Nb1096  1  0.80259183  0.39481633  0.30825364  1.0
  Nb  Nb1097  1  0.80259183  0.72814967  0.30825364  1.0
  Nb  Nb1098  1  0.19740817  0.06148300  0.33460350  1.0
  Nb  Nb1099  1  0.19740817  0.39481633  0.33460350  1.0
  Nb  Nb1100  1  0.19740817  0.72814967  0.33460350  1.0
  Nb  Nb1101  1  0.53074150  0.06148300  0.33460350  1.0
  Nb  Nb1102  1  0.53074150  0.39481633  0.33460350  1.0
  Nb  Nb1103  1  0.53074150  0.72814967  0.33460350  1.0
  Nb  Nb1104  1  0.86407483  0.06148300  0.33460350  1.0
  Nb  Nb1105  1  0.86407483  0.39481633  0.33460350  1.0
  Nb  Nb1106  1  0.86407483  0.72814967  0.33460350  1.0
  Nb  Nb1107  1  0.03074150  0.06148300  0.40603207  1.0
  Nb  Nb1108  1  0.03074150  0.39481633  0.40603207  1.0
  Nb  Nb1109  1  0.03074150  0.72814967  0.40603207  1.0
  Nb  Nb1110  1  0.36407483  0.06148300  0.40603207  1.0
  Nb  Nb1111  1  0.36407483  0.39481633  0.40603207  1.0
  Nb  Nb1112  1  0.36407483  0.72814967  0.40603207  1.0
  Nb  Nb1113  1  0.69740817  0.06148300  0.40603207  1.0
  Nb  Nb1114  1  0.69740817  0.39481633  0.40603207  1.0
  Nb  Nb1115  1  0.69740817  0.72814967  0.40603207  1.0
  Nb  Nb1116  1  0.17759183  0.18851700  0.39579593  1.0
  Nb  Nb1117  1  0.17759183  0.52185033  0.39579593  1.0
  Nb  Nb1118  1  0.17759183  0.85518367  0.39579593  1.0
  Nb  Nb1119  1  0.51092517  0.18851700  0.39579593  1.0
  Nb  Nb1120  1  0.51092517  0.52185033  0.39579593  1.0
  Nb  Nb1121  1  0.51092517  0.85518367  0.39579593  1.0
  Nb  Nb1122  1  0.84425850  0.18851700  0.39579593  1.0
  Nb  Nb1123  1  0.84425850  0.52185033  0.39579593  1.0
  Nb  Nb1124  1  0.84425850  0.85518367  0.39579593  1.0
  Nb  Nb1125  1  0.01092517  0.18851700  0.32436736  1.0
  Nb  Nb1126  1  0.01092517  0.52185033  0.32436736  1.0
  Nb  Nb1127  1  0.01092517  0.85518367  0.32436736  1.0
  Nb  Nb1128  1  0.34425850  0.18851700  0.32436736  1.0
  Nb  Nb1129  1  0.34425850  0.52185033  0.32436736  1.0
  Nb  Nb1130  1  0.34425850  0.85518367  0.32436736  1.0
  Nb  Nb1131  1  0.67759183  0.18851700  0.32436736  1.0
  Nb  Nb1132  1  0.67759183  0.52185033  0.32436736  1.0
  Nb  Nb1133  1  0.67759183  0.85518367  0.32436736  1.0
  Nb  Nb1134  1  0.23509195  0.19648278  0.41019712  1.0
  Nb  Nb1135  1  0.23509195  0.52981611  0.41019712  1.0
  Nb  Nb1136  1  0.23509195  0.86314944  0.41019712  1.0
  Nb  Nb1137  1  0.56842528  0.19648278  0.41019712  1.0
  Nb  Nb1138  1  0.56842528  0.52981611  0.41019712  1.0
  Nb  Nb1139  1  0.56842528  0.86314944  0.41019712  1.0
  Nb  Nb1140  1  0.90175861  0.19648278  0.41019712  1.0
  Nb  Nb1141  1  0.90175861  0.52981611  0.41019712  1.0
  Nb  Nb1142  1  0.90175861  0.86314944  0.41019712  1.0
  Nb  Nb1143  1  0.06842528  0.19648278  0.33876855  1.0
  Nb  Nb1144  1  0.06842528  0.52981611  0.33876855  1.0
  Nb  Nb1145  1  0.06842528  0.86314944  0.33876855  1.0
  Nb  Nb1146  1  0.40175861  0.19648278  0.33876855  1.0
  Nb  Nb1147  1  0.40175861  0.52981611  0.33876855  1.0
  Nb  Nb1148  1  0.40175861  0.86314944  0.33876855  1.0
  Nb  Nb1149  1  0.73509194  0.19648278  0.33876855  1.0
  Nb  Nb1150  1  0.73509194  0.52981611  0.33876855  1.0
  Nb  Nb1151  1  0.73509194  0.86314944  0.33876855  1.0
  Nb  Nb1152  1  0.30657472  0.05351722  0.28781783  1.0
  Nb  Nb1153  1  0.30657472  0.38685056  0.28781783  1.0
  Nb  Nb1154  1  0.30657472  0.72018389  0.28781783  1.0
  Nb  Nb1155  1  0.63990805  0.05351722  0.28781783  1.0
  Nb  Nb1156  1  0.63990806  0.38685056  0.28781783  1.0
  Nb  Nb1157  1  0.63990806  0.72018389  0.28781783  1.0
  Nb  Nb1158  1  0.97324139  0.05351722  0.28781783  1.0
  Nb  Nb1159  1  0.97324139  0.38685056  0.28781783  1.0
  Nb  Nb1160  1  0.97324139  0.72018389  0.28781783  1.0
  Nb  Nb1161  1  0.13990805  0.05351722  0.35924641  1.0
  Nb  Nb1162  1  0.13990806  0.38685056  0.35924641  1.0
  Nb  Nb1163  1  0.13990805  0.72018389  0.35924641  1.0
  Nb  Nb1164  1  0.47324139  0.05351722  0.35924641  1.0
  Nb  Nb1165  1  0.47324139  0.38685056  0.35924641  1.0
  Nb  Nb1166  1  0.47324139  0.72018389  0.35924641  1.0
  Nb  Nb1167  1  0.80657472  0.05351722  0.35924641  1.0
  Nb  Nb1168  1  0.80657472  0.38685056  0.35924641  1.0
  Nb  Nb1169  1  0.80657472  0.72018389  0.35924641  1.0
  Nb  Nb1170  1  0.30259183  0.27185033  0.28952479  1.0
  Nb  Nb1171  1  0.30259183  0.60518367  0.28952479  1.0
  Nb  Nb1172  1  0.30259183  0.93851700  0.28952479  1.0
  Nb  Nb1173  1  0.63592517  0.27185033  0.28952479  1.0
  Nb  Nb1174  1  0.63592517  0.60518367  0.28952479  1.0
  Nb  Nb1175  1  0.63592517  0.93851700  0.28952479  1.0
  Nb  Nb1176  1  0.96925850  0.27185033  0.28952479  1.0
  Nb  Nb1177  1  0.96925850  0.60518367  0.28952479  1.0
  Nb  Nb1178  1  0.96925850  0.93851700  0.28952479  1.0
  Nb  Nb1179  1  0.13592517  0.27185033  0.36095336  1.0
  Nb  Nb1180  1  0.13592517  0.60518367  0.36095336  1.0
  Nb  Nb1181  1  0.13592517  0.93851700  0.36095336  1.0
  Nb  Nb1182  1  0.46925850  0.27185033  0.36095336  1.0
  Nb  Nb1183  1  0.46925850  0.60518367  0.36095336  1.0
  Nb  Nb1184  1  0.46925850  0.93851700  0.36095336  1.0
  Nb  Nb1185  1  0.80259183  0.27185033  0.36095336  1.0
  Nb  Nb1186  1  0.80259183  0.60518367  0.36095336  1.0
  Nb  Nb1187  1  0.80259183  0.93851700  0.36095336  1.0
  Nb  Nb1188  1  0.19740817  0.06148300  0.42476093  1.0
  Nb  Nb1189  1  0.19740817  0.39481633  0.42476093  1.0
  Nb  Nb1190  1  0.19740817  0.72814967  0.42476093  1.0
  Nb  Nb1191  1  0.53074150  0.06148300  0.42476093  1.0
  Nb  Nb1192  1  0.53074150  0.39481633  0.42476093  1.0
  Nb  Nb1193  1  0.53074150  0.72814967  0.42476093  1.0
  Nb  Nb1194  1  0.86407483  0.06148300  0.42476093  1.0
  Nb  Nb1195  1  0.86407483  0.39481633  0.42476093  1.0
  Nb  Nb1196  1  0.86407483  0.72814967  0.42476093  1.0
  Nb  Nb1197  1  0.03074150  0.06148300  0.35333236  1.0
  Nb  Nb1198  1  0.03074150  0.39481633  0.35333236  1.0
  Nb  Nb1199  1  0.03074150  0.72814967  0.35333236  1.0
  Nb  Nb1200  1  0.36407483  0.06148300  0.35333236  1.0
  Nb  Nb1201  1  0.36407483  0.39481633  0.35333236  1.0
  Nb  Nb1202  1  0.36407483  0.72814967  0.35333236  1.0
  Nb  Nb1203  1  0.69740817  0.06148300  0.35333236  1.0
  Nb  Nb1204  1  0.69740817  0.39481633  0.35333236  1.0
  Nb  Nb1205  1  0.69740817  0.72814967  0.35333236  1.0
  Nb  Nb1206  1  0.19740817  0.27185033  0.38730321  1.0
  Nb  Nb1207  1  0.19740817  0.60518367  0.38730321  1.0
  Nb  Nb1208  1  0.19740817  0.93851700  0.38730321  1.0
  Nb  Nb1209  1  0.53074150  0.27185033  0.38730321  1.0
  Nb  Nb1210  1  0.53074150  0.60518367  0.38730321  1.0
  Nb  Nb1211  1  0.53074150  0.93851700  0.38730321  1.0
  Nb  Nb1212  1  0.86407483  0.27185033  0.38730321  1.0
  Nb  Nb1213  1  0.86407483  0.60518367  0.38730321  1.0
  Nb  Nb1214  1  0.86407483  0.93851700  0.38730321  1.0
  Nb  Nb1215  1  0.03074150  0.27185033  0.31587464  1.0
  Nb  Nb1216  1  0.03074150  0.60518367  0.31587464  1.0
  Nb  Nb1217  1  0.03074150  0.93851700  0.31587464  1.0
  Nb  Nb1218  1  0.36407483  0.27185033  0.31587464  1.0
  Nb  Nb1219  1  0.36407483  0.60518367  0.31587464  1.0
  Nb  Nb1220  1  0.36407483  0.93851700  0.31587464  1.0
  Nb  Nb1221  1  0.69740817  0.27185033  0.31587464  1.0
  Nb  Nb1222  1  0.69740817  0.60518367  0.31587464  1.0
  Nb  Nb1223  1  0.69740817  0.93851700  0.31587464  1.0
  Ni  Ni1224  1  0.27083333  0.29166667  0.37456414  1.0
  Ni  Ni1225  1  0.27083333  0.62500000  0.37456414  1.0
  Ni  Ni1226  1  0.27083333  0.95833333  0.37456414  1.0
  Ni  Ni1227  1  0.60416667  0.29166667  0.37456414  1.0
  Ni  Ni1228  1  0.60416667  0.62500000  0.37456414  1.0
  Ni  Ni1229  1  0.60416667  0.95833333  0.37456414  1.0
  Ni  Ni1230  1  0.93750000  0.29166667  0.37456414  1.0
  Ni  Ni1231  1  0.93750000  0.62500000  0.37456414  1.0
  Ni  Ni1232  1  0.93750000  0.95833333  0.37456414  1.0
  Ni  Ni1233  1  0.10416667  0.29166667  0.30313557  1.0
  Ni  Ni1234  1  0.10416667  0.62500000  0.30313557  1.0
  Ni  Ni1235  1  0.10416667  0.95833333  0.30313557  1.0
  Ni  Ni1236  1  0.43750000  0.29166667  0.30313557  1.0
  Ni  Ni1237  1  0.43750000  0.62500000  0.30313557  1.0
  Ni  Ni1238  1  0.43750000  0.95833333  0.30313557  1.0
  Ni  Ni1239  1  0.77083333  0.29166667  0.30313557  1.0
  Ni  Ni1240  1  0.77083333  0.62500000  0.30313557  1.0
  Ni  Ni1241  1  0.77083333  0.95833333  0.30313557  1.0
  Ni  Ni1242  1  0.18750000  0.12500000  0.33884986  1.0
  Ni  Ni1243  1  0.18750000  0.45833333  0.33884986  1.0
  Ni  Ni1244  1  0.18750000  0.79166667  0.33884986  1.0
  Ni  Ni1245  1  0.52083333  0.12500000  0.33884986  1.0
  Ni  Ni1246  1  0.52083333  0.45833333  0.33884986  1.0
  Ni  Ni1247  1  0.52083333  0.79166667  0.33884986  1.0
  Ni  Ni1248  1  0.85416667  0.12500000  0.33884986  1.0
  Ni  Ni1249  1  0.85416667  0.45833333  0.33884986  1.0
  Ni  Ni1250  1  0.85416667  0.79166667  0.33884986  1.0
  Ni  Ni1251  1  0.02083333  0.12500000  0.41027843  1.0
  Ni  Ni1252  1  0.02083333  0.45833333  0.41027843  1.0
  Ni  Ni1253  1  0.02083333  0.79166667  0.41027843  1.0
  Ni  Ni1254  1  0.35416667  0.12500000  0.41027843  1.0
  Ni  Ni1255  1  0.35416667  0.45833333  0.41027843  1.0
  Ni  Ni1256  1  0.35416667  0.79166667  0.41027843  1.0
  Ni  Ni1257  1  0.68750000  0.12500000  0.41027843  1.0
  Ni  Ni1258  1  0.68750000  0.45833333  0.41027843  1.0
  Ni  Ni1259  1  0.68750000  0.79166667  0.41027843  1.0
  Ni  Ni1260  1  0.27083333  0.12500000  0.30313557  1.0
  Ni  Ni1261  1  0.27083333  0.45833333  0.30313557  1.0
  Ni  Ni1262  1  0.27083333  0.79166667  0.30313557  1.0
  Ni  Ni1263  1  0.60416667  0.12500000  0.30313557  1.0
  Ni  Ni1264  1  0.60416667  0.45833333  0.30313557  1.0
  Ni  Ni1265  1  0.60416667  0.79166667  0.30313557  1.0
  Ni  Ni1266  1  0.93750000  0.12500000  0.30313557  1.0
  Ni  Ni1267  1  0.93750000  0.45833333  0.30313557  1.0
  Ni  Ni1268  1  0.93750000  0.79166667  0.30313557  1.0
  Ni  Ni1269  1  0.10416667  0.12500000  0.37456414  1.0
  Ni  Ni1270  1  0.10416667  0.45833333  0.37456414  1.0
  Ni  Ni1271  1  0.10416667  0.79166667  0.37456414  1.0
  Ni  Ni1272  1  0.43750000  0.12500000  0.37456414  1.0
  Ni  Ni1273  1  0.43750000  0.45833333  0.37456414  1.0
  Ni  Ni1274  1  0.43750000  0.79166667  0.37456414  1.0
  Ni  Ni1275  1  0.77083333  0.12500000  0.37456414  1.0
  Ni  Ni1276  1  0.77083333  0.45833333  0.37456414  1.0
  Ni  Ni1277  1  0.77083333  0.79166667  0.37456414  1.0
  Ni  Ni1278  1  0.27083333  0.12500000  0.37456414  1.0
  Ni  Ni1279  1  0.27083333  0.45833333  0.37456414  1.0
  Ni  Ni1280  1  0.27083333  0.79166667  0.37456414  1.0
  Ni  Ni1281  1  0.60416667  0.12500000  0.37456414  1.0
  Ni  Ni1282  1  0.60416667  0.45833333  0.37456414  1.0
  Ni  Ni1283  1  0.60416667  0.79166667  0.37456414  1.0
  Ni  Ni1284  1  0.93750000  0.12500000  0.37456414  1.0
  Ni  Ni1285  1  0.93750000  0.45833333  0.37456414  1.0
  Ni  Ni1286  1  0.93750000  0.79166667  0.37456414  1.0
  Ni  Ni1287  1  0.10416667  0.12500000  0.30313557  1.0
  Ni  Ni1288  1  0.10416667  0.45833333  0.30313557  1.0
  Ni  Ni1289  1  0.10416667  0.79166667  0.30313557  1.0
  Ni  Ni1290  1  0.43750000  0.12500000  0.30313557  1.0
  Ni  Ni1291  1  0.43750000  0.45833333  0.30313557  1.0
  Ni  Ni1292  1  0.43750000  0.79166667  0.30313557  1.0
  Ni  Ni1293  1  0.77083333  0.12500000  0.30313557  1.0
  Ni  Ni1294  1  0.77083333  0.45833333  0.30313557  1.0
  Ni  Ni1295  1  0.77083333  0.79166667  0.30313557  1.0
