# generated using pymatgen
data_Nb5Ni
_symmetry_space_group_name_H-M   'P 1'
_cell_length_a   25.30748322
_cell_length_b   35.79018600
_cell_length_c   33.74331096
_cell_angle_alpha   90.00000000
_cell_angle_beta   90.00000000
_cell_angle_gamma   90.00000000
_symmetry_Int_Tables_number   1
_chemical_formula_structural   Nb5Ni
_chemical_formula_sum   'Nb720 Ni144'
_cell_volume   30563.32553033
_cell_formula_units_Z   144
loop_
 _symmetry_equiv_pos_site_id
 _symmetry_equiv_pos_as_xyz
  1  'x, y, z'
loop_
 _atom_site_type_symbol
 _atom_site_label
 _atom_site_symmetry_multiplicity
 _atom_site_fract_x
 _atom_site_fract_y
 _atom_site_fract_z
 _atom_site_occupancy
  Nb  Nb0  1  0.05963222  0.22018389  0.89805613  1.0
  Nb  Nb1  1  0.05963222  0.55351722  0.89805613  1.0
  Nb  Nb2  1  0.05963222  0.88685055  0.89805613  1.0
  Nb  Nb3  1  0.39296555  0.22018389  0.89805613  1.0
  Nb  Nb4  1  0.39296555  0.55351722  0.89805613  1.0
  Nb  Nb5  1  0.39296555  0.88685055  0.89805613  1.0
  Nb  Nb6  1  0.72629889  0.22018389  0.89805613  1.0
  Nb  Nb7  1  0.72629889  0.55351722  0.89805613  1.0
  Nb  Nb8  1  0.72629889  0.88685055  0.89805613  1.0
  Nb  Nb9  1  0.22629889  0.05351722  0.77305613  1.0
  Nb  Nb10  1  0.22629889  0.38685055  0.77305613  1.0
  Nb  Nb11  1  0.22629889  0.72018389  0.77305613  1.0
  Nb  Nb12  1  0.55963222  0.05351722  0.77305613  1.0
  Nb  Nb13  1  0.55963222  0.38685055  0.77305613  1.0
  Nb  Nb14  1  0.55963222  0.72018389  0.77305613  1.0
  Nb  Nb15  1  0.89296555  0.05351722  0.77305613  1.0
  Nb  Nb16  1  0.89296555  0.38685055  0.77305613  1.0
  Nb  Nb17  1  0.89296555  0.72018389  0.77305613  1.0
  Nb  Nb18  1  0.22814967  0.16666667  0.94416837  1.0
  Nb  Nb19  1  0.22814967  0.50000000  0.94416837  1.0
  Nb  Nb20  1  0.22814967  0.83333333  0.94416837  1.0
  Nb  Nb21  1  0.56148300  0.16666667  0.94416837  1.0
  Nb  Nb22  1  0.56148300  0.50000000  0.94416838  1.0
  Nb  Nb23  1  0.56148300  0.83333333  0.94416837  1.0
  Nb  Nb24  1  0.89481633  0.16666667  0.94416837  1.0
  Nb  Nb25  1  0.89481633  0.50000000  0.94416837  1.0
  Nb  Nb26  1  0.89481633  0.83333333  0.94416837  1.0
  Nb  Nb27  1  0.06148300  0.33333333  0.81916837  1.0
  Nb  Nb28  1  0.06148300  0.66666667  0.81916837  1.0
  Nb  Nb29  1  0.06148300  0.00000000  0.81916837  1.0
  Nb  Nb30  1  0.39481633  0.33333333  0.81916837  1.0
  Nb  Nb31  1  0.39481633  0.66666667  0.81916837  1.0
  Nb  Nb32  1  0.39481633  0.00000000  0.81916837  1.0
  Nb  Nb33  1  0.72814967  0.33333333  0.81916837  1.0
  Nb  Nb34  1  0.72814967  0.66666667  0.81916837  1.0
  Nb  Nb35  1  0.72814967  0.00000000  0.81916837  1.0
  Nb  Nb36  1  0.27370111  0.22018389  0.89805613  1.0
  Nb  Nb37  1  0.27370111  0.55351722  0.89805613  1.0
  Nb  Nb38  1  0.27370111  0.88685055  0.89805613  1.0
  Nb  Nb39  1  0.60703444  0.22018389  0.89805613  1.0
  Nb  Nb40  1  0.60703444  0.55351722  0.89805613  1.0
  Nb  Nb41  1  0.60703444  0.88685055  0.89805613  1.0
  Nb  Nb42  1  0.94036778  0.22018389  0.89805613  1.0
  Nb  Nb43  1  0.94036778  0.55351722  0.89805613  1.0
  Nb  Nb44  1  0.94036778  0.88685055  0.89805613  1.0
  Nb  Nb45  1  0.10703445  0.05351722  0.77305613  1.0
  Nb  Nb46  1  0.10703445  0.38685055  0.77305613  1.0
  Nb  Nb47  1  0.10703445  0.72018389  0.77305613  1.0
  Nb  Nb48  1  0.44036778  0.05351722  0.77305613  1.0
  Nb  Nb49  1  0.44036778  0.38685055  0.77305613  1.0
  Nb  Nb50  1  0.44036778  0.72018389  0.77305613  1.0
  Nb  Nb51  1  0.77370111  0.05351722  0.77305613  1.0
  Nb  Nb52  1  0.77370111  0.38685055  0.77305613  1.0
  Nb  Nb53  1  0.77370111  0.72018389  0.77305613  1.0
  Nb  Nb54  1  0.27185033  0.08333333  0.85194388  1.0
  Nb  Nb55  1  0.27185033  0.41666667  0.85194388  1.0
  Nb  Nb56  1  0.27185033  0.75000000  0.85194388  1.0
  Nb  Nb57  1  0.60518367  0.08333333  0.85194388  1.0
  Nb  Nb58  1  0.60518367  0.41666667  0.85194388  1.0
  Nb  Nb59  1  0.60518367  0.75000000  0.85194388  1.0
  Nb  Nb60  1  0.93851700  0.08333333  0.85194388  1.0
  Nb  Nb61  1  0.93851700  0.41666667  0.85194388  1.0
  Nb  Nb62  1  0.93851700  0.75000000  0.85194388  1.0
  Nb  Nb63  1  0.10518367  0.25000000  0.97694388  1.0
  Nb  Nb64  1  0.10518367  0.58333333  0.97694388  1.0
  Nb  Nb65  1  0.10518367  0.91666667  0.97694387  1.0
  Nb  Nb66  1  0.43851700  0.25000000  0.97694388  1.0
  Nb  Nb67  1  0.43851700  0.58333333  0.97694388  1.0
  Nb  Nb68  1  0.43851700  0.91666667  0.97694388  1.0
  Nb  Nb69  1  0.77185033  0.25000000  0.97694388  1.0
  Nb  Nb70  1  0.77185033  0.58333333  0.97694388  1.0
  Nb  Nb71  1  0.77185033  0.91666667  0.97694388  1.0
  Nb  Nb72  1  0.27370111  0.19648278  0.77305612  1.0
  Nb  Nb73  1  0.27370111  0.52981611  0.77305612  1.0
  Nb  Nb74  1  0.27370111  0.86314944  0.77305612  1.0
  Nb  Nb75  1  0.60703445  0.19648278  0.77305612  1.0
  Nb  Nb76  1  0.60703444  0.52981611  0.77305612  1.0
  Nb  Nb77  1  0.60703444  0.86314944  0.77305612  1.0
  Nb  Nb78  1  0.94036778  0.19648278  0.77305612  1.0
  Nb  Nb79  1  0.94036778  0.52981611  0.77305612  1.0
  Nb  Nb80  1  0.94036778  0.86314944  0.77305612  1.0
  Nb  Nb81  1  0.10703445  0.02981611  0.89805612  1.0
  Nb  Nb82  1  0.10703445  0.36314944  0.89805612  1.0
  Nb  Nb83  1  0.10703445  0.69648278  0.89805612  1.0
  Nb  Nb84  1  0.44036778  0.02981611  0.89805612  1.0
  Nb  Nb85  1  0.44036778  0.36314944  0.89805612  1.0
  Nb  Nb86  1  0.44036778  0.69648278  0.89805612  1.0
  Nb  Nb87  1  0.77370111  0.02981611  0.89805612  1.0
  Nb  Nb88  1  0.77370111  0.36314944  0.89805612  1.0
  Nb  Nb89  1  0.77370111  0.69648278  0.89805612  1.0
  Nb  Nb90  1  0.27185033  0.08333333  0.94416837  1.0
  Nb  Nb91  1  0.27185033  0.41666667  0.94416837  1.0
  Nb  Nb92  1  0.27185033  0.75000000  0.94416837  1.0
  Nb  Nb93  1  0.60518367  0.08333333  0.94416837  1.0
  Nb  Nb94  1  0.60518367  0.41666667  0.94416837  1.0
  Nb  Nb95  1  0.60518367  0.75000000  0.94416837  1.0
  Nb  Nb96  1  0.93851700  0.08333333  0.94416837  1.0
  Nb  Nb97  1  0.93851700  0.41666667  0.94416837  1.0
  Nb  Nb98  1  0.93851700  0.75000000  0.94416837  1.0
  Nb  Nb99  1  0.10518367  0.25000000  0.81916837  1.0
  Nb  Nb100  1  0.10518367  0.58333333  0.81916837  1.0
  Nb  Nb101  1  0.10518367  0.91666667  0.81916837  1.0
  Nb  Nb102  1  0.43851700  0.25000000  0.81916837  1.0
  Nb  Nb103  1  0.43851700  0.58333333  0.81916838  1.0
  Nb  Nb104  1  0.43851700  0.91666667  0.81916837  1.0
  Nb  Nb105  1  0.77185033  0.25000000  0.81916837  1.0
  Nb  Nb106  1  0.77185033  0.58333333  0.81916838  1.0
  Nb  Nb107  1  0.77185033  0.91666667  0.81916837  1.0
  Nb  Nb108  1  0.06148300  0.08333333  0.85194388  1.0
  Nb  Nb109  1  0.06148300  0.41666667  0.85194388  1.0
  Nb  Nb110  1  0.06148300  0.75000000  0.85194388  1.0
  Nb  Nb111  1  0.39481633  0.08333333  0.85194388  1.0
  Nb  Nb112  1  0.39481633  0.41666667  0.85194388  1.0
  Nb  Nb113  1  0.39481633  0.75000000  0.85194388  1.0
  Nb  Nb114  1  0.72814967  0.08333333  0.85194388  1.0
  Nb  Nb115  1  0.72814967  0.41666667  0.85194388  1.0
  Nb  Nb116  1  0.72814967  0.75000000  0.85194388  1.0
  Nb  Nb117  1  0.22814967  0.25000000  0.97694388  1.0
  Nb  Nb118  1  0.22814967  0.58333333  0.97694388  1.0
  Nb  Nb119  1  0.22814967  0.91666667  0.97694387  1.0
  Nb  Nb120  1  0.56148300  0.25000000  0.97694388  1.0
  Nb  Nb121  1  0.56148300  0.58333333  0.97694388  1.0
  Nb  Nb122  1  0.56148300  0.91666667  0.97694388  1.0
  Nb  Nb123  1  0.89481633  0.25000000  0.97694388  1.0
  Nb  Nb124  1  0.89481633  0.58333333  0.97694388  1.0
  Nb  Nb125  1  0.89481633  0.91666667  0.97694388  1.0
  Nb  Nb126  1  0.05963222  0.19648278  0.77305612  1.0
  Nb  Nb127  1  0.05963222  0.52981611  0.77305612  1.0
  Nb  Nb128  1  0.05963222  0.86314945  0.77305612  1.0
  Nb  Nb129  1  0.39296555  0.19648278  0.77305612  1.0
  Nb  Nb130  1  0.39296555  0.52981611  0.77305612  1.0
  Nb  Nb131  1  0.39296555  0.86314945  0.77305612  1.0
  Nb  Nb132  1  0.72629889  0.19648278  0.77305612  1.0
  Nb  Nb133  1  0.72629889  0.52981611  0.77305612  1.0
  Nb  Nb134  1  0.72629889  0.86314945  0.77305612  1.0
  Nb  Nb135  1  0.22629889  0.02981611  0.89805612  1.0
  Nb  Nb136  1  0.22629889  0.36314945  0.89805612  1.0
  Nb  Nb137  1  0.22629889  0.69648278  0.89805612  1.0
  Nb  Nb138  1  0.55963222  0.02981611  0.89805612  1.0
  Nb  Nb139  1  0.55963222  0.36314945  0.89805612  1.0
  Nb  Nb140  1  0.55963222  0.69648278  0.89805612  1.0
  Nb  Nb141  1  0.89296555  0.02981611  0.89805612  1.0
  Nb  Nb142  1  0.89296555  0.36314945  0.89805612  1.0
  Nb  Nb143  1  0.89296555  0.69648278  0.89805612  1.0
  Nb  Nb144  1  0.33333333  0.27981611  0.94278029  1.0
  Nb  Nb145  1  0.33333333  0.61314944  0.94278029  1.0
  Nb  Nb146  1  0.33333333  0.94648278  0.94278029  1.0
  Nb  Nb147  1  0.66666667  0.27981611  0.94278029  1.0
  Nb  Nb148  1  0.66666667  0.61314944  0.94278029  1.0
  Nb  Nb149  1  0.66666667  0.94648278  0.94278029  1.0
  Nb  Nb150  1  1.00000000  0.27981611  0.94278029  1.0
  Nb  Nb151  1  1.00000000  0.61314944  0.94278029  1.0
  Nb  Nb152  1  1.00000000  0.94648278  0.94278029  1.0
  Nb  Nb153  1  0.16666667  0.11314944  0.81778029  1.0
  Nb  Nb154  1  0.16666667  0.44648278  0.81778029  1.0
  Nb  Nb155  1  0.16666667  0.77981611  0.81778029  1.0
  Nb  Nb156  1  0.50000000  0.11314944  0.81778029  1.0
  Nb  Nb157  1  0.50000000  0.44648278  0.81778029  1.0
  Nb  Nb158  1  0.50000000  0.77981611  0.81778029  1.0
  Nb  Nb159  1  0.83333333  0.11314944  0.81778029  1.0
  Nb  Nb160  1  0.83333333  0.44648278  0.81778029  1.0
  Nb  Nb161  1  0.83333333  0.77981611  0.81778029  1.0
  Nb  Nb162  1  0.33333333  0.13685056  0.81778029  1.0
  Nb  Nb163  1  0.33333333  0.47018389  0.81778029  1.0
  Nb  Nb164  1  0.33333333  0.80351722  0.81778029  1.0
  Nb  Nb165  1  0.66666667  0.13685056  0.81778029  1.0
  Nb  Nb166  1  0.66666667  0.47018389  0.81778029  1.0
  Nb  Nb167  1  0.66666667  0.80351722  0.81778029  1.0
  Nb  Nb168  1  1.00000000  0.13685056  0.81778029  1.0
  Nb  Nb169  1  1.00000000  0.47018389  0.81778029  1.0
  Nb  Nb170  1  1.00000000  0.80351722  0.81778029  1.0
  Nb  Nb171  1  0.16666667  0.30351722  0.94278029  1.0
  Nb  Nb172  1  0.16666667  0.63685056  0.94278029  1.0
  Nb  Nb173  1  0.16666667  0.97018389  0.94278029  1.0
  Nb  Nb174  1  0.50000000  0.30351722  0.94278029  1.0
  Nb  Nb175  1  0.50000000  0.63685056  0.94278029  1.0
  Nb  Nb176  1  0.50000000  0.97018389  0.94278029  1.0
  Nb  Nb177  1  0.83333333  0.30351722  0.94278029  1.0
  Nb  Nb178  1  0.83333333  0.63685056  0.94278029  1.0
  Nb  Nb179  1  0.83333333  0.97018389  0.94278029  1.0
  Nb  Nb180  1  0.00000000  0.02185033  0.89805612  1.0
  Nb  Nb181  1  0.00000000  0.35518367  0.89805612  1.0
  Nb  Nb182  1  0.00000000  0.68851700  0.89805612  1.0
  Nb  Nb183  1  0.33333333  0.02185033  0.89805612  1.0
  Nb  Nb184  1  0.33333333  0.35518367  0.89805612  1.0
  Nb  Nb185  1  0.33333333  0.68851700  0.89805612  1.0
  Nb  Nb186  1  0.66666667  0.02185033  0.89805612  1.0
  Nb  Nb187  1  0.66666667  0.35518367  0.89805612  1.0
  Nb  Nb188  1  0.66666667  0.68851700  0.89805612  1.0
  Nb  Nb189  1  0.16666667  0.18851700  0.77305612  1.0
  Nb  Nb190  1  0.16666667  0.52185033  0.77305612  1.0
  Nb  Nb191  1  0.16666667  0.85518367  0.77305612  1.0
  Nb  Nb192  1  0.50000000  0.18851700  0.77305612  1.0
  Nb  Nb193  1  0.50000000  0.52185033  0.77305613  1.0
  Nb  Nb194  1  0.50000000  0.85518367  0.77305612  1.0
  Nb  Nb195  1  0.83333333  0.18851700  0.77305612  1.0
  Nb  Nb196  1  0.83333333  0.52185033  0.77305612  1.0
  Nb  Nb197  1  0.83333333  0.85518367  0.77305612  1.0
  Nb  Nb198  1  0.00000000  0.14481633  0.89805612  1.0
  Nb  Nb199  1  0.00000000  0.47814967  0.89805612  1.0
  Nb  Nb200  1  0.00000000  0.81148300  0.89805612  1.0
  Nb  Nb201  1  0.33333333  0.14481633  0.89805612  1.0
  Nb  Nb202  1  0.33333333  0.47814967  0.89805613  1.0
  Nb  Nb203  1  0.33333333  0.81148300  0.89805612  1.0
  Nb  Nb204  1  0.66666667  0.14481633  0.89805612  1.0
  Nb  Nb205  1  0.66666667  0.47814967  0.89805612  1.0
  Nb  Nb206  1  0.66666667  0.81148300  0.89805612  1.0
  Nb  Nb207  1  0.16666667  0.31148300  0.77305612  1.0
  Nb  Nb208  1  0.16666667  0.64481633  0.77305612  1.0
  Nb  Nb209  1  0.16666667  0.97814967  0.77305612  1.0
  Nb  Nb210  1  0.50000000  0.31148300  0.77305612  1.0
  Nb  Nb211  1  0.50000000  0.64481633  0.77305613  1.0
  Nb  Nb212  1  0.50000000  0.97814967  0.77305612  1.0
  Nb  Nb213  1  0.83333333  0.31148300  0.77305612  1.0
  Nb  Nb214  1  0.83333333  0.64481633  0.77305613  1.0
  Nb  Nb215  1  0.83333333  0.97814967  0.77305612  1.0
  Nb  Nb216  1  0.00000000  0.27185033  0.77305612  1.0
  Nb  Nb217  1  0.00000000  0.60518367  0.77305612  1.0
  Nb  Nb218  1  0.00000000  0.93851700  0.77305612  1.0
  Nb  Nb219  1  0.33333333  0.27185033  0.77305612  1.0
  Nb  Nb220  1  0.33333333  0.60518367  0.77305613  1.0
  Nb  Nb221  1  0.33333333  0.93851700  0.77305612  1.0
  Nb  Nb222  1  0.66666667  0.27185033  0.77305612  1.0
  Nb  Nb223  1  0.66666667  0.60518367  0.77305613  1.0
  Nb  Nb224  1  0.66666667  0.93851700  0.77305612  1.0
  Nb  Nb225  1  0.16666667  0.10518367  0.89805612  1.0
  Nb  Nb226  1  0.16666667  0.43851700  0.89805612  1.0
  Nb  Nb227  1  0.16666667  0.77185033  0.89805612  1.0
  Nb  Nb228  1  0.50000000  0.10518367  0.89805612  1.0
  Nb  Nb229  1  0.50000000  0.43851700  0.89805612  1.0
  Nb  Nb230  1  0.50000000  0.77185033  0.89805612  1.0
  Nb  Nb231  1  0.83333333  0.10518367  0.89805612  1.0
  Nb  Nb232  1  0.83333333  0.43851700  0.89805612  1.0
  Nb  Nb233  1  0.83333333  0.77185033  0.89805612  1.0
  Nb  Nb234  1  0.10518367  0.16666667  0.94416837  1.0
  Nb  Nb235  1  0.10518367  0.50000000  0.94416837  1.0
  Nb  Nb236  1  0.10518367  0.83333333  0.94416837  1.0
  Nb  Nb237  1  0.43851700  0.16666667  0.94416837  1.0
  Nb  Nb238  1  0.43851700  0.50000000  0.94416838  1.0
  Nb  Nb239  1  0.43851700  0.83333333  0.94416837  1.0
  Nb  Nb240  1  0.77185033  0.16666667  0.94416837  1.0
  Nb  Nb241  1  0.77185033  0.50000000  0.94416837  1.0
  Nb  Nb242  1  0.77185033  0.83333333  0.94416837  1.0
  Nb  Nb243  1  0.27185033  0.33333333  0.81916837  1.0
  Nb  Nb244  1  0.27185033  0.66666667  0.81916837  1.0
  Nb  Nb245  1  0.27185033  1.00000000  0.81916837  1.0
  Nb  Nb246  1  0.60518367  0.33333333  0.81916837  1.0
  Nb  Nb247  1  0.60518367  0.66666667  0.81916838  1.0
  Nb  Nb248  1  0.60518367  1.00000000  0.81916837  1.0
  Nb  Nb249  1  0.93851700  0.33333333  0.81916837  1.0
  Nb  Nb250  1  0.93851700  0.66666667  0.81916838  1.0
  Nb  Nb251  1  0.93851700  1.00000000  0.81916837  1.0
  Nb  Nb252  1  0.06148300  0.08333333  0.94416837  1.0
  Nb  Nb253  1  0.06148300  0.41666667  0.94416837  1.0
  Nb  Nb254  1  0.06148300  0.75000000  0.94416837  1.0
  Nb  Nb255  1  0.39481633  0.08333333  0.94416837  1.0
  Nb  Nb256  1  0.39481633  0.41666667  0.94416837  1.0
  Nb  Nb257  1  0.39481633  0.75000000  0.94416837  1.0
  Nb  Nb258  1  0.72814967  0.08333333  0.94416837  1.0
  Nb  Nb259  1  0.72814967  0.41666667  0.94416837  1.0
  Nb  Nb260  1  0.72814967  0.75000000  0.94416837  1.0
  Nb  Nb261  1  0.22814967  0.25000000  0.81916837  1.0
  Nb  Nb262  1  0.22814967  0.58333333  0.81916837  1.0
  Nb  Nb263  1  0.22814967  0.91666667  0.81916837  1.0
  Nb  Nb264  1  0.56148300  0.25000000  0.81916837  1.0
  Nb  Nb265  1  0.56148300  0.58333333  0.81916838  1.0
  Nb  Nb266  1  0.56148300  0.91666667  0.81916837  1.0
  Nb  Nb267  1  0.89481633  0.25000000  0.81916837  1.0
  Nb  Nb268  1  0.89481633  0.58333333  0.81916838  1.0
  Nb  Nb269  1  0.89481633  0.91666667  0.81916837  1.0
  Nb  Nb270  1  0.33333333  0.13685056  0.97833196  1.0
  Nb  Nb271  1  0.33333333  0.47018389  0.97833196  1.0
  Nb  Nb272  1  0.33333333  0.80351722  0.97833196  1.0
  Nb  Nb273  1  0.66666667  0.13685056  0.97833196  1.0
  Nb  Nb274  1  0.66666667  0.47018389  0.97833196  1.0
  Nb  Nb275  1  0.66666667  0.80351722  0.97833196  1.0
  Nb  Nb276  1  1.00000000  0.13685056  0.97833196  1.0
  Nb  Nb277  1  1.00000000  0.47018389  0.97833196  1.0
  Nb  Nb278  1  1.00000000  0.80351722  0.97833196  1.0
  Nb  Nb279  1  0.16666667  0.30351722  0.85333196  1.0
  Nb  Nb280  1  0.16666667  0.63685056  0.85333196  1.0
  Nb  Nb281  1  0.16666667  0.97018389  0.85333196  1.0
  Nb  Nb282  1  0.50000000  0.30351722  0.85333196  1.0
  Nb  Nb283  1  0.50000000  0.63685056  0.85333196  1.0
  Nb  Nb284  1  0.50000000  0.97018389  0.85333196  1.0
  Nb  Nb285  1  0.83333333  0.30351722  0.85333196  1.0
  Nb  Nb286  1  0.83333333  0.63685056  0.85333196  1.0
  Nb  Nb287  1  0.83333333  0.97018389  0.85333196  1.0
  Nb  Nb288  1  0.33333333  0.27981611  0.85333196  1.0
  Nb  Nb289  1  0.33333333  0.61314944  0.85333196  1.0
  Nb  Nb290  1  0.33333333  0.94648278  0.85333196  1.0
  Nb  Nb291  1  0.66666667  0.27981611  0.85333196  1.0
  Nb  Nb292  1  0.66666667  0.61314944  0.85333196  1.0
  Nb  Nb293  1  0.66666667  0.94648278  0.85333196  1.0
  Nb  Nb294  1  1.00000000  0.27981611  0.85333196  1.0
  Nb  Nb295  1  1.00000000  0.61314944  0.85333196  1.0
  Nb  Nb296  1  1.00000000  0.94648278  0.85333196  1.0
  Nb  Nb297  1  0.16666667  0.11314944  0.97833196  1.0
  Nb  Nb298  1  0.16666667  0.44648278  0.97833196  1.0
  Nb  Nb299  1  0.16666667  0.77981611  0.97833196  1.0
  Nb  Nb300  1  0.50000000  0.11314944  0.97833196  1.0
  Nb  Nb301  1  0.50000000  0.44648278  0.97833196  1.0
  Nb  Nb302  1  0.50000000  0.77981611  0.97833196  1.0
  Nb  Nb303  1  0.83333333  0.11314944  0.97833196  1.0
  Nb  Nb304  1  0.83333333  0.44648278  0.97833196  1.0
  Nb  Nb305  1  0.83333333  0.77981611  0.97833196  1.0
  Nb  Nb306  1  0.22814967  0.16666667  0.85194388  1.0
  Nb  Nb307  1  0.22814967  0.50000000  0.85194388  1.0
  Nb  Nb308  1  0.22814967  0.83333333  0.85194388  1.0
  Nb  Nb309  1  0.56148300  0.16666667  0.85194388  1.0
  Nb  Nb310  1  0.56148300  0.50000000  0.85194388  1.0
  Nb  Nb311  1  0.56148300  0.83333333  0.85194388  1.0
  Nb  Nb312  1  0.89481633  0.16666667  0.85194388  1.0
  Nb  Nb313  1  0.89481633  0.50000000  0.85194388  1.0
  Nb  Nb314  1  0.89481633  0.83333333  0.85194388  1.0
  Nb  Nb315  1  0.06148300  0.33333333  0.97694388  1.0
  Nb  Nb316  1  0.06148300  0.66666667  0.97694388  1.0
  Nb  Nb317  1  0.06148300  1.00000000  0.97694388  1.0
  Nb  Nb318  1  0.39481633  0.33333333  0.97694388  1.0
  Nb  Nb319  1  0.39481633  0.66666667  0.97694388  1.0
  Nb  Nb320  1  0.39481633  1.00000000  0.97694388  1.0
  Nb  Nb321  1  0.72814967  0.33333333  0.97694388  1.0
  Nb  Nb322  1  0.72814967  0.66666667  0.97694388  1.0
  Nb  Nb323  1  0.72814967  1.00000000  0.97694388  1.0
  Nb  Nb324  1  0.10518367  0.16666667  0.85194387  1.0
  Nb  Nb325  1  0.10518367  0.50000000  0.85194387  1.0
  Nb  Nb326  1  0.10518367  0.83333333  0.85194387  1.0
  Nb  Nb327  1  0.43851700  0.16666667  0.85194387  1.0
  Nb  Nb328  1  0.43851700  0.50000000  0.85194388  1.0
  Nb  Nb329  1  0.43851700  0.83333333  0.85194387  1.0
  Nb  Nb330  1  0.77185033  0.16666667  0.85194387  1.0
  Nb  Nb331  1  0.77185033  0.50000000  0.85194387  1.0
  Nb  Nb332  1  0.77185033  0.83333333  0.85194387  1.0
  Nb  Nb333  1  0.27185033  0.00000000  0.97694388  1.0
  Nb  Nb334  1  0.27185033  0.33333333  0.97694388  1.0
  Nb  Nb335  1  0.27185033  0.66666667  0.97694387  1.0
  Nb  Nb336  1  0.60518367  0.00000000  0.97694388  1.0
  Nb  Nb337  1  0.60518367  0.33333333  0.97694388  1.0
  Nb  Nb338  1  0.60518367  0.66666667  0.97694388  1.0
  Nb  Nb339  1  0.93851700  0.00000000  0.97694388  1.0
  Nb  Nb340  1  0.93851700  0.33333333  0.97694388  1.0
  Nb  Nb341  1  0.93851700  0.66666667  0.97694388  1.0
  Nb  Nb342  1  0.33333333  0.06148300  0.77305612  1.0
  Nb  Nb343  1  0.33333333  0.39481633  0.77305612  1.0
  Nb  Nb344  1  0.33333333  0.72814967  0.77305612  1.0
  Nb  Nb345  1  0.66666667  0.06148300  0.77305612  1.0
  Nb  Nb346  1  0.66666667  0.39481633  0.77305612  1.0
  Nb  Nb347  1  0.66666667  0.72814967  0.77305612  1.0
  Nb  Nb348  1  1.00000000  0.06148300  0.77305612  1.0
  Nb  Nb349  1  1.00000000  0.39481633  0.77305612  1.0
  Nb  Nb350  1  1.00000000  0.72814967  0.77305612  1.0
  Nb  Nb351  1  0.16666667  0.22814967  0.89805612  1.0
  Nb  Nb352  1  0.16666667  0.56148300  0.89805612  1.0
  Nb  Nb353  1  0.16666667  0.89481633  0.89805612  1.0
  Nb  Nb354  1  0.50000000  0.22814967  0.89805612  1.0
  Nb  Nb355  1  0.50000000  0.56148300  0.89805613  1.0
  Nb  Nb356  1  0.50000000  0.89481633  0.89805612  1.0
  Nb  Nb357  1  0.83333333  0.22814967  0.89805612  1.0
  Nb  Nb358  1  0.83333333  0.56148300  0.89805613  1.0
  Nb  Nb359  1  0.83333333  0.89481633  0.89805612  1.0
  Nb  Nb360  1  0.05963222  0.22018389  0.64805613  1.0
  Nb  Nb361  1  0.05963222  0.55351722  0.64805613  1.0
  Nb  Nb362  1  0.05963222  0.88685055  0.64805613  1.0
  Nb  Nb363  1  0.39296555  0.22018389  0.64805613  1.0
  Nb  Nb364  1  0.39296555  0.55351722  0.64805613  1.0
  Nb  Nb365  1  0.39296555  0.88685055  0.64805613  1.0
  Nb  Nb366  1  0.72629889  0.22018389  0.64805613  1.0
  Nb  Nb367  1  0.72629889  0.55351722  0.64805613  1.0
  Nb  Nb368  1  0.72629889  0.88685055  0.64805613  1.0
  Nb  Nb369  1  0.22629889  0.05351722  0.52305613  1.0
  Nb  Nb370  1  0.22629889  0.38685055  0.52305613  1.0
  Nb  Nb371  1  0.22629889  0.72018389  0.52305613  1.0
  Nb  Nb372  1  0.55963222  0.05351722  0.52305613  1.0
  Nb  Nb373  1  0.55963222  0.38685055  0.52305613  1.0
  Nb  Nb374  1  0.55963222  0.72018389  0.52305613  1.0
  Nb  Nb375  1  0.89296555  0.05351722  0.52305613  1.0
  Nb  Nb376  1  0.89296555  0.38685055  0.52305613  1.0
  Nb  Nb377  1  0.89296555  0.72018389  0.52305613  1.0
  Nb  Nb378  1  0.22814967  0.16666667  0.69416837  1.0
  Nb  Nb379  1  0.22814967  0.50000000  0.69416837  1.0
  Nb  Nb380  1  0.22814967  0.83333333  0.69416837  1.0
  Nb  Nb381  1  0.56148300  0.16666667  0.69416837  1.0
  Nb  Nb382  1  0.56148300  0.50000000  0.69416838  1.0
  Nb  Nb383  1  0.56148300  0.83333333  0.69416837  1.0
  Nb  Nb384  1  0.89481633  0.16666667  0.69416837  1.0
  Nb  Nb385  1  0.89481633  0.50000000  0.69416837  1.0
  Nb  Nb386  1  0.89481633  0.83333333  0.69416837  1.0
  Nb  Nb387  1  0.06148300  0.33333333  0.56916837  1.0
  Nb  Nb388  1  0.06148300  0.66666667  0.56916837  1.0
  Nb  Nb389  1  0.06148300  0.00000000  0.56916838  1.0
  Nb  Nb390  1  0.39481633  0.33333333  0.56916837  1.0
  Nb  Nb391  1  0.39481633  0.66666667  0.56916838  1.0
  Nb  Nb392  1  0.39481633  0.00000000  0.56916837  1.0
  Nb  Nb393  1  0.72814967  0.33333333  0.56916837  1.0
  Nb  Nb394  1  0.72814967  0.66666667  0.56916838  1.0
  Nb  Nb395  1  0.72814967  0.00000000  0.56916837  1.0
  Nb  Nb396  1  0.27370111  0.22018389  0.64805613  1.0
  Nb  Nb397  1  0.27370111  0.55351722  0.64805613  1.0
  Nb  Nb398  1  0.27370111  0.88685055  0.64805613  1.0
  Nb  Nb399  1  0.60703445  0.22018389  0.64805613  1.0
  Nb  Nb400  1  0.60703444  0.55351722  0.64805613  1.0
  Nb  Nb401  1  0.60703444  0.88685055  0.64805613  1.0
  Nb  Nb402  1  0.94036778  0.22018389  0.64805613  1.0
  Nb  Nb403  1  0.94036778  0.55351722  0.64805613  1.0
  Nb  Nb404  1  0.94036778  0.88685055  0.64805613  1.0
  Nb  Nb405  1  0.10703445  0.05351722  0.52305613  1.0
  Nb  Nb406  1  0.10703445  0.38685055  0.52305613  1.0
  Nb  Nb407  1  0.10703445  0.72018389  0.52305613  1.0
  Nb  Nb408  1  0.44036778  0.05351722  0.52305613  1.0
  Nb  Nb409  1  0.44036778  0.38685055  0.52305613  1.0
  Nb  Nb410  1  0.44036778  0.72018389  0.52305613  1.0
  Nb  Nb411  1  0.77370111  0.05351722  0.52305613  1.0
  Nb  Nb412  1  0.77370111  0.38685055  0.52305613  1.0
  Nb  Nb413  1  0.77370111  0.72018389  0.52305613  1.0
  Nb  Nb414  1  0.27185033  0.08333333  0.60194388  1.0
  Nb  Nb415  1  0.27185033  0.41666667  0.60194388  1.0
  Nb  Nb416  1  0.27185033  0.75000000  0.60194388  1.0
  Nb  Nb417  1  0.60518367  0.08333333  0.60194388  1.0
  Nb  Nb418  1  0.60518367  0.41666667  0.60194388  1.0
  Nb  Nb419  1  0.60518367  0.75000000  0.60194388  1.0
  Nb  Nb420  1  0.93851700  0.08333333  0.60194388  1.0
  Nb  Nb421  1  0.93851700  0.41666667  0.60194388  1.0
  Nb  Nb422  1  0.93851700  0.75000000  0.60194388  1.0
  Nb  Nb423  1  0.10518367  0.25000000  0.72694388  1.0
  Nb  Nb424  1  0.10518367  0.58333333  0.72694388  1.0
  Nb  Nb425  1  0.10518367  0.91666667  0.72694388  1.0
  Nb  Nb426  1  0.43851700  0.25000000  0.72694388  1.0
  Nb  Nb427  1  0.43851700  0.58333333  0.72694388  1.0
  Nb  Nb428  1  0.43851700  0.91666667  0.72694388  1.0
  Nb  Nb429  1  0.77185033  0.25000000  0.72694388  1.0
  Nb  Nb430  1  0.77185033  0.58333333  0.72694388  1.0
  Nb  Nb431  1  0.77185033  0.91666667  0.72694388  1.0
  Nb  Nb432  1  0.27370111  0.19648278  0.52305612  1.0
  Nb  Nb433  1  0.27370111  0.52981611  0.52305612  1.0
  Nb  Nb434  1  0.27370111  0.86314944  0.52305612  1.0
  Nb  Nb435  1  0.60703445  0.19648278  0.52305612  1.0
  Nb  Nb436  1  0.60703444  0.52981611  0.52305612  1.0
  Nb  Nb437  1  0.60703444  0.86314944  0.52305612  1.0
  Nb  Nb438  1  0.94036778  0.19648278  0.52305612  1.0
  Nb  Nb439  1  0.94036778  0.52981611  0.52305612  1.0
  Nb  Nb440  1  0.94036778  0.86314944  0.52305612  1.0
  Nb  Nb441  1  0.10703444  0.02981611  0.64805612  1.0
  Nb  Nb442  1  0.10703444  0.36314944  0.64805612  1.0
  Nb  Nb443  1  0.10703445  0.69648278  0.64805612  1.0
  Nb  Nb444  1  0.44036778  0.02981611  0.64805612  1.0
  Nb  Nb445  1  0.44036778  0.36314944  0.64805612  1.0
  Nb  Nb446  1  0.44036778  0.69648278  0.64805612  1.0
  Nb  Nb447  1  0.77370111  0.02981611  0.64805612  1.0
  Nb  Nb448  1  0.77370111  0.36314944  0.64805612  1.0
  Nb  Nb449  1  0.77370111  0.69648278  0.64805612  1.0
  Nb  Nb450  1  0.27185033  0.08333333  0.69416838  1.0
  Nb  Nb451  1  0.27185033  0.41666667  0.69416838  1.0
  Nb  Nb452  1  0.27185033  0.75000000  0.69416838  1.0
  Nb  Nb453  1  0.60518367  0.08333333  0.69416838  1.0
  Nb  Nb454  1  0.60518367  0.41666667  0.69416838  1.0
  Nb  Nb455  1  0.60518367  0.75000000  0.69416838  1.0
  Nb  Nb456  1  0.93851700  0.08333333  0.69416838  1.0
  Nb  Nb457  1  0.93851700  0.41666667  0.69416838  1.0
  Nb  Nb458  1  0.93851700  0.75000000  0.69416838  1.0
  Nb  Nb459  1  0.10518367  0.25000000  0.56916837  1.0
  Nb  Nb460  1  0.10518367  0.58333333  0.56916837  1.0
  Nb  Nb461  1  0.10518367  0.91666667  0.56916837  1.0
  Nb  Nb462  1  0.43851700  0.25000000  0.56916837  1.0
  Nb  Nb463  1  0.43851700  0.58333333  0.56916838  1.0
  Nb  Nb464  1  0.43851700  0.91666667  0.56916837  1.0
  Nb  Nb465  1  0.77185033  0.25000000  0.56916837  1.0
  Nb  Nb466  1  0.77185033  0.58333333  0.56916838  1.0
  Nb  Nb467  1  0.77185033  0.91666667  0.56916837  1.0
  Nb  Nb468  1  0.06148300  0.08333333  0.60194388  1.0
  Nb  Nb469  1  0.06148300  0.41666667  0.60194388  1.0
  Nb  Nb470  1  0.06148300  0.75000000  0.60194388  1.0
  Nb  Nb471  1  0.39481633  0.08333333  0.60194388  1.0
  Nb  Nb472  1  0.39481633  0.41666667  0.60194388  1.0
  Nb  Nb473  1  0.39481633  0.75000000  0.60194388  1.0
  Nb  Nb474  1  0.72814967  0.08333333  0.60194388  1.0
  Nb  Nb475  1  0.72814967  0.41666667  0.60194388  1.0
  Nb  Nb476  1  0.72814967  0.75000000  0.60194388  1.0
  Nb  Nb477  1  0.22814967  0.25000000  0.72694387  1.0
  Nb  Nb478  1  0.22814967  0.58333333  0.72694387  1.0
  Nb  Nb479  1  0.22814967  0.91666667  0.72694387  1.0
  Nb  Nb480  1  0.56148300  0.25000000  0.72694387  1.0
  Nb  Nb481  1  0.56148300  0.58333333  0.72694388  1.0
  Nb  Nb482  1  0.56148300  0.91666667  0.72694387  1.0
  Nb  Nb483  1  0.89481633  0.25000000  0.72694387  1.0
  Nb  Nb484  1  0.89481633  0.58333333  0.72694388  1.0
  Nb  Nb485  1  0.89481633  0.91666667  0.72694387  1.0
  Nb  Nb486  1  0.05963222  0.19648278  0.52305612  1.0
  Nb  Nb487  1  0.05963222  0.52981611  0.52305612  1.0
  Nb  Nb488  1  0.05963222  0.86314944  0.52305612  1.0
  Nb  Nb489  1  0.39296555  0.19648278  0.52305612  1.0
  Nb  Nb490  1  0.39296555  0.52981611  0.52305612  1.0
  Nb  Nb491  1  0.39296555  0.86314944  0.52305612  1.0
  Nb  Nb492  1  0.72629889  0.19648278  0.52305612  1.0
  Nb  Nb493  1  0.72629889  0.52981611  0.52305612  1.0
  Nb  Nb494  1  0.72629889  0.86314944  0.52305612  1.0
  Nb  Nb495  1  0.22629889  0.02981611  0.64805612  1.0
  Nb  Nb496  1  0.22629889  0.36314945  0.64805612  1.0
  Nb  Nb497  1  0.22629889  0.69648278  0.64805612  1.0
  Nb  Nb498  1  0.55963222  0.02981611  0.64805612  1.0
  Nb  Nb499  1  0.55963222  0.36314945  0.64805612  1.0
  Nb  Nb500  1  0.55963222  0.69648278  0.64805612  1.0
  Nb  Nb501  1  0.89296555  0.02981611  0.64805612  1.0
  Nb  Nb502  1  0.89296555  0.36314945  0.64805612  1.0
  Nb  Nb503  1  0.89296555  0.69648278  0.64805612  1.0
  Nb  Nb504  1  0.33333333  0.27981611  0.69278029  1.0
  Nb  Nb505  1  0.33333333  0.61314944  0.69278029  1.0
  Nb  Nb506  1  0.33333333  0.94648278  0.69278029  1.0
  Nb  Nb507  1  0.66666667  0.27981611  0.69278029  1.0
  Nb  Nb508  1  0.66666667  0.61314944  0.69278029  1.0
  Nb  Nb509  1  0.66666667  0.94648278  0.69278029  1.0
  Nb  Nb510  1  1.00000000  0.27981611  0.69278029  1.0
  Nb  Nb511  1  1.00000000  0.61314944  0.69278029  1.0
  Nb  Nb512  1  1.00000000  0.94648278  0.69278029  1.0
  Nb  Nb513  1  0.16666667  0.11314944  0.56778029  1.0
  Nb  Nb514  1  0.16666667  0.44648278  0.56778029  1.0
  Nb  Nb515  1  0.16666667  0.77981611  0.56778029  1.0
  Nb  Nb516  1  0.50000000  0.11314944  0.56778029  1.0
  Nb  Nb517  1  0.50000000  0.44648278  0.56778029  1.0
  Nb  Nb518  1  0.50000000  0.77981611  0.56778029  1.0
  Nb  Nb519  1  0.83333333  0.11314944  0.56778029  1.0
  Nb  Nb520  1  0.83333333  0.44648278  0.56778029  1.0
  Nb  Nb521  1  0.83333333  0.77981611  0.56778029  1.0
  Nb  Nb522  1  0.00000000  0.13685056  0.56778029  1.0
  Nb  Nb523  1  0.00000000  0.47018389  0.56778029  1.0
  Nb  Nb524  1  0.00000000  0.80351722  0.56778029  1.0
  Nb  Nb525  1  0.33333333  0.13685056  0.56778029  1.0
  Nb  Nb526  1  0.33333333  0.47018389  0.56778029  1.0
  Nb  Nb527  1  0.33333333  0.80351722  0.56778029  1.0
  Nb  Nb528  1  0.66666667  0.13685056  0.56778029  1.0
  Nb  Nb529  1  0.66666667  0.47018389  0.56778029  1.0
  Nb  Nb530  1  0.66666667  0.80351722  0.56778029  1.0
  Nb  Nb531  1  0.16666667  0.30351722  0.69278029  1.0
  Nb  Nb532  1  0.16666667  0.63685056  0.69278029  1.0
  Nb  Nb533  1  0.16666667  0.97018389  0.69278029  1.0
  Nb  Nb534  1  0.50000000  0.30351722  0.69278029  1.0
  Nb  Nb535  1  0.50000000  0.63685056  0.69278029  1.0
  Nb  Nb536  1  0.50000000  0.97018389  0.69278029  1.0
  Nb  Nb537  1  0.83333333  0.30351722  0.69278029  1.0
  Nb  Nb538  1  0.83333333  0.63685056  0.69278029  1.0
  Nb  Nb539  1  0.83333333  0.97018389  0.69278029  1.0
  Nb  Nb540  1  0.00000000  0.02185033  0.64805612  1.0
  Nb  Nb541  1  0.00000000  0.35518367  0.64805612  1.0
  Nb  Nb542  1  0.00000000  0.68851700  0.64805612  1.0
  Nb  Nb543  1  0.33333333  0.02185033  0.64805612  1.0
  Nb  Nb544  1  0.33333333  0.35518367  0.64805612  1.0
  Nb  Nb545  1  0.33333333  0.68851700  0.64805612  1.0
  Nb  Nb546  1  0.66666667  0.02185033  0.64805612  1.0
  Nb  Nb547  1  0.66666667  0.35518367  0.64805612  1.0
  Nb  Nb548  1  0.66666667  0.68851700  0.64805612  1.0
  Nb  Nb549  1  0.16666667  0.18851700  0.52305612  1.0
  Nb  Nb550  1  0.16666667  0.52185033  0.52305612  1.0
  Nb  Nb551  1  0.16666667  0.85518367  0.52305612  1.0
  Nb  Nb552  1  0.50000000  0.18851700  0.52305612  1.0
  Nb  Nb553  1  0.50000000  0.52185033  0.52305613  1.0
  Nb  Nb554  1  0.50000000  0.85518367  0.52305612  1.0
  Nb  Nb555  1  0.83333333  0.18851700  0.52305612  1.0
  Nb  Nb556  1  0.83333333  0.52185033  0.52305612  1.0
  Nb  Nb557  1  0.83333333  0.85518367  0.52305612  1.0
  Nb  Nb558  1  0.33333333  0.14481633  0.64805612  1.0
  Nb  Nb559  1  0.33333333  0.47814967  0.64805612  1.0
  Nb  Nb560  1  0.33333333  0.81148300  0.64805612  1.0
  Nb  Nb561  1  0.66666667  0.14481633  0.64805612  1.0
  Nb  Nb562  1  0.66666667  0.47814967  0.64805612  1.0
  Nb  Nb563  1  0.66666667  0.81148300  0.64805612  1.0
  Nb  Nb564  1  1.00000000  0.14481633  0.64805612  1.0
  Nb  Nb565  1  1.00000000  0.47814967  0.64805612  1.0
  Nb  Nb566  1  1.00000000  0.81148300  0.64805612  1.0
  Nb  Nb567  1  0.16666667  0.31148300  0.52305612  1.0
  Nb  Nb568  1  0.16666667  0.64481633  0.52305612  1.0
  Nb  Nb569  1  0.16666667  0.97814967  0.52305612  1.0
  Nb  Nb570  1  0.50000000  0.31148300  0.52305612  1.0
  Nb  Nb571  1  0.50000000  0.64481633  0.52305612  1.0
  Nb  Nb572  1  0.50000000  0.97814967  0.52305612  1.0
  Nb  Nb573  1  0.83333333  0.31148300  0.52305612  1.0
  Nb  Nb574  1  0.83333333  0.64481633  0.52305612  1.0
  Nb  Nb575  1  0.83333333  0.97814967  0.52305612  1.0
  Nb  Nb576  1  0.00000000  0.27185033  0.52305612  1.0
  Nb  Nb577  1  0.00000000  0.60518367  0.52305612  1.0
  Nb  Nb578  1  0.00000000  0.93851700  0.52305612  1.0
  Nb  Nb579  1  0.33333333  0.27185033  0.52305612  1.0
  Nb  Nb580  1  0.33333333  0.60518367  0.52305613  1.0
  Nb  Nb581  1  0.33333333  0.93851700  0.52305612  1.0
  Nb  Nb582  1  0.66666667  0.27185033  0.52305612  1.0
  Nb  Nb583  1  0.66666667  0.60518367  0.52305613  1.0
  Nb  Nb584  1  0.66666667  0.93851700  0.52305612  1.0
  Nb  Nb585  1  0.16666667  0.10518367  0.64805612  1.0
  Nb  Nb586  1  0.16666667  0.43851700  0.64805612  1.0
  Nb  Nb587  1  0.16666667  0.77185033  0.64805612  1.0
  Nb  Nb588  1  0.50000000  0.10518367  0.64805612  1.0
  Nb  Nb589  1  0.50000000  0.43851700  0.64805612  1.0
  Nb  Nb590  1  0.50000000  0.77185033  0.64805612  1.0
  Nb  Nb591  1  0.83333333  0.10518367  0.64805612  1.0
  Nb  Nb592  1  0.83333333  0.43851700  0.64805612  1.0
  Nb  Nb593  1  0.83333333  0.77185033  0.64805612  1.0
  Nb  Nb594  1  0.10518367  0.16666667  0.69416837  1.0
  Nb  Nb595  1  0.10518367  0.50000000  0.69416837  1.0
  Nb  Nb596  1  0.10518367  0.83333333  0.69416837  1.0
  Nb  Nb597  1  0.43851700  0.16666667  0.69416837  1.0
  Nb  Nb598  1  0.43851700  0.50000000  0.69416838  1.0
  Nb  Nb599  1  0.43851700  0.83333333  0.69416837  1.0
  Nb  Nb600  1  0.77185033  0.16666667  0.69416837  1.0
  Nb  Nb601  1  0.77185033  0.50000000  0.69416837  1.0
  Nb  Nb602  1  0.77185033  0.83333333  0.69416837  1.0
  Nb  Nb603  1  0.27185033  0.33333333  0.56916837  1.0
  Nb  Nb604  1  0.27185033  0.66666667  0.56916837  1.0
  Nb  Nb605  1  0.27185033  1.00000000  0.56916837  1.0
  Nb  Nb606  1  0.60518367  0.33333333  0.56916837  1.0
  Nb  Nb607  1  0.60518367  0.66666667  0.56916838  1.0
  Nb  Nb608  1  0.60518367  1.00000000  0.56916837  1.0
  Nb  Nb609  1  0.93851700  0.33333333  0.56916837  1.0
  Nb  Nb610  1  0.93851700  0.66666667  0.56916838  1.0
  Nb  Nb611  1  0.93851700  1.00000000  0.56916837  1.0
  Nb  Nb612  1  0.06148300  0.08333333  0.69416837  1.0
  Nb  Nb613  1  0.06148300  0.41666667  0.69416837  1.0
  Nb  Nb614  1  0.06148300  0.75000000  0.69416837  1.0
  Nb  Nb615  1  0.39481633  0.08333333  0.69416837  1.0
  Nb  Nb616  1  0.39481633  0.41666667  0.69416837  1.0
  Nb  Nb617  1  0.39481633  0.75000000  0.69416837  1.0
  Nb  Nb618  1  0.72814967  0.08333333  0.69416837  1.0
  Nb  Nb619  1  0.72814967  0.41666667  0.69416837  1.0
  Nb  Nb620  1  0.72814967  0.75000000  0.69416837  1.0
  Nb  Nb621  1  0.22814967  0.25000000  0.56916837  1.0
  Nb  Nb622  1  0.22814967  0.58333333  0.56916837  1.0
  Nb  Nb623  1  0.22814967  0.91666667  0.56916837  1.0
  Nb  Nb624  1  0.56148300  0.25000000  0.56916837  1.0
  Nb  Nb625  1  0.56148300  0.58333333  0.56916837  1.0
  Nb  Nb626  1  0.56148300  0.91666667  0.56916837  1.0
  Nb  Nb627  1  0.89481633  0.25000000  0.56916837  1.0
  Nb  Nb628  1  0.89481633  0.58333333  0.56916837  1.0
  Nb  Nb629  1  0.89481633  0.91666667  0.56916837  1.0
  Nb  Nb630  1  0.33333333  0.13685056  0.72833196  1.0
  Nb  Nb631  1  0.33333333  0.47018389  0.72833196  1.0
  Nb  Nb632  1  0.33333333  0.80351722  0.72833196  1.0
  Nb  Nb633  1  0.66666667  0.13685056  0.72833196  1.0
  Nb  Nb634  1  0.66666667  0.47018389  0.72833196  1.0
  Nb  Nb635  1  0.66666667  0.80351722  0.72833196  1.0
  Nb  Nb636  1  1.00000000  0.13685056  0.72833196  1.0
  Nb  Nb637  1  1.00000000  0.47018389  0.72833196  1.0
  Nb  Nb638  1  1.00000000  0.80351722  0.72833196  1.0
  Nb  Nb639  1  0.16666667  0.30351722  0.60333196  1.0
  Nb  Nb640  1  0.16666667  0.63685056  0.60333196  1.0
  Nb  Nb641  1  0.16666667  0.97018389  0.60333196  1.0
  Nb  Nb642  1  0.50000000  0.30351722  0.60333196  1.0
  Nb  Nb643  1  0.50000000  0.63685056  0.60333196  1.0
  Nb  Nb644  1  0.50000000  0.97018389  0.60333196  1.0
  Nb  Nb645  1  0.83333333  0.30351722  0.60333196  1.0
  Nb  Nb646  1  0.83333333  0.63685056  0.60333196  1.0
  Nb  Nb647  1  0.83333333  0.97018389  0.60333196  1.0
  Nb  Nb648  1  0.00000000  0.27981611  0.60333196  1.0
  Nb  Nb649  1  0.00000000  0.61314944  0.60333196  1.0
  Nb  Nb650  1  0.00000000  0.94648278  0.60333196  1.0
  Nb  Nb651  1  0.33333333  0.27981611  0.60333196  1.0
  Nb  Nb652  1  0.33333333  0.61314944  0.60333196  1.0
  Nb  Nb653  1  0.33333333  0.94648278  0.60333196  1.0
  Nb  Nb654  1  0.66666667  0.27981611  0.60333196  1.0
  Nb  Nb655  1  0.66666667  0.61314944  0.60333196  1.0
  Nb  Nb656  1  0.66666667  0.94648278  0.60333196  1.0
  Nb  Nb657  1  0.16666667  0.11314944  0.72833196  1.0
  Nb  Nb658  1  0.16666667  0.44648278  0.72833196  1.0
  Nb  Nb659  1  0.16666667  0.77981611  0.72833196  1.0
  Nb  Nb660  1  0.50000000  0.11314944  0.72833196  1.0
  Nb  Nb661  1  0.50000000  0.44648278  0.72833196  1.0
  Nb  Nb662  1  0.50000000  0.77981611  0.72833196  1.0
  Nb  Nb663  1  0.83333333  0.11314944  0.72833196  1.0
  Nb  Nb664  1  0.83333333  0.44648278  0.72833196  1.0
  Nb  Nb665  1  0.83333333  0.77981611  0.72833196  1.0
  Nb  Nb666  1  0.22814967  0.16666667  0.60194388  1.0
  Nb  Nb667  1  0.22814967  0.50000000  0.60194388  1.0
  Nb  Nb668  1  0.22814967  0.83333333  0.60194388  1.0
  Nb  Nb669  1  0.56148300  0.16666667  0.60194388  1.0
  Nb  Nb670  1  0.56148300  0.50000000  0.60194388  1.0
  Nb  Nb671  1  0.56148300  0.83333333  0.60194388  1.0
  Nb  Nb672  1  0.89481633  0.16666667  0.60194388  1.0
  Nb  Nb673  1  0.89481633  0.50000000  0.60194388  1.0
  Nb  Nb674  1  0.89481633  0.83333333  0.60194388  1.0
  Nb  Nb675  1  0.06148300  0.33333333  0.72694387  1.0
  Nb  Nb676  1  0.06148300  0.66666667  0.72694387  1.0
  Nb  Nb677  1  0.06148300  1.00000000  0.72694388  1.0
  Nb  Nb678  1  0.39481633  0.33333333  0.72694387  1.0
  Nb  Nb679  1  0.39481633  0.66666667  0.72694388  1.0
  Nb  Nb680  1  0.39481633  1.00000000  0.72694387  1.0
  Nb  Nb681  1  0.72814967  0.33333333  0.72694387  1.0
  Nb  Nb682  1  0.72814967  0.66666667  0.72694388  1.0
  Nb  Nb683  1  0.72814967  1.00000000  0.72694387  1.0
  Nb  Nb684  1  0.10518367  0.16666667  0.60194388  1.0
  Nb  Nb685  1  0.10518367  0.50000000  0.60194388  1.0
  Nb  Nb686  1  0.10518367  0.83333333  0.60194388  1.0
  Nb  Nb687  1  0.43851700  0.16666667  0.60194388  1.0
  Nb  Nb688  1  0.43851700  0.50000000  0.60194388  1.0
  Nb  Nb689  1  0.43851700  0.83333333  0.60194388  1.0
  Nb  Nb690  1  0.77185033  0.16666667  0.60194388  1.0
  Nb  Nb691  1  0.77185033  0.50000000  0.60194388  1.0
  Nb  Nb692  1  0.77185033  0.83333333  0.60194388  1.0
  Nb  Nb693  1  0.27185033  0.33333333  0.72694388  1.0
  Nb  Nb694  1  0.27185033  0.66666667  0.72694388  1.0
  Nb  Nb695  1  0.27185033  0.00000000  0.72694388  1.0
  Nb  Nb696  1  0.60518367  0.33333333  0.72694388  1.0
  Nb  Nb697  1  0.60518367  0.66666667  0.72694388  1.0
  Nb  Nb698  1  0.60518367  0.00000000  0.72694388  1.0
  Nb  Nb699  1  0.93851700  0.33333333  0.72694388  1.0
  Nb  Nb700  1  0.93851700  0.66666667  0.72694388  1.0
  Nb  Nb701  1  0.93851700  0.00000000  0.72694388  1.0
  Nb  Nb702  1  0.33333333  0.06148300  0.52305612  1.0
  Nb  Nb703  1  0.33333333  0.39481633  0.52305612  1.0
  Nb  Nb704  1  0.33333333  0.72814967  0.52305612  1.0
  Nb  Nb705  1  0.66666667  0.06148300  0.52305612  1.0
  Nb  Nb706  1  0.66666667  0.39481633  0.52305612  1.0
  Nb  Nb707  1  0.66666667  0.72814967  0.52305612  1.0
  Nb  Nb708  1  1.00000000  0.06148300  0.52305612  1.0
  Nb  Nb709  1  1.00000000  0.39481633  0.52305612  1.0
  Nb  Nb710  1  1.00000000  0.72814967  0.52305612  1.0
  Nb  Nb711  1  0.16666667  0.22814967  0.64805612  1.0
  Nb  Nb712  1  0.16666667  0.56148300  0.64805612  1.0
  Nb  Nb713  1  0.16666667  0.89481633  0.64805612  1.0
  Nb  Nb714  1  0.50000000  0.22814967  0.64805612  1.0
  Nb  Nb715  1  0.50000000  0.56148300  0.64805612  1.0
  Nb  Nb716  1  0.50000000  0.89481633  0.64805612  1.0
  Nb  Nb717  1  0.83333333  0.22814967  0.64805612  1.0
  Nb  Nb718  1  0.83333333  0.56148300  0.64805612  1.0
  Nb  Nb719  1  0.83333333  0.89481633  0.64805612  1.0
  Ni  Ni720  1  0.25000000  0.12500000  0.77305612  1.0
  Ni  Ni721  1  0.25000000  0.45833333  0.77305612  1.0
  Ni  Ni722  1  0.25000000  0.79166667  0.77305612  1.0
  Ni  Ni723  1  0.58333333  0.12500000  0.77305612  1.0
  Ni  Ni724  1  0.58333333  0.45833333  0.77305612  1.0
  Ni  Ni725  1  0.58333333  0.79166667  0.77305612  1.0
  Ni  Ni726  1  0.91666667  0.12500000  0.77305612  1.0
  Ni  Ni727  1  0.91666667  0.45833333  0.77305612  1.0
  Ni  Ni728  1  0.91666667  0.79166667  0.77305612  1.0
  Ni  Ni729  1  0.08333333  0.29166667  0.89805612  1.0
  Ni  Ni730  1  0.08333333  0.62500000  0.89805612  1.0
  Ni  Ni731  1  0.08333333  0.95833333  0.89805612  1.0
  Ni  Ni732  1  0.41666667  0.29166667  0.89805612  1.0
  Ni  Ni733  1  0.41666667  0.62500000  0.89805613  1.0
  Ni  Ni734  1  0.41666667  0.95833333  0.89805612  1.0
  Ni  Ni735  1  0.75000000  0.29166667  0.89805612  1.0
  Ni  Ni736  1  0.75000000  0.62500000  0.89805613  1.0
  Ni  Ni737  1  0.75000000  0.95833333  0.89805612  1.0
  Ni  Ni738  1  0.08333333  0.12500000  0.77305612  1.0
  Ni  Ni739  1  0.08333333  0.45833333  0.77305612  1.0
  Ni  Ni740  1  0.08333333  0.79166667  0.77305612  1.0
  Ni  Ni741  1  0.41666667  0.12500000  0.77305612  1.0
  Ni  Ni742  1  0.41666667  0.45833333  0.77305613  1.0
  Ni  Ni743  1  0.41666667  0.79166667  0.77305612  1.0
  Ni  Ni744  1  0.75000000  0.12500000  0.77305612  1.0
  Ni  Ni745  1  0.75000000  0.45833333  0.77305612  1.0
  Ni  Ni746  1  0.75000000  0.79166667  0.77305612  1.0
  Ni  Ni747  1  0.25000000  0.29166667  0.89805612  1.0
  Ni  Ni748  1  0.25000000  0.62500000  0.89805612  1.0
  Ni  Ni749  1  0.25000000  0.95833333  0.89805612  1.0
  Ni  Ni750  1  0.58333333  0.29166667  0.89805612  1.0
  Ni  Ni751  1  0.58333333  0.62500000  0.89805613  1.0
  Ni  Ni752  1  0.58333333  0.95833333  0.89805612  1.0
  Ni  Ni753  1  0.91666667  0.29166667  0.89805612  1.0
  Ni  Ni754  1  0.91666667  0.62500000  0.89805613  1.0
  Ni  Ni755  1  0.91666667  0.95833333  0.89805612  1.0
  Ni  Ni756  1  0.00000000  0.20833333  0.96055612  1.0
  Ni  Ni757  1  0.00000000  0.54166667  0.96055612  1.0
  Ni  Ni758  1  0.00000000  0.87500000  0.96055612  1.0
  Ni  Ni759  1  0.33333333  0.20833333  0.96055612  1.0
  Ni  Ni760  1  0.33333333  0.54166667  0.96055612  1.0
  Ni  Ni761  1  0.33333333  0.87500000  0.96055612  1.0
  Ni  Ni762  1  0.66666667  0.20833333  0.96055612  1.0
  Ni  Ni763  1  0.66666667  0.54166667  0.96055612  1.0
  Ni  Ni764  1  0.66666667  0.87500000  0.96055612  1.0
  Ni  Ni765  1  0.16666667  0.04166667  0.83555612  1.0
  Ni  Ni766  1  0.16666667  0.37500000  0.83555612  1.0
  Ni  Ni767  1  0.16666667  0.70833333  0.83555612  1.0
  Ni  Ni768  1  0.50000000  0.04166667  0.83555612  1.0
  Ni  Ni769  1  0.50000000  0.37500000  0.83555612  1.0
  Ni  Ni770  1  0.50000000  0.70833333  0.83555612  1.0
  Ni  Ni771  1  0.83333333  0.04166667  0.83555612  1.0
  Ni  Ni772  1  0.83333333  0.37500000  0.83555612  1.0
  Ni  Ni773  1  0.83333333  0.70833333  0.83555612  1.0
  Ni  Ni774  1  0.00000000  0.20833333  0.83555612  1.0
  Ni  Ni775  1  0.00000000  0.54166667  0.83555612  1.0
  Ni  Ni776  1  0.00000000  0.87500000  0.83555612  1.0
  Ni  Ni777  1  0.33333333  0.20833333  0.83555612  1.0
  Ni  Ni778  1  0.33333333  0.54166667  0.83555612  1.0
  Ni  Ni779  1  0.33333333  0.87500000  0.83555612  1.0
  Ni  Ni780  1  0.66666667  0.20833333  0.83555612  1.0
  Ni  Ni781  1  0.66666667  0.54166667  0.83555612  1.0
  Ni  Ni782  1  0.66666667  0.87500000  0.83555612  1.0
  Ni  Ni783  1  0.16666667  0.04166667  0.96055612  1.0
  Ni  Ni784  1  0.16666667  0.37500000  0.96055612  1.0
  Ni  Ni785  1  0.16666667  0.70833333  0.96055612  1.0
  Ni  Ni786  1  0.50000000  0.04166667  0.96055612  1.0
  Ni  Ni787  1  0.50000000  0.37500000  0.96055612  1.0
  Ni  Ni788  1  0.50000000  0.70833333  0.96055612  1.0
  Ni  Ni789  1  0.83333333  0.04166667  0.96055612  1.0
  Ni  Ni790  1  0.83333333  0.37500000  0.96055612  1.0
  Ni  Ni791  1  0.83333333  0.70833333  0.96055612  1.0
  Ni  Ni792  1  0.25000000  0.12500000  0.52305612  1.0
  Ni  Ni793  1  0.25000000  0.45833333  0.52305612  1.0
  Ni  Ni794  1  0.25000000  0.79166667  0.52305612  1.0
  Ni  Ni795  1  0.58333333  0.12500000  0.52305612  1.0
  Ni  Ni796  1  0.58333333  0.45833333  0.52305612  1.0
  Ni  Ni797  1  0.58333333  0.79166667  0.52305612  1.0
  Ni  Ni798  1  0.91666667  0.12500000  0.52305612  1.0
  Ni  Ni799  1  0.91666667  0.45833333  0.52305612  1.0
  Ni  Ni800  1  0.91666667  0.79166667  0.52305612  1.0
  Ni  Ni801  1  0.08333333  0.29166667  0.64805612  1.0
  Ni  Ni802  1  0.08333333  0.62500000  0.64805612  1.0
  Ni  Ni803  1  0.08333333  0.95833333  0.64805612  1.0
  Ni  Ni804  1  0.41666667  0.29166667  0.64805612  1.0
  Ni  Ni805  1  0.41666667  0.62500000  0.64805613  1.0
  Ni  Ni806  1  0.41666667  0.95833333  0.64805612  1.0
  Ni  Ni807  1  0.75000000  0.29166667  0.64805612  1.0
  Ni  Ni808  1  0.75000000  0.62500000  0.64805613  1.0
  Ni  Ni809  1  0.75000000  0.95833333  0.64805612  1.0
  Ni  Ni810  1  0.08333333  0.12500000  0.52305612  1.0
  Ni  Ni811  1  0.08333333  0.45833333  0.52305612  1.0
  Ni  Ni812  1  0.08333333  0.79166667  0.52305612  1.0
  Ni  Ni813  1  0.41666667  0.12500000  0.52305612  1.0
  Ni  Ni814  1  0.41666667  0.45833333  0.52305613  1.0
  Ni  Ni815  1  0.41666667  0.79166667  0.52305612  1.0
  Ni  Ni816  1  0.75000000  0.12500000  0.52305612  1.0
  Ni  Ni817  1  0.75000000  0.45833333  0.52305612  1.0
  Ni  Ni818  1  0.75000000  0.79166667  0.52305612  1.0
  Ni  Ni819  1  0.25000000  0.29166667  0.64805612  1.0
  Ni  Ni820  1  0.25000000  0.62500000  0.64805612  1.0
  Ni  Ni821  1  0.25000000  0.95833333  0.64805612  1.0
  Ni  Ni822  1  0.58333333  0.29166667  0.64805612  1.0
  Ni  Ni823  1  0.58333333  0.62500000  0.64805612  1.0
  Ni  Ni824  1  0.58333333  0.95833333  0.64805612  1.0
  Ni  Ni825  1  0.91666667  0.29166667  0.64805612  1.0
  Ni  Ni826  1  0.91666667  0.62500000  0.64805612  1.0
  Ni  Ni827  1  0.91666667  0.95833333  0.64805612  1.0
  Ni  Ni828  1  0.33333333  0.20833333  0.71055612  1.0
  Ni  Ni829  1  0.33333333  0.54166667  0.71055612  1.0
  Ni  Ni830  1  0.33333333  0.87500000  0.71055612  1.0
  Ni  Ni831  1  0.66666667  0.20833333  0.71055612  1.0
  Ni  Ni832  1  0.66666667  0.54166667  0.71055612  1.0
  Ni  Ni833  1  0.66666667  0.87500000  0.71055612  1.0
  Ni  Ni834  1  1.00000000  0.20833333  0.71055612  1.0
  Ni  Ni835  1  1.00000000  0.54166667  0.71055612  1.0
  Ni  Ni836  1  1.00000000  0.87500000  0.71055612  1.0
  Ni  Ni837  1  0.16666667  0.04166667  0.58555612  1.0
  Ni  Ni838  1  0.16666667  0.37500000  0.58555613  1.0
  Ni  Ni839  1  0.16666667  0.70833333  0.58555613  1.0
  Ni  Ni840  1  0.50000000  0.04166667  0.58555612  1.0
  Ni  Ni841  1  0.50000000  0.37500000  0.58555612  1.0
  Ni  Ni842  1  0.50000000  0.70833333  0.58555613  1.0
  Ni  Ni843  1  0.83333333  0.04166667  0.58555612  1.0
  Ni  Ni844  1  0.83333333  0.37500000  0.58555612  1.0
  Ni  Ni845  1  0.83333333  0.70833333  0.58555613  1.0
  Ni  Ni846  1  0.33333333  0.20833333  0.58555612  1.0
  Ni  Ni847  1  0.33333333  0.54166667  0.58555612  1.0
  Ni  Ni848  1  0.33333333  0.87500000  0.58555612  1.0
  Ni  Ni849  1  0.66666667  0.20833333  0.58555612  1.0
  Ni  Ni850  1  0.66666667  0.54166667  0.58555613  1.0
  Ni  Ni851  1  0.66666667  0.87500000  0.58555612  1.0
  Ni  Ni852  1  1.00000000  0.20833333  0.58555612  1.0
  Ni  Ni853  1  1.00000000  0.54166667  0.58555612  1.0
  Ni  Ni854  1  1.00000000  0.87500000  0.58555612  1.0
  Ni  Ni855  1  0.16666667  0.04166667  0.71055612  1.0
  Ni  Ni856  1  0.16666667  0.37500000  0.71055612  1.0
  Ni  Ni857  1  0.16666667  0.70833333  0.71055612  1.0
  Ni  Ni858  1  0.50000000  0.04166667  0.71055612  1.0
  Ni  Ni859  1  0.50000000  0.37500000  0.71055612  1.0
  Ni  Ni860  1  0.50000000  0.70833333  0.71055612  1.0
  Ni  Ni861  1  0.83333333  0.04166667  0.71055612  1.0
  Ni  Ni862  1  0.83333333  0.37500000  0.71055612  1.0
  Ni  Ni863  1  0.83333333  0.70833333  0.71055612  1.0
