# generated using pymatgen
data_Nb6Ni7
_symmetry_space_group_name_H-M   'P 1'
_cell_length_a   31.45551057
_cell_length_b   34.71183715
_cell_length_c   29.19053582
_cell_angle_alpha   79.41238533
_cell_angle_beta   82.84575371
_cell_angle_gamma   71.68783831
_symmetry_Int_Tables_number   1
_chemical_formula_structural   Nb6Ni7
_chemical_formula_sum   'Nb432 Ni504'
_cell_volume   29666.98457249
_cell_formula_units_Z   72
loop_
 _symmetry_equiv_pos_site_id
 _symmetry_equiv_pos_as_xyz
  1  'x, y, z'
loop_
 _atom_site_type_symbol
 _atom_site_label
 _atom_site_symmetry_multiplicity
 _atom_site_fract_x
 _atom_site_fract_y
 _atom_site_fract_z
 _atom_site_occupancy
  Nb  Nb0  1  0.01194533  0.13317311  0.03407917  1.0
  Nb  Nb1  1  0.01194533  0.46650644  0.03407917  1.0
  Nb  Nb2  1  0.01194533  0.79983978  0.03407917  1.0
  Nb  Nb3  1  0.34527867  0.13317311  0.03407917  1.0
  Nb  Nb4  1  0.34527867  0.46650644  0.03407917  1.0
  Nb  Nb5  1  0.34527867  0.79983978  0.03407917  1.0
  Nb  Nb6  1  0.67861200  0.13317311  0.03407917  1.0
  Nb  Nb7  1  0.67861200  0.46650644  0.03407917  1.0
  Nb  Nb8  1  0.67861200  0.79983978  0.03407917  1.0
  Nb  Nb9  1  0.12305644  0.00354348  0.08963472  1.0
  Nb  Nb10  1  0.12305644  0.33687681  0.08963472  1.0
  Nb  Nb11  1  0.12305644  0.67021015  0.08963472  1.0
  Nb  Nb12  1  0.45638978  0.00354348  0.08963472  1.0
  Nb  Nb13  1  0.45638978  0.33687681  0.08963472  1.0
  Nb  Nb14  1  0.45638978  0.67021015  0.08963472  1.0
  Nb  Nb15  1  0.78972311  0.00354348  0.08963472  1.0
  Nb  Nb16  1  0.78972311  0.33687681  0.08963472  1.0
  Nb  Nb17  1  0.78972311  0.67021015  0.08963472  1.0
  Nb  Nb18  1  0.19932200  0.27058267  0.07155450  1.0
  Nb  Nb19  1  0.19932200  0.60391600  0.07155450  1.0
  Nb  Nb20  1  0.19932200  0.93724933  0.07155450  1.0
  Nb  Nb21  1  0.53265533  0.27058267  0.07155450  1.0
  Nb  Nb22  1  0.53265533  0.60391600  0.07155450  1.0
  Nb  Nb23  1  0.53265533  0.93724933  0.07155450  1.0
  Nb  Nb24  1  0.86598867  0.27058267  0.07155450  1.0
  Nb  Nb25  1  0.86598867  0.60391600  0.07155450  1.0
  Nb  Nb26  1  0.86598867  0.93724933  0.07155450  1.0
  Nb  Nb27  1  0.08821089  0.06687896  0.01599894  1.0
  Nb  Nb28  1  0.08821089  0.40021230  0.01599894  1.0
  Nb  Nb29  1  0.08821089  0.73354563  0.01599894  1.0
  Nb  Nb30  1  0.42154422  0.06687896  0.01599894  1.0
  Nb  Nb31  1  0.42154422  0.40021230  0.01599894  1.0
  Nb  Nb32  1  0.42154422  0.73354563  0.01599894  1.0
  Nb  Nb33  1  0.75487756  0.06687896  0.01599894  1.0
  Nb  Nb34  1  0.75487756  0.40021230  0.01599894  1.0
  Nb  Nb35  1  0.75487756  0.73354563  0.01599894  1.0
  Nb  Nb36  1  0.24755811  0.06151137  0.01453506  1.0
  Nb  Nb37  1  0.24755811  0.39484470  0.01453506  1.0
  Nb  Nb38  1  0.24755811  0.72817804  0.01453506  1.0
  Nb  Nb39  1  0.58089144  0.06151137  0.01453506  1.0
  Nb  Nb40  1  0.58089144  0.39484470  0.01453506  1.0
  Nb  Nb41  1  0.58089144  0.72817804  0.01453506  1.0
  Nb  Nb42  1  0.91422478  0.06151137  0.01453506  1.0
  Nb  Nb43  1  0.91422478  0.39484470  0.01453506  1.0
  Nb  Nb44  1  0.91422478  0.72817804  0.01453506  1.0
  Nb  Nb45  1  0.02533589  0.26521507  0.07009061  1.0
  Nb  Nb46  1  0.02533589  0.59854841  0.07009061  1.0
  Nb  Nb47  1  0.02533589  0.93188174  0.07009061  1.0
  Nb  Nb48  1  0.35866922  0.26521507  0.07009061  1.0
  Nb  Nb49  1  0.35866922  0.59854841  0.07009061  1.0
  Nb  Nb50  1  0.35866922  0.93188174  0.07009061  1.0
  Nb  Nb51  1  0.69200256  0.26521507  0.07009061  1.0
  Nb  Nb52  1  0.69200256  0.59854841  0.07009061  1.0
  Nb  Nb53  1  0.69200256  0.93188174  0.07009061  1.0
  Nb  Nb54  1  0.29704256  0.00891107  0.09109861  1.0
  Nb  Nb55  1  0.29704256  0.34224441  0.09109861  1.0
  Nb  Nb56  1  0.29704256  0.67557774  0.09109861  1.0
  Nb  Nb57  1  0.63037589  0.00891107  0.09109861  1.0
  Nb  Nb58  1  0.63037589  0.34224441  0.09109861  1.0
  Nb  Nb59  1  0.63037589  0.67557774  0.09109861  1.0
  Nb  Nb60  1  0.96370922  0.00891107  0.09109861  1.0
  Nb  Nb61  1  0.96370922  0.34224441  0.09109861  1.0
  Nb  Nb62  1  0.96370922  0.67557774  0.09109861  1.0
  Nb  Nb63  1  0.18593144  0.13854070  0.03554306  1.0
  Nb  Nb64  1  0.18593144  0.47187404  0.03554306  1.0
  Nb  Nb65  1  0.18593144  0.80520737  0.03554306  1.0
  Nb  Nb66  1  0.51926478  0.13854070  0.03554306  1.0
  Nb  Nb67  1  0.51926478  0.47187404  0.03554306  1.0
  Nb  Nb68  1  0.51926478  0.80520737  0.03554306  1.0
  Nb  Nb69  1  0.85259811  0.13854070  0.03554306  1.0
  Nb  Nb70  1  0.85259811  0.47187404  0.03554306  1.0
  Nb  Nb71  1  0.85259811  0.80520737  0.03554306  1.0
  Nb  Nb72  1  0.18857644  0.01825815  0.00273872  1.0
  Nb  Nb73  1  0.18857644  0.35159148  0.00273872  1.0
  Nb  Nb74  1  0.18857644  0.68492481  0.00273872  1.0
  Nb  Nb75  1  0.52190978  0.01825815  0.00273872  1.0
  Nb  Nb76  1  0.52190978  0.35159148  0.00273872  1.0
  Nb  Nb77  1  0.52190978  0.68492481  0.00273872  1.0
  Nb  Nb78  1  0.85524311  0.01825815  0.00273872  1.0
  Nb  Nb79  1  0.85524311  0.35159148  0.00273872  1.0
  Nb  Nb80  1  0.85524311  0.68492481  0.00273872  1.0
  Nb  Nb81  1  0.29968756  0.22196185  0.05829428  1.0
  Nb  Nb82  1  0.29968756  0.55529519  0.05829428  1.0
  Nb  Nb83  1  0.29968756  0.88862852  0.05829428  1.0
  Nb  Nb84  1  0.63302089  0.22196185  0.05829428  1.0
  Nb  Nb85  1  0.63302089  0.55529519  0.05829428  1.0
  Nb  Nb86  1  0.63302089  0.88862852  0.05829428  1.0
  Nb  Nb87  1  0.96635422  0.22196185  0.05829428  1.0
  Nb  Nb88  1  0.96635422  0.55529519  0.05829428  1.0
  Nb  Nb89  1  0.96635422  0.88862852  0.05829428  1.0
  Nb  Nb90  1  0.02269089  0.05216430  0.10289494  1.0
  Nb  Nb91  1  0.02269089  0.38549763  0.10289494  1.0
  Nb  Nb92  1  0.02269089  0.71883096  0.10289494  1.0
  Nb  Nb93  1  0.35602422  0.05216430  0.10289494  1.0
  Nb  Nb94  1  0.35602422  0.38549763  0.10289494  1.0
  Nb  Nb95  1  0.35602422  0.71883096  0.10289494  1.0
  Nb  Nb96  1  0.68935756  0.05216430  0.10289494  1.0
  Nb  Nb97  1  0.68935756  0.38549763  0.10289494  1.0
  Nb  Nb98  1  0.68935756  0.71883096  0.10289494  1.0
  Nb  Nb99  1  0.24491311  0.18179393  0.04733939  1.0
  Nb  Nb100  1  0.24491311  0.51512726  0.04733939  1.0
  Nb  Nb101  1  0.24491311  0.84846059  0.04733939  1.0
  Nb  Nb102  1  0.57824644  0.18179393  0.04733939  1.0
  Nb  Nb103  1  0.57824644  0.51512726  0.04733939  1.0
  Nb  Nb104  1  0.57824644  0.84846059  0.04733939  1.0
  Nb  Nb105  1  0.91157978  0.18179393  0.04733939  1.0
  Nb  Nb106  1  0.91157978  0.51512726  0.04733939  1.0
  Nb  Nb107  1  0.91157978  0.84846059  0.04733939  1.0
  Nb  Nb108  1  0.23416756  0.20724719  0.14519028  1.0
  Nb  Nb109  1  0.23416756  0.54058052  0.14519028  1.0
  Nb  Nb110  1  0.23416756  0.87391385  0.14519028  1.0
  Nb  Nb111  1  0.56750089  0.20724719  0.14519028  1.0
  Nb  Nb112  1  0.56750089  0.54058052  0.14519028  1.0
  Nb  Nb113  1  0.56750089  0.87391385  0.14519028  1.0
  Nb  Nb114  1  0.90083422  0.20724719  0.14519028  1.0
  Nb  Nb115  1  0.90083422  0.54058052  0.14519028  1.0
  Nb  Nb116  1  0.90083422  0.87391385  0.14519028  1.0
  Nb  Nb117  1  0.01194533  0.07761756  0.20074583  1.0
  Nb  Nb118  1  0.01194533  0.41095089  0.20074583  1.0
  Nb  Nb119  1  0.01194533  0.74428422  0.20074583  1.0
  Nb  Nb120  1  0.34527867  0.07761756  0.20074583  1.0
  Nb  Nb121  1  0.34527867  0.41095089  0.20074583  1.0
  Nb  Nb122  1  0.34527867  0.74428422  0.20074583  1.0
  Nb  Nb123  1  0.67861200  0.07761756  0.20074583  1.0
  Nb  Nb124  1  0.67861200  0.41095089  0.20074583  1.0
  Nb  Nb125  1  0.67861200  0.74428422  0.20074583  1.0
  Nb  Nb126  1  0.08821089  0.01132341  0.18266561  1.0
  Nb  Nb127  1  0.08821089  0.34465674  0.18266561  1.0
  Nb  Nb128  1  0.08821089  0.67799007  0.18266561  1.0
  Nb  Nb129  1  0.42154422  0.01132341  0.18266561  1.0
  Nb  Nb130  1  0.42154422  0.34465674  0.18266561  1.0
  Nb  Nb131  1  0.42154422  0.67799007  0.18266561  1.0
  Nb  Nb132  1  0.75487756  0.01132341  0.18266561  1.0
  Nb  Nb133  1  0.75487756  0.34465674  0.18266561  1.0
  Nb  Nb134  1  0.75487756  0.67799007  0.18266561  1.0
  Nb  Nb135  1  0.31043311  0.14095304  0.12711006  1.0
  Nb  Nb136  1  0.31043311  0.47428637  0.12711006  1.0
  Nb  Nb137  1  0.31043311  0.80761970  0.12711006  1.0
  Nb  Nb138  1  0.64376644  0.14095304  0.12711006  1.0
  Nb  Nb139  1  0.64376644  0.47428637  0.12711006  1.0
  Nb  Nb140  1  0.64376644  0.80761970  0.12711006  1.0
  Nb  Nb141  1  0.97709978  0.14095304  0.12711006  1.0
  Nb  Nb142  1  0.97709978  0.47428637  0.12711006  1.0
  Nb  Nb143  1  0.97709978  0.80761970  0.12711006  1.0
  Nb  Nb144  1  0.13644700  0.13558544  0.12564617  1.0
  Nb  Nb145  1  0.13644700  0.46891878  0.12564617  1.0
  Nb  Nb146  1  0.13644700  0.80225211  0.12564617  1.0
  Nb  Nb147  1  0.46978033  0.13558544  0.12564617  1.0
  Nb  Nb148  1  0.46978033  0.46891878  0.12564617  1.0
  Nb  Nb149  1  0.46978033  0.80225211  0.12564617  1.0
  Nb  Nb150  1  0.80311367  0.13558544  0.12564617  1.0
  Nb  Nb151  1  0.80311367  0.46891878  0.12564617  1.0
  Nb  Nb152  1  0.80311367  0.80225211  0.12564617  1.0
  Nb  Nb153  1  0.24755811  0.00595581  0.18120172  1.0
  Nb  Nb154  1  0.24755811  0.33928915  0.18120172  1.0
  Nb  Nb155  1  0.24755811  0.67262248  0.18120172  1.0
  Nb  Nb156  1  0.58089144  0.00595581  0.18120172  1.0
  Nb  Nb157  1  0.58089144  0.33928915  0.18120172  1.0
  Nb  Nb158  1  0.58089144  0.67262248  0.18120172  1.0
  Nb  Nb159  1  0.91422478  0.00595581  0.18120172  1.0
  Nb  Nb160  1  0.91422478  0.33928915  0.18120172  1.0
  Nb  Nb161  1  0.91422478  0.67262248  0.18120172  1.0
  Nb  Nb162  1  0.18593144  0.08298515  0.20220972  1.0
  Nb  Nb163  1  0.18593144  0.41631848  0.20220972  1.0
  Nb  Nb164  1  0.18593144  0.74965181  0.20220972  1.0
  Nb  Nb165  1  0.51926478  0.08298515  0.20220972  1.0
  Nb  Nb166  1  0.51926478  0.41631848  0.20220972  1.0
  Nb  Nb167  1  0.51926478  0.74965181  0.20220972  1.0
  Nb  Nb168  1  0.85259811  0.08298515  0.20220972  1.0
  Nb  Nb169  1  0.85259811  0.41631848  0.20220972  1.0
  Nb  Nb170  1  0.85259811  0.74965181  0.20220972  1.0
  Nb  Nb171  1  0.07482033  0.21261478  0.14665417  1.0
  Nb  Nb172  1  0.07482033  0.54594811  0.14665417  1.0
  Nb  Nb173  1  0.07482033  0.87928144  0.14665417  1.0
  Nb  Nb174  1  0.40815367  0.21261478  0.14665417  1.0
  Nb  Nb175  1  0.40815367  0.54594811  0.14665417  1.0
  Nb  Nb176  1  0.40815367  0.87928144  0.14665417  1.0
  Nb  Nb177  1  0.74148700  0.21261478  0.14665417  1.0
  Nb  Nb178  1  0.74148700  0.54594811  0.14665417  1.0
  Nb  Nb179  1  0.74148700  0.87928144  0.14665417  1.0
  Nb  Nb180  1  0.07746533  0.09233222  0.11384983  1.0
  Nb  Nb181  1  0.07746533  0.42566556  0.11384983  1.0
  Nb  Nb182  1  0.07746533  0.75899889  0.11384983  1.0
  Nb  Nb183  1  0.41079867  0.09233222  0.11384983  1.0
  Nb  Nb184  1  0.41079867  0.42566556  0.11384983  1.0
  Nb  Nb185  1  0.41079867  0.75899889  0.11384983  1.0
  Nb  Nb186  1  0.74413200  0.09233222  0.11384983  1.0
  Nb  Nb187  1  0.74413200  0.42566556  0.11384983  1.0
  Nb  Nb188  1  0.74413200  0.75899889  0.11384983  1.0
  Nb  Nb189  1  0.18857644  0.29603593  0.16940539  1.0
  Nb  Nb190  1  0.18857644  0.62936926  0.16940539  1.0
  Nb  Nb191  1  0.18857644  0.96270259  0.16940539  1.0
  Nb  Nb192  1  0.52190978  0.29603593  0.16940539  1.0
  Nb  Nb193  1  0.52190978  0.62936926  0.16940539  1.0
  Nb  Nb194  1  0.52190978  0.96270259  0.16940539  1.0
  Nb  Nb195  1  0.85524311  0.29603593  0.16940539  1.0
  Nb  Nb196  1  0.85524311  0.62936926  0.16940539  1.0
  Nb  Nb197  1  0.85524311  0.96270259  0.16940539  1.0
  Nb  Nb198  1  0.24491311  0.12623837  0.21400606  1.0
  Nb  Nb199  1  0.24491311  0.45957170  0.21400606  1.0
  Nb  Nb200  1  0.24491311  0.79290504  0.21400606  1.0
  Nb  Nb201  1  0.57824644  0.12623837  0.21400606  1.0
  Nb  Nb202  1  0.57824644  0.45957170  0.21400606  1.0
  Nb  Nb203  1  0.57824644  0.79290504  0.21400606  1.0
  Nb  Nb204  1  0.91157978  0.12623837  0.21400606  1.0
  Nb  Nb205  1  0.91157978  0.45957170  0.21400606  1.0
  Nb  Nb206  1  0.91157978  0.79290504  0.21400606  1.0
  Nb  Nb207  1  0.13380200  0.25586800  0.15845050  1.0
  Nb  Nb208  1  0.13380200  0.58920133  0.15845050  1.0
  Nb  Nb209  1  0.13380200  0.92253467  0.15845050  1.0
  Nb  Nb210  1  0.46713533  0.25586800  0.15845050  1.0
  Nb  Nb211  1  0.46713533  0.58920133  0.15845050  1.0
  Nb  Nb212  1  0.46713533  0.92253467  0.15845050  1.0
  Nb  Nb213  1  0.80046867  0.25586800  0.15845050  1.0
  Nb  Nb214  1  0.80046867  0.58920133  0.15845050  1.0
  Nb  Nb215  1  0.80046867  0.92253467  0.15845050  1.0
  Nb  Nb216  1  0.12305644  0.28132126  0.25630139  1.0
  Nb  Nb217  1  0.12305644  0.61465459  0.25630139  1.0
  Nb  Nb218  1  0.12305644  0.94798793  0.25630139  1.0
  Nb  Nb219  1  0.45638978  0.28132126  0.25630139  1.0
  Nb  Nb220  1  0.45638978  0.61465459  0.25630139  1.0
  Nb  Nb221  1  0.45638978  0.94798793  0.25630139  1.0
  Nb  Nb222  1  0.78972311  0.28132126  0.25630139  1.0
  Nb  Nb223  1  0.78972311  0.61465459  0.25630139  1.0
  Nb  Nb224  1  0.78972311  0.94798793  0.25630139  1.0
  Nb  Nb225  1  0.23416756  0.15169163  0.31185694  1.0
  Nb  Nb226  1  0.23416756  0.48502496  0.31185694  1.0
  Nb  Nb227  1  0.23416756  0.81835830  0.31185694  1.0
  Nb  Nb228  1  0.56750089  0.15169163  0.31185694  1.0
  Nb  Nb229  1  0.56750089  0.48502496  0.31185694  1.0
  Nb  Nb230  1  0.56750089  0.81835830  0.31185694  1.0
  Nb  Nb231  1  0.90083422  0.15169163  0.31185694  1.0
  Nb  Nb232  1  0.90083422  0.48502496  0.31185694  1.0
  Nb  Nb233  1  0.90083422  0.81835830  0.31185694  1.0
  Nb  Nb234  1  0.31043311  0.08539748  0.29377672  1.0
  Nb  Nb235  1  0.31043311  0.41873081  0.29377672  1.0
  Nb  Nb236  1  0.31043311  0.75206415  0.29377672  1.0
  Nb  Nb237  1  0.64376644  0.08539748  0.29377672  1.0
  Nb  Nb238  1  0.64376644  0.41873081  0.29377672  1.0
  Nb  Nb239  1  0.64376644  0.75206415  0.29377672  1.0
  Nb  Nb240  1  0.97709978  0.08539748  0.29377672  1.0
  Nb  Nb241  1  0.97709978  0.41873081  0.29377672  1.0
  Nb  Nb242  1  0.97709978  0.75206415  0.29377672  1.0
  Nb  Nb243  1  0.19932200  0.21502711  0.23822117  1.0
  Nb  Nb244  1  0.19932200  0.54836044  0.23822117  1.0
  Nb  Nb245  1  0.19932200  0.88169378  0.23822117  1.0
  Nb  Nb246  1  0.53265533  0.21502711  0.23822117  1.0
  Nb  Nb247  1  0.53265533  0.54836044  0.23822117  1.0
  Nb  Nb248  1  0.53265533  0.88169378  0.23822117  1.0
  Nb  Nb249  1  0.86598867  0.21502711  0.23822117  1.0
  Nb  Nb250  1  0.86598867  0.54836044  0.23822117  1.0
  Nb  Nb251  1  0.86598867  0.88169378  0.23822117  1.0
  Nb  Nb252  1  0.02533589  0.20965952  0.23675728  1.0
  Nb  Nb253  1  0.02533589  0.54299285  0.23675728  1.0
  Nb  Nb254  1  0.02533589  0.87632619  0.23675728  1.0
  Nb  Nb255  1  0.35866922  0.20965952  0.23675728  1.0
  Nb  Nb256  1  0.35866922  0.54299285  0.23675728  1.0
  Nb  Nb257  1  0.35866922  0.87632619  0.23675728  1.0
  Nb  Nb258  1  0.69200256  0.20965952  0.23675728  1.0
  Nb  Nb259  1  0.69200256  0.54299285  0.23675728  1.0
  Nb  Nb260  1  0.69200256  0.87632619  0.23675728  1.0
  Nb  Nb261  1  0.13644700  0.08002989  0.29231283  1.0
  Nb  Nb262  1  0.13644700  0.41336322  0.29231283  1.0
  Nb  Nb263  1  0.13644700  0.74669656  0.29231283  1.0
  Nb  Nb264  1  0.46978033  0.08002989  0.29231283  1.0
  Nb  Nb265  1  0.46978033  0.41336322  0.29231283  1.0
  Nb  Nb266  1  0.46978033  0.74669656  0.29231283  1.0
  Nb  Nb267  1  0.80311367  0.08002989  0.29231283  1.0
  Nb  Nb268  1  0.80311367  0.41336322  0.29231283  1.0
  Nb  Nb269  1  0.80311367  0.74669656  0.29231283  1.0
  Nb  Nb270  1  0.07482033  0.15705922  0.31332083  1.0
  Nb  Nb271  1  0.07482033  0.49039256  0.31332083  1.0
  Nb  Nb272  1  0.07482033  0.82372589  0.31332083  1.0
  Nb  Nb273  1  0.40815367  0.15705922  0.31332083  1.0
  Nb  Nb274  1  0.40815367  0.49039256  0.31332083  1.0
  Nb  Nb275  1  0.40815367  0.82372589  0.31332083  1.0
  Nb  Nb276  1  0.74148700  0.15705922  0.31332083  1.0
  Nb  Nb277  1  0.74148700  0.49039256  0.31332083  1.0
  Nb  Nb278  1  0.74148700  0.82372589  0.31332083  1.0
  Nb  Nb279  1  0.29704256  0.28668885  0.25776528  1.0
  Nb  Nb280  1  0.29704256  0.62002219  0.25776528  1.0
  Nb  Nb281  1  0.29704256  0.95335552  0.25776528  1.0
  Nb  Nb282  1  0.63037589  0.28668885  0.25776528  1.0
  Nb  Nb283  1  0.63037589  0.62002219  0.25776528  1.0
  Nb  Nb284  1  0.63037589  0.95335552  0.25776528  1.0
  Nb  Nb285  1  0.96370922  0.28668885  0.25776528  1.0
  Nb  Nb286  1  0.96370922  0.62002219  0.25776528  1.0
  Nb  Nb287  1  0.96370922  0.95335552  0.25776528  1.0
  Nb  Nb288  1  0.29968756  0.16640630  0.22496094  1.0
  Nb  Nb289  1  0.29968756  0.49973963  0.22496094  1.0
  Nb  Nb290  1  0.29968756  0.83307296  0.22496094  1.0
  Nb  Nb291  1  0.63302089  0.16640630  0.22496094  1.0
  Nb  Nb292  1  0.63302089  0.49973963  0.22496094  1.0
  Nb  Nb293  1  0.63302089  0.83307296  0.22496094  1.0
  Nb  Nb294  1  0.96635422  0.16640630  0.22496094  1.0
  Nb  Nb295  1  0.96635422  0.49973963  0.22496094  1.0
  Nb  Nb296  1  0.96635422  0.83307296  0.22496094  1.0
  Nb  Nb297  1  0.07746533  0.03677667  0.28051650  1.0
  Nb  Nb298  1  0.07746533  0.37011000  0.28051650  1.0
  Nb  Nb299  1  0.07746533  0.70344333  0.28051650  1.0
  Nb  Nb300  1  0.41079867  0.03677667  0.28051650  1.0
  Nb  Nb301  1  0.41079867  0.37011000  0.28051650  1.0
  Nb  Nb302  1  0.41079867  0.70344333  0.28051650  1.0
  Nb  Nb303  1  0.74413200  0.03677667  0.28051650  1.0
  Nb  Nb304  1  0.74413200  0.37011000  0.28051650  1.0
  Nb  Nb305  1  0.74413200  0.70344333  0.28051650  1.0
  Nb  Nb306  1  0.13380200  0.20031244  0.32511717  1.0
  Nb  Nb307  1  0.13380200  0.53364578  0.32511717  1.0
  Nb  Nb308  1  0.13380200  0.86697911  0.32511717  1.0
  Nb  Nb309  1  0.46713533  0.20031244  0.32511717  1.0
  Nb  Nb310  1  0.46713533  0.53364578  0.32511717  1.0
  Nb  Nb311  1  0.46713533  0.86697911  0.32511717  1.0
  Nb  Nb312  1  0.80046867  0.20031244  0.32511717  1.0
  Nb  Nb313  1  0.80046867  0.53364578  0.32511717  1.0
  Nb  Nb314  1  0.80046867  0.86697911  0.32511717  1.0
  Nb  Nb315  1  0.02269089  0.32994207  0.26956161  1.0
  Nb  Nb316  1  0.02269089  0.66327541  0.26956161  1.0
  Nb  Nb317  1  0.02269089  0.99660874  0.26956161  1.0
  Nb  Nb318  1  0.35602422  0.32994207  0.26956161  1.0
  Nb  Nb319  1  0.35602422  0.66327541  0.26956161  1.0
  Nb  Nb320  1  0.35602422  0.99660874  0.26956161  1.0
  Nb  Nb321  1  0.68935756  0.32994207  0.26956161  1.0
  Nb  Nb322  1  0.68935756  0.66327541  0.26956161  1.0
  Nb  Nb323  1  0.68935756  0.99660874  0.26956161  1.0
  Nb  Nb324  1  0.01194533  0.02206200  0.36741250  1.0
  Nb  Nb325  1  0.01194533  0.35539533  0.36741250  1.0
  Nb  Nb326  1  0.01194533  0.68872867  0.36741250  1.0
  Nb  Nb327  1  0.34527867  0.02206200  0.36741250  1.0
  Nb  Nb328  1  0.34527867  0.35539533  0.36741250  1.0
  Nb  Nb329  1  0.34527867  0.68872867  0.36741250  1.0
  Nb  Nb330  1  0.67861200  0.02206200  0.36741250  1.0
  Nb  Nb331  1  0.67861200  0.35539533  0.36741250  1.0
  Nb  Nb332  1  0.67861200  0.68872867  0.36741250  1.0
  Nb  Nb333  1  0.12305644  0.22576570  0.42296806  1.0
  Nb  Nb334  1  0.12305644  0.55909904  0.42296806  1.0
  Nb  Nb335  1  0.12305644  0.89243237  0.42296806  1.0
  Nb  Nb336  1  0.45638978  0.22576570  0.42296806  1.0
  Nb  Nb337  1  0.45638978  0.55909904  0.42296806  1.0
  Nb  Nb338  1  0.45638978  0.89243237  0.42296806  1.0
  Nb  Nb339  1  0.78972311  0.22576570  0.42296806  1.0
  Nb  Nb340  1  0.78972311  0.55909904  0.42296806  1.0
  Nb  Nb341  1  0.78972311  0.89243237  0.42296806  1.0
  Nb  Nb342  1  0.19932200  0.15947156  0.40488783  1.0
  Nb  Nb343  1  0.19932200  0.49280489  0.40488783  1.0
  Nb  Nb344  1  0.19932200  0.82613822  0.40488783  1.0
  Nb  Nb345  1  0.53265533  0.15947156  0.40488783  1.0
  Nb  Nb346  1  0.53265533  0.49280489  0.40488783  1.0
  Nb  Nb347  1  0.53265533  0.82613822  0.40488783  1.0
  Nb  Nb348  1  0.86598867  0.15947156  0.40488783  1.0
  Nb  Nb349  1  0.86598867  0.49280489  0.40488783  1.0
  Nb  Nb350  1  0.86598867  0.82613822  0.40488783  1.0
  Nb  Nb351  1  0.08821089  0.28910119  0.34933228  1.0
  Nb  Nb352  1  0.08821089  0.62243452  0.34933228  1.0
  Nb  Nb353  1  0.08821089  0.95576785  0.34933228  1.0
  Nb  Nb354  1  0.42154422  0.28910119  0.34933228  1.0
  Nb  Nb355  1  0.42154422  0.62243452  0.34933228  1.0
  Nb  Nb356  1  0.42154422  0.95576785  0.34933228  1.0
  Nb  Nb357  1  0.75487756  0.28910119  0.34933228  1.0
  Nb  Nb358  1  0.75487756  0.62243452  0.34933228  1.0
  Nb  Nb359  1  0.75487756  0.95576785  0.34933228  1.0
  Nb  Nb360  1  0.24755811  0.28373359  0.34786839  1.0
  Nb  Nb361  1  0.24755811  0.61706693  0.34786839  1.0
  Nb  Nb362  1  0.24755811  0.95040026  0.34786839  1.0
  Nb  Nb363  1  0.58089144  0.28373359  0.34786839  1.0
  Nb  Nb364  1  0.58089144  0.61706693  0.34786839  1.0
  Nb  Nb365  1  0.58089144  0.95040026  0.34786839  1.0
  Nb  Nb366  1  0.91422478  0.28373359  0.34786839  1.0
  Nb  Nb367  1  0.91422478  0.61706693  0.34786839  1.0
  Nb  Nb368  1  0.91422478  0.95040026  0.34786839  1.0
  Nb  Nb369  1  0.02533589  0.15410396  0.40342394  1.0
  Nb  Nb370  1  0.02533589  0.48743730  0.40342394  1.0
  Nb  Nb371  1  0.02533589  0.82077063  0.40342394  1.0
  Nb  Nb372  1  0.35866922  0.15410396  0.40342394  1.0
  Nb  Nb373  1  0.35866922  0.48743730  0.40342394  1.0
  Nb  Nb374  1  0.35866922  0.82077063  0.40342394  1.0
  Nb  Nb375  1  0.69200256  0.15410396  0.40342394  1.0
  Nb  Nb376  1  0.69200256  0.48743730  0.40342394  1.0
  Nb  Nb377  1  0.69200256  0.82077063  0.40342394  1.0
  Nb  Nb378  1  0.29704256  0.23113330  0.42443194  1.0
  Nb  Nb379  1  0.29704256  0.56446663  0.42443194  1.0
  Nb  Nb380  1  0.29704256  0.89779996  0.42443194  1.0
  Nb  Nb381  1  0.63037589  0.23113330  0.42443194  1.0
  Nb  Nb382  1  0.63037589  0.56446663  0.42443194  1.0
  Nb  Nb383  1  0.63037589  0.89779996  0.42443194  1.0
  Nb  Nb384  1  0.96370922  0.23113330  0.42443194  1.0
  Nb  Nb385  1  0.96370922  0.56446663  0.42443194  1.0
  Nb  Nb386  1  0.96370922  0.89779996  0.42443194  1.0
  Nb  Nb387  1  0.18593144  0.02742959  0.36887639  1.0
  Nb  Nb388  1  0.18593144  0.36076293  0.36887639  1.0
  Nb  Nb389  1  0.18593144  0.69409626  0.36887639  1.0
  Nb  Nb390  1  0.51926478  0.02742959  0.36887639  1.0
  Nb  Nb391  1  0.51926478  0.36076293  0.36887639  1.0
  Nb  Nb392  1  0.51926478  0.69409626  0.36887639  1.0
  Nb  Nb393  1  0.85259811  0.02742959  0.36887639  1.0
  Nb  Nb394  1  0.85259811  0.36076293  0.36887639  1.0
  Nb  Nb395  1  0.85259811  0.69409626  0.36887639  1.0
  Nb  Nb396  1  0.18857644  0.24048037  0.33607206  1.0
  Nb  Nb397  1  0.18857644  0.57381370  0.33607206  1.0
  Nb  Nb398  1  0.18857644  0.90714704  0.33607206  1.0
  Nb  Nb399  1  0.52190978  0.24048037  0.33607206  1.0
  Nb  Nb400  1  0.52190978  0.57381370  0.33607206  1.0
  Nb  Nb401  1  0.52190978  0.90714704  0.33607206  1.0
  Nb  Nb402  1  0.85524311  0.24048037  0.33607206  1.0
  Nb  Nb403  1  0.85524311  0.57381370  0.33607206  1.0
  Nb  Nb404  1  0.85524311  0.90714704  0.33607206  1.0
  Nb  Nb405  1  0.29968756  0.11085074  0.39162761  1.0
  Nb  Nb406  1  0.29968756  0.44418407  0.39162761  1.0
  Nb  Nb407  1  0.29968756  0.77751741  0.39162761  1.0
  Nb  Nb408  1  0.63302089  0.11085074  0.39162761  1.0
  Nb  Nb409  1  0.63302089  0.44418407  0.39162761  1.0
  Nb  Nb410  1  0.63302089  0.77751741  0.39162761  1.0
  Nb  Nb411  1  0.96635422  0.11085074  0.39162761  1.0
  Nb  Nb412  1  0.96635422  0.44418407  0.39162761  1.0
  Nb  Nb413  1  0.96635422  0.77751741  0.39162761  1.0
  Nb  Nb414  1  0.02269089  0.27438652  0.43622828  1.0
  Nb  Nb415  1  0.02269089  0.60771985  0.43622828  1.0
  Nb  Nb416  1  0.02269089  0.94105319  0.43622828  1.0
  Nb  Nb417  1  0.35602422  0.27438652  0.43622828  1.0
  Nb  Nb418  1  0.35602422  0.60771985  0.43622828  1.0
  Nb  Nb419  1  0.35602422  0.94105319  0.43622828  1.0
  Nb  Nb420  1  0.68935756  0.27438652  0.43622828  1.0
  Nb  Nb421  1  0.68935756  0.60771985  0.43622828  1.0
  Nb  Nb422  1  0.68935756  0.94105319  0.43622828  1.0
  Nb  Nb423  1  0.24491311  0.07068281  0.38067272  1.0
  Nb  Nb424  1  0.24491311  0.40401615  0.38067272  1.0
  Nb  Nb425  1  0.24491311  0.73734948  0.38067272  1.0
  Nb  Nb426  1  0.57824644  0.07068281  0.38067272  1.0
  Nb  Nb427  1  0.57824644  0.40401615  0.38067272  1.0
  Nb  Nb428  1  0.57824644  0.73734948  0.38067272  1.0
  Nb  Nb429  1  0.91157978  0.07068281  0.38067272  1.0
  Nb  Nb430  1  0.91157978  0.40401615  0.38067272  1.0
  Nb  Nb431  1  0.91157978  0.73734948  0.38067272  1.0
  Ni  Ni432  1  0.10563367  0.20187789  0.05281683  1.0
  Ni  Ni433  1  0.10563367  0.53521122  0.05281683  1.0
  Ni  Ni434  1  0.10563367  0.86854456  0.05281683  1.0
  Ni  Ni435  1  0.43896700  0.20187789  0.05281683  1.0
  Ni  Ni436  1  0.43896700  0.53521122  0.05281683  1.0
  Ni  Ni437  1  0.43896700  0.86854456  0.05281683  1.0
  Ni  Ni438  1  0.77230033  0.20187789  0.05281683  1.0
  Ni  Ni439  1  0.77230033  0.53521122  0.05281683  1.0
  Ni  Ni440  1  0.77230033  0.86854456  0.05281683  1.0
  Ni  Ni441  1  0.21674478  0.07224826  0.10837239  1.0
  Ni  Ni442  1  0.21674478  0.40558159  0.10837239  1.0
  Ni  Ni443  1  0.21674478  0.73891493  0.10837239  1.0
  Ni  Ni444  1  0.55007811  0.07224826  0.10837239  1.0
  Ni  Ni445  1  0.55007811  0.40558159  0.10837239  1.0
  Ni  Ni446  1  0.55007811  0.73891493  0.10837239  1.0
  Ni  Ni447  1  0.88341144  0.07224826  0.10837239  1.0
  Ni  Ni448  1  0.88341144  0.40558159  0.10837239  1.0
  Ni  Ni449  1  0.88341144  0.73891493  0.10837239  1.0
  Ni  Ni450  1  0.16630322  0.20197752  0.09824428  1.0
  Ni  Ni451  1  0.16630322  0.53531085  0.09824428  1.0
  Ni  Ni452  1  0.16630322  0.86864419  0.09824428  1.0
  Ni  Ni453  1  0.49963656  0.20197752  0.09824428  1.0
  Ni  Ni454  1  0.49963656  0.53531085  0.09824428  1.0
  Ni  Ni455  1  0.49963656  0.86864419  0.09824428  1.0
  Ni  Ni456  1  0.83296989  0.20197752  0.09824428  1.0
  Ni  Ni457  1  0.83296989  0.53531085  0.09824428  1.0
  Ni  Ni458  1  0.83296989  0.86864419  0.09824428  1.0
  Ni  Ni459  1  0.05519211  0.33160715  0.04268872  1.0
  Ni  Ni460  1  0.05519211  0.66494048  0.04268872  1.0
  Ni  Ni461  1  0.05519211  0.99827381  0.04268872  1.0
  Ni  Ni462  1  0.38852544  0.33160715  0.04268872  1.0
  Ni  Ni463  1  0.38852544  0.66494048  0.04268872  1.0
  Ni  Ni464  1  0.38852544  0.99827381  0.04268872  1.0
  Ni  Ni465  1  0.72185878  0.33160715  0.04268872  1.0
  Ni  Ni466  1  0.72185878  0.66494048  0.04268872  1.0
  Ni  Ni467  1  0.72185878  0.99827381  0.04268872  1.0
  Ni  Ni468  1  0.27741433  0.10009250  0.07056600  1.0
  Ni  Ni469  1  0.27741433  0.43342583  0.07056600  1.0
  Ni  Ni470  1  0.27741433  0.76675917  0.07056600  1.0
  Ni  Ni471  1  0.61074767  0.10009250  0.07056600  1.0
  Ni  Ni472  1  0.61074767  0.43342583  0.07056600  1.0
  Ni  Ni473  1  0.61074767  0.76675917  0.07056600  1.0
  Ni  Ni474  1  0.94408100  0.10009250  0.07056600  1.0
  Ni  Ni475  1  0.94408100  0.43342583  0.07056600  1.0
  Ni  Ni476  1  0.94408100  0.76675917  0.07056600  1.0
  Ni  Ni477  1  0.16630322  0.22972213  0.01501044  1.0
  Ni  Ni478  1  0.16630322  0.56305546  0.01501044  1.0
  Ni  Ni479  1  0.16630322  0.89638880  0.01501044  1.0
  Ni  Ni480  1  0.49963656  0.22972213  0.01501044  1.0
  Ni  Ni481  1  0.49963656  0.56305546  0.01501044  1.0
  Ni  Ni482  1  0.49963656  0.89638880  0.01501044  1.0
  Ni  Ni483  1  0.83296989  0.22972213  0.01501044  1.0
  Ni  Ni484  1  0.83296989  0.56305546  0.01501044  1.0
  Ni  Ni485  1  0.83296989  0.89638880  0.01501044  1.0
  Ni  Ni486  1  0.33303622  0.06301124  0.01494411  1.0
  Ni  Ni487  1  0.33303622  0.39634457  0.01494411  1.0
  Ni  Ni488  1  0.33303622  0.72967791  0.01494411  1.0
  Ni  Ni489  1  0.66636956  0.06301124  0.01494411  1.0
  Ni  Ni490  1  0.66636956  0.39634457  0.01494411  1.0
  Ni  Ni491  1  0.66636956  0.72967791  0.01494411  1.0
  Ni  Ni492  1  0.99970289  0.06301124  0.01494411  1.0
  Ni  Ni493  1  0.99970289  0.39634457  0.01494411  1.0
  Ni  Ni494  1  0.99970289  0.72967791  0.01494411  1.0
  Ni  Ni495  1  0.11081400  0.26671494  0.07049967  1.0
  Ni  Ni496  1  0.11081400  0.60004828  0.07049967  1.0
  Ni  Ni497  1  0.11081400  0.93338161  0.07049967  1.0
  Ni  Ni498  1  0.44414733  0.26671494  0.07049967  1.0
  Ni  Ni499  1  0.44414733  0.60004828  0.07049967  1.0
  Ni  Ni500  1  0.44414733  0.93338161  0.07049967  1.0
  Ni  Ni501  1  0.77748067  0.26671494  0.07049967  1.0
  Ni  Ni502  1  0.77748067  0.60004828  0.07049967  1.0
  Ni  Ni503  1  0.77748067  0.93338161  0.07049967  1.0
  Ni  Ni504  1  0.04496411  0.20177826  0.00738939  1.0
  Ni  Ni505  1  0.04496411  0.53511159  0.00738939  1.0
  Ni  Ni506  1  0.04496411  0.86844493  0.00738939  1.0
  Ni  Ni507  1  0.37829744  0.20177826  0.00738939  1.0
  Ni  Ni508  1  0.37829744  0.53511159  0.00738939  1.0
  Ni  Ni509  1  0.37829744  0.86844493  0.00738939  1.0
  Ni  Ni510  1  0.71163078  0.20177826  0.00738939  1.0
  Ni  Ni511  1  0.71163078  0.53511159  0.00738939  1.0
  Ni  Ni512  1  0.71163078  0.86844493  0.00738939  1.0
  Ni  Ni513  1  0.15607522  0.07214863  0.06294494  1.0
  Ni  Ni514  1  0.15607522  0.40548196  0.06294494  1.0
  Ni  Ni515  1  0.15607522  0.73881530  0.06294494  1.0
  Ni  Ni516  1  0.48940856  0.07214863  0.06294494  1.0
  Ni  Ni517  1  0.48940856  0.40548196  0.06294494  1.0
  Ni  Ni518  1  0.48940856  0.73881530  0.06294494  1.0
  Ni  Ni519  1  0.82274189  0.07214863  0.06294494  1.0
  Ni  Ni520  1  0.82274189  0.40548196  0.06294494  1.0
  Ni  Ni521  1  0.82274189  0.73881530  0.06294494  1.0
  Ni  Ni522  1  0.26718633  0.30366328  0.03506767  1.0
  Ni  Ni523  1  0.26718633  0.63699661  0.03506767  1.0
  Ni  Ni524  1  0.26718633  0.97032994  0.03506767  1.0
  Ni  Ni525  1  0.60051967  0.30366328  0.03506767  1.0
  Ni  Ni526  1  0.60051967  0.63699661  0.03506767  1.0
  Ni  Ni527  1  0.60051967  0.97032994  0.03506767  1.0
  Ni  Ni528  1  0.93385300  0.30366328  0.03506767  1.0
  Ni  Ni529  1  0.93385300  0.63699661  0.03506767  1.0
  Ni  Ni530  1  0.93385300  0.97032994  0.03506767  1.0
  Ni  Ni531  1  0.04496411  0.17403365  0.09062322  1.0
  Ni  Ni532  1  0.04496411  0.50736698  0.09062322  1.0
  Ni  Ni533  1  0.04496411  0.84070031  0.09062322  1.0
  Ni  Ni534  1  0.37829744  0.17403365  0.09062322  1.0
  Ni  Ni535  1  0.37829744  0.50736698  0.09062322  1.0
  Ni  Ni536  1  0.37829744  0.84070031  0.09062322  1.0
  Ni  Ni537  1  0.71163078  0.17403365  0.09062322  1.0
  Ni  Ni538  1  0.71163078  0.50736698  0.09062322  1.0
  Ni  Ni539  1  0.71163078  0.84070031  0.09062322  1.0
  Ni  Ni540  1  0.21156444  0.00741120  0.09068956  1.0
  Ni  Ni541  1  0.21156444  0.34074454  0.09068956  1.0
  Ni  Ni542  1  0.21156444  0.67407787  0.09068956  1.0
  Ni  Ni543  1  0.54489778  0.00741120  0.09068956  1.0
  Ni  Ni544  1  0.54489778  0.34074454  0.09068956  1.0
  Ni  Ni545  1  0.54489778  0.67407787  0.09068956  1.0
  Ni  Ni546  1  0.87823111  0.00741120  0.09068956  1.0
  Ni  Ni547  1  0.87823111  0.34074454  0.09068956  1.0
  Ni  Ni548  1  0.87823111  0.67407787  0.09068956  1.0
  Ni  Ni549  1  0.10045333  0.13704083  0.03513400  1.0
  Ni  Ni550  1  0.10045333  0.47037417  0.03513400  1.0
  Ni  Ni551  1  0.10045333  0.80370750  0.03513400  1.0
  Ni  Ni552  1  0.43378667  0.13704083  0.03513400  1.0
  Ni  Ni553  1  0.43378667  0.47037417  0.03513400  1.0
  Ni  Ni554  1  0.43378667  0.80370750  0.03513400  1.0
  Ni  Ni555  1  0.76712000  0.13704083  0.03513400  1.0
  Ni  Ni556  1  0.76712000  0.47037417  0.03513400  1.0
  Ni  Ni557  1  0.76712000  0.80370750  0.03513400  1.0
  Ni  Ni558  1  0.32785589  0.27595196  0.16392794  1.0
  Ni  Ni559  1  0.32785589  0.60928530  0.16392794  1.0
  Ni  Ni560  1  0.32785589  0.94261863  0.16392794  1.0
  Ni  Ni561  1  0.66118922  0.27595196  0.16392794  1.0
  Ni  Ni562  1  0.66118922  0.60928530  0.16392794  1.0
  Ni  Ni563  1  0.66118922  0.94261863  0.16392794  1.0
  Ni  Ni564  1  0.99452256  0.27595196  0.16392794  1.0
  Ni  Ni565  1  0.99452256  0.60928530  0.16392794  1.0
  Ni  Ni566  1  0.99452256  0.94261863  0.16392794  1.0
  Ni  Ni567  1  0.10563367  0.14632233  0.21948350  1.0
  Ni  Ni568  1  0.10563367  0.47965567  0.21948350  1.0
  Ni  Ni569  1  0.10563367  0.81298900  0.21948350  1.0
  Ni  Ni570  1  0.43896700  0.14632233  0.21948350  1.0
  Ni  Ni571  1  0.43896700  0.47965567  0.21948350  1.0
  Ni  Ni572  1  0.43896700  0.81298900  0.21948350  1.0
  Ni  Ni573  1  0.77230033  0.14632233  0.21948350  1.0
  Ni  Ni574  1  0.77230033  0.47965567  0.21948350  1.0
  Ni  Ni575  1  0.77230033  0.81298900  0.21948350  1.0
  Ni  Ni576  1  0.05519211  0.27605159  0.20935539  1.0
  Ni  Ni577  1  0.05519211  0.60938493  0.20935539  1.0
  Ni  Ni578  1  0.05519211  0.94271826  0.20935539  1.0
  Ni  Ni579  1  0.38852544  0.27605159  0.20935539  1.0
  Ni  Ni580  1  0.38852544  0.60938493  0.20935539  1.0
  Ni  Ni581  1  0.38852544  0.94271826  0.20935539  1.0
  Ni  Ni582  1  0.72185878  0.27605159  0.20935539  1.0
  Ni  Ni583  1  0.72185878  0.60938493  0.20935539  1.0
  Ni  Ni584  1  0.72185878  0.94271826  0.20935539  1.0
  Ni  Ni585  1  0.27741433  0.07234789  0.15379983  1.0
  Ni  Ni586  1  0.27741433  0.40568122  0.15379983  1.0
  Ni  Ni587  1  0.27741433  0.73901456  0.15379983  1.0
  Ni  Ni588  1  0.61074767  0.07234789  0.15379983  1.0
  Ni  Ni589  1  0.61074767  0.40568122  0.15379983  1.0
  Ni  Ni590  1  0.61074767  0.73901456  0.15379983  1.0
  Ni  Ni591  1  0.94408100  0.07234789  0.15379983  1.0
  Ni  Ni592  1  0.94408100  0.40568122  0.15379983  1.0
  Ni  Ni593  1  0.94408100  0.73901456  0.15379983  1.0
  Ni  Ni594  1  0.16630322  0.17416657  0.18167711  1.0
  Ni  Ni595  1  0.16630322  0.50749991  0.18167711  1.0
  Ni  Ni596  1  0.16630322  0.84083324  0.18167711  1.0
  Ni  Ni597  1  0.49963656  0.17416657  0.18167711  1.0
  Ni  Ni598  1  0.49963656  0.50749991  0.18167711  1.0
  Ni  Ni599  1  0.49963656  0.84083324  0.18167711  1.0
  Ni  Ni600  1  0.83296989  0.17416657  0.18167711  1.0
  Ni  Ni601  1  0.83296989  0.50749991  0.18167711  1.0
  Ni  Ni602  1  0.83296989  0.84083324  0.18167711  1.0
  Ni  Ni603  1  0.05519211  0.30379620  0.12612156  1.0
  Ni  Ni604  1  0.05519211  0.63712954  0.12612156  1.0
  Ni  Ni605  1  0.05519211  0.97046287  0.12612156  1.0
  Ni  Ni606  1  0.38852544  0.30379620  0.12612156  1.0
  Ni  Ni607  1  0.38852544  0.63712954  0.12612156  1.0
  Ni  Ni608  1  0.38852544  0.97046287  0.12612156  1.0
  Ni  Ni609  1  0.72185878  0.30379620  0.12612156  1.0
  Ni  Ni610  1  0.72185878  0.63712954  0.12612156  1.0
  Ni  Ni611  1  0.72185878  0.97046287  0.12612156  1.0
  Ni  Ni612  1  0.22192511  0.13708531  0.12605522  1.0
  Ni  Ni613  1  0.22192511  0.47041865  0.12605522  1.0
  Ni  Ni614  1  0.22192511  0.80375198  0.12605522  1.0
  Ni  Ni615  1  0.55525844  0.13708531  0.12605522  1.0
  Ni  Ni616  1  0.55525844  0.47041865  0.12605522  1.0
  Ni  Ni617  1  0.55525844  0.80375198  0.12605522  1.0
  Ni  Ni618  1  0.88859178  0.13708531  0.12605522  1.0
  Ni  Ni619  1  0.88859178  0.47041865  0.12605522  1.0
  Ni  Ni620  1  0.88859178  0.80375198  0.12605522  1.0
  Ni  Ni621  1  0.33303622  0.00745569  0.18161078  1.0
  Ni  Ni622  1  0.33303622  0.34078902  0.18161078  1.0
  Ni  Ni623  1  0.33303622  0.67412235  0.18161078  1.0
  Ni  Ni624  1  0.66636956  0.00745569  0.18161078  1.0
  Ni  Ni625  1  0.66636956  0.34078902  0.18161078  1.0
  Ni  Ni626  1  0.66636956  0.67412235  0.18161078  1.0
  Ni  Ni627  1  0.99970289  0.00745569  0.18161078  1.0
  Ni  Ni628  1  0.99970289  0.34078902  0.18161078  1.0
  Ni  Ni629  1  0.99970289  0.67412235  0.18161078  1.0
  Ni  Ni630  1  0.26718633  0.27585233  0.11850050  1.0
  Ni  Ni631  1  0.26718633  0.60918567  0.11850050  1.0
  Ni  Ni632  1  0.26718633  0.94251900  0.11850050  1.0
  Ni  Ni633  1  0.60051967  0.27585233  0.11850050  1.0
  Ni  Ni634  1  0.60051967  0.60918567  0.11850050  1.0
  Ni  Ni635  1  0.60051967  0.94251900  0.11850050  1.0
  Ni  Ni636  1  0.93385300  0.27585233  0.11850050  1.0
  Ni  Ni637  1  0.93385300  0.60918567  0.11850050  1.0
  Ni  Ni638  1  0.93385300  0.94251900  0.11850050  1.0
  Ni  Ni639  1  0.04496411  0.14622270  0.17405606  1.0
  Ni  Ni640  1  0.04496411  0.47955604  0.17405606  1.0
  Ni  Ni641  1  0.04496411  0.81288937  0.17405606  1.0
  Ni  Ni642  1  0.37829744  0.14622270  0.17405606  1.0
  Ni  Ni643  1  0.37829744  0.47955604  0.17405606  1.0
  Ni  Ni644  1  0.37829744  0.81288937  0.17405606  1.0
  Ni  Ni645  1  0.71163078  0.14622270  0.17405606  1.0
  Ni  Ni646  1  0.71163078  0.47955604  0.17405606  1.0
  Ni  Ni647  1  0.71163078  0.81288937  0.17405606  1.0
  Ni  Ni648  1  0.15607522  0.04440402  0.14617878  1.0
  Ni  Ni649  1  0.15607522  0.37773735  0.14617878  1.0
  Ni  Ni650  1  0.15607522  0.71107069  0.14617878  1.0
  Ni  Ni651  1  0.48940856  0.04440402  0.14617878  1.0
  Ni  Ni652  1  0.48940856  0.37773735  0.14617878  1.0
  Ni  Ni653  1  0.48940856  0.71107069  0.14617878  1.0
  Ni  Ni654  1  0.82274189  0.04440402  0.14617878  1.0
  Ni  Ni655  1  0.82274189  0.37773735  0.14617878  1.0
  Ni  Ni656  1  0.82274189  0.71107069  0.14617878  1.0
  Ni  Ni657  1  0.26718633  0.24810772  0.20173433  1.0
  Ni  Ni658  1  0.26718633  0.58144106  0.20173433  1.0
  Ni  Ni659  1  0.26718633  0.91477439  0.20173433  1.0
  Ni  Ni660  1  0.60051967  0.24810772  0.20173433  1.0
  Ni  Ni661  1  0.60051967  0.58144106  0.20173433  1.0
  Ni  Ni662  1  0.60051967  0.91477439  0.20173433  1.0
  Ni  Ni663  1  0.93385300  0.24810772  0.20173433  1.0
  Ni  Ni664  1  0.93385300  0.58144106  0.20173433  1.0
  Ni  Ni665  1  0.93385300  0.91477439  0.20173433  1.0
  Ni  Ni666  1  0.10045333  0.08148528  0.20180067  1.0
  Ni  Ni667  1  0.10045333  0.41481861  0.20180067  1.0
  Ni  Ni668  1  0.10045333  0.74815194  0.20180067  1.0
  Ni  Ni669  1  0.43378667  0.08148528  0.20180067  1.0
  Ni  Ni670  1  0.43378667  0.41481861  0.20180067  1.0
  Ni  Ni671  1  0.43378667  0.74815194  0.20180067  1.0
  Ni  Ni672  1  0.76712000  0.08148528  0.20180067  1.0
  Ni  Ni673  1  0.76712000  0.41481861  0.20180067  1.0
  Ni  Ni674  1  0.76712000  0.74815194  0.20180067  1.0
  Ni  Ni675  1  0.32267556  0.21111491  0.14624511  1.0
  Ni  Ni676  1  0.32267556  0.54444824  0.14624511  1.0
  Ni  Ni677  1  0.32267556  0.87778157  0.14624511  1.0
  Ni  Ni678  1  0.65600889  0.21111491  0.14624511  1.0
  Ni  Ni679  1  0.65600889  0.54444824  0.14624511  1.0
  Ni  Ni680  1  0.65600889  0.87778157  0.14624511  1.0
  Ni  Ni681  1  0.98934222  0.21111491  0.14624511  1.0
  Ni  Ni682  1  0.98934222  0.54444824  0.14624511  1.0
  Ni  Ni683  1  0.98934222  0.87778157  0.14624511  1.0
  Ni  Ni684  1  0.21674478  0.01669270  0.27503906  1.0
  Ni  Ni685  1  0.21674478  0.35002604  0.27503906  1.0
  Ni  Ni686  1  0.21674478  0.68335937  0.27503906  1.0
  Ni  Ni687  1  0.55007811  0.01669270  0.27503906  1.0
  Ni  Ni688  1  0.55007811  0.35002604  0.27503906  1.0
  Ni  Ni689  1  0.55007811  0.68335937  0.27503906  1.0
  Ni  Ni690  1  0.88341144  0.01669270  0.27503906  1.0
  Ni  Ni691  1  0.88341144  0.35002604  0.27503906  1.0
  Ni  Ni692  1  0.88341144  0.68335937  0.27503906  1.0
  Ni  Ni693  1  0.32785589  0.22039641  0.33059461  1.0
  Ni  Ni694  1  0.32785589  0.55372974  0.33059461  1.0
  Ni  Ni695  1  0.32785589  0.88706307  0.33059461  1.0
  Ni  Ni696  1  0.66118922  0.22039641  0.33059461  1.0
  Ni  Ni697  1  0.66118922  0.55372974  0.33059461  1.0
  Ni  Ni698  1  0.66118922  0.88706307  0.33059461  1.0
  Ni  Ni699  1  0.99452256  0.22039641  0.33059461  1.0
  Ni  Ni700  1  0.99452256  0.55372974  0.33059461  1.0
  Ni  Ni701  1  0.99452256  0.88706307  0.33059461  1.0
  Ni  Ni702  1  0.27741433  0.01679233  0.32046650  1.0
  Ni  Ni703  1  0.27741433  0.35012567  0.32046650  1.0
  Ni  Ni704  1  0.27741433  0.68345900  0.32046650  1.0
  Ni  Ni705  1  0.61074767  0.01679233  0.32046650  1.0
  Ni  Ni706  1  0.61074767  0.35012567  0.32046650  1.0
  Ni  Ni707  1  0.61074767  0.68345900  0.32046650  1.0
  Ni  Ni708  1  0.94408100  0.01679233  0.32046650  1.0
  Ni  Ni709  1  0.94408100  0.35012567  0.32046650  1.0
  Ni  Ni710  1  0.94408100  0.68345900  0.32046650  1.0
  Ni  Ni711  1  0.16630322  0.14642196  0.26491094  1.0
  Ni  Ni712  1  0.16630322  0.47975530  0.26491094  1.0
  Ni  Ni713  1  0.16630322  0.81308863  0.26491094  1.0
  Ni  Ni714  1  0.49963656  0.14642196  0.26491094  1.0
  Ni  Ni715  1  0.49963656  0.47975530  0.26491094  1.0
  Ni  Ni716  1  0.49963656  0.81308863  0.26491094  1.0
  Ni  Ni717  1  0.83296989  0.14642196  0.26491094  1.0
  Ni  Ni718  1  0.83296989  0.47975530  0.26491094  1.0
  Ni  Ni719  1  0.83296989  0.81308863  0.26491094  1.0
  Ni  Ni720  1  0.05519211  0.24824065  0.29278822  1.0
  Ni  Ni721  1  0.05519211  0.58157398  0.29278822  1.0
  Ni  Ni722  1  0.05519211  0.91490731  0.29278822  1.0
  Ni  Ni723  1  0.38852544  0.24824065  0.29278822  1.0
  Ni  Ni724  1  0.38852544  0.58157398  0.29278822  1.0
  Ni  Ni725  1  0.38852544  0.91490731  0.29278822  1.0
  Ni  Ni726  1  0.72185878  0.24824065  0.29278822  1.0
  Ni  Ni727  1  0.72185878  0.58157398  0.29278822  1.0
  Ni  Ni728  1  0.72185878  0.91490731  0.29278822  1.0
  Ni  Ni729  1  0.27741433  0.04453694  0.23723267  1.0
  Ni  Ni730  1  0.27741433  0.37787028  0.23723267  1.0
  Ni  Ni731  1  0.27741433  0.71120361  0.23723267  1.0
  Ni  Ni732  1  0.61074767  0.04453694  0.23723267  1.0
  Ni  Ni733  1  0.61074767  0.37787028  0.23723267  1.0
  Ni  Ni734  1  0.61074767  0.71120361  0.23723267  1.0
  Ni  Ni735  1  0.94408100  0.04453694  0.23723267  1.0
  Ni  Ni736  1  0.94408100  0.37787028  0.23723267  1.0
  Ni  Ni737  1  0.94408100  0.71120361  0.23723267  1.0
  Ni  Ni738  1  0.11081400  0.21115939  0.23716633  1.0
  Ni  Ni739  1  0.11081400  0.54449272  0.23716633  1.0
  Ni  Ni740  1  0.11081400  0.87782606  0.23716633  1.0
  Ni  Ni741  1  0.44414733  0.21115939  0.23716633  1.0
  Ni  Ni742  1  0.44414733  0.54449272  0.23716633  1.0
  Ni  Ni743  1  0.44414733  0.87782606  0.23716633  1.0
  Ni  Ni744  1  0.77748067  0.21115939  0.23716633  1.0
  Ni  Ni745  1  0.77748067  0.54449272  0.23716633  1.0
  Ni  Ni746  1  0.77748067  0.87782606  0.23716633  1.0
  Ni  Ni747  1  0.22192511  0.08152976  0.29272189  1.0
  Ni  Ni748  1  0.22192511  0.41486309  0.29272189  1.0
  Ni  Ni749  1  0.22192511  0.74819643  0.29272189  1.0
  Ni  Ni750  1  0.55525844  0.08152976  0.29272189  1.0
  Ni  Ni751  1  0.55525844  0.41486309  0.29272189  1.0
  Ni  Ni752  1  0.55525844  0.74819643  0.29272189  1.0
  Ni  Ni753  1  0.88859178  0.08152976  0.29272189  1.0
  Ni  Ni754  1  0.88859178  0.41486309  0.29272189  1.0
  Ni  Ni755  1  0.88859178  0.74819643  0.29272189  1.0
  Ni  Ni756  1  0.15607522  0.01659307  0.22961161  1.0
  Ni  Ni757  1  0.15607522  0.34992641  0.22961161  1.0
  Ni  Ni758  1  0.15607522  0.68325974  0.22961161  1.0
  Ni  Ni759  1  0.48940856  0.01659307  0.22961161  1.0
  Ni  Ni760  1  0.48940856  0.34992641  0.22961161  1.0
  Ni  Ni761  1  0.48940856  0.68325974  0.22961161  1.0
  Ni  Ni762  1  0.82274189  0.01659307  0.22961161  1.0
  Ni  Ni763  1  0.82274189  0.34992641  0.22961161  1.0
  Ni  Ni764  1  0.82274189  0.68325974  0.22961161  1.0
  Ni  Ni765  1  0.26718633  0.22029678  0.28516717  1.0
  Ni  Ni766  1  0.26718633  0.55363011  0.28516717  1.0
  Ni  Ni767  1  0.26718633  0.88696344  0.28516717  1.0
  Ni  Ni768  1  0.60051967  0.22029678  0.28516717  1.0
  Ni  Ni769  1  0.60051967  0.55363011  0.28516717  1.0
  Ni  Ni770  1  0.60051967  0.88696344  0.28516717  1.0
  Ni  Ni771  1  0.93385300  0.22029678  0.28516717  1.0
  Ni  Ni772  1  0.93385300  0.55363011  0.28516717  1.0
  Ni  Ni773  1  0.93385300  0.88696344  0.28516717  1.0
  Ni  Ni774  1  0.04496411  0.11847809  0.25728989  1.0
  Ni  Ni775  1  0.04496411  0.45181143  0.25728989  1.0
  Ni  Ni776  1  0.04496411  0.78514476  0.25728989  1.0
  Ni  Ni777  1  0.37829744  0.11847809  0.25728989  1.0
  Ni  Ni778  1  0.37829744  0.45181143  0.25728989  1.0
  Ni  Ni779  1  0.37829744  0.78514476  0.25728989  1.0
  Ni  Ni780  1  0.71163078  0.11847809  0.25728989  1.0
  Ni  Ni781  1  0.71163078  0.45181143  0.25728989  1.0
  Ni  Ni782  1  0.71163078  0.78514476  0.25728989  1.0
  Ni  Ni783  1  0.15607522  0.32218180  0.31284544  1.0
  Ni  Ni784  1  0.15607522  0.65551513  0.31284544  1.0
  Ni  Ni785  1  0.15607522  0.98884846  0.31284544  1.0
  Ni  Ni786  1  0.48940856  0.32218180  0.31284544  1.0
  Ni  Ni787  1  0.48940856  0.65551513  0.31284544  1.0
  Ni  Ni788  1  0.48940856  0.98884846  0.31284544  1.0
  Ni  Ni789  1  0.82274189  0.32218180  0.31284544  1.0
  Ni  Ni790  1  0.82274189  0.65551513  0.31284544  1.0
  Ni  Ni791  1  0.82274189  0.98884846  0.31284544  1.0
  Ni  Ni792  1  0.32267556  0.15555935  0.31291178  1.0
  Ni  Ni793  1  0.32267556  0.48889269  0.31291178  1.0
  Ni  Ni794  1  0.32267556  0.82222602  0.31291178  1.0
  Ni  Ni795  1  0.65600889  0.15555935  0.31291178  1.0
  Ni  Ni796  1  0.65600889  0.48889269  0.31291178  1.0
  Ni  Ni797  1  0.65600889  0.82222602  0.31291178  1.0
  Ni  Ni798  1  0.98934222  0.15555935  0.31291178  1.0
  Ni  Ni799  1  0.98934222  0.48889269  0.31291178  1.0
  Ni  Ni800  1  0.98934222  0.82222602  0.31291178  1.0
  Ni  Ni801  1  0.21156444  0.28518898  0.25735622  1.0
  Ni  Ni802  1  0.21156444  0.61852231  0.25735622  1.0
  Ni  Ni803  1  0.21156444  0.95185565  0.25735622  1.0
  Ni  Ni804  1  0.54489778  0.28518898  0.25735622  1.0
  Ni  Ni805  1  0.54489778  0.61852231  0.25735622  1.0
  Ni  Ni806  1  0.54489778  0.95185565  0.25735622  1.0
  Ni  Ni807  1  0.87823111  0.28518898  0.25735622  1.0
  Ni  Ni808  1  0.87823111  0.61852231  0.25735622  1.0
  Ni  Ni809  1  0.87823111  0.95185565  0.25735622  1.0
  Ni  Ni810  1  0.10563367  0.09076678  0.38615017  1.0
  Ni  Ni811  1  0.10563367  0.42410011  0.38615017  1.0
  Ni  Ni812  1  0.10563367  0.75743344  0.38615017  1.0
  Ni  Ni813  1  0.43896700  0.09076678  0.38615017  1.0
  Ni  Ni814  1  0.43896700  0.42410011  0.38615017  1.0
  Ni  Ni815  1  0.43896700  0.75743344  0.38615017  1.0
  Ni  Ni816  1  0.77230033  0.09076678  0.38615017  1.0
  Ni  Ni817  1  0.77230033  0.42410011  0.38615017  1.0
  Ni  Ni818  1  0.77230033  0.75743344  0.38615017  1.0
  Ni  Ni819  1  0.21674478  0.29447048  0.44170572  1.0
  Ni  Ni820  1  0.21674478  0.62780381  0.44170572  1.0
  Ni  Ni821  1  0.21674478  0.96113715  0.44170572  1.0
  Ni  Ni822  1  0.55007811  0.29447048  0.44170572  1.0
  Ni  Ni823  1  0.55007811  0.62780381  0.44170572  1.0
  Ni  Ni824  1  0.55007811  0.96113715  0.44170572  1.0
  Ni  Ni825  1  0.88341144  0.29447048  0.44170572  1.0
  Ni  Ni826  1  0.88341144  0.62780381  0.44170572  1.0
  Ni  Ni827  1  0.88341144  0.96113715  0.44170572  1.0
  Ni  Ni828  1  0.16630322  0.09086641  0.43157761  1.0
  Ni  Ni829  1  0.16630322  0.42419974  0.43157761  1.0
  Ni  Ni830  1  0.16630322  0.75753307  0.43157761  1.0
  Ni  Ni831  1  0.49963656  0.09086641  0.43157761  1.0
  Ni  Ni832  1  0.49963656  0.42419974  0.43157761  1.0
  Ni  Ni833  1  0.49963656  0.75753307  0.43157761  1.0
  Ni  Ni834  1  0.83296989  0.09086641  0.43157761  1.0
  Ni  Ni835  1  0.83296989  0.42419974  0.43157761  1.0
  Ni  Ni836  1  0.83296989  0.75753307  0.43157761  1.0
  Ni  Ni837  1  0.05519211  0.22049604  0.37602206  1.0
  Ni  Ni838  1  0.05519211  0.55382937  0.37602206  1.0
  Ni  Ni839  1  0.05519211  0.88716270  0.37602206  1.0
  Ni  Ni840  1  0.38852544  0.22049604  0.37602206  1.0
  Ni  Ni841  1  0.38852544  0.55382937  0.37602206  1.0
  Ni  Ni842  1  0.38852544  0.88716270  0.37602206  1.0
  Ni  Ni843  1  0.72185878  0.22049604  0.37602206  1.0
  Ni  Ni844  1  0.72185878  0.55382937  0.37602206  1.0
  Ni  Ni845  1  0.72185878  0.88716270  0.37602206  1.0
  Ni  Ni846  1  0.27741433  0.32231472  0.40389933  1.0
  Ni  Ni847  1  0.27741433  0.65564806  0.40389933  1.0
  Ni  Ni848  1  0.27741433  0.98898139  0.40389933  1.0
  Ni  Ni849  1  0.61074767  0.32231472  0.40389933  1.0
  Ni  Ni850  1  0.61074767  0.65564806  0.40389933  1.0
  Ni  Ni851  1  0.61074767  0.98898139  0.40389933  1.0
  Ni  Ni852  1  0.94408100  0.32231472  0.40389933  1.0
  Ni  Ni853  1  0.94408100  0.65564806  0.40389933  1.0
  Ni  Ni854  1  0.94408100  0.98898139  0.40389933  1.0
  Ni  Ni855  1  0.16630322  0.11861102  0.34834378  1.0
  Ni  Ni856  1  0.16630322  0.45194435  0.34834378  1.0
  Ni  Ni857  1  0.16630322  0.78527769  0.34834378  1.0
  Ni  Ni858  1  0.49963656  0.11861102  0.34834378  1.0
  Ni  Ni859  1  0.49963656  0.45194435  0.34834378  1.0
  Ni  Ni860  1  0.49963656  0.78527769  0.34834378  1.0
  Ni  Ni861  1  0.83296989  0.11861102  0.34834378  1.0
  Ni  Ni862  1  0.83296989  0.45194435  0.34834378  1.0
  Ni  Ni863  1  0.83296989  0.78527769  0.34834378  1.0
  Ni  Ni864  1  0.33303622  0.28523346  0.34827744  1.0
  Ni  Ni865  1  0.33303622  0.61856680  0.34827744  1.0
  Ni  Ni866  1  0.33303622  0.95190013  0.34827744  1.0
  Ni  Ni867  1  0.66636956  0.28523346  0.34827744  1.0
  Ni  Ni868  1  0.66636956  0.61856680  0.34827744  1.0
  Ni  Ni869  1  0.66636956  0.95190013  0.34827744  1.0
  Ni  Ni870  1  0.99970289  0.28523346  0.34827744  1.0
  Ni  Ni871  1  0.99970289  0.61856680  0.34827744  1.0
  Ni  Ni872  1  0.99970289  0.95190013  0.34827744  1.0
  Ni  Ni873  1  0.11081400  0.15560383  0.40383300  1.0
  Ni  Ni874  1  0.11081400  0.48893717  0.40383300  1.0
  Ni  Ni875  1  0.11081400  0.82227050  0.40383300  1.0
  Ni  Ni876  1  0.44414733  0.15560383  0.40383300  1.0
  Ni  Ni877  1  0.44414733  0.48893717  0.40383300  1.0
  Ni  Ni878  1  0.44414733  0.82227050  0.40383300  1.0
  Ni  Ni879  1  0.77748067  0.15560383  0.40383300  1.0
  Ni  Ni880  1  0.77748067  0.48893717  0.40383300  1.0
  Ni  Ni881  1  0.77748067  0.82227050  0.40383300  1.0
  Ni  Ni882  1  0.04496411  0.09066715  0.34072272  1.0
  Ni  Ni883  1  0.04496411  0.42400048  0.34072272  1.0
  Ni  Ni884  1  0.04496411  0.75733381  0.34072272  1.0
  Ni  Ni885  1  0.37829744  0.09066715  0.34072272  1.0
  Ni  Ni886  1  0.37829744  0.42400048  0.34072272  1.0
  Ni  Ni887  1  0.37829744  0.75733381  0.34072272  1.0
  Ni  Ni888  1  0.71163078  0.09066715  0.34072272  1.0
  Ni  Ni889  1  0.71163078  0.42400048  0.34072272  1.0
  Ni  Ni890  1  0.71163078  0.75733381  0.34072272  1.0
  Ni  Ni891  1  0.15607522  0.29437085  0.39627828  1.0
  Ni  Ni892  1  0.15607522  0.62770419  0.39627828  1.0
  Ni  Ni893  1  0.15607522  0.96103752  0.39627828  1.0
  Ni  Ni894  1  0.48940856  0.29437085  0.39627828  1.0
  Ni  Ni895  1  0.48940856  0.62770419  0.39627828  1.0
  Ni  Ni896  1  0.48940856  0.96103752  0.39627828  1.0
  Ni  Ni897  1  0.82274189  0.29437085  0.39627828  1.0
  Ni  Ni898  1  0.82274189  0.62770419  0.39627828  1.0
  Ni  Ni899  1  0.82274189  0.96103752  0.39627828  1.0
  Ni  Ni900  1  0.26718633  0.19255217  0.36840100  1.0
  Ni  Ni901  1  0.26718633  0.52588550  0.36840100  1.0
  Ni  Ni902  1  0.26718633  0.85921883  0.36840100  1.0
  Ni  Ni903  1  0.60051967  0.19255217  0.36840100  1.0
  Ni  Ni904  1  0.60051967  0.52588550  0.36840100  1.0
  Ni  Ni905  1  0.60051967  0.85921883  0.36840100  1.0
  Ni  Ni906  1  0.93385300  0.19255217  0.36840100  1.0
  Ni  Ni907  1  0.93385300  0.52588550  0.36840100  1.0
  Ni  Ni908  1  0.93385300  0.85921883  0.36840100  1.0
  Ni  Ni909  1  0.04496411  0.06292254  0.42395656  1.0
  Ni  Ni910  1  0.04496411  0.39625587  0.42395656  1.0
  Ni  Ni911  1  0.04496411  0.72958920  0.42395656  1.0
  Ni  Ni912  1  0.37829744  0.06292254  0.42395656  1.0
  Ni  Ni913  1  0.37829744  0.39625587  0.42395656  1.0
  Ni  Ni914  1  0.37829744  0.72958920  0.42395656  1.0
  Ni  Ni915  1  0.71163078  0.06292254  0.42395656  1.0
  Ni  Ni916  1  0.71163078  0.39625587  0.42395656  1.0
  Ni  Ni917  1  0.71163078  0.72958920  0.42395656  1.0
  Ni  Ni918  1  0.21156444  0.22963343  0.42402289  1.0
  Ni  Ni919  1  0.21156444  0.56296676  0.42402289  1.0
  Ni  Ni920  1  0.21156444  0.89630009  0.42402289  1.0
  Ni  Ni921  1  0.54489778  0.22963343  0.42402289  1.0
  Ni  Ni922  1  0.54489778  0.56296676  0.42402289  1.0
  Ni  Ni923  1  0.54489778  0.89630009  0.42402289  1.0
  Ni  Ni924  1  0.87823111  0.22963343  0.42402289  1.0
  Ni  Ni925  1  0.87823111  0.56296676  0.42402289  1.0
  Ni  Ni926  1  0.87823111  0.89630009  0.42402289  1.0
  Ni  Ni927  1  0.10045333  0.02592972  0.36846733  1.0
  Ni  Ni928  1  0.10045333  0.35926306  0.36846733  1.0
  Ni  Ni929  1  0.10045333  0.69259639  0.36846733  1.0
  Ni  Ni930  1  0.43378667  0.02592972  0.36846733  1.0
  Ni  Ni931  1  0.43378667  0.35926306  0.36846733  1.0
  Ni  Ni932  1  0.43378667  0.69259639  0.36846733  1.0
  Ni  Ni933  1  0.76712000  0.02592972  0.36846733  1.0
  Ni  Ni934  1  0.76712000  0.35926306  0.36846733  1.0
  Ni  Ni935  1  0.76712000  0.69259639  0.36846733  1.0
