# generated using pymatgen
data_Nb6Ni7
_symmetry_space_group_name_H-M   'P 1'
_cell_length_a   27.82061559
_cell_length_b   80.83906778
_cell_length_c   83.46184677
_cell_angle_alpha   20.50519253
_cell_angle_beta   30.59235483
_cell_angle_gamma   27.28485375
_symmetry_Int_Tables_number   1
_chemical_formula_structural   Nb6Ni7
_chemical_formula_sum   'Nb432 Ni504'
_cell_volume   29666.98457249
_cell_formula_units_Z   72
loop_
 _symmetry_equiv_pos_site_id
 _symmetry_equiv_pos_as_xyz
  1  'x, y, z'
loop_
 _atom_site_type_symbol
 _atom_site_label
 _atom_site_symmetry_multiplicity
 _atom_site_fract_x
 _atom_site_fract_y
 _atom_site_fract_z
 _atom_site_occupancy
  Nb  Nb0  1  0.05621300  0.02810650  0.00685339  1.0
  Nb  Nb1  1  0.05621300  0.36143983  0.00685339  1.0
  Nb  Nb2  1  0.05621300  0.69477317  0.00685339  1.0
  Nb  Nb3  1  0.38954633  0.02810650  0.00685339  1.0
  Nb  Nb4  1  0.38954633  0.36143983  0.00685339  1.0
  Nb  Nb5  1  0.38954633  0.69477317  0.00685339  1.0
  Nb  Nb6  1  0.72287967  0.02810650  0.00685339  1.0
  Nb  Nb7  1  0.72287967  0.36143983  0.00685339  1.0
  Nb  Nb8  1  0.72287967  0.69477317  0.00685339  1.0
  Nb  Nb9  1  0.05621300  0.19477317  0.06240894  1.0
  Nb  Nb10  1  0.05621300  0.52810650  0.06240894  1.0
  Nb  Nb11  1  0.05621300  0.86143983  0.06240894  1.0
  Nb  Nb12  1  0.38954633  0.19477317  0.06240894  1.0
  Nb  Nb13  1  0.38954633  0.52810650  0.06240894  1.0
  Nb  Nb14  1  0.38954633  0.86143983  0.06240894  1.0
  Nb  Nb15  1  0.72287967  0.19477317  0.06240894  1.0
  Nb  Nb16  1  0.72287967  0.52810650  0.06240894  1.0
  Nb  Nb17  1  0.72287967  0.86143983  0.06240894  1.0
  Nb  Nb18  1  0.27712033  0.13856017  0.04367128  1.0
  Nb  Nb19  1  0.27712033  0.47189350  0.04367128  1.0
  Nb  Nb20  1  0.27712033  0.80522683  0.04367128  1.0
  Nb  Nb21  1  0.61045367  0.13856017  0.04367128  1.0
  Nb  Nb22  1  0.61045367  0.47189350  0.04367128  1.0
  Nb  Nb23  1  0.61045367  0.80522683  0.04367128  1.0
  Nb  Nb24  1  0.94378700  0.13856017  0.04367128  1.0
  Nb  Nb25  1  0.94378700  0.47189350  0.04367128  1.0
  Nb  Nb26  1  0.94378700  0.80522683  0.04367128  1.0
  Nb  Nb27  1  0.27712033  0.30522683  0.09922683  1.0
  Nb  Nb28  1  0.27712033  0.63856017  0.09922683  1.0
  Nb  Nb29  1  0.27712033  0.97189350  0.09922683  1.0
  Nb  Nb30  1  0.61045367  0.30522683  0.09922683  1.0
  Nb  Nb31  1  0.61045367  0.63856017  0.09922683  1.0
  Nb  Nb32  1  0.61045367  0.97189350  0.09922683  1.0
  Nb  Nb33  1  0.94378700  0.30522683  0.09922683  1.0
  Nb  Nb34  1  0.94378700  0.63856017  0.09922683  1.0
  Nb  Nb35  1  0.94378700  0.97189350  0.09922683  1.0
  Nb  Nb36  1  0.11484533  0.05742267  0.01662544  1.0
  Nb  Nb37  1  0.11484533  0.39075600  0.01662544  1.0
  Nb  Nb38  1  0.11484533  0.72408933  0.01662544  1.0
  Nb  Nb39  1  0.44817867  0.05742267  0.01662544  1.0
  Nb  Nb40  1  0.44817867  0.39075600  0.01662544  1.0
  Nb  Nb41  1  0.44817867  0.72408933  0.01662544  1.0
  Nb  Nb42  1  0.78151200  0.05742267  0.01662544  1.0
  Nb  Nb43  1  0.78151200  0.39075600  0.01662544  1.0
  Nb  Nb44  1  0.78151200  0.72408933  0.01662544  1.0
  Nb  Nb45  1  0.11484533  0.22408933  0.07218100  1.0
  Nb  Nb46  1  0.11484533  0.55742267  0.07218100  1.0
  Nb  Nb47  1  0.11484533  0.89075600  0.07218100  1.0
  Nb  Nb48  1  0.44817867  0.22408933  0.07218100  1.0
  Nb  Nb49  1  0.44817867  0.55742267  0.07218100  1.0
  Nb  Nb50  1  0.44817867  0.89075600  0.07218100  1.0
  Nb  Nb51  1  0.78151200  0.22408933  0.07218100  1.0
  Nb  Nb52  1  0.78151200  0.55742267  0.07218100  1.0
  Nb  Nb53  1  0.78151200  0.89075600  0.07218100  1.0
  Nb  Nb54  1  0.21848800  0.10924400  0.03389922  1.0
  Nb  Nb55  1  0.21848800  0.44257733  0.03389922  1.0
  Nb  Nb56  1  0.21848800  0.77591067  0.03389922  1.0
  Nb  Nb57  1  0.55182133  0.10924400  0.03389922  1.0
  Nb  Nb58  1  0.55182133  0.44257733  0.03389922  1.0
  Nb  Nb59  1  0.55182133  0.77591067  0.03389922  1.0
  Nb  Nb60  1  0.88515467  0.10924400  0.03389922  1.0
  Nb  Nb61  1  0.88515467  0.44257733  0.03389922  1.0
  Nb  Nb62  1  0.88515467  0.77591067  0.03389922  1.0
  Nb  Nb63  1  0.21848800  0.27591067  0.08945478  1.0
  Nb  Nb64  1  0.21848800  0.60924400  0.08945478  1.0
  Nb  Nb65  1  0.21848800  0.94257733  0.08945478  1.0
  Nb  Nb66  1  0.55182133  0.27591067  0.08945478  1.0
  Nb  Nb67  1  0.55182133  0.60924400  0.08945478  1.0
  Nb  Nb68  1  0.55182133  0.94257733  0.08945478  1.0
  Nb  Nb69  1  0.88515467  0.27591067  0.08945478  1.0
  Nb  Nb70  1  0.88515467  0.60924400  0.08945478  1.0
  Nb  Nb71  1  0.88515467  0.94257733  0.08945478  1.0
  Nb  Nb72  1  0.15023433  0.07511717  0.02252361  1.0
  Nb  Nb73  1  0.15023433  0.40845050  0.02252361  1.0
  Nb  Nb74  1  0.15023433  0.74178383  0.02252361  1.0
  Nb  Nb75  1  0.48356767  0.07511717  0.02252361  1.0
  Nb  Nb76  1  0.48356767  0.40845050  0.02252361  1.0
  Nb  Nb77  1  0.48356767  0.74178383  0.02252361  1.0
  Nb  Nb78  1  0.81690100  0.07511717  0.02252361  1.0
  Nb  Nb79  1  0.81690100  0.40845050  0.02252361  1.0
  Nb  Nb80  1  0.81690100  0.74178383  0.02252361  1.0
  Nb  Nb81  1  0.15023433  0.24178383  0.07807917  1.0
  Nb  Nb82  1  0.15023433  0.57511717  0.07807917  1.0
  Nb  Nb83  1  0.15023433  0.90845050  0.07807917  1.0
  Nb  Nb84  1  0.48356767  0.24178383  0.07807917  1.0
  Nb  Nb85  1  0.48356767  0.57511717  0.07807917  1.0
  Nb  Nb86  1  0.48356767  0.90845050  0.07807917  1.0
  Nb  Nb87  1  0.81690100  0.24178383  0.07807917  1.0
  Nb  Nb88  1  0.81690100  0.57511717  0.07807917  1.0
  Nb  Nb89  1  0.81690100  0.90845050  0.07807917  1.0
  Nb  Nb90  1  0.18309900  0.09154950  0.02800106  1.0
  Nb  Nb91  1  0.18309900  0.42488283  0.02800106  1.0
  Nb  Nb92  1  0.18309900  0.75821617  0.02800106  1.0
  Nb  Nb93  1  0.51643233  0.09154950  0.02800106  1.0
  Nb  Nb94  1  0.51643233  0.42488283  0.02800106  1.0
  Nb  Nb95  1  0.51643233  0.75821617  0.02800106  1.0
  Nb  Nb96  1  0.84976567  0.09154950  0.02800106  1.0
  Nb  Nb97  1  0.84976567  0.42488283  0.02800106  1.0
  Nb  Nb98  1  0.84976567  0.75821617  0.02800106  1.0
  Nb  Nb99  1  0.18309900  0.25821617  0.08355661  1.0
  Nb  Nb100  1  0.18309900  0.59154950  0.08355661  1.0
  Nb  Nb101  1  0.18309900  0.92488283  0.08355661  1.0
  Nb  Nb102  1  0.51643233  0.25821617  0.08355661  1.0
  Nb  Nb103  1  0.51643233  0.59154950  0.08355661  1.0
  Nb  Nb104  1  0.51643233  0.92488283  0.08355661  1.0
  Nb  Nb105  1  0.84976567  0.25821617  0.08355661  1.0
  Nb  Nb106  1  0.84976567  0.59154950  0.08355661  1.0
  Nb  Nb107  1  0.84976567  0.92488283  0.08355661  1.0
  Ni  Ni108  1  0.00000000  0.00000000  0.10859567  1.0
  Ni  Ni109  1  0.00000000  0.33333333  0.10859567  1.0
  Ni  Ni110  1  0.00000000  0.66666667  0.10859567  1.0
  Ni  Ni111  1  0.33333333  0.00000000  0.10859567  1.0
  Ni  Ni112  1  0.33333333  0.33333333  0.10859567  1.0
  Ni  Ni113  1  0.33333333  0.66666667  0.10859567  1.0
  Ni  Ni114  1  0.66666667  0.00000000  0.10859567  1.0
  Ni  Ni115  1  0.66666667  0.33333333  0.10859567  1.0
  Ni  Ni116  1  0.66666667  0.66666667  0.10859567  1.0
  Ni  Ni117  1  0.00000000  0.16666667  0.05304011  1.0
  Ni  Ni118  1  0.00000000  0.50000000  0.05304011  1.0
  Ni  Ni119  1  0.00000000  0.83333333  0.05304011  1.0
  Ni  Ni120  1  0.33333333  0.16666667  0.05304011  1.0
  Ni  Ni121  1  0.33333333  0.50000000  0.05304011  1.0
  Ni  Ni122  1  0.33333333  0.83333333  0.05304011  1.0
  Ni  Ni123  1  0.66666667  0.16666667  0.05304011  1.0
  Ni  Ni124  1  0.66666667  0.50000000  0.05304011  1.0
  Ni  Ni125  1  0.66666667  0.83333333  0.05304011  1.0
  Ni  Ni126  1  0.03018533  0.01509267  0.05813733  1.0
  Ni  Ni127  1  0.03018533  0.34842600  0.05813733  1.0
  Ni  Ni128  1  0.03018533  0.68175933  0.05813733  1.0
  Ni  Ni129  1  0.36351867  0.01509267  0.05813733  1.0
  Ni  Ni130  1  0.36351867  0.34842600  0.05813733  1.0
  Ni  Ni131  1  0.36351867  0.68175933  0.05813733  1.0
  Ni  Ni132  1  0.69685200  0.01509267  0.05813733  1.0
  Ni  Ni133  1  0.69685200  0.34842600  0.05813733  1.0
  Ni  Ni134  1  0.69685200  0.68175933  0.05813733  1.0
  Ni  Ni135  1  0.03018533  0.18175933  0.00258178  1.0
  Ni  Ni136  1  0.03018533  0.51509267  0.00258178  1.0
  Ni  Ni137  1  0.03018533  0.84842600  0.00258178  1.0
  Ni  Ni138  1  0.36351867  0.18175933  0.00258178  1.0
  Ni  Ni139  1  0.36351867  0.51509267  0.00258178  1.0
  Ni  Ni140  1  0.36351867  0.84842600  0.00258178  1.0
  Ni  Ni141  1  0.69685200  0.18175933  0.00258178  1.0
  Ni  Ni142  1  0.69685200  0.51509267  0.00258178  1.0
  Ni  Ni143  1  0.69685200  0.84842600  0.00258178  1.0
  Ni  Ni144  1  0.03018533  0.09852550  0.08581561  1.0
  Ni  Ni145  1  0.03018533  0.43185883  0.08581561  1.0
  Ni  Ni146  1  0.03018533  0.76519217  0.08581561  1.0
  Ni  Ni147  1  0.36351867  0.09852550  0.08581561  1.0
  Ni  Ni148  1  0.36351867  0.43185883  0.08581561  1.0
  Ni  Ni149  1  0.36351867  0.76519217  0.08581561  1.0
  Ni  Ni150  1  0.69685200  0.09852550  0.08581561  1.0
  Ni  Ni151  1  0.69685200  0.43185883  0.08581561  1.0
  Ni  Ni152  1  0.69685200  0.76519217  0.08581561  1.0
  Ni  Ni153  1  0.03018533  0.26519217  0.03026006  1.0
  Ni  Ni154  1  0.03018533  0.59852550  0.03026006  1.0
  Ni  Ni155  1  0.03018533  0.93185883  0.03026006  1.0
  Ni  Ni156  1  0.36351867  0.26519217  0.03026006  1.0
  Ni  Ni157  1  0.36351867  0.59852550  0.03026006  1.0
  Ni  Ni158  1  0.36351867  0.93185883  0.03026006  1.0
  Ni  Ni159  1  0.69685200  0.26519217  0.03026006  1.0
  Ni  Ni160  1  0.69685200  0.59852550  0.03026006  1.0
  Ni  Ni161  1  0.69685200  0.93185883  0.03026006  1.0
  Ni  Ni162  1  0.19705100  0.01509267  0.00251544  1.0
  Ni  Ni163  1  0.19705100  0.34842600  0.00251544  1.0
  Ni  Ni164  1  0.19705100  0.68175933  0.00251544  1.0
  Ni  Ni165  1  0.53038433  0.01509267  0.00251544  1.0
  Ni  Ni166  1  0.53038433  0.34842600  0.00251544  1.0
  Ni  Ni167  1  0.53038433  0.68175933  0.00251544  1.0
  Ni  Ni168  1  0.86371767  0.01509267  0.00251544  1.0
  Ni  Ni169  1  0.86371767  0.34842600  0.00251544  1.0
  Ni  Ni170  1  0.86371767  0.68175933  0.00251544  1.0
  Ni  Ni171  1  0.19705100  0.18175933  0.05807100  1.0
  Ni  Ni172  1  0.19705100  0.51509267  0.05807100  1.0
  Ni  Ni173  1  0.19705100  0.84842600  0.05807100  1.0
  Ni  Ni174  1  0.53038433  0.18175933  0.05807100  1.0
  Ni  Ni175  1  0.53038433  0.51509267  0.05807100  1.0
  Ni  Ni176  1  0.53038433  0.84842600  0.05807100  1.0
  Ni  Ni177  1  0.86371767  0.18175933  0.05807100  1.0
  Ni  Ni178  1  0.86371767  0.51509267  0.05807100  1.0
  Ni  Ni179  1  0.86371767  0.84842600  0.05807100  1.0
  Ni  Ni180  1  0.30314800  0.15157400  0.10349844  1.0
  Ni  Ni181  1  0.30314800  0.48490733  0.10349844  1.0
  Ni  Ni182  1  0.30314800  0.81824067  0.10349844  1.0
  Ni  Ni183  1  0.63648133  0.15157400  0.10349844  1.0
  Ni  Ni184  1  0.63648133  0.48490733  0.10349844  1.0
  Ni  Ni185  1  0.63648133  0.81824067  0.10349844  1.0
  Ni  Ni186  1  0.96981467  0.15157400  0.10349844  1.0
  Ni  Ni187  1  0.96981467  0.48490733  0.10349844  1.0
  Ni  Ni188  1  0.96981467  0.81824067  0.10349844  1.0
  Ni  Ni189  1  0.30314800  0.31824067  0.04794289  1.0
  Ni  Ni190  1  0.30314800  0.65157400  0.04794289  1.0
  Ni  Ni191  1  0.30314800  0.98490733  0.04794289  1.0
  Ni  Ni192  1  0.63648133  0.31824067  0.04794289  1.0
  Ni  Ni193  1  0.63648133  0.65157400  0.04794289  1.0
  Ni  Ni194  1  0.63648133  0.98490733  0.04794289  1.0
  Ni  Ni195  1  0.96981467  0.31824067  0.04794289  1.0
  Ni  Ni196  1  0.96981467  0.65157400  0.04794289  1.0
  Ni  Ni197  1  0.96981467  0.98490733  0.04794289  1.0
  Ni  Ni198  1  0.30314800  0.06814117  0.07582017  1.0
  Ni  Ni199  1  0.30314800  0.40147450  0.07582017  1.0
  Ni  Ni200  1  0.30314800  0.73480783  0.07582017  1.0
  Ni  Ni201  1  0.63648133  0.06814117  0.07582017  1.0
  Ni  Ni202  1  0.63648133  0.40147450  0.07582017  1.0
  Ni  Ni203  1  0.63648133  0.73480783  0.07582017  1.0
  Ni  Ni204  1  0.96981467  0.06814117  0.07582017  1.0
  Ni  Ni205  1  0.96981467  0.40147450  0.07582017  1.0
  Ni  Ni206  1  0.96981467  0.73480783  0.07582017  1.0
  Ni  Ni207  1  0.30314800  0.23480783  0.02026461  1.0
  Ni  Ni208  1  0.30314800  0.56814117  0.02026461  1.0
  Ni  Ni209  1  0.30314800  0.90147450  0.02026461  1.0
  Ni  Ni210  1  0.63648133  0.23480783  0.02026461  1.0
  Ni  Ni211  1  0.63648133  0.56814117  0.02026461  1.0
  Ni  Ni212  1  0.63648133  0.90147450  0.02026461  1.0
  Ni  Ni213  1  0.96981467  0.23480783  0.02026461  1.0
  Ni  Ni214  1  0.96981467  0.56814117  0.02026461  1.0
  Ni  Ni215  1  0.96981467  0.90147450  0.02026461  1.0
  Ni  Ni216  1  0.13628233  0.15157400  0.04800922  1.0
  Ni  Ni217  1  0.13628233  0.48490733  0.04800922  1.0
  Ni  Ni218  1  0.13628233  0.81824067  0.04800922  1.0
  Ni  Ni219  1  0.46961567  0.15157400  0.04800922  1.0
  Ni  Ni220  1  0.46961567  0.48490733  0.04800922  1.0
  Ni  Ni221  1  0.46961567  0.81824067  0.04800922  1.0
  Ni  Ni222  1  0.80294900  0.15157400  0.04800922  1.0
  Ni  Ni223  1  0.80294900  0.48490733  0.04800922  1.0
  Ni  Ni224  1  0.80294900  0.81824067  0.04800922  1.0
  Ni  Ni225  1  0.13628233  0.31824067  0.10356478  1.0
  Ni  Ni226  1  0.13628233  0.65157400  0.10356478  1.0
  Ni  Ni227  1  0.13628233  0.98490733  0.10356478  1.0
  Ni  Ni228  1  0.46961567  0.31824067  0.10356478  1.0
  Ni  Ni229  1  0.46961567  0.65157400  0.10356478  1.0
  Ni  Ni230  1  0.46961567  0.98490733  0.10356478  1.0
  Ni  Ni231  1  0.80294900  0.31824067  0.10356478  1.0
  Ni  Ni232  1  0.80294900  0.65157400  0.10356478  1.0
  Ni  Ni233  1  0.80294900  0.98490733  0.10356478  1.0
  Nb  Nb234  1  0.05621300  0.02810650  0.11796450  1.0
  Nb  Nb235  1  0.05621300  0.36143983  0.11796450  1.0
  Nb  Nb236  1  0.05621300  0.69477317  0.11796450  1.0
  Nb  Nb237  1  0.38954633  0.02810650  0.11796450  1.0
  Nb  Nb238  1  0.38954633  0.36143983  0.11796450  1.0
  Nb  Nb239  1  0.38954633  0.69477317  0.11796450  1.0
  Nb  Nb240  1  0.72287967  0.02810650  0.11796450  1.0
  Nb  Nb241  1  0.72287967  0.36143983  0.11796450  1.0
  Nb  Nb242  1  0.72287967  0.69477317  0.11796450  1.0
  Nb  Nb243  1  0.05621300  0.19477317  0.17352006  1.0
  Nb  Nb244  1  0.05621300  0.52810650  0.17352006  1.0
  Nb  Nb245  1  0.05621300  0.86143983  0.17352006  1.0
  Nb  Nb246  1  0.38954633  0.19477317  0.17352006  1.0
  Nb  Nb247  1  0.38954633  0.52810650  0.17352006  1.0
  Nb  Nb248  1  0.38954633  0.86143983  0.17352006  1.0
  Nb  Nb249  1  0.72287967  0.19477317  0.17352006  1.0
  Nb  Nb250  1  0.72287967  0.52810650  0.17352006  1.0
  Nb  Nb251  1  0.72287967  0.86143983  0.17352006  1.0
  Nb  Nb252  1  0.27712033  0.13856017  0.15478239  1.0
  Nb  Nb253  1  0.27712033  0.47189350  0.15478239  1.0
  Nb  Nb254  1  0.27712033  0.80522683  0.15478239  1.0
  Nb  Nb255  1  0.61045367  0.13856017  0.15478239  1.0
  Nb  Nb256  1  0.61045367  0.47189350  0.15478239  1.0
  Nb  Nb257  1  0.61045367  0.80522683  0.15478239  1.0
  Nb  Nb258  1  0.94378700  0.13856017  0.15478239  1.0
  Nb  Nb259  1  0.94378700  0.47189350  0.15478239  1.0
  Nb  Nb260  1  0.94378700  0.80522683  0.15478239  1.0
  Nb  Nb261  1  0.27712033  0.30522683  0.21033794  1.0
  Nb  Nb262  1  0.27712033  0.63856017  0.21033794  1.0
  Nb  Nb263  1  0.27712033  0.97189350  0.21033794  1.0
  Nb  Nb264  1  0.61045367  0.30522683  0.21033794  1.0
  Nb  Nb265  1  0.61045367  0.63856017  0.21033794  1.0
  Nb  Nb266  1  0.61045367  0.97189350  0.21033794  1.0
  Nb  Nb267  1  0.94378700  0.30522683  0.21033794  1.0
  Nb  Nb268  1  0.94378700  0.63856017  0.21033794  1.0
  Nb  Nb269  1  0.94378700  0.97189350  0.21033794  1.0
  Nb  Nb270  1  0.11484533  0.05742267  0.12773656  1.0
  Nb  Nb271  1  0.11484533  0.39075600  0.12773656  1.0
  Nb  Nb272  1  0.11484533  0.72408933  0.12773656  1.0
  Nb  Nb273  1  0.44817867  0.05742267  0.12773656  1.0
  Nb  Nb274  1  0.44817867  0.39075600  0.12773656  1.0
  Nb  Nb275  1  0.44817867  0.72408933  0.12773656  1.0
  Nb  Nb276  1  0.78151200  0.05742267  0.12773656  1.0
  Nb  Nb277  1  0.78151200  0.39075600  0.12773656  1.0
  Nb  Nb278  1  0.78151200  0.72408933  0.12773656  1.0
  Nb  Nb279  1  0.11484533  0.22408933  0.18329211  1.0
  Nb  Nb280  1  0.11484533  0.55742267  0.18329211  1.0
  Nb  Nb281  1  0.11484533  0.89075600  0.18329211  1.0
  Nb  Nb282  1  0.44817867  0.22408933  0.18329211  1.0
  Nb  Nb283  1  0.44817867  0.55742267  0.18329211  1.0
  Nb  Nb284  1  0.44817867  0.89075600  0.18329211  1.0
  Nb  Nb285  1  0.78151200  0.22408933  0.18329211  1.0
  Nb  Nb286  1  0.78151200  0.55742267  0.18329211  1.0
  Nb  Nb287  1  0.78151200  0.89075600  0.18329211  1.0
  Nb  Nb288  1  0.21848800  0.10924400  0.14501033  1.0
  Nb  Nb289  1  0.21848800  0.44257733  0.14501033  1.0
  Nb  Nb290  1  0.21848800  0.77591067  0.14501033  1.0
  Nb  Nb291  1  0.55182133  0.10924400  0.14501033  1.0
  Nb  Nb292  1  0.55182133  0.44257733  0.14501033  1.0
  Nb  Nb293  1  0.55182133  0.77591067  0.14501033  1.0
  Nb  Nb294  1  0.88515467  0.10924400  0.14501033  1.0
  Nb  Nb295  1  0.88515467  0.44257733  0.14501033  1.0
  Nb  Nb296  1  0.88515467  0.77591067  0.14501033  1.0
  Nb  Nb297  1  0.21848800  0.27591067  0.20056589  1.0
  Nb  Nb298  1  0.21848800  0.60924400  0.20056589  1.0
  Nb  Nb299  1  0.21848800  0.94257733  0.20056589  1.0
  Nb  Nb300  1  0.55182133  0.27591067  0.20056589  1.0
  Nb  Nb301  1  0.55182133  0.60924400  0.20056589  1.0
  Nb  Nb302  1  0.55182133  0.94257733  0.20056589  1.0
  Nb  Nb303  1  0.88515467  0.27591067  0.20056589  1.0
  Nb  Nb304  1  0.88515467  0.60924400  0.20056589  1.0
  Nb  Nb305  1  0.88515467  0.94257733  0.20056589  1.0
  Nb  Nb306  1  0.15023433  0.07511717  0.13363472  1.0
  Nb  Nb307  1  0.15023433  0.40845050  0.13363472  1.0
  Nb  Nb308  1  0.15023433  0.74178383  0.13363472  1.0
  Nb  Nb309  1  0.48356767  0.07511717  0.13363472  1.0
  Nb  Nb310  1  0.48356767  0.40845050  0.13363472  1.0
  Nb  Nb311  1  0.48356767  0.74178383  0.13363472  1.0
  Nb  Nb312  1  0.81690100  0.07511717  0.13363472  1.0
  Nb  Nb313  1  0.81690100  0.40845050  0.13363472  1.0
  Nb  Nb314  1  0.81690100  0.74178383  0.13363472  1.0
  Nb  Nb315  1  0.15023433  0.24178383  0.18919028  1.0
  Nb  Nb316  1  0.15023433  0.57511717  0.18919028  1.0
  Nb  Nb317  1  0.15023433  0.90845050  0.18919028  1.0
  Nb  Nb318  1  0.48356767  0.24178383  0.18919028  1.0
  Nb  Nb319  1  0.48356767  0.57511717  0.18919028  1.0
  Nb  Nb320  1  0.48356767  0.90845050  0.18919028  1.0
  Nb  Nb321  1  0.81690100  0.24178383  0.18919028  1.0
  Nb  Nb322  1  0.81690100  0.57511717  0.18919028  1.0
  Nb  Nb323  1  0.81690100  0.90845050  0.18919028  1.0
  Nb  Nb324  1  0.18309900  0.09154950  0.13911217  1.0
  Nb  Nb325  1  0.18309900  0.42488283  0.13911217  1.0
  Nb  Nb326  1  0.18309900  0.75821617  0.13911217  1.0
  Nb  Nb327  1  0.51643233  0.09154950  0.13911217  1.0
  Nb  Nb328  1  0.51643233  0.42488283  0.13911217  1.0
  Nb  Nb329  1  0.51643233  0.75821617  0.13911217  1.0
  Nb  Nb330  1  0.84976567  0.09154950  0.13911217  1.0
  Nb  Nb331  1  0.84976567  0.42488283  0.13911217  1.0
  Nb  Nb332  1  0.84976567  0.75821617  0.13911217  1.0
  Nb  Nb333  1  0.18309900  0.25821617  0.19466772  1.0
  Nb  Nb334  1  0.18309900  0.59154950  0.19466772  1.0
  Nb  Nb335  1  0.18309900  0.92488283  0.19466772  1.0
  Nb  Nb336  1  0.51643233  0.25821617  0.19466772  1.0
  Nb  Nb337  1  0.51643233  0.59154950  0.19466772  1.0
  Nb  Nb338  1  0.51643233  0.92488283  0.19466772  1.0
  Nb  Nb339  1  0.84976567  0.25821617  0.19466772  1.0
  Nb  Nb340  1  0.84976567  0.59154950  0.19466772  1.0
  Nb  Nb341  1  0.84976567  0.92488283  0.19466772  1.0
  Ni  Ni342  1  0.00000000  0.00000000  0.21970678  1.0
  Ni  Ni343  1  0.00000000  0.33333333  0.21970678  1.0
  Ni  Ni344  1  0.00000000  0.66666667  0.21970678  1.0
  Ni  Ni345  1  0.33333333  0.00000000  0.21970678  1.0
  Ni  Ni346  1  0.33333333  0.33333333  0.21970678  1.0
  Ni  Ni347  1  0.33333333  0.66666667  0.21970678  1.0
  Ni  Ni348  1  0.66666667  0.00000000  0.21970678  1.0
  Ni  Ni349  1  0.66666667  0.33333333  0.21970678  1.0
  Ni  Ni350  1  0.66666667  0.66666667  0.21970678  1.0
  Ni  Ni351  1  0.00000000  0.16666667  0.16415122  1.0
  Ni  Ni352  1  0.00000000  0.50000000  0.16415122  1.0
  Ni  Ni353  1  0.00000000  0.83333333  0.16415122  1.0
  Ni  Ni354  1  0.33333333  0.16666667  0.16415122  1.0
  Ni  Ni355  1  0.33333333  0.50000000  0.16415122  1.0
  Ni  Ni356  1  0.33333333  0.83333333  0.16415122  1.0
  Ni  Ni357  1  0.66666667  0.16666667  0.16415122  1.0
  Ni  Ni358  1  0.66666667  0.50000000  0.16415122  1.0
  Ni  Ni359  1  0.66666667  0.83333333  0.16415122  1.0
  Ni  Ni360  1  0.03018533  0.01509267  0.16924844  1.0
  Ni  Ni361  1  0.03018533  0.34842600  0.16924844  1.0
  Ni  Ni362  1  0.03018533  0.68175933  0.16924844  1.0
  Ni  Ni363  1  0.36351867  0.01509267  0.16924844  1.0
  Ni  Ni364  1  0.36351867  0.34842600  0.16924844  1.0
  Ni  Ni365  1  0.36351867  0.68175933  0.16924844  1.0
  Ni  Ni366  1  0.69685200  0.01509267  0.16924844  1.0
  Ni  Ni367  1  0.69685200  0.34842600  0.16924844  1.0
  Ni  Ni368  1  0.69685200  0.68175933  0.16924844  1.0
  Ni  Ni369  1  0.03018533  0.18175933  0.11369289  1.0
  Ni  Ni370  1  0.03018533  0.51509267  0.11369289  1.0
  Ni  Ni371  1  0.03018533  0.84842600  0.11369289  1.0
  Ni  Ni372  1  0.36351867  0.18175933  0.11369289  1.0
  Ni  Ni373  1  0.36351867  0.51509267  0.11369289  1.0
  Ni  Ni374  1  0.36351867  0.84842600  0.11369289  1.0
  Ni  Ni375  1  0.69685200  0.18175933  0.11369289  1.0
  Ni  Ni376  1  0.69685200  0.51509267  0.11369289  1.0
  Ni  Ni377  1  0.69685200  0.84842600  0.11369289  1.0
  Ni  Ni378  1  0.03018533  0.09852550  0.19692672  1.0
  Ni  Ni379  1  0.03018533  0.43185883  0.19692672  1.0
  Ni  Ni380  1  0.03018533  0.76519217  0.19692672  1.0
  Ni  Ni381  1  0.36351867  0.09852550  0.19692672  1.0
  Ni  Ni382  1  0.36351867  0.43185883  0.19692672  1.0
  Ni  Ni383  1  0.36351867  0.76519217  0.19692672  1.0
  Ni  Ni384  1  0.69685200  0.09852550  0.19692672  1.0
  Ni  Ni385  1  0.69685200  0.43185883  0.19692672  1.0
  Ni  Ni386  1  0.69685200  0.76519217  0.19692672  1.0
  Ni  Ni387  1  0.03018533  0.26519217  0.14137117  1.0
  Ni  Ni388  1  0.03018533  0.59852550  0.14137117  1.0
  Ni  Ni389  1  0.03018533  0.93185883  0.14137117  1.0
  Ni  Ni390  1  0.36351867  0.26519217  0.14137117  1.0
  Ni  Ni391  1  0.36351867  0.59852550  0.14137117  1.0
  Ni  Ni392  1  0.36351867  0.93185883  0.14137117  1.0
  Ni  Ni393  1  0.69685200  0.26519217  0.14137117  1.0
  Ni  Ni394  1  0.69685200  0.59852550  0.14137117  1.0
  Ni  Ni395  1  0.69685200  0.93185883  0.14137117  1.0
  Ni  Ni396  1  0.19705100  0.01509267  0.11362656  1.0
  Ni  Ni397  1  0.19705100  0.34842600  0.11362656  1.0
  Ni  Ni398  1  0.19705100  0.68175933  0.11362656  1.0
  Ni  Ni399  1  0.53038433  0.01509267  0.11362656  1.0
  Ni  Ni400  1  0.53038433  0.34842600  0.11362656  1.0
  Ni  Ni401  1  0.53038433  0.68175933  0.11362656  1.0
  Ni  Ni402  1  0.86371767  0.01509267  0.11362656  1.0
  Ni  Ni403  1  0.86371767  0.34842600  0.11362656  1.0
  Ni  Ni404  1  0.86371767  0.68175933  0.11362656  1.0
  Ni  Ni405  1  0.19705100  0.18175933  0.16918211  1.0
  Ni  Ni406  1  0.19705100  0.51509267  0.16918211  1.0
  Ni  Ni407  1  0.19705100  0.84842600  0.16918211  1.0
  Ni  Ni408  1  0.53038433  0.18175933  0.16918211  1.0
  Ni  Ni409  1  0.53038433  0.51509267  0.16918211  1.0
  Ni  Ni410  1  0.53038433  0.84842600  0.16918211  1.0
  Ni  Ni411  1  0.86371767  0.18175933  0.16918211  1.0
  Ni  Ni412  1  0.86371767  0.51509267  0.16918211  1.0
  Ni  Ni413  1  0.86371767  0.84842600  0.16918211  1.0
  Ni  Ni414  1  0.30314800  0.15157400  0.21460956  1.0
  Ni  Ni415  1  0.30314800  0.48490733  0.21460956  1.0
  Ni  Ni416  1  0.30314800  0.81824067  0.21460956  1.0
  Ni  Ni417  1  0.63648133  0.15157400  0.21460956  1.0
  Ni  Ni418  1  0.63648133  0.48490733  0.21460956  1.0
  Ni  Ni419  1  0.63648133  0.81824067  0.21460956  1.0
  Ni  Ni420  1  0.96981467  0.15157400  0.21460956  1.0
  Ni  Ni421  1  0.96981467  0.48490733  0.21460956  1.0
  Ni  Ni422  1  0.96981467  0.81824067  0.21460956  1.0
  Ni  Ni423  1  0.30314800  0.31824067  0.15905400  1.0
  Ni  Ni424  1  0.30314800  0.65157400  0.15905400  1.0
  Ni  Ni425  1  0.30314800  0.98490733  0.15905400  1.0
  Ni  Ni426  1  0.63648133  0.31824067  0.15905400  1.0
  Ni  Ni427  1  0.63648133  0.65157400  0.15905400  1.0
  Ni  Ni428  1  0.63648133  0.98490733  0.15905400  1.0
  Ni  Ni429  1  0.96981467  0.31824067  0.15905400  1.0
  Ni  Ni430  1  0.96981467  0.65157400  0.15905400  1.0
  Ni  Ni431  1  0.96981467  0.98490733  0.15905400  1.0
  Ni  Ni432  1  0.30314800  0.06814117  0.18693128  1.0
  Ni  Ni433  1  0.30314800  0.40147450  0.18693128  1.0
  Ni  Ni434  1  0.30314800  0.73480783  0.18693128  1.0
  Ni  Ni435  1  0.63648133  0.06814117  0.18693128  1.0
  Ni  Ni436  1  0.63648133  0.40147450  0.18693128  1.0
  Ni  Ni437  1  0.63648133  0.73480783  0.18693128  1.0
  Ni  Ni438  1  0.96981467  0.06814117  0.18693128  1.0
  Ni  Ni439  1  0.96981467  0.40147450  0.18693128  1.0
  Ni  Ni440  1  0.96981467  0.73480783  0.18693128  1.0
  Ni  Ni441  1  0.30314800  0.23480783  0.13137572  1.0
  Ni  Ni442  1  0.30314800  0.56814117  0.13137572  1.0
  Ni  Ni443  1  0.30314800  0.90147450  0.13137572  1.0
  Ni  Ni444  1  0.63648133  0.23480783  0.13137572  1.0
  Ni  Ni445  1  0.63648133  0.56814117  0.13137572  1.0
  Ni  Ni446  1  0.63648133  0.90147450  0.13137572  1.0
  Ni  Ni447  1  0.96981467  0.23480783  0.13137572  1.0
  Ni  Ni448  1  0.96981467  0.56814117  0.13137572  1.0
  Ni  Ni449  1  0.96981467  0.90147450  0.13137572  1.0
  Ni  Ni450  1  0.13628233  0.15157400  0.15912033  1.0
  Ni  Ni451  1  0.13628233  0.48490733  0.15912033  1.0
  Ni  Ni452  1  0.13628233  0.81824067  0.15912033  1.0
  Ni  Ni453  1  0.46961567  0.15157400  0.15912033  1.0
  Ni  Ni454  1  0.46961567  0.48490733  0.15912033  1.0
  Ni  Ni455  1  0.46961567  0.81824067  0.15912033  1.0
  Ni  Ni456  1  0.80294900  0.15157400  0.15912033  1.0
  Ni  Ni457  1  0.80294900  0.48490733  0.15912033  1.0
  Ni  Ni458  1  0.80294900  0.81824067  0.15912033  1.0
  Ni  Ni459  1  0.13628233  0.31824067  0.21467589  1.0
  Ni  Ni460  1  0.13628233  0.65157400  0.21467589  1.0
  Ni  Ni461  1  0.13628233  0.98490733  0.21467589  1.0
  Ni  Ni462  1  0.46961567  0.31824067  0.21467589  1.0
  Ni  Ni463  1  0.46961567  0.65157400  0.21467589  1.0
  Ni  Ni464  1  0.46961567  0.98490733  0.21467589  1.0
  Ni  Ni465  1  0.80294900  0.31824067  0.21467589  1.0
  Ni  Ni466  1  0.80294900  0.65157400  0.21467589  1.0
  Ni  Ni467  1  0.80294900  0.98490733  0.21467589  1.0
  Nb  Nb468  1  0.05621300  0.02810650  0.22907561  1.0
  Nb  Nb469  1  0.05621300  0.36143983  0.22907561  1.0
  Nb  Nb470  1  0.05621300  0.69477317  0.22907561  1.0
  Nb  Nb471  1  0.38954633  0.02810650  0.22907561  1.0
  Nb  Nb472  1  0.38954633  0.36143983  0.22907561  1.0
  Nb  Nb473  1  0.38954633  0.69477317  0.22907561  1.0
  Nb  Nb474  1  0.72287967  0.02810650  0.22907561  1.0
  Nb  Nb475  1  0.72287967  0.36143983  0.22907561  1.0
  Nb  Nb476  1  0.72287967  0.69477317  0.22907561  1.0
  Nb  Nb477  1  0.05621300  0.19477317  0.28463117  1.0
  Nb  Nb478  1  0.05621300  0.52810650  0.28463117  1.0
  Nb  Nb479  1  0.05621300  0.86143983  0.28463117  1.0
  Nb  Nb480  1  0.38954633  0.19477317  0.28463117  1.0
  Nb  Nb481  1  0.38954633  0.52810650  0.28463117  1.0
  Nb  Nb482  1  0.38954633  0.86143983  0.28463117  1.0
  Nb  Nb483  1  0.72287967  0.19477317  0.28463117  1.0
  Nb  Nb484  1  0.72287967  0.52810650  0.28463117  1.0
  Nb  Nb485  1  0.72287967  0.86143983  0.28463117  1.0
  Nb  Nb486  1  0.27712033  0.13856017  0.26589350  1.0
  Nb  Nb487  1  0.27712033  0.47189350  0.26589350  1.0
  Nb  Nb488  1  0.27712033  0.80522683  0.26589350  1.0
  Nb  Nb489  1  0.61045367  0.13856017  0.26589350  1.0
  Nb  Nb490  1  0.61045367  0.47189350  0.26589350  1.0
  Nb  Nb491  1  0.61045367  0.80522683  0.26589350  1.0
  Nb  Nb492  1  0.94378700  0.13856017  0.26589350  1.0
  Nb  Nb493  1  0.94378700  0.47189350  0.26589350  1.0
  Nb  Nb494  1  0.94378700  0.80522683  0.26589350  1.0
  Nb  Nb495  1  0.27712033  0.30522683  0.32144906  1.0
  Nb  Nb496  1  0.27712033  0.63856017  0.32144906  1.0
  Nb  Nb497  1  0.27712033  0.97189350  0.32144906  1.0
  Nb  Nb498  1  0.61045367  0.30522683  0.32144906  1.0
  Nb  Nb499  1  0.61045367  0.63856017  0.32144906  1.0
  Nb  Nb500  1  0.61045367  0.97189350  0.32144906  1.0
  Nb  Nb501  1  0.94378700  0.30522683  0.32144906  1.0
  Nb  Nb502  1  0.94378700  0.63856017  0.32144906  1.0
  Nb  Nb503  1  0.94378700  0.97189350  0.32144906  1.0
  Nb  Nb504  1  0.11484533  0.05742267  0.23884767  1.0
  Nb  Nb505  1  0.11484533  0.39075600  0.23884767  1.0
  Nb  Nb506  1  0.11484533  0.72408933  0.23884767  1.0
  Nb  Nb507  1  0.44817867  0.05742267  0.23884767  1.0
  Nb  Nb508  1  0.44817867  0.39075600  0.23884767  1.0
  Nb  Nb509  1  0.44817867  0.72408933  0.23884767  1.0
  Nb  Nb510  1  0.78151200  0.05742267  0.23884767  1.0
  Nb  Nb511  1  0.78151200  0.39075600  0.23884767  1.0
  Nb  Nb512  1  0.78151200  0.72408933  0.23884767  1.0
  Nb  Nb513  1  0.11484533  0.22408933  0.29440322  1.0
  Nb  Nb514  1  0.11484533  0.55742267  0.29440322  1.0
  Nb  Nb515  1  0.11484533  0.89075600  0.29440322  1.0
  Nb  Nb516  1  0.44817867  0.22408933  0.29440322  1.0
  Nb  Nb517  1  0.44817867  0.55742267  0.29440322  1.0
  Nb  Nb518  1  0.44817867  0.89075600  0.29440322  1.0
  Nb  Nb519  1  0.78151200  0.22408933  0.29440322  1.0
  Nb  Nb520  1  0.78151200  0.55742267  0.29440322  1.0
  Nb  Nb521  1  0.78151200  0.89075600  0.29440322  1.0
  Nb  Nb522  1  0.21848800  0.10924400  0.25612144  1.0
  Nb  Nb523  1  0.21848800  0.44257733  0.25612144  1.0
  Nb  Nb524  1  0.21848800  0.77591067  0.25612144  1.0
  Nb  Nb525  1  0.55182133  0.10924400  0.25612144  1.0
  Nb  Nb526  1  0.55182133  0.44257733  0.25612144  1.0
  Nb  Nb527  1  0.55182133  0.77591067  0.25612144  1.0
  Nb  Nb528  1  0.88515467  0.10924400  0.25612144  1.0
  Nb  Nb529  1  0.88515467  0.44257733  0.25612144  1.0
  Nb  Nb530  1  0.88515467  0.77591067  0.25612144  1.0
  Nb  Nb531  1  0.21848800  0.27591067  0.31167700  1.0
  Nb  Nb532  1  0.21848800  0.60924400  0.31167700  1.0
  Nb  Nb533  1  0.21848800  0.94257733  0.31167700  1.0
  Nb  Nb534  1  0.55182133  0.27591067  0.31167700  1.0
  Nb  Nb535  1  0.55182133  0.60924400  0.31167700  1.0
  Nb  Nb536  1  0.55182133  0.94257733  0.31167700  1.0
  Nb  Nb537  1  0.88515467  0.27591067  0.31167700  1.0
  Nb  Nb538  1  0.88515467  0.60924400  0.31167700  1.0
  Nb  Nb539  1  0.88515467  0.94257733  0.31167700  1.0
  Nb  Nb540  1  0.15023433  0.07511717  0.24474583  1.0
  Nb  Nb541  1  0.15023433  0.40845050  0.24474583  1.0
  Nb  Nb542  1  0.15023433  0.74178383  0.24474583  1.0
  Nb  Nb543  1  0.48356767  0.07511717  0.24474583  1.0
  Nb  Nb544  1  0.48356767  0.40845050  0.24474583  1.0
  Nb  Nb545  1  0.48356767  0.74178383  0.24474583  1.0
  Nb  Nb546  1  0.81690100  0.07511717  0.24474583  1.0
  Nb  Nb547  1  0.81690100  0.40845050  0.24474583  1.0
  Nb  Nb548  1  0.81690100  0.74178383  0.24474583  1.0
  Nb  Nb549  1  0.15023433  0.24178383  0.30030139  1.0
  Nb  Nb550  1  0.15023433  0.57511717  0.30030139  1.0
  Nb  Nb551  1  0.15023433  0.90845050  0.30030139  1.0
  Nb  Nb552  1  0.48356767  0.24178383  0.30030139  1.0
  Nb  Nb553  1  0.48356767  0.57511717  0.30030139  1.0
  Nb  Nb554  1  0.48356767  0.90845050  0.30030139  1.0
  Nb  Nb555  1  0.81690100  0.24178383  0.30030139  1.0
  Nb  Nb556  1  0.81690100  0.57511717  0.30030139  1.0
  Nb  Nb557  1  0.81690100  0.90845050  0.30030139  1.0
  Nb  Nb558  1  0.18309900  0.09154950  0.25022328  1.0
  Nb  Nb559  1  0.18309900  0.42488283  0.25022328  1.0
  Nb  Nb560  1  0.18309900  0.75821617  0.25022328  1.0
  Nb  Nb561  1  0.51643233  0.09154950  0.25022328  1.0
  Nb  Nb562  1  0.51643233  0.42488283  0.25022328  1.0
  Nb  Nb563  1  0.51643233  0.75821617  0.25022328  1.0
  Nb  Nb564  1  0.84976567  0.09154950  0.25022328  1.0
  Nb  Nb565  1  0.84976567  0.42488283  0.25022328  1.0
  Nb  Nb566  1  0.84976567  0.75821617  0.25022328  1.0
  Nb  Nb567  1  0.18309900  0.25821617  0.30577883  1.0
  Nb  Nb568  1  0.18309900  0.59154950  0.30577883  1.0
  Nb  Nb569  1  0.18309900  0.92488283  0.30577883  1.0
  Nb  Nb570  1  0.51643233  0.25821617  0.30577883  1.0
  Nb  Nb571  1  0.51643233  0.59154950  0.30577883  1.0
  Nb  Nb572  1  0.51643233  0.92488283  0.30577883  1.0
  Nb  Nb573  1  0.84976567  0.25821617  0.30577883  1.0
  Nb  Nb574  1  0.84976567  0.59154950  0.30577883  1.0
  Nb  Nb575  1  0.84976567  0.92488283  0.30577883  1.0
  Ni  Ni576  1  0.00000000  0.00000000  0.33081789  1.0
  Ni  Ni577  1  0.00000000  0.33333333  0.33081789  1.0
  Ni  Ni578  1  0.00000000  0.66666667  0.33081789  1.0
  Ni  Ni579  1  0.33333333  0.00000000  0.33081789  1.0
  Ni  Ni580  1  0.33333333  0.33333333  0.33081789  1.0
  Ni  Ni581  1  0.33333333  0.66666667  0.33081789  1.0
  Ni  Ni582  1  0.66666667  0.00000000  0.33081789  1.0
  Ni  Ni583  1  0.66666667  0.33333333  0.33081789  1.0
  Ni  Ni584  1  0.66666667  0.66666667  0.33081789  1.0
  Ni  Ni585  1  0.00000000  0.16666667  0.27526233  1.0
  Ni  Ni586  1  0.00000000  0.50000000  0.27526233  1.0
  Ni  Ni587  1  0.00000000  0.83333333  0.27526233  1.0
  Ni  Ni588  1  0.33333333  0.16666667  0.27526233  1.0
  Ni  Ni589  1  0.33333333  0.50000000  0.27526233  1.0
  Ni  Ni590  1  0.33333333  0.83333333  0.27526233  1.0
  Ni  Ni591  1  0.66666667  0.16666667  0.27526233  1.0
  Ni  Ni592  1  0.66666667  0.50000000  0.27526233  1.0
  Ni  Ni593  1  0.66666667  0.83333333  0.27526233  1.0
  Ni  Ni594  1  0.03018533  0.01509267  0.28035956  1.0
  Ni  Ni595  1  0.03018533  0.34842600  0.28035956  1.0
  Ni  Ni596  1  0.03018533  0.68175933  0.28035956  1.0
  Ni  Ni597  1  0.36351867  0.01509267  0.28035956  1.0
  Ni  Ni598  1  0.36351867  0.34842600  0.28035956  1.0
  Ni  Ni599  1  0.36351867  0.68175933  0.28035956  1.0
  Ni  Ni600  1  0.69685200  0.01509267  0.28035956  1.0
  Ni  Ni601  1  0.69685200  0.34842600  0.28035956  1.0
  Ni  Ni602  1  0.69685200  0.68175933  0.28035956  1.0
  Ni  Ni603  1  0.03018533  0.18175933  0.22480400  1.0
  Ni  Ni604  1  0.03018533  0.51509267  0.22480400  1.0
  Ni  Ni605  1  0.03018533  0.84842600  0.22480400  1.0
  Ni  Ni606  1  0.36351867  0.18175933  0.22480400  1.0
  Ni  Ni607  1  0.36351867  0.51509267  0.22480400  1.0
  Ni  Ni608  1  0.36351867  0.84842600  0.22480400  1.0
  Ni  Ni609  1  0.69685200  0.18175933  0.22480400  1.0
  Ni  Ni610  1  0.69685200  0.51509267  0.22480400  1.0
  Ni  Ni611  1  0.69685200  0.84842600  0.22480400  1.0
  Ni  Ni612  1  0.03018533  0.09852550  0.30803783  1.0
  Ni  Ni613  1  0.03018533  0.43185883  0.30803783  1.0
  Ni  Ni614  1  0.03018533  0.76519217  0.30803783  1.0
  Ni  Ni615  1  0.36351867  0.09852550  0.30803783  1.0
  Ni  Ni616  1  0.36351867  0.43185883  0.30803783  1.0
  Ni  Ni617  1  0.36351867  0.76519217  0.30803783  1.0
  Ni  Ni618  1  0.69685200  0.09852550  0.30803783  1.0
  Ni  Ni619  1  0.69685200  0.43185883  0.30803783  1.0
  Ni  Ni620  1  0.69685200  0.76519217  0.30803783  1.0
  Ni  Ni621  1  0.03018533  0.26519217  0.25248228  1.0
  Ni  Ni622  1  0.03018533  0.59852550  0.25248228  1.0
  Ni  Ni623  1  0.03018533  0.93185883  0.25248228  1.0
  Ni  Ni624  1  0.36351867  0.26519217  0.25248228  1.0
  Ni  Ni625  1  0.36351867  0.59852550  0.25248228  1.0
  Ni  Ni626  1  0.36351867  0.93185883  0.25248228  1.0
  Ni  Ni627  1  0.69685200  0.26519217  0.25248228  1.0
  Ni  Ni628  1  0.69685200  0.59852550  0.25248228  1.0
  Ni  Ni629  1  0.69685200  0.93185883  0.25248228  1.0
  Ni  Ni630  1  0.19705100  0.01509267  0.22473767  1.0
  Ni  Ni631  1  0.19705100  0.34842600  0.22473767  1.0
  Ni  Ni632  1  0.19705100  0.68175933  0.22473767  1.0
  Ni  Ni633  1  0.53038433  0.01509267  0.22473767  1.0
  Ni  Ni634  1  0.53038433  0.34842600  0.22473767  1.0
  Ni  Ni635  1  0.53038433  0.68175933  0.22473767  1.0
  Ni  Ni636  1  0.86371767  0.01509267  0.22473767  1.0
  Ni  Ni637  1  0.86371767  0.34842600  0.22473767  1.0
  Ni  Ni638  1  0.86371767  0.68175933  0.22473767  1.0
  Ni  Ni639  1  0.19705100  0.18175933  0.28029322  1.0
  Ni  Ni640  1  0.19705100  0.51509267  0.28029322  1.0
  Ni  Ni641  1  0.19705100  0.84842600  0.28029322  1.0
  Ni  Ni642  1  0.53038433  0.18175933  0.28029322  1.0
  Ni  Ni643  1  0.53038433  0.51509267  0.28029322  1.0
  Ni  Ni644  1  0.53038433  0.84842600  0.28029322  1.0
  Ni  Ni645  1  0.86371767  0.18175933  0.28029322  1.0
  Ni  Ni646  1  0.86371767  0.51509267  0.28029322  1.0
  Ni  Ni647  1  0.86371767  0.84842600  0.28029322  1.0
  Ni  Ni648  1  0.30314800  0.15157400  0.32572067  1.0
  Ni  Ni649  1  0.30314800  0.48490733  0.32572067  1.0
  Ni  Ni650  1  0.30314800  0.81824067  0.32572067  1.0
  Ni  Ni651  1  0.63648133  0.15157400  0.32572067  1.0
  Ni  Ni652  1  0.63648133  0.48490733  0.32572067  1.0
  Ni  Ni653  1  0.63648133  0.81824067  0.32572067  1.0
  Ni  Ni654  1  0.96981467  0.15157400  0.32572067  1.0
  Ni  Ni655  1  0.96981467  0.48490733  0.32572067  1.0
  Ni  Ni656  1  0.96981467  0.81824067  0.32572067  1.0
  Ni  Ni657  1  0.30314800  0.31824067  0.27016511  1.0
  Ni  Ni658  1  0.30314800  0.65157400  0.27016511  1.0
  Ni  Ni659  1  0.30314800  0.98490733  0.27016511  1.0
  Ni  Ni660  1  0.63648133  0.31824067  0.27016511  1.0
  Ni  Ni661  1  0.63648133  0.65157400  0.27016511  1.0
  Ni  Ni662  1  0.63648133  0.98490733  0.27016511  1.0
  Ni  Ni663  1  0.96981467  0.31824067  0.27016511  1.0
  Ni  Ni664  1  0.96981467  0.65157400  0.27016511  1.0
  Ni  Ni665  1  0.96981467  0.98490733  0.27016511  1.0
  Ni  Ni666  1  0.30314800  0.06814117  0.29804239  1.0
  Ni  Ni667  1  0.30314800  0.40147450  0.29804239  1.0
  Ni  Ni668  1  0.30314800  0.73480783  0.29804239  1.0
  Ni  Ni669  1  0.63648133  0.06814117  0.29804239  1.0
  Ni  Ni670  1  0.63648133  0.40147450  0.29804239  1.0
  Ni  Ni671  1  0.63648133  0.73480783  0.29804239  1.0
  Ni  Ni672  1  0.96981467  0.06814117  0.29804239  1.0
  Ni  Ni673  1  0.96981467  0.40147450  0.29804239  1.0
  Ni  Ni674  1  0.96981467  0.73480783  0.29804239  1.0
  Ni  Ni675  1  0.30314800  0.23480783  0.24248683  1.0
  Ni  Ni676  1  0.30314800  0.56814117  0.24248683  1.0
  Ni  Ni677  1  0.30314800  0.90147450  0.24248683  1.0
  Ni  Ni678  1  0.63648133  0.23480783  0.24248683  1.0
  Ni  Ni679  1  0.63648133  0.56814117  0.24248683  1.0
  Ni  Ni680  1  0.63648133  0.90147450  0.24248683  1.0
  Ni  Ni681  1  0.96981467  0.23480783  0.24248683  1.0
  Ni  Ni682  1  0.96981467  0.56814117  0.24248683  1.0
  Ni  Ni683  1  0.96981467  0.90147450  0.24248683  1.0
  Ni  Ni684  1  0.13628233  0.15157400  0.27023144  1.0
  Ni  Ni685  1  0.13628233  0.48490733  0.27023144  1.0
  Ni  Ni686  1  0.13628233  0.81824067  0.27023144  1.0
  Ni  Ni687  1  0.46961567  0.15157400  0.27023144  1.0
  Ni  Ni688  1  0.46961567  0.48490733  0.27023144  1.0
  Ni  Ni689  1  0.46961567  0.81824067  0.27023144  1.0
  Ni  Ni690  1  0.80294900  0.15157400  0.27023144  1.0
  Ni  Ni691  1  0.80294900  0.48490733  0.27023144  1.0
  Ni  Ni692  1  0.80294900  0.81824067  0.27023144  1.0
  Ni  Ni693  1  0.13628233  0.31824067  0.32578700  1.0
  Ni  Ni694  1  0.13628233  0.65157400  0.32578700  1.0
  Ni  Ni695  1  0.13628233  0.98490733  0.32578700  1.0
  Ni  Ni696  1  0.46961567  0.31824067  0.32578700  1.0
  Ni  Ni697  1  0.46961567  0.65157400  0.32578700  1.0
  Ni  Ni698  1  0.46961567  0.98490733  0.32578700  1.0
  Ni  Ni699  1  0.80294900  0.31824067  0.32578700  1.0
  Ni  Ni700  1  0.80294900  0.65157400  0.32578700  1.0
  Ni  Ni701  1  0.80294900  0.98490733  0.32578700  1.0
  Nb  Nb702  1  0.05621300  0.02810650  0.34018672  1.0
  Nb  Nb703  1  0.05621300  0.36143983  0.34018672  1.0
  Nb  Nb704  1  0.05621300  0.69477317  0.34018672  1.0
  Nb  Nb705  1  0.38954633  0.02810650  0.34018672  1.0
  Nb  Nb706  1  0.38954633  0.36143983  0.34018672  1.0
  Nb  Nb707  1  0.38954633  0.69477317  0.34018672  1.0
  Nb  Nb708  1  0.72287967  0.02810650  0.34018672  1.0
  Nb  Nb709  1  0.72287967  0.36143983  0.34018672  1.0
  Nb  Nb710  1  0.72287967  0.69477317  0.34018672  1.0
  Nb  Nb711  1  0.05621300  0.19477317  0.39574228  1.0
  Nb  Nb712  1  0.05621300  0.52810650  0.39574228  1.0
  Nb  Nb713  1  0.05621300  0.86143983  0.39574228  1.0
  Nb  Nb714  1  0.38954633  0.19477317  0.39574228  1.0
  Nb  Nb715  1  0.38954633  0.52810650  0.39574228  1.0
  Nb  Nb716  1  0.38954633  0.86143983  0.39574228  1.0
  Nb  Nb717  1  0.72287967  0.19477317  0.39574228  1.0
  Nb  Nb718  1  0.72287967  0.52810650  0.39574228  1.0
  Nb  Nb719  1  0.72287967  0.86143983  0.39574228  1.0
  Nb  Nb720  1  0.27712033  0.13856017  0.37700461  1.0
  Nb  Nb721  1  0.27712033  0.47189350  0.37700461  1.0
  Nb  Nb722  1  0.27712033  0.80522683  0.37700461  1.0
  Nb  Nb723  1  0.61045367  0.13856017  0.37700461  1.0
  Nb  Nb724  1  0.61045367  0.47189350  0.37700461  1.0
  Nb  Nb725  1  0.61045367  0.80522683  0.37700461  1.0
  Nb  Nb726  1  0.94378700  0.13856017  0.37700461  1.0
  Nb  Nb727  1  0.94378700  0.47189350  0.37700461  1.0
  Nb  Nb728  1  0.94378700  0.80522683  0.37700461  1.0
  Nb  Nb729  1  0.27712033  0.30522683  0.43256017  1.0
  Nb  Nb730  1  0.27712033  0.63856017  0.43256017  1.0
  Nb  Nb731  1  0.27712033  0.97189350  0.43256017  1.0
  Nb  Nb732  1  0.61045367  0.30522683  0.43256017  1.0
  Nb  Nb733  1  0.61045367  0.63856017  0.43256017  1.0
  Nb  Nb734  1  0.61045367  0.97189350  0.43256017  1.0
  Nb  Nb735  1  0.94378700  0.30522683  0.43256017  1.0
  Nb  Nb736  1  0.94378700  0.63856017  0.43256017  1.0
  Nb  Nb737  1  0.94378700  0.97189350  0.43256017  1.0
  Nb  Nb738  1  0.11484533  0.05742267  0.34995878  1.0
  Nb  Nb739  1  0.11484533  0.39075600  0.34995878  1.0
  Nb  Nb740  1  0.11484533  0.72408933  0.34995878  1.0
  Nb  Nb741  1  0.44817867  0.05742267  0.34995878  1.0
  Nb  Nb742  1  0.44817867  0.39075600  0.34995878  1.0
  Nb  Nb743  1  0.44817867  0.72408933  0.34995878  1.0
  Nb  Nb744  1  0.78151200  0.05742267  0.34995878  1.0
  Nb  Nb745  1  0.78151200  0.39075600  0.34995878  1.0
  Nb  Nb746  1  0.78151200  0.72408933  0.34995878  1.0
  Nb  Nb747  1  0.11484533  0.22408933  0.40551433  1.0
  Nb  Nb748  1  0.11484533  0.55742267  0.40551433  1.0
  Nb  Nb749  1  0.11484533  0.89075600  0.40551433  1.0
  Nb  Nb750  1  0.44817867  0.22408933  0.40551433  1.0
  Nb  Nb751  1  0.44817867  0.55742267  0.40551433  1.0
  Nb  Nb752  1  0.44817867  0.89075600  0.40551433  1.0
  Nb  Nb753  1  0.78151200  0.22408933  0.40551433  1.0
  Nb  Nb754  1  0.78151200  0.55742267  0.40551433  1.0
  Nb  Nb755  1  0.78151200  0.89075600  0.40551433  1.0
  Nb  Nb756  1  0.21848800  0.10924400  0.36723256  1.0
  Nb  Nb757  1  0.21848800  0.44257733  0.36723256  1.0
  Nb  Nb758  1  0.21848800  0.77591067  0.36723256  1.0
  Nb  Nb759  1  0.55182133  0.10924400  0.36723256  1.0
  Nb  Nb760  1  0.55182133  0.44257733  0.36723256  1.0
  Nb  Nb761  1  0.55182133  0.77591067  0.36723256  1.0
  Nb  Nb762  1  0.88515467  0.10924400  0.36723256  1.0
  Nb  Nb763  1  0.88515467  0.44257733  0.36723256  1.0
  Nb  Nb764  1  0.88515467  0.77591067  0.36723256  1.0
  Nb  Nb765  1  0.21848800  0.27591067  0.42278811  1.0
  Nb  Nb766  1  0.21848800  0.60924400  0.42278811  1.0
  Nb  Nb767  1  0.21848800  0.94257733  0.42278811  1.0
  Nb  Nb768  1  0.55182133  0.27591067  0.42278811  1.0
  Nb  Nb769  1  0.55182133  0.60924400  0.42278811  1.0
  Nb  Nb770  1  0.55182133  0.94257733  0.42278811  1.0
  Nb  Nb771  1  0.88515467  0.27591067  0.42278811  1.0
  Nb  Nb772  1  0.88515467  0.60924400  0.42278811  1.0
  Nb  Nb773  1  0.88515467  0.94257733  0.42278811  1.0
  Nb  Nb774  1  0.15023433  0.07511717  0.35585694  1.0
  Nb  Nb775  1  0.15023433  0.40845050  0.35585694  1.0
  Nb  Nb776  1  0.15023433  0.74178383  0.35585694  1.0
  Nb  Nb777  1  0.48356767  0.07511717  0.35585694  1.0
  Nb  Nb778  1  0.48356767  0.40845050  0.35585694  1.0
  Nb  Nb779  1  0.48356767  0.74178383  0.35585694  1.0
  Nb  Nb780  1  0.81690100  0.07511717  0.35585694  1.0
  Nb  Nb781  1  0.81690100  0.40845050  0.35585694  1.0
  Nb  Nb782  1  0.81690100  0.74178383  0.35585694  1.0
  Nb  Nb783  1  0.15023433  0.24178383  0.41141250  1.0
  Nb  Nb784  1  0.15023433  0.57511717  0.41141250  1.0
  Nb  Nb785  1  0.15023433  0.90845050  0.41141250  1.0
  Nb  Nb786  1  0.48356767  0.24178383  0.41141250  1.0
  Nb  Nb787  1  0.48356767  0.57511717  0.41141250  1.0
  Nb  Nb788  1  0.48356767  0.90845050  0.41141250  1.0
  Nb  Nb789  1  0.81690100  0.24178383  0.41141250  1.0
  Nb  Nb790  1  0.81690100  0.57511717  0.41141250  1.0
  Nb  Nb791  1  0.81690100  0.90845050  0.41141250  1.0
  Nb  Nb792  1  0.18309900  0.09154950  0.36133439  1.0
  Nb  Nb793  1  0.18309900  0.42488283  0.36133439  1.0
  Nb  Nb794  1  0.18309900  0.75821617  0.36133439  1.0
  Nb  Nb795  1  0.51643233  0.09154950  0.36133439  1.0
  Nb  Nb796  1  0.51643233  0.42488283  0.36133439  1.0
  Nb  Nb797  1  0.51643233  0.75821617  0.36133439  1.0
  Nb  Nb798  1  0.84976567  0.09154950  0.36133439  1.0
  Nb  Nb799  1  0.84976567  0.42488283  0.36133439  1.0
  Nb  Nb800  1  0.84976567  0.75821617  0.36133439  1.0
  Nb  Nb801  1  0.18309900  0.25821617  0.41688994  1.0
  Nb  Nb802  1  0.18309900  0.59154950  0.41688994  1.0
  Nb  Nb803  1  0.18309900  0.92488283  0.41688994  1.0
  Nb  Nb804  1  0.51643233  0.25821617  0.41688994  1.0
  Nb  Nb805  1  0.51643233  0.59154950  0.41688994  1.0
  Nb  Nb806  1  0.51643233  0.92488283  0.41688994  1.0
  Nb  Nb807  1  0.84976567  0.25821617  0.41688994  1.0
  Nb  Nb808  1  0.84976567  0.59154950  0.41688994  1.0
  Nb  Nb809  1  0.84976567  0.92488283  0.41688994  1.0
  Ni  Ni810  1  0.00000000  0.00000000  0.44192900  1.0
  Ni  Ni811  1  0.00000000  0.33333333  0.44192900  1.0
  Ni  Ni812  1  0.00000000  0.66666667  0.44192900  1.0
  Ni  Ni813  1  0.33333333  0.00000000  0.44192900  1.0
  Ni  Ni814  1  0.33333333  0.33333333  0.44192900  1.0
  Ni  Ni815  1  0.33333333  0.66666667  0.44192900  1.0
  Ni  Ni816  1  0.66666667  0.00000000  0.44192900  1.0
  Ni  Ni817  1  0.66666667  0.33333333  0.44192900  1.0
  Ni  Ni818  1  0.66666667  0.66666667  0.44192900  1.0
  Ni  Ni819  1  0.00000000  0.16666667  0.38637344  1.0
  Ni  Ni820  1  0.00000000  0.50000000  0.38637344  1.0
  Ni  Ni821  1  0.00000000  0.83333333  0.38637344  1.0
  Ni  Ni822  1  0.33333333  0.16666667  0.38637344  1.0
  Ni  Ni823  1  0.33333333  0.50000000  0.38637344  1.0
  Ni  Ni824  1  0.33333333  0.83333333  0.38637344  1.0
  Ni  Ni825  1  0.66666667  0.16666667  0.38637344  1.0
  Ni  Ni826  1  0.66666667  0.50000000  0.38637344  1.0
  Ni  Ni827  1  0.66666667  0.83333333  0.38637344  1.0
  Ni  Ni828  1  0.03018533  0.01509267  0.39147067  1.0
  Ni  Ni829  1  0.03018533  0.34842600  0.39147067  1.0
  Ni  Ni830  1  0.03018533  0.68175933  0.39147067  1.0
  Ni  Ni831  1  0.36351867  0.01509267  0.39147067  1.0
  Ni  Ni832  1  0.36351867  0.34842600  0.39147067  1.0
  Ni  Ni833  1  0.36351867  0.68175933  0.39147067  1.0
  Ni  Ni834  1  0.69685200  0.01509267  0.39147067  1.0
  Ni  Ni835  1  0.69685200  0.34842600  0.39147067  1.0
  Ni  Ni836  1  0.69685200  0.68175933  0.39147067  1.0
  Ni  Ni837  1  0.03018533  0.18175933  0.33591511  1.0
  Ni  Ni838  1  0.03018533  0.51509267  0.33591511  1.0
  Ni  Ni839  1  0.03018533  0.84842600  0.33591511  1.0
  Ni  Ni840  1  0.36351867  0.18175933  0.33591511  1.0
  Ni  Ni841  1  0.36351867  0.51509267  0.33591511  1.0
  Ni  Ni842  1  0.36351867  0.84842600  0.33591511  1.0
  Ni  Ni843  1  0.69685200  0.18175933  0.33591511  1.0
  Ni  Ni844  1  0.69685200  0.51509267  0.33591511  1.0
  Ni  Ni845  1  0.69685200  0.84842600  0.33591511  1.0
  Ni  Ni846  1  0.03018533  0.09852550  0.41914894  1.0
  Ni  Ni847  1  0.03018533  0.43185883  0.41914894  1.0
  Ni  Ni848  1  0.03018533  0.76519217  0.41914894  1.0
  Ni  Ni849  1  0.36351867  0.09852550  0.41914894  1.0
  Ni  Ni850  1  0.36351867  0.43185883  0.41914894  1.0
  Ni  Ni851  1  0.36351867  0.76519217  0.41914894  1.0
  Ni  Ni852  1  0.69685200  0.09852550  0.41914894  1.0
  Ni  Ni853  1  0.69685200  0.43185883  0.41914894  1.0
  Ni  Ni854  1  0.69685200  0.76519217  0.41914894  1.0
  Ni  Ni855  1  0.03018533  0.26519217  0.36359339  1.0
  Ni  Ni856  1  0.03018533  0.59852550  0.36359339  1.0
  Ni  Ni857  1  0.03018533  0.93185883  0.36359339  1.0
  Ni  Ni858  1  0.36351867  0.26519217  0.36359339  1.0
  Ni  Ni859  1  0.36351867  0.59852550  0.36359339  1.0
  Ni  Ni860  1  0.36351867  0.93185883  0.36359339  1.0
  Ni  Ni861  1  0.69685200  0.26519217  0.36359339  1.0
  Ni  Ni862  1  0.69685200  0.59852550  0.36359339  1.0
  Ni  Ni863  1  0.69685200  0.93185883  0.36359339  1.0
  Ni  Ni864  1  0.19705100  0.01509267  0.33584878  1.0
  Ni  Ni865  1  0.19705100  0.34842600  0.33584878  1.0
  Ni  Ni866  1  0.19705100  0.68175933  0.33584878  1.0
  Ni  Ni867  1  0.53038433  0.01509267  0.33584878  1.0
  Ni  Ni868  1  0.53038433  0.34842600  0.33584878  1.0
  Ni  Ni869  1  0.53038433  0.68175933  0.33584878  1.0
  Ni  Ni870  1  0.86371767  0.01509267  0.33584878  1.0
  Ni  Ni871  1  0.86371767  0.34842600  0.33584878  1.0
  Ni  Ni872  1  0.86371767  0.68175933  0.33584878  1.0
  Ni  Ni873  1  0.19705100  0.18175933  0.39140433  1.0
  Ni  Ni874  1  0.19705100  0.51509267  0.39140433  1.0
  Ni  Ni875  1  0.19705100  0.84842600  0.39140433  1.0
  Ni  Ni876  1  0.53038433  0.18175933  0.39140433  1.0
  Ni  Ni877  1  0.53038433  0.51509267  0.39140433  1.0
  Ni  Ni878  1  0.53038433  0.84842600  0.39140433  1.0
  Ni  Ni879  1  0.86371767  0.18175933  0.39140433  1.0
  Ni  Ni880  1  0.86371767  0.51509267  0.39140433  1.0
  Ni  Ni881  1  0.86371767  0.84842600  0.39140433  1.0
  Ni  Ni882  1  0.30314800  0.15157400  0.43683178  1.0
  Ni  Ni883  1  0.30314800  0.48490733  0.43683178  1.0
  Ni  Ni884  1  0.30314800  0.81824067  0.43683178  1.0
  Ni  Ni885  1  0.63648133  0.15157400  0.43683178  1.0
  Ni  Ni886  1  0.63648133  0.48490733  0.43683178  1.0
  Ni  Ni887  1  0.63648133  0.81824067  0.43683178  1.0
  Ni  Ni888  1  0.96981467  0.15157400  0.43683178  1.0
  Ni  Ni889  1  0.96981467  0.48490733  0.43683178  1.0
  Ni  Ni890  1  0.96981467  0.81824067  0.43683178  1.0
  Ni  Ni891  1  0.30314800  0.31824067  0.38127622  1.0
  Ni  Ni892  1  0.30314800  0.65157400  0.38127622  1.0
  Ni  Ni893  1  0.30314800  0.98490733  0.38127622  1.0
  Ni  Ni894  1  0.63648133  0.31824067  0.38127622  1.0
  Ni  Ni895  1  0.63648133  0.65157400  0.38127622  1.0
  Ni  Ni896  1  0.63648133  0.98490733  0.38127622  1.0
  Ni  Ni897  1  0.96981467  0.31824067  0.38127622  1.0
  Ni  Ni898  1  0.96981467  0.65157400  0.38127622  1.0
  Ni  Ni899  1  0.96981467  0.98490733  0.38127622  1.0
  Ni  Ni900  1  0.30314800  0.06814117  0.40915350  1.0
  Ni  Ni901  1  0.30314800  0.40147450  0.40915350  1.0
  Ni  Ni902  1  0.30314800  0.73480783  0.40915350  1.0
  Ni  Ni903  1  0.63648133  0.06814117  0.40915350  1.0
  Ni  Ni904  1  0.63648133  0.40147450  0.40915350  1.0
  Ni  Ni905  1  0.63648133  0.73480783  0.40915350  1.0
  Ni  Ni906  1  0.96981467  0.06814117  0.40915350  1.0
  Ni  Ni907  1  0.96981467  0.40147450  0.40915350  1.0
  Ni  Ni908  1  0.96981467  0.73480783  0.40915350  1.0
  Ni  Ni909  1  0.30314800  0.23480783  0.35359794  1.0
  Ni  Ni910  1  0.30314800  0.56814117  0.35359794  1.0
  Ni  Ni911  1  0.30314800  0.90147450  0.35359794  1.0
  Ni  Ni912  1  0.63648133  0.23480783  0.35359794  1.0
  Ni  Ni913  1  0.63648133  0.56814117  0.35359794  1.0
  Ni  Ni914  1  0.63648133  0.90147450  0.35359794  1.0
  Ni  Ni915  1  0.96981467  0.23480783  0.35359794  1.0
  Ni  Ni916  1  0.96981467  0.56814117  0.35359794  1.0
  Ni  Ni917  1  0.96981467  0.90147450  0.35359794  1.0
  Ni  Ni918  1  0.13628233  0.15157400  0.38134256  1.0
  Ni  Ni919  1  0.13628233  0.48490733  0.38134256  1.0
  Ni  Ni920  1  0.13628233  0.81824067  0.38134256  1.0
  Ni  Ni921  1  0.46961567  0.15157400  0.38134256  1.0
  Ni  Ni922  1  0.46961567  0.48490733  0.38134256  1.0
  Ni  Ni923  1  0.46961567  0.81824067  0.38134256  1.0
  Ni  Ni924  1  0.80294900  0.15157400  0.38134256  1.0
  Ni  Ni925  1  0.80294900  0.48490733  0.38134256  1.0
  Ni  Ni926  1  0.80294900  0.81824067  0.38134256  1.0
  Ni  Ni927  1  0.13628233  0.31824067  0.43689811  1.0
  Ni  Ni928  1  0.13628233  0.65157400  0.43689811  1.0
  Ni  Ni929  1  0.13628233  0.98490733  0.43689811  1.0
  Ni  Ni930  1  0.46961567  0.31824067  0.43689811  1.0
  Ni  Ni931  1  0.46961567  0.65157400  0.43689811  1.0
  Ni  Ni932  1  0.46961567  0.98490733  0.43689811  1.0
  Ni  Ni933  1  0.80294900  0.31824067  0.43689811  1.0
  Ni  Ni934  1  0.80294900  0.65157400  0.43689811  1.0
  Ni  Ni935  1  0.80294900  0.98490733  0.43689811  1.0
