# generated using pymatgen
data_NbNi2
_symmetry_space_group_name_H-M   'P 1'
_cell_length_a   46.99906200
_cell_length_b   24.91911564
_cell_length_c   57.54823248
_cell_angle_alpha   150.00000000
_cell_angle_beta   90.00000000
_cell_angle_gamma   90.00000000
_symmetry_Int_Tables_number   1
_chemical_formula_structural   NbNi2
_chemical_formula_sum   'Nb360 Ni720'
_cell_volume   33699.52733478
_cell_formula_units_Z   360
loop_
 _symmetry_equiv_pos_site_id
 _symmetry_equiv_pos_as_xyz
  1  'x, y, z'
loop_
 _atom_site_type_symbol
 _atom_site_label
 _atom_site_symmetry_multiplicity
 _atom_site_fract_x
 _atom_site_fract_y
 _atom_site_fract_z
 _atom_site_occupancy
  Nb  Nb0  1  0.03250933  0.00000000  0.06278183  1.0
  Nb  Nb1  1  0.03250933  0.33333333  0.06278183  1.0
  Nb  Nb2  1  0.03250933  0.66666667  0.06278183  1.0
  Nb  Nb3  1  0.36584267  0.00000000  0.06278183  1.0
  Nb  Nb4  1  0.36584267  0.33333333  0.06278183  1.0
  Nb  Nb5  1  0.36584267  0.66666667  0.06278183  1.0
  Nb  Nb6  1  0.69917600  0.00000000  0.06278183  1.0
  Nb  Nb7  1  0.69917600  0.33333333  0.06278183  1.0
  Nb  Nb8  1  0.69917600  0.66666667  0.06278183  1.0
  Nb  Nb9  1  0.30082400  0.00000000  0.06278183  1.0
  Nb  Nb10  1  0.30082400  0.33333333  0.06278183  1.0
  Nb  Nb11  1  0.30082400  0.66666667  0.06278183  1.0
  Nb  Nb12  1  0.63415733  0.00000000  0.06278183  1.0
  Nb  Nb13  1  0.63415733  0.33333333  0.06278183  1.0
  Nb  Nb14  1  0.63415733  0.66666667  0.06278183  1.0
  Nb  Nb15  1  0.96749067  0.00000000  0.06278183  1.0
  Nb  Nb16  1  0.96749067  0.33333333  0.06278183  1.0
  Nb  Nb17  1  0.96749067  0.66666667  0.06278183  1.0
  Nb  Nb18  1  0.19917600  0.00000000  0.06278183  1.0
  Nb  Nb19  1  0.19917600  0.33333333  0.06278183  1.0
  Nb  Nb20  1  0.19917600  0.66666667  0.06278183  1.0
  Nb  Nb21  1  0.53250933  0.00000000  0.06278183  1.0
  Nb  Nb22  1  0.53250933  0.33333333  0.06278183  1.0
  Nb  Nb23  1  0.53250933  0.66666667  0.06278183  1.0
  Nb  Nb24  1  0.86584267  0.00000000  0.06278183  1.0
  Nb  Nb25  1  0.86584267  0.33333333  0.06278183  1.0
  Nb  Nb26  1  0.86584267  0.66666667  0.06278183  1.0
  Nb  Nb27  1  0.13415733  0.00000000  0.06278183  1.0
  Nb  Nb28  1  0.13415733  0.33333333  0.06278183  1.0
  Nb  Nb29  1  0.13415733  0.66666667  0.06278183  1.0
  Nb  Nb30  1  0.46749067  0.00000000  0.06278183  1.0
  Nb  Nb31  1  0.46749067  0.33333333  0.06278183  1.0
  Nb  Nb32  1  0.46749067  0.66666667  0.06278183  1.0
  Nb  Nb33  1  0.80082400  0.00000000  0.06278183  1.0
  Nb  Nb34  1  0.80082400  0.33333333  0.06278183  1.0
  Nb  Nb35  1  0.80082400  0.66666667  0.06278183  1.0
  Nb  Nb36  1  0.28197700  0.22222222  0.06278183  1.0
  Nb  Nb37  1  0.28197700  0.55555556  0.06278183  1.0
  Nb  Nb38  1  0.28197700  0.88888889  0.06278183  1.0
  Nb  Nb39  1  0.61531033  0.22222222  0.06278183  1.0
  Nb  Nb40  1  0.61531033  0.55555556  0.06278183  1.0
  Nb  Nb41  1  0.61531033  0.88888889  0.06278183  1.0
  Nb  Nb42  1  0.94864367  0.22222222  0.06278183  1.0
  Nb  Nb43  1  0.94864367  0.55555556  0.06278183  1.0
  Nb  Nb44  1  0.94864367  0.88888889  0.06278183  1.0
  Nb  Nb45  1  0.05135633  0.11111111  0.06278183  1.0
  Nb  Nb46  1  0.05135633  0.44444444  0.06278183  1.0
  Nb  Nb47  1  0.05135633  0.77777778  0.06278183  1.0
  Nb  Nb48  1  0.38468967  0.11111111  0.06278183  1.0
  Nb  Nb49  1  0.38468967  0.44444444  0.06278183  1.0
  Nb  Nb50  1  0.38468967  0.77777778  0.06278183  1.0
  Nb  Nb51  1  0.71802300  0.11111111  0.06278183  1.0
  Nb  Nb52  1  0.71802300  0.44444444  0.06278183  1.0
  Nb  Nb53  1  0.71802300  0.77777778  0.06278183  1.0
  Nb  Nb54  1  0.11531033  0.11111111  0.06278183  1.0
  Nb  Nb55  1  0.11531033  0.44444444  0.06278183  1.0
  Nb  Nb56  1  0.11531033  0.77777778  0.06278183  1.0
  Nb  Nb57  1  0.44864367  0.11111111  0.06278183  1.0
  Nb  Nb58  1  0.44864367  0.44444444  0.06278183  1.0
  Nb  Nb59  1  0.44864367  0.77777778  0.06278183  1.0
  Nb  Nb60  1  0.78197700  0.11111111  0.06278183  1.0
  Nb  Nb61  1  0.78197700  0.44444444  0.06278183  1.0
  Nb  Nb62  1  0.78197700  0.77777778  0.06278183  1.0
  Nb  Nb63  1  0.21802300  0.22222222  0.06278183  1.0
  Nb  Nb64  1  0.21802300  0.55555556  0.06278183  1.0
  Nb  Nb65  1  0.21802300  0.88888889  0.06278183  1.0
  Nb  Nb66  1  0.55135633  0.22222222  0.06278183  1.0
  Nb  Nb67  1  0.55135633  0.55555556  0.06278183  1.0
  Nb  Nb68  1  0.55135633  0.88888889  0.06278183  1.0
  Nb  Nb69  1  0.88468967  0.22222222  0.06278183  1.0
  Nb  Nb70  1  0.88468967  0.55555556  0.06278183  1.0
  Nb  Nb71  1  0.88468967  0.88888889  0.06278183  1.0
  Ni  Ni72  1  0.04136433  0.22222222  0.06278183  1.0
  Ni  Ni73  1  0.04136433  0.55555556  0.06278183  1.0
  Ni  Ni74  1  0.04136433  0.88888889  0.06278183  1.0
  Ni  Ni75  1  0.37469767  0.22222222  0.06278183  1.0
  Ni  Ni76  1  0.37469767  0.55555556  0.06278183  1.0
  Ni  Ni77  1  0.37469767  0.88888889  0.06278183  1.0
  Ni  Ni78  1  0.70803100  0.22222222  0.06278183  1.0
  Ni  Ni79  1  0.70803100  0.55555556  0.06278183  1.0
  Ni  Ni80  1  0.70803100  0.88888889  0.06278183  1.0
  Ni  Ni81  1  0.29196900  0.11111111  0.06278183  1.0
  Ni  Ni82  1  0.29196900  0.44444444  0.06278183  1.0
  Ni  Ni83  1  0.29196900  0.77777778  0.06278183  1.0
  Ni  Ni84  1  0.62530233  0.11111111  0.06278183  1.0
  Ni  Ni85  1  0.62530233  0.44444444  0.06278183  1.0
  Ni  Ni86  1  0.62530233  0.77777778  0.06278183  1.0
  Ni  Ni87  1  0.95863567  0.11111111  0.06278183  1.0
  Ni  Ni88  1  0.95863567  0.44444444  0.06278183  1.0
  Ni  Ni89  1  0.95863567  0.77777778  0.06278183  1.0
  Ni  Ni90  1  0.20803100  0.11111111  0.06278183  1.0
  Ni  Ni91  1  0.20803100  0.44444444  0.06278183  1.0
  Ni  Ni92  1  0.20803100  0.77777778  0.06278183  1.0
  Ni  Ni93  1  0.54136433  0.11111111  0.06278183  1.0
  Ni  Ni94  1  0.54136433  0.44444444  0.06278183  1.0
  Ni  Ni95  1  0.54136433  0.77777778  0.06278183  1.0
  Ni  Ni96  1  0.87469767  0.11111111  0.06278183  1.0
  Ni  Ni97  1  0.87469767  0.44444444  0.06278183  1.0
  Ni  Ni98  1  0.87469767  0.77777778  0.06278183  1.0
  Ni  Ni99  1  0.12530233  0.22222222  0.06278183  1.0
  Ni  Ni100  1  0.12530233  0.55555556  0.06278183  1.0
  Ni  Ni101  1  0.12530233  0.88888889  0.06278183  1.0
  Ni  Ni102  1  0.45863567  0.22222222  0.06278183  1.0
  Ni  Ni103  1  0.45863567  0.55555556  0.06278183  1.0
  Ni  Ni104  1  0.45863567  0.88888889  0.06278183  1.0
  Ni  Ni105  1  0.79196900  0.22222222  0.06278183  1.0
  Ni  Ni106  1  0.79196900  0.55555556  0.06278183  1.0
  Ni  Ni107  1  0.79196900  0.88888889  0.06278183  1.0
  Ni  Ni108  1  0.00000000  0.00000000  0.02111517  1.0
  Ni  Ni109  1  0.00000000  0.33333333  0.02111517  1.0
  Ni  Ni110  1  0.00000000  0.66666667  0.02111517  1.0
  Ni  Ni111  1  0.33333333  0.00000000  0.02111517  1.0
  Ni  Ni112  1  0.33333333  0.33333333  0.02111517  1.0
  Ni  Ni113  1  0.33333333  0.66666667  0.02111517  1.0
  Ni  Ni114  1  0.66666667  0.00000000  0.02111517  1.0
  Ni  Ni115  1  0.66666667  0.33333333  0.02111517  1.0
  Ni  Ni116  1  0.66666667  0.66666667  0.02111517  1.0
  Ni  Ni117  1  0.00000000  0.16666667  0.02111517  1.0
  Ni  Ni118  1  0.00000000  0.50000000  0.02111517  1.0
  Ni  Ni119  1  0.00000000  0.83333333  0.02111517  1.0
  Ni  Ni120  1  0.33333333  0.16666667  0.02111517  1.0
  Ni  Ni121  1  0.33333333  0.50000000  0.02111517  1.0
  Ni  Ni122  1  0.33333333  0.83333333  0.02111517  1.0
  Ni  Ni123  1  0.66666667  0.16666667  0.02111517  1.0
  Ni  Ni124  1  0.66666667  0.50000000  0.02111517  1.0
  Ni  Ni125  1  0.66666667  0.83333333  0.02111517  1.0
  Ni  Ni126  1  0.00000000  0.16666667  0.06278183  1.0
  Ni  Ni127  1  0.00000000  0.50000000  0.06278183  1.0
  Ni  Ni128  1  0.00000000  0.83333333  0.06278183  1.0
  Ni  Ni129  1  0.33333333  0.16666667  0.06278183  1.0
  Ni  Ni130  1  0.33333333  0.50000000  0.06278183  1.0
  Ni  Ni131  1  0.33333333  0.83333333  0.06278183  1.0
  Ni  Ni132  1  0.66666667  0.16666667  0.06278183  1.0
  Ni  Ni133  1  0.66666667  0.50000000  0.06278183  1.0
  Ni  Ni134  1  0.66666667  0.83333333  0.06278183  1.0
  Ni  Ni135  1  0.16666667  0.00000000  0.02111517  1.0
  Ni  Ni136  1  0.16666667  0.33333333  0.02111517  1.0
  Ni  Ni137  1  0.16666667  0.66666667  0.02111517  1.0
  Ni  Ni138  1  0.50000000  0.00000000  0.02111517  1.0
  Ni  Ni139  1  0.50000000  0.33333333  0.02111517  1.0
  Ni  Ni140  1  0.50000000  0.66666667  0.02111517  1.0
  Ni  Ni141  1  0.83333333  0.00000000  0.02111517  1.0
  Ni  Ni142  1  0.83333333  0.33333333  0.02111517  1.0
  Ni  Ni143  1  0.83333333  0.66666667  0.02111517  1.0
  Ni  Ni144  1  0.16666667  0.16666667  0.02111517  1.0
  Ni  Ni145  1  0.16666667  0.50000000  0.02111517  1.0
  Ni  Ni146  1  0.16666667  0.83333333  0.02111517  1.0
  Ni  Ni147  1  0.50000000  0.16666667  0.02111517  1.0
  Ni  Ni148  1  0.50000000  0.50000000  0.02111517  1.0
  Ni  Ni149  1  0.50000000  0.83333333  0.02111517  1.0
  Ni  Ni150  1  0.83333333  0.16666667  0.02111517  1.0
  Ni  Ni151  1  0.83333333  0.50000000  0.02111517  1.0
  Ni  Ni152  1  0.83333333  0.83333333  0.02111517  1.0
  Ni  Ni153  1  0.16666667  0.16666667  0.06278183  1.0
  Ni  Ni154  1  0.16666667  0.50000000  0.06278183  1.0
  Ni  Ni155  1  0.16666667  0.83333333  0.06278183  1.0
  Ni  Ni156  1  0.50000000  0.16666667  0.06278183  1.0
  Ni  Ni157  1  0.50000000  0.50000000  0.06278183  1.0
  Ni  Ni158  1  0.50000000  0.83333333  0.06278183  1.0
  Ni  Ni159  1  0.83333333  0.16666667  0.06278183  1.0
  Ni  Ni160  1  0.83333333  0.50000000  0.06278183  1.0
  Ni  Ni161  1  0.83333333  0.83333333  0.06278183  1.0
  Ni  Ni162  1  0.08333333  0.10960800  0.02055150  1.0
  Ni  Ni163  1  0.08333333  0.44294133  0.02055150  1.0
  Ni  Ni164  1  0.08333333  0.77627467  0.02055150  1.0
  Ni  Ni165  1  0.41666667  0.10960800  0.02055150  1.0
  Ni  Ni166  1  0.41666667  0.44294133  0.02055150  1.0
  Ni  Ni167  1  0.41666667  0.77627467  0.02055150  1.0
  Ni  Ni168  1  0.75000000  0.10960800  0.02055150  1.0
  Ni  Ni169  1  0.75000000  0.44294133  0.02055150  1.0
  Ni  Ni170  1  0.75000000  0.77627467  0.02055150  1.0
  Ni  Ni171  1  0.08333333  0.27852933  0.02167883  1.0
  Ni  Ni172  1  0.08333333  0.61186267  0.02167883  1.0
  Ni  Ni173  1  0.08333333  0.94519600  0.02167883  1.0
  Ni  Ni174  1  0.41666667  0.27852933  0.02167883  1.0
  Ni  Ni175  1  0.41666667  0.61186267  0.02167883  1.0
  Ni  Ni176  1  0.41666667  0.94519600  0.02167883  1.0
  Ni  Ni177  1  0.75000000  0.27852933  0.02167883  1.0
  Ni  Ni178  1  0.75000000  0.61186267  0.02167883  1.0
  Ni  Ni179  1  0.75000000  0.94519600  0.02167883  1.0
  Ni  Ni180  1  0.08333333  0.27852933  0.06278183  1.0
  Ni  Ni181  1  0.08333333  0.61186267  0.06278183  1.0
  Ni  Ni182  1  0.08333333  0.94519600  0.06278183  1.0
  Ni  Ni183  1  0.41666667  0.27852933  0.06278183  1.0
  Ni  Ni184  1  0.41666667  0.61186267  0.06278183  1.0
  Ni  Ni185  1  0.41666667  0.94519600  0.06278183  1.0
  Ni  Ni186  1  0.75000000  0.27852933  0.06278183  1.0
  Ni  Ni187  1  0.75000000  0.61186267  0.06278183  1.0
  Ni  Ni188  1  0.75000000  0.94519600  0.06278183  1.0
  Ni  Ni189  1  0.25000000  0.22372533  0.02167883  1.0
  Ni  Ni190  1  0.25000000  0.55705867  0.02167883  1.0
  Ni  Ni191  1  0.25000000  0.89039200  0.02167883  1.0
  Ni  Ni192  1  0.58333333  0.22372533  0.02167883  1.0
  Ni  Ni193  1  0.58333333  0.55705867  0.02167883  1.0
  Ni  Ni194  1  0.58333333  0.89039200  0.02167883  1.0
  Ni  Ni195  1  0.91666667  0.22372533  0.02167883  1.0
  Ni  Ni196  1  0.91666667  0.55705867  0.02167883  1.0
  Ni  Ni197  1  0.91666667  0.89039200  0.02167883  1.0
  Ni  Ni198  1  0.25000000  0.05480400  0.02055150  1.0
  Ni  Ni199  1  0.25000000  0.38813733  0.02055150  1.0
  Ni  Ni200  1  0.25000000  0.72147067  0.02055150  1.0
  Ni  Ni201  1  0.58333333  0.05480400  0.02055150  1.0
  Ni  Ni202  1  0.58333333  0.38813733  0.02055150  1.0
  Ni  Ni203  1  0.58333333  0.72147067  0.02055150  1.0
  Ni  Ni204  1  0.91666667  0.05480400  0.02055150  1.0
  Ni  Ni205  1  0.91666667  0.38813733  0.02055150  1.0
  Ni  Ni206  1  0.91666667  0.72147067  0.02055150  1.0
  Ni  Ni207  1  0.25000000  0.05480400  0.06278183  1.0
  Ni  Ni208  1  0.25000000  0.38813733  0.06278183  1.0
  Ni  Ni209  1  0.25000000  0.72147067  0.06278183  1.0
  Ni  Ni210  1  0.58333333  0.05480400  0.06278183  1.0
  Ni  Ni211  1  0.58333333  0.38813733  0.06278183  1.0
  Ni  Ni212  1  0.58333333  0.72147067  0.06278183  1.0
  Ni  Ni213  1  0.91666667  0.05480400  0.06278183  1.0
  Ni  Ni214  1  0.91666667  0.38813733  0.06278183  1.0
  Ni  Ni215  1  0.91666667  0.72147067  0.06278183  1.0
  Nb  Nb216  1  0.03250933  0.00000000  0.14611517  1.0
  Nb  Nb217  1  0.03250933  0.33333333  0.14611517  1.0
  Nb  Nb218  1  0.03250933  0.66666667  0.14611517  1.0
  Nb  Nb219  1  0.36584267  0.00000000  0.14611517  1.0
  Nb  Nb220  1  0.36584267  0.33333333  0.14611517  1.0
  Nb  Nb221  1  0.36584267  0.66666667  0.14611517  1.0
  Nb  Nb222  1  0.69917600  0.00000000  0.14611517  1.0
  Nb  Nb223  1  0.69917600  0.33333333  0.14611517  1.0
  Nb  Nb224  1  0.69917600  0.66666667  0.14611517  1.0
  Nb  Nb225  1  0.30082400  0.00000000  0.14611517  1.0
  Nb  Nb226  1  0.30082400  0.33333333  0.14611517  1.0
  Nb  Nb227  1  0.30082400  0.66666667  0.14611517  1.0
  Nb  Nb228  1  0.63415733  0.00000000  0.14611517  1.0
  Nb  Nb229  1  0.63415733  0.33333333  0.14611517  1.0
  Nb  Nb230  1  0.63415733  0.66666667  0.14611517  1.0
  Nb  Nb231  1  0.96749067  0.00000000  0.14611517  1.0
  Nb  Nb232  1  0.96749067  0.33333333  0.14611517  1.0
  Nb  Nb233  1  0.96749067  0.66666667  0.14611517  1.0
  Nb  Nb234  1  0.19917600  0.00000000  0.14611517  1.0
  Nb  Nb235  1  0.19917600  0.33333333  0.14611517  1.0
  Nb  Nb236  1  0.19917600  0.66666667  0.14611517  1.0
  Nb  Nb237  1  0.53250933  0.00000000  0.14611517  1.0
  Nb  Nb238  1  0.53250933  0.33333333  0.14611517  1.0
  Nb  Nb239  1  0.53250933  0.66666667  0.14611517  1.0
  Nb  Nb240  1  0.86584267  0.00000000  0.14611517  1.0
  Nb  Nb241  1  0.86584267  0.33333333  0.14611517  1.0
  Nb  Nb242  1  0.86584267  0.66666667  0.14611517  1.0
  Nb  Nb243  1  0.13415733  0.00000000  0.14611517  1.0
  Nb  Nb244  1  0.13415733  0.33333333  0.14611517  1.0
  Nb  Nb245  1  0.13415733  0.66666667  0.14611517  1.0
  Nb  Nb246  1  0.46749067  0.00000000  0.14611517  1.0
  Nb  Nb247  1  0.46749067  0.33333333  0.14611517  1.0
  Nb  Nb248  1  0.46749067  0.66666667  0.14611517  1.0
  Nb  Nb249  1  0.80082400  0.00000000  0.14611517  1.0
  Nb  Nb250  1  0.80082400  0.33333333  0.14611517  1.0
  Nb  Nb251  1  0.80082400  0.66666667  0.14611517  1.0
  Nb  Nb252  1  0.28197700  0.22222222  0.14611517  1.0
  Nb  Nb253  1  0.28197700  0.55555556  0.14611517  1.0
  Nb  Nb254  1  0.28197700  0.88888889  0.14611517  1.0
  Nb  Nb255  1  0.61531033  0.22222222  0.14611517  1.0
  Nb  Nb256  1  0.61531033  0.55555556  0.14611517  1.0
  Nb  Nb257  1  0.61531033  0.88888889  0.14611517  1.0
  Nb  Nb258  1  0.94864367  0.22222222  0.14611517  1.0
  Nb  Nb259  1  0.94864367  0.55555556  0.14611517  1.0
  Nb  Nb260  1  0.94864367  0.88888889  0.14611517  1.0
  Nb  Nb261  1  0.05135633  0.11111111  0.14611517  1.0
  Nb  Nb262  1  0.05135633  0.44444444  0.14611517  1.0
  Nb  Nb263  1  0.05135633  0.77777778  0.14611517  1.0
  Nb  Nb264  1  0.38468967  0.11111111  0.14611517  1.0
  Nb  Nb265  1  0.38468967  0.44444444  0.14611517  1.0
  Nb  Nb266  1  0.38468967  0.77777778  0.14611517  1.0
  Nb  Nb267  1  0.71802300  0.11111111  0.14611517  1.0
  Nb  Nb268  1  0.71802300  0.44444444  0.14611517  1.0
  Nb  Nb269  1  0.71802300  0.77777778  0.14611517  1.0
  Nb  Nb270  1  0.11531033  0.11111111  0.14611517  1.0
  Nb  Nb271  1  0.11531033  0.44444444  0.14611517  1.0
  Nb  Nb272  1  0.11531033  0.77777778  0.14611517  1.0
  Nb  Nb273  1  0.44864367  0.11111111  0.14611517  1.0
  Nb  Nb274  1  0.44864367  0.44444444  0.14611517  1.0
  Nb  Nb275  1  0.44864367  0.77777778  0.14611517  1.0
  Nb  Nb276  1  0.78197700  0.11111111  0.14611517  1.0
  Nb  Nb277  1  0.78197700  0.44444444  0.14611517  1.0
  Nb  Nb278  1  0.78197700  0.77777778  0.14611517  1.0
  Nb  Nb279  1  0.21802300  0.22222222  0.14611517  1.0
  Nb  Nb280  1  0.21802300  0.55555556  0.14611517  1.0
  Nb  Nb281  1  0.21802300  0.88888889  0.14611517  1.0
  Nb  Nb282  1  0.55135633  0.22222222  0.14611517  1.0
  Nb  Nb283  1  0.55135633  0.55555556  0.14611517  1.0
  Nb  Nb284  1  0.55135633  0.88888889  0.14611517  1.0
  Nb  Nb285  1  0.88468967  0.22222222  0.14611517  1.0
  Nb  Nb286  1  0.88468967  0.55555556  0.14611517  1.0
  Nb  Nb287  1  0.88468967  0.88888889  0.14611517  1.0
  Ni  Ni288  1  0.04136433  0.22222222  0.14611517  1.0
  Ni  Ni289  1  0.04136433  0.55555556  0.14611517  1.0
  Ni  Ni290  1  0.04136433  0.88888889  0.14611517  1.0
  Ni  Ni291  1  0.37469767  0.22222222  0.14611517  1.0
  Ni  Ni292  1  0.37469767  0.55555556  0.14611517  1.0
  Ni  Ni293  1  0.37469767  0.88888889  0.14611517  1.0
  Ni  Ni294  1  0.70803100  0.22222222  0.14611517  1.0
  Ni  Ni295  1  0.70803100  0.55555556  0.14611517  1.0
  Ni  Ni296  1  0.70803100  0.88888889  0.14611517  1.0
  Ni  Ni297  1  0.29196900  0.11111111  0.14611517  1.0
  Ni  Ni298  1  0.29196900  0.44444444  0.14611517  1.0
  Ni  Ni299  1  0.29196900  0.77777778  0.14611517  1.0
  Ni  Ni300  1  0.62530233  0.11111111  0.14611517  1.0
  Ni  Ni301  1  0.62530233  0.44444444  0.14611517  1.0
  Ni  Ni302  1  0.62530233  0.77777778  0.14611517  1.0
  Ni  Ni303  1  0.95863567  0.11111111  0.14611517  1.0
  Ni  Ni304  1  0.95863567  0.44444444  0.14611517  1.0
  Ni  Ni305  1  0.95863567  0.77777778  0.14611517  1.0
  Ni  Ni306  1  0.20803100  0.11111111  0.14611517  1.0
  Ni  Ni307  1  0.20803100  0.44444444  0.14611517  1.0
  Ni  Ni308  1  0.20803100  0.77777778  0.14611517  1.0
  Ni  Ni309  1  0.54136433  0.11111111  0.14611517  1.0
  Ni  Ni310  1  0.54136433  0.44444444  0.14611517  1.0
  Ni  Ni311  1  0.54136433  0.77777778  0.14611517  1.0
  Ni  Ni312  1  0.87469767  0.11111111  0.14611517  1.0
  Ni  Ni313  1  0.87469767  0.44444444  0.14611517  1.0
  Ni  Ni314  1  0.87469767  0.77777778  0.14611517  1.0
  Ni  Ni315  1  0.12530233  0.22222222  0.14611517  1.0
  Ni  Ni316  1  0.12530233  0.55555556  0.14611517  1.0
  Ni  Ni317  1  0.12530233  0.88888889  0.14611517  1.0
  Ni  Ni318  1  0.45863567  0.22222222  0.14611517  1.0
  Ni  Ni319  1  0.45863567  0.55555556  0.14611517  1.0
  Ni  Ni320  1  0.45863567  0.88888889  0.14611517  1.0
  Ni  Ni321  1  0.79196900  0.22222222  0.14611517  1.0
  Ni  Ni322  1  0.79196900  0.55555556  0.14611517  1.0
  Ni  Ni323  1  0.79196900  0.88888889  0.14611517  1.0
  Ni  Ni324  1  0.00000000  0.00000000  0.10444850  1.0
  Ni  Ni325  1  0.00000000  0.33333333  0.10444850  1.0
  Ni  Ni326  1  0.00000000  0.66666667  0.10444850  1.0
  Ni  Ni327  1  0.33333333  0.00000000  0.10444850  1.0
  Ni  Ni328  1  0.33333333  0.33333333  0.10444850  1.0
  Ni  Ni329  1  0.33333333  0.66666667  0.10444850  1.0
  Ni  Ni330  1  0.66666667  0.00000000  0.10444850  1.0
  Ni  Ni331  1  0.66666667  0.33333333  0.10444850  1.0
  Ni  Ni332  1  0.66666667  0.66666667  0.10444850  1.0
  Ni  Ni333  1  0.00000000  0.16666667  0.10444850  1.0
  Ni  Ni334  1  0.00000000  0.50000000  0.10444850  1.0
  Ni  Ni335  1  0.00000000  0.83333333  0.10444850  1.0
  Ni  Ni336  1  0.33333333  0.16666667  0.10444850  1.0
  Ni  Ni337  1  0.33333333  0.50000000  0.10444850  1.0
  Ni  Ni338  1  0.33333333  0.83333333  0.10444850  1.0
  Ni  Ni339  1  0.66666667  0.16666667  0.10444850  1.0
  Ni  Ni340  1  0.66666667  0.50000000  0.10444850  1.0
  Ni  Ni341  1  0.66666667  0.83333333  0.10444850  1.0
  Ni  Ni342  1  0.00000000  0.16666667  0.14611517  1.0
  Ni  Ni343  1  0.00000000  0.50000000  0.14611517  1.0
  Ni  Ni344  1  0.00000000  0.83333333  0.14611517  1.0
  Ni  Ni345  1  0.33333333  0.16666667  0.14611517  1.0
  Ni  Ni346  1  0.33333333  0.50000000  0.14611517  1.0
  Ni  Ni347  1  0.33333333  0.83333333  0.14611517  1.0
  Ni  Ni348  1  0.66666667  0.16666667  0.14611517  1.0
  Ni  Ni349  1  0.66666667  0.50000000  0.14611517  1.0
  Ni  Ni350  1  0.66666667  0.83333333  0.14611517  1.0
  Ni  Ni351  1  0.16666667  0.00000000  0.10444850  1.0
  Ni  Ni352  1  0.16666667  0.33333333  0.10444850  1.0
  Ni  Ni353  1  0.16666667  0.66666667  0.10444850  1.0
  Ni  Ni354  1  0.50000000  0.00000000  0.10444850  1.0
  Ni  Ni355  1  0.50000000  0.33333333  0.10444850  1.0
  Ni  Ni356  1  0.50000000  0.66666667  0.10444850  1.0
  Ni  Ni357  1  0.83333333  0.00000000  0.10444850  1.0
  Ni  Ni358  1  0.83333333  0.33333333  0.10444850  1.0
  Ni  Ni359  1  0.83333333  0.66666667  0.10444850  1.0
  Ni  Ni360  1  0.16666667  0.16666667  0.10444850  1.0
  Ni  Ni361  1  0.16666667  0.50000000  0.10444850  1.0
  Ni  Ni362  1  0.16666667  0.83333333  0.10444850  1.0
  Ni  Ni363  1  0.50000000  0.16666667  0.10444850  1.0
  Ni  Ni364  1  0.50000000  0.50000000  0.10444850  1.0
  Ni  Ni365  1  0.50000000  0.83333333  0.10444850  1.0
  Ni  Ni366  1  0.83333333  0.16666667  0.10444850  1.0
  Ni  Ni367  1  0.83333333  0.50000000  0.10444850  1.0
  Ni  Ni368  1  0.83333333  0.83333333  0.10444850  1.0
  Ni  Ni369  1  0.16666667  0.16666667  0.14611517  1.0
  Ni  Ni370  1  0.16666667  0.50000000  0.14611517  1.0
  Ni  Ni371  1  0.16666667  0.83333333  0.14611517  1.0
  Ni  Ni372  1  0.50000000  0.16666667  0.14611517  1.0
  Ni  Ni373  1  0.50000000  0.50000000  0.14611517  1.0
  Ni  Ni374  1  0.50000000  0.83333333  0.14611517  1.0
  Ni  Ni375  1  0.83333333  0.16666667  0.14611517  1.0
  Ni  Ni376  1  0.83333333  0.50000000  0.14611517  1.0
  Ni  Ni377  1  0.83333333  0.83333333  0.14611517  1.0
  Ni  Ni378  1  0.08333333  0.10960800  0.10388483  1.0
  Ni  Ni379  1  0.08333333  0.44294133  0.10388483  1.0
  Ni  Ni380  1  0.08333333  0.77627467  0.10388483  1.0
  Ni  Ni381  1  0.41666667  0.10960800  0.10388483  1.0
  Ni  Ni382  1  0.41666667  0.44294133  0.10388483  1.0
  Ni  Ni383  1  0.41666667  0.77627467  0.10388483  1.0
  Ni  Ni384  1  0.75000000  0.10960800  0.10388483  1.0
  Ni  Ni385  1  0.75000000  0.44294133  0.10388483  1.0
  Ni  Ni386  1  0.75000000  0.77627467  0.10388483  1.0
  Ni  Ni387  1  0.08333333  0.27852933  0.10501217  1.0
  Ni  Ni388  1  0.08333333  0.61186267  0.10501217  1.0
  Ni  Ni389  1  0.08333333  0.94519600  0.10501217  1.0
  Ni  Ni390  1  0.41666667  0.27852933  0.10501217  1.0
  Ni  Ni391  1  0.41666667  0.61186267  0.10501217  1.0
  Ni  Ni392  1  0.41666667  0.94519600  0.10501217  1.0
  Ni  Ni393  1  0.75000000  0.27852933  0.10501217  1.0
  Ni  Ni394  1  0.75000000  0.61186267  0.10501217  1.0
  Ni  Ni395  1  0.75000000  0.94519600  0.10501217  1.0
  Ni  Ni396  1  0.08333333  0.27852933  0.14611517  1.0
  Ni  Ni397  1  0.08333333  0.61186267  0.14611517  1.0
  Ni  Ni398  1  0.08333333  0.94519600  0.14611517  1.0
  Ni  Ni399  1  0.41666667  0.27852933  0.14611517  1.0
  Ni  Ni400  1  0.41666667  0.61186267  0.14611517  1.0
  Ni  Ni401  1  0.41666667  0.94519600  0.14611517  1.0
  Ni  Ni402  1  0.75000000  0.27852933  0.14611517  1.0
  Ni  Ni403  1  0.75000000  0.61186267  0.14611517  1.0
  Ni  Ni404  1  0.75000000  0.94519600  0.14611517  1.0
  Ni  Ni405  1  0.25000000  0.22372533  0.10501217  1.0
  Ni  Ni406  1  0.25000000  0.55705867  0.10501217  1.0
  Ni  Ni407  1  0.25000000  0.89039200  0.10501217  1.0
  Ni  Ni408  1  0.58333333  0.22372533  0.10501217  1.0
  Ni  Ni409  1  0.58333333  0.55705867  0.10501217  1.0
  Ni  Ni410  1  0.58333333  0.89039200  0.10501217  1.0
  Ni  Ni411  1  0.91666667  0.22372533  0.10501217  1.0
  Ni  Ni412  1  0.91666667  0.55705867  0.10501217  1.0
  Ni  Ni413  1  0.91666667  0.89039200  0.10501217  1.0
  Ni  Ni414  1  0.25000000  0.05480400  0.10388483  1.0
  Ni  Ni415  1  0.25000000  0.38813733  0.10388483  1.0
  Ni  Ni416  1  0.25000000  0.72147067  0.10388483  1.0
  Ni  Ni417  1  0.58333333  0.05480400  0.10388483  1.0
  Ni  Ni418  1  0.58333333  0.38813733  0.10388483  1.0
  Ni  Ni419  1  0.58333333  0.72147067  0.10388483  1.0
  Ni  Ni420  1  0.91666667  0.05480400  0.10388483  1.0
  Ni  Ni421  1  0.91666667  0.38813733  0.10388483  1.0
  Ni  Ni422  1  0.91666667  0.72147067  0.10388483  1.0
  Ni  Ni423  1  0.25000000  0.05480400  0.14611517  1.0
  Ni  Ni424  1  0.25000000  0.38813733  0.14611517  1.0
  Ni  Ni425  1  0.25000000  0.72147067  0.14611517  1.0
  Ni  Ni426  1  0.58333333  0.05480400  0.14611517  1.0
  Ni  Ni427  1  0.58333333  0.38813733  0.14611517  1.0
  Ni  Ni428  1  0.58333333  0.72147067  0.14611517  1.0
  Ni  Ni429  1  0.91666667  0.05480400  0.14611517  1.0
  Ni  Ni430  1  0.91666667  0.38813733  0.14611517  1.0
  Ni  Ni431  1  0.91666667  0.72147067  0.14611517  1.0
  Nb  Nb432  1  0.03250933  0.00000000  0.22944850  1.0
  Nb  Nb433  1  0.03250933  0.33333333  0.22944850  1.0
  Nb  Nb434  1  0.03250933  0.66666667  0.22944850  1.0
  Nb  Nb435  1  0.36584267  0.00000000  0.22944850  1.0
  Nb  Nb436  1  0.36584267  0.33333333  0.22944850  1.0
  Nb  Nb437  1  0.36584267  0.66666667  0.22944850  1.0
  Nb  Nb438  1  0.69917600  0.00000000  0.22944850  1.0
  Nb  Nb439  1  0.69917600  0.33333333  0.22944850  1.0
  Nb  Nb440  1  0.69917600  0.66666667  0.22944850  1.0
  Nb  Nb441  1  0.30082400  0.00000000  0.22944850  1.0
  Nb  Nb442  1  0.30082400  0.33333333  0.22944850  1.0
  Nb  Nb443  1  0.30082400  0.66666667  0.22944850  1.0
  Nb  Nb444  1  0.63415733  0.00000000  0.22944850  1.0
  Nb  Nb445  1  0.63415733  0.33333333  0.22944850  1.0
  Nb  Nb446  1  0.63415733  0.66666667  0.22944850  1.0
  Nb  Nb447  1  0.96749067  0.00000000  0.22944850  1.0
  Nb  Nb448  1  0.96749067  0.33333333  0.22944850  1.0
  Nb  Nb449  1  0.96749067  0.66666667  0.22944850  1.0
  Nb  Nb450  1  0.19917600  0.00000000  0.22944850  1.0
  Nb  Nb451  1  0.19917600  0.33333333  0.22944850  1.0
  Nb  Nb452  1  0.19917600  0.66666667  0.22944850  1.0
  Nb  Nb453  1  0.53250933  0.00000000  0.22944850  1.0
  Nb  Nb454  1  0.53250933  0.33333333  0.22944850  1.0
  Nb  Nb455  1  0.53250933  0.66666667  0.22944850  1.0
  Nb  Nb456  1  0.86584267  0.00000000  0.22944850  1.0
  Nb  Nb457  1  0.86584267  0.33333333  0.22944850  1.0
  Nb  Nb458  1  0.86584267  0.66666667  0.22944850  1.0
  Nb  Nb459  1  0.13415733  0.00000000  0.22944850  1.0
  Nb  Nb460  1  0.13415733  0.33333333  0.22944850  1.0
  Nb  Nb461  1  0.13415733  0.66666667  0.22944850  1.0
  Nb  Nb462  1  0.46749067  0.00000000  0.22944850  1.0
  Nb  Nb463  1  0.46749067  0.33333333  0.22944850  1.0
  Nb  Nb464  1  0.46749067  0.66666667  0.22944850  1.0
  Nb  Nb465  1  0.80082400  0.00000000  0.22944850  1.0
  Nb  Nb466  1  0.80082400  0.33333333  0.22944850  1.0
  Nb  Nb467  1  0.80082400  0.66666667  0.22944850  1.0
  Nb  Nb468  1  0.28197700  0.22222222  0.22944850  1.0
  Nb  Nb469  1  0.28197700  0.55555556  0.22944850  1.0
  Nb  Nb470  1  0.28197700  0.88888889  0.22944850  1.0
  Nb  Nb471  1  0.61531033  0.22222222  0.22944850  1.0
  Nb  Nb472  1  0.61531033  0.55555556  0.22944850  1.0
  Nb  Nb473  1  0.61531033  0.88888889  0.22944850  1.0
  Nb  Nb474  1  0.94864367  0.22222222  0.22944850  1.0
  Nb  Nb475  1  0.94864367  0.55555556  0.22944850  1.0
  Nb  Nb476  1  0.94864367  0.88888889  0.22944850  1.0
  Nb  Nb477  1  0.05135633  0.11111111  0.22944850  1.0
  Nb  Nb478  1  0.05135633  0.44444444  0.22944850  1.0
  Nb  Nb479  1  0.05135633  0.77777778  0.22944850  1.0
  Nb  Nb480  1  0.38468967  0.11111111  0.22944850  1.0
  Nb  Nb481  1  0.38468967  0.44444444  0.22944850  1.0
  Nb  Nb482  1  0.38468967  0.77777778  0.22944850  1.0
  Nb  Nb483  1  0.71802300  0.11111111  0.22944850  1.0
  Nb  Nb484  1  0.71802300  0.44444444  0.22944850  1.0
  Nb  Nb485  1  0.71802300  0.77777778  0.22944850  1.0
  Nb  Nb486  1  0.11531033  0.11111111  0.22944850  1.0
  Nb  Nb487  1  0.11531033  0.44444444  0.22944850  1.0
  Nb  Nb488  1  0.11531033  0.77777778  0.22944850  1.0
  Nb  Nb489  1  0.44864367  0.11111111  0.22944850  1.0
  Nb  Nb490  1  0.44864367  0.44444444  0.22944850  1.0
  Nb  Nb491  1  0.44864367  0.77777778  0.22944850  1.0
  Nb  Nb492  1  0.78197700  0.11111111  0.22944850  1.0
  Nb  Nb493  1  0.78197700  0.44444444  0.22944850  1.0
  Nb  Nb494  1  0.78197700  0.77777778  0.22944850  1.0
  Nb  Nb495  1  0.21802300  0.22222222  0.22944850  1.0
  Nb  Nb496  1  0.21802300  0.55555556  0.22944850  1.0
  Nb  Nb497  1  0.21802300  0.88888889  0.22944850  1.0
  Nb  Nb498  1  0.55135633  0.22222222  0.22944850  1.0
  Nb  Nb499  1  0.55135633  0.55555556  0.22944850  1.0
  Nb  Nb500  1  0.55135633  0.88888889  0.22944850  1.0
  Nb  Nb501  1  0.88468967  0.22222222  0.22944850  1.0
  Nb  Nb502  1  0.88468967  0.55555556  0.22944850  1.0
  Nb  Nb503  1  0.88468967  0.88888889  0.22944850  1.0
  Ni  Ni504  1  0.04136433  0.22222222  0.22944850  1.0
  Ni  Ni505  1  0.04136433  0.55555556  0.22944850  1.0
  Ni  Ni506  1  0.04136433  0.88888889  0.22944850  1.0
  Ni  Ni507  1  0.37469767  0.22222222  0.22944850  1.0
  Ni  Ni508  1  0.37469767  0.55555556  0.22944850  1.0
  Ni  Ni509  1  0.37469767  0.88888889  0.22944850  1.0
  Ni  Ni510  1  0.70803100  0.22222222  0.22944850  1.0
  Ni  Ni511  1  0.70803100  0.55555556  0.22944850  1.0
  Ni  Ni512  1  0.70803100  0.88888889  0.22944850  1.0
  Ni  Ni513  1  0.29196900  0.11111111  0.22944850  1.0
  Ni  Ni514  1  0.29196900  0.44444444  0.22944850  1.0
  Ni  Ni515  1  0.29196900  0.77777778  0.22944850  1.0
  Ni  Ni516  1  0.62530233  0.11111111  0.22944850  1.0
  Ni  Ni517  1  0.62530233  0.44444444  0.22944850  1.0
  Ni  Ni518  1  0.62530233  0.77777778  0.22944850  1.0
  Ni  Ni519  1  0.95863567  0.11111111  0.22944850  1.0
  Ni  Ni520  1  0.95863567  0.44444444  0.22944850  1.0
  Ni  Ni521  1  0.95863567  0.77777778  0.22944850  1.0
  Ni  Ni522  1  0.20803100  0.11111111  0.22944850  1.0
  Ni  Ni523  1  0.20803100  0.44444444  0.22944850  1.0
  Ni  Ni524  1  0.20803100  0.77777778  0.22944850  1.0
  Ni  Ni525  1  0.54136433  0.11111111  0.22944850  1.0
  Ni  Ni526  1  0.54136433  0.44444444  0.22944850  1.0
  Ni  Ni527  1  0.54136433  0.77777778  0.22944850  1.0
  Ni  Ni528  1  0.87469767  0.11111111  0.22944850  1.0
  Ni  Ni529  1  0.87469767  0.44444444  0.22944850  1.0
  Ni  Ni530  1  0.87469767  0.77777778  0.22944850  1.0
  Ni  Ni531  1  0.12530233  0.22222222  0.22944850  1.0
  Ni  Ni532  1  0.12530233  0.55555556  0.22944850  1.0
  Ni  Ni533  1  0.12530233  0.88888889  0.22944850  1.0
  Ni  Ni534  1  0.45863567  0.22222222  0.22944850  1.0
  Ni  Ni535  1  0.45863567  0.55555556  0.22944850  1.0
  Ni  Ni536  1  0.45863567  0.88888889  0.22944850  1.0
  Ni  Ni537  1  0.79196900  0.22222222  0.22944850  1.0
  Ni  Ni538  1  0.79196900  0.55555556  0.22944850  1.0
  Ni  Ni539  1  0.79196900  0.88888889  0.22944850  1.0
  Ni  Ni540  1  0.00000000  0.00000000  0.18778183  1.0
  Ni  Ni541  1  0.00000000  0.33333333  0.18778183  1.0
  Ni  Ni542  1  0.00000000  0.66666667  0.18778183  1.0
  Ni  Ni543  1  0.33333333  0.00000000  0.18778183  1.0
  Ni  Ni544  1  0.33333333  0.33333333  0.18778183  1.0
  Ni  Ni545  1  0.33333333  0.66666667  0.18778183  1.0
  Ni  Ni546  1  0.66666667  0.00000000  0.18778183  1.0
  Ni  Ni547  1  0.66666667  0.33333333  0.18778183  1.0
  Ni  Ni548  1  0.66666667  0.66666667  0.18778183  1.0
  Ni  Ni549  1  0.00000000  0.16666667  0.18778183  1.0
  Ni  Ni550  1  0.00000000  0.50000000  0.18778183  1.0
  Ni  Ni551  1  0.00000000  0.83333333  0.18778183  1.0
  Ni  Ni552  1  0.33333333  0.16666667  0.18778183  1.0
  Ni  Ni553  1  0.33333333  0.50000000  0.18778183  1.0
  Ni  Ni554  1  0.33333333  0.83333333  0.18778183  1.0
  Ni  Ni555  1  0.66666667  0.16666667  0.18778183  1.0
  Ni  Ni556  1  0.66666667  0.50000000  0.18778183  1.0
  Ni  Ni557  1  0.66666667  0.83333333  0.18778183  1.0
  Ni  Ni558  1  0.00000000  0.16666667  0.22944850  1.0
  Ni  Ni559  1  0.00000000  0.50000000  0.22944850  1.0
  Ni  Ni560  1  0.00000000  0.83333333  0.22944850  1.0
  Ni  Ni561  1  0.33333333  0.16666667  0.22944850  1.0
  Ni  Ni562  1  0.33333333  0.50000000  0.22944850  1.0
  Ni  Ni563  1  0.33333333  0.83333333  0.22944850  1.0
  Ni  Ni564  1  0.66666667  0.16666667  0.22944850  1.0
  Ni  Ni565  1  0.66666667  0.50000000  0.22944850  1.0
  Ni  Ni566  1  0.66666667  0.83333333  0.22944850  1.0
  Ni  Ni567  1  0.16666667  0.00000000  0.18778183  1.0
  Ni  Ni568  1  0.16666667  0.33333333  0.18778183  1.0
  Ni  Ni569  1  0.16666667  0.66666667  0.18778183  1.0
  Ni  Ni570  1  0.50000000  0.00000000  0.18778183  1.0
  Ni  Ni571  1  0.50000000  0.33333333  0.18778183  1.0
  Ni  Ni572  1  0.50000000  0.66666667  0.18778183  1.0
  Ni  Ni573  1  0.83333333  0.00000000  0.18778183  1.0
  Ni  Ni574  1  0.83333333  0.33333333  0.18778183  1.0
  Ni  Ni575  1  0.83333333  0.66666667  0.18778183  1.0
  Ni  Ni576  1  0.16666667  0.16666667  0.18778183  1.0
  Ni  Ni577  1  0.16666667  0.50000000  0.18778183  1.0
  Ni  Ni578  1  0.16666667  0.83333333  0.18778183  1.0
  Ni  Ni579  1  0.50000000  0.16666667  0.18778183  1.0
  Ni  Ni580  1  0.50000000  0.50000000  0.18778183  1.0
  Ni  Ni581  1  0.50000000  0.83333333  0.18778183  1.0
  Ni  Ni582  1  0.83333333  0.16666667  0.18778183  1.0
  Ni  Ni583  1  0.83333333  0.50000000  0.18778183  1.0
  Ni  Ni584  1  0.83333333  0.83333333  0.18778183  1.0
  Ni  Ni585  1  0.16666667  0.16666667  0.22944850  1.0
  Ni  Ni586  1  0.16666667  0.50000000  0.22944850  1.0
  Ni  Ni587  1  0.16666667  0.83333333  0.22944850  1.0
  Ni  Ni588  1  0.50000000  0.16666667  0.22944850  1.0
  Ni  Ni589  1  0.50000000  0.50000000  0.22944850  1.0
  Ni  Ni590  1  0.50000000  0.83333333  0.22944850  1.0
  Ni  Ni591  1  0.83333333  0.16666667  0.22944850  1.0
  Ni  Ni592  1  0.83333333  0.50000000  0.22944850  1.0
  Ni  Ni593  1  0.83333333  0.83333333  0.22944850  1.0
  Ni  Ni594  1  0.08333333  0.10960800  0.18721817  1.0
  Ni  Ni595  1  0.08333333  0.44294133  0.18721817  1.0
  Ni  Ni596  1  0.08333333  0.77627467  0.18721817  1.0
  Ni  Ni597  1  0.41666667  0.10960800  0.18721817  1.0
  Ni  Ni598  1  0.41666667  0.44294133  0.18721817  1.0
  Ni  Ni599  1  0.41666667  0.77627467  0.18721817  1.0
  Ni  Ni600  1  0.75000000  0.10960800  0.18721817  1.0
  Ni  Ni601  1  0.75000000  0.44294133  0.18721817  1.0
  Ni  Ni602  1  0.75000000  0.77627467  0.18721817  1.0
  Ni  Ni603  1  0.08333333  0.27852933  0.18834550  1.0
  Ni  Ni604  1  0.08333333  0.61186267  0.18834550  1.0
  Ni  Ni605  1  0.08333333  0.94519600  0.18834550  1.0
  Ni  Ni606  1  0.41666667  0.27852933  0.18834550  1.0
  Ni  Ni607  1  0.41666667  0.61186267  0.18834550  1.0
  Ni  Ni608  1  0.41666667  0.94519600  0.18834550  1.0
  Ni  Ni609  1  0.75000000  0.27852933  0.18834550  1.0
  Ni  Ni610  1  0.75000000  0.61186267  0.18834550  1.0
  Ni  Ni611  1  0.75000000  0.94519600  0.18834550  1.0
  Ni  Ni612  1  0.08333333  0.27852933  0.22944850  1.0
  Ni  Ni613  1  0.08333333  0.61186267  0.22944850  1.0
  Ni  Ni614  1  0.08333333  0.94519600  0.22944850  1.0
  Ni  Ni615  1  0.41666667  0.27852933  0.22944850  1.0
  Ni  Ni616  1  0.41666667  0.61186267  0.22944850  1.0
  Ni  Ni617  1  0.41666667  0.94519600  0.22944850  1.0
  Ni  Ni618  1  0.75000000  0.27852933  0.22944850  1.0
  Ni  Ni619  1  0.75000000  0.61186267  0.22944850  1.0
  Ni  Ni620  1  0.75000000  0.94519600  0.22944850  1.0
  Ni  Ni621  1  0.25000000  0.22372533  0.18834550  1.0
  Ni  Ni622  1  0.25000000  0.55705867  0.18834550  1.0
  Ni  Ni623  1  0.25000000  0.89039200  0.18834550  1.0
  Ni  Ni624  1  0.58333333  0.22372533  0.18834550  1.0
  Ni  Ni625  1  0.58333333  0.55705867  0.18834550  1.0
  Ni  Ni626  1  0.58333333  0.89039200  0.18834550  1.0
  Ni  Ni627  1  0.91666667  0.22372533  0.18834550  1.0
  Ni  Ni628  1  0.91666667  0.55705867  0.18834550  1.0
  Ni  Ni629  1  0.91666667  0.89039200  0.18834550  1.0
  Ni  Ni630  1  0.25000000  0.05480400  0.18721817  1.0
  Ni  Ni631  1  0.25000000  0.38813733  0.18721817  1.0
  Ni  Ni632  1  0.25000000  0.72147067  0.18721817  1.0
  Ni  Ni633  1  0.58333333  0.05480400  0.18721817  1.0
  Ni  Ni634  1  0.58333333  0.38813733  0.18721817  1.0
  Ni  Ni635  1  0.58333333  0.72147067  0.18721817  1.0
  Ni  Ni636  1  0.91666667  0.05480400  0.18721817  1.0
  Ni  Ni637  1  0.91666667  0.38813733  0.18721817  1.0
  Ni  Ni638  1  0.91666667  0.72147067  0.18721817  1.0
  Ni  Ni639  1  0.25000000  0.05480400  0.22944850  1.0
  Ni  Ni640  1  0.25000000  0.38813733  0.22944850  1.0
  Ni  Ni641  1  0.25000000  0.72147067  0.22944850  1.0
  Ni  Ni642  1  0.58333333  0.05480400  0.22944850  1.0
  Ni  Ni643  1  0.58333333  0.38813733  0.22944850  1.0
  Ni  Ni644  1  0.58333333  0.72147067  0.22944850  1.0
  Ni  Ni645  1  0.91666667  0.05480400  0.22944850  1.0
  Ni  Ni646  1  0.91666667  0.38813733  0.22944850  1.0
  Ni  Ni647  1  0.91666667  0.72147067  0.22944850  1.0
  Nb  Nb648  1  0.03250933  0.00000000  0.31278183  1.0
  Nb  Nb649  1  0.03250933  0.33333333  0.31278183  1.0
  Nb  Nb650  1  0.03250933  0.66666667  0.31278183  1.0
  Nb  Nb651  1  0.36584267  0.00000000  0.31278183  1.0
  Nb  Nb652  1  0.36584267  0.33333333  0.31278183  1.0
  Nb  Nb653  1  0.36584267  0.66666667  0.31278183  1.0
  Nb  Nb654  1  0.69917600  0.00000000  0.31278183  1.0
  Nb  Nb655  1  0.69917600  0.33333333  0.31278183  1.0
  Nb  Nb656  1  0.69917600  0.66666667  0.31278183  1.0
  Nb  Nb657  1  0.30082400  0.00000000  0.31278183  1.0
  Nb  Nb658  1  0.30082400  0.33333333  0.31278183  1.0
  Nb  Nb659  1  0.30082400  0.66666667  0.31278183  1.0
  Nb  Nb660  1  0.63415733  0.00000000  0.31278183  1.0
  Nb  Nb661  1  0.63415733  0.33333333  0.31278183  1.0
  Nb  Nb662  1  0.63415733  0.66666667  0.31278183  1.0
  Nb  Nb663  1  0.96749067  0.00000000  0.31278183  1.0
  Nb  Nb664  1  0.96749067  0.33333333  0.31278183  1.0
  Nb  Nb665  1  0.96749067  0.66666667  0.31278183  1.0
  Nb  Nb666  1  0.19917600  0.00000000  0.31278183  1.0
  Nb  Nb667  1  0.19917600  0.33333333  0.31278183  1.0
  Nb  Nb668  1  0.19917600  0.66666667  0.31278183  1.0
  Nb  Nb669  1  0.53250933  0.00000000  0.31278183  1.0
  Nb  Nb670  1  0.53250933  0.33333333  0.31278183  1.0
  Nb  Nb671  1  0.53250933  0.66666667  0.31278183  1.0
  Nb  Nb672  1  0.86584267  0.00000000  0.31278183  1.0
  Nb  Nb673  1  0.86584267  0.33333333  0.31278183  1.0
  Nb  Nb674  1  0.86584267  0.66666667  0.31278183  1.0
  Nb  Nb675  1  0.13415733  0.00000000  0.31278183  1.0
  Nb  Nb676  1  0.13415733  0.33333333  0.31278183  1.0
  Nb  Nb677  1  0.13415733  0.66666667  0.31278183  1.0
  Nb  Nb678  1  0.46749067  0.00000000  0.31278183  1.0
  Nb  Nb679  1  0.46749067  0.33333333  0.31278183  1.0
  Nb  Nb680  1  0.46749067  0.66666667  0.31278183  1.0
  Nb  Nb681  1  0.80082400  0.00000000  0.31278183  1.0
  Nb  Nb682  1  0.80082400  0.33333333  0.31278183  1.0
  Nb  Nb683  1  0.80082400  0.66666667  0.31278183  1.0
  Nb  Nb684  1  0.28197700  0.22222222  0.31278183  1.0
  Nb  Nb685  1  0.28197700  0.55555556  0.31278183  1.0
  Nb  Nb686  1  0.28197700  0.88888889  0.31278183  1.0
  Nb  Nb687  1  0.61531033  0.22222222  0.31278183  1.0
  Nb  Nb688  1  0.61531033  0.55555556  0.31278183  1.0
  Nb  Nb689  1  0.61531033  0.88888889  0.31278183  1.0
  Nb  Nb690  1  0.94864367  0.22222222  0.31278183  1.0
  Nb  Nb691  1  0.94864367  0.55555556  0.31278183  1.0
  Nb  Nb692  1  0.94864367  0.88888889  0.31278183  1.0
  Nb  Nb693  1  0.05135633  0.11111111  0.31278183  1.0
  Nb  Nb694  1  0.05135633  0.44444444  0.31278183  1.0
  Nb  Nb695  1  0.05135633  0.77777778  0.31278183  1.0
  Nb  Nb696  1  0.38468967  0.11111111  0.31278183  1.0
  Nb  Nb697  1  0.38468967  0.44444444  0.31278183  1.0
  Nb  Nb698  1  0.38468967  0.77777778  0.31278183  1.0
  Nb  Nb699  1  0.71802300  0.11111111  0.31278183  1.0
  Nb  Nb700  1  0.71802300  0.44444444  0.31278183  1.0
  Nb  Nb701  1  0.71802300  0.77777778  0.31278183  1.0
  Nb  Nb702  1  0.11531033  0.11111111  0.31278183  1.0
  Nb  Nb703  1  0.11531033  0.44444444  0.31278183  1.0
  Nb  Nb704  1  0.11531033  0.77777778  0.31278183  1.0
  Nb  Nb705  1  0.44864367  0.11111111  0.31278183  1.0
  Nb  Nb706  1  0.44864367  0.44444444  0.31278183  1.0
  Nb  Nb707  1  0.44864367  0.77777778  0.31278183  1.0
  Nb  Nb708  1  0.78197700  0.11111111  0.31278183  1.0
  Nb  Nb709  1  0.78197700  0.44444444  0.31278183  1.0
  Nb  Nb710  1  0.78197700  0.77777778  0.31278183  1.0
  Nb  Nb711  1  0.21802300  0.22222222  0.31278183  1.0
  Nb  Nb712  1  0.21802300  0.55555556  0.31278183  1.0
  Nb  Nb713  1  0.21802300  0.88888889  0.31278183  1.0
  Nb  Nb714  1  0.55135633  0.22222222  0.31278183  1.0
  Nb  Nb715  1  0.55135633  0.55555556  0.31278183  1.0
  Nb  Nb716  1  0.55135633  0.88888889  0.31278183  1.0
  Nb  Nb717  1  0.88468967  0.22222222  0.31278183  1.0
  Nb  Nb718  1  0.88468967  0.55555556  0.31278183  1.0
  Nb  Nb719  1  0.88468967  0.88888889  0.31278183  1.0
  Ni  Ni720  1  0.04136433  0.22222222  0.31278183  1.0
  Ni  Ni721  1  0.04136433  0.55555556  0.31278183  1.0
  Ni  Ni722  1  0.04136433  0.88888889  0.31278183  1.0
  Ni  Ni723  1  0.37469767  0.22222222  0.31278183  1.0
  Ni  Ni724  1  0.37469767  0.55555556  0.31278183  1.0
  Ni  Ni725  1  0.37469767  0.88888889  0.31278183  1.0
  Ni  Ni726  1  0.70803100  0.22222222  0.31278183  1.0
  Ni  Ni727  1  0.70803100  0.55555556  0.31278183  1.0
  Ni  Ni728  1  0.70803100  0.88888889  0.31278183  1.0
  Ni  Ni729  1  0.29196900  0.11111111  0.31278183  1.0
  Ni  Ni730  1  0.29196900  0.44444444  0.31278183  1.0
  Ni  Ni731  1  0.29196900  0.77777778  0.31278183  1.0
  Ni  Ni732  1  0.62530233  0.11111111  0.31278183  1.0
  Ni  Ni733  1  0.62530233  0.44444444  0.31278183  1.0
  Ni  Ni734  1  0.62530233  0.77777778  0.31278183  1.0
  Ni  Ni735  1  0.95863567  0.11111111  0.31278183  1.0
  Ni  Ni736  1  0.95863567  0.44444444  0.31278183  1.0
  Ni  Ni737  1  0.95863567  0.77777778  0.31278183  1.0
  Ni  Ni738  1  0.20803100  0.11111111  0.31278183  1.0
  Ni  Ni739  1  0.20803100  0.44444444  0.31278183  1.0
  Ni  Ni740  1  0.20803100  0.77777778  0.31278183  1.0
  Ni  Ni741  1  0.54136433  0.11111111  0.31278183  1.0
  Ni  Ni742  1  0.54136433  0.44444444  0.31278183  1.0
  Ni  Ni743  1  0.54136433  0.77777778  0.31278183  1.0
  Ni  Ni744  1  0.87469767  0.11111111  0.31278183  1.0
  Ni  Ni745  1  0.87469767  0.44444444  0.31278183  1.0
  Ni  Ni746  1  0.87469767  0.77777778  0.31278183  1.0
  Ni  Ni747  1  0.12530233  0.22222222  0.31278183  1.0
  Ni  Ni748  1  0.12530233  0.55555556  0.31278183  1.0
  Ni  Ni749  1  0.12530233  0.88888889  0.31278183  1.0
  Ni  Ni750  1  0.45863567  0.22222222  0.31278183  1.0
  Ni  Ni751  1  0.45863567  0.55555556  0.31278183  1.0
  Ni  Ni752  1  0.45863567  0.88888889  0.31278183  1.0
  Ni  Ni753  1  0.79196900  0.22222222  0.31278183  1.0
  Ni  Ni754  1  0.79196900  0.55555556  0.31278183  1.0
  Ni  Ni755  1  0.79196900  0.88888889  0.31278183  1.0
  Ni  Ni756  1  0.00000000  0.00000000  0.27111517  1.0
  Ni  Ni757  1  0.00000000  0.33333333  0.27111517  1.0
  Ni  Ni758  1  0.00000000  0.66666667  0.27111517  1.0
  Ni  Ni759  1  0.33333333  0.00000000  0.27111517  1.0
  Ni  Ni760  1  0.33333333  0.33333333  0.27111517  1.0
  Ni  Ni761  1  0.33333333  0.66666667  0.27111517  1.0
  Ni  Ni762  1  0.66666667  0.00000000  0.27111517  1.0
  Ni  Ni763  1  0.66666667  0.33333333  0.27111517  1.0
  Ni  Ni764  1  0.66666667  0.66666667  0.27111517  1.0
  Ni  Ni765  1  0.00000000  0.16666667  0.27111517  1.0
  Ni  Ni766  1  0.00000000  0.50000000  0.27111517  1.0
  Ni  Ni767  1  0.00000000  0.83333333  0.27111517  1.0
  Ni  Ni768  1  0.33333333  0.16666667  0.27111517  1.0
  Ni  Ni769  1  0.33333333  0.50000000  0.27111517  1.0
  Ni  Ni770  1  0.33333333  0.83333333  0.27111517  1.0
  Ni  Ni771  1  0.66666667  0.16666667  0.27111517  1.0
  Ni  Ni772  1  0.66666667  0.50000000  0.27111517  1.0
  Ni  Ni773  1  0.66666667  0.83333333  0.27111517  1.0
  Ni  Ni774  1  0.00000000  0.16666667  0.31278183  1.0
  Ni  Ni775  1  0.00000000  0.50000000  0.31278183  1.0
  Ni  Ni776  1  0.00000000  0.83333333  0.31278183  1.0
  Ni  Ni777  1  0.33333333  0.16666667  0.31278183  1.0
  Ni  Ni778  1  0.33333333  0.50000000  0.31278183  1.0
  Ni  Ni779  1  0.33333333  0.83333333  0.31278183  1.0
  Ni  Ni780  1  0.66666667  0.16666667  0.31278183  1.0
  Ni  Ni781  1  0.66666667  0.50000000  0.31278183  1.0
  Ni  Ni782  1  0.66666667  0.83333333  0.31278183  1.0
  Ni  Ni783  1  0.16666667  0.00000000  0.27111517  1.0
  Ni  Ni784  1  0.16666667  0.33333333  0.27111517  1.0
  Ni  Ni785  1  0.16666667  0.66666667  0.27111517  1.0
  Ni  Ni786  1  0.50000000  0.00000000  0.27111517  1.0
  Ni  Ni787  1  0.50000000  0.33333333  0.27111517  1.0
  Ni  Ni788  1  0.50000000  0.66666667  0.27111517  1.0
  Ni  Ni789  1  0.83333333  0.00000000  0.27111517  1.0
  Ni  Ni790  1  0.83333333  0.33333333  0.27111517  1.0
  Ni  Ni791  1  0.83333333  0.66666667  0.27111517  1.0
  Ni  Ni792  1  0.16666667  0.16666667  0.27111517  1.0
  Ni  Ni793  1  0.16666667  0.50000000  0.27111517  1.0
  Ni  Ni794  1  0.16666667  0.83333333  0.27111517  1.0
  Ni  Ni795  1  0.50000000  0.16666667  0.27111517  1.0
  Ni  Ni796  1  0.50000000  0.50000000  0.27111517  1.0
  Ni  Ni797  1  0.50000000  0.83333333  0.27111517  1.0
  Ni  Ni798  1  0.83333333  0.16666667  0.27111517  1.0
  Ni  Ni799  1  0.83333333  0.50000000  0.27111517  1.0
  Ni  Ni800  1  0.83333333  0.83333333  0.27111517  1.0
  Ni  Ni801  1  0.16666667  0.16666667  0.31278183  1.0
  Ni  Ni802  1  0.16666667  0.50000000  0.31278183  1.0
  Ni  Ni803  1  0.16666667  0.83333333  0.31278183  1.0
  Ni  Ni804  1  0.50000000  0.16666667  0.31278183  1.0
  Ni  Ni805  1  0.50000000  0.50000000  0.31278183  1.0
  Ni  Ni806  1  0.50000000  0.83333333  0.31278183  1.0
  Ni  Ni807  1  0.83333333  0.16666667  0.31278183  1.0
  Ni  Ni808  1  0.83333333  0.50000000  0.31278183  1.0
  Ni  Ni809  1  0.83333333  0.83333333  0.31278183  1.0
  Ni  Ni810  1  0.08333333  0.10960800  0.27055150  1.0
  Ni  Ni811  1  0.08333333  0.44294133  0.27055150  1.0
  Ni  Ni812  1  0.08333333  0.77627467  0.27055150  1.0
  Ni  Ni813  1  0.41666667  0.10960800  0.27055150  1.0
  Ni  Ni814  1  0.41666667  0.44294133  0.27055150  1.0
  Ni  Ni815  1  0.41666667  0.77627467  0.27055150  1.0
  Ni  Ni816  1  0.75000000  0.10960800  0.27055150  1.0
  Ni  Ni817  1  0.75000000  0.44294133  0.27055150  1.0
  Ni  Ni818  1  0.75000000  0.77627467  0.27055150  1.0
  Ni  Ni819  1  0.08333333  0.27852933  0.27167883  1.0
  Ni  Ni820  1  0.08333333  0.61186267  0.27167883  1.0
  Ni  Ni821  1  0.08333333  0.94519600  0.27167883  1.0
  Ni  Ni822  1  0.41666667  0.27852933  0.27167883  1.0
  Ni  Ni823  1  0.41666667  0.61186267  0.27167883  1.0
  Ni  Ni824  1  0.41666667  0.94519600  0.27167883  1.0
  Ni  Ni825  1  0.75000000  0.27852933  0.27167883  1.0
  Ni  Ni826  1  0.75000000  0.61186267  0.27167883  1.0
  Ni  Ni827  1  0.75000000  0.94519600  0.27167883  1.0
  Ni  Ni828  1  0.08333333  0.27852933  0.31278183  1.0
  Ni  Ni829  1  0.08333333  0.61186267  0.31278183  1.0
  Ni  Ni830  1  0.08333333  0.94519600  0.31278183  1.0
  Ni  Ni831  1  0.41666667  0.27852933  0.31278183  1.0
  Ni  Ni832  1  0.41666667  0.61186267  0.31278183  1.0
  Ni  Ni833  1  0.41666667  0.94519600  0.31278183  1.0
  Ni  Ni834  1  0.75000000  0.27852933  0.31278183  1.0
  Ni  Ni835  1  0.75000000  0.61186267  0.31278183  1.0
  Ni  Ni836  1  0.75000000  0.94519600  0.31278183  1.0
  Ni  Ni837  1  0.25000000  0.22372533  0.27167883  1.0
  Ni  Ni838  1  0.25000000  0.55705867  0.27167883  1.0
  Ni  Ni839  1  0.25000000  0.89039200  0.27167883  1.0
  Ni  Ni840  1  0.58333333  0.22372533  0.27167883  1.0
  Ni  Ni841  1  0.58333333  0.55705867  0.27167883  1.0
  Ni  Ni842  1  0.58333333  0.89039200  0.27167883  1.0
  Ni  Ni843  1  0.91666667  0.22372533  0.27167883  1.0
  Ni  Ni844  1  0.91666667  0.55705867  0.27167883  1.0
  Ni  Ni845  1  0.91666667  0.89039200  0.27167883  1.0
  Ni  Ni846  1  0.25000000  0.05480400  0.27055150  1.0
  Ni  Ni847  1  0.25000000  0.38813733  0.27055150  1.0
  Ni  Ni848  1  0.25000000  0.72147067  0.27055150  1.0
  Ni  Ni849  1  0.58333333  0.05480400  0.27055150  1.0
  Ni  Ni850  1  0.58333333  0.38813733  0.27055150  1.0
  Ni  Ni851  1  0.58333333  0.72147067  0.27055150  1.0
  Ni  Ni852  1  0.91666667  0.05480400  0.27055150  1.0
  Ni  Ni853  1  0.91666667  0.38813733  0.27055150  1.0
  Ni  Ni854  1  0.91666667  0.72147067  0.27055150  1.0
  Ni  Ni855  1  0.25000000  0.05480400  0.31278183  1.0
  Ni  Ni856  1  0.25000000  0.38813733  0.31278183  1.0
  Ni  Ni857  1  0.25000000  0.72147067  0.31278183  1.0
  Ni  Ni858  1  0.58333333  0.05480400  0.31278183  1.0
  Ni  Ni859  1  0.58333333  0.38813733  0.31278183  1.0
  Ni  Ni860  1  0.58333333  0.72147067  0.31278183  1.0
  Ni  Ni861  1  0.91666667  0.05480400  0.31278183  1.0
  Ni  Ni862  1  0.91666667  0.38813733  0.31278183  1.0
  Ni  Ni863  1  0.91666667  0.72147067  0.31278183  1.0
  Nb  Nb864  1  0.03250933  0.00000000  0.39611517  1.0
  Nb  Nb865  1  0.03250933  0.33333333  0.39611517  1.0
  Nb  Nb866  1  0.03250933  0.66666667  0.39611517  1.0
  Nb  Nb867  1  0.36584267  0.00000000  0.39611517  1.0
  Nb  Nb868  1  0.36584267  0.33333333  0.39611517  1.0
  Nb  Nb869  1  0.36584267  0.66666667  0.39611517  1.0
  Nb  Nb870  1  0.69917600  0.00000000  0.39611517  1.0
  Nb  Nb871  1  0.69917600  0.33333333  0.39611517  1.0
  Nb  Nb872  1  0.69917600  0.66666667  0.39611517  1.0
  Nb  Nb873  1  0.30082400  0.00000000  0.39611517  1.0
  Nb  Nb874  1  0.30082400  0.33333333  0.39611517  1.0
  Nb  Nb875  1  0.30082400  0.66666667  0.39611517  1.0
  Nb  Nb876  1  0.63415733  0.00000000  0.39611517  1.0
  Nb  Nb877  1  0.63415733  0.33333333  0.39611517  1.0
  Nb  Nb878  1  0.63415733  0.66666667  0.39611517  1.0
  Nb  Nb879  1  0.96749067  0.00000000  0.39611517  1.0
  Nb  Nb880  1  0.96749067  0.33333333  0.39611517  1.0
  Nb  Nb881  1  0.96749067  0.66666667  0.39611517  1.0
  Nb  Nb882  1  0.19917600  0.00000000  0.39611517  1.0
  Nb  Nb883  1  0.19917600  0.33333333  0.39611517  1.0
  Nb  Nb884  1  0.19917600  0.66666667  0.39611517  1.0
  Nb  Nb885  1  0.53250933  0.00000000  0.39611517  1.0
  Nb  Nb886  1  0.53250933  0.33333333  0.39611517  1.0
  Nb  Nb887  1  0.53250933  0.66666667  0.39611517  1.0
  Nb  Nb888  1  0.86584267  0.00000000  0.39611517  1.0
  Nb  Nb889  1  0.86584267  0.33333333  0.39611517  1.0
  Nb  Nb890  1  0.86584267  0.66666667  0.39611517  1.0
  Nb  Nb891  1  0.13415733  0.00000000  0.39611517  1.0
  Nb  Nb892  1  0.13415733  0.33333333  0.39611517  1.0
  Nb  Nb893  1  0.13415733  0.66666667  0.39611517  1.0
  Nb  Nb894  1  0.46749067  0.00000000  0.39611517  1.0
  Nb  Nb895  1  0.46749067  0.33333333  0.39611517  1.0
  Nb  Nb896  1  0.46749067  0.66666667  0.39611517  1.0
  Nb  Nb897  1  0.80082400  0.00000000  0.39611517  1.0
  Nb  Nb898  1  0.80082400  0.33333333  0.39611517  1.0
  Nb  Nb899  1  0.80082400  0.66666667  0.39611517  1.0
  Nb  Nb900  1  0.28197700  0.22222222  0.39611517  1.0
  Nb  Nb901  1  0.28197700  0.55555556  0.39611517  1.0
  Nb  Nb902  1  0.28197700  0.88888889  0.39611517  1.0
  Nb  Nb903  1  0.61531033  0.22222222  0.39611517  1.0
  Nb  Nb904  1  0.61531033  0.55555556  0.39611517  1.0
  Nb  Nb905  1  0.61531033  0.88888889  0.39611517  1.0
  Nb  Nb906  1  0.94864367  0.22222222  0.39611517  1.0
  Nb  Nb907  1  0.94864367  0.55555556  0.39611517  1.0
  Nb  Nb908  1  0.94864367  0.88888889  0.39611517  1.0
  Nb  Nb909  1  0.05135633  0.11111111  0.39611517  1.0
  Nb  Nb910  1  0.05135633  0.44444444  0.39611517  1.0
  Nb  Nb911  1  0.05135633  0.77777778  0.39611517  1.0
  Nb  Nb912  1  0.38468967  0.11111111  0.39611517  1.0
  Nb  Nb913  1  0.38468967  0.44444444  0.39611517  1.0
  Nb  Nb914  1  0.38468967  0.77777778  0.39611517  1.0
  Nb  Nb915  1  0.71802300  0.11111111  0.39611517  1.0
  Nb  Nb916  1  0.71802300  0.44444444  0.39611517  1.0
  Nb  Nb917  1  0.71802300  0.77777778  0.39611517  1.0
  Nb  Nb918  1  0.11531033  0.11111111  0.39611517  1.0
  Nb  Nb919  1  0.11531033  0.44444444  0.39611517  1.0
  Nb  Nb920  1  0.11531033  0.77777778  0.39611517  1.0
  Nb  Nb921  1  0.44864367  0.11111111  0.39611517  1.0
  Nb  Nb922  1  0.44864367  0.44444444  0.39611517  1.0
  Nb  Nb923  1  0.44864367  0.77777778  0.39611517  1.0
  Nb  Nb924  1  0.78197700  0.11111111  0.39611517  1.0
  Nb  Nb925  1  0.78197700  0.44444444  0.39611517  1.0
  Nb  Nb926  1  0.78197700  0.77777778  0.39611517  1.0
  Nb  Nb927  1  0.21802300  0.22222222  0.39611517  1.0
  Nb  Nb928  1  0.21802300  0.55555556  0.39611517  1.0
  Nb  Nb929  1  0.21802300  0.88888889  0.39611517  1.0
  Nb  Nb930  1  0.55135633  0.22222222  0.39611517  1.0
  Nb  Nb931  1  0.55135633  0.55555556  0.39611517  1.0
  Nb  Nb932  1  0.55135633  0.88888889  0.39611517  1.0
  Nb  Nb933  1  0.88468967  0.22222222  0.39611517  1.0
  Nb  Nb934  1  0.88468967  0.55555556  0.39611517  1.0
  Nb  Nb935  1  0.88468967  0.88888889  0.39611517  1.0
  Ni  Ni936  1  0.04136433  0.22222222  0.39611517  1.0
  Ni  Ni937  1  0.04136433  0.55555556  0.39611517  1.0
  Ni  Ni938  1  0.04136433  0.88888889  0.39611517  1.0
  Ni  Ni939  1  0.37469767  0.22222222  0.39611517  1.0
  Ni  Ni940  1  0.37469767  0.55555556  0.39611517  1.0
  Ni  Ni941  1  0.37469767  0.88888889  0.39611517  1.0
  Ni  Ni942  1  0.70803100  0.22222222  0.39611517  1.0
  Ni  Ni943  1  0.70803100  0.55555556  0.39611517  1.0
  Ni  Ni944  1  0.70803100  0.88888889  0.39611517  1.0
  Ni  Ni945  1  0.29196900  0.11111111  0.39611517  1.0
  Ni  Ni946  1  0.29196900  0.44444444  0.39611517  1.0
  Ni  Ni947  1  0.29196900  0.77777778  0.39611517  1.0
  Ni  Ni948  1  0.62530233  0.11111111  0.39611517  1.0
  Ni  Ni949  1  0.62530233  0.44444444  0.39611517  1.0
  Ni  Ni950  1  0.62530233  0.77777778  0.39611517  1.0
  Ni  Ni951  1  0.95863567  0.11111111  0.39611517  1.0
  Ni  Ni952  1  0.95863567  0.44444444  0.39611517  1.0
  Ni  Ni953  1  0.95863567  0.77777778  0.39611517  1.0
  Ni  Ni954  1  0.20803100  0.11111111  0.39611517  1.0
  Ni  Ni955  1  0.20803100  0.44444444  0.39611517  1.0
  Ni  Ni956  1  0.20803100  0.77777778  0.39611517  1.0
  Ni  Ni957  1  0.54136433  0.11111111  0.39611517  1.0
  Ni  Ni958  1  0.54136433  0.44444444  0.39611517  1.0
  Ni  Ni959  1  0.54136433  0.77777778  0.39611517  1.0
  Ni  Ni960  1  0.87469767  0.11111111  0.39611517  1.0
  Ni  Ni961  1  0.87469767  0.44444444  0.39611517  1.0
  Ni  Ni962  1  0.87469767  0.77777778  0.39611517  1.0
  Ni  Ni963  1  0.12530233  0.22222222  0.39611517  1.0
  Ni  Ni964  1  0.12530233  0.55555556  0.39611517  1.0
  Ni  Ni965  1  0.12530233  0.88888889  0.39611517  1.0
  Ni  Ni966  1  0.45863567  0.22222222  0.39611517  1.0
  Ni  Ni967  1  0.45863567  0.55555556  0.39611517  1.0
  Ni  Ni968  1  0.45863567  0.88888889  0.39611517  1.0
  Ni  Ni969  1  0.79196900  0.22222222  0.39611517  1.0
  Ni  Ni970  1  0.79196900  0.55555556  0.39611517  1.0
  Ni  Ni971  1  0.79196900  0.88888889  0.39611517  1.0
  Ni  Ni972  1  0.00000000  0.00000000  0.35444850  1.0
  Ni  Ni973  1  0.00000000  0.33333333  0.35444850  1.0
  Ni  Ni974  1  0.00000000  0.66666667  0.35444850  1.0
  Ni  Ni975  1  0.33333333  0.00000000  0.35444850  1.0
  Ni  Ni976  1  0.33333333  0.33333333  0.35444850  1.0
  Ni  Ni977  1  0.33333333  0.66666667  0.35444850  1.0
  Ni  Ni978  1  0.66666667  0.00000000  0.35444850  1.0
  Ni  Ni979  1  0.66666667  0.33333333  0.35444850  1.0
  Ni  Ni980  1  0.66666667  0.66666667  0.35444850  1.0
  Ni  Ni981  1  0.00000000  0.16666667  0.35444850  1.0
  Ni  Ni982  1  0.00000000  0.50000000  0.35444850  1.0
  Ni  Ni983  1  0.00000000  0.83333333  0.35444850  1.0
  Ni  Ni984  1  0.33333333  0.16666667  0.35444850  1.0
  Ni  Ni985  1  0.33333333  0.50000000  0.35444850  1.0
  Ni  Ni986  1  0.33333333  0.83333333  0.35444850  1.0
  Ni  Ni987  1  0.66666667  0.16666667  0.35444850  1.0
  Ni  Ni988  1  0.66666667  0.50000000  0.35444850  1.0
  Ni  Ni989  1  0.66666667  0.83333333  0.35444850  1.0
  Ni  Ni990  1  0.00000000  0.16666667  0.39611517  1.0
  Ni  Ni991  1  0.00000000  0.50000000  0.39611517  1.0
  Ni  Ni992  1  0.00000000  0.83333333  0.39611517  1.0
  Ni  Ni993  1  0.33333333  0.16666667  0.39611517  1.0
  Ni  Ni994  1  0.33333333  0.50000000  0.39611517  1.0
  Ni  Ni995  1  0.33333333  0.83333333  0.39611517  1.0
  Ni  Ni996  1  0.66666667  0.16666667  0.39611517  1.0
  Ni  Ni997  1  0.66666667  0.50000000  0.39611517  1.0
  Ni  Ni998  1  0.66666667  0.83333333  0.39611517  1.0
  Ni  Ni999  1  0.16666667  0.00000000  0.35444850  1.0
  Ni  Ni1000  1  0.16666667  0.33333333  0.35444850  1.0
  Ni  Ni1001  1  0.16666667  0.66666667  0.35444850  1.0
  Ni  Ni1002  1  0.50000000  0.00000000  0.35444850  1.0
  Ni  Ni1003  1  0.50000000  0.33333333  0.35444850  1.0
  Ni  Ni1004  1  0.50000000  0.66666667  0.35444850  1.0
  Ni  Ni1005  1  0.83333333  0.00000000  0.35444850  1.0
  Ni  Ni1006  1  0.83333333  0.33333333  0.35444850  1.0
  Ni  Ni1007  1  0.83333333  0.66666667  0.35444850  1.0
  Ni  Ni1008  1  0.16666667  0.16666667  0.35444850  1.0
  Ni  Ni1009  1  0.16666667  0.50000000  0.35444850  1.0
  Ni  Ni1010  1  0.16666667  0.83333333  0.35444850  1.0
  Ni  Ni1011  1  0.50000000  0.16666667  0.35444850  1.0
  Ni  Ni1012  1  0.50000000  0.50000000  0.35444850  1.0
  Ni  Ni1013  1  0.50000000  0.83333333  0.35444850  1.0
  Ni  Ni1014  1  0.83333333  0.16666667  0.35444850  1.0
  Ni  Ni1015  1  0.83333333  0.50000000  0.35444850  1.0
  Ni  Ni1016  1  0.83333333  0.83333333  0.35444850  1.0
  Ni  Ni1017  1  0.16666667  0.16666667  0.39611517  1.0
  Ni  Ni1018  1  0.16666667  0.50000000  0.39611517  1.0
  Ni  Ni1019  1  0.16666667  0.83333333  0.39611517  1.0
  Ni  Ni1020  1  0.50000000  0.16666667  0.39611517  1.0
  Ni  Ni1021  1  0.50000000  0.50000000  0.39611517  1.0
  Ni  Ni1022  1  0.50000000  0.83333333  0.39611517  1.0
  Ni  Ni1023  1  0.83333333  0.16666667  0.39611517  1.0
  Ni  Ni1024  1  0.83333333  0.50000000  0.39611517  1.0
  Ni  Ni1025  1  0.83333333  0.83333333  0.39611517  1.0
  Ni  Ni1026  1  0.08333333  0.10960800  0.35388483  1.0
  Ni  Ni1027  1  0.08333333  0.44294133  0.35388483  1.0
  Ni  Ni1028  1  0.08333333  0.77627467  0.35388483  1.0
  Ni  Ni1029  1  0.41666667  0.10960800  0.35388483  1.0
  Ni  Ni1030  1  0.41666667  0.44294133  0.35388483  1.0
  Ni  Ni1031  1  0.41666667  0.77627467  0.35388483  1.0
  Ni  Ni1032  1  0.75000000  0.10960800  0.35388483  1.0
  Ni  Ni1033  1  0.75000000  0.44294133  0.35388483  1.0
  Ni  Ni1034  1  0.75000000  0.77627467  0.35388483  1.0
  Ni  Ni1035  1  0.08333333  0.27852933  0.35501217  1.0
  Ni  Ni1036  1  0.08333333  0.61186267  0.35501217  1.0
  Ni  Ni1037  1  0.08333333  0.94519600  0.35501217  1.0
  Ni  Ni1038  1  0.41666667  0.27852933  0.35501217  1.0
  Ni  Ni1039  1  0.41666667  0.61186267  0.35501217  1.0
  Ni  Ni1040  1  0.41666667  0.94519600  0.35501217  1.0
  Ni  Ni1041  1  0.75000000  0.27852933  0.35501217  1.0
  Ni  Ni1042  1  0.75000000  0.61186267  0.35501217  1.0
  Ni  Ni1043  1  0.75000000  0.94519600  0.35501217  1.0
  Ni  Ni1044  1  0.08333333  0.27852933  0.39611517  1.0
  Ni  Ni1045  1  0.08333333  0.61186267  0.39611517  1.0
  Ni  Ni1046  1  0.08333333  0.94519600  0.39611517  1.0
  Ni  Ni1047  1  0.41666667  0.27852933  0.39611517  1.0
  Ni  Ni1048  1  0.41666667  0.61186267  0.39611517  1.0
  Ni  Ni1049  1  0.41666667  0.94519600  0.39611517  1.0
  Ni  Ni1050  1  0.75000000  0.27852933  0.39611517  1.0
  Ni  Ni1051  1  0.75000000  0.61186267  0.39611517  1.0
  Ni  Ni1052  1  0.75000000  0.94519600  0.39611517  1.0
  Ni  Ni1053  1  0.25000000  0.22372533  0.35501217  1.0
  Ni  Ni1054  1  0.25000000  0.55705867  0.35501217  1.0
  Ni  Ni1055  1  0.25000000  0.89039200  0.35501217  1.0
  Ni  Ni1056  1  0.58333333  0.22372533  0.35501217  1.0
  Ni  Ni1057  1  0.58333333  0.55705867  0.35501217  1.0
  Ni  Ni1058  1  0.58333333  0.89039200  0.35501217  1.0
  Ni  Ni1059  1  0.91666667  0.22372533  0.35501217  1.0
  Ni  Ni1060  1  0.91666667  0.55705867  0.35501217  1.0
  Ni  Ni1061  1  0.91666667  0.89039200  0.35501217  1.0
  Ni  Ni1062  1  0.25000000  0.05480400  0.35388483  1.0
  Ni  Ni1063  1  0.25000000  0.38813733  0.35388483  1.0
  Ni  Ni1064  1  0.25000000  0.72147067  0.35388483  1.0
  Ni  Ni1065  1  0.58333333  0.05480400  0.35388483  1.0
  Ni  Ni1066  1  0.58333333  0.38813733  0.35388483  1.0
  Ni  Ni1067  1  0.58333333  0.72147067  0.35388483  1.0
  Ni  Ni1068  1  0.91666667  0.05480400  0.35388483  1.0
  Ni  Ni1069  1  0.91666667  0.38813733  0.35388483  1.0
  Ni  Ni1070  1  0.91666667  0.72147067  0.35388483  1.0
  Ni  Ni1071  1  0.25000000  0.05480400  0.39611517  1.0
  Ni  Ni1072  1  0.25000000  0.38813733  0.39611517  1.0
  Ni  Ni1073  1  0.25000000  0.72147067  0.39611517  1.0
  Ni  Ni1074  1  0.58333333  0.05480400  0.39611517  1.0
  Ni  Ni1075  1  0.58333333  0.38813733  0.39611517  1.0
  Ni  Ni1076  1  0.58333333  0.72147067  0.39611517  1.0
  Ni  Ni1077  1  0.91666667  0.05480400  0.39611517  1.0
  Ni  Ni1078  1  0.91666667  0.38813733  0.39611517  1.0
  Ni  Ni1079  1  0.91666667  0.72147067  0.39611517  1.0
