# generated using pymatgen
data_NbNi
_symmetry_space_group_name_H-M   'P 1'
_cell_length_a   38.91400829
_cell_length_b   55.97461536
_cell_length_c   29.41622527
_cell_angle_alpha   90.00000000
_cell_angle_beta   100.89339465
_cell_angle_gamma   107.33429759
_symmetry_Int_Tables_number   1
_chemical_formula_structural   NbNi
_chemical_formula_sum   'Nb936 Ni936'
_cell_volume   59953.63204214
_cell_formula_units_Z   936
loop_
 _symmetry_equiv_pos_site_id
 _symmetry_equiv_pos_as_xyz
  1  'x, y, z'
loop_
 _atom_site_type_symbol
 _atom_site_label
 _atom_site_symmetry_multiplicity
 _atom_site_fract_x
 _atom_site_fract_y
 _atom_site_fract_z
 _atom_site_occupancy
  Nb  Nb0  1  0.21316178  0.23121933  0.97156244  1.0
  Nb  Nb1  1  0.21316178  0.56455267  0.97156244  1.0
  Nb  Nb2  1  0.21316178  0.89788600  0.97156244  1.0
  Nb  Nb3  1  0.54649511  0.23121933  0.97156244  1.0
  Nb  Nb4  1  0.54649511  0.56455267  0.97156244  1.0
  Nb  Nb5  1  0.54649511  0.89788600  0.97156244  1.0
  Nb  Nb6  1  0.87982844  0.23121933  0.97156244  1.0
  Nb  Nb7  1  0.87982844  0.56455267  0.97156244  1.0
  Nb  Nb8  1  0.87982844  0.89788600  0.97156244  1.0
  Nb  Nb9  1  0.32427289  0.23121933  0.91600689  1.0
  Nb  Nb10  1  0.32427289  0.56455267  0.91600689  1.0
  Nb  Nb11  1  0.32427289  0.89788600  0.91600689  1.0
  Nb  Nb12  1  0.65760622  0.23121933  0.91600689  1.0
  Nb  Nb13  1  0.65760622  0.56455267  0.91600689  1.0
  Nb  Nb14  1  0.65760622  0.89788600  0.91600689  1.0
  Nb  Nb15  1  0.99093956  0.23121933  0.91600689  1.0
  Nb  Nb16  1  0.99093956  0.56455267  0.91600689  1.0
  Nb  Nb17  1  0.99093956  0.89788600  0.91600689  1.0
  Nb  Nb18  1  0.32496222  0.06610367  0.91617922  1.0
  Nb  Nb19  1  0.32496222  0.39943700  0.91617922  1.0
  Nb  Nb20  1  0.32496222  0.73277033  0.91617922  1.0
  Nb  Nb21  1  0.65829556  0.06610367  0.91617922  1.0
  Nb  Nb22  1  0.65829556  0.39943700  0.91617922  1.0
  Nb  Nb23  1  0.65829556  0.73277033  0.91617922  1.0
  Nb  Nb24  1  0.99162889  0.06610367  0.91617922  1.0
  Nb  Nb25  1  0.99162889  0.39943700  0.91617922  1.0
  Nb  Nb26  1  0.99162889  0.73277033  0.91617922  1.0
  Nb  Nb27  1  0.21385111  0.06610367  0.97173478  1.0
  Nb  Nb28  1  0.21385111  0.39943700  0.97173478  1.0
  Nb  Nb29  1  0.21385111  0.73277033  0.97173478  1.0
  Nb  Nb30  1  0.54718444  0.06610367  0.97173478  1.0
  Nb  Nb31  1  0.54718444  0.39943700  0.97173478  1.0
  Nb  Nb32  1  0.54718444  0.73277033  0.97173478  1.0
  Nb  Nb33  1  0.88051778  0.06610367  0.97173478  1.0
  Nb  Nb34  1  0.88051778  0.39943700  0.97173478  1.0
  Nb  Nb35  1  0.88051778  0.73277033  0.97173478  1.0
  Nb  Nb36  1  0.23487422  0.28007233  0.97699056  1.0
  Nb  Nb37  1  0.23487422  0.61340567  0.97699056  1.0
  Nb  Nb38  1  0.23487422  0.94673900  0.97699056  1.0
  Nb  Nb39  1  0.56820756  0.28007233  0.97699056  1.0
  Nb  Nb40  1  0.56820756  0.61340567  0.97699056  1.0
  Nb  Nb41  1  0.56820756  0.94673900  0.97699056  1.0
  Nb  Nb42  1  0.90154089  0.28007233  0.97699056  1.0
  Nb  Nb43  1  0.90154089  0.61340567  0.97699056  1.0
  Nb  Nb44  1  0.90154089  0.94673900  0.97699056  1.0
  Nb  Nb45  1  0.01265200  0.28007233  0.92143500  1.0
  Nb  Nb46  1  0.01265200  0.61340567  0.92143500  1.0
  Nb  Nb47  1  0.01265200  0.94673900  0.92143500  1.0
  Nb  Nb48  1  0.34598533  0.28007233  0.92143500  1.0
  Nb  Nb49  1  0.34598533  0.61340567  0.92143500  1.0
  Nb  Nb50  1  0.34598533  0.94673900  0.92143500  1.0
  Nb  Nb51  1  0.67931867  0.28007233  0.92143500  1.0
  Nb  Nb52  1  0.67931867  0.61340567  0.92143500  1.0
  Nb  Nb53  1  0.67931867  0.94673900  0.92143500  1.0
  Nb  Nb54  1  0.01334133  0.11495667  0.92160733  1.0
  Nb  Nb55  1  0.01334133  0.44829000  0.92160733  1.0
  Nb  Nb56  1  0.01334133  0.78162333  0.92160733  1.0
  Nb  Nb57  1  0.34667467  0.11495667  0.92160733  1.0
  Nb  Nb58  1  0.34667467  0.44829000  0.92160733  1.0
  Nb  Nb59  1  0.34667467  0.78162333  0.92160733  1.0
  Nb  Nb60  1  0.68000800  0.11495667  0.92160733  1.0
  Nb  Nb61  1  0.68000800  0.44829000  0.92160733  1.0
  Nb  Nb62  1  0.68000800  0.78162333  0.92160733  1.0
  Nb  Nb63  1  0.23556356  0.11495667  0.97716289  1.0
  Nb  Nb64  1  0.23556356  0.44829000  0.97716289  1.0
  Nb  Nb65  1  0.23556356  0.78162333  0.97716289  1.0
  Nb  Nb66  1  0.56889689  0.11495667  0.97716289  1.0
  Nb  Nb67  1  0.56889689  0.44829000  0.97716289  1.0
  Nb  Nb68  1  0.56889689  0.78162333  0.97716289  1.0
  Nb  Nb69  1  0.90223022  0.11495667  0.97716289  1.0
  Nb  Nb70  1  0.90223022  0.44829000  0.97716289  1.0
  Nb  Nb71  1  0.90223022  0.78162333  0.97716289  1.0
  Nb  Nb72  1  0.26082222  0.25512200  0.90014422  1.0
  Nb  Nb73  1  0.26082222  0.58845533  0.90014422  1.0
  Nb  Nb74  1  0.26082222  0.92178867  0.90014422  1.0
  Nb  Nb75  1  0.59415556  0.25512200  0.90014422  1.0
  Nb  Nb76  1  0.59415556  0.58845533  0.90014422  1.0
  Nb  Nb77  1  0.59415556  0.92178867  0.90014422  1.0
  Nb  Nb78  1  0.92748889  0.25512200  0.90014422  1.0
  Nb  Nb79  1  0.92748889  0.58845533  0.90014422  1.0
  Nb  Nb80  1  0.92748889  0.92178867  0.90014422  1.0
  Nb  Nb81  1  0.14971111  0.25512200  0.95569978  1.0
  Nb  Nb82  1  0.14971111  0.58845533  0.95569978  1.0
  Nb  Nb83  1  0.14971111  0.92178867  0.95569978  1.0
  Nb  Nb84  1  0.48304444  0.25512200  0.95569978  1.0
  Nb  Nb85  1  0.48304444  0.58845533  0.95569978  1.0
  Nb  Nb86  1  0.48304444  0.92178867  0.95569978  1.0
  Nb  Nb87  1  0.81637778  0.25512200  0.95569978  1.0
  Nb  Nb88  1  0.81637778  0.58845533  0.95569978  1.0
  Nb  Nb89  1  0.81637778  0.92178867  0.95569978  1.0
  Nb  Nb90  1  0.15080711  0.09092133  0.95597378  1.0
  Nb  Nb91  1  0.15080711  0.42425467  0.95597378  1.0
  Nb  Nb92  1  0.15080711  0.75758800  0.95597378  1.0
  Nb  Nb93  1  0.48414044  0.09092133  0.95597378  1.0
  Nb  Nb94  1  0.48414044  0.42425467  0.95597378  1.0
  Nb  Nb95  1  0.48414044  0.75758800  0.95597378  1.0
  Nb  Nb96  1  0.81747378  0.09092133  0.95597378  1.0
  Nb  Nb97  1  0.81747378  0.42425467  0.95597378  1.0
  Nb  Nb98  1  0.81747378  0.75758800  0.95597378  1.0
  Nb  Nb99  1  0.26191822  0.09092133  0.90041822  1.0
  Nb  Nb100  1  0.26191822  0.42425467  0.90041822  1.0
  Nb  Nb101  1  0.26191822  0.75758800  0.90041822  1.0
  Nb  Nb102  1  0.59525156  0.09092133  0.90041822  1.0
  Nb  Nb103  1  0.59525156  0.42425467  0.90041822  1.0
  Nb  Nb104  1  0.59525156  0.75758800  0.90041822  1.0
  Nb  Nb105  1  0.92858489  0.09092133  0.90041822  1.0
  Nb  Nb106  1  0.92858489  0.42425467  0.90041822  1.0
  Nb  Nb107  1  0.92858489  0.75758800  0.90041822  1.0
  Nb  Nb108  1  0.07569600  0.25525467  0.93719600  1.0
  Nb  Nb109  1  0.07569600  0.58858800  0.93719600  1.0
  Nb  Nb110  1  0.07569600  0.92192133  0.93719600  1.0
  Nb  Nb111  1  0.40902933  0.25525467  0.93719600  1.0
  Nb  Nb112  1  0.40902933  0.58858800  0.93719600  1.0
  Nb  Nb113  1  0.40902933  0.92192133  0.93719600  1.0
  Nb  Nb114  1  0.74236267  0.25525467  0.93719600  1.0
  Nb  Nb115  1  0.74236267  0.58858800  0.93719600  1.0
  Nb  Nb116  1  0.74236267  0.92192133  0.93719600  1.0
  Nb  Nb117  1  0.29791822  0.25525467  0.99275156  1.0
  Nb  Nb118  1  0.29791822  0.58858800  0.99275156  1.0
  Nb  Nb119  1  0.29791822  0.92192133  0.99275156  1.0
  Nb  Nb120  1  0.63125156  0.25525467  0.99275156  1.0
  Nb  Nb121  1  0.63125156  0.58858800  0.99275156  1.0
  Nb  Nb122  1  0.63125156  0.92192133  0.99275156  1.0
  Nb  Nb123  1  0.96458489  0.25525467  0.99275156  1.0
  Nb  Nb124  1  0.96458489  0.58858800  0.99275156  1.0
  Nb  Nb125  1  0.96458489  0.92192133  0.99275156  1.0
  Nb  Nb126  1  0.29901422  0.09105400  0.99302556  1.0
  Nb  Nb127  1  0.29901422  0.42438733  0.99302556  1.0
  Nb  Nb128  1  0.29901422  0.75772067  0.99302556  1.0
  Nb  Nb129  1  0.63234756  0.09105400  0.99302556  1.0
  Nb  Nb130  1  0.63234756  0.42438733  0.99302556  1.0
  Nb  Nb131  1  0.63234756  0.75772067  0.99302556  1.0
  Nb  Nb132  1  0.96568089  0.09105400  0.99302556  1.0
  Nb  Nb133  1  0.96568089  0.42438733  0.99302556  1.0
  Nb  Nb134  1  0.96568089  0.75772067  0.99302556  1.0
  Nb  Nb135  1  0.07679200  0.09105400  0.93747000  1.0
  Nb  Nb136  1  0.07679200  0.42438733  0.93747000  1.0
  Nb  Nb137  1  0.07679200  0.75772067  0.93747000  1.0
  Nb  Nb138  1  0.41012533  0.09105400  0.93747000  1.0
  Nb  Nb139  1  0.41012533  0.42438733  0.93747000  1.0
  Nb  Nb140  1  0.41012533  0.75772067  0.93747000  1.0
  Nb  Nb141  1  0.74345867  0.09105400  0.93747000  1.0
  Nb  Nb142  1  0.74345867  0.42438733  0.93747000  1.0
  Nb  Nb143  1  0.74345867  0.75772067  0.93747000  1.0
  Nb  Nb144  1  0.19014489  0.17943133  0.96580822  1.0
  Nb  Nb145  1  0.19014489  0.51276467  0.96580822  1.0
  Nb  Nb146  1  0.19014489  0.84609800  0.96580822  1.0
  Nb  Nb147  1  0.52347822  0.17943133  0.96580822  1.0
  Nb  Nb148  1  0.52347822  0.51276467  0.96580822  1.0
  Nb  Nb149  1  0.52347822  0.84609800  0.96580822  1.0
  Nb  Nb150  1  0.85681156  0.17943133  0.96580822  1.0
  Nb  Nb151  1  0.85681156  0.51276467  0.96580822  1.0
  Nb  Nb152  1  0.85681156  0.84609800  0.96580822  1.0
  Nb  Nb153  1  0.30125600  0.17943133  0.91025267  1.0
  Nb  Nb154  1  0.30125600  0.51276467  0.91025267  1.0
  Nb  Nb155  1  0.30125600  0.84609800  0.91025267  1.0
  Nb  Nb156  1  0.63458933  0.17943133  0.91025267  1.0
  Nb  Nb157  1  0.63458933  0.51276467  0.91025267  1.0
  Nb  Nb158  1  0.63458933  0.84609800  0.91025267  1.0
  Nb  Nb159  1  0.96792267  0.17943133  0.91025267  1.0
  Nb  Nb160  1  0.96792267  0.51276467  0.91025267  1.0
  Nb  Nb161  1  0.96792267  0.84609800  0.91025267  1.0
  Nb  Nb162  1  0.30141689  0.01312667  0.91029289  1.0
  Nb  Nb163  1  0.30141689  0.34646000  0.91029289  1.0
  Nb  Nb164  1  0.30141689  0.67979333  0.91029289  1.0
  Nb  Nb165  1  0.63475022  0.01312667  0.91029289  1.0
  Nb  Nb166  1  0.63475022  0.34646000  0.91029289  1.0
  Nb  Nb167  1  0.63475022  0.67979333  0.91029289  1.0
  Nb  Nb168  1  0.96808356  0.01312667  0.91029289  1.0
  Nb  Nb169  1  0.96808356  0.34646000  0.91029289  1.0
  Nb  Nb170  1  0.96808356  0.67979333  0.91029289  1.0
  Nb  Nb171  1  0.19030578  0.01312667  0.96584844  1.0
  Nb  Nb172  1  0.19030578  0.34646000  0.96584844  1.0
  Nb  Nb173  1  0.19030578  0.67979333  0.96584844  1.0
  Nb  Nb174  1  0.52363911  0.01312667  0.96584844  1.0
  Nb  Nb175  1  0.52363911  0.34646000  0.96584844  1.0
  Nb  Nb176  1  0.52363911  0.67979333  0.96584844  1.0
  Nb  Nb177  1  0.85697244  0.01312667  0.96584844  1.0
  Nb  Nb178  1  0.85697244  0.34646000  0.96584844  1.0
  Nb  Nb179  1  0.85697244  0.67979333  0.96584844  1.0
  Nb  Nb180  1  0.25841956  0.33304933  0.98287689  1.0
  Nb  Nb181  1  0.25841956  0.66638267  0.98287689  1.0
  Nb  Nb182  1  0.25841956  0.99971600  0.98287689  1.0
  Nb  Nb183  1  0.59175289  0.33304933  0.98287689  1.0
  Nb  Nb184  1  0.59175289  0.66638267  0.98287689  1.0
  Nb  Nb185  1  0.59175289  0.99971600  0.98287689  1.0
  Nb  Nb186  1  0.92508622  0.33304933  0.98287689  1.0
  Nb  Nb187  1  0.92508622  0.66638267  0.98287689  1.0
  Nb  Nb188  1  0.92508622  0.99971600  0.98287689  1.0
  Nb  Nb189  1  0.03619733  0.33304933  0.92732133  1.0
  Nb  Nb190  1  0.03619733  0.66638267  0.92732133  1.0
  Nb  Nb191  1  0.03619733  0.99971600  0.92732133  1.0
  Nb  Nb192  1  0.36953067  0.33304933  0.92732133  1.0
  Nb  Nb193  1  0.36953067  0.66638267  0.92732133  1.0
  Nb  Nb194  1  0.36953067  0.99971600  0.92732133  1.0
  Nb  Nb195  1  0.70286400  0.33304933  0.92732133  1.0
  Nb  Nb196  1  0.70286400  0.66638267  0.92732133  1.0
  Nb  Nb197  1  0.70286400  0.99971600  0.92732133  1.0
  Nb  Nb198  1  0.03635822  0.16674467  0.92736156  1.0
  Nb  Nb199  1  0.03635822  0.50007800  0.92736156  1.0
  Nb  Nb200  1  0.03635822  0.83341133  0.92736156  1.0
  Nb  Nb201  1  0.36969156  0.16674467  0.92736156  1.0
  Nb  Nb202  1  0.36969156  0.50007800  0.92736156  1.0
  Nb  Nb203  1  0.36969156  0.83341133  0.92736156  1.0
  Nb  Nb204  1  0.70302489  0.16674467  0.92736156  1.0
  Nb  Nb205  1  0.70302489  0.50007800  0.92736156  1.0
  Nb  Nb206  1  0.70302489  0.83341133  0.92736156  1.0
  Nb  Nb207  1  0.25858044  0.16674467  0.98291711  1.0
  Nb  Nb208  1  0.25858044  0.50007800  0.98291711  1.0
  Nb  Nb209  1  0.25858044  0.83341133  0.98291711  1.0
  Nb  Nb210  1  0.59191378  0.16674467  0.98291711  1.0
  Nb  Nb211  1  0.59191378  0.50007800  0.98291711  1.0
  Nb  Nb212  1  0.59191378  0.83341133  0.98291711  1.0
  Nb  Nb213  1  0.92524711  0.16674467  0.98291711  1.0
  Nb  Nb214  1  0.92524711  0.50007800  0.98291711  1.0
  Nb  Nb215  1  0.92524711  0.83341133  0.98291711  1.0
  Nb  Nb216  1  0.11325156  0.00642133  0.94658489  1.0
  Nb  Nb217  1  0.11325156  0.33975467  0.94658489  1.0
  Nb  Nb218  1  0.11325156  0.67308800  0.94658489  1.0
  Nb  Nb219  1  0.44658489  0.00642133  0.94658489  1.0
  Nb  Nb220  1  0.44658489  0.33975467  0.94658489  1.0
  Nb  Nb221  1  0.44658489  0.67308800  0.94658489  1.0
  Nb  Nb222  1  0.77991822  0.00642133  0.94658489  1.0
  Nb  Nb223  1  0.77991822  0.33975467  0.94658489  1.0
  Nb  Nb224  1  0.77991822  0.67308800  0.94658489  1.0
  Nb  Nb225  1  0.22436267  0.00642133  0.89102933  1.0
  Nb  Nb226  1  0.22436267  0.33975467  0.89102933  1.0
  Nb  Nb227  1  0.22436267  0.67308800  0.89102933  1.0
  Nb  Nb228  1  0.55769600  0.00642133  0.89102933  1.0
  Nb  Nb229  1  0.55769600  0.33975467  0.89102933  1.0
  Nb  Nb230  1  0.55769600  0.67308800  0.89102933  1.0
  Nb  Nb231  1  0.89102933  0.00642133  0.89102933  1.0
  Nb  Nb232  1  0.89102933  0.33975467  0.89102933  1.0
  Nb  Nb233  1  0.89102933  0.67308800  0.89102933  1.0
  Nb  Nb234  1  0.10205067  0.23121933  0.86045133  1.0
  Nb  Nb235  1  0.10205067  0.56455267  0.86045133  1.0
  Nb  Nb236  1  0.10205067  0.89788600  0.86045133  1.0
  Nb  Nb237  1  0.43538400  0.23121933  0.86045133  1.0
  Nb  Nb238  1  0.43538400  0.56455267  0.86045133  1.0
  Nb  Nb239  1  0.43538400  0.89788600  0.86045133  1.0
  Nb  Nb240  1  0.76871733  0.23121933  0.86045133  1.0
  Nb  Nb241  1  0.76871733  0.56455267  0.86045133  1.0
  Nb  Nb242  1  0.76871733  0.89788600  0.86045133  1.0
  Nb  Nb243  1  0.21316178  0.23121933  0.80489578  1.0
  Nb  Nb244  1  0.21316178  0.56455267  0.80489578  1.0
  Nb  Nb245  1  0.21316178  0.89788600  0.80489578  1.0
  Nb  Nb246  1  0.54649511  0.23121933  0.80489578  1.0
  Nb  Nb247  1  0.54649511  0.56455267  0.80489578  1.0
  Nb  Nb248  1  0.54649511  0.89788600  0.80489578  1.0
  Nb  Nb249  1  0.87982844  0.23121933  0.80489578  1.0
  Nb  Nb250  1  0.87982844  0.56455267  0.80489578  1.0
  Nb  Nb251  1  0.87982844  0.89788600  0.80489578  1.0
  Nb  Nb252  1  0.21385111  0.06610367  0.80506811  1.0
  Nb  Nb253  1  0.21385111  0.39943700  0.80506811  1.0
  Nb  Nb254  1  0.21385111  0.73277033  0.80506811  1.0
  Nb  Nb255  1  0.54718444  0.06610367  0.80506811  1.0
  Nb  Nb256  1  0.54718444  0.39943700  0.80506811  1.0
  Nb  Nb257  1  0.54718444  0.73277033  0.80506811  1.0
  Nb  Nb258  1  0.88051778  0.06610367  0.80506811  1.0
  Nb  Nb259  1  0.88051778  0.39943700  0.80506811  1.0
  Nb  Nb260  1  0.88051778  0.73277033  0.80506811  1.0
  Nb  Nb261  1  0.10274000  0.06610367  0.86062367  1.0
  Nb  Nb262  1  0.10274000  0.39943700  0.86062367  1.0
  Nb  Nb263  1  0.10274000  0.73277033  0.86062367  1.0
  Nb  Nb264  1  0.43607333  0.06610367  0.86062367  1.0
  Nb  Nb265  1  0.43607333  0.39943700  0.86062367  1.0
  Nb  Nb266  1  0.43607333  0.73277033  0.86062367  1.0
  Nb  Nb267  1  0.76940667  0.06610367  0.86062367  1.0
  Nb  Nb268  1  0.76940667  0.39943700  0.86062367  1.0
  Nb  Nb269  1  0.76940667  0.73277033  0.86062367  1.0
  Nb  Nb270  1  0.12376311  0.28007233  0.86587944  1.0
  Nb  Nb271  1  0.12376311  0.61340567  0.86587944  1.0
  Nb  Nb272  1  0.12376311  0.94673900  0.86587944  1.0
  Nb  Nb273  1  0.45709644  0.28007233  0.86587944  1.0
  Nb  Nb274  1  0.45709644  0.61340567  0.86587944  1.0
  Nb  Nb275  1  0.45709644  0.94673900  0.86587944  1.0
  Nb  Nb276  1  0.79042978  0.28007233  0.86587944  1.0
  Nb  Nb277  1  0.79042978  0.61340567  0.86587944  1.0
  Nb  Nb278  1  0.79042978  0.94673900  0.86587944  1.0
  Nb  Nb279  1  0.23487422  0.28007233  0.81032389  1.0
  Nb  Nb280  1  0.23487422  0.61340567  0.81032389  1.0
  Nb  Nb281  1  0.23487422  0.94673900  0.81032389  1.0
  Nb  Nb282  1  0.56820756  0.28007233  0.81032389  1.0
  Nb  Nb283  1  0.56820756  0.61340567  0.81032389  1.0
  Nb  Nb284  1  0.56820756  0.94673900  0.81032389  1.0
  Nb  Nb285  1  0.90154089  0.28007233  0.81032389  1.0
  Nb  Nb286  1  0.90154089  0.61340567  0.81032389  1.0
  Nb  Nb287  1  0.90154089  0.94673900  0.81032389  1.0
  Nb  Nb288  1  0.23556356  0.11495667  0.81049622  1.0
  Nb  Nb289  1  0.23556356  0.44829000  0.81049622  1.0
  Nb  Nb290  1  0.23556356  0.78162333  0.81049622  1.0
  Nb  Nb291  1  0.56889689  0.11495667  0.81049622  1.0
  Nb  Nb292  1  0.56889689  0.44829000  0.81049622  1.0
  Nb  Nb293  1  0.56889689  0.78162333  0.81049622  1.0
  Nb  Nb294  1  0.90223022  0.11495667  0.81049622  1.0
  Nb  Nb295  1  0.90223022  0.44829000  0.81049622  1.0
  Nb  Nb296  1  0.90223022  0.78162333  0.81049622  1.0
  Nb  Nb297  1  0.12445244  0.11495667  0.86605178  1.0
  Nb  Nb298  1  0.12445244  0.44829000  0.86605178  1.0
  Nb  Nb299  1  0.12445244  0.78162333  0.86605178  1.0
  Nb  Nb300  1  0.45778578  0.11495667  0.86605178  1.0
  Nb  Nb301  1  0.45778578  0.44829000  0.86605178  1.0
  Nb  Nb302  1  0.45778578  0.78162333  0.86605178  1.0
  Nb  Nb303  1  0.79111911  0.11495667  0.86605178  1.0
  Nb  Nb304  1  0.79111911  0.44829000  0.86605178  1.0
  Nb  Nb305  1  0.79111911  0.78162333  0.86605178  1.0
  Nb  Nb306  1  0.14971111  0.25512200  0.78903311  1.0
  Nb  Nb307  1  0.14971111  0.58845533  0.78903311  1.0
  Nb  Nb308  1  0.14971111  0.92178867  0.78903311  1.0
  Nb  Nb309  1  0.48304444  0.25512200  0.78903311  1.0
  Nb  Nb310  1  0.48304444  0.58845533  0.78903311  1.0
  Nb  Nb311  1  0.48304444  0.92178867  0.78903311  1.0
  Nb  Nb312  1  0.81637778  0.25512200  0.78903311  1.0
  Nb  Nb313  1  0.81637778  0.58845533  0.78903311  1.0
  Nb  Nb314  1  0.81637778  0.92178867  0.78903311  1.0
  Nb  Nb315  1  0.03860000  0.25512200  0.84458867  1.0
  Nb  Nb316  1  0.03860000  0.58845533  0.84458867  1.0
  Nb  Nb317  1  0.03860000  0.92178867  0.84458867  1.0
  Nb  Nb318  1  0.37193333  0.25512200  0.84458867  1.0
  Nb  Nb319  1  0.37193333  0.58845533  0.84458867  1.0
  Nb  Nb320  1  0.37193333  0.92178867  0.84458867  1.0
  Nb  Nb321  1  0.70526667  0.25512200  0.84458867  1.0
  Nb  Nb322  1  0.70526667  0.58845533  0.84458867  1.0
  Nb  Nb323  1  0.70526667  0.92178867  0.84458867  1.0
  Nb  Nb324  1  0.03969600  0.09092133  0.84486267  1.0
  Nb  Nb325  1  0.03969600  0.42425467  0.84486267  1.0
  Nb  Nb326  1  0.03969600  0.75758800  0.84486267  1.0
  Nb  Nb327  1  0.37302933  0.09092133  0.84486267  1.0
  Nb  Nb328  1  0.37302933  0.42425467  0.84486267  1.0
  Nb  Nb329  1  0.37302933  0.75758800  0.84486267  1.0
  Nb  Nb330  1  0.70636267  0.09092133  0.84486267  1.0
  Nb  Nb331  1  0.70636267  0.42425467  0.84486267  1.0
  Nb  Nb332  1  0.70636267  0.75758800  0.84486267  1.0
  Nb  Nb333  1  0.15080711  0.09092133  0.78930711  1.0
  Nb  Nb334  1  0.15080711  0.42425467  0.78930711  1.0
  Nb  Nb335  1  0.15080711  0.75758800  0.78930711  1.0
  Nb  Nb336  1  0.48414044  0.09092133  0.78930711  1.0
  Nb  Nb337  1  0.48414044  0.42425467  0.78930711  1.0
  Nb  Nb338  1  0.48414044  0.75758800  0.78930711  1.0
  Nb  Nb339  1  0.81747378  0.09092133  0.78930711  1.0
  Nb  Nb340  1  0.81747378  0.42425467  0.78930711  1.0
  Nb  Nb341  1  0.81747378  0.75758800  0.78930711  1.0
  Nb  Nb342  1  0.29791822  0.25525467  0.82608489  1.0
  Nb  Nb343  1  0.29791822  0.58858800  0.82608489  1.0
  Nb  Nb344  1  0.29791822  0.92192133  0.82608489  1.0
  Nb  Nb345  1  0.63125156  0.25525467  0.82608489  1.0
  Nb  Nb346  1  0.63125156  0.58858800  0.82608489  1.0
  Nb  Nb347  1  0.63125156  0.92192133  0.82608489  1.0
  Nb  Nb348  1  0.96458489  0.25525467  0.82608489  1.0
  Nb  Nb349  1  0.96458489  0.58858800  0.82608489  1.0
  Nb  Nb350  1  0.96458489  0.92192133  0.82608489  1.0
  Nb  Nb351  1  0.18680711  0.25525467  0.88164044  1.0
  Nb  Nb352  1  0.18680711  0.58858800  0.88164044  1.0
  Nb  Nb353  1  0.18680711  0.92192133  0.88164044  1.0
  Nb  Nb354  1  0.52014044  0.25525467  0.88164044  1.0
  Nb  Nb355  1  0.52014044  0.58858800  0.88164044  1.0
  Nb  Nb356  1  0.52014044  0.92192133  0.88164044  1.0
  Nb  Nb357  1  0.85347378  0.25525467  0.88164044  1.0
  Nb  Nb358  1  0.85347378  0.58858800  0.88164044  1.0
  Nb  Nb359  1  0.85347378  0.92192133  0.88164044  1.0
  Nb  Nb360  1  0.18790311  0.09105400  0.88191444  1.0
  Nb  Nb361  1  0.18790311  0.42438733  0.88191444  1.0
  Nb  Nb362  1  0.18790311  0.75772067  0.88191444  1.0
  Nb  Nb363  1  0.52123644  0.09105400  0.88191444  1.0
  Nb  Nb364  1  0.52123644  0.42438733  0.88191444  1.0
  Nb  Nb365  1  0.52123644  0.75772067  0.88191444  1.0
  Nb  Nb366  1  0.85456978  0.09105400  0.88191444  1.0
  Nb  Nb367  1  0.85456978  0.42438733  0.88191444  1.0
  Nb  Nb368  1  0.85456978  0.75772067  0.88191444  1.0
  Nb  Nb369  1  0.29901422  0.09105400  0.82635889  1.0
  Nb  Nb370  1  0.29901422  0.42438733  0.82635889  1.0
  Nb  Nb371  1  0.29901422  0.75772067  0.82635889  1.0
  Nb  Nb372  1  0.63234756  0.09105400  0.82635889  1.0
  Nb  Nb373  1  0.63234756  0.42438733  0.82635889  1.0
  Nb  Nb374  1  0.63234756  0.75772067  0.82635889  1.0
  Nb  Nb375  1  0.96568089  0.09105400  0.82635889  1.0
  Nb  Nb376  1  0.96568089  0.42438733  0.82635889  1.0
  Nb  Nb377  1  0.96568089  0.75772067  0.82635889  1.0
  Nb  Nb378  1  0.07903378  0.17943133  0.85469711  1.0
  Nb  Nb379  1  0.07903378  0.51276467  0.85469711  1.0
  Nb  Nb380  1  0.07903378  0.84609800  0.85469711  1.0
  Nb  Nb381  1  0.41236711  0.17943133  0.85469711  1.0
  Nb  Nb382  1  0.41236711  0.51276467  0.85469711  1.0
  Nb  Nb383  1  0.41236711  0.84609800  0.85469711  1.0
  Nb  Nb384  1  0.74570044  0.17943133  0.85469711  1.0
  Nb  Nb385  1  0.74570044  0.51276467  0.85469711  1.0
  Nb  Nb386  1  0.74570044  0.84609800  0.85469711  1.0
  Nb  Nb387  1  0.19014489  0.17943133  0.79914156  1.0
  Nb  Nb388  1  0.19014489  0.51276467  0.79914156  1.0
  Nb  Nb389  1  0.19014489  0.84609800  0.79914156  1.0
  Nb  Nb390  1  0.52347822  0.17943133  0.79914156  1.0
  Nb  Nb391  1  0.52347822  0.51276467  0.79914156  1.0
  Nb  Nb392  1  0.52347822  0.84609800  0.79914156  1.0
  Nb  Nb393  1  0.85681156  0.17943133  0.79914156  1.0
  Nb  Nb394  1  0.85681156  0.51276467  0.79914156  1.0
  Nb  Nb395  1  0.85681156  0.84609800  0.79914156  1.0
  Nb  Nb396  1  0.19030578  0.01312667  0.79918178  1.0
  Nb  Nb397  1  0.19030578  0.34646000  0.79918178  1.0
  Nb  Nb398  1  0.19030578  0.67979333  0.79918178  1.0
  Nb  Nb399  1  0.52363911  0.01312667  0.79918178  1.0
  Nb  Nb400  1  0.52363911  0.34646000  0.79918178  1.0
  Nb  Nb401  1  0.52363911  0.67979333  0.79918178  1.0
  Nb  Nb402  1  0.85697244  0.01312667  0.79918178  1.0
  Nb  Nb403  1  0.85697244  0.34646000  0.79918178  1.0
  Nb  Nb404  1  0.85697244  0.67979333  0.79918178  1.0
  Nb  Nb405  1  0.07919467  0.01312667  0.85473733  1.0
  Nb  Nb406  1  0.07919467  0.34646000  0.85473733  1.0
  Nb  Nb407  1  0.07919467  0.67979333  0.85473733  1.0
  Nb  Nb408  1  0.41252800  0.01312667  0.85473733  1.0
  Nb  Nb409  1  0.41252800  0.34646000  0.85473733  1.0
  Nb  Nb410  1  0.41252800  0.67979333  0.85473733  1.0
  Nb  Nb411  1  0.74586133  0.01312667  0.85473733  1.0
  Nb  Nb412  1  0.74586133  0.34646000  0.85473733  1.0
  Nb  Nb413  1  0.74586133  0.67979333  0.85473733  1.0
  Nb  Nb414  1  0.14730844  0.33304933  0.87176578  1.0
  Nb  Nb415  1  0.14730844  0.66638267  0.87176578  1.0
  Nb  Nb416  1  0.14730844  0.99971600  0.87176578  1.0
  Nb  Nb417  1  0.48064178  0.33304933  0.87176578  1.0
  Nb  Nb418  1  0.48064178  0.66638267  0.87176578  1.0
  Nb  Nb419  1  0.48064178  0.99971600  0.87176578  1.0
  Nb  Nb420  1  0.81397511  0.33304933  0.87176578  1.0
  Nb  Nb421  1  0.81397511  0.66638267  0.87176578  1.0
  Nb  Nb422  1  0.81397511  0.99971600  0.87176578  1.0
  Nb  Nb423  1  0.25841956  0.33304933  0.81621022  1.0
  Nb  Nb424  1  0.25841956  0.66638267  0.81621022  1.0
  Nb  Nb425  1  0.25841956  0.99971600  0.81621022  1.0
  Nb  Nb426  1  0.59175289  0.33304933  0.81621022  1.0
  Nb  Nb427  1  0.59175289  0.66638267  0.81621022  1.0
  Nb  Nb428  1  0.59175289  0.99971600  0.81621022  1.0
  Nb  Nb429  1  0.92508622  0.33304933  0.81621022  1.0
  Nb  Nb430  1  0.92508622  0.66638267  0.81621022  1.0
  Nb  Nb431  1  0.92508622  0.99971600  0.81621022  1.0
  Nb  Nb432  1  0.25858044  0.16674467  0.81625044  1.0
  Nb  Nb433  1  0.25858044  0.50007800  0.81625044  1.0
  Nb  Nb434  1  0.25858044  0.83341133  0.81625044  1.0
  Nb  Nb435  1  0.59191378  0.16674467  0.81625044  1.0
  Nb  Nb436  1  0.59191378  0.50007800  0.81625044  1.0
  Nb  Nb437  1  0.59191378  0.83341133  0.81625044  1.0
  Nb  Nb438  1  0.92524711  0.16674467  0.81625044  1.0
  Nb  Nb439  1  0.92524711  0.50007800  0.81625044  1.0
  Nb  Nb440  1  0.92524711  0.83341133  0.81625044  1.0
  Nb  Nb441  1  0.14746933  0.16674467  0.87180600  1.0
  Nb  Nb442  1  0.14746933  0.50007800  0.87180600  1.0
  Nb  Nb443  1  0.14746933  0.83341133  0.87180600  1.0
  Nb  Nb444  1  0.48080267  0.16674467  0.87180600  1.0
  Nb  Nb445  1  0.48080267  0.50007800  0.87180600  1.0
  Nb  Nb446  1  0.48080267  0.83341133  0.87180600  1.0
  Nb  Nb447  1  0.81413600  0.16674467  0.87180600  1.0
  Nb  Nb448  1  0.81413600  0.50007800  0.87180600  1.0
  Nb  Nb449  1  0.81413600  0.83341133  0.87180600  1.0
  Nb  Nb450  1  0.00214044  0.00642133  0.83547378  1.0
  Nb  Nb451  1  0.00214044  0.33975467  0.83547378  1.0
  Nb  Nb452  1  0.00214044  0.67308800  0.83547378  1.0
  Nb  Nb453  1  0.33547378  0.00642133  0.83547378  1.0
  Nb  Nb454  1  0.33547378  0.33975467  0.83547378  1.0
  Nb  Nb455  1  0.33547378  0.67308800  0.83547378  1.0
  Nb  Nb456  1  0.66880711  0.00642133  0.83547378  1.0
  Nb  Nb457  1  0.66880711  0.33975467  0.83547378  1.0
  Nb  Nb458  1  0.66880711  0.67308800  0.83547378  1.0
  Nb  Nb459  1  0.11325156  0.00642133  0.77991822  1.0
  Nb  Nb460  1  0.11325156  0.33975467  0.77991822  1.0
  Nb  Nb461  1  0.11325156  0.67308800  0.77991822  1.0
  Nb  Nb462  1  0.44658489  0.00642133  0.77991822  1.0
  Nb  Nb463  1  0.44658489  0.33975467  0.77991822  1.0
  Nb  Nb464  1  0.44658489  0.67308800  0.77991822  1.0
  Nb  Nb465  1  0.77991822  0.00642133  0.77991822  1.0
  Nb  Nb466  1  0.77991822  0.33975467  0.77991822  1.0
  Nb  Nb467  1  0.77991822  0.67308800  0.77991822  1.0
  Nb  Nb468  1  0.32427289  0.23121933  0.74934022  1.0
  Nb  Nb469  1  0.32427289  0.56455267  0.74934022  1.0
  Nb  Nb470  1  0.32427289  0.89788600  0.74934022  1.0
  Nb  Nb471  1  0.65760622  0.23121933  0.74934022  1.0
  Nb  Nb472  1  0.65760622  0.56455267  0.74934022  1.0
  Nb  Nb473  1  0.65760622  0.89788600  0.74934022  1.0
  Nb  Nb474  1  0.99093956  0.23121933  0.74934022  1.0
  Nb  Nb475  1  0.99093956  0.56455267  0.74934022  1.0
  Nb  Nb476  1  0.99093956  0.89788600  0.74934022  1.0
  Nb  Nb477  1  0.10205067  0.23121933  0.69378467  1.0
  Nb  Nb478  1  0.10205067  0.56455267  0.69378467  1.0
  Nb  Nb479  1  0.10205067  0.89788600  0.69378467  1.0
  Nb  Nb480  1  0.43538400  0.23121933  0.69378467  1.0
  Nb  Nb481  1  0.43538400  0.56455267  0.69378467  1.0
  Nb  Nb482  1  0.43538400  0.89788600  0.69378467  1.0
  Nb  Nb483  1  0.76871733  0.23121933  0.69378467  1.0
  Nb  Nb484  1  0.76871733  0.56455267  0.69378467  1.0
  Nb  Nb485  1  0.76871733  0.89788600  0.69378467  1.0
  Nb  Nb486  1  0.10274000  0.06610367  0.69395700  1.0
  Nb  Nb487  1  0.10274000  0.39943700  0.69395700  1.0
  Nb  Nb488  1  0.10274000  0.73277033  0.69395700  1.0
  Nb  Nb489  1  0.43607333  0.06610367  0.69395700  1.0
  Nb  Nb490  1  0.43607333  0.39943700  0.69395700  1.0
  Nb  Nb491  1  0.43607333  0.73277033  0.69395700  1.0
  Nb  Nb492  1  0.76940667  0.06610367  0.69395700  1.0
  Nb  Nb493  1  0.76940667  0.39943700  0.69395700  1.0
  Nb  Nb494  1  0.76940667  0.73277033  0.69395700  1.0
  Nb  Nb495  1  0.32496222  0.06610367  0.74951256  1.0
  Nb  Nb496  1  0.32496222  0.39943700  0.74951256  1.0
  Nb  Nb497  1  0.32496222  0.73277033  0.74951256  1.0
  Nb  Nb498  1  0.65829556  0.06610367  0.74951256  1.0
  Nb  Nb499  1  0.65829556  0.39943700  0.74951256  1.0
  Nb  Nb500  1  0.65829556  0.73277033  0.74951256  1.0
  Nb  Nb501  1  0.99162889  0.06610367  0.74951256  1.0
  Nb  Nb502  1  0.99162889  0.39943700  0.74951256  1.0
  Nb  Nb503  1  0.99162889  0.73277033  0.74951256  1.0
  Nb  Nb504  1  0.01265200  0.28007233  0.75476833  1.0
  Nb  Nb505  1  0.01265200  0.61340567  0.75476833  1.0
  Nb  Nb506  1  0.01265200  0.94673900  0.75476833  1.0
  Nb  Nb507  1  0.34598533  0.28007233  0.75476833  1.0
  Nb  Nb508  1  0.34598533  0.61340567  0.75476833  1.0
  Nb  Nb509  1  0.34598533  0.94673900  0.75476833  1.0
  Nb  Nb510  1  0.67931867  0.28007233  0.75476833  1.0
  Nb  Nb511  1  0.67931867  0.61340567  0.75476833  1.0
  Nb  Nb512  1  0.67931867  0.94673900  0.75476833  1.0
  Nb  Nb513  1  0.12376311  0.28007233  0.69921278  1.0
  Nb  Nb514  1  0.12376311  0.61340567  0.69921278  1.0
  Nb  Nb515  1  0.12376311  0.94673900  0.69921278  1.0
  Nb  Nb516  1  0.45709644  0.28007233  0.69921278  1.0
  Nb  Nb517  1  0.45709644  0.61340567  0.69921278  1.0
  Nb  Nb518  1  0.45709644  0.94673900  0.69921278  1.0
  Nb  Nb519  1  0.79042978  0.28007233  0.69921278  1.0
  Nb  Nb520  1  0.79042978  0.61340567  0.69921278  1.0
  Nb  Nb521  1  0.79042978  0.94673900  0.69921278  1.0
  Nb  Nb522  1  0.12445244  0.11495667  0.69938511  1.0
  Nb  Nb523  1  0.12445244  0.44829000  0.69938511  1.0
  Nb  Nb524  1  0.12445244  0.78162333  0.69938511  1.0
  Nb  Nb525  1  0.45778578  0.11495667  0.69938511  1.0
  Nb  Nb526  1  0.45778578  0.44829000  0.69938511  1.0
  Nb  Nb527  1  0.45778578  0.78162333  0.69938511  1.0
  Nb  Nb528  1  0.79111911  0.11495667  0.69938511  1.0
  Nb  Nb529  1  0.79111911  0.44829000  0.69938511  1.0
  Nb  Nb530  1  0.79111911  0.78162333  0.69938511  1.0
  Nb  Nb531  1  0.01334133  0.11495667  0.75494067  1.0
  Nb  Nb532  1  0.01334133  0.44829000  0.75494067  1.0
  Nb  Nb533  1  0.01334133  0.78162333  0.75494067  1.0
  Nb  Nb534  1  0.34667467  0.11495667  0.75494067  1.0
  Nb  Nb535  1  0.34667467  0.44829000  0.75494067  1.0
  Nb  Nb536  1  0.34667467  0.78162333  0.75494067  1.0
  Nb  Nb537  1  0.68000800  0.11495667  0.75494067  1.0
  Nb  Nb538  1  0.68000800  0.44829000  0.75494067  1.0
  Nb  Nb539  1  0.68000800  0.78162333  0.75494067  1.0
  Nb  Nb540  1  0.03860000  0.25512200  0.67792200  1.0
  Nb  Nb541  1  0.03860000  0.58845533  0.67792200  1.0
  Nb  Nb542  1  0.03860000  0.92178867  0.67792200  1.0
  Nb  Nb543  1  0.37193333  0.25512200  0.67792200  1.0
  Nb  Nb544  1  0.37193333  0.58845533  0.67792200  1.0
  Nb  Nb545  1  0.37193333  0.92178867  0.67792200  1.0
  Nb  Nb546  1  0.70526667  0.25512200  0.67792200  1.0
  Nb  Nb547  1  0.70526667  0.58845533  0.67792200  1.0
  Nb  Nb548  1  0.70526667  0.92178867  0.67792200  1.0
  Nb  Nb549  1  0.26082222  0.25512200  0.73347756  1.0
  Nb  Nb550  1  0.26082222  0.58845533  0.73347756  1.0
  Nb  Nb551  1  0.26082222  0.92178867  0.73347756  1.0
  Nb  Nb552  1  0.59415556  0.25512200  0.73347756  1.0
  Nb  Nb553  1  0.59415556  0.58845533  0.73347756  1.0
  Nb  Nb554  1  0.59415556  0.92178867  0.73347756  1.0
  Nb  Nb555  1  0.92748889  0.25512200  0.73347756  1.0
  Nb  Nb556  1  0.92748889  0.58845533  0.73347756  1.0
  Nb  Nb557  1  0.92748889  0.92178867  0.73347756  1.0
  Nb  Nb558  1  0.26191822  0.09092133  0.73375156  1.0
  Nb  Nb559  1  0.26191822  0.42425467  0.73375156  1.0
  Nb  Nb560  1  0.26191822  0.75758800  0.73375156  1.0
  Nb  Nb561  1  0.59525156  0.09092133  0.73375156  1.0
  Nb  Nb562  1  0.59525156  0.42425467  0.73375156  1.0
  Nb  Nb563  1  0.59525156  0.75758800  0.73375156  1.0
  Nb  Nb564  1  0.92858489  0.09092133  0.73375156  1.0
  Nb  Nb565  1  0.92858489  0.42425467  0.73375156  1.0
  Nb  Nb566  1  0.92858489  0.75758800  0.73375156  1.0
  Nb  Nb567  1  0.03969600  0.09092133  0.67819600  1.0
  Nb  Nb568  1  0.03969600  0.42425467  0.67819600  1.0
  Nb  Nb569  1  0.03969600  0.75758800  0.67819600  1.0
  Nb  Nb570  1  0.37302933  0.09092133  0.67819600  1.0
  Nb  Nb571  1  0.37302933  0.42425467  0.67819600  1.0
  Nb  Nb572  1  0.37302933  0.75758800  0.67819600  1.0
  Nb  Nb573  1  0.70636267  0.09092133  0.67819600  1.0
  Nb  Nb574  1  0.70636267  0.42425467  0.67819600  1.0
  Nb  Nb575  1  0.70636267  0.75758800  0.67819600  1.0
  Nb  Nb576  1  0.18680711  0.25525467  0.71497378  1.0
  Nb  Nb577  1  0.18680711  0.58858800  0.71497378  1.0
  Nb  Nb578  1  0.18680711  0.92192133  0.71497378  1.0
  Nb  Nb579  1  0.52014044  0.25525467  0.71497378  1.0
  Nb  Nb580  1  0.52014044  0.58858800  0.71497378  1.0
  Nb  Nb581  1  0.52014044  0.92192133  0.71497378  1.0
  Nb  Nb582  1  0.85347378  0.25525467  0.71497378  1.0
  Nb  Nb583  1  0.85347378  0.58858800  0.71497378  1.0
  Nb  Nb584  1  0.85347378  0.92192133  0.71497378  1.0
  Nb  Nb585  1  0.07569600  0.25525467  0.77052933  1.0
  Nb  Nb586  1  0.07569600  0.58858800  0.77052933  1.0
  Nb  Nb587  1  0.07569600  0.92192133  0.77052933  1.0
  Nb  Nb588  1  0.40902933  0.25525467  0.77052933  1.0
  Nb  Nb589  1  0.40902933  0.58858800  0.77052933  1.0
  Nb  Nb590  1  0.40902933  0.92192133  0.77052933  1.0
  Nb  Nb591  1  0.74236267  0.25525467  0.77052933  1.0
  Nb  Nb592  1  0.74236267  0.58858800  0.77052933  1.0
  Nb  Nb593  1  0.74236267  0.92192133  0.77052933  1.0
  Nb  Nb594  1  0.07679200  0.09105400  0.77080333  1.0
  Nb  Nb595  1  0.07679200  0.42438733  0.77080333  1.0
  Nb  Nb596  1  0.07679200  0.75772067  0.77080333  1.0
  Nb  Nb597  1  0.41012533  0.09105400  0.77080333  1.0
  Nb  Nb598  1  0.41012533  0.42438733  0.77080333  1.0
  Nb  Nb599  1  0.41012533  0.75772067  0.77080333  1.0
  Nb  Nb600  1  0.74345867  0.09105400  0.77080333  1.0
  Nb  Nb601  1  0.74345867  0.42438733  0.77080333  1.0
  Nb  Nb602  1  0.74345867  0.75772067  0.77080333  1.0
  Nb  Nb603  1  0.18790311  0.09105400  0.71524778  1.0
  Nb  Nb604  1  0.18790311  0.42438733  0.71524778  1.0
  Nb  Nb605  1  0.18790311  0.75772067  0.71524778  1.0
  Nb  Nb606  1  0.52123644  0.09105400  0.71524778  1.0
  Nb  Nb607  1  0.52123644  0.42438733  0.71524778  1.0
  Nb  Nb608  1  0.52123644  0.75772067  0.71524778  1.0
  Nb  Nb609  1  0.85456978  0.09105400  0.71524778  1.0
  Nb  Nb610  1  0.85456978  0.42438733  0.71524778  1.0
  Nb  Nb611  1  0.85456978  0.75772067  0.71524778  1.0
  Nb  Nb612  1  0.30125600  0.17943133  0.74358600  1.0
  Nb  Nb613  1  0.30125600  0.51276467  0.74358600  1.0
  Nb  Nb614  1  0.30125600  0.84609800  0.74358600  1.0
  Nb  Nb615  1  0.63458933  0.17943133  0.74358600  1.0
  Nb  Nb616  1  0.63458933  0.51276467  0.74358600  1.0
  Nb  Nb617  1  0.63458933  0.84609800  0.74358600  1.0
  Nb  Nb618  1  0.96792267  0.17943133  0.74358600  1.0
  Nb  Nb619  1  0.96792267  0.51276467  0.74358600  1.0
  Nb  Nb620  1  0.96792267  0.84609800  0.74358600  1.0
  Nb  Nb621  1  0.07903378  0.17943133  0.68803044  1.0
  Nb  Nb622  1  0.07903378  0.51276467  0.68803044  1.0
  Nb  Nb623  1  0.07903378  0.84609800  0.68803044  1.0
  Nb  Nb624  1  0.41236711  0.17943133  0.68803044  1.0
  Nb  Nb625  1  0.41236711  0.51276467  0.68803044  1.0
  Nb  Nb626  1  0.41236711  0.84609800  0.68803044  1.0
  Nb  Nb627  1  0.74570044  0.17943133  0.68803044  1.0
  Nb  Nb628  1  0.74570044  0.51276467  0.68803044  1.0
  Nb  Nb629  1  0.74570044  0.84609800  0.68803044  1.0
  Nb  Nb630  1  0.07919467  0.01312667  0.68807067  1.0
  Nb  Nb631  1  0.07919467  0.34646000  0.68807067  1.0
  Nb  Nb632  1  0.07919467  0.67979333  0.68807067  1.0
  Nb  Nb633  1  0.41252800  0.01312667  0.68807067  1.0
  Nb  Nb634  1  0.41252800  0.34646000  0.68807067  1.0
  Nb  Nb635  1  0.41252800  0.67979333  0.68807067  1.0
  Nb  Nb636  1  0.74586133  0.01312667  0.68807067  1.0
  Nb  Nb637  1  0.74586133  0.34646000  0.68807067  1.0
  Nb  Nb638  1  0.74586133  0.67979333  0.68807067  1.0
  Nb  Nb639  1  0.30141689  0.01312667  0.74362622  1.0
  Nb  Nb640  1  0.30141689  0.34646000  0.74362622  1.0
  Nb  Nb641  1  0.30141689  0.67979333  0.74362622  1.0
  Nb  Nb642  1  0.63475022  0.01312667  0.74362622  1.0
  Nb  Nb643  1  0.63475022  0.34646000  0.74362622  1.0
  Nb  Nb644  1  0.63475022  0.67979333  0.74362622  1.0
  Nb  Nb645  1  0.96808356  0.01312667  0.74362622  1.0
  Nb  Nb646  1  0.96808356  0.34646000  0.74362622  1.0
  Nb  Nb647  1  0.96808356  0.67979333  0.74362622  1.0
  Nb  Nb648  1  0.03619733  0.33304933  0.76065467  1.0
  Nb  Nb649  1  0.03619733  0.66638267  0.76065467  1.0
  Nb  Nb650  1  0.03619733  0.99971600  0.76065467  1.0
  Nb  Nb651  1  0.36953067  0.33304933  0.76065467  1.0
  Nb  Nb652  1  0.36953067  0.66638267  0.76065467  1.0
  Nb  Nb653  1  0.36953067  0.99971600  0.76065467  1.0
  Nb  Nb654  1  0.70286400  0.33304933  0.76065467  1.0
  Nb  Nb655  1  0.70286400  0.66638267  0.76065467  1.0
  Nb  Nb656  1  0.70286400  0.99971600  0.76065467  1.0
  Nb  Nb657  1  0.14730844  0.33304933  0.70509911  1.0
  Nb  Nb658  1  0.14730844  0.66638267  0.70509911  1.0
  Nb  Nb659  1  0.14730844  0.99971600  0.70509911  1.0
  Nb  Nb660  1  0.48064178  0.33304933  0.70509911  1.0
  Nb  Nb661  1  0.48064178  0.66638267  0.70509911  1.0
  Nb  Nb662  1  0.48064178  0.99971600  0.70509911  1.0
  Nb  Nb663  1  0.81397511  0.33304933  0.70509911  1.0
  Nb  Nb664  1  0.81397511  0.66638267  0.70509911  1.0
  Nb  Nb665  1  0.81397511  0.99971600  0.70509911  1.0
  Nb  Nb666  1  0.14746933  0.16674467  0.70513933  1.0
  Nb  Nb667  1  0.14746933  0.50007800  0.70513933  1.0
  Nb  Nb668  1  0.14746933  0.83341133  0.70513933  1.0
  Nb  Nb669  1  0.48080267  0.16674467  0.70513933  1.0
  Nb  Nb670  1  0.48080267  0.50007800  0.70513933  1.0
  Nb  Nb671  1  0.48080267  0.83341133  0.70513933  1.0
  Nb  Nb672  1  0.81413600  0.16674467  0.70513933  1.0
  Nb  Nb673  1  0.81413600  0.50007800  0.70513933  1.0
  Nb  Nb674  1  0.81413600  0.83341133  0.70513933  1.0
  Nb  Nb675  1  0.03635822  0.16674467  0.76069489  1.0
  Nb  Nb676  1  0.03635822  0.50007800  0.76069489  1.0
  Nb  Nb677  1  0.03635822  0.83341133  0.76069489  1.0
  Nb  Nb678  1  0.36969156  0.16674467  0.76069489  1.0
  Nb  Nb679  1  0.36969156  0.50007800  0.76069489  1.0
  Nb  Nb680  1  0.36969156  0.83341133  0.76069489  1.0
  Nb  Nb681  1  0.70302489  0.16674467  0.76069489  1.0
  Nb  Nb682  1  0.70302489  0.50007800  0.76069489  1.0
  Nb  Nb683  1  0.70302489  0.83341133  0.76069489  1.0
  Nb  Nb684  1  0.22436267  0.00642133  0.72436267  1.0
  Nb  Nb685  1  0.22436267  0.33975467  0.72436267  1.0
  Nb  Nb686  1  0.22436267  0.67308800  0.72436267  1.0
  Nb  Nb687  1  0.55769600  0.00642133  0.72436267  1.0
  Nb  Nb688  1  0.55769600  0.33975467  0.72436267  1.0
  Nb  Nb689  1  0.55769600  0.67308800  0.72436267  1.0
  Nb  Nb690  1  0.89102933  0.00642133  0.72436267  1.0
  Nb  Nb691  1  0.89102933  0.33975467  0.72436267  1.0
  Nb  Nb692  1  0.89102933  0.67308800  0.72436267  1.0
  Nb  Nb693  1  0.00214044  0.00642133  0.66880711  1.0
  Nb  Nb694  1  0.00214044  0.33975467  0.66880711  1.0
  Nb  Nb695  1  0.00214044  0.67308800  0.66880711  1.0
  Nb  Nb696  1  0.33547378  0.00642133  0.66880711  1.0
  Nb  Nb697  1  0.33547378  0.33975467  0.66880711  1.0
  Nb  Nb698  1  0.33547378  0.67308800  0.66880711  1.0
  Nb  Nb699  1  0.66880711  0.00642133  0.66880711  1.0
  Nb  Nb700  1  0.66880711  0.33975467  0.66880711  1.0
  Nb  Nb701  1  0.66880711  0.67308800  0.66880711  1.0
  Nb  Nb702  1  0.21316178  0.23121933  0.63822911  1.0
  Nb  Nb703  1  0.21316178  0.56455267  0.63822911  1.0
  Nb  Nb704  1  0.21316178  0.89788600  0.63822911  1.0
  Nb  Nb705  1  0.54649511  0.23121933  0.63822911  1.0
  Nb  Nb706  1  0.54649511  0.56455267  0.63822911  1.0
  Nb  Nb707  1  0.54649511  0.89788600  0.63822911  1.0
  Nb  Nb708  1  0.87982844  0.23121933  0.63822911  1.0
  Nb  Nb709  1  0.87982844  0.56455267  0.63822911  1.0
  Nb  Nb710  1  0.87982844  0.89788600  0.63822911  1.0
  Nb  Nb711  1  0.32427289  0.23121933  0.58267356  1.0
  Nb  Nb712  1  0.32427289  0.56455267  0.58267356  1.0
  Nb  Nb713  1  0.32427289  0.89788600  0.58267356  1.0
  Nb  Nb714  1  0.65760622  0.23121933  0.58267356  1.0
  Nb  Nb715  1  0.65760622  0.56455267  0.58267356  1.0
  Nb  Nb716  1  0.65760622  0.89788600  0.58267356  1.0
  Nb  Nb717  1  0.99093956  0.23121933  0.58267356  1.0
  Nb  Nb718  1  0.99093956  0.56455267  0.58267356  1.0
  Nb  Nb719  1  0.99093956  0.89788600  0.58267356  1.0
  Nb  Nb720  1  0.32496222  0.06610367  0.58284589  1.0
  Nb  Nb721  1  0.32496222  0.39943700  0.58284589  1.0
  Nb  Nb722  1  0.32496222  0.73277033  0.58284589  1.0
  Nb  Nb723  1  0.65829556  0.06610367  0.58284589  1.0
  Nb  Nb724  1  0.65829556  0.39943700  0.58284589  1.0
  Nb  Nb725  1  0.65829556  0.73277033  0.58284589  1.0
  Nb  Nb726  1  0.99162889  0.06610367  0.58284589  1.0
  Nb  Nb727  1  0.99162889  0.39943700  0.58284589  1.0
  Nb  Nb728  1  0.99162889  0.73277033  0.58284589  1.0
  Nb  Nb729  1  0.21385111  0.06610367  0.63840144  1.0
  Nb  Nb730  1  0.21385111  0.39943700  0.63840144  1.0
  Nb  Nb731  1  0.21385111  0.73277033  0.63840144  1.0
  Nb  Nb732  1  0.54718444  0.06610367  0.63840144  1.0
  Nb  Nb733  1  0.54718444  0.39943700  0.63840144  1.0
  Nb  Nb734  1  0.54718444  0.73277033  0.63840144  1.0
  Nb  Nb735  1  0.88051778  0.06610367  0.63840144  1.0
  Nb  Nb736  1  0.88051778  0.39943700  0.63840144  1.0
  Nb  Nb737  1  0.88051778  0.73277033  0.63840144  1.0
  Nb  Nb738  1  0.23487422  0.28007233  0.64365722  1.0
  Nb  Nb739  1  0.23487422  0.61340567  0.64365722  1.0
  Nb  Nb740  1  0.23487422  0.94673900  0.64365722  1.0
  Nb  Nb741  1  0.56820756  0.28007233  0.64365722  1.0
  Nb  Nb742  1  0.56820756  0.61340567  0.64365722  1.0
  Nb  Nb743  1  0.56820756  0.94673900  0.64365722  1.0
  Nb  Nb744  1  0.90154089  0.28007233  0.64365722  1.0
  Nb  Nb745  1  0.90154089  0.61340567  0.64365722  1.0
  Nb  Nb746  1  0.90154089  0.94673900  0.64365722  1.0
  Nb  Nb747  1  0.01265200  0.28007233  0.58810167  1.0
  Nb  Nb748  1  0.01265200  0.61340567  0.58810167  1.0
  Nb  Nb749  1  0.01265200  0.94673900  0.58810167  1.0
  Nb  Nb750  1  0.34598533  0.28007233  0.58810167  1.0
  Nb  Nb751  1  0.34598533  0.61340567  0.58810167  1.0
  Nb  Nb752  1  0.34598533  0.94673900  0.58810167  1.0
  Nb  Nb753  1  0.67931867  0.28007233  0.58810167  1.0
  Nb  Nb754  1  0.67931867  0.61340567  0.58810167  1.0
  Nb  Nb755  1  0.67931867  0.94673900  0.58810167  1.0
  Nb  Nb756  1  0.01334133  0.11495667  0.58827400  1.0
  Nb  Nb757  1  0.01334133  0.44829000  0.58827400  1.0
  Nb  Nb758  1  0.01334133  0.78162333  0.58827400  1.0
  Nb  Nb759  1  0.34667467  0.11495667  0.58827400  1.0
  Nb  Nb760  1  0.34667467  0.44829000  0.58827400  1.0
  Nb  Nb761  1  0.34667467  0.78162333  0.58827400  1.0
  Nb  Nb762  1  0.68000800  0.11495667  0.58827400  1.0
  Nb  Nb763  1  0.68000800  0.44829000  0.58827400  1.0
  Nb  Nb764  1  0.68000800  0.78162333  0.58827400  1.0
  Nb  Nb765  1  0.23556356  0.11495667  0.64382956  1.0
  Nb  Nb766  1  0.23556356  0.44829000  0.64382956  1.0
  Nb  Nb767  1  0.23556356  0.78162333  0.64382956  1.0
  Nb  Nb768  1  0.56889689  0.11495667  0.64382956  1.0
  Nb  Nb769  1  0.56889689  0.44829000  0.64382956  1.0
  Nb  Nb770  1  0.56889689  0.78162333  0.64382956  1.0
  Nb  Nb771  1  0.90223022  0.11495667  0.64382956  1.0
  Nb  Nb772  1  0.90223022  0.44829000  0.64382956  1.0
  Nb  Nb773  1  0.90223022  0.78162333  0.64382956  1.0
  Nb  Nb774  1  0.26082222  0.25512200  0.56681089  1.0
  Nb  Nb775  1  0.26082222  0.58845533  0.56681089  1.0
  Nb  Nb776  1  0.26082222  0.92178867  0.56681089  1.0
  Nb  Nb777  1  0.59415556  0.25512200  0.56681089  1.0
  Nb  Nb778  1  0.59415556  0.58845533  0.56681089  1.0
  Nb  Nb779  1  0.59415556  0.92178867  0.56681089  1.0
  Nb  Nb780  1  0.92748889  0.25512200  0.56681089  1.0
  Nb  Nb781  1  0.92748889  0.58845533  0.56681089  1.0
  Nb  Nb782  1  0.92748889  0.92178867  0.56681089  1.0
  Nb  Nb783  1  0.14971111  0.25512200  0.62236644  1.0
  Nb  Nb784  1  0.14971111  0.58845533  0.62236644  1.0
  Nb  Nb785  1  0.14971111  0.92178867  0.62236644  1.0
  Nb  Nb786  1  0.48304444  0.25512200  0.62236644  1.0
  Nb  Nb787  1  0.48304444  0.58845533  0.62236644  1.0
  Nb  Nb788  1  0.48304444  0.92178867  0.62236644  1.0
  Nb  Nb789  1  0.81637778  0.25512200  0.62236644  1.0
  Nb  Nb790  1  0.81637778  0.58845533  0.62236644  1.0
  Nb  Nb791  1  0.81637778  0.92178867  0.62236644  1.0
  Nb  Nb792  1  0.15080711  0.09092133  0.62264044  1.0
  Nb  Nb793  1  0.15080711  0.42425467  0.62264044  1.0
  Nb  Nb794  1  0.15080711  0.75758800  0.62264044  1.0
  Nb  Nb795  1  0.48414044  0.09092133  0.62264044  1.0
  Nb  Nb796  1  0.48414044  0.42425467  0.62264044  1.0
  Nb  Nb797  1  0.48414044  0.75758800  0.62264044  1.0
  Nb  Nb798  1  0.81747378  0.09092133  0.62264044  1.0
  Nb  Nb799  1  0.81747378  0.42425467  0.62264044  1.0
  Nb  Nb800  1  0.81747378  0.75758800  0.62264044  1.0
  Nb  Nb801  1  0.26191822  0.09092133  0.56708489  1.0
  Nb  Nb802  1  0.26191822  0.42425467  0.56708489  1.0
  Nb  Nb803  1  0.26191822  0.75758800  0.56708489  1.0
  Nb  Nb804  1  0.59525156  0.09092133  0.56708489  1.0
  Nb  Nb805  1  0.59525156  0.42425467  0.56708489  1.0
  Nb  Nb806  1  0.59525156  0.75758800  0.56708489  1.0
  Nb  Nb807  1  0.92858489  0.09092133  0.56708489  1.0
  Nb  Nb808  1  0.92858489  0.42425467  0.56708489  1.0
  Nb  Nb809  1  0.92858489  0.75758800  0.56708489  1.0
  Nb  Nb810  1  0.07569600  0.25525467  0.60386267  1.0
  Nb  Nb811  1  0.07569600  0.58858800  0.60386267  1.0
  Nb  Nb812  1  0.07569600  0.92192133  0.60386267  1.0
  Nb  Nb813  1  0.40902933  0.25525467  0.60386267  1.0
  Nb  Nb814  1  0.40902933  0.58858800  0.60386267  1.0
  Nb  Nb815  1  0.40902933  0.92192133  0.60386267  1.0
  Nb  Nb816  1  0.74236267  0.25525467  0.60386267  1.0
  Nb  Nb817  1  0.74236267  0.58858800  0.60386267  1.0
  Nb  Nb818  1  0.74236267  0.92192133  0.60386267  1.0
  Nb  Nb819  1  0.29791822  0.25525467  0.65941822  1.0
  Nb  Nb820  1  0.29791822  0.58858800  0.65941822  1.0
  Nb  Nb821  1  0.29791822  0.92192133  0.65941822  1.0
  Nb  Nb822  1  0.63125156  0.25525467  0.65941822  1.0
  Nb  Nb823  1  0.63125156  0.58858800  0.65941822  1.0
  Nb  Nb824  1  0.63125156  0.92192133  0.65941822  1.0
  Nb  Nb825  1  0.96458489  0.25525467  0.65941822  1.0
  Nb  Nb826  1  0.96458489  0.58858800  0.65941822  1.0
  Nb  Nb827  1  0.96458489  0.92192133  0.65941822  1.0
  Nb  Nb828  1  0.29901422  0.09105400  0.65969222  1.0
  Nb  Nb829  1  0.29901422  0.42438733  0.65969222  1.0
  Nb  Nb830  1  0.29901422  0.75772067  0.65969222  1.0
  Nb  Nb831  1  0.63234756  0.09105400  0.65969222  1.0
  Nb  Nb832  1  0.63234756  0.42438733  0.65969222  1.0
  Nb  Nb833  1  0.63234756  0.75772067  0.65969222  1.0
  Nb  Nb834  1  0.96568089  0.09105400  0.65969222  1.0
  Nb  Nb835  1  0.96568089  0.42438733  0.65969222  1.0
  Nb  Nb836  1  0.96568089  0.75772067  0.65969222  1.0
  Nb  Nb837  1  0.07679200  0.09105400  0.60413667  1.0
  Nb  Nb838  1  0.07679200  0.42438733  0.60413667  1.0
  Nb  Nb839  1  0.07679200  0.75772067  0.60413667  1.0
  Nb  Nb840  1  0.41012533  0.09105400  0.60413667  1.0
  Nb  Nb841  1  0.41012533  0.42438733  0.60413667  1.0
  Nb  Nb842  1  0.41012533  0.75772067  0.60413667  1.0
  Nb  Nb843  1  0.74345867  0.09105400  0.60413667  1.0
  Nb  Nb844  1  0.74345867  0.42438733  0.60413667  1.0
  Nb  Nb845  1  0.74345867  0.75772067  0.60413667  1.0
  Nb  Nb846  1  0.19014489  0.17943133  0.63247489  1.0
  Nb  Nb847  1  0.19014489  0.51276467  0.63247489  1.0
  Nb  Nb848  1  0.19014489  0.84609800  0.63247489  1.0
  Nb  Nb849  1  0.52347822  0.17943133  0.63247489  1.0
  Nb  Nb850  1  0.52347822  0.51276467  0.63247489  1.0
  Nb  Nb851  1  0.52347822  0.84609800  0.63247489  1.0
  Nb  Nb852  1  0.85681156  0.17943133  0.63247489  1.0
  Nb  Nb853  1  0.85681156  0.51276467  0.63247489  1.0
  Nb  Nb854  1  0.85681156  0.84609800  0.63247489  1.0
  Nb  Nb855  1  0.30125600  0.17943133  0.57691933  1.0
  Nb  Nb856  1  0.30125600  0.51276467  0.57691933  1.0
  Nb  Nb857  1  0.30125600  0.84609800  0.57691933  1.0
  Nb  Nb858  1  0.63458933  0.17943133  0.57691933  1.0
  Nb  Nb859  1  0.63458933  0.51276467  0.57691933  1.0
  Nb  Nb860  1  0.63458933  0.84609800  0.57691933  1.0
  Nb  Nb861  1  0.96792267  0.17943133  0.57691933  1.0
  Nb  Nb862  1  0.96792267  0.51276467  0.57691933  1.0
  Nb  Nb863  1  0.96792267  0.84609800  0.57691933  1.0
  Nb  Nb864  1  0.30141689  0.01312667  0.57695956  1.0
  Nb  Nb865  1  0.30141689  0.34646000  0.57695956  1.0
  Nb  Nb866  1  0.30141689  0.67979333  0.57695956  1.0
  Nb  Nb867  1  0.63475022  0.01312667  0.57695956  1.0
  Nb  Nb868  1  0.63475022  0.34646000  0.57695956  1.0
  Nb  Nb869  1  0.63475022  0.67979333  0.57695956  1.0
  Nb  Nb870  1  0.96808356  0.01312667  0.57695956  1.0
  Nb  Nb871  1  0.96808356  0.34646000  0.57695956  1.0
  Nb  Nb872  1  0.96808356  0.67979333  0.57695956  1.0
  Nb  Nb873  1  0.19030578  0.01312667  0.63251511  1.0
  Nb  Nb874  1  0.19030578  0.34646000  0.63251511  1.0
  Nb  Nb875  1  0.19030578  0.67979333  0.63251511  1.0
  Nb  Nb876  1  0.52363911  0.01312667  0.63251511  1.0
  Nb  Nb877  1  0.52363911  0.34646000  0.63251511  1.0
  Nb  Nb878  1  0.52363911  0.67979333  0.63251511  1.0
  Nb  Nb879  1  0.85697244  0.01312667  0.63251511  1.0
  Nb  Nb880  1  0.85697244  0.34646000  0.63251511  1.0
  Nb  Nb881  1  0.85697244  0.67979333  0.63251511  1.0
  Nb  Nb882  1  0.25841956  0.33304933  0.64954356  1.0
  Nb  Nb883  1  0.25841956  0.66638267  0.64954356  1.0
  Nb  Nb884  1  0.25841956  0.99971600  0.64954356  1.0
  Nb  Nb885  1  0.59175289  0.33304933  0.64954356  1.0
  Nb  Nb886  1  0.59175289  0.66638267  0.64954356  1.0
  Nb  Nb887  1  0.59175289  0.99971600  0.64954356  1.0
  Nb  Nb888  1  0.92508622  0.33304933  0.64954356  1.0
  Nb  Nb889  1  0.92508622  0.66638267  0.64954356  1.0
  Nb  Nb890  1  0.92508622  0.99971600  0.64954356  1.0
  Nb  Nb891  1  0.03619733  0.33304933  0.59398800  1.0
  Nb  Nb892  1  0.03619733  0.66638267  0.59398800  1.0
  Nb  Nb893  1  0.03619733  0.99971600  0.59398800  1.0
  Nb  Nb894  1  0.36953067  0.33304933  0.59398800  1.0
  Nb  Nb895  1  0.36953067  0.66638267  0.59398800  1.0
  Nb  Nb896  1  0.36953067  0.99971600  0.59398800  1.0
  Nb  Nb897  1  0.70286400  0.33304933  0.59398800  1.0
  Nb  Nb898  1  0.70286400  0.66638267  0.59398800  1.0
  Nb  Nb899  1  0.70286400  0.99971600  0.59398800  1.0
  Nb  Nb900  1  0.03635822  0.16674467  0.59402822  1.0
  Nb  Nb901  1  0.03635822  0.50007800  0.59402822  1.0
  Nb  Nb902  1  0.03635822  0.83341133  0.59402822  1.0
  Nb  Nb903  1  0.36969156  0.16674467  0.59402822  1.0
  Nb  Nb904  1  0.36969156  0.50007800  0.59402822  1.0
  Nb  Nb905  1  0.36969156  0.83341133  0.59402822  1.0
  Nb  Nb906  1  0.70302489  0.16674467  0.59402822  1.0
  Nb  Nb907  1  0.70302489  0.50007800  0.59402822  1.0
  Nb  Nb908  1  0.70302489  0.83341133  0.59402822  1.0
  Nb  Nb909  1  0.25858044  0.16674467  0.64958378  1.0
  Nb  Nb910  1  0.25858044  0.50007800  0.64958378  1.0
  Nb  Nb911  1  0.25858044  0.83341133  0.64958378  1.0
  Nb  Nb912  1  0.59191378  0.16674467  0.64958378  1.0
  Nb  Nb913  1  0.59191378  0.50007800  0.64958378  1.0
  Nb  Nb914  1  0.59191378  0.83341133  0.64958378  1.0
  Nb  Nb915  1  0.92524711  0.16674467  0.64958378  1.0
  Nb  Nb916  1  0.92524711  0.50007800  0.64958378  1.0
  Nb  Nb917  1  0.92524711  0.83341133  0.64958378  1.0
  Nb  Nb918  1  0.11325156  0.00642133  0.61325156  1.0
  Nb  Nb919  1  0.11325156  0.33975467  0.61325156  1.0
  Nb  Nb920  1  0.11325156  0.67308800  0.61325156  1.0
  Nb  Nb921  1  0.44658489  0.00642133  0.61325156  1.0
  Nb  Nb922  1  0.44658489  0.33975467  0.61325156  1.0
  Nb  Nb923  1  0.44658489  0.67308800  0.61325156  1.0
  Nb  Nb924  1  0.77991822  0.00642133  0.61325156  1.0
  Nb  Nb925  1  0.77991822  0.33975467  0.61325156  1.0
  Nb  Nb926  1  0.77991822  0.67308800  0.61325156  1.0
  Nb  Nb927  1  0.22436267  0.00642133  0.55769600  1.0
  Nb  Nb928  1  0.22436267  0.33975467  0.55769600  1.0
  Nb  Nb929  1  0.22436267  0.67308800  0.55769600  1.0
  Nb  Nb930  1  0.55769600  0.00642133  0.55769600  1.0
  Nb  Nb931  1  0.55769600  0.33975467  0.55769600  1.0
  Nb  Nb932  1  0.55769600  0.67308800  0.55769600  1.0
  Nb  Nb933  1  0.89102933  0.00642133  0.55769600  1.0
  Nb  Nb934  1  0.89102933  0.33975467  0.55769600  1.0
  Nb  Nb935  1  0.89102933  0.67308800  0.55769600  1.0
  Ni  Ni936  1  0.24417067  0.29998267  0.89598133  1.0
  Ni  Ni937  1  0.24417067  0.63331600  0.89598133  1.0
  Ni  Ni938  1  0.24417067  0.96664933  0.89598133  1.0
  Ni  Ni939  1  0.57750400  0.29998267  0.89598133  1.0
  Ni  Ni940  1  0.57750400  0.63331600  0.89598133  1.0
  Ni  Ni941  1  0.57750400  0.96664933  0.89598133  1.0
  Ni  Ni942  1  0.91083733  0.29998267  0.89598133  1.0
  Ni  Ni943  1  0.91083733  0.63331600  0.89598133  1.0
  Ni  Ni944  1  0.91083733  0.96664933  0.89598133  1.0
  Ni  Ni945  1  0.13305956  0.29998267  0.95153689  1.0
  Ni  Ni946  1  0.13305956  0.63331600  0.95153689  1.0
  Ni  Ni947  1  0.13305956  0.96664933  0.95153689  1.0
  Ni  Ni948  1  0.46639289  0.29998267  0.95153689  1.0
  Ni  Ni949  1  0.46639289  0.63331600  0.95153689  1.0
  Ni  Ni950  1  0.46639289  0.96664933  0.95153689  1.0
  Ni  Ni951  1  0.79972622  0.29998267  0.95153689  1.0
  Ni  Ni952  1  0.79972622  0.63331600  0.95153689  1.0
  Ni  Ni953  1  0.79972622  0.96664933  0.95153689  1.0
  Ni  Ni954  1  0.24483000  0.13572700  0.89614617  1.0
  Ni  Ni955  1  0.24483000  0.46906033  0.89614617  1.0
  Ni  Ni956  1  0.24483000  0.80239367  0.89614617  1.0
  Ni  Ni957  1  0.57816333  0.13572700  0.89614617  1.0
  Ni  Ni958  1  0.57816333  0.46906033  0.89614617  1.0
  Ni  Ni959  1  0.57816333  0.80239367  0.89614617  1.0
  Ni  Ni960  1  0.91149667  0.13572700  0.89614617  1.0
  Ni  Ni961  1  0.91149667  0.46906033  0.89614617  1.0
  Ni  Ni962  1  0.91149667  0.80239367  0.89614617  1.0
  Ni  Ni963  1  0.13371889  0.13572700  0.95170172  1.0
  Ni  Ni964  1  0.13371889  0.46906033  0.95170172  1.0
  Ni  Ni965  1  0.13371889  0.80239367  0.95170172  1.0
  Ni  Ni966  1  0.46705222  0.13572700  0.95170172  1.0
  Ni  Ni967  1  0.46705222  0.46906033  0.95170172  1.0
  Ni  Ni968  1  0.46705222  0.80239367  0.95170172  1.0
  Ni  Ni969  1  0.80038556  0.13572700  0.95170172  1.0
  Ni  Ni970  1  0.80038556  0.46906033  0.95170172  1.0
  Ni  Ni971  1  0.80038556  0.80239367  0.95170172  1.0
  Ni  Ni972  1  0.29905511  0.29998267  0.95086578  1.0
  Ni  Ni973  1  0.29905511  0.63331600  0.95086578  1.0
  Ni  Ni974  1  0.29905511  0.96664933  0.95086578  1.0
  Ni  Ni975  1  0.63238844  0.29998267  0.95086578  1.0
  Ni  Ni976  1  0.63238844  0.63331600  0.95086578  1.0
  Ni  Ni977  1  0.63238844  0.96664933  0.95086578  1.0
  Ni  Ni978  1  0.96572178  0.29998267  0.95086578  1.0
  Ni  Ni979  1  0.96572178  0.63331600  0.95086578  1.0
  Ni  Ni980  1  0.96572178  0.96664933  0.95086578  1.0
  Ni  Ni981  1  0.07683289  0.29998267  0.89531022  1.0
  Ni  Ni982  1  0.07683289  0.63331600  0.89531022  1.0
  Ni  Ni983  1  0.07683289  0.96664933  0.89531022  1.0
  Ni  Ni984  1  0.41016622  0.29998267  0.89531022  1.0
  Ni  Ni985  1  0.41016622  0.63331600  0.89531022  1.0
  Ni  Ni986  1  0.41016622  0.96664933  0.89531022  1.0
  Ni  Ni987  1  0.74349956  0.29998267  0.89531022  1.0
  Ni  Ni988  1  0.74349956  0.63331600  0.89531022  1.0
  Ni  Ni989  1  0.74349956  0.96664933  0.89531022  1.0
  Ni  Ni990  1  0.30033278  0.13572700  0.95164894  1.0
  Ni  Ni991  1  0.30033278  0.46906033  0.95164894  1.0
  Ni  Ni992  1  0.30033278  0.80239367  0.95164894  1.0
  Ni  Ni993  1  0.63366611  0.13572700  0.95164894  1.0
  Ni  Ni994  1  0.63366611  0.46906033  0.95164894  1.0
  Ni  Ni995  1  0.63366611  0.80239367  0.95164894  1.0
  Ni  Ni996  1  0.96699944  0.13572700  0.95164894  1.0
  Ni  Ni997  1  0.96699944  0.46906033  0.95164894  1.0
  Ni  Ni998  1  0.96699944  0.80239367  0.95164894  1.0
  Ni  Ni999  1  0.07811056  0.13572700  0.89609339  1.0
  Ni  Ni1000  1  0.07811056  0.46906033  0.89609339  1.0
  Ni  Ni1001  1  0.07811056  0.80239367  0.89609339  1.0
  Ni  Ni1002  1  0.41144389  0.13572700  0.89609339  1.0
  Ni  Ni1003  1  0.41144389  0.46906033  0.89609339  1.0
  Ni  Ni1004  1  0.41144389  0.80239367  0.89609339  1.0
  Ni  Ni1005  1  0.74477722  0.13572700  0.89609339  1.0
  Ni  Ni1006  1  0.74477722  0.46906033  0.89609339  1.0
  Ni  Ni1007  1  0.74477722  0.80239367  0.89609339  1.0
  Ni  Ni1008  1  0.07683289  0.29998267  0.97965022  1.0
  Ni  Ni1009  1  0.07683289  0.63331600  0.97965022  1.0
  Ni  Ni1010  1  0.07683289  0.96664933  0.97965022  1.0
  Ni  Ni1011  1  0.41016622  0.29998267  0.97965022  1.0
  Ni  Ni1012  1  0.41016622  0.63331600  0.97965022  1.0
  Ni  Ni1013  1  0.41016622  0.96664933  0.97965022  1.0
  Ni  Ni1014  1  0.74349956  0.29998267  0.97965022  1.0
  Ni  Ni1015  1  0.74349956  0.63331600  0.97965022  1.0
  Ni  Ni1016  1  0.74349956  0.96664933  0.97965022  1.0
  Ni  Ni1017  1  0.18794400  0.29998267  0.92409467  1.0
  Ni  Ni1018  1  0.18794400  0.63331600  0.92409467  1.0
  Ni  Ni1019  1  0.18794400  0.96664933  0.92409467  1.0
  Ni  Ni1020  1  0.52127733  0.29998267  0.92409467  1.0
  Ni  Ni1021  1  0.52127733  0.63331600  0.92409467  1.0
  Ni  Ni1022  1  0.52127733  0.96664933  0.92409467  1.0
  Ni  Ni1023  1  0.85461067  0.29998267  0.92409467  1.0
  Ni  Ni1024  1  0.85461067  0.63331600  0.92409467  1.0
  Ni  Ni1025  1  0.85461067  0.96664933  0.92409467  1.0
  Ni  Ni1026  1  0.18922167  0.13572700  0.92395033  1.0
  Ni  Ni1027  1  0.18922167  0.46906033  0.92395033  1.0
  Ni  Ni1028  1  0.18922167  0.80239367  0.92395033  1.0
  Ni  Ni1029  1  0.52255500  0.13572700  0.92395033  1.0
  Ni  Ni1030  1  0.52255500  0.46906033  0.92395033  1.0
  Ni  Ni1031  1  0.52255500  0.80239367  0.92395033  1.0
  Ni  Ni1032  1  0.85588833  0.13572700  0.92395033  1.0
  Ni  Ni1033  1  0.85588833  0.46906033  0.92395033  1.0
  Ni  Ni1034  1  0.85588833  0.80239367  0.92395033  1.0
  Ni  Ni1035  1  0.07811056  0.13572700  0.97950589  1.0
  Ni  Ni1036  1  0.07811056  0.46906033  0.97950589  1.0
  Ni  Ni1037  1  0.07811056  0.80239367  0.97950589  1.0
  Ni  Ni1038  1  0.41144389  0.13572700  0.97950589  1.0
  Ni  Ni1039  1  0.41144389  0.46906033  0.97950589  1.0
  Ni  Ni1040  1  0.41144389  0.80239367  0.97950589  1.0
  Ni  Ni1041  1  0.74477722  0.13572700  0.97950589  1.0
  Ni  Ni1042  1  0.74477722  0.46906033  0.97950589  1.0
  Ni  Ni1043  1  0.74477722  0.80239367  0.97950589  1.0
  Ni  Ni1044  1  0.31500644  0.21044900  0.99702361  1.0
  Ni  Ni1045  1  0.31500644  0.54378233  0.99702361  1.0
  Ni  Ni1046  1  0.31500644  0.87711567  0.99702361  1.0
  Ni  Ni1047  1  0.64833978  0.21044900  0.99702361  1.0
  Ni  Ni1048  1  0.64833978  0.54378233  0.99702361  1.0
  Ni  Ni1049  1  0.64833978  0.87711567  0.99702361  1.0
  Ni  Ni1050  1  0.98167311  0.21044900  0.99702361  1.0
  Ni  Ni1051  1  0.98167311  0.54378233  0.99702361  1.0
  Ni  Ni1052  1  0.98167311  0.87711567  0.99702361  1.0
  Ni  Ni1053  1  0.09278422  0.21044900  0.94146806  1.0
  Ni  Ni1054  1  0.09278422  0.54378233  0.94146806  1.0
  Ni  Ni1055  1  0.09278422  0.87711567  0.94146806  1.0
  Ni  Ni1056  1  0.42611756  0.21044900  0.94146806  1.0
  Ni  Ni1057  1  0.42611756  0.54378233  0.94146806  1.0
  Ni  Ni1058  1  0.42611756  0.87711567  0.94146806  1.0
  Ni  Ni1059  1  0.75945089  0.21044900  0.94146806  1.0
  Ni  Ni1060  1  0.75945089  0.54378233  0.94146806  1.0
  Ni  Ni1061  1  0.75945089  0.87711567  0.94146806  1.0
  Ni  Ni1062  1  0.31566578  0.04619333  0.99718844  1.0
  Ni  Ni1063  1  0.31566578  0.37952667  0.99718844  1.0
  Ni  Ni1064  1  0.31566578  0.71286000  0.99718844  1.0
  Ni  Ni1065  1  0.64899911  0.04619333  0.99718844  1.0
  Ni  Ni1066  1  0.64899911  0.37952667  0.99718844  1.0
  Ni  Ni1067  1  0.64899911  0.71286000  0.99718844  1.0
  Ni  Ni1068  1  0.98233244  0.04619333  0.99718844  1.0
  Ni  Ni1069  1  0.98233244  0.37952667  0.99718844  1.0
  Ni  Ni1070  1  0.98233244  0.71286000  0.99718844  1.0
  Ni  Ni1071  1  0.09344356  0.04619333  0.94163289  1.0
  Ni  Ni1072  1  0.09344356  0.37952667  0.94163289  1.0
  Ni  Ni1073  1  0.09344356  0.71286000  0.94163289  1.0
  Ni  Ni1074  1  0.42677689  0.04619333  0.94163289  1.0
  Ni  Ni1075  1  0.42677689  0.37952667  0.94163289  1.0
  Ni  Ni1076  1  0.42677689  0.71286000  0.94163289  1.0
  Ni  Ni1077  1  0.76011022  0.04619333  0.94163289  1.0
  Ni  Ni1078  1  0.76011022  0.37952667  0.94163289  1.0
  Ni  Ni1079  1  0.76011022  0.71286000  0.94163289  1.0
  Ni  Ni1080  1  0.25950367  0.21044900  0.94152083  1.0
  Ni  Ni1081  1  0.25950367  0.54378233  0.94152083  1.0
  Ni  Ni1082  1  0.25950367  0.87711567  0.94152083  1.0
  Ni  Ni1083  1  0.59283700  0.21044900  0.94152083  1.0
  Ni  Ni1084  1  0.59283700  0.54378233  0.94152083  1.0
  Ni  Ni1085  1  0.59283700  0.87711567  0.94152083  1.0
  Ni  Ni1086  1  0.92617033  0.21044900  0.94152083  1.0
  Ni  Ni1087  1  0.92617033  0.54378233  0.94152083  1.0
  Ni  Ni1088  1  0.92617033  0.87711567  0.94152083  1.0
  Ni  Ni1089  1  0.14839256  0.21044900  0.99707639  1.0
  Ni  Ni1090  1  0.14839256  0.54378233  0.99707639  1.0
  Ni  Ni1091  1  0.14839256  0.87711567  0.99707639  1.0
  Ni  Ni1092  1  0.48172589  0.21044900  0.99707639  1.0
  Ni  Ni1093  1  0.48172589  0.54378233  0.99707639  1.0
  Ni  Ni1094  1  0.48172589  0.87711567  0.99707639  1.0
  Ni  Ni1095  1  0.81505922  0.21044900  0.99707639  1.0
  Ni  Ni1096  1  0.81505922  0.54378233  0.99707639  1.0
  Ni  Ni1097  1  0.81505922  0.87711567  0.99707639  1.0
  Ni  Ni1098  1  0.26078133  0.04619333  0.94230400  1.0
  Ni  Ni1099  1  0.26078133  0.37952667  0.94230400  1.0
  Ni  Ni1100  1  0.26078133  0.71286000  0.94230400  1.0
  Ni  Ni1101  1  0.59411467  0.04619333  0.94230400  1.0
  Ni  Ni1102  1  0.59411467  0.37952667  0.94230400  1.0
  Ni  Ni1103  1  0.59411467  0.71286000  0.94230400  1.0
  Ni  Ni1104  1  0.92744800  0.04619333  0.94230400  1.0
  Ni  Ni1105  1  0.92744800  0.37952667  0.94230400  1.0
  Ni  Ni1106  1  0.92744800  0.71286000  0.94230400  1.0
  Ni  Ni1107  1  0.14967022  0.04619333  0.99785956  1.0
  Ni  Ni1108  1  0.14967022  0.37952667  0.99785956  1.0
  Ni  Ni1109  1  0.14967022  0.71286000  0.99785956  1.0
  Ni  Ni1110  1  0.48300356  0.04619333  0.99785956  1.0
  Ni  Ni1111  1  0.48300356  0.37952667  0.99785956  1.0
  Ni  Ni1112  1  0.48300356  0.71286000  0.99785956  1.0
  Ni  Ni1113  1  0.81633689  0.04619333  0.99785956  1.0
  Ni  Ni1114  1  0.81633689  0.37952667  0.99785956  1.0
  Ni  Ni1115  1  0.81633689  0.71286000  0.99785956  1.0
  Ni  Ni1116  1  0.03728144  0.21044900  0.96921944  1.0
  Ni  Ni1117  1  0.03728144  0.54378233  0.96921944  1.0
  Ni  Ni1118  1  0.03728144  0.87711567  0.96921944  1.0
  Ni  Ni1119  1  0.37061478  0.21044900  0.96921944  1.0
  Ni  Ni1120  1  0.37061478  0.54378233  0.96921944  1.0
  Ni  Ni1121  1  0.37061478  0.87711567  0.96921944  1.0
  Ni  Ni1122  1  0.70394811  0.21044900  0.96921944  1.0
  Ni  Ni1123  1  0.70394811  0.54378233  0.96921944  1.0
  Ni  Ni1124  1  0.70394811  0.87711567  0.96921944  1.0
  Ni  Ni1125  1  0.14839256  0.21044900  0.91366389  1.0
  Ni  Ni1126  1  0.14839256  0.54378233  0.91366389  1.0
  Ni  Ni1127  1  0.14839256  0.87711567  0.91366389  1.0
  Ni  Ni1128  1  0.48172589  0.21044900  0.91366389  1.0
  Ni  Ni1129  1  0.48172589  0.54378233  0.91366389  1.0
  Ni  Ni1130  1  0.48172589  0.87711567  0.91366389  1.0
  Ni  Ni1131  1  0.81505922  0.21044900  0.91366389  1.0
  Ni  Ni1132  1  0.81505922  0.54378233  0.91366389  1.0
  Ni  Ni1133  1  0.81505922  0.87711567  0.91366389  1.0
  Ni  Ni1134  1  0.14967022  0.04619333  0.91351956  1.0
  Ni  Ni1135  1  0.14967022  0.37952667  0.91351956  1.0
  Ni  Ni1136  1  0.14967022  0.71286000  0.91351956  1.0
  Ni  Ni1137  1  0.48300356  0.04619333  0.91351956  1.0
  Ni  Ni1138  1  0.48300356  0.37952667  0.91351956  1.0
  Ni  Ni1139  1  0.48300356  0.71286000  0.91351956  1.0
  Ni  Ni1140  1  0.81633689  0.04619333  0.91351956  1.0
  Ni  Ni1141  1  0.81633689  0.37952667  0.91351956  1.0
  Ni  Ni1142  1  0.81633689  0.71286000  0.91351956  1.0
  Ni  Ni1143  1  0.03855911  0.04619333  0.96907511  1.0
  Ni  Ni1144  1  0.03855911  0.37952667  0.96907511  1.0
  Ni  Ni1145  1  0.03855911  0.71286000  0.96907511  1.0
  Ni  Ni1146  1  0.37189244  0.04619333  0.96907511  1.0
  Ni  Ni1147  1  0.37189244  0.37952667  0.96907511  1.0
  Ni  Ni1148  1  0.37189244  0.71286000  0.96907511  1.0
  Ni  Ni1149  1  0.70522578  0.04619333  0.96907511  1.0
  Ni  Ni1150  1  0.70522578  0.37952667  0.96907511  1.0
  Ni  Ni1151  1  0.70522578  0.71286000  0.96907511  1.0
  Ni  Ni1152  1  0.22436267  0.17308800  0.89102933  1.0
  Ni  Ni1153  1  0.22436267  0.50642133  0.89102933  1.0
  Ni  Ni1154  1  0.22436267  0.83975467  0.89102933  1.0
  Ni  Ni1155  1  0.55769600  0.17308800  0.89102933  1.0
  Ni  Ni1156  1  0.55769600  0.50642133  0.89102933  1.0
  Ni  Ni1157  1  0.55769600  0.83975467  0.89102933  1.0
  Ni  Ni1158  1  0.89102933  0.17308800  0.89102933  1.0
  Ni  Ni1159  1  0.89102933  0.50642133  0.89102933  1.0
  Ni  Ni1160  1  0.89102933  0.83975467  0.89102933  1.0
  Ni  Ni1161  1  0.11325156  0.17308800  0.94658489  1.0
  Ni  Ni1162  1  0.11325156  0.50642133  0.94658489  1.0
  Ni  Ni1163  1  0.11325156  0.83975467  0.94658489  1.0
  Ni  Ni1164  1  0.44658489  0.17308800  0.94658489  1.0
  Ni  Ni1165  1  0.44658489  0.50642133  0.94658489  1.0
  Ni  Ni1166  1  0.44658489  0.83975467  0.94658489  1.0
  Ni  Ni1167  1  0.77991822  0.17308800  0.94658489  1.0
  Ni  Ni1168  1  0.77991822  0.50642133  0.94658489  1.0
  Ni  Ni1169  1  0.77991822  0.83975467  0.94658489  1.0
  Ni  Ni1170  1  0.13305956  0.29998267  0.78487022  1.0
  Ni  Ni1171  1  0.13305956  0.63331600  0.78487022  1.0
  Ni  Ni1172  1  0.13305956  0.96664933  0.78487022  1.0
  Ni  Ni1173  1  0.46639289  0.29998267  0.78487022  1.0
  Ni  Ni1174  1  0.46639289  0.63331600  0.78487022  1.0
  Ni  Ni1175  1  0.46639289  0.96664933  0.78487022  1.0
  Ni  Ni1176  1  0.79972622  0.29998267  0.78487022  1.0
  Ni  Ni1177  1  0.79972622  0.63331600  0.78487022  1.0
  Ni  Ni1178  1  0.79972622  0.96664933  0.78487022  1.0
  Ni  Ni1179  1  0.02194844  0.29998267  0.84042578  1.0
  Ni  Ni1180  1  0.02194844  0.63331600  0.84042578  1.0
  Ni  Ni1181  1  0.02194844  0.96664933  0.84042578  1.0
  Ni  Ni1182  1  0.35528178  0.29998267  0.84042578  1.0
  Ni  Ni1183  1  0.35528178  0.63331600  0.84042578  1.0
  Ni  Ni1184  1  0.35528178  0.96664933  0.84042578  1.0
  Ni  Ni1185  1  0.68861511  0.29998267  0.84042578  1.0
  Ni  Ni1186  1  0.68861511  0.63331600  0.84042578  1.0
  Ni  Ni1187  1  0.68861511  0.96664933  0.84042578  1.0
  Ni  Ni1188  1  0.13371889  0.13572700  0.78503506  1.0
  Ni  Ni1189  1  0.13371889  0.46906033  0.78503506  1.0
  Ni  Ni1190  1  0.13371889  0.80239367  0.78503506  1.0
  Ni  Ni1191  1  0.46705222  0.13572700  0.78503506  1.0
  Ni  Ni1192  1  0.46705222  0.46906033  0.78503506  1.0
  Ni  Ni1193  1  0.46705222  0.80239367  0.78503506  1.0
  Ni  Ni1194  1  0.80038556  0.13572700  0.78503506  1.0
  Ni  Ni1195  1  0.80038556  0.46906033  0.78503506  1.0
  Ni  Ni1196  1  0.80038556  0.80239367  0.78503506  1.0
  Ni  Ni1197  1  0.02260778  0.13572700  0.84059061  1.0
  Ni  Ni1198  1  0.02260778  0.46906033  0.84059061  1.0
  Ni  Ni1199  1  0.02260778  0.80239367  0.84059061  1.0
  Ni  Ni1200  1  0.35594111  0.13572700  0.84059061  1.0
  Ni  Ni1201  1  0.35594111  0.46906033  0.84059061  1.0
  Ni  Ni1202  1  0.35594111  0.80239367  0.84059061  1.0
  Ni  Ni1203  1  0.68927444  0.13572700  0.84059061  1.0
  Ni  Ni1204  1  0.68927444  0.46906033  0.84059061  1.0
  Ni  Ni1205  1  0.68927444  0.80239367  0.84059061  1.0
  Ni  Ni1206  1  0.18794400  0.29998267  0.83975467  1.0
  Ni  Ni1207  1  0.18794400  0.63331600  0.83975467  1.0
  Ni  Ni1208  1  0.18794400  0.96664933  0.83975467  1.0
  Ni  Ni1209  1  0.52127733  0.29998267  0.83975467  1.0
  Ni  Ni1210  1  0.52127733  0.63331600  0.83975467  1.0
  Ni  Ni1211  1  0.52127733  0.96664933  0.83975467  1.0
  Ni  Ni1212  1  0.85461067  0.29998267  0.83975467  1.0
  Ni  Ni1213  1  0.85461067  0.63331600  0.83975467  1.0
  Ni  Ni1214  1  0.85461067  0.96664933  0.83975467  1.0
  Ni  Ni1215  1  0.29905511  0.29998267  0.78419911  1.0
  Ni  Ni1216  1  0.29905511  0.63331600  0.78419911  1.0
  Ni  Ni1217  1  0.29905511  0.96664933  0.78419911  1.0
  Ni  Ni1218  1  0.63238844  0.29998267  0.78419911  1.0
  Ni  Ni1219  1  0.63238844  0.63331600  0.78419911  1.0
  Ni  Ni1220  1  0.63238844  0.96664933  0.78419911  1.0
  Ni  Ni1221  1  0.96572178  0.29998267  0.78419911  1.0
  Ni  Ni1222  1  0.96572178  0.63331600  0.78419911  1.0
  Ni  Ni1223  1  0.96572178  0.96664933  0.78419911  1.0
  Ni  Ni1224  1  0.18922167  0.13572700  0.84053783  1.0
  Ni  Ni1225  1  0.18922167  0.46906033  0.84053783  1.0
  Ni  Ni1226  1  0.18922167  0.80239367  0.84053783  1.0
  Ni  Ni1227  1  0.52255500  0.13572700  0.84053783  1.0
  Ni  Ni1228  1  0.52255500  0.46906033  0.84053783  1.0
  Ni  Ni1229  1  0.52255500  0.80239367  0.84053783  1.0
  Ni  Ni1230  1  0.85588833  0.13572700  0.84053783  1.0
  Ni  Ni1231  1  0.85588833  0.46906033  0.84053783  1.0
  Ni  Ni1232  1  0.85588833  0.80239367  0.84053783  1.0
  Ni  Ni1233  1  0.30033278  0.13572700  0.78498228  1.0
  Ni  Ni1234  1  0.30033278  0.46906033  0.78498228  1.0
  Ni  Ni1235  1  0.30033278  0.80239367  0.78498228  1.0
  Ni  Ni1236  1  0.63366611  0.13572700  0.78498228  1.0
  Ni  Ni1237  1  0.63366611  0.46906033  0.78498228  1.0
  Ni  Ni1238  1  0.63366611  0.80239367  0.78498228  1.0
  Ni  Ni1239  1  0.96699944  0.13572700  0.78498228  1.0
  Ni  Ni1240  1  0.96699944  0.46906033  0.78498228  1.0
  Ni  Ni1241  1  0.96699944  0.80239367  0.78498228  1.0
  Ni  Ni1242  1  0.29905511  0.29998267  0.86853911  1.0
  Ni  Ni1243  1  0.29905511  0.63331600  0.86853911  1.0
  Ni  Ni1244  1  0.29905511  0.96664933  0.86853911  1.0
  Ni  Ni1245  1  0.63238844  0.29998267  0.86853911  1.0
  Ni  Ni1246  1  0.63238844  0.63331600  0.86853911  1.0
  Ni  Ni1247  1  0.63238844  0.96664933  0.86853911  1.0
  Ni  Ni1248  1  0.96572178  0.29998267  0.86853911  1.0
  Ni  Ni1249  1  0.96572178  0.63331600  0.86853911  1.0
  Ni  Ni1250  1  0.96572178  0.96664933  0.86853911  1.0
  Ni  Ni1251  1  0.07683289  0.29998267  0.81298356  1.0
  Ni  Ni1252  1  0.07683289  0.63331600  0.81298356  1.0
  Ni  Ni1253  1  0.07683289  0.96664933  0.81298356  1.0
  Ni  Ni1254  1  0.41016622  0.29998267  0.81298356  1.0
  Ni  Ni1255  1  0.41016622  0.63331600  0.81298356  1.0
  Ni  Ni1256  1  0.41016622  0.96664933  0.81298356  1.0
  Ni  Ni1257  1  0.74349956  0.29998267  0.81298356  1.0
  Ni  Ni1258  1  0.74349956  0.63331600  0.81298356  1.0
  Ni  Ni1259  1  0.74349956  0.96664933  0.81298356  1.0
  Ni  Ni1260  1  0.07811056  0.13572700  0.81283922  1.0
  Ni  Ni1261  1  0.07811056  0.46906033  0.81283922  1.0
  Ni  Ni1262  1  0.07811056  0.80239367  0.81283922  1.0
  Ni  Ni1263  1  0.41144389  0.13572700  0.81283922  1.0
  Ni  Ni1264  1  0.41144389  0.46906033  0.81283922  1.0
  Ni  Ni1265  1  0.41144389  0.80239367  0.81283922  1.0
  Ni  Ni1266  1  0.74477722  0.13572700  0.81283922  1.0
  Ni  Ni1267  1  0.74477722  0.46906033  0.81283922  1.0
  Ni  Ni1268  1  0.74477722  0.80239367  0.81283922  1.0
  Ni  Ni1269  1  0.30033278  0.13572700  0.86839478  1.0
  Ni  Ni1270  1  0.30033278  0.46906033  0.86839478  1.0
  Ni  Ni1271  1  0.30033278  0.80239367  0.86839478  1.0
  Ni  Ni1272  1  0.63366611  0.13572700  0.86839478  1.0
  Ni  Ni1273  1  0.63366611  0.46906033  0.86839478  1.0
  Ni  Ni1274  1  0.63366611  0.80239367  0.86839478  1.0
  Ni  Ni1275  1  0.96699944  0.13572700  0.86839478  1.0
  Ni  Ni1276  1  0.96699944  0.46906033  0.86839478  1.0
  Ni  Ni1277  1  0.96699944  0.80239367  0.86839478  1.0
  Ni  Ni1278  1  0.20389533  0.21044900  0.88591250  1.0
  Ni  Ni1279  1  0.20389533  0.54378233  0.88591250  1.0
  Ni  Ni1280  1  0.20389533  0.87711567  0.88591250  1.0
  Ni  Ni1281  1  0.53722867  0.21044900  0.88591250  1.0
  Ni  Ni1282  1  0.53722867  0.54378233  0.88591250  1.0
  Ni  Ni1283  1  0.53722867  0.87711567  0.88591250  1.0
  Ni  Ni1284  1  0.87056200  0.21044900  0.88591250  1.0
  Ni  Ni1285  1  0.87056200  0.54378233  0.88591250  1.0
  Ni  Ni1286  1  0.87056200  0.87711567  0.88591250  1.0
  Ni  Ni1287  1  0.31500644  0.21044900  0.83035694  1.0
  Ni  Ni1288  1  0.31500644  0.54378233  0.83035694  1.0
  Ni  Ni1289  1  0.31500644  0.87711567  0.83035694  1.0
  Ni  Ni1290  1  0.64833978  0.21044900  0.83035694  1.0
  Ni  Ni1291  1  0.64833978  0.54378233  0.83035694  1.0
  Ni  Ni1292  1  0.64833978  0.87711567  0.83035694  1.0
  Ni  Ni1293  1  0.98167311  0.21044900  0.83035694  1.0
  Ni  Ni1294  1  0.98167311  0.54378233  0.83035694  1.0
  Ni  Ni1295  1  0.98167311  0.87711567  0.83035694  1.0
  Ni  Ni1296  1  0.20455467  0.04619333  0.88607733  1.0
  Ni  Ni1297  1  0.20455467  0.37952667  0.88607733  1.0
  Ni  Ni1298  1  0.20455467  0.71286000  0.88607733  1.0
  Ni  Ni1299  1  0.53788800  0.04619333  0.88607733  1.0
  Ni  Ni1300  1  0.53788800  0.37952667  0.88607733  1.0
  Ni  Ni1301  1  0.53788800  0.71286000  0.88607733  1.0
  Ni  Ni1302  1  0.87122133  0.04619333  0.88607733  1.0
  Ni  Ni1303  1  0.87122133  0.37952667  0.88607733  1.0
  Ni  Ni1304  1  0.87122133  0.71286000  0.88607733  1.0
  Ni  Ni1305  1  0.31566578  0.04619333  0.83052178  1.0
  Ni  Ni1306  1  0.31566578  0.37952667  0.83052178  1.0
  Ni  Ni1307  1  0.31566578  0.71286000  0.83052178  1.0
  Ni  Ni1308  1  0.64899911  0.04619333  0.83052178  1.0
  Ni  Ni1309  1  0.64899911  0.37952667  0.83052178  1.0
  Ni  Ni1310  1  0.64899911  0.71286000  0.83052178  1.0
  Ni  Ni1311  1  0.98233244  0.04619333  0.83052178  1.0
  Ni  Ni1312  1  0.98233244  0.37952667  0.83052178  1.0
  Ni  Ni1313  1  0.98233244  0.71286000  0.83052178  1.0
  Ni  Ni1314  1  0.14839256  0.21044900  0.83040972  1.0
  Ni  Ni1315  1  0.14839256  0.54378233  0.83040972  1.0
  Ni  Ni1316  1  0.14839256  0.87711567  0.83040972  1.0
  Ni  Ni1317  1  0.48172589  0.21044900  0.83040972  1.0
  Ni  Ni1318  1  0.48172589  0.54378233  0.83040972  1.0
  Ni  Ni1319  1  0.48172589  0.87711567  0.83040972  1.0
  Ni  Ni1320  1  0.81505922  0.21044900  0.83040972  1.0
  Ni  Ni1321  1  0.81505922  0.54378233  0.83040972  1.0
  Ni  Ni1322  1  0.81505922  0.87711567  0.83040972  1.0
  Ni  Ni1323  1  0.03728144  0.21044900  0.88596528  1.0
  Ni  Ni1324  1  0.03728144  0.54378233  0.88596528  1.0
  Ni  Ni1325  1  0.03728144  0.87711567  0.88596528  1.0
  Ni  Ni1326  1  0.37061478  0.21044900  0.88596528  1.0
  Ni  Ni1327  1  0.37061478  0.54378233  0.88596528  1.0
  Ni  Ni1328  1  0.37061478  0.87711567  0.88596528  1.0
  Ni  Ni1329  1  0.70394811  0.21044900  0.88596528  1.0
  Ni  Ni1330  1  0.70394811  0.54378233  0.88596528  1.0
  Ni  Ni1331  1  0.70394811  0.87711567  0.88596528  1.0
  Ni  Ni1332  1  0.14967022  0.04619333  0.83119289  1.0
  Ni  Ni1333  1  0.14967022  0.37952667  0.83119289  1.0
  Ni  Ni1334  1  0.14967022  0.71286000  0.83119289  1.0
  Ni  Ni1335  1  0.48300356  0.04619333  0.83119289  1.0
  Ni  Ni1336  1  0.48300356  0.37952667  0.83119289  1.0
  Ni  Ni1337  1  0.48300356  0.71286000  0.83119289  1.0
  Ni  Ni1338  1  0.81633689  0.04619333  0.83119289  1.0
  Ni  Ni1339  1  0.81633689  0.37952667  0.83119289  1.0
  Ni  Ni1340  1  0.81633689  0.71286000  0.83119289  1.0
  Ni  Ni1341  1  0.03855911  0.04619333  0.88674844  1.0
  Ni  Ni1342  1  0.03855911  0.37952667  0.88674844  1.0
  Ni  Ni1343  1  0.03855911  0.71286000  0.88674844  1.0
  Ni  Ni1344  1  0.37189244  0.04619333  0.88674844  1.0
  Ni  Ni1345  1  0.37189244  0.37952667  0.88674844  1.0
  Ni  Ni1346  1  0.37189244  0.71286000  0.88674844  1.0
  Ni  Ni1347  1  0.70522578  0.04619333  0.88674844  1.0
  Ni  Ni1348  1  0.70522578  0.37952667  0.88674844  1.0
  Ni  Ni1349  1  0.70522578  0.71286000  0.88674844  1.0
  Ni  Ni1350  1  0.25950367  0.21044900  0.85810833  1.0
  Ni  Ni1351  1  0.25950367  0.54378233  0.85810833  1.0
  Ni  Ni1352  1  0.25950367  0.87711567  0.85810833  1.0
  Ni  Ni1353  1  0.59283700  0.21044900  0.85810833  1.0
  Ni  Ni1354  1  0.59283700  0.54378233  0.85810833  1.0
  Ni  Ni1355  1  0.59283700  0.87711567  0.85810833  1.0
  Ni  Ni1356  1  0.92617033  0.21044900  0.85810833  1.0
  Ni  Ni1357  1  0.92617033  0.54378233  0.85810833  1.0
  Ni  Ni1358  1  0.92617033  0.87711567  0.85810833  1.0
  Ni  Ni1359  1  0.03728144  0.21044900  0.80255278  1.0
  Ni  Ni1360  1  0.03728144  0.54378233  0.80255278  1.0
  Ni  Ni1361  1  0.03728144  0.87711567  0.80255278  1.0
  Ni  Ni1362  1  0.37061478  0.21044900  0.80255278  1.0
  Ni  Ni1363  1  0.37061478  0.54378233  0.80255278  1.0
  Ni  Ni1364  1  0.37061478  0.87711567  0.80255278  1.0
  Ni  Ni1365  1  0.70394811  0.21044900  0.80255278  1.0
  Ni  Ni1366  1  0.70394811  0.54378233  0.80255278  1.0
  Ni  Ni1367  1  0.70394811  0.87711567  0.80255278  1.0
  Ni  Ni1368  1  0.03855911  0.04619333  0.80240844  1.0
  Ni  Ni1369  1  0.03855911  0.37952667  0.80240844  1.0
  Ni  Ni1370  1  0.03855911  0.71286000  0.80240844  1.0
  Ni  Ni1371  1  0.37189244  0.04619333  0.80240844  1.0
  Ni  Ni1372  1  0.37189244  0.37952667  0.80240844  1.0
  Ni  Ni1373  1  0.37189244  0.71286000  0.80240844  1.0
  Ni  Ni1374  1  0.70522578  0.04619333  0.80240844  1.0
  Ni  Ni1375  1  0.70522578  0.37952667  0.80240844  1.0
  Ni  Ni1376  1  0.70522578  0.71286000  0.80240844  1.0
  Ni  Ni1377  1  0.26078133  0.04619333  0.85796400  1.0
  Ni  Ni1378  1  0.26078133  0.37952667  0.85796400  1.0
  Ni  Ni1379  1  0.26078133  0.71286000  0.85796400  1.0
  Ni  Ni1380  1  0.59411467  0.04619333  0.85796400  1.0
  Ni  Ni1381  1  0.59411467  0.37952667  0.85796400  1.0
  Ni  Ni1382  1  0.59411467  0.71286000  0.85796400  1.0
  Ni  Ni1383  1  0.92744800  0.04619333  0.85796400  1.0
  Ni  Ni1384  1  0.92744800  0.37952667  0.85796400  1.0
  Ni  Ni1385  1  0.92744800  0.71286000  0.85796400  1.0
  Ni  Ni1386  1  0.11325156  0.17308800  0.77991822  1.0
  Ni  Ni1387  1  0.11325156  0.50642133  0.77991822  1.0
  Ni  Ni1388  1  0.11325156  0.83975467  0.77991822  1.0
  Ni  Ni1389  1  0.44658489  0.17308800  0.77991822  1.0
  Ni  Ni1390  1  0.44658489  0.50642133  0.77991822  1.0
  Ni  Ni1391  1  0.44658489  0.83975467  0.77991822  1.0
  Ni  Ni1392  1  0.77991822  0.17308800  0.77991822  1.0
  Ni  Ni1393  1  0.77991822  0.50642133  0.77991822  1.0
  Ni  Ni1394  1  0.77991822  0.83975467  0.77991822  1.0
  Ni  Ni1395  1  0.00214044  0.17308800  0.83547378  1.0
  Ni  Ni1396  1  0.00214044  0.50642133  0.83547378  1.0
  Ni  Ni1397  1  0.00214044  0.83975467  0.83547378  1.0
  Ni  Ni1398  1  0.33547378  0.17308800  0.83547378  1.0
  Ni  Ni1399  1  0.33547378  0.50642133  0.83547378  1.0
  Ni  Ni1400  1  0.33547378  0.83975467  0.83547378  1.0
  Ni  Ni1401  1  0.66880711  0.17308800  0.83547378  1.0
  Ni  Ni1402  1  0.66880711  0.50642133  0.83547378  1.0
  Ni  Ni1403  1  0.66880711  0.83975467  0.83547378  1.0
  Ni  Ni1404  1  0.02194844  0.29998267  0.67375911  1.0
  Ni  Ni1405  1  0.02194844  0.63331600  0.67375911  1.0
  Ni  Ni1406  1  0.02194844  0.96664933  0.67375911  1.0
  Ni  Ni1407  1  0.35528178  0.29998267  0.67375911  1.0
  Ni  Ni1408  1  0.35528178  0.63331600  0.67375911  1.0
  Ni  Ni1409  1  0.35528178  0.96664933  0.67375911  1.0
  Ni  Ni1410  1  0.68861511  0.29998267  0.67375911  1.0
  Ni  Ni1411  1  0.68861511  0.63331600  0.67375911  1.0
  Ni  Ni1412  1  0.68861511  0.96664933  0.67375911  1.0
  Ni  Ni1413  1  0.24417067  0.29998267  0.72931467  1.0
  Ni  Ni1414  1  0.24417067  0.63331600  0.72931467  1.0
  Ni  Ni1415  1  0.24417067  0.96664933  0.72931467  1.0
  Ni  Ni1416  1  0.57750400  0.29998267  0.72931467  1.0
  Ni  Ni1417  1  0.57750400  0.63331600  0.72931467  1.0
  Ni  Ni1418  1  0.57750400  0.96664933  0.72931467  1.0
  Ni  Ni1419  1  0.91083733  0.29998267  0.72931467  1.0
  Ni  Ni1420  1  0.91083733  0.63331600  0.72931467  1.0
  Ni  Ni1421  1  0.91083733  0.96664933  0.72931467  1.0
  Ni  Ni1422  1  0.02260778  0.13572700  0.67392394  1.0
  Ni  Ni1423  1  0.02260778  0.46906033  0.67392394  1.0
  Ni  Ni1424  1  0.02260778  0.80239367  0.67392394  1.0
  Ni  Ni1425  1  0.35594111  0.13572700  0.67392394  1.0
  Ni  Ni1426  1  0.35594111  0.46906033  0.67392394  1.0
  Ni  Ni1427  1  0.35594111  0.80239367  0.67392394  1.0
  Ni  Ni1428  1  0.68927444  0.13572700  0.67392394  1.0
  Ni  Ni1429  1  0.68927444  0.46906033  0.67392394  1.0
  Ni  Ni1430  1  0.68927444  0.80239367  0.67392394  1.0
  Ni  Ni1431  1  0.24483000  0.13572700  0.72947950  1.0
  Ni  Ni1432  1  0.24483000  0.46906033  0.72947950  1.0
  Ni  Ni1433  1  0.24483000  0.80239367  0.72947950  1.0
  Ni  Ni1434  1  0.57816333  0.13572700  0.72947950  1.0
  Ni  Ni1435  1  0.57816333  0.46906033  0.72947950  1.0
  Ni  Ni1436  1  0.57816333  0.80239367  0.72947950  1.0
  Ni  Ni1437  1  0.91149667  0.13572700  0.72947950  1.0
  Ni  Ni1438  1  0.91149667  0.46906033  0.72947950  1.0
  Ni  Ni1439  1  0.91149667  0.80239367  0.72947950  1.0
  Ni  Ni1440  1  0.07683289  0.29998267  0.72864356  1.0
  Ni  Ni1441  1  0.07683289  0.63331600  0.72864356  1.0
  Ni  Ni1442  1  0.07683289  0.96664933  0.72864356  1.0
  Ni  Ni1443  1  0.41016622  0.29998267  0.72864356  1.0
  Ni  Ni1444  1  0.41016622  0.63331600  0.72864356  1.0
  Ni  Ni1445  1  0.41016622  0.96664933  0.72864356  1.0
  Ni  Ni1446  1  0.74349956  0.29998267  0.72864356  1.0
  Ni  Ni1447  1  0.74349956  0.63331600  0.72864356  1.0
  Ni  Ni1448  1  0.74349956  0.96664933  0.72864356  1.0
  Ni  Ni1449  1  0.18794400  0.29998267  0.67308800  1.0
  Ni  Ni1450  1  0.18794400  0.63331600  0.67308800  1.0
  Ni  Ni1451  1  0.18794400  0.96664933  0.67308800  1.0
  Ni  Ni1452  1  0.52127733  0.29998267  0.67308800  1.0
  Ni  Ni1453  1  0.52127733  0.63331600  0.67308800  1.0
  Ni  Ni1454  1  0.52127733  0.96664933  0.67308800  1.0
  Ni  Ni1455  1  0.85461067  0.29998267  0.67308800  1.0
  Ni  Ni1456  1  0.85461067  0.63331600  0.67308800  1.0
  Ni  Ni1457  1  0.85461067  0.96664933  0.67308800  1.0
  Ni  Ni1458  1  0.07811056  0.13572700  0.72942672  1.0
  Ni  Ni1459  1  0.07811056  0.46906033  0.72942672  1.0
  Ni  Ni1460  1  0.07811056  0.80239367  0.72942672  1.0
  Ni  Ni1461  1  0.41144389  0.13572700  0.72942672  1.0
  Ni  Ni1462  1  0.41144389  0.46906033  0.72942672  1.0
  Ni  Ni1463  1  0.41144389  0.80239367  0.72942672  1.0
  Ni  Ni1464  1  0.74477722  0.13572700  0.72942672  1.0
  Ni  Ni1465  1  0.74477722  0.46906033  0.72942672  1.0
  Ni  Ni1466  1  0.74477722  0.80239367  0.72942672  1.0
  Ni  Ni1467  1  0.18922167  0.13572700  0.67387117  1.0
  Ni  Ni1468  1  0.18922167  0.46906033  0.67387117  1.0
  Ni  Ni1469  1  0.18922167  0.80239367  0.67387117  1.0
  Ni  Ni1470  1  0.52255500  0.13572700  0.67387117  1.0
  Ni  Ni1471  1  0.52255500  0.46906033  0.67387117  1.0
  Ni  Ni1472  1  0.52255500  0.80239367  0.67387117  1.0
  Ni  Ni1473  1  0.85588833  0.13572700  0.67387117  1.0
  Ni  Ni1474  1  0.85588833  0.46906033  0.67387117  1.0
  Ni  Ni1475  1  0.85588833  0.80239367  0.67387117  1.0
  Ni  Ni1476  1  0.18794400  0.29998267  0.75742800  1.0
  Ni  Ni1477  1  0.18794400  0.63331600  0.75742800  1.0
  Ni  Ni1478  1  0.18794400  0.96664933  0.75742800  1.0
  Ni  Ni1479  1  0.52127733  0.29998267  0.75742800  1.0
  Ni  Ni1480  1  0.52127733  0.63331600  0.75742800  1.0
  Ni  Ni1481  1  0.52127733  0.96664933  0.75742800  1.0
  Ni  Ni1482  1  0.85461067  0.29998267  0.75742800  1.0
  Ni  Ni1483  1  0.85461067  0.63331600  0.75742800  1.0
  Ni  Ni1484  1  0.85461067  0.96664933  0.75742800  1.0
  Ni  Ni1485  1  0.29905511  0.29998267  0.70187244  1.0
  Ni  Ni1486  1  0.29905511  0.63331600  0.70187244  1.0
  Ni  Ni1487  1  0.29905511  0.96664933  0.70187244  1.0
  Ni  Ni1488  1  0.63238844  0.29998267  0.70187244  1.0
  Ni  Ni1489  1  0.63238844  0.63331600  0.70187244  1.0
  Ni  Ni1490  1  0.63238844  0.96664933  0.70187244  1.0
  Ni  Ni1491  1  0.96572178  0.29998267  0.70187244  1.0
  Ni  Ni1492  1  0.96572178  0.63331600  0.70187244  1.0
  Ni  Ni1493  1  0.96572178  0.96664933  0.70187244  1.0
  Ni  Ni1494  1  0.30033278  0.13572700  0.70172811  1.0
  Ni  Ni1495  1  0.30033278  0.46906033  0.70172811  1.0
  Ni  Ni1496  1  0.30033278  0.80239367  0.70172811  1.0
  Ni  Ni1497  1  0.63366611  0.13572700  0.70172811  1.0
  Ni  Ni1498  1  0.63366611  0.46906033  0.70172811  1.0
  Ni  Ni1499  1  0.63366611  0.80239367  0.70172811  1.0
  Ni  Ni1500  1  0.96699944  0.13572700  0.70172811  1.0
  Ni  Ni1501  1  0.96699944  0.46906033  0.70172811  1.0
  Ni  Ni1502  1  0.96699944  0.80239367  0.70172811  1.0
  Ni  Ni1503  1  0.18922167  0.13572700  0.75728367  1.0
  Ni  Ni1504  1  0.18922167  0.46906033  0.75728367  1.0
  Ni  Ni1505  1  0.18922167  0.80239367  0.75728367  1.0
  Ni  Ni1506  1  0.52255500  0.13572700  0.75728367  1.0
  Ni  Ni1507  1  0.52255500  0.46906033  0.75728367  1.0
  Ni  Ni1508  1  0.52255500  0.80239367  0.75728367  1.0
  Ni  Ni1509  1  0.85588833  0.13572700  0.75728367  1.0
  Ni  Ni1510  1  0.85588833  0.46906033  0.75728367  1.0
  Ni  Ni1511  1  0.85588833  0.80239367  0.75728367  1.0
  Ni  Ni1512  1  0.09278422  0.21044900  0.77480139  1.0
  Ni  Ni1513  1  0.09278422  0.54378233  0.77480139  1.0
  Ni  Ni1514  1  0.09278422  0.87711567  0.77480139  1.0
  Ni  Ni1515  1  0.42611756  0.21044900  0.77480139  1.0
  Ni  Ni1516  1  0.42611756  0.54378233  0.77480139  1.0
  Ni  Ni1517  1  0.42611756  0.87711567  0.77480139  1.0
  Ni  Ni1518  1  0.75945089  0.21044900  0.77480139  1.0
  Ni  Ni1519  1  0.75945089  0.54378233  0.77480139  1.0
  Ni  Ni1520  1  0.75945089  0.87711567  0.77480139  1.0
  Ni  Ni1521  1  0.20389533  0.21044900  0.71924583  1.0
  Ni  Ni1522  1  0.20389533  0.54378233  0.71924583  1.0
  Ni  Ni1523  1  0.20389533  0.87711567  0.71924583  1.0
  Ni  Ni1524  1  0.53722867  0.21044900  0.71924583  1.0
  Ni  Ni1525  1  0.53722867  0.54378233  0.71924583  1.0
  Ni  Ni1526  1  0.53722867  0.87711567  0.71924583  1.0
  Ni  Ni1527  1  0.87056200  0.21044900  0.71924583  1.0
  Ni  Ni1528  1  0.87056200  0.54378233  0.71924583  1.0
  Ni  Ni1529  1  0.87056200  0.87711567  0.71924583  1.0
  Ni  Ni1530  1  0.09344356  0.04619333  0.77496622  1.0
  Ni  Ni1531  1  0.09344356  0.37952667  0.77496622  1.0
  Ni  Ni1532  1  0.09344356  0.71286000  0.77496622  1.0
  Ni  Ni1533  1  0.42677689  0.04619333  0.77496622  1.0
  Ni  Ni1534  1  0.42677689  0.37952667  0.77496622  1.0
  Ni  Ni1535  1  0.42677689  0.71286000  0.77496622  1.0
  Ni  Ni1536  1  0.76011022  0.04619333  0.77496622  1.0
  Ni  Ni1537  1  0.76011022  0.37952667  0.77496622  1.0
  Ni  Ni1538  1  0.76011022  0.71286000  0.77496622  1.0
  Ni  Ni1539  1  0.20455467  0.04619333  0.71941067  1.0
  Ni  Ni1540  1  0.20455467  0.37952667  0.71941067  1.0
  Ni  Ni1541  1  0.20455467  0.71286000  0.71941067  1.0
  Ni  Ni1542  1  0.53788800  0.04619333  0.71941067  1.0
  Ni  Ni1543  1  0.53788800  0.37952667  0.71941067  1.0
  Ni  Ni1544  1  0.53788800  0.71286000  0.71941067  1.0
  Ni  Ni1545  1  0.87122133  0.04619333  0.71941067  1.0
  Ni  Ni1546  1  0.87122133  0.37952667  0.71941067  1.0
  Ni  Ni1547  1  0.87122133  0.71286000  0.71941067  1.0
  Ni  Ni1548  1  0.03728144  0.21044900  0.71929861  1.0
  Ni  Ni1549  1  0.03728144  0.54378233  0.71929861  1.0
  Ni  Ni1550  1  0.03728144  0.87711567  0.71929861  1.0
  Ni  Ni1551  1  0.37061478  0.21044900  0.71929861  1.0
  Ni  Ni1552  1  0.37061478  0.54378233  0.71929861  1.0
  Ni  Ni1553  1  0.37061478  0.87711567  0.71929861  1.0
  Ni  Ni1554  1  0.70394811  0.21044900  0.71929861  1.0
  Ni  Ni1555  1  0.70394811  0.54378233  0.71929861  1.0
  Ni  Ni1556  1  0.70394811  0.87711567  0.71929861  1.0
  Ni  Ni1557  1  0.25950367  0.21044900  0.77485417  1.0
  Ni  Ni1558  1  0.25950367  0.54378233  0.77485417  1.0
  Ni  Ni1559  1  0.25950367  0.87711567  0.77485417  1.0
  Ni  Ni1560  1  0.59283700  0.21044900  0.77485417  1.0
  Ni  Ni1561  1  0.59283700  0.54378233  0.77485417  1.0
  Ni  Ni1562  1  0.59283700  0.87711567  0.77485417  1.0
  Ni  Ni1563  1  0.92617033  0.21044900  0.77485417  1.0
  Ni  Ni1564  1  0.92617033  0.54378233  0.77485417  1.0
  Ni  Ni1565  1  0.92617033  0.87711567  0.77485417  1.0
  Ni  Ni1566  1  0.03855911  0.04619333  0.72008178  1.0
  Ni  Ni1567  1  0.03855911  0.37952667  0.72008178  1.0
  Ni  Ni1568  1  0.03855911  0.71286000  0.72008178  1.0
  Ni  Ni1569  1  0.37189244  0.04619333  0.72008178  1.0
  Ni  Ni1570  1  0.37189244  0.37952667  0.72008178  1.0
  Ni  Ni1571  1  0.37189244  0.71286000  0.72008178  1.0
  Ni  Ni1572  1  0.70522578  0.04619333  0.72008178  1.0
  Ni  Ni1573  1  0.70522578  0.37952667  0.72008178  1.0
  Ni  Ni1574  1  0.70522578  0.71286000  0.72008178  1.0
  Ni  Ni1575  1  0.26078133  0.04619333  0.77563733  1.0
  Ni  Ni1576  1  0.26078133  0.37952667  0.77563733  1.0
  Ni  Ni1577  1  0.26078133  0.71286000  0.77563733  1.0
  Ni  Ni1578  1  0.59411467  0.04619333  0.77563733  1.0
  Ni  Ni1579  1  0.59411467  0.37952667  0.77563733  1.0
  Ni  Ni1580  1  0.59411467  0.71286000  0.77563733  1.0
  Ni  Ni1581  1  0.92744800  0.04619333  0.77563733  1.0
  Ni  Ni1582  1  0.92744800  0.37952667  0.77563733  1.0
  Ni  Ni1583  1  0.92744800  0.71286000  0.77563733  1.0
  Ni  Ni1584  1  0.14839256  0.21044900  0.74699722  1.0
  Ni  Ni1585  1  0.14839256  0.54378233  0.74699722  1.0
  Ni  Ni1586  1  0.14839256  0.87711567  0.74699722  1.0
  Ni  Ni1587  1  0.48172589  0.21044900  0.74699722  1.0
  Ni  Ni1588  1  0.48172589  0.54378233  0.74699722  1.0
  Ni  Ni1589  1  0.48172589  0.87711567  0.74699722  1.0
  Ni  Ni1590  1  0.81505922  0.21044900  0.74699722  1.0
  Ni  Ni1591  1  0.81505922  0.54378233  0.74699722  1.0
  Ni  Ni1592  1  0.81505922  0.87711567  0.74699722  1.0
  Ni  Ni1593  1  0.25950367  0.21044900  0.69144167  1.0
  Ni  Ni1594  1  0.25950367  0.54378233  0.69144167  1.0
  Ni  Ni1595  1  0.25950367  0.87711567  0.69144167  1.0
  Ni  Ni1596  1  0.59283700  0.21044900  0.69144167  1.0
  Ni  Ni1597  1  0.59283700  0.54378233  0.69144167  1.0
  Ni  Ni1598  1  0.59283700  0.87711567  0.69144167  1.0
  Ni  Ni1599  1  0.92617033  0.21044900  0.69144167  1.0
  Ni  Ni1600  1  0.92617033  0.54378233  0.69144167  1.0
  Ni  Ni1601  1  0.92617033  0.87711567  0.69144167  1.0
  Ni  Ni1602  1  0.26078133  0.04619333  0.69129733  1.0
  Ni  Ni1603  1  0.26078133  0.37952667  0.69129733  1.0
  Ni  Ni1604  1  0.26078133  0.71286000  0.69129733  1.0
  Ni  Ni1605  1  0.59411467  0.04619333  0.69129733  1.0
  Ni  Ni1606  1  0.59411467  0.37952667  0.69129733  1.0
  Ni  Ni1607  1  0.59411467  0.71286000  0.69129733  1.0
  Ni  Ni1608  1  0.92744800  0.04619333  0.69129733  1.0
  Ni  Ni1609  1  0.92744800  0.37952667  0.69129733  1.0
  Ni  Ni1610  1  0.92744800  0.71286000  0.69129733  1.0
  Ni  Ni1611  1  0.14967022  0.04619333  0.74685289  1.0
  Ni  Ni1612  1  0.14967022  0.37952667  0.74685289  1.0
  Ni  Ni1613  1  0.14967022  0.71286000  0.74685289  1.0
  Ni  Ni1614  1  0.48300356  0.04619333  0.74685289  1.0
  Ni  Ni1615  1  0.48300356  0.37952667  0.74685289  1.0
  Ni  Ni1616  1  0.48300356  0.71286000  0.74685289  1.0
  Ni  Ni1617  1  0.81633689  0.04619333  0.74685289  1.0
  Ni  Ni1618  1  0.81633689  0.37952667  0.74685289  1.0
  Ni  Ni1619  1  0.81633689  0.71286000  0.74685289  1.0
  Ni  Ni1620  1  0.00214044  0.17308800  0.66880711  1.0
  Ni  Ni1621  1  0.00214044  0.50642133  0.66880711  1.0
  Ni  Ni1622  1  0.00214044  0.83975467  0.66880711  1.0
  Ni  Ni1623  1  0.33547378  0.17308800  0.66880711  1.0
  Ni  Ni1624  1  0.33547378  0.50642133  0.66880711  1.0
  Ni  Ni1625  1  0.33547378  0.83975467  0.66880711  1.0
  Ni  Ni1626  1  0.66880711  0.17308800  0.66880711  1.0
  Ni  Ni1627  1  0.66880711  0.50642133  0.66880711  1.0
  Ni  Ni1628  1  0.66880711  0.83975467  0.66880711  1.0
  Ni  Ni1629  1  0.22436267  0.17308800  0.72436267  1.0
  Ni  Ni1630  1  0.22436267  0.50642133  0.72436267  1.0
  Ni  Ni1631  1  0.22436267  0.83975467  0.72436267  1.0
  Ni  Ni1632  1  0.55769600  0.17308800  0.72436267  1.0
  Ni  Ni1633  1  0.55769600  0.50642133  0.72436267  1.0
  Ni  Ni1634  1  0.55769600  0.83975467  0.72436267  1.0
  Ni  Ni1635  1  0.89102933  0.17308800  0.72436267  1.0
  Ni  Ni1636  1  0.89102933  0.50642133  0.72436267  1.0
  Ni  Ni1637  1  0.89102933  0.83975467  0.72436267  1.0
  Ni  Ni1638  1  0.24417067  0.29998267  0.56264800  1.0
  Ni  Ni1639  1  0.24417067  0.63331600  0.56264800  1.0
  Ni  Ni1640  1  0.24417067  0.96664933  0.56264800  1.0
  Ni  Ni1641  1  0.57750400  0.29998267  0.56264800  1.0
  Ni  Ni1642  1  0.57750400  0.63331600  0.56264800  1.0
  Ni  Ni1643  1  0.57750400  0.96664933  0.56264800  1.0
  Ni  Ni1644  1  0.91083733  0.29998267  0.56264800  1.0
  Ni  Ni1645  1  0.91083733  0.63331600  0.56264800  1.0
  Ni  Ni1646  1  0.91083733  0.96664933  0.56264800  1.0
  Ni  Ni1647  1  0.13305956  0.29998267  0.61820356  1.0
  Ni  Ni1648  1  0.13305956  0.63331600  0.61820356  1.0
  Ni  Ni1649  1  0.13305956  0.96664933  0.61820356  1.0
  Ni  Ni1650  1  0.46639289  0.29998267  0.61820356  1.0
  Ni  Ni1651  1  0.46639289  0.63331600  0.61820356  1.0
  Ni  Ni1652  1  0.46639289  0.96664933  0.61820356  1.0
  Ni  Ni1653  1  0.79972622  0.29998267  0.61820356  1.0
  Ni  Ni1654  1  0.79972622  0.63331600  0.61820356  1.0
  Ni  Ni1655  1  0.79972622  0.96664933  0.61820356  1.0
  Ni  Ni1656  1  0.24483000  0.13572700  0.56281283  1.0
  Ni  Ni1657  1  0.24483000  0.46906033  0.56281283  1.0
  Ni  Ni1658  1  0.24483000  0.80239367  0.56281283  1.0
  Ni  Ni1659  1  0.57816333  0.13572700  0.56281283  1.0
  Ni  Ni1660  1  0.57816333  0.46906033  0.56281283  1.0
  Ni  Ni1661  1  0.57816333  0.80239367  0.56281283  1.0
  Ni  Ni1662  1  0.91149667  0.13572700  0.56281283  1.0
  Ni  Ni1663  1  0.91149667  0.46906033  0.56281283  1.0
  Ni  Ni1664  1  0.91149667  0.80239367  0.56281283  1.0
  Ni  Ni1665  1  0.13371889  0.13572700  0.61836839  1.0
  Ni  Ni1666  1  0.13371889  0.46906033  0.61836839  1.0
  Ni  Ni1667  1  0.13371889  0.80239367  0.61836839  1.0
  Ni  Ni1668  1  0.46705222  0.13572700  0.61836839  1.0
  Ni  Ni1669  1  0.46705222  0.46906033  0.61836839  1.0
  Ni  Ni1670  1  0.46705222  0.80239367  0.61836839  1.0
  Ni  Ni1671  1  0.80038556  0.13572700  0.61836839  1.0
  Ni  Ni1672  1  0.80038556  0.46906033  0.61836839  1.0
  Ni  Ni1673  1  0.80038556  0.80239367  0.61836839  1.0
  Ni  Ni1674  1  0.29905511  0.29998267  0.61753244  1.0
  Ni  Ni1675  1  0.29905511  0.63331600  0.61753244  1.0
  Ni  Ni1676  1  0.29905511  0.96664933  0.61753244  1.0
  Ni  Ni1677  1  0.63238844  0.29998267  0.61753244  1.0
  Ni  Ni1678  1  0.63238844  0.63331600  0.61753244  1.0
  Ni  Ni1679  1  0.63238844  0.96664933  0.61753244  1.0
  Ni  Ni1680  1  0.96572178  0.29998267  0.61753244  1.0
  Ni  Ni1681  1  0.96572178  0.63331600  0.61753244  1.0
  Ni  Ni1682  1  0.96572178  0.96664933  0.61753244  1.0
  Ni  Ni1683  1  0.07683289  0.29998267  0.56197689  1.0
  Ni  Ni1684  1  0.07683289  0.63331600  0.56197689  1.0
  Ni  Ni1685  1  0.07683289  0.96664933  0.56197689  1.0
  Ni  Ni1686  1  0.41016622  0.29998267  0.56197689  1.0
  Ni  Ni1687  1  0.41016622  0.63331600  0.56197689  1.0
  Ni  Ni1688  1  0.41016622  0.96664933  0.56197689  1.0
  Ni  Ni1689  1  0.74349956  0.29998267  0.56197689  1.0
  Ni  Ni1690  1  0.74349956  0.63331600  0.56197689  1.0
  Ni  Ni1691  1  0.74349956  0.96664933  0.56197689  1.0
  Ni  Ni1692  1  0.30033278  0.13572700  0.61831561  1.0
  Ni  Ni1693  1  0.30033278  0.46906033  0.61831561  1.0
  Ni  Ni1694  1  0.30033278  0.80239367  0.61831561  1.0
  Ni  Ni1695  1  0.63366611  0.13572700  0.61831561  1.0
  Ni  Ni1696  1  0.63366611  0.46906033  0.61831561  1.0
  Ni  Ni1697  1  0.63366611  0.80239367  0.61831561  1.0
  Ni  Ni1698  1  0.96699944  0.13572700  0.61831561  1.0
  Ni  Ni1699  1  0.96699944  0.46906033  0.61831561  1.0
  Ni  Ni1700  1  0.96699944  0.80239367  0.61831561  1.0
  Ni  Ni1701  1  0.07811056  0.13572700  0.56276006  1.0
  Ni  Ni1702  1  0.07811056  0.46906033  0.56276006  1.0
  Ni  Ni1703  1  0.07811056  0.80239367  0.56276006  1.0
  Ni  Ni1704  1  0.41144389  0.13572700  0.56276006  1.0
  Ni  Ni1705  1  0.41144389  0.46906033  0.56276006  1.0
  Ni  Ni1706  1  0.41144389  0.80239367  0.56276006  1.0
  Ni  Ni1707  1  0.74477722  0.13572700  0.56276006  1.0
  Ni  Ni1708  1  0.74477722  0.46906033  0.56276006  1.0
  Ni  Ni1709  1  0.74477722  0.80239367  0.56276006  1.0
  Ni  Ni1710  1  0.07683289  0.29998267  0.64631689  1.0
  Ni  Ni1711  1  0.07683289  0.63331600  0.64631689  1.0
  Ni  Ni1712  1  0.07683289  0.96664933  0.64631689  1.0
  Ni  Ni1713  1  0.41016622  0.29998267  0.64631689  1.0
  Ni  Ni1714  1  0.41016622  0.63331600  0.64631689  1.0
  Ni  Ni1715  1  0.41016622  0.96664933  0.64631689  1.0
  Ni  Ni1716  1  0.74349956  0.29998267  0.64631689  1.0
  Ni  Ni1717  1  0.74349956  0.63331600  0.64631689  1.0
  Ni  Ni1718  1  0.74349956  0.96664933  0.64631689  1.0
  Ni  Ni1719  1  0.18794400  0.29998267  0.59076133  1.0
  Ni  Ni1720  1  0.18794400  0.63331600  0.59076133  1.0
  Ni  Ni1721  1  0.18794400  0.96664933  0.59076133  1.0
  Ni  Ni1722  1  0.52127733  0.29998267  0.59076133  1.0
  Ni  Ni1723  1  0.52127733  0.63331600  0.59076133  1.0
  Ni  Ni1724  1  0.52127733  0.96664933  0.59076133  1.0
  Ni  Ni1725  1  0.85461067  0.29998267  0.59076133  1.0
  Ni  Ni1726  1  0.85461067  0.63331600  0.59076133  1.0
  Ni  Ni1727  1  0.85461067  0.96664933  0.59076133  1.0
  Ni  Ni1728  1  0.18922167  0.13572700  0.59061700  1.0
  Ni  Ni1729  1  0.18922167  0.46906033  0.59061700  1.0
  Ni  Ni1730  1  0.18922167  0.80239367  0.59061700  1.0
  Ni  Ni1731  1  0.52255500  0.13572700  0.59061700  1.0
  Ni  Ni1732  1  0.52255500  0.46906033  0.59061700  1.0
  Ni  Ni1733  1  0.52255500  0.80239367  0.59061700  1.0
  Ni  Ni1734  1  0.85588833  0.13572700  0.59061700  1.0
  Ni  Ni1735  1  0.85588833  0.46906033  0.59061700  1.0
  Ni  Ni1736  1  0.85588833  0.80239367  0.59061700  1.0
  Ni  Ni1737  1  0.07811056  0.13572700  0.64617256  1.0
  Ni  Ni1738  1  0.07811056  0.46906033  0.64617256  1.0
  Ni  Ni1739  1  0.07811056  0.80239367  0.64617256  1.0
  Ni  Ni1740  1  0.41144389  0.13572700  0.64617256  1.0
  Ni  Ni1741  1  0.41144389  0.46906033  0.64617256  1.0
  Ni  Ni1742  1  0.41144389  0.80239367  0.64617256  1.0
  Ni  Ni1743  1  0.74477722  0.13572700  0.64617256  1.0
  Ni  Ni1744  1  0.74477722  0.46906033  0.64617256  1.0
  Ni  Ni1745  1  0.74477722  0.80239367  0.64617256  1.0
  Ni  Ni1746  1  0.31500644  0.21044900  0.66369028  1.0
  Ni  Ni1747  1  0.31500644  0.54378233  0.66369028  1.0
  Ni  Ni1748  1  0.31500644  0.87711567  0.66369028  1.0
  Ni  Ni1749  1  0.64833978  0.21044900  0.66369028  1.0
  Ni  Ni1750  1  0.64833978  0.54378233  0.66369028  1.0
  Ni  Ni1751  1  0.64833978  0.87711567  0.66369028  1.0
  Ni  Ni1752  1  0.98167311  0.21044900  0.66369028  1.0
  Ni  Ni1753  1  0.98167311  0.54378233  0.66369028  1.0
  Ni  Ni1754  1  0.98167311  0.87711567  0.66369028  1.0
  Ni  Ni1755  1  0.09278422  0.21044900  0.60813472  1.0
  Ni  Ni1756  1  0.09278422  0.54378233  0.60813472  1.0
  Ni  Ni1757  1  0.09278422  0.87711567  0.60813472  1.0
  Ni  Ni1758  1  0.42611756  0.21044900  0.60813472  1.0
  Ni  Ni1759  1  0.42611756  0.54378233  0.60813472  1.0
  Ni  Ni1760  1  0.42611756  0.87711567  0.60813472  1.0
  Ni  Ni1761  1  0.75945089  0.21044900  0.60813472  1.0
  Ni  Ni1762  1  0.75945089  0.54378233  0.60813472  1.0
  Ni  Ni1763  1  0.75945089  0.87711567  0.60813472  1.0
  Ni  Ni1764  1  0.31566578  0.04619333  0.66385511  1.0
  Ni  Ni1765  1  0.31566578  0.37952667  0.66385511  1.0
  Ni  Ni1766  1  0.31566578  0.71286000  0.66385511  1.0
  Ni  Ni1767  1  0.64899911  0.04619333  0.66385511  1.0
  Ni  Ni1768  1  0.64899911  0.37952667  0.66385511  1.0
  Ni  Ni1769  1  0.64899911  0.71286000  0.66385511  1.0
  Ni  Ni1770  1  0.98233244  0.04619333  0.66385511  1.0
  Ni  Ni1771  1  0.98233244  0.37952667  0.66385511  1.0
  Ni  Ni1772  1  0.98233244  0.71286000  0.66385511  1.0
  Ni  Ni1773  1  0.09344356  0.04619333  0.60829956  1.0
  Ni  Ni1774  1  0.09344356  0.37952667  0.60829956  1.0
  Ni  Ni1775  1  0.09344356  0.71286000  0.60829956  1.0
  Ni  Ni1776  1  0.42677689  0.04619333  0.60829956  1.0
  Ni  Ni1777  1  0.42677689  0.37952667  0.60829956  1.0
  Ni  Ni1778  1  0.42677689  0.71286000  0.60829956  1.0
  Ni  Ni1779  1  0.76011022  0.04619333  0.60829956  1.0
  Ni  Ni1780  1  0.76011022  0.37952667  0.60829956  1.0
  Ni  Ni1781  1  0.76011022  0.71286000  0.60829956  1.0
  Ni  Ni1782  1  0.25950367  0.21044900  0.60818750  1.0
  Ni  Ni1783  1  0.25950367  0.54378233  0.60818750  1.0
  Ni  Ni1784  1  0.25950367  0.87711567  0.60818750  1.0
  Ni  Ni1785  1  0.59283700  0.21044900  0.60818750  1.0
  Ni  Ni1786  1  0.59283700  0.54378233  0.60818750  1.0
  Ni  Ni1787  1  0.59283700  0.87711567  0.60818750  1.0
  Ni  Ni1788  1  0.92617033  0.21044900  0.60818750  1.0
  Ni  Ni1789  1  0.92617033  0.54378233  0.60818750  1.0
  Ni  Ni1790  1  0.92617033  0.87711567  0.60818750  1.0
  Ni  Ni1791  1  0.14839256  0.21044900  0.66374306  1.0
  Ni  Ni1792  1  0.14839256  0.54378233  0.66374306  1.0
  Ni  Ni1793  1  0.14839256  0.87711567  0.66374306  1.0
  Ni  Ni1794  1  0.48172589  0.21044900  0.66374306  1.0
  Ni  Ni1795  1  0.48172589  0.54378233  0.66374306  1.0
  Ni  Ni1796  1  0.48172589  0.87711567  0.66374306  1.0
  Ni  Ni1797  1  0.81505922  0.21044900  0.66374306  1.0
  Ni  Ni1798  1  0.81505922  0.54378233  0.66374306  1.0
  Ni  Ni1799  1  0.81505922  0.87711567  0.66374306  1.0
  Ni  Ni1800  1  0.26078133  0.04619333  0.60897067  1.0
  Ni  Ni1801  1  0.26078133  0.37952667  0.60897067  1.0
  Ni  Ni1802  1  0.26078133  0.71286000  0.60897067  1.0
  Ni  Ni1803  1  0.59411467  0.04619333  0.60897067  1.0
  Ni  Ni1804  1  0.59411467  0.37952667  0.60897067  1.0
  Ni  Ni1805  1  0.59411467  0.71286000  0.60897067  1.0
  Ni  Ni1806  1  0.92744800  0.04619333  0.60897067  1.0
  Ni  Ni1807  1  0.92744800  0.37952667  0.60897067  1.0
  Ni  Ni1808  1  0.92744800  0.71286000  0.60897067  1.0
  Ni  Ni1809  1  0.14967022  0.04619333  0.66452622  1.0
  Ni  Ni1810  1  0.14967022  0.37952667  0.66452622  1.0
  Ni  Ni1811  1  0.14967022  0.71286000  0.66452622  1.0
  Ni  Ni1812  1  0.48300356  0.04619333  0.66452622  1.0
  Ni  Ni1813  1  0.48300356  0.37952667  0.66452622  1.0
  Ni  Ni1814  1  0.48300356  0.71286000  0.66452622  1.0
  Ni  Ni1815  1  0.81633689  0.04619333  0.66452622  1.0
  Ni  Ni1816  1  0.81633689  0.37952667  0.66452622  1.0
  Ni  Ni1817  1  0.81633689  0.71286000  0.66452622  1.0
  Ni  Ni1818  1  0.03728144  0.21044900  0.63588611  1.0
  Ni  Ni1819  1  0.03728144  0.54378233  0.63588611  1.0
  Ni  Ni1820  1  0.03728144  0.87711567  0.63588611  1.0
  Ni  Ni1821  1  0.37061478  0.21044900  0.63588611  1.0
  Ni  Ni1822  1  0.37061478  0.54378233  0.63588611  1.0
  Ni  Ni1823  1  0.37061478  0.87711567  0.63588611  1.0
  Ni  Ni1824  1  0.70394811  0.21044900  0.63588611  1.0
  Ni  Ni1825  1  0.70394811  0.54378233  0.63588611  1.0
  Ni  Ni1826  1  0.70394811  0.87711567  0.63588611  1.0
  Ni  Ni1827  1  0.14839256  0.21044900  0.58033056  1.0
  Ni  Ni1828  1  0.14839256  0.54378233  0.58033056  1.0
  Ni  Ni1829  1  0.14839256  0.87711567  0.58033056  1.0
  Ni  Ni1830  1  0.48172589  0.21044900  0.58033056  1.0
  Ni  Ni1831  1  0.48172589  0.54378233  0.58033056  1.0
  Ni  Ni1832  1  0.48172589  0.87711567  0.58033056  1.0
  Ni  Ni1833  1  0.81505922  0.21044900  0.58033056  1.0
  Ni  Ni1834  1  0.81505922  0.54378233  0.58033056  1.0
  Ni  Ni1835  1  0.81505922  0.87711567  0.58033056  1.0
  Ni  Ni1836  1  0.14967022  0.04619333  0.58018622  1.0
  Ni  Ni1837  1  0.14967022  0.37952667  0.58018622  1.0
  Ni  Ni1838  1  0.14967022  0.71286000  0.58018622  1.0
  Ni  Ni1839  1  0.48300356  0.04619333  0.58018622  1.0
  Ni  Ni1840  1  0.48300356  0.37952667  0.58018622  1.0
  Ni  Ni1841  1  0.48300356  0.71286000  0.58018622  1.0
  Ni  Ni1842  1  0.81633689  0.04619333  0.58018622  1.0
  Ni  Ni1843  1  0.81633689  0.37952667  0.58018622  1.0
  Ni  Ni1844  1  0.81633689  0.71286000  0.58018622  1.0
  Ni  Ni1845  1  0.03855911  0.04619333  0.63574178  1.0
  Ni  Ni1846  1  0.03855911  0.37952667  0.63574178  1.0
  Ni  Ni1847  1  0.03855911  0.71286000  0.63574178  1.0
  Ni  Ni1848  1  0.37189244  0.04619333  0.63574178  1.0
  Ni  Ni1849  1  0.37189244  0.37952667  0.63574178  1.0
  Ni  Ni1850  1  0.37189244  0.71286000  0.63574178  1.0
  Ni  Ni1851  1  0.70522578  0.04619333  0.63574178  1.0
  Ni  Ni1852  1  0.70522578  0.37952667  0.63574178  1.0
  Ni  Ni1853  1  0.70522578  0.71286000  0.63574178  1.0
  Ni  Ni1854  1  0.22436267  0.17308800  0.55769600  1.0
  Ni  Ni1855  1  0.22436267  0.50642133  0.55769600  1.0
  Ni  Ni1856  1  0.22436267  0.83975467  0.55769600  1.0
  Ni  Ni1857  1  0.55769600  0.17308800  0.55769600  1.0
  Ni  Ni1858  1  0.55769600  0.50642133  0.55769600  1.0
  Ni  Ni1859  1  0.55769600  0.83975467  0.55769600  1.0
  Ni  Ni1860  1  0.89102933  0.17308800  0.55769600  1.0
  Ni  Ni1861  1  0.89102933  0.50642133  0.55769600  1.0
  Ni  Ni1862  1  0.89102933  0.83975467  0.55769600  1.0
  Ni  Ni1863  1  0.11325156  0.17308800  0.61325156  1.0
  Ni  Ni1864  1  0.11325156  0.50642133  0.61325156  1.0
  Ni  Ni1865  1  0.11325156  0.83975467  0.61325156  1.0
  Ni  Ni1866  1  0.44658489  0.17308800  0.61325156  1.0
  Ni  Ni1867  1  0.44658489  0.50642133  0.61325156  1.0
  Ni  Ni1868  1  0.44658489  0.83975467  0.61325156  1.0
  Ni  Ni1869  1  0.77991822  0.17308800  0.61325156  1.0
  Ni  Ni1870  1  0.77991822  0.50642133  0.61325156  1.0
  Ni  Ni1871  1  0.77991822  0.83975467  0.61325156  1.0
