# generated using pymatgen
data_NbNi
_symmetry_space_group_name_H-M   'P 1'
_cell_length_a   14.70811264
_cell_length_b   55.97461536
_cell_length_c   33.42599128
_cell_angle_alpha   104.46985527
_cell_angle_beta   90.00000000
_cell_angle_gamma   90.00000000
_symmetry_Int_Tables_number   1
_chemical_formula_structural   NbNi
_chemical_formula_sum   'Nb468 Ni468'
_cell_volume   26646.05868540
_cell_formula_units_Z   468
loop_
 _symmetry_equiv_pos_site_id
 _symmetry_equiv_pos_as_xyz
  1  'x, y, z'
loop_
 _atom_site_type_symbol
 _atom_site_label
 _atom_site_symmetry_multiplicity
 _atom_site_fract_x
 _atom_site_fract_y
 _atom_site_fract_z
 _atom_site_occupancy
  Nb  Nb0  1  0.33333333  0.18103117  0.89390150  1.0
  Nb  Nb1  1  0.33333333  0.51436450  0.89390150  1.0
  Nb  Nb2  1  0.33333333  0.84769783  0.89390150  1.0
  Nb  Nb3  1  0.66666667  0.18103117  0.89390150  1.0
  Nb  Nb4  1  0.66666667  0.51436450  0.89390150  1.0
  Nb  Nb5  1  0.66666667  0.84769783  0.89390150  1.0
  Nb  Nb6  1  1.00000000  0.18103117  0.89390150  1.0
  Nb  Nb7  1  1.00000000  0.51436450  0.89390150  1.0
  Nb  Nb8  1  1.00000000  0.84769783  0.89390150  1.0
  Nb  Nb9  1  0.16666667  0.13936450  0.76890150  1.0
  Nb  Nb10  1  0.16666667  0.47269783  0.76890150  1.0
  Nb  Nb11  1  0.16666667  0.80603117  0.76890150  1.0
  Nb  Nb12  1  0.50000000  0.13936450  0.76890150  1.0
  Nb  Nb13  1  0.50000000  0.47269783  0.76890150  1.0
  Nb  Nb14  1  0.50000000  0.80603117  0.76890150  1.0
  Nb  Nb15  1  0.83333333  0.13936450  0.76890150  1.0
  Nb  Nb16  1  0.83333333  0.47269783  0.76890150  1.0
  Nb  Nb17  1  0.83333333  0.80603117  0.76890150  1.0
  Nb  Nb18  1  0.33333333  0.01565700  0.89312600  1.0
  Nb  Nb19  1  0.33333333  0.34899033  0.89312600  1.0
  Nb  Nb20  1  0.33333333  0.68232367  0.89312600  1.0
  Nb  Nb21  1  0.66666667  0.01565700  0.89312600  1.0
  Nb  Nb22  1  0.66666667  0.34899033  0.89312600  1.0
  Nb  Nb23  1  0.66666667  0.68232367  0.89312600  1.0
  Nb  Nb24  1  1.00000000  0.01565700  0.89312600  1.0
  Nb  Nb25  1  1.00000000  0.34899033  0.89312600  1.0
  Nb  Nb26  1  1.00000000  0.68232367  0.89312600  1.0
  Nb  Nb27  1  0.16666667  0.30732367  0.76812600  1.0
  Nb  Nb28  1  0.16666667  0.64065700  0.76812600  1.0
  Nb  Nb29  1  0.16666667  0.97399033  0.76812600  1.0
  Nb  Nb30  1  0.50000000  0.30732367  0.76812600  1.0
  Nb  Nb31  1  0.50000000  0.64065700  0.76812600  1.0
  Nb  Nb32  1  0.50000000  0.97399033  0.76812600  1.0
  Nb  Nb33  1  0.83333333  0.30732367  0.76812600  1.0
  Nb  Nb34  1  0.83333333  0.64065700  0.76812600  1.0
  Nb  Nb35  1  0.83333333  0.97399033  0.76812600  1.0
  Nb  Nb36  1  0.33333333  0.22174200  0.86947500  1.0
  Nb  Nb37  1  0.33333333  0.55507533  0.86947500  1.0
  Nb  Nb38  1  0.33333333  0.88840867  0.86947500  1.0
  Nb  Nb39  1  0.66666667  0.22174200  0.86947500  1.0
  Nb  Nb40  1  0.66666667  0.55507533  0.86947500  1.0
  Nb  Nb41  1  0.66666667  0.88840867  0.86947500  1.0
  Nb  Nb42  1  1.00000000  0.22174200  0.86947500  1.0
  Nb  Nb43  1  1.00000000  0.55507533  0.86947500  1.0
  Nb  Nb44  1  1.00000000  0.88840867  0.86947500  1.0
  Nb  Nb45  1  0.16666667  0.26340867  0.99447500  1.0
  Nb  Nb46  1  0.16666667  0.59674200  0.99447500  1.0
  Nb  Nb47  1  0.16666667  0.93007533  0.99447500  1.0
  Nb  Nb48  1  0.50000000  0.26340867  0.99447500  1.0
  Nb  Nb49  1  0.50000000  0.59674200  0.99447500  1.0
  Nb  Nb50  1  0.50000000  0.93007533  0.99447500  1.0
  Nb  Nb51  1  0.83333333  0.26340867  0.99447500  1.0
  Nb  Nb52  1  0.83333333  0.59674200  0.99447500  1.0
  Nb  Nb53  1  0.83333333  0.93007533  0.99447500  1.0
  Nb  Nb54  1  0.33333333  0.05636783  0.86869950  1.0
  Nb  Nb55  1  0.33333333  0.38970117  0.86869950  1.0
  Nb  Nb56  1  0.33333333  0.72303450  0.86869950  1.0
  Nb  Nb57  1  0.66666667  0.05636783  0.86869950  1.0
  Nb  Nb58  1  0.66666667  0.38970117  0.86869950  1.0
  Nb  Nb59  1  0.66666667  0.72303450  0.86869950  1.0
  Nb  Nb60  1  1.00000000  0.05636783  0.86869950  1.0
  Nb  Nb61  1  1.00000000  0.38970117  0.86869950  1.0
  Nb  Nb62  1  1.00000000  0.72303450  0.86869950  1.0
  Nb  Nb63  1  0.16666667  0.09803450  0.99369950  1.0
  Nb  Nb64  1  0.16666667  0.43136783  0.99369950  1.0
  Nb  Nb65  1  0.16666667  0.76470117  0.99369950  1.0
  Nb  Nb66  1  0.50000000  0.09803450  0.99369950  1.0
  Nb  Nb67  1  0.50000000  0.43136783  0.99369950  1.0
  Nb  Nb68  1  0.50000000  0.76470117  0.99369950  1.0
  Nb  Nb69  1  0.83333333  0.09803450  0.99369950  1.0
  Nb  Nb70  1  0.83333333  0.43136783  0.99369950  1.0
  Nb  Nb71  1  0.83333333  0.76470117  0.99369950  1.0
  Nb  Nb72  1  0.33333333  0.22872783  0.96528350  1.0
  Nb  Nb73  1  0.33333333  0.56206117  0.96528350  1.0
  Nb  Nb74  1  0.33333333  0.89539450  0.96528350  1.0
  Nb  Nb75  1  0.66666667  0.22872783  0.96528350  1.0
  Nb  Nb76  1  0.66666667  0.56206117  0.96528350  1.0
  Nb  Nb77  1  0.66666667  0.89539450  0.96528350  1.0
  Nb  Nb78  1  1.00000000  0.22872783  0.96528350  1.0
  Nb  Nb79  1  1.00000000  0.56206117  0.96528350  1.0
  Nb  Nb80  1  1.00000000  0.89539450  0.96528350  1.0
  Nb  Nb81  1  0.16666667  0.18706117  0.84028350  1.0
  Nb  Nb82  1  0.16666667  0.52039450  0.84028350  1.0
  Nb  Nb83  1  0.16666667  0.85372783  0.84028350  1.0
  Nb  Nb84  1  0.50000000  0.18706117  0.84028350  1.0
  Nb  Nb85  1  0.50000000  0.52039450  0.84028350  1.0
  Nb  Nb86  1  0.50000000  0.85372783  0.84028350  1.0
  Nb  Nb87  1  0.83333333  0.18706117  0.84028350  1.0
  Nb  Nb88  1  0.83333333  0.52039450  0.84028350  1.0
  Nb  Nb89  1  0.83333333  0.85372783  0.84028350  1.0
  Nb  Nb90  1  0.33333333  0.06411617  0.96405050  1.0
  Nb  Nb91  1  0.33333333  0.39744950  0.96405050  1.0
  Nb  Nb92  1  0.33333333  0.73078283  0.96405050  1.0
  Nb  Nb93  1  0.66666667  0.06411617  0.96405050  1.0
  Nb  Nb94  1  0.66666667  0.39744950  0.96405050  1.0
  Nb  Nb95  1  0.66666667  0.73078283  0.96405050  1.0
  Nb  Nb96  1  1.00000000  0.06411617  0.96405050  1.0
  Nb  Nb97  1  1.00000000  0.39744950  0.96405050  1.0
  Nb  Nb98  1  1.00000000  0.73078283  0.96405050  1.0
  Nb  Nb99  1  0.16666667  0.02244950  0.83905050  1.0
  Nb  Nb100  1  0.16666667  0.35578283  0.83905050  1.0
  Nb  Nb101  1  0.16666667  0.68911617  0.83905050  1.0
  Nb  Nb102  1  0.50000000  0.02244950  0.83905050  1.0
  Nb  Nb103  1  0.50000000  0.35578283  0.83905050  1.0
  Nb  Nb104  1  0.50000000  0.68911617  0.83905050  1.0
  Nb  Nb105  1  0.83333333  0.02244950  0.83905050  1.0
  Nb  Nb106  1  0.83333333  0.35578283  0.83905050  1.0
  Nb  Nb107  1  0.83333333  0.68911617  0.83905050  1.0
  Nb  Nb108  1  0.33333333  0.17328283  0.79855050  1.0
  Nb  Nb109  1  0.33333333  0.50661617  0.79855050  1.0
  Nb  Nb110  1  0.33333333  0.83994950  0.79855050  1.0
  Nb  Nb111  1  0.66666667  0.17328283  0.79855050  1.0
  Nb  Nb112  1  0.66666667  0.50661617  0.79855050  1.0
  Nb  Nb113  1  0.66666667  0.83994950  0.79855050  1.0
  Nb  Nb114  1  1.00000000  0.17328283  0.79855050  1.0
  Nb  Nb115  1  1.00000000  0.50661617  0.79855050  1.0
  Nb  Nb116  1  1.00000000  0.83994950  0.79855050  1.0
  Nb  Nb117  1  0.16666667  0.21494950  0.92355050  1.0
  Nb  Nb118  1  0.16666667  0.54828283  0.92355050  1.0
  Nb  Nb119  1  0.16666667  0.88161617  0.92355050  1.0
  Nb  Nb120  1  0.50000000  0.21494950  0.92355050  1.0
  Nb  Nb121  1  0.50000000  0.54828283  0.92355050  1.0
  Nb  Nb122  1  0.50000000  0.88161617  0.92355050  1.0
  Nb  Nb123  1  0.83333333  0.21494950  0.92355050  1.0
  Nb  Nb124  1  0.83333333  0.54828283  0.92355050  1.0
  Nb  Nb125  1  0.83333333  0.88161617  0.92355050  1.0
  Nb  Nb126  1  0.33333333  0.00867117  0.79731750  1.0
  Nb  Nb127  1  0.33333333  0.34200450  0.79731750  1.0
  Nb  Nb128  1  0.33333333  0.67533783  0.79731750  1.0
  Nb  Nb129  1  0.66666667  0.00867117  0.79731750  1.0
  Nb  Nb130  1  0.66666667  0.34200450  0.79731750  1.0
  Nb  Nb131  1  0.66666667  0.67533783  0.79731750  1.0
  Nb  Nb132  1  1.00000000  0.00867117  0.79731750  1.0
  Nb  Nb133  1  1.00000000  0.34200450  0.79731750  1.0
  Nb  Nb134  1  1.00000000  0.67533783  0.79731750  1.0
  Nb  Nb135  1  0.16666667  0.05033783  0.92231750  1.0
  Nb  Nb136  1  0.16666667  0.38367117  0.92231750  1.0
  Nb  Nb137  1  0.16666667  0.71700450  0.92231750  1.0
  Nb  Nb138  1  0.50000000  0.05033783  0.92231750  1.0
  Nb  Nb139  1  0.50000000  0.38367117  0.92231750  1.0
  Nb  Nb140  1  0.50000000  0.71700450  0.92231750  1.0
  Nb  Nb141  1  0.83333333  0.05033783  0.92231750  1.0
  Nb  Nb142  1  0.83333333  0.38367117  0.92231750  1.0
  Nb  Nb143  1  0.83333333  0.71700450  0.92231750  1.0
  Nb  Nb144  1  0.33333333  0.13787450  0.91979550  1.0
  Nb  Nb145  1  0.33333333  0.47120783  0.91979550  1.0
  Nb  Nb146  1  0.33333333  0.80454117  0.91979550  1.0
  Nb  Nb147  1  0.66666667  0.13787450  0.91979550  1.0
  Nb  Nb148  1  0.66666667  0.47120783  0.91979550  1.0
  Nb  Nb149  1  0.66666667  0.80454117  0.91979550  1.0
  Nb  Nb150  1  1.00000000  0.13787450  0.91979550  1.0
  Nb  Nb151  1  1.00000000  0.47120783  0.91979550  1.0
  Nb  Nb152  1  0.00000000  0.80454117  0.91979550  1.0
  Nb  Nb153  1  0.16666667  0.09620783  0.79479550  1.0
  Nb  Nb154  1  0.16666667  0.42954117  0.79479550  1.0
  Nb  Nb155  1  0.16666667  0.76287450  0.79479550  1.0
  Nb  Nb156  1  0.50000000  0.09620783  0.79479550  1.0
  Nb  Nb157  1  0.50000000  0.42954117  0.79479550  1.0
  Nb  Nb158  1  0.50000000  0.76287450  0.79479550  1.0
  Nb  Nb159  1  0.83333333  0.09620783  0.79479550  1.0
  Nb  Nb160  1  0.83333333  0.42954117  0.79479550  1.0
  Nb  Nb161  1  0.83333333  0.76287450  0.79479550  1.0
  Nb  Nb162  1  0.33333333  0.30484283  0.91961450  1.0
  Nb  Nb163  1  0.33333333  0.63817617  0.91961450  1.0
  Nb  Nb164  1  0.33333333  0.97150950  0.91961450  1.0
  Nb  Nb165  1  0.66666667  0.30484283  0.91961450  1.0
  Nb  Nb166  1  0.66666667  0.63817617  0.91961450  1.0
  Nb  Nb167  1  0.66666667  0.97150950  0.91961450  1.0
  Nb  Nb168  1  1.00000000  0.30484283  0.91961450  1.0
  Nb  Nb169  1  1.00000000  0.63817617  0.91961450  1.0
  Nb  Nb170  1  1.00000000  0.97150950  0.91961450  1.0
  Nb  Nb171  1  0.16666667  0.26317617  0.79461450  1.0
  Nb  Nb172  1  0.16666667  0.59650950  0.79461450  1.0
  Nb  Nb173  1  0.16666667  0.92984283  0.79461450  1.0
  Nb  Nb174  1  0.50000000  0.26317617  0.79461450  1.0
  Nb  Nb175  1  0.50000000  0.59650950  0.79461450  1.0
  Nb  Nb176  1  0.50000000  0.92984283  0.79461450  1.0
  Nb  Nb177  1  0.83333333  0.26317617  0.79461450  1.0
  Nb  Nb178  1  0.83333333  0.59650950  0.79461450  1.0
  Nb  Nb179  1  0.83333333  0.92984283  0.79461450  1.0
  Nb  Nb180  1  0.33333333  0.26588950  0.84298650  1.0
  Nb  Nb181  1  0.33333333  0.59922283  0.84298650  1.0
  Nb  Nb182  1  0.33333333  0.93255617  0.84298650  1.0
  Nb  Nb183  1  0.66666667  0.26588950  0.84298650  1.0
  Nb  Nb184  1  0.66666667  0.59922283  0.84298650  1.0
  Nb  Nb185  1  0.66666667  0.93255617  0.84298650  1.0
  Nb  Nb186  1  1.00000000  0.26588950  0.84298650  1.0
  Nb  Nb187  1  1.00000000  0.59922283  0.84298650  1.0
  Nb  Nb188  1  1.00000000  0.93255617  0.84298650  1.0
  Nb  Nb189  1  0.16666667  0.30755617  0.96798650  1.0
  Nb  Nb190  1  0.16666667  0.64088950  0.96798650  1.0
  Nb  Nb191  1  0.16666667  0.97422283  0.96798650  1.0
  Nb  Nb192  1  0.50000000  0.30755617  0.96798650  1.0
  Nb  Nb193  1  0.50000000  0.64088950  0.96798650  1.0
  Nb  Nb194  1  0.50000000  0.97422283  0.96798650  1.0
  Nb  Nb195  1  0.83333333  0.30755617  0.96798650  1.0
  Nb  Nb196  1  0.83333333  0.64088950  0.96798650  1.0
  Nb  Nb197  1  0.83333333  0.97422283  0.96798650  1.0
  Nb  Nb198  1  0.33333333  0.09952450  0.84280550  1.0
  Nb  Nb199  1  0.33333333  0.43285783  0.84280550  1.0
  Nb  Nb200  1  0.33333333  0.76619117  0.84280550  1.0
  Nb  Nb201  1  0.66666667  0.09952450  0.84280550  1.0
  Nb  Nb202  1  0.66666667  0.43285783  0.84280550  1.0
  Nb  Nb203  1  0.66666667  0.76619117  0.84280550  1.0
  Nb  Nb204  1  1.00000000  0.09952450  0.84280550  1.0
  Nb  Nb205  1  1.00000000  0.43285783  0.84280550  1.0
  Nb  Nb206  1  1.00000000  0.76619117  0.84280550  1.0
  Nb  Nb207  1  0.16666667  0.14119117  0.96780550  1.0
  Nb  Nb208  1  0.16666667  0.47452450  0.96780550  1.0
  Nb  Nb209  1  0.16666667  0.80785783  0.96780550  1.0
  Nb  Nb210  1  0.50000000  0.14119117  0.96780550  1.0
  Nb  Nb211  1  0.50000000  0.47452450  0.96780550  1.0
  Nb  Nb212  1  0.50000000  0.80785783  0.96780550  1.0
  Nb  Nb213  1  0.83333333  0.14119117  0.96780550  1.0
  Nb  Nb214  1  0.83333333  0.47452450  0.96780550  1.0
  Nb  Nb215  1  0.83333333  0.80785783  0.96780550  1.0
  Nb  Nb216  1  0.33333333  0.24369950  0.75630050  1.0
  Nb  Nb217  1  0.33333333  0.57703283  0.75630050  1.0
  Nb  Nb218  1  0.33333333  0.91036617  0.75630050  1.0
  Nb  Nb219  1  0.66666667  0.24369950  0.75630050  1.0
  Nb  Nb220  1  0.66666667  0.57703283  0.75630050  1.0
  Nb  Nb221  1  0.66666667  0.91036617  0.75630050  1.0
  Nb  Nb222  1  1.00000000  0.24369950  0.75630050  1.0
  Nb  Nb223  1  1.00000000  0.57703283  0.75630050  1.0
  Nb  Nb224  1  1.00000000  0.91036617  0.75630050  1.0
  Nb  Nb225  1  0.16666667  0.28536617  0.88130050  1.0
  Nb  Nb226  1  0.16666667  0.61869950  0.88130050  1.0
  Nb  Nb227  1  0.16666667  0.95203283  0.88130050  1.0
  Nb  Nb228  1  0.50000000  0.28536617  0.88130050  1.0
  Nb  Nb229  1  0.50000000  0.61869950  0.88130050  1.0
  Nb  Nb230  1  0.50000000  0.95203283  0.88130050  1.0
  Nb  Nb231  1  0.83333333  0.28536617  0.88130050  1.0
  Nb  Nb232  1  0.83333333  0.61869950  0.88130050  1.0
  Nb  Nb233  1  0.83333333  0.95203283  0.88130050  1.0
  Nb  Nb234  1  0.33333333  0.09769783  0.64390150  1.0
  Nb  Nb235  1  0.33333333  0.43103117  0.64390150  1.0
  Nb  Nb236  1  0.33333333  0.76436450  0.64390150  1.0
  Nb  Nb237  1  0.66666667  0.09769783  0.64390150  1.0
  Nb  Nb238  1  0.66666667  0.43103117  0.64390150  1.0
  Nb  Nb239  1  0.66666667  0.76436450  0.64390150  1.0
  Nb  Nb240  1  1.00000000  0.09769783  0.64390150  1.0
  Nb  Nb241  1  1.00000000  0.43103117  0.64390150  1.0
  Nb  Nb242  1  1.00000000  0.76436450  0.64390150  1.0
  Nb  Nb243  1  0.16666667  0.05603117  0.51890150  1.0
  Nb  Nb244  1  0.16666667  0.38936450  0.51890150  1.0
  Nb  Nb245  1  0.16666667  0.72269783  0.51890150  1.0
  Nb  Nb246  1  0.50000000  0.05603117  0.51890150  1.0
  Nb  Nb247  1  0.50000000  0.38936450  0.51890150  1.0
  Nb  Nb248  1  0.50000000  0.72269783  0.51890150  1.0
  Nb  Nb249  1  0.83333333  0.05603117  0.51890150  1.0
  Nb  Nb250  1  0.83333333  0.38936450  0.51890150  1.0
  Nb  Nb251  1  0.83333333  0.72269783  0.51890150  1.0
  Nb  Nb252  1  0.33333333  0.26565700  0.64312600  1.0
  Nb  Nb253  1  0.33333333  0.59899033  0.64312600  1.0
  Nb  Nb254  1  0.33333333  0.93232367  0.64312600  1.0
  Nb  Nb255  1  0.66666667  0.26565700  0.64312600  1.0
  Nb  Nb256  1  0.66666667  0.59899033  0.64312600  1.0
  Nb  Nb257  1  0.66666667  0.93232367  0.64312600  1.0
  Nb  Nb258  1  1.00000000  0.26565700  0.64312600  1.0
  Nb  Nb259  1  1.00000000  0.59899033  0.64312600  1.0
  Nb  Nb260  1  1.00000000  0.93232367  0.64312600  1.0
  Nb  Nb261  1  0.16666667  0.22399033  0.51812600  1.0
  Nb  Nb262  1  0.16666667  0.55732367  0.51812600  1.0
  Nb  Nb263  1  0.16666667  0.89065700  0.51812600  1.0
  Nb  Nb264  1  0.50000000  0.22399033  0.51812600  1.0
  Nb  Nb265  1  0.50000000  0.55732367  0.51812600  1.0
  Nb  Nb266  1  0.50000000  0.89065700  0.51812600  1.0
  Nb  Nb267  1  0.83333333  0.22399033  0.51812600  1.0
  Nb  Nb268  1  0.83333333  0.55732367  0.51812600  1.0
  Nb  Nb269  1  0.83333333  0.89065700  0.51812600  1.0
  Nb  Nb270  1  0.33333333  0.13840867  0.61947500  1.0
  Nb  Nb271  1  0.33333333  0.47174200  0.61947500  1.0
  Nb  Nb272  1  0.33333333  0.80507533  0.61947500  1.0
  Nb  Nb273  1  0.66666667  0.13840867  0.61947500  1.0
  Nb  Nb274  1  0.66666667  0.47174200  0.61947500  1.0
  Nb  Nb275  1  0.66666667  0.80507533  0.61947500  1.0
  Nb  Nb276  1  1.00000000  0.13840867  0.61947500  1.0
  Nb  Nb277  1  1.00000000  0.47174200  0.61947500  1.0
  Nb  Nb278  1  1.00000000  0.80507533  0.61947500  1.0
  Nb  Nb279  1  0.16666667  0.18007533  0.74447500  1.0
  Nb  Nb280  1  0.16666667  0.51340867  0.74447500  1.0
  Nb  Nb281  1  0.16666667  0.84674200  0.74447500  1.0
  Nb  Nb282  1  0.50000000  0.18007533  0.74447500  1.0
  Nb  Nb283  1  0.50000000  0.51340867  0.74447500  1.0
  Nb  Nb284  1  0.50000000  0.84674200  0.74447500  1.0
  Nb  Nb285  1  0.83333333  0.18007533  0.74447500  1.0
  Nb  Nb286  1  0.83333333  0.51340867  0.74447500  1.0
  Nb  Nb287  1  0.83333333  0.84674200  0.74447500  1.0
  Nb  Nb288  1  0.33333333  0.30636783  0.61869950  1.0
  Nb  Nb289  1  0.33333333  0.63970117  0.61869950  1.0
  Nb  Nb290  1  0.33333333  0.97303450  0.61869950  1.0
  Nb  Nb291  1  0.66666667  0.30636783  0.61869950  1.0
  Nb  Nb292  1  0.66666667  0.63970117  0.61869950  1.0
  Nb  Nb293  1  0.66666667  0.97303450  0.61869950  1.0
  Nb  Nb294  1  1.00000000  0.30636783  0.61869950  1.0
  Nb  Nb295  1  1.00000000  0.63970117  0.61869950  1.0
  Nb  Nb296  1  1.00000000  0.97303450  0.61869950  1.0
  Nb  Nb297  1  0.16666667  0.01470117  0.74369950  1.0
  Nb  Nb298  1  0.16666667  0.34803450  0.74369950  1.0
  Nb  Nb299  1  0.16666667  0.68136783  0.74369950  1.0
  Nb  Nb300  1  0.50000000  0.01470117  0.74369950  1.0
  Nb  Nb301  1  0.50000000  0.34803450  0.74369950  1.0
  Nb  Nb302  1  0.50000000  0.68136783  0.74369950  1.0
  Nb  Nb303  1  0.83333333  0.01470117  0.74369950  1.0
  Nb  Nb304  1  0.83333333  0.34803450  0.74369950  1.0
  Nb  Nb305  1  0.83333333  0.68136783  0.74369950  1.0
  Nb  Nb306  1  0.33333333  0.14539450  0.71528350  1.0
  Nb  Nb307  1  0.33333333  0.47872783  0.71528350  1.0
  Nb  Nb308  1  0.33333333  0.81206117  0.71528350  1.0
  Nb  Nb309  1  0.66666667  0.14539450  0.71528350  1.0
  Nb  Nb310  1  0.66666667  0.47872783  0.71528350  1.0
  Nb  Nb311  1  0.66666667  0.81206117  0.71528350  1.0
  Nb  Nb312  1  1.00000000  0.14539450  0.71528350  1.0
  Nb  Nb313  1  1.00000000  0.47872783  0.71528350  1.0
  Nb  Nb314  1  1.00000000  0.81206117  0.71528350  1.0
  Nb  Nb315  1  0.16666667  0.10372783  0.59028350  1.0
  Nb  Nb316  1  0.16666667  0.43706117  0.59028350  1.0
  Nb  Nb317  1  0.16666667  0.77039450  0.59028350  1.0
  Nb  Nb318  1  0.50000000  0.10372783  0.59028350  1.0
  Nb  Nb319  1  0.50000000  0.43706117  0.59028350  1.0
  Nb  Nb320  1  0.50000000  0.77039450  0.59028350  1.0
  Nb  Nb321  1  0.83333333  0.10372783  0.59028350  1.0
  Nb  Nb322  1  0.83333333  0.43706117  0.59028350  1.0
  Nb  Nb323  1  0.83333333  0.77039450  0.59028350  1.0
  Nb  Nb324  1  0.00000000  0.31411617  0.71405050  1.0
  Nb  Nb325  1  0.00000000  0.64744950  0.71405050  1.0
  Nb  Nb326  1  0.00000000  0.98078283  0.71405050  1.0
  Nb  Nb327  1  0.33333333  0.31411617  0.71405050  1.0
  Nb  Nb328  1  0.33333333  0.64744950  0.71405050  1.0
  Nb  Nb329  1  0.33333333  0.98078283  0.71405050  1.0
  Nb  Nb330  1  0.66666667  0.31411617  0.71405050  1.0
  Nb  Nb331  1  0.66666667  0.64744950  0.71405050  1.0
  Nb  Nb332  1  0.66666667  0.98078283  0.71405050  1.0
  Nb  Nb333  1  0.16666667  0.27244950  0.58905050  1.0
  Nb  Nb334  1  0.16666667  0.60578283  0.58905050  1.0
  Nb  Nb335  1  0.16666667  0.93911617  0.58905050  1.0
  Nb  Nb336  1  0.50000000  0.27244950  0.58905050  1.0
  Nb  Nb337  1  0.50000000  0.60578283  0.58905050  1.0
  Nb  Nb338  1  0.50000000  0.93911617  0.58905050  1.0
  Nb  Nb339  1  0.83333333  0.27244950  0.58905050  1.0
  Nb  Nb340  1  0.83333333  0.60578283  0.58905050  1.0
  Nb  Nb341  1  0.83333333  0.93911617  0.58905050  1.0
  Nb  Nb342  1  0.33333333  0.08994950  0.54855050  1.0
  Nb  Nb343  1  0.33333333  0.42328283  0.54855050  1.0
  Nb  Nb344  1  0.33333333  0.75661617  0.54855050  1.0
  Nb  Nb345  1  0.66666667  0.08994950  0.54855050  1.0
  Nb  Nb346  1  0.66666667  0.42328283  0.54855050  1.0
  Nb  Nb347  1  0.66666667  0.75661617  0.54855050  1.0
  Nb  Nb348  1  1.00000000  0.08994950  0.54855050  1.0
  Nb  Nb349  1  1.00000000  0.42328283  0.54855050  1.0
  Nb  Nb350  1  1.00000000  0.75661617  0.54855050  1.0
  Nb  Nb351  1  0.16666667  0.13161617  0.67355050  1.0
  Nb  Nb352  1  0.16666667  0.46494950  0.67355050  1.0
  Nb  Nb353  1  0.16666667  0.79828283  0.67355050  1.0
  Nb  Nb354  1  0.50000000  0.13161617  0.67355050  1.0
  Nb  Nb355  1  0.50000000  0.46494950  0.67355050  1.0
  Nb  Nb356  1  0.50000000  0.79828283  0.67355050  1.0
  Nb  Nb357  1  0.83333333  0.13161617  0.67355050  1.0
  Nb  Nb358  1  0.83333333  0.46494950  0.67355050  1.0
  Nb  Nb359  1  0.83333333  0.79828283  0.67355050  1.0
  Nb  Nb360  1  0.33333333  0.25867117  0.54731750  1.0
  Nb  Nb361  1  0.33333333  0.59200450  0.54731750  1.0
  Nb  Nb362  1  0.33333333  0.92533783  0.54731750  1.0
  Nb  Nb363  1  0.66666667  0.25867117  0.54731750  1.0
  Nb  Nb364  1  0.66666667  0.59200450  0.54731750  1.0
  Nb  Nb365  1  0.66666667  0.92533783  0.54731750  1.0
  Nb  Nb366  1  1.00000000  0.25867117  0.54731750  1.0
  Nb  Nb367  1  1.00000000  0.59200450  0.54731750  1.0
  Nb  Nb368  1  1.00000000  0.92533783  0.54731750  1.0
  Nb  Nb369  1  0.16666667  0.30033783  0.67231750  1.0
  Nb  Nb370  1  0.16666667  0.63367117  0.67231750  1.0
  Nb  Nb371  1  0.16666667  0.96700450  0.67231750  1.0
  Nb  Nb372  1  0.50000000  0.30033783  0.67231750  1.0
  Nb  Nb373  1  0.50000000  0.63367117  0.67231750  1.0
  Nb  Nb374  1  0.50000000  0.96700450  0.67231750  1.0
  Nb  Nb375  1  0.83333333  0.30033783  0.67231750  1.0
  Nb  Nb376  1  0.83333333  0.63367117  0.67231750  1.0
  Nb  Nb377  1  0.83333333  0.96700450  0.67231750  1.0
  Nb  Nb378  1  0.33333333  0.05454117  0.66979550  1.0
  Nb  Nb379  1  0.33333333  0.38787450  0.66979550  1.0
  Nb  Nb380  1  0.33333333  0.72120783  0.66979550  1.0
  Nb  Nb381  1  0.66666667  0.05454117  0.66979550  1.0
  Nb  Nb382  1  0.66666667  0.38787450  0.66979550  1.0
  Nb  Nb383  1  0.66666667  0.72120783  0.66979550  1.0
  Nb  Nb384  1  1.00000000  0.05454117  0.66979550  1.0
  Nb  Nb385  1  1.00000000  0.38787450  0.66979550  1.0
  Nb  Nb386  1  1.00000000  0.72120783  0.66979550  1.0
  Nb  Nb387  1  0.16666667  0.01287450  0.54479550  1.0
  Nb  Nb388  1  0.16666667  0.34620783  0.54479550  1.0
  Nb  Nb389  1  0.16666667  0.67954117  0.54479550  1.0
  Nb  Nb390  1  0.50000000  0.01287450  0.54479550  1.0
  Nb  Nb391  1  0.50000000  0.34620783  0.54479550  1.0
  Nb  Nb392  1  0.50000000  0.67954117  0.54479550  1.0
  Nb  Nb393  1  0.83333333  0.01287450  0.54479550  1.0
  Nb  Nb394  1  0.83333333  0.34620783  0.54479550  1.0
  Nb  Nb395  1  0.83333333  0.67954117  0.54479550  1.0
  Nb  Nb396  1  0.33333333  0.22150950  0.66961450  1.0
  Nb  Nb397  1  0.33333333  0.55484283  0.66961450  1.0
  Nb  Nb398  1  0.33333333  0.88817617  0.66961450  1.0
  Nb  Nb399  1  0.66666667  0.22150950  0.66961450  1.0
  Nb  Nb400  1  0.66666667  0.55484283  0.66961450  1.0
  Nb  Nb401  1  0.66666667  0.88817617  0.66961450  1.0
  Nb  Nb402  1  1.00000000  0.22150950  0.66961450  1.0
  Nb  Nb403  1  1.00000000  0.55484283  0.66961450  1.0
  Nb  Nb404  1  1.00000000  0.88817617  0.66961450  1.0
  Nb  Nb405  1  0.16666667  0.17984283  0.54461450  1.0
  Nb  Nb406  1  0.16666667  0.51317617  0.54461450  1.0
  Nb  Nb407  1  0.16666667  0.84650950  0.54461450  1.0
  Nb  Nb408  1  0.50000000  0.17984283  0.54461450  1.0
  Nb  Nb409  1  0.50000000  0.51317617  0.54461450  1.0
  Nb  Nb410  1  0.50000000  0.84650950  0.54461450  1.0
  Nb  Nb411  1  0.83333333  0.17984283  0.54461450  1.0
  Nb  Nb412  1  0.83333333  0.51317617  0.54461450  1.0
  Nb  Nb413  1  0.83333333  0.84650950  0.54461450  1.0
  Nb  Nb414  1  0.33333333  0.18255617  0.59298650  1.0
  Nb  Nb415  1  0.33333333  0.51588950  0.59298650  1.0
  Nb  Nb416  1  0.33333333  0.84922283  0.59298650  1.0
  Nb  Nb417  1  0.66666667  0.18255617  0.59298650  1.0
  Nb  Nb418  1  0.66666667  0.51588950  0.59298650  1.0
  Nb  Nb419  1  0.66666667  0.84922283  0.59298650  1.0
  Nb  Nb420  1  1.00000000  0.18255617  0.59298650  1.0
  Nb  Nb421  1  1.00000000  0.51588950  0.59298650  1.0
  Nb  Nb422  1  1.00000000  0.84922283  0.59298650  1.0
  Nb  Nb423  1  0.16666667  0.22422283  0.71798650  1.0
  Nb  Nb424  1  0.16666667  0.55755617  0.71798650  1.0
  Nb  Nb425  1  0.16666667  0.89088950  0.71798650  1.0
  Nb  Nb426  1  0.50000000  0.22422283  0.71798650  1.0
  Nb  Nb427  1  0.50000000  0.55755617  0.71798650  1.0
  Nb  Nb428  1  0.50000000  0.89088950  0.71798650  1.0
  Nb  Nb429  1  0.83333333  0.22422283  0.71798650  1.0
  Nb  Nb430  1  0.83333333  0.55755617  0.71798650  1.0
  Nb  Nb431  1  0.83333333  0.89088950  0.71798650  1.0
  Nb  Nb432  1  0.33333333  0.01619117  0.59280550  1.0
  Nb  Nb433  1  0.33333333  0.34952450  0.59280550  1.0
  Nb  Nb434  1  0.33333333  0.68285783  0.59280550  1.0
  Nb  Nb435  1  0.66666667  0.01619117  0.59280550  1.0
  Nb  Nb436  1  0.66666667  0.34952450  0.59280550  1.0
  Nb  Nb437  1  0.66666667  0.68285783  0.59280550  1.0
  Nb  Nb438  1  1.00000000  0.01619117  0.59280550  1.0
  Nb  Nb439  1  1.00000000  0.34952450  0.59280550  1.0
  Nb  Nb440  1  1.00000000  0.68285783  0.59280550  1.0
  Nb  Nb441  1  0.16666667  0.05785783  0.71780550  1.0
  Nb  Nb442  1  0.16666667  0.39119117  0.71780550  1.0
  Nb  Nb443  1  0.16666667  0.72452450  0.71780550  1.0
  Nb  Nb444  1  0.50000000  0.05785783  0.71780550  1.0
  Nb  Nb445  1  0.50000000  0.39119117  0.71780550  1.0
  Nb  Nb446  1  0.50000000  0.72452450  0.71780550  1.0
  Nb  Nb447  1  0.83333333  0.05785783  0.71780550  1.0
  Nb  Nb448  1  0.83333333  0.39119117  0.71780550  1.0
  Nb  Nb449  1  0.83333333  0.72452450  0.71780550  1.0
  Nb  Nb450  1  0.33333333  0.16036617  0.50630050  1.0
  Nb  Nb451  1  0.33333333  0.49369950  0.50630050  1.0
  Nb  Nb452  1  0.33333333  0.82703283  0.50630050  1.0
  Nb  Nb453  1  0.66666667  0.16036617  0.50630050  1.0
  Nb  Nb454  1  0.66666667  0.49369950  0.50630050  1.0
  Nb  Nb455  1  0.66666667  0.82703283  0.50630050  1.0
  Nb  Nb456  1  1.00000000  0.16036617  0.50630050  1.0
  Nb  Nb457  1  1.00000000  0.49369950  0.50630050  1.0
  Nb  Nb458  1  1.00000000  0.82703283  0.50630050  1.0
  Nb  Nb459  1  0.16666667  0.20203283  0.63130050  1.0
  Nb  Nb460  1  0.16666667  0.53536617  0.63130050  1.0
  Nb  Nb461  1  0.16666667  0.86869950  0.63130050  1.0
  Nb  Nb462  1  0.50000000  0.20203283  0.63130050  1.0
  Nb  Nb463  1  0.50000000  0.53536617  0.63130050  1.0
  Nb  Nb464  1  0.50000000  0.86869950  0.63130050  1.0
  Nb  Nb465  1  0.83333333  0.20203283  0.63130050  1.0
  Nb  Nb466  1  0.83333333  0.53536617  0.63130050  1.0
  Nb  Nb467  1  0.83333333  0.86869950  0.63130050  1.0
  Ni  Ni468  1  0.08232667  0.25925117  0.92227150  1.0
  Ni  Ni469  1  0.08232667  0.59258450  0.92227150  1.0
  Ni  Ni470  1  0.08232667  0.92591783  0.92227150  1.0
  Ni  Ni471  1  0.41566000  0.25925117  0.92227150  1.0
  Ni  Ni472  1  0.41566000  0.59258450  0.92227150  1.0
  Ni  Ni473  1  0.41566000  0.92591783  0.92227150  1.0
  Ni  Ni474  1  0.74899333  0.25925117  0.92227150  1.0
  Ni  Ni475  1  0.74899333  0.59258450  0.92227150  1.0
  Ni  Ni476  1  0.74899333  0.92591783  0.92227150  1.0
  Ni  Ni477  1  0.24899333  0.21758450  0.79727150  1.0
  Ni  Ni478  1  0.24899333  0.55091783  0.79727150  1.0
  Ni  Ni479  1  0.24899333  0.88425117  0.79727150  1.0
  Ni  Ni480  1  0.58232667  0.21758450  0.79727150  1.0
  Ni  Ni481  1  0.58232667  0.55091783  0.79727150  1.0
  Ni  Ni482  1  0.58232667  0.88425117  0.79727150  1.0
  Ni  Ni483  1  0.91566000  0.21758450  0.79727150  1.0
  Ni  Ni484  1  0.91566000  0.55091783  0.79727150  1.0
  Ni  Ni485  1  0.91566000  0.88425117  0.79727150  1.0
  Ni  Ni486  1  0.24992083  0.05284971  0.79583412  1.0
  Ni  Ni487  1  0.24992083  0.38618304  0.79583413  1.0
  Ni  Ni488  1  0.24992083  0.71951637  0.79583412  1.0
  Ni  Ni489  1  0.58325417  0.05284971  0.79583412  1.0
  Ni  Ni490  1  0.58325417  0.38618304  0.79583412  1.0
  Ni  Ni491  1  0.58325417  0.71951637  0.79583413  1.0
  Ni  Ni492  1  0.91658750  0.05284971  0.79583413  1.0
  Ni  Ni493  1  0.91658750  0.38618304  0.79583413  1.0
  Ni  Ni494  1  0.91658750  0.71951637  0.79583413  1.0
  Ni  Ni495  1  0.08325417  0.09451637  0.92083412  1.0
  Ni  Ni496  1  0.08325417  0.42784971  0.92083413  1.0
  Ni  Ni497  1  0.08325417  0.76118304  0.92083412  1.0
  Ni  Ni498  1  0.41658750  0.09451637  0.92083412  1.0
  Ni  Ni499  1  0.41658750  0.42784971  0.92083412  1.0
  Ni  Ni500  1  0.41658750  0.76118304  0.92083412  1.0
  Ni  Ni501  1  0.74992083  0.09451637  0.92083412  1.0
  Ni  Ni502  1  0.74992083  0.42784971  0.92083412  1.0
  Ni  Ni503  1  0.74992083  0.76118304  0.92083412  1.0
  Ni  Ni504  1  0.25100667  0.25925117  0.92227150  1.0
  Ni  Ni505  1  0.25100667  0.59258450  0.92227150  1.0
  Ni  Ni506  1  0.25100667  0.92591783  0.92227150  1.0
  Ni  Ni507  1  0.58434000  0.25925117  0.92227150  1.0
  Ni  Ni508  1  0.58434000  0.59258450  0.92227150  1.0
  Ni  Ni509  1  0.58434000  0.92591783  0.92227150  1.0
  Ni  Ni510  1  0.91767333  0.25925117  0.92227150  1.0
  Ni  Ni511  1  0.91767333  0.59258450  0.92227150  1.0
  Ni  Ni512  1  0.91767333  0.92591783  0.92227150  1.0
  Ni  Ni513  1  0.08434000  0.21758450  0.79727150  1.0
  Ni  Ni514  1  0.08434000  0.55091783  0.79727150  1.0
  Ni  Ni515  1  0.08434000  0.88425117  0.79727150  1.0
  Ni  Ni516  1  0.41767333  0.21758450  0.79727150  1.0
  Ni  Ni517  1  0.41767333  0.55091783  0.79727150  1.0
  Ni  Ni518  1  0.41767333  0.88425117  0.79727150  1.0
  Ni  Ni519  1  0.75100667  0.21758450  0.79727150  1.0
  Ni  Ni520  1  0.75100667  0.55091783  0.79727150  1.0
  Ni  Ni521  1  0.75100667  0.88425117  0.79727150  1.0
  Ni  Ni522  1  0.08341250  0.05284971  0.79583413  1.0
  Ni  Ni523  1  0.08341250  0.38618304  0.79583413  1.0
  Ni  Ni524  1  0.08341250  0.71951637  0.79583413  1.0
  Ni  Ni525  1  0.41674583  0.05284971  0.79583413  1.0
  Ni  Ni526  1  0.41674583  0.38618304  0.79583413  1.0
  Ni  Ni527  1  0.41674583  0.71951637  0.79583413  1.0
  Ni  Ni528  1  0.75007917  0.05284971  0.79583413  1.0
  Ni  Ni529  1  0.75007917  0.38618304  0.79583413  1.0
  Ni  Ni530  1  0.75007917  0.71951637  0.79583412  1.0
  Ni  Ni531  1  0.25007917  0.09451638  0.92083412  1.0
  Ni  Ni532  1  0.25007917  0.42784971  0.92083413  1.0
  Ni  Ni533  1  0.25007917  0.76118304  0.92083412  1.0
  Ni  Ni534  1  0.58341250  0.09451638  0.92083412  1.0
  Ni  Ni535  1  0.58341250  0.42784971  0.92083412  1.0
  Ni  Ni536  1  0.58341250  0.76118304  0.92083413  1.0
  Ni  Ni537  1  0.91674583  0.09451638  0.92083412  1.0
  Ni  Ni538  1  0.91674583  0.42784971  0.92083412  1.0
  Ni  Ni539  1  0.91674583  0.76118304  0.92083413  1.0
  Ni  Ni540  1  0.33333333  0.27983283  0.98401650  1.0
  Ni  Ni541  1  0.33333333  0.61316617  0.98401650  1.0
  Ni  Ni542  1  0.33333333  0.94649950  0.98401650  1.0
  Ni  Ni543  1  0.66666667  0.27983283  0.98401650  1.0
  Ni  Ni544  1  0.66666667  0.61316617  0.98401650  1.0
  Ni  Ni545  1  0.66666667  0.94649950  0.98401650  1.0
  Ni  Ni546  1  1.00000000  0.27983283  0.98401650  1.0
  Ni  Ni547  1  1.00000000  0.61316617  0.98401650  1.0
  Ni  Ni548  1  1.00000000  0.94649950  0.98401650  1.0
  Ni  Ni549  1  0.16666667  0.23816617  0.85901650  1.0
  Ni  Ni550  1  0.16666667  0.57149950  0.85901650  1.0
  Ni  Ni551  1  0.16666667  0.90483283  0.85901650  1.0
  Ni  Ni552  1  0.50000000  0.23816617  0.85901650  1.0
  Ni  Ni553  1  0.50000000  0.57149950  0.85901650  1.0
  Ni  Ni554  1  0.50000000  0.90483283  0.85901650  1.0
  Ni  Ni555  1  0.83333333  0.23816617  0.85901650  1.0
  Ni  Ni556  1  0.83333333  0.57149950  0.85901650  1.0
  Ni  Ni557  1  0.83333333  0.90483283  0.85901650  1.0
  Ni  Ni558  1  0.33333333  0.11532992  0.98327475  1.0
  Ni  Ni559  1  0.33333333  0.44866325  0.98327475  1.0
  Ni  Ni560  1  0.33333333  0.78199658  0.98327475  1.0
  Ni  Ni561  1  0.66666667  0.11532992  0.98327475  1.0
  Ni  Ni562  1  0.66666667  0.44866325  0.98327475  1.0
  Ni  Ni563  1  0.66666667  0.78199658  0.98327475  1.0
  Ni  Ni564  1  1.00000000  0.11532992  0.98327475  1.0
  Ni  Ni565  1  1.00000000  0.44866325  0.98327475  1.0
  Ni  Ni566  1  0.00000000  0.78199658  0.98327475  1.0
  Ni  Ni567  1  0.16666667  0.07366325  0.85827475  1.0
  Ni  Ni568  1  0.16666667  0.40699658  0.85827475  1.0
  Ni  Ni569  1  0.16666667  0.74032992  0.85827475  1.0
  Ni  Ni570  1  0.50000000  0.07366325  0.85827475  1.0
  Ni  Ni571  1  0.50000000  0.40699658  0.85827475  1.0
  Ni  Ni572  1  0.50000000  0.74032992  0.85827475  1.0
  Ni  Ni573  1  0.83333333  0.07366325  0.85827475  1.0
  Ni  Ni574  1  0.83333333  0.40699658  0.85827475  1.0
  Ni  Ni575  1  0.83333333  0.74032992  0.85827475  1.0
  Ni  Ni576  1  0.08341250  0.18454929  0.96676688  1.0
  Ni  Ni577  1  0.08341250  0.51788262  0.96676688  1.0
  Ni  Ni578  1  0.08341250  0.85121596  0.96676688  1.0
  Ni  Ni579  1  0.41674583  0.18454929  0.96676688  1.0
  Ni  Ni580  1  0.41674583  0.51788262  0.96676688  1.0
  Ni  Ni581  1  0.41674583  0.85121596  0.96676688  1.0
  Ni  Ni582  1  0.75007917  0.18454929  0.96676688  1.0
  Ni  Ni583  1  0.75007917  0.51788262  0.96676688  1.0
  Ni  Ni584  1  0.75007917  0.85121596  0.96676688  1.0
  Ni  Ni585  1  0.25007917  0.14288262  0.84176688  1.0
  Ni  Ni586  1  0.25007917  0.47621596  0.84176688  1.0
  Ni  Ni587  1  0.25007917  0.80954929  0.84176688  1.0
  Ni  Ni588  1  0.58341250  0.14288262  0.84176688  1.0
  Ni  Ni589  1  0.58341250  0.47621596  0.84176688  1.0
  Ni  Ni590  1  0.58341250  0.80954929  0.84176688  1.0
  Ni  Ni591  1  0.91674583  0.14288262  0.84176688  1.0
  Ni  Ni592  1  0.91674583  0.47621596  0.84176688  1.0
  Ni  Ni593  1  0.91674583  0.80954929  0.84176688  1.0
  Ni  Ni594  1  0.25100667  0.31148117  0.84032950  1.0
  Ni  Ni595  1  0.25100667  0.64481450  0.84032950  1.0
  Ni  Ni596  1  0.25100667  0.97814783  0.84032950  1.0
  Ni  Ni597  1  0.58434000  0.31148117  0.84032950  1.0
  Ni  Ni598  1  0.58434000  0.64481450  0.84032950  1.0
  Ni  Ni599  1  0.58434000  0.97814783  0.84032950  1.0
  Ni  Ni600  1  0.91767333  0.31148117  0.84032950  1.0
  Ni  Ni601  1  0.91767333  0.64481450  0.84032950  1.0
  Ni  Ni602  1  0.91767333  0.97814783  0.84032950  1.0
  Ni  Ni603  1  0.08434000  0.01981450  0.96532950  1.0
  Ni  Ni604  1  0.08434000  0.35314783  0.96532950  1.0
  Ni  Ni605  1  0.08434000  0.68648117  0.96532950  1.0
  Ni  Ni606  1  0.41767333  0.01981450  0.96532950  1.0
  Ni  Ni607  1  0.41767333  0.35314783  0.96532950  1.0
  Ni  Ni608  1  0.41767333  0.68648117  0.96532950  1.0
  Ni  Ni609  1  0.75100667  0.01981450  0.96532950  1.0
  Ni  Ni610  1  0.75100667  0.35314783  0.96532950  1.0
  Ni  Ni611  1  0.75100667  0.68648117  0.96532950  1.0
  Ni  Ni612  1  0.24992083  0.18454929  0.96676688  1.0
  Ni  Ni613  1  0.24992083  0.51788262  0.96676688  1.0
  Ni  Ni614  1  0.24992083  0.85121596  0.96676688  1.0
  Ni  Ni615  1  0.58325417  0.18454929  0.96676688  1.0
  Ni  Ni616  1  0.58325417  0.51788262  0.96676688  1.0
  Ni  Ni617  1  0.58325417  0.85121596  0.96676688  1.0
  Ni  Ni618  1  0.91658750  0.18454929  0.96676688  1.0
  Ni  Ni619  1  0.91658750  0.51788262  0.96676688  1.0
  Ni  Ni620  1  0.91658750  0.85121596  0.96676688  1.0
  Ni  Ni621  1  0.08325417  0.14288262  0.84176688  1.0
  Ni  Ni622  1  0.08325417  0.47621596  0.84176687  1.0
  Ni  Ni623  1  0.08325417  0.80954929  0.84176688  1.0
  Ni  Ni624  1  0.41658750  0.14288262  0.84176688  1.0
  Ni  Ni625  1  0.41658750  0.47621596  0.84176687  1.0
  Ni  Ni626  1  0.41658750  0.80954929  0.84176688  1.0
  Ni  Ni627  1  0.74992083  0.14288262  0.84176688  1.0
  Ni  Ni628  1  0.74992083  0.47621596  0.84176687  1.0
  Ni  Ni629  1  0.74992083  0.80954929  0.84176688  1.0
  Ni  Ni630  1  0.08232667  0.31148117  0.84032950  1.0
  Ni  Ni631  1  0.08232667  0.64481450  0.84032950  1.0
  Ni  Ni632  1  0.08232667  0.97814783  0.84032950  1.0
  Ni  Ni633  1  0.41566000  0.31148117  0.84032950  1.0
  Ni  Ni634  1  0.41566000  0.64481450  0.84032950  1.0
  Ni  Ni635  1  0.41566000  0.97814783  0.84032950  1.0
  Ni  Ni636  1  0.74899333  0.31148117  0.84032950  1.0
  Ni  Ni637  1  0.74899333  0.64481450  0.84032950  1.0
  Ni  Ni638  1  0.74899333  0.97814783  0.84032950  1.0
  Ni  Ni639  1  0.24899333  0.01981450  0.96532950  1.0
  Ni  Ni640  1  0.24899333  0.35314783  0.96532950  1.0
  Ni  Ni641  1  0.24899333  0.68648117  0.96532950  1.0
  Ni  Ni642  1  0.58232667  0.01981450  0.96532950  1.0
  Ni  Ni643  1  0.58232667  0.35314783  0.96532950  1.0
  Ni  Ni644  1  0.58232667  0.68648117  0.96532950  1.0
  Ni  Ni645  1  0.91566000  0.01981450  0.96532950  1.0
  Ni  Ni646  1  0.91566000  0.35314783  0.96532950  1.0
  Ni  Ni647  1  0.91566000  0.68648117  0.96532950  1.0
  Ni  Ni648  1  0.00000000  0.12206908  0.77932625  1.0
  Ni  Ni649  1  0.00000000  0.45540242  0.77932625  1.0
  Ni  Ni650  1  0.00000000  0.78873575  0.77932625  1.0
  Ni  Ni651  1  0.33333333  0.12206908  0.77932625  1.0
  Ni  Ni652  1  0.33333333  0.45540242  0.77932625  1.0
  Ni  Ni653  1  0.33333333  0.78873575  0.77932625  1.0
  Ni  Ni654  1  0.66666667  0.12206908  0.77932625  1.0
  Ni  Ni655  1  0.66666667  0.45540242  0.77932625  1.0
  Ni  Ni656  1  0.66666667  0.78873575  0.77932625  1.0
  Ni  Ni657  1  0.16666667  0.16373575  0.90432625  1.0
  Ni  Ni658  1  0.16666667  0.49706908  0.90432625  1.0
  Ni  Ni659  1  0.16666667  0.83040242  0.90432625  1.0
  Ni  Ni660  1  0.50000000  0.16373575  0.90432625  1.0
  Ni  Ni661  1  0.50000000  0.49706908  0.90432625  1.0
  Ni  Ni662  1  0.50000000  0.83040242  0.90432625  1.0
  Ni  Ni663  1  0.83333333  0.16373575  0.90432625  1.0
  Ni  Ni664  1  0.83333333  0.49706908  0.90432625  1.0
  Ni  Ni665  1  0.83333333  0.83040242  0.90432625  1.0
  Ni  Ni666  1  0.33333333  0.29089950  0.77858450  1.0
  Ni  Ni667  1  0.33333333  0.62423283  0.77858450  1.0
  Ni  Ni668  1  0.33333333  0.95756617  0.77858450  1.0
  Ni  Ni669  1  0.66666667  0.29089950  0.77858450  1.0
  Ni  Ni670  1  0.66666667  0.62423283  0.77858450  1.0
  Ni  Ni671  1  0.66666667  0.95756617  0.77858450  1.0
  Ni  Ni672  1  1.00000000  0.29089950  0.77858450  1.0
  Ni  Ni673  1  1.00000000  0.62423283  0.77858450  1.0
  Ni  Ni674  1  1.00000000  0.95756617  0.77858450  1.0
  Ni  Ni675  1  0.16666667  0.33256617  0.90358450  1.0
  Ni  Ni676  1  0.16666667  0.66589950  0.90358450  1.0
  Ni  Ni677  1  0.16666667  0.99923283  0.90358450  1.0
  Ni  Ni678  1  0.50000000  0.33256617  0.90358450  1.0
  Ni  Ni679  1  0.50000000  0.66589950  0.90358450  1.0
  Ni  Ni680  1  0.50000000  0.99923283  0.90358450  1.0
  Ni  Ni681  1  0.83333333  0.33256617  0.90358450  1.0
  Ni  Ni682  1  0.83333333  0.66589950  0.90358450  1.0
  Ni  Ni683  1  0.83333333  0.99923283  0.90358450  1.0
  Ni  Ni684  1  0.33333333  0.07703283  0.75630050  1.0
  Ni  Ni685  1  0.33333333  0.41036617  0.75630050  1.0
  Ni  Ni686  1  0.33333333  0.74369950  0.75630050  1.0
  Ni  Ni687  1  0.66666667  0.07703283  0.75630050  1.0
  Ni  Ni688  1  0.66666667  0.41036617  0.75630050  1.0
  Ni  Ni689  1  0.66666667  0.74369950  0.75630050  1.0
  Ni  Ni690  1  1.00000000  0.07703283  0.75630050  1.0
  Ni  Ni691  1  1.00000000  0.41036617  0.75630050  1.0
  Ni  Ni692  1  1.00000000  0.74369950  0.75630050  1.0
  Ni  Ni693  1  0.16666667  0.11869950  0.88130050  1.0
  Ni  Ni694  1  0.16666667  0.45203283  0.88130050  1.0
  Ni  Ni695  1  0.16666667  0.78536617  0.88130050  1.0
  Ni  Ni696  1  0.50000000  0.11869950  0.88130050  1.0
  Ni  Ni697  1  0.50000000  0.45203283  0.88130050  1.0
  Ni  Ni698  1  0.50000000  0.78536617  0.88130050  1.0
  Ni  Ni699  1  0.83333333  0.11869950  0.88130050  1.0
  Ni  Ni700  1  0.83333333  0.45203283  0.88130050  1.0
  Ni  Ni701  1  0.83333333  0.78536617  0.88130050  1.0
  Ni  Ni702  1  0.08232667  0.17591783  0.67227150  1.0
  Ni  Ni703  1  0.08232667  0.50925117  0.67227150  1.0
  Ni  Ni704  1  0.08232667  0.84258450  0.67227150  1.0
  Ni  Ni705  1  0.41566000  0.17591783  0.67227150  1.0
  Ni  Ni706  1  0.41566000  0.50925117  0.67227150  1.0
  Ni  Ni707  1  0.41566000  0.84258450  0.67227150  1.0
  Ni  Ni708  1  0.74899333  0.17591783  0.67227150  1.0
  Ni  Ni709  1  0.74899333  0.50925117  0.67227150  1.0
  Ni  Ni710  1  0.74899333  0.84258450  0.67227150  1.0
  Ni  Ni711  1  0.24899333  0.13425117  0.54727150  1.0
  Ni  Ni712  1  0.24899333  0.46758450  0.54727150  1.0
  Ni  Ni713  1  0.24899333  0.80091783  0.54727150  1.0
  Ni  Ni714  1  0.58232667  0.13425117  0.54727150  1.0
  Ni  Ni715  1  0.58232667  0.46758450  0.54727150  1.0
  Ni  Ni716  1  0.58232667  0.80091783  0.54727150  1.0
  Ni  Ni717  1  0.91566000  0.13425117  0.54727150  1.0
  Ni  Ni718  1  0.91566000  0.46758450  0.54727150  1.0
  Ni  Ni719  1  0.91566000  0.80091783  0.54727150  1.0
  Ni  Ni720  1  0.24992083  0.30284971  0.54583413  1.0
  Ni  Ni721  1  0.24992083  0.63618304  0.54583413  1.0
  Ni  Ni722  1  0.24992083  0.96951637  0.54583413  1.0
  Ni  Ni723  1  0.58325417  0.30284971  0.54583413  1.0
  Ni  Ni724  1  0.58325417  0.63618304  0.54583413  1.0
  Ni  Ni725  1  0.58325417  0.96951637  0.54583413  1.0
  Ni  Ni726  1  0.91658750  0.30284971  0.54583413  1.0
  Ni  Ni727  1  0.91658750  0.63618304  0.54583413  1.0
  Ni  Ni728  1  0.91658750  0.96951637  0.54583413  1.0
  Ni  Ni729  1  0.08325417  0.01118304  0.67083412  1.0
  Ni  Ni730  1  0.08325417  0.34451637  0.67083412  1.0
  Ni  Ni731  1  0.08325417  0.67784971  0.67083412  1.0
  Ni  Ni732  1  0.41658750  0.01118304  0.67083412  1.0
  Ni  Ni733  1  0.41658750  0.34451637  0.67083412  1.0
  Ni  Ni734  1  0.41658750  0.67784971  0.67083413  1.0
  Ni  Ni735  1  0.74992083  0.01118304  0.67083413  1.0
  Ni  Ni736  1  0.74992083  0.34451637  0.67083412  1.0
  Ni  Ni737  1  0.74992083  0.67784971  0.67083412  1.0
  Ni  Ni738  1  0.25100667  0.17591783  0.67227150  1.0
  Ni  Ni739  1  0.25100667  0.50925117  0.67227150  1.0
  Ni  Ni740  1  0.25100667  0.84258450  0.67227150  1.0
  Ni  Ni741  1  0.58434000  0.17591783  0.67227150  1.0
  Ni  Ni742  1  0.58434000  0.50925117  0.67227150  1.0
  Ni  Ni743  1  0.58434000  0.84258450  0.67227150  1.0
  Ni  Ni744  1  0.91767333  0.17591783  0.67227150  1.0
  Ni  Ni745  1  0.91767333  0.50925117  0.67227150  1.0
  Ni  Ni746  1  0.91767333  0.84258450  0.67227150  1.0
  Ni  Ni747  1  0.08434000  0.13425117  0.54727150  1.0
  Ni  Ni748  1  0.08434000  0.46758450  0.54727150  1.0
  Ni  Ni749  1  0.08434000  0.80091783  0.54727150  1.0
  Ni  Ni750  1  0.41767333  0.13425117  0.54727150  1.0
  Ni  Ni751  1  0.41767333  0.46758450  0.54727150  1.0
  Ni  Ni752  1  0.41767333  0.80091783  0.54727150  1.0
  Ni  Ni753  1  0.75100667  0.13425117  0.54727150  1.0
  Ni  Ni754  1  0.75100667  0.46758450  0.54727150  1.0
  Ni  Ni755  1  0.75100667  0.80091783  0.54727150  1.0
  Ni  Ni756  1  0.08341250  0.30284971  0.54583412  1.0
  Ni  Ni757  1  0.08341250  0.63618304  0.54583412  1.0
  Ni  Ni758  1  0.08341250  0.96951637  0.54583412  1.0
  Ni  Ni759  1  0.41674583  0.30284971  0.54583412  1.0
  Ni  Ni760  1  0.41674583  0.63618304  0.54583412  1.0
  Ni  Ni761  1  0.41674583  0.96951637  0.54583413  1.0
  Ni  Ni762  1  0.75007917  0.30284971  0.54583412  1.0
  Ni  Ni763  1  0.75007917  0.63618304  0.54583412  1.0
  Ni  Ni764  1  0.75007917  0.96951637  0.54583412  1.0
  Ni  Ni765  1  0.25007917  0.01118304  0.67083412  1.0
  Ni  Ni766  1  0.25007917  0.34451637  0.67083412  1.0
  Ni  Ni767  1  0.25007917  0.67784971  0.67083412  1.0
  Ni  Ni768  1  0.58341250  0.01118304  0.67083412  1.0
  Ni  Ni769  1  0.58341250  0.34451637  0.67083412  1.0
  Ni  Ni770  1  0.58341250  0.67784971  0.67083413  1.0
  Ni  Ni771  1  0.91674583  0.01118304  0.67083412  1.0
  Ni  Ni772  1  0.91674583  0.34451637  0.67083412  1.0
  Ni  Ni773  1  0.91674583  0.67784971  0.67083412  1.0
  Ni  Ni774  1  0.33333333  0.19649950  0.73401650  1.0
  Ni  Ni775  1  0.33333333  0.52983283  0.73401650  1.0
  Ni  Ni776  1  0.33333333  0.86316617  0.73401650  1.0
  Ni  Ni777  1  0.66666667  0.19649950  0.73401650  1.0
  Ni  Ni778  1  0.66666667  0.52983283  0.73401650  1.0
  Ni  Ni779  1  0.66666667  0.86316617  0.73401650  1.0
  Ni  Ni780  1  0.00000000  0.19649950  0.73401650  1.0
  Ni  Ni781  1  1.00000000  0.52983283  0.73401650  1.0
  Ni  Ni782  1  1.00000000  0.86316617  0.73401650  1.0
  Ni  Ni783  1  0.16666667  0.15483283  0.60901650  1.0
  Ni  Ni784  1  0.16666667  0.48816617  0.60901650  1.0
  Ni  Ni785  1  0.16666667  0.82149950  0.60901650  1.0
  Ni  Ni786  1  0.50000000  0.15483283  0.60901650  1.0
  Ni  Ni787  1  0.50000000  0.48816617  0.60901650  1.0
  Ni  Ni788  1  0.50000000  0.82149950  0.60901650  1.0
  Ni  Ni789  1  0.83333333  0.15483283  0.60901650  1.0
  Ni  Ni790  1  0.83333333  0.48816617  0.60901650  1.0
  Ni  Ni791  1  0.83333333  0.82149950  0.60901650  1.0
  Ni  Ni792  1  0.00000000  0.03199658  0.73327475  1.0
  Ni  Ni793  1  0.00000000  0.36532992  0.73327475  1.0
  Ni  Ni794  1  0.00000000  0.69866325  0.73327475  1.0
  Ni  Ni795  1  0.33333333  0.03199658  0.73327475  1.0
  Ni  Ni796  1  0.33333333  0.36532992  0.73327475  1.0
  Ni  Ni797  1  0.33333333  0.69866325  0.73327475  1.0
  Ni  Ni798  1  0.66666667  0.03199658  0.73327475  1.0
  Ni  Ni799  1  0.66666667  0.36532992  0.73327475  1.0
  Ni  Ni800  1  0.66666667  0.69866325  0.73327475  1.0
  Ni  Ni801  1  0.16666667  0.32366325  0.60827475  1.0
  Ni  Ni802  1  0.16666667  0.65699658  0.60827475  1.0
  Ni  Ni803  1  0.16666667  0.99032992  0.60827475  1.0
  Ni  Ni804  1  0.50000000  0.32366325  0.60827475  1.0
  Ni  Ni805  1  0.50000000  0.65699658  0.60827475  1.0
  Ni  Ni806  1  0.50000000  0.99032992  0.60827475  1.0
  Ni  Ni807  1  0.83333333  0.32366325  0.60827475  1.0
  Ni  Ni808  1  0.83333333  0.65699658  0.60827475  1.0
  Ni  Ni809  1  0.83333333  0.99032992  0.60827475  1.0
  Ni  Ni810  1  0.08341250  0.10121596  0.71676687  1.0
  Ni  Ni811  1  0.08341250  0.43454929  0.71676687  1.0
  Ni  Ni812  1  0.08341250  0.76788262  0.71676687  1.0
  Ni  Ni813  1  0.41674583  0.10121596  0.71676688  1.0
  Ni  Ni814  1  0.41674583  0.43454929  0.71676687  1.0
  Ni  Ni815  1  0.41674583  0.76788262  0.71676688  1.0
  Ni  Ni816  1  0.75007917  0.10121596  0.71676688  1.0
  Ni  Ni817  1  0.75007917  0.43454929  0.71676687  1.0
  Ni  Ni818  1  0.75007917  0.76788262  0.71676687  1.0
  Ni  Ni819  1  0.25007917  0.05954929  0.59176688  1.0
  Ni  Ni820  1  0.25007917  0.39288262  0.59176688  1.0
  Ni  Ni821  1  0.25007917  0.72621596  0.59176688  1.0
  Ni  Ni822  1  0.58341250  0.05954929  0.59176688  1.0
  Ni  Ni823  1  0.58341250  0.39288262  0.59176688  1.0
  Ni  Ni824  1  0.58341250  0.72621596  0.59176688  1.0
  Ni  Ni825  1  0.91674583  0.05954929  0.59176688  1.0
  Ni  Ni826  1  0.91674583  0.39288262  0.59176688  1.0
  Ni  Ni827  1  0.91674583  0.72621596  0.59176688  1.0
  Ni  Ni828  1  0.25100667  0.22814783  0.59032950  1.0
  Ni  Ni829  1  0.25100667  0.56148117  0.59032950  1.0
  Ni  Ni830  1  0.25100667  0.89481450  0.59032950  1.0
  Ni  Ni831  1  0.58434000  0.22814783  0.59032950  1.0
  Ni  Ni832  1  0.58434000  0.56148117  0.59032950  1.0
  Ni  Ni833  1  0.58434000  0.89481450  0.59032950  1.0
  Ni  Ni834  1  0.91767333  0.22814783  0.59032950  1.0
  Ni  Ni835  1  0.91767333  0.56148117  0.59032950  1.0
  Ni  Ni836  1  0.91767333  0.89481450  0.59032950  1.0
  Ni  Ni837  1  0.08434000  0.26981450  0.71532950  1.0
  Ni  Ni838  1  0.08434000  0.60314783  0.71532950  1.0
  Ni  Ni839  1  0.08434000  0.93648117  0.71532950  1.0
  Ni  Ni840  1  0.41767333  0.26981450  0.71532950  1.0
  Ni  Ni841  1  0.41767333  0.60314783  0.71532950  1.0
  Ni  Ni842  1  0.41767333  0.93648117  0.71532950  1.0
  Ni  Ni843  1  0.75100667  0.26981450  0.71532950  1.0
  Ni  Ni844  1  0.75100667  0.60314783  0.71532950  1.0
  Ni  Ni845  1  0.75100667  0.93648117  0.71532950  1.0
  Ni  Ni846  1  0.24992083  0.10121596  0.71676688  1.0
  Ni  Ni847  1  0.24992083  0.43454929  0.71676688  1.0
  Ni  Ni848  1  0.24992083  0.76788262  0.71676688  1.0
  Ni  Ni849  1  0.58325417  0.10121596  0.71676688  1.0
  Ni  Ni850  1  0.58325417  0.43454929  0.71676688  1.0
  Ni  Ni851  1  0.58325417  0.76788262  0.71676688  1.0
  Ni  Ni852  1  0.91658750  0.10121596  0.71676688  1.0
  Ni  Ni853  1  0.91658750  0.43454929  0.71676688  1.0
  Ni  Ni854  1  0.91658750  0.76788262  0.71676688  1.0
  Ni  Ni855  1  0.08325417  0.05954929  0.59176687  1.0
  Ni  Ni856  1  0.08325417  0.39288262  0.59176688  1.0
  Ni  Ni857  1  0.08325417  0.72621596  0.59176688  1.0
  Ni  Ni858  1  0.41658750  0.05954929  0.59176688  1.0
  Ni  Ni859  1  0.41658750  0.39288262  0.59176688  1.0
  Ni  Ni860  1  0.41658750  0.72621596  0.59176688  1.0
  Ni  Ni861  1  0.74992083  0.05954929  0.59176688  1.0
  Ni  Ni862  1  0.74992083  0.39288262  0.59176688  1.0
  Ni  Ni863  1  0.74992083  0.72621596  0.59176688  1.0
  Ni  Ni864  1  0.08232667  0.22814783  0.59032950  1.0
  Ni  Ni865  1  0.08232667  0.56148117  0.59032950  1.0
  Ni  Ni866  1  0.08232667  0.89481450  0.59032950  1.0
  Ni  Ni867  1  0.41566000  0.22814783  0.59032950  1.0
  Ni  Ni868  1  0.41566000  0.56148117  0.59032950  1.0
  Ni  Ni869  1  0.41566000  0.89481450  0.59032950  1.0
  Ni  Ni870  1  0.74899333  0.22814783  0.59032950  1.0
  Ni  Ni871  1  0.74899333  0.56148117  0.59032950  1.0
  Ni  Ni872  1  0.74899333  0.89481450  0.59032950  1.0
  Ni  Ni873  1  0.24899333  0.26981450  0.71532950  1.0
  Ni  Ni874  1  0.24899333  0.60314783  0.71532950  1.0
  Ni  Ni875  1  0.24899333  0.93648117  0.71532950  1.0
  Ni  Ni876  1  0.58232667  0.26981450  0.71532950  1.0
  Ni  Ni877  1  0.58232667  0.60314783  0.71532950  1.0
  Ni  Ni878  1  0.58232667  0.93648117  0.71532950  1.0
  Ni  Ni879  1  0.91566000  0.26981450  0.71532950  1.0
  Ni  Ni880  1  0.91566000  0.60314783  0.71532950  1.0
  Ni  Ni881  1  0.91566000  0.93648117  0.71532950  1.0
  Ni  Ni882  1  0.33333333  0.03873575  0.52932625  1.0
  Ni  Ni883  1  0.33333333  0.37206908  0.52932625  1.0
  Ni  Ni884  1  0.33333333  0.70540242  0.52932625  1.0
  Ni  Ni885  1  0.66666667  0.03873575  0.52932625  1.0
  Ni  Ni886  1  0.66666667  0.37206908  0.52932625  1.0
  Ni  Ni887  1  0.66666667  0.70540242  0.52932625  1.0
  Ni  Ni888  1  1.00000000  0.03873575  0.52932625  1.0
  Ni  Ni889  1  1.00000000  0.37206908  0.52932625  1.0
  Ni  Ni890  1  1.00000000  0.70540242  0.52932625  1.0
  Ni  Ni891  1  0.16666667  0.08040242  0.65432625  1.0
  Ni  Ni892  1  0.16666667  0.41373575  0.65432625  1.0
  Ni  Ni893  1  0.16666667  0.74706908  0.65432625  1.0
  Ni  Ni894  1  0.50000000  0.08040242  0.65432625  1.0
  Ni  Ni895  1  0.50000000  0.41373575  0.65432625  1.0
  Ni  Ni896  1  0.50000000  0.74706908  0.65432625  1.0
  Ni  Ni897  1  0.83333333  0.08040242  0.65432625  1.0
  Ni  Ni898  1  0.83333333  0.41373575  0.65432625  1.0
  Ni  Ni899  1  0.83333333  0.74706908  0.65432625  1.0
  Ni  Ni900  1  0.33333333  0.20756617  0.52858450  1.0
  Ni  Ni901  1  0.33333333  0.54089950  0.52858450  1.0
  Ni  Ni902  1  0.33333333  0.87423283  0.52858450  1.0
  Ni  Ni903  1  0.66666667  0.20756617  0.52858450  1.0
  Ni  Ni904  1  0.66666667  0.54089950  0.52858450  1.0
  Ni  Ni905  1  0.66666667  0.87423283  0.52858450  1.0
  Ni  Ni906  1  1.00000000  0.20756617  0.52858450  1.0
  Ni  Ni907  1  1.00000000  0.54089950  0.52858450  1.0
  Ni  Ni908  1  1.00000000  0.87423283  0.52858450  1.0
  Ni  Ni909  1  0.16666667  0.24923283  0.65358450  1.0
  Ni  Ni910  1  0.16666667  0.58256617  0.65358450  1.0
  Ni  Ni911  1  0.16666667  0.91589950  0.65358450  1.0
  Ni  Ni912  1  0.50000000  0.24923283  0.65358450  1.0
  Ni  Ni913  1  0.50000000  0.58256617  0.65358450  1.0
  Ni  Ni914  1  0.50000000  0.91589950  0.65358450  1.0
  Ni  Ni915  1  0.83333333  0.24923283  0.65358450  1.0
  Ni  Ni916  1  0.83333333  0.58256617  0.65358450  1.0
  Ni  Ni917  1  0.83333333  0.91589950  0.65358450  1.0
  Ni  Ni918  1  0.33333333  0.32703283  0.50630050  1.0
  Ni  Ni919  1  0.33333333  0.66036617  0.50630050  1.0
  Ni  Ni920  1  0.33333333  0.99369950  0.50630050  1.0
  Ni  Ni921  1  0.66666667  0.32703283  0.50630050  1.0
  Ni  Ni922  1  0.66666667  0.66036617  0.50630050  1.0
  Ni  Ni923  1  0.66666667  0.99369950  0.50630050  1.0
  Ni  Ni924  1  1.00000000  0.32703283  0.50630050  1.0
  Ni  Ni925  1  1.00000000  0.66036617  0.50630050  1.0
  Ni  Ni926  1  1.00000000  0.99369950  0.50630050  1.0
  Ni  Ni927  1  0.16666667  0.03536617  0.63130050  1.0
  Ni  Ni928  1  0.16666667  0.36869950  0.63130050  1.0
  Ni  Ni929  1  0.16666667  0.70203283  0.63130050  1.0
  Ni  Ni930  1  0.50000000  0.03536617  0.63130050  1.0
  Ni  Ni931  1  0.50000000  0.36869950  0.63130050  1.0
  Ni  Ni932  1  0.50000000  0.70203283  0.63130050  1.0
  Ni  Ni933  1  0.83333333  0.03536617  0.63130050  1.0
  Ni  Ni934  1  0.83333333  0.36869950  0.63130050  1.0
  Ni  Ni935  1  0.83333333  0.70203283  0.63130050  1.0
