# generated using pymatgen
data_NbNi
_symmetry_space_group_name_H-M   'P 1'
_cell_length_a   54.00767526
_cell_length_b   107.00928638
_cell_length_c   216.03070104
_cell_angle_alpha   7.82609997
_cell_angle_beta   15.65219994
_cell_angle_gamma   13.59776372
_symmetry_Int_Tables_number   1
_chemical_formula_structural   NbNi
_chemical_formula_sum   'Nb585 Ni585'
_cell_volume   39969.08802809
_cell_formula_units_Z   585
loop_
 _symmetry_equiv_pos_site_id
 _symmetry_equiv_pos_as_xyz
  1  'x, y, z'
loop_
 _atom_site_type_symbol
 _atom_site_label
 _atom_site_symmetry_multiplicity
 _atom_site_fract_x
 _atom_site_fract_y
 _atom_site_fract_z
 _atom_site_occupancy
  Nb  Nb0  1  0.07493267  0.07493267  0.06275167  1.0
  Nb  Nb1  1  0.07493267  0.40826600  0.06275167  1.0
  Nb  Nb2  1  0.07493267  0.74159933  0.06275167  1.0
  Nb  Nb3  1  0.40826600  0.07493267  0.06275167  1.0
  Nb  Nb4  1  0.40826600  0.40826600  0.06275167  1.0
  Nb  Nb5  1  0.40826600  0.74159933  0.06275167  1.0
  Nb  Nb6  1  0.74159933  0.07493267  0.06275167  1.0
  Nb  Nb7  1  0.74159933  0.40826600  0.06275167  1.0
  Nb  Nb8  1  0.74159933  0.74159933  0.06275167  1.0
  Nb  Nb9  1  0.24211633  0.24211633  0.06275167  1.0
  Nb  Nb10  1  0.24211633  0.57544967  0.06275167  1.0
  Nb  Nb11  1  0.24211633  0.90878300  0.06275167  1.0
  Nb  Nb12  1  0.57544967  0.24211633  0.06275167  1.0
  Nb  Nb13  1  0.57544967  0.57544967  0.06275167  1.0
  Nb  Nb14  1  0.57544967  0.90878300  0.06275167  1.0
  Nb  Nb15  1  0.90878300  0.24211633  0.06275167  1.0
  Nb  Nb16  1  0.90878300  0.57544967  0.06275167  1.0
  Nb  Nb17  1  0.90878300  0.90878300  0.06275167  1.0
  Nb  Nb18  1  0.09121700  0.09121700  0.06275167  1.0
  Nb  Nb19  1  0.09121700  0.42455033  0.06275167  1.0
  Nb  Nb20  1  0.09121700  0.75788367  0.06275167  1.0
  Nb  Nb21  1  0.42455033  0.09121700  0.06275167  1.0
  Nb  Nb22  1  0.42455033  0.42455033  0.06275167  1.0
  Nb  Nb23  1  0.42455033  0.75788367  0.06275167  1.0
  Nb  Nb24  1  0.75788367  0.09121700  0.06275167  1.0
  Nb  Nb25  1  0.75788367  0.42455033  0.06275167  1.0
  Nb  Nb26  1  0.75788367  0.75788367  0.06275167  1.0
  Nb  Nb27  1  0.25840067  0.25840067  0.06275167  1.0
  Nb  Nb28  1  0.25840067  0.59173400  0.06275167  1.0
  Nb  Nb29  1  0.25840067  0.92506733  0.06275167  1.0
  Nb  Nb30  1  0.59173400  0.25840067  0.06275167  1.0
  Nb  Nb31  1  0.59173400  0.59173400  0.06275167  1.0
  Nb  Nb32  1  0.59173400  0.92506733  0.06275167  1.0
  Nb  Nb33  1  0.92506733  0.25840067  0.06275167  1.0
  Nb  Nb34  1  0.92506733  0.59173400  0.06275167  1.0
  Nb  Nb35  1  0.92506733  0.92506733  0.06275167  1.0
  Nb  Nb36  1  0.19401133  0.19401133  0.06275167  1.0
  Nb  Nb37  1  0.19401133  0.52734467  0.06275167  1.0
  Nb  Nb38  1  0.19401133  0.86067800  0.06275167  1.0
  Nb  Nb39  1  0.52734467  0.19401133  0.06275167  1.0
  Nb  Nb40  1  0.52734467  0.52734467  0.06275167  1.0
  Nb  Nb41  1  0.52734467  0.86067800  0.06275167  1.0
  Nb  Nb42  1  0.86067800  0.19401133  0.06275167  1.0
  Nb  Nb43  1  0.86067800  0.52734467  0.06275167  1.0
  Nb  Nb44  1  0.86067800  0.86067800  0.06275167  1.0
  Nb  Nb45  1  0.02816667  0.02816667  0.06275167  1.0
  Nb  Nb46  1  0.02816667  0.36150000  0.06275167  1.0
  Nb  Nb47  1  0.02816667  0.69483333  0.06275167  1.0
  Nb  Nb48  1  0.36150000  0.02816667  0.06275167  1.0
  Nb  Nb49  1  0.36150000  0.36150000  0.06275167  1.0
  Nb  Nb50  1  0.36150000  0.69483333  0.06275167  1.0
  Nb  Nb51  1  0.69483333  0.02816667  0.06275167  1.0
  Nb  Nb52  1  0.69483333  0.36150000  0.06275167  1.0
  Nb  Nb53  1  0.69483333  0.69483333  0.06275167  1.0
  Nb  Nb54  1  0.30516667  0.30516667  0.06275167  1.0
  Nb  Nb55  1  0.30516667  0.63850000  0.06275167  1.0
  Nb  Nb56  1  0.30516667  0.97183333  0.06275167  1.0
  Nb  Nb57  1  0.63850000  0.30516667  0.06275167  1.0
  Nb  Nb58  1  0.63850000  0.63850000  0.06275167  1.0
  Nb  Nb59  1  0.63850000  0.97183333  0.06275167  1.0
  Nb  Nb60  1  0.97183333  0.30516667  0.06275167  1.0
  Nb  Nb61  1  0.97183333  0.63850000  0.06275167  1.0
  Nb  Nb62  1  0.97183333  0.97183333  0.06275167  1.0
  Nb  Nb63  1  0.13932200  0.13932200  0.06275167  1.0
  Nb  Nb64  1  0.13932200  0.47265533  0.06275167  1.0
  Nb  Nb65  1  0.13932200  0.80598867  0.06275167  1.0
  Nb  Nb66  1  0.47265533  0.13932200  0.06275167  1.0
  Nb  Nb67  1  0.47265533  0.47265533  0.06275167  1.0
  Nb  Nb68  1  0.47265533  0.80598867  0.06275167  1.0
  Nb  Nb69  1  0.80598867  0.13932200  0.06275167  1.0
  Nb  Nb70  1  0.80598867  0.47265533  0.06275167  1.0
  Nb  Nb71  1  0.80598867  0.80598867  0.06275167  1.0
  Nb  Nb72  1  0.05767000  0.05767000  0.06275167  1.0
  Nb  Nb73  1  0.05767000  0.39100333  0.06275167  1.0
  Nb  Nb74  1  0.05767000  0.72433667  0.06275167  1.0
  Nb  Nb75  1  0.39100333  0.05767000  0.06275167  1.0
  Nb  Nb76  1  0.39100333  0.39100333  0.06275167  1.0
  Nb  Nb77  1  0.39100333  0.72433667  0.06275167  1.0
  Nb  Nb78  1  0.72433667  0.05767000  0.06275167  1.0
  Nb  Nb79  1  0.72433667  0.39100333  0.06275167  1.0
  Nb  Nb80  1  0.72433667  0.72433667  0.06275167  1.0
  Nb  Nb81  1  0.22445733  0.22445733  0.06275167  1.0
  Nb  Nb82  1  0.22445733  0.55779067  0.06275167  1.0
  Nb  Nb83  1  0.22445733  0.89112400  0.06275167  1.0
  Nb  Nb84  1  0.55779067  0.22445733  0.06275167  1.0
  Nb  Nb85  1  0.55779067  0.55779067  0.06275167  1.0
  Nb  Nb86  1  0.55779067  0.89112400  0.06275167  1.0
  Nb  Nb87  1  0.89112400  0.22445733  0.06275167  1.0
  Nb  Nb88  1  0.89112400  0.55779067  0.06275167  1.0
  Nb  Nb89  1  0.89112400  0.89112400  0.06275167  1.0
  Nb  Nb90  1  0.10887600  0.10887600  0.06275167  1.0
  Nb  Nb91  1  0.10887600  0.44220933  0.06275167  1.0
  Nb  Nb92  1  0.10887600  0.77554267  0.06275167  1.0
  Nb  Nb93  1  0.44220933  0.10887600  0.06275167  1.0
  Nb  Nb94  1  0.44220933  0.44220933  0.06275167  1.0
  Nb  Nb95  1  0.44220933  0.77554267  0.06275167  1.0
  Nb  Nb96  1  0.77554267  0.10887600  0.06275167  1.0
  Nb  Nb97  1  0.77554267  0.44220933  0.06275167  1.0
  Nb  Nb98  1  0.77554267  0.77554267  0.06275167  1.0
  Nb  Nb99  1  0.27566333  0.27566333  0.06275167  1.0
  Nb  Nb100  1  0.27566333  0.60899667  0.06275167  1.0
  Nb  Nb101  1  0.27566333  0.94233000  0.06275167  1.0
  Nb  Nb102  1  0.60899667  0.27566333  0.06275167  1.0
  Nb  Nb103  1  0.60899667  0.60899667  0.06275167  1.0
  Nb  Nb104  1  0.60899667  0.94233000  0.06275167  1.0
  Nb  Nb105  1  0.94233000  0.27566333  0.06275167  1.0
  Nb  Nb106  1  0.94233000  0.60899667  0.06275167  1.0
  Nb  Nb107  1  0.94233000  0.94233000  0.06275167  1.0
  Nb  Nb108  1  0.00000000  0.00000000  0.06275167  1.0
  Nb  Nb109  1  0.00000000  0.33333333  0.06275167  1.0
  Nb  Nb110  1  0.00000000  0.66666667  0.06275167  1.0
  Nb  Nb111  1  0.33333333  0.00000000  0.06275167  1.0
  Nb  Nb112  1  0.33333333  0.33333333  0.06275167  1.0
  Nb  Nb113  1  0.33333333  0.66666667  0.06275167  1.0
  Nb  Nb114  1  0.66666667  0.00000000  0.06275167  1.0
  Nb  Nb115  1  0.66666667  0.33333333  0.06275167  1.0
  Nb  Nb116  1  0.66666667  0.66666667  0.06275167  1.0
  Ni  Ni117  1  0.09919600  0.26384933  0.06275167  1.0
  Ni  Ni118  1  0.09919600  0.59718267  0.06275167  1.0
  Ni  Ni119  1  0.09919600  0.93051600  0.06275167  1.0
  Ni  Ni120  1  0.43252933  0.26384933  0.06275167  1.0
  Ni  Ni121  1  0.43252933  0.59718267  0.06275167  1.0
  Ni  Ni122  1  0.43252933  0.93051600  0.06275167  1.0
  Ni  Ni123  1  0.76586267  0.26384933  0.06275167  1.0
  Ni  Ni124  1  0.76586267  0.59718267  0.06275167  1.0
  Ni  Ni125  1  0.76586267  0.93051600  0.06275167  1.0
  Ni  Ni126  1  0.26542967  0.09860467  0.06275167  1.0
  Ni  Ni127  1  0.26542967  0.43193800  0.06275167  1.0
  Ni  Ni128  1  0.26542967  0.76527133  0.06275167  1.0
  Ni  Ni129  1  0.59876300  0.09860467  0.06275167  1.0
  Ni  Ni130  1  0.59876300  0.43193800  0.06275167  1.0
  Ni  Ni131  1  0.59876300  0.76527133  0.06275167  1.0
  Ni  Ni132  1  0.93209633  0.09860467  0.06275167  1.0
  Ni  Ni133  1  0.93209633  0.43193800  0.06275167  1.0
  Ni  Ni134  1  0.93209633  0.76527133  0.06275167  1.0
  Ni  Ni135  1  0.26384933  0.09919600  0.02058167  1.0
  Ni  Ni136  1  0.26384933  0.43252933  0.02058167  1.0
  Ni  Ni137  1  0.26384933  0.76586267  0.02058167  1.0
  Ni  Ni138  1  0.59718267  0.09919600  0.02058167  1.0
  Ni  Ni139  1  0.59718267  0.43252933  0.02058167  1.0
  Ni  Ni140  1  0.59718267  0.76586267  0.02058167  1.0
  Ni  Ni141  1  0.93051600  0.09919600  0.02058167  1.0
  Ni  Ni142  1  0.93051600  0.43252933  0.02058167  1.0
  Ni  Ni143  1  0.93051600  0.76586267  0.02058167  1.0
  Ni  Ni144  1  0.09860467  0.26542967  0.02104542  1.0
  Ni  Ni145  1  0.09860467  0.59876300  0.02104542  1.0
  Ni  Ni146  1  0.09860467  0.93209633  0.02104542  1.0
  Ni  Ni147  1  0.43193800  0.26542967  0.02104542  1.0
  Ni  Ni148  1  0.43193800  0.59876300  0.02104542  1.0
  Ni  Ni149  1  0.43193800  0.93209633  0.02104542  1.0
  Ni  Ni150  1  0.76527133  0.26542967  0.02104542  1.0
  Ni  Ni151  1  0.76527133  0.59876300  0.02104542  1.0
  Ni  Ni152  1  0.76527133  0.93209633  0.02104542  1.0
  Ni  Ni153  1  0.26384933  0.26384933  0.02158833  1.0
  Ni  Ni154  1  0.26384933  0.59718267  0.02158833  1.0
  Ni  Ni155  1  0.26384933  0.93051600  0.02158833  1.0
  Ni  Ni156  1  0.59718267  0.26384933  0.02158833  1.0
  Ni  Ni157  1  0.59718267  0.59718267  0.02158833  1.0
  Ni  Ni158  1  0.59718267  0.93051600  0.02158833  1.0
  Ni  Ni159  1  0.93051600  0.26384933  0.02158833  1.0
  Ni  Ni160  1  0.93051600  0.59718267  0.02158833  1.0
  Ni  Ni161  1  0.93051600  0.93051600  0.02158833  1.0
  Ni  Ni162  1  0.09860467  0.09860467  0.02112458  1.0
  Ni  Ni163  1  0.09860467  0.43193800  0.02112458  1.0
  Ni  Ni164  1  0.09860467  0.76527133  0.02112458  1.0
  Ni  Ni165  1  0.43193800  0.09860467  0.02112458  1.0
  Ni  Ni166  1  0.43193800  0.43193800  0.02112458  1.0
  Ni  Ni167  1  0.43193800  0.76527133  0.02112458  1.0
  Ni  Ni168  1  0.76527133  0.09860467  0.02112458  1.0
  Ni  Ni169  1  0.76527133  0.43193800  0.02112458  1.0
  Ni  Ni170  1  0.76527133  0.76527133  0.02112458  1.0
  Ni  Ni171  1  0.06790367  0.23472867  0.06275167  1.0
  Ni  Ni172  1  0.06790367  0.56806200  0.06275167  1.0
  Ni  Ni173  1  0.06790367  0.90139533  0.06275167  1.0
  Ni  Ni174  1  0.40123700  0.23472867  0.06275167  1.0
  Ni  Ni175  1  0.40123700  0.56806200  0.06275167  1.0
  Ni  Ni176  1  0.40123700  0.90139533  0.06275167  1.0
  Ni  Ni177  1  0.73457033  0.23472867  0.06275167  1.0
  Ni  Ni178  1  0.73457033  0.56806200  0.06275167  1.0
  Ni  Ni179  1  0.73457033  0.90139533  0.06275167  1.0
  Ni  Ni180  1  0.23413733  0.06948400  0.06275167  1.0
  Ni  Ni181  1  0.23413733  0.40281733  0.06275167  1.0
  Ni  Ni182  1  0.23413733  0.73615067  0.06275167  1.0
  Ni  Ni183  1  0.56747067  0.06948400  0.06275167  1.0
  Ni  Ni184  1  0.56747067  0.40281733  0.06275167  1.0
  Ni  Ni185  1  0.56747067  0.73615067  0.06275167  1.0
  Ni  Ni186  1  0.90080400  0.06948400  0.06275167  1.0
  Ni  Ni187  1  0.90080400  0.40281733  0.06275167  1.0
  Ni  Ni188  1  0.90080400  0.73615067  0.06275167  1.0
  Ni  Ni189  1  0.23472867  0.06790367  0.02112458  1.0
  Ni  Ni190  1  0.23472867  0.40123700  0.02112458  1.0
  Ni  Ni191  1  0.23472867  0.73457033  0.02112458  1.0
  Ni  Ni192  1  0.56806200  0.06790367  0.02112458  1.0
  Ni  Ni193  1  0.56806200  0.40123700  0.02112458  1.0
  Ni  Ni194  1  0.56806200  0.73457033  0.02112458  1.0
  Ni  Ni195  1  0.90139533  0.06790367  0.02112458  1.0
  Ni  Ni196  1  0.90139533  0.40123700  0.02112458  1.0
  Ni  Ni197  1  0.90139533  0.73457033  0.02112458  1.0
  Ni  Ni198  1  0.06948400  0.23413733  0.02158833  1.0
  Ni  Ni199  1  0.06948400  0.56747067  0.02158833  1.0
  Ni  Ni200  1  0.06948400  0.90080400  0.02158833  1.0
  Ni  Ni201  1  0.40281733  0.23413733  0.02158833  1.0
  Ni  Ni202  1  0.40281733  0.56747067  0.02158833  1.0
  Ni  Ni203  1  0.40281733  0.90080400  0.02158833  1.0
  Ni  Ni204  1  0.73615067  0.23413733  0.02158833  1.0
  Ni  Ni205  1  0.73615067  0.56747067  0.02158833  1.0
  Ni  Ni206  1  0.73615067  0.90080400  0.02158833  1.0
  Ni  Ni207  1  0.23472867  0.23472867  0.02104542  1.0
  Ni  Ni208  1  0.23472867  0.56806200  0.02104542  1.0
  Ni  Ni209  1  0.23472867  0.90139533  0.02104542  1.0
  Ni  Ni210  1  0.56806200  0.23472867  0.02104542  1.0
  Ni  Ni211  1  0.56806200  0.56806200  0.02104542  1.0
  Ni  Ni212  1  0.56806200  0.90139533  0.02104542  1.0
  Ni  Ni213  1  0.90139533  0.23472867  0.02104542  1.0
  Ni  Ni214  1  0.90139533  0.56806200  0.02104542  1.0
  Ni  Ni215  1  0.90139533  0.90139533  0.02104542  1.0
  Ni  Ni216  1  0.06948400  0.06948400  0.02058167  1.0
  Ni  Ni217  1  0.06948400  0.40281733  0.02058167  1.0
  Ni  Ni218  1  0.06948400  0.73615067  0.02058167  1.0
  Ni  Ni219  1  0.40281733  0.06948400  0.02058167  1.0
  Ni  Ni220  1  0.40281733  0.40281733  0.02058167  1.0
  Ni  Ni221  1  0.40281733  0.73615067  0.02058167  1.0
  Ni  Ni222  1  0.73615067  0.06948400  0.02058167  1.0
  Ni  Ni223  1  0.73615067  0.40281733  0.02058167  1.0
  Ni  Ni224  1  0.73615067  0.73615067  0.02058167  1.0
  Ni  Ni225  1  0.16666667  0.16666667  0.06275167  1.0
  Ni  Ni226  1  0.16666667  0.50000000  0.06275167  1.0
  Ni  Ni227  1  0.16666667  0.83333333  0.06275167  1.0
  Ni  Ni228  1  0.50000000  0.16666667  0.06275167  1.0
  Ni  Ni229  1  0.50000000  0.50000000  0.06275167  1.0
  Ni  Ni230  1  0.50000000  0.83333333  0.06275167  1.0
  Ni  Ni231  1  0.83333333  0.16666667  0.06275167  1.0
  Ni  Ni232  1  0.83333333  0.50000000  0.06275167  1.0
  Ni  Ni233  1  0.83333333  0.83333333  0.06275167  1.0
  Nb  Nb234  1  0.07493267  0.07493267  0.14608500  1.0
  Nb  Nb235  1  0.07493267  0.40826600  0.14608500  1.0
  Nb  Nb236  1  0.07493267  0.74159933  0.14608500  1.0
  Nb  Nb237  1  0.40826600  0.07493267  0.14608500  1.0
  Nb  Nb238  1  0.40826600  0.40826600  0.14608500  1.0
  Nb  Nb239  1  0.40826600  0.74159933  0.14608500  1.0
  Nb  Nb240  1  0.74159933  0.07493267  0.14608500  1.0
  Nb  Nb241  1  0.74159933  0.40826600  0.14608500  1.0
  Nb  Nb242  1  0.74159933  0.74159933  0.14608500  1.0
  Nb  Nb243  1  0.24211633  0.24211633  0.14608500  1.0
  Nb  Nb244  1  0.24211633  0.57544967  0.14608500  1.0
  Nb  Nb245  1  0.24211633  0.90878300  0.14608500  1.0
  Nb  Nb246  1  0.57544967  0.24211633  0.14608500  1.0
  Nb  Nb247  1  0.57544967  0.57544967  0.14608500  1.0
  Nb  Nb248  1  0.57544967  0.90878300  0.14608500  1.0
  Nb  Nb249  1  0.90878300  0.24211633  0.14608500  1.0
  Nb  Nb250  1  0.90878300  0.57544967  0.14608500  1.0
  Nb  Nb251  1  0.90878300  0.90878300  0.14608500  1.0
  Nb  Nb252  1  0.09121700  0.09121700  0.14608500  1.0
  Nb  Nb253  1  0.09121700  0.42455033  0.14608500  1.0
  Nb  Nb254  1  0.09121700  0.75788367  0.14608500  1.0
  Nb  Nb255  1  0.42455033  0.09121700  0.14608500  1.0
  Nb  Nb256  1  0.42455033  0.42455033  0.14608500  1.0
  Nb  Nb257  1  0.42455033  0.75788367  0.14608500  1.0
  Nb  Nb258  1  0.75788367  0.09121700  0.14608500  1.0
  Nb  Nb259  1  0.75788367  0.42455033  0.14608500  1.0
  Nb  Nb260  1  0.75788367  0.75788367  0.14608500  1.0
  Nb  Nb261  1  0.25840067  0.25840067  0.14608500  1.0
  Nb  Nb262  1  0.25840067  0.59173400  0.14608500  1.0
  Nb  Nb263  1  0.25840067  0.92506733  0.14608500  1.0
  Nb  Nb264  1  0.59173400  0.25840067  0.14608500  1.0
  Nb  Nb265  1  0.59173400  0.59173400  0.14608500  1.0
  Nb  Nb266  1  0.59173400  0.92506733  0.14608500  1.0
  Nb  Nb267  1  0.92506733  0.25840067  0.14608500  1.0
  Nb  Nb268  1  0.92506733  0.59173400  0.14608500  1.0
  Nb  Nb269  1  0.92506733  0.92506733  0.14608500  1.0
  Nb  Nb270  1  0.19401133  0.19401133  0.14608500  1.0
  Nb  Nb271  1  0.19401133  0.52734467  0.14608500  1.0
  Nb  Nb272  1  0.19401133  0.86067800  0.14608500  1.0
  Nb  Nb273  1  0.52734467  0.19401133  0.14608500  1.0
  Nb  Nb274  1  0.52734467  0.52734467  0.14608500  1.0
  Nb  Nb275  1  0.52734467  0.86067800  0.14608500  1.0
  Nb  Nb276  1  0.86067800  0.19401133  0.14608500  1.0
  Nb  Nb277  1  0.86067800  0.52734467  0.14608500  1.0
  Nb  Nb278  1  0.86067800  0.86067800  0.14608500  1.0
  Nb  Nb279  1  0.02816667  0.02816667  0.14608500  1.0
  Nb  Nb280  1  0.02816667  0.36150000  0.14608500  1.0
  Nb  Nb281  1  0.02816667  0.69483333  0.14608500  1.0
  Nb  Nb282  1  0.36150000  0.02816667  0.14608500  1.0
  Nb  Nb283  1  0.36150000  0.36150000  0.14608500  1.0
  Nb  Nb284  1  0.36150000  0.69483333  0.14608500  1.0
  Nb  Nb285  1  0.69483333  0.02816667  0.14608500  1.0
  Nb  Nb286  1  0.69483333  0.36150000  0.14608500  1.0
  Nb  Nb287  1  0.69483333  0.69483333  0.14608500  1.0
  Nb  Nb288  1  0.30516667  0.30516667  0.14608500  1.0
  Nb  Nb289  1  0.30516667  0.63850000  0.14608500  1.0
  Nb  Nb290  1  0.30516667  0.97183333  0.14608500  1.0
  Nb  Nb291  1  0.63850000  0.30516667  0.14608500  1.0
  Nb  Nb292  1  0.63850000  0.63850000  0.14608500  1.0
  Nb  Nb293  1  0.63850000  0.97183333  0.14608500  1.0
  Nb  Nb294  1  0.97183333  0.30516667  0.14608500  1.0
  Nb  Nb295  1  0.97183333  0.63850000  0.14608500  1.0
  Nb  Nb296  1  0.97183333  0.97183333  0.14608500  1.0
  Nb  Nb297  1  0.13932200  0.13932200  0.14608500  1.0
  Nb  Nb298  1  0.13932200  0.47265533  0.14608500  1.0
  Nb  Nb299  1  0.13932200  0.80598867  0.14608500  1.0
  Nb  Nb300  1  0.47265533  0.13932200  0.14608500  1.0
  Nb  Nb301  1  0.47265533  0.47265533  0.14608500  1.0
  Nb  Nb302  1  0.47265533  0.80598867  0.14608500  1.0
  Nb  Nb303  1  0.80598867  0.13932200  0.14608500  1.0
  Nb  Nb304  1  0.80598867  0.47265533  0.14608500  1.0
  Nb  Nb305  1  0.80598867  0.80598867  0.14608500  1.0
  Nb  Nb306  1  0.05767000  0.05767000  0.14608500  1.0
  Nb  Nb307  1  0.05767000  0.39100333  0.14608500  1.0
  Nb  Nb308  1  0.05767000  0.72433667  0.14608500  1.0
  Nb  Nb309  1  0.39100333  0.05767000  0.14608500  1.0
  Nb  Nb310  1  0.39100333  0.39100333  0.14608500  1.0
  Nb  Nb311  1  0.39100333  0.72433667  0.14608500  1.0
  Nb  Nb312  1  0.72433667  0.05767000  0.14608500  1.0
  Nb  Nb313  1  0.72433667  0.39100333  0.14608500  1.0
  Nb  Nb314  1  0.72433667  0.72433667  0.14608500  1.0
  Nb  Nb315  1  0.22445733  0.22445733  0.14608500  1.0
  Nb  Nb316  1  0.22445733  0.55779067  0.14608500  1.0
  Nb  Nb317  1  0.22445733  0.89112400  0.14608500  1.0
  Nb  Nb318  1  0.55779067  0.22445733  0.14608500  1.0
  Nb  Nb319  1  0.55779067  0.55779067  0.14608500  1.0
  Nb  Nb320  1  0.55779067  0.89112400  0.14608500  1.0
  Nb  Nb321  1  0.89112400  0.22445733  0.14608500  1.0
  Nb  Nb322  1  0.89112400  0.55779067  0.14608500  1.0
  Nb  Nb323  1  0.89112400  0.89112400  0.14608500  1.0
  Nb  Nb324  1  0.10887600  0.10887600  0.14608500  1.0
  Nb  Nb325  1  0.10887600  0.44220933  0.14608500  1.0
  Nb  Nb326  1  0.10887600  0.77554267  0.14608500  1.0
  Nb  Nb327  1  0.44220933  0.10887600  0.14608500  1.0
  Nb  Nb328  1  0.44220933  0.44220933  0.14608500  1.0
  Nb  Nb329  1  0.44220933  0.77554267  0.14608500  1.0
  Nb  Nb330  1  0.77554267  0.10887600  0.14608500  1.0
  Nb  Nb331  1  0.77554267  0.44220933  0.14608500  1.0
  Nb  Nb332  1  0.77554267  0.77554267  0.14608500  1.0
  Nb  Nb333  1  0.27566333  0.27566333  0.14608500  1.0
  Nb  Nb334  1  0.27566333  0.60899667  0.14608500  1.0
  Nb  Nb335  1  0.27566333  0.94233000  0.14608500  1.0
  Nb  Nb336  1  0.60899667  0.27566333  0.14608500  1.0
  Nb  Nb337  1  0.60899667  0.60899667  0.14608500  1.0
  Nb  Nb338  1  0.60899667  0.94233000  0.14608500  1.0
  Nb  Nb339  1  0.94233000  0.27566333  0.14608500  1.0
  Nb  Nb340  1  0.94233000  0.60899667  0.14608500  1.0
  Nb  Nb341  1  0.94233000  0.94233000  0.14608500  1.0
  Nb  Nb342  1  0.00000000  0.00000000  0.14608500  1.0
  Nb  Nb343  1  0.00000000  0.33333333  0.14608500  1.0
  Nb  Nb344  1  0.00000000  0.66666667  0.14608500  1.0
  Nb  Nb345  1  0.33333333  0.00000000  0.14608500  1.0
  Nb  Nb346  1  0.33333333  0.33333333  0.14608500  1.0
  Nb  Nb347  1  0.33333333  0.66666667  0.14608500  1.0
  Nb  Nb348  1  0.66666667  0.00000000  0.14608500  1.0
  Nb  Nb349  1  0.66666667  0.33333333  0.14608500  1.0
  Nb  Nb350  1  0.66666667  0.66666667  0.14608500  1.0
  Ni  Ni351  1  0.09919600  0.26384933  0.14608500  1.0
  Ni  Ni352  1  0.09919600  0.59718267  0.14608500  1.0
  Ni  Ni353  1  0.09919600  0.93051600  0.14608500  1.0
  Ni  Ni354  1  0.43252933  0.26384933  0.14608500  1.0
  Ni  Ni355  1  0.43252933  0.59718267  0.14608500  1.0
  Ni  Ni356  1  0.43252933  0.93051600  0.14608500  1.0
  Ni  Ni357  1  0.76586267  0.26384933  0.14608500  1.0
  Ni  Ni358  1  0.76586267  0.59718267  0.14608500  1.0
  Ni  Ni359  1  0.76586267  0.93051600  0.14608500  1.0
  Ni  Ni360  1  0.26542967  0.09860467  0.14608500  1.0
  Ni  Ni361  1  0.26542967  0.43193800  0.14608500  1.0
  Ni  Ni362  1  0.26542967  0.76527133  0.14608500  1.0
  Ni  Ni363  1  0.59876300  0.09860467  0.14608500  1.0
  Ni  Ni364  1  0.59876300  0.43193800  0.14608500  1.0
  Ni  Ni365  1  0.59876300  0.76527133  0.14608500  1.0
  Ni  Ni366  1  0.93209633  0.09860467  0.14608500  1.0
  Ni  Ni367  1  0.93209633  0.43193800  0.14608500  1.0
  Ni  Ni368  1  0.93209633  0.76527133  0.14608500  1.0
  Ni  Ni369  1  0.26384933  0.09919600  0.10391500  1.0
  Ni  Ni370  1  0.26384933  0.43252933  0.10391500  1.0
  Ni  Ni371  1  0.26384933  0.76586267  0.10391500  1.0
  Ni  Ni372  1  0.59718267  0.09919600  0.10391500  1.0
  Ni  Ni373  1  0.59718267  0.43252933  0.10391500  1.0
  Ni  Ni374  1  0.59718267  0.76586267  0.10391500  1.0
  Ni  Ni375  1  0.93051600  0.09919600  0.10391500  1.0
  Ni  Ni376  1  0.93051600  0.43252933  0.10391500  1.0
  Ni  Ni377  1  0.93051600  0.76586267  0.10391500  1.0
  Ni  Ni378  1  0.09860467  0.26542967  0.10437875  1.0
  Ni  Ni379  1  0.09860467  0.59876300  0.10437875  1.0
  Ni  Ni380  1  0.09860467  0.93209633  0.10437875  1.0
  Ni  Ni381  1  0.43193800  0.26542967  0.10437875  1.0
  Ni  Ni382  1  0.43193800  0.59876300  0.10437875  1.0
  Ni  Ni383  1  0.43193800  0.93209633  0.10437875  1.0
  Ni  Ni384  1  0.76527133  0.26542967  0.10437875  1.0
  Ni  Ni385  1  0.76527133  0.59876300  0.10437875  1.0
  Ni  Ni386  1  0.76527133  0.93209633  0.10437875  1.0
  Ni  Ni387  1  0.26384933  0.26384933  0.10492167  1.0
  Ni  Ni388  1  0.26384933  0.59718267  0.10492167  1.0
  Ni  Ni389  1  0.26384933  0.93051600  0.10492167  1.0
  Ni  Ni390  1  0.59718267  0.26384933  0.10492167  1.0
  Ni  Ni391  1  0.59718267  0.59718267  0.10492167  1.0
  Ni  Ni392  1  0.59718267  0.93051600  0.10492167  1.0
  Ni  Ni393  1  0.93051600  0.26384933  0.10492167  1.0
  Ni  Ni394  1  0.93051600  0.59718267  0.10492167  1.0
  Ni  Ni395  1  0.93051600  0.93051600  0.10492167  1.0
  Ni  Ni396  1  0.09860467  0.09860467  0.10445792  1.0
  Ni  Ni397  1  0.09860467  0.43193800  0.10445792  1.0
  Ni  Ni398  1  0.09860467  0.76527133  0.10445792  1.0
  Ni  Ni399  1  0.43193800  0.09860467  0.10445792  1.0
  Ni  Ni400  1  0.43193800  0.43193800  0.10445792  1.0
  Ni  Ni401  1  0.43193800  0.76527133  0.10445792  1.0
  Ni  Ni402  1  0.76527133  0.09860467  0.10445792  1.0
  Ni  Ni403  1  0.76527133  0.43193800  0.10445792  1.0
  Ni  Ni404  1  0.76527133  0.76527133  0.10445792  1.0
  Ni  Ni405  1  0.06790367  0.23472867  0.14608500  1.0
  Ni  Ni406  1  0.06790367  0.56806200  0.14608500  1.0
  Ni  Ni407  1  0.06790367  0.90139533  0.14608500  1.0
  Ni  Ni408  1  0.40123700  0.23472867  0.14608500  1.0
  Ni  Ni409  1  0.40123700  0.56806200  0.14608500  1.0
  Ni  Ni410  1  0.40123700  0.90139533  0.14608500  1.0
  Ni  Ni411  1  0.73457033  0.23472867  0.14608500  1.0
  Ni  Ni412  1  0.73457033  0.56806200  0.14608500  1.0
  Ni  Ni413  1  0.73457033  0.90139533  0.14608500  1.0
  Ni  Ni414  1  0.23413733  0.06948400  0.14608500  1.0
  Ni  Ni415  1  0.23413733  0.40281733  0.14608500  1.0
  Ni  Ni416  1  0.23413733  0.73615067  0.14608500  1.0
  Ni  Ni417  1  0.56747067  0.06948400  0.14608500  1.0
  Ni  Ni418  1  0.56747067  0.40281733  0.14608500  1.0
  Ni  Ni419  1  0.56747067  0.73615067  0.14608500  1.0
  Ni  Ni420  1  0.90080400  0.06948400  0.14608500  1.0
  Ni  Ni421  1  0.90080400  0.40281733  0.14608500  1.0
  Ni  Ni422  1  0.90080400  0.73615067  0.14608500  1.0
  Ni  Ni423  1  0.23472867  0.06790367  0.10445792  1.0
  Ni  Ni424  1  0.23472867  0.40123700  0.10445792  1.0
  Ni  Ni425  1  0.23472867  0.73457033  0.10445792  1.0
  Ni  Ni426  1  0.56806200  0.06790367  0.10445792  1.0
  Ni  Ni427  1  0.56806200  0.40123700  0.10445792  1.0
  Ni  Ni428  1  0.56806200  0.73457033  0.10445792  1.0
  Ni  Ni429  1  0.90139533  0.06790367  0.10445792  1.0
  Ni  Ni430  1  0.90139533  0.40123700  0.10445792  1.0
  Ni  Ni431  1  0.90139533  0.73457033  0.10445792  1.0
  Ni  Ni432  1  0.06948400  0.23413733  0.10492167  1.0
  Ni  Ni433  1  0.06948400  0.56747067  0.10492167  1.0
  Ni  Ni434  1  0.06948400  0.90080400  0.10492167  1.0
  Ni  Ni435  1  0.40281733  0.23413733  0.10492167  1.0
  Ni  Ni436  1  0.40281733  0.56747067  0.10492167  1.0
  Ni  Ni437  1  0.40281733  0.90080400  0.10492167  1.0
  Ni  Ni438  1  0.73615067  0.23413733  0.10492167  1.0
  Ni  Ni439  1  0.73615067  0.56747067  0.10492167  1.0
  Ni  Ni440  1  0.73615067  0.90080400  0.10492167  1.0
  Ni  Ni441  1  0.23472867  0.23472867  0.10437875  1.0
  Ni  Ni442  1  0.23472867  0.56806200  0.10437875  1.0
  Ni  Ni443  1  0.23472867  0.90139533  0.10437875  1.0
  Ni  Ni444  1  0.56806200  0.23472867  0.10437875  1.0
  Ni  Ni445  1  0.56806200  0.56806200  0.10437875  1.0
  Ni  Ni446  1  0.56806200  0.90139533  0.10437875  1.0
  Ni  Ni447  1  0.90139533  0.23472867  0.10437875  1.0
  Ni  Ni448  1  0.90139533  0.56806200  0.10437875  1.0
  Ni  Ni449  1  0.90139533  0.90139533  0.10437875  1.0
  Ni  Ni450  1  0.06948400  0.06948400  0.10391500  1.0
  Ni  Ni451  1  0.06948400  0.40281733  0.10391500  1.0
  Ni  Ni452  1  0.06948400  0.73615067  0.10391500  1.0
  Ni  Ni453  1  0.40281733  0.06948400  0.10391500  1.0
  Ni  Ni454  1  0.40281733  0.40281733  0.10391500  1.0
  Ni  Ni455  1  0.40281733  0.73615067  0.10391500  1.0
  Ni  Ni456  1  0.73615067  0.06948400  0.10391500  1.0
  Ni  Ni457  1  0.73615067  0.40281733  0.10391500  1.0
  Ni  Ni458  1  0.73615067  0.73615067  0.10391500  1.0
  Ni  Ni459  1  0.16666667  0.16666667  0.14608500  1.0
  Ni  Ni460  1  0.16666667  0.50000000  0.14608500  1.0
  Ni  Ni461  1  0.16666667  0.83333333  0.14608500  1.0
  Ni  Ni462  1  0.50000000  0.16666667  0.14608500  1.0
  Ni  Ni463  1  0.50000000  0.50000000  0.14608500  1.0
  Ni  Ni464  1  0.50000000  0.83333333  0.14608500  1.0
  Ni  Ni465  1  0.83333333  0.16666667  0.14608500  1.0
  Ni  Ni466  1  0.83333333  0.50000000  0.14608500  1.0
  Ni  Ni467  1  0.83333333  0.83333333  0.14608500  1.0
  Nb  Nb468  1  0.07493267  0.07493267  0.22941833  1.0
  Nb  Nb469  1  0.07493267  0.40826600  0.22941833  1.0
  Nb  Nb470  1  0.07493267  0.74159933  0.22941833  1.0
  Nb  Nb471  1  0.40826600  0.07493267  0.22941833  1.0
  Nb  Nb472  1  0.40826600  0.40826600  0.22941833  1.0
  Nb  Nb473  1  0.40826600  0.74159933  0.22941833  1.0
  Nb  Nb474  1  0.74159933  0.07493267  0.22941833  1.0
  Nb  Nb475  1  0.74159933  0.40826600  0.22941833  1.0
  Nb  Nb476  1  0.74159933  0.74159933  0.22941833  1.0
  Nb  Nb477  1  0.24211633  0.24211633  0.22941833  1.0
  Nb  Nb478  1  0.24211633  0.57544967  0.22941833  1.0
  Nb  Nb479  1  0.24211633  0.90878300  0.22941833  1.0
  Nb  Nb480  1  0.57544967  0.24211633  0.22941833  1.0
  Nb  Nb481  1  0.57544967  0.57544967  0.22941833  1.0
  Nb  Nb482  1  0.57544967  0.90878300  0.22941833  1.0
  Nb  Nb483  1  0.90878300  0.24211633  0.22941833  1.0
  Nb  Nb484  1  0.90878300  0.57544967  0.22941833  1.0
  Nb  Nb485  1  0.90878300  0.90878300  0.22941833  1.0
  Nb  Nb486  1  0.09121700  0.09121700  0.22941833  1.0
  Nb  Nb487  1  0.09121700  0.42455033  0.22941833  1.0
  Nb  Nb488  1  0.09121700  0.75788367  0.22941833  1.0
  Nb  Nb489  1  0.42455033  0.09121700  0.22941833  1.0
  Nb  Nb490  1  0.42455033  0.42455033  0.22941833  1.0
  Nb  Nb491  1  0.42455033  0.75788367  0.22941833  1.0
  Nb  Nb492  1  0.75788367  0.09121700  0.22941833  1.0
  Nb  Nb493  1  0.75788367  0.42455033  0.22941833  1.0
  Nb  Nb494  1  0.75788367  0.75788367  0.22941833  1.0
  Nb  Nb495  1  0.25840067  0.25840067  0.22941833  1.0
  Nb  Nb496  1  0.25840067  0.59173400  0.22941833  1.0
  Nb  Nb497  1  0.25840067  0.92506733  0.22941833  1.0
  Nb  Nb498  1  0.59173400  0.25840067  0.22941833  1.0
  Nb  Nb499  1  0.59173400  0.59173400  0.22941833  1.0
  Nb  Nb500  1  0.59173400  0.92506733  0.22941833  1.0
  Nb  Nb501  1  0.92506733  0.25840067  0.22941833  1.0
  Nb  Nb502  1  0.92506733  0.59173400  0.22941833  1.0
  Nb  Nb503  1  0.92506733  0.92506733  0.22941833  1.0
  Nb  Nb504  1  0.19401133  0.19401133  0.22941833  1.0
  Nb  Nb505  1  0.19401133  0.52734467  0.22941833  1.0
  Nb  Nb506  1  0.19401133  0.86067800  0.22941833  1.0
  Nb  Nb507  1  0.52734467  0.19401133  0.22941833  1.0
  Nb  Nb508  1  0.52734467  0.52734467  0.22941833  1.0
  Nb  Nb509  1  0.52734467  0.86067800  0.22941833  1.0
  Nb  Nb510  1  0.86067800  0.19401133  0.22941833  1.0
  Nb  Nb511  1  0.86067800  0.52734467  0.22941833  1.0
  Nb  Nb512  1  0.86067800  0.86067800  0.22941833  1.0
  Nb  Nb513  1  0.02816667  0.02816667  0.22941833  1.0
  Nb  Nb514  1  0.02816667  0.36150000  0.22941833  1.0
  Nb  Nb515  1  0.02816667  0.69483333  0.22941833  1.0
  Nb  Nb516  1  0.36150000  0.02816667  0.22941833  1.0
  Nb  Nb517  1  0.36150000  0.36150000  0.22941833  1.0
  Nb  Nb518  1  0.36150000  0.69483333  0.22941833  1.0
  Nb  Nb519  1  0.69483333  0.02816667  0.22941833  1.0
  Nb  Nb520  1  0.69483333  0.36150000  0.22941833  1.0
  Nb  Nb521  1  0.69483333  0.69483333  0.22941833  1.0
  Nb  Nb522  1  0.30516667  0.30516667  0.22941833  1.0
  Nb  Nb523  1  0.30516667  0.63850000  0.22941833  1.0
  Nb  Nb524  1  0.30516667  0.97183333  0.22941833  1.0
  Nb  Nb525  1  0.63850000  0.30516667  0.22941833  1.0
  Nb  Nb526  1  0.63850000  0.63850000  0.22941833  1.0
  Nb  Nb527  1  0.63850000  0.97183333  0.22941833  1.0
  Nb  Nb528  1  0.97183333  0.30516667  0.22941833  1.0
  Nb  Nb529  1  0.97183333  0.63850000  0.22941833  1.0
  Nb  Nb530  1  0.97183333  0.97183333  0.22941833  1.0
  Nb  Nb531  1  0.13932200  0.13932200  0.22941833  1.0
  Nb  Nb532  1  0.13932200  0.47265533  0.22941833  1.0
  Nb  Nb533  1  0.13932200  0.80598867  0.22941833  1.0
  Nb  Nb534  1  0.47265533  0.13932200  0.22941833  1.0
  Nb  Nb535  1  0.47265533  0.47265533  0.22941833  1.0
  Nb  Nb536  1  0.47265533  0.80598867  0.22941833  1.0
  Nb  Nb537  1  0.80598867  0.13932200  0.22941833  1.0
  Nb  Nb538  1  0.80598867  0.47265533  0.22941833  1.0
  Nb  Nb539  1  0.80598867  0.80598867  0.22941833  1.0
  Nb  Nb540  1  0.05767000  0.05767000  0.22941833  1.0
  Nb  Nb541  1  0.05767000  0.39100333  0.22941833  1.0
  Nb  Nb542  1  0.05767000  0.72433667  0.22941833  1.0
  Nb  Nb543  1  0.39100333  0.05767000  0.22941833  1.0
  Nb  Nb544  1  0.39100333  0.39100333  0.22941833  1.0
  Nb  Nb545  1  0.39100333  0.72433667  0.22941833  1.0
  Nb  Nb546  1  0.72433667  0.05767000  0.22941833  1.0
  Nb  Nb547  1  0.72433667  0.39100333  0.22941833  1.0
  Nb  Nb548  1  0.72433667  0.72433667  0.22941833  1.0
  Nb  Nb549  1  0.22445733  0.22445733  0.22941833  1.0
  Nb  Nb550  1  0.22445733  0.55779067  0.22941833  1.0
  Nb  Nb551  1  0.22445733  0.89112400  0.22941833  1.0
  Nb  Nb552  1  0.55779067  0.22445733  0.22941833  1.0
  Nb  Nb553  1  0.55779067  0.55779067  0.22941833  1.0
  Nb  Nb554  1  0.55779067  0.89112400  0.22941833  1.0
  Nb  Nb555  1  0.89112400  0.22445733  0.22941833  1.0
  Nb  Nb556  1  0.89112400  0.55779067  0.22941833  1.0
  Nb  Nb557  1  0.89112400  0.89112400  0.22941833  1.0
  Nb  Nb558  1  0.10887600  0.10887600  0.22941833  1.0
  Nb  Nb559  1  0.10887600  0.44220933  0.22941833  1.0
  Nb  Nb560  1  0.10887600  0.77554267  0.22941833  1.0
  Nb  Nb561  1  0.44220933  0.10887600  0.22941833  1.0
  Nb  Nb562  1  0.44220933  0.44220933  0.22941833  1.0
  Nb  Nb563  1  0.44220933  0.77554267  0.22941833  1.0
  Nb  Nb564  1  0.77554267  0.10887600  0.22941833  1.0
  Nb  Nb565  1  0.77554267  0.44220933  0.22941833  1.0
  Nb  Nb566  1  0.77554267  0.77554267  0.22941833  1.0
  Nb  Nb567  1  0.27566333  0.27566333  0.22941833  1.0
  Nb  Nb568  1  0.27566333  0.60899667  0.22941833  1.0
  Nb  Nb569  1  0.27566333  0.94233000  0.22941833  1.0
  Nb  Nb570  1  0.60899667  0.27566333  0.22941833  1.0
  Nb  Nb571  1  0.60899667  0.60899667  0.22941833  1.0
  Nb  Nb572  1  0.60899667  0.94233000  0.22941833  1.0
  Nb  Nb573  1  0.94233000  0.27566333  0.22941833  1.0
  Nb  Nb574  1  0.94233000  0.60899667  0.22941833  1.0
  Nb  Nb575  1  0.94233000  0.94233000  0.22941833  1.0
  Nb  Nb576  1  0.00000000  0.00000000  0.22941833  1.0
  Nb  Nb577  1  0.00000000  0.33333333  0.22941833  1.0
  Nb  Nb578  1  0.00000000  0.66666667  0.22941833  1.0
  Nb  Nb579  1  0.33333333  0.00000000  0.22941833  1.0
  Nb  Nb580  1  0.33333333  0.33333333  0.22941833  1.0
  Nb  Nb581  1  0.33333333  0.66666667  0.22941833  1.0
  Nb  Nb582  1  0.66666667  0.00000000  0.22941833  1.0
  Nb  Nb583  1  0.66666667  0.33333333  0.22941833  1.0
  Nb  Nb584  1  0.66666667  0.66666667  0.22941833  1.0
  Ni  Ni585  1  0.09919600  0.26384933  0.22941833  1.0
  Ni  Ni586  1  0.09919600  0.59718267  0.22941833  1.0
  Ni  Ni587  1  0.09919600  0.93051600  0.22941833  1.0
  Ni  Ni588  1  0.43252933  0.26384933  0.22941833  1.0
  Ni  Ni589  1  0.43252933  0.59718267  0.22941833  1.0
  Ni  Ni590  1  0.43252933  0.93051600  0.22941833  1.0
  Ni  Ni591  1  0.76586267  0.26384933  0.22941833  1.0
  Ni  Ni592  1  0.76586267  0.59718267  0.22941833  1.0
  Ni  Ni593  1  0.76586267  0.93051600  0.22941833  1.0
  Ni  Ni594  1  0.26542967  0.09860467  0.22941833  1.0
  Ni  Ni595  1  0.26542967  0.43193800  0.22941833  1.0
  Ni  Ni596  1  0.26542967  0.76527133  0.22941833  1.0
  Ni  Ni597  1  0.59876300  0.09860467  0.22941833  1.0
  Ni  Ni598  1  0.59876300  0.43193800  0.22941833  1.0
  Ni  Ni599  1  0.59876300  0.76527133  0.22941833  1.0
  Ni  Ni600  1  0.93209633  0.09860467  0.22941833  1.0
  Ni  Ni601  1  0.93209633  0.43193800  0.22941833  1.0
  Ni  Ni602  1  0.93209633  0.76527133  0.22941833  1.0
  Ni  Ni603  1  0.26384933  0.09919600  0.18724833  1.0
  Ni  Ni604  1  0.26384933  0.43252933  0.18724833  1.0
  Ni  Ni605  1  0.26384933  0.76586267  0.18724833  1.0
  Ni  Ni606  1  0.59718267  0.09919600  0.18724833  1.0
  Ni  Ni607  1  0.59718267  0.43252933  0.18724833  1.0
  Ni  Ni608  1  0.59718267  0.76586267  0.18724833  1.0
  Ni  Ni609  1  0.93051600  0.09919600  0.18724833  1.0
  Ni  Ni610  1  0.93051600  0.43252933  0.18724833  1.0
  Ni  Ni611  1  0.93051600  0.76586267  0.18724833  1.0
  Ni  Ni612  1  0.09860467  0.26542967  0.18771208  1.0
  Ni  Ni613  1  0.09860467  0.59876300  0.18771208  1.0
  Ni  Ni614  1  0.09860467  0.93209633  0.18771208  1.0
  Ni  Ni615  1  0.43193800  0.26542967  0.18771208  1.0
  Ni  Ni616  1  0.43193800  0.59876300  0.18771208  1.0
  Ni  Ni617  1  0.43193800  0.93209633  0.18771208  1.0
  Ni  Ni618  1  0.76527133  0.26542967  0.18771208  1.0
  Ni  Ni619  1  0.76527133  0.59876300  0.18771208  1.0
  Ni  Ni620  1  0.76527133  0.93209633  0.18771208  1.0
  Ni  Ni621  1  0.26384933  0.26384933  0.18825500  1.0
  Ni  Ni622  1  0.26384933  0.59718267  0.18825500  1.0
  Ni  Ni623  1  0.26384933  0.93051600  0.18825500  1.0
  Ni  Ni624  1  0.59718267  0.26384933  0.18825500  1.0
  Ni  Ni625  1  0.59718267  0.59718267  0.18825500  1.0
  Ni  Ni626  1  0.59718267  0.93051600  0.18825500  1.0
  Ni  Ni627  1  0.93051600  0.26384933  0.18825500  1.0
  Ni  Ni628  1  0.93051600  0.59718267  0.18825500  1.0
  Ni  Ni629  1  0.93051600  0.93051600  0.18825500  1.0
  Ni  Ni630  1  0.09860467  0.09860467  0.18779125  1.0
  Ni  Ni631  1  0.09860467  0.43193800  0.18779125  1.0
  Ni  Ni632  1  0.09860467  0.76527133  0.18779125  1.0
  Ni  Ni633  1  0.43193800  0.09860467  0.18779125  1.0
  Ni  Ni634  1  0.43193800  0.43193800  0.18779125  1.0
  Ni  Ni635  1  0.43193800  0.76527133  0.18779125  1.0
  Ni  Ni636  1  0.76527133  0.09860467  0.18779125  1.0
  Ni  Ni637  1  0.76527133  0.43193800  0.18779125  1.0
  Ni  Ni638  1  0.76527133  0.76527133  0.18779125  1.0
  Ni  Ni639  1  0.06790367  0.23472867  0.22941833  1.0
  Ni  Ni640  1  0.06790367  0.56806200  0.22941833  1.0
  Ni  Ni641  1  0.06790367  0.90139533  0.22941833  1.0
  Ni  Ni642  1  0.40123700  0.23472867  0.22941833  1.0
  Ni  Ni643  1  0.40123700  0.56806200  0.22941833  1.0
  Ni  Ni644  1  0.40123700  0.90139533  0.22941833  1.0
  Ni  Ni645  1  0.73457033  0.23472867  0.22941833  1.0
  Ni  Ni646  1  0.73457033  0.56806200  0.22941833  1.0
  Ni  Ni647  1  0.73457033  0.90139533  0.22941833  1.0
  Ni  Ni648  1  0.23413733  0.06948400  0.22941833  1.0
  Ni  Ni649  1  0.23413733  0.40281733  0.22941833  1.0
  Ni  Ni650  1  0.23413733  0.73615067  0.22941833  1.0
  Ni  Ni651  1  0.56747067  0.06948400  0.22941833  1.0
  Ni  Ni652  1  0.56747067  0.40281733  0.22941833  1.0
  Ni  Ni653  1  0.56747067  0.73615067  0.22941833  1.0
  Ni  Ni654  1  0.90080400  0.06948400  0.22941833  1.0
  Ni  Ni655  1  0.90080400  0.40281733  0.22941833  1.0
  Ni  Ni656  1  0.90080400  0.73615067  0.22941833  1.0
  Ni  Ni657  1  0.23472867  0.06790367  0.18779125  1.0
  Ni  Ni658  1  0.23472867  0.40123700  0.18779125  1.0
  Ni  Ni659  1  0.23472867  0.73457033  0.18779125  1.0
  Ni  Ni660  1  0.56806200  0.06790367  0.18779125  1.0
  Ni  Ni661  1  0.56806200  0.40123700  0.18779125  1.0
  Ni  Ni662  1  0.56806200  0.73457033  0.18779125  1.0
  Ni  Ni663  1  0.90139533  0.06790367  0.18779125  1.0
  Ni  Ni664  1  0.90139533  0.40123700  0.18779125  1.0
  Ni  Ni665  1  0.90139533  0.73457033  0.18779125  1.0
  Ni  Ni666  1  0.06948400  0.23413733  0.18825500  1.0
  Ni  Ni667  1  0.06948400  0.56747067  0.18825500  1.0
  Ni  Ni668  1  0.06948400  0.90080400  0.18825500  1.0
  Ni  Ni669  1  0.40281733  0.23413733  0.18825500  1.0
  Ni  Ni670  1  0.40281733  0.56747067  0.18825500  1.0
  Ni  Ni671  1  0.40281733  0.90080400  0.18825500  1.0
  Ni  Ni672  1  0.73615067  0.23413733  0.18825500  1.0
  Ni  Ni673  1  0.73615067  0.56747067  0.18825500  1.0
  Ni  Ni674  1  0.73615067  0.90080400  0.18825500  1.0
  Ni  Ni675  1  0.23472867  0.23472867  0.18771208  1.0
  Ni  Ni676  1  0.23472867  0.56806200  0.18771208  1.0
  Ni  Ni677  1  0.23472867  0.90139533  0.18771208  1.0
  Ni  Ni678  1  0.56806200  0.23472867  0.18771208  1.0
  Ni  Ni679  1  0.56806200  0.56806200  0.18771208  1.0
  Ni  Ni680  1  0.56806200  0.90139533  0.18771208  1.0
  Ni  Ni681  1  0.90139533  0.23472867  0.18771208  1.0
  Ni  Ni682  1  0.90139533  0.56806200  0.18771208  1.0
  Ni  Ni683  1  0.90139533  0.90139533  0.18771208  1.0
  Ni  Ni684  1  0.06948400  0.06948400  0.18724833  1.0
  Ni  Ni685  1  0.06948400  0.40281733  0.18724833  1.0
  Ni  Ni686  1  0.06948400  0.73615067  0.18724833  1.0
  Ni  Ni687  1  0.40281733  0.06948400  0.18724833  1.0
  Ni  Ni688  1  0.40281733  0.40281733  0.18724833  1.0
  Ni  Ni689  1  0.40281733  0.73615067  0.18724833  1.0
  Ni  Ni690  1  0.73615067  0.06948400  0.18724833  1.0
  Ni  Ni691  1  0.73615067  0.40281733  0.18724833  1.0
  Ni  Ni692  1  0.73615067  0.73615067  0.18724833  1.0
  Ni  Ni693  1  0.16666667  0.16666667  0.22941833  1.0
  Ni  Ni694  1  0.16666667  0.50000000  0.22941833  1.0
  Ni  Ni695  1  0.16666667  0.83333333  0.22941833  1.0
  Ni  Ni696  1  0.50000000  0.16666667  0.22941833  1.0
  Ni  Ni697  1  0.50000000  0.50000000  0.22941833  1.0
  Ni  Ni698  1  0.50000000  0.83333333  0.22941833  1.0
  Ni  Ni699  1  0.83333333  0.16666667  0.22941833  1.0
  Ni  Ni700  1  0.83333333  0.50000000  0.22941833  1.0
  Ni  Ni701  1  0.83333333  0.83333333  0.22941833  1.0
  Nb  Nb702  1  0.07493267  0.07493267  0.31275167  1.0
  Nb  Nb703  1  0.07493267  0.40826600  0.31275167  1.0
  Nb  Nb704  1  0.07493267  0.74159933  0.31275167  1.0
  Nb  Nb705  1  0.40826600  0.07493267  0.31275167  1.0
  Nb  Nb706  1  0.40826600  0.40826600  0.31275167  1.0
  Nb  Nb707  1  0.40826600  0.74159933  0.31275167  1.0
  Nb  Nb708  1  0.74159933  0.07493267  0.31275167  1.0
  Nb  Nb709  1  0.74159933  0.40826600  0.31275167  1.0
  Nb  Nb710  1  0.74159933  0.74159933  0.31275167  1.0
  Nb  Nb711  1  0.24211633  0.24211633  0.31275167  1.0
  Nb  Nb712  1  0.24211633  0.57544967  0.31275167  1.0
  Nb  Nb713  1  0.24211633  0.90878300  0.31275167  1.0
  Nb  Nb714  1  0.57544967  0.24211633  0.31275167  1.0
  Nb  Nb715  1  0.57544967  0.57544967  0.31275167  1.0
  Nb  Nb716  1  0.57544967  0.90878300  0.31275167  1.0
  Nb  Nb717  1  0.90878300  0.24211633  0.31275167  1.0
  Nb  Nb718  1  0.90878300  0.57544967  0.31275167  1.0
  Nb  Nb719  1  0.90878300  0.90878300  0.31275167  1.0
  Nb  Nb720  1  0.09121700  0.09121700  0.31275167  1.0
  Nb  Nb721  1  0.09121700  0.42455033  0.31275167  1.0
  Nb  Nb722  1  0.09121700  0.75788367  0.31275167  1.0
  Nb  Nb723  1  0.42455033  0.09121700  0.31275167  1.0
  Nb  Nb724  1  0.42455033  0.42455033  0.31275167  1.0
  Nb  Nb725  1  0.42455033  0.75788367  0.31275167  1.0
  Nb  Nb726  1  0.75788367  0.09121700  0.31275167  1.0
  Nb  Nb727  1  0.75788367  0.42455033  0.31275167  1.0
  Nb  Nb728  1  0.75788367  0.75788367  0.31275167  1.0
  Nb  Nb729  1  0.25840067  0.25840067  0.31275167  1.0
  Nb  Nb730  1  0.25840067  0.59173400  0.31275167  1.0
  Nb  Nb731  1  0.25840067  0.92506733  0.31275167  1.0
  Nb  Nb732  1  0.59173400  0.25840067  0.31275167  1.0
  Nb  Nb733  1  0.59173400  0.59173400  0.31275167  1.0
  Nb  Nb734  1  0.59173400  0.92506733  0.31275167  1.0
  Nb  Nb735  1  0.92506733  0.25840067  0.31275167  1.0
  Nb  Nb736  1  0.92506733  0.59173400  0.31275167  1.0
  Nb  Nb737  1  0.92506733  0.92506733  0.31275167  1.0
  Nb  Nb738  1  0.19401133  0.19401133  0.31275167  1.0
  Nb  Nb739  1  0.19401133  0.52734467  0.31275167  1.0
  Nb  Nb740  1  0.19401133  0.86067800  0.31275167  1.0
  Nb  Nb741  1  0.52734467  0.19401133  0.31275167  1.0
  Nb  Nb742  1  0.52734467  0.52734467  0.31275167  1.0
  Nb  Nb743  1  0.52734467  0.86067800  0.31275167  1.0
  Nb  Nb744  1  0.86067800  0.19401133  0.31275167  1.0
  Nb  Nb745  1  0.86067800  0.52734467  0.31275167  1.0
  Nb  Nb746  1  0.86067800  0.86067800  0.31275167  1.0
  Nb  Nb747  1  0.02816667  0.02816667  0.31275167  1.0
  Nb  Nb748  1  0.02816667  0.36150000  0.31275167  1.0
  Nb  Nb749  1  0.02816667  0.69483333  0.31275167  1.0
  Nb  Nb750  1  0.36150000  0.02816667  0.31275167  1.0
  Nb  Nb751  1  0.36150000  0.36150000  0.31275167  1.0
  Nb  Nb752  1  0.36150000  0.69483333  0.31275167  1.0
  Nb  Nb753  1  0.69483333  0.02816667  0.31275167  1.0
  Nb  Nb754  1  0.69483333  0.36150000  0.31275167  1.0
  Nb  Nb755  1  0.69483333  0.69483333  0.31275167  1.0
  Nb  Nb756  1  0.30516667  0.30516667  0.31275167  1.0
  Nb  Nb757  1  0.30516667  0.63850000  0.31275167  1.0
  Nb  Nb758  1  0.30516667  0.97183333  0.31275167  1.0
  Nb  Nb759  1  0.63850000  0.30516667  0.31275167  1.0
  Nb  Nb760  1  0.63850000  0.63850000  0.31275167  1.0
  Nb  Nb761  1  0.63850000  0.97183333  0.31275167  1.0
  Nb  Nb762  1  0.97183333  0.30516667  0.31275167  1.0
  Nb  Nb763  1  0.97183333  0.63850000  0.31275167  1.0
  Nb  Nb764  1  0.97183333  0.97183333  0.31275167  1.0
  Nb  Nb765  1  0.13932200  0.13932200  0.31275167  1.0
  Nb  Nb766  1  0.13932200  0.47265533  0.31275167  1.0
  Nb  Nb767  1  0.13932200  0.80598867  0.31275167  1.0
  Nb  Nb768  1  0.47265533  0.13932200  0.31275167  1.0
  Nb  Nb769  1  0.47265533  0.47265533  0.31275167  1.0
  Nb  Nb770  1  0.47265533  0.80598867  0.31275167  1.0
  Nb  Nb771  1  0.80598867  0.13932200  0.31275167  1.0
  Nb  Nb772  1  0.80598867  0.47265533  0.31275167  1.0
  Nb  Nb773  1  0.80598867  0.80598867  0.31275167  1.0
  Nb  Nb774  1  0.05767000  0.05767000  0.31275167  1.0
  Nb  Nb775  1  0.05767000  0.39100333  0.31275167  1.0
  Nb  Nb776  1  0.05767000  0.72433667  0.31275167  1.0
  Nb  Nb777  1  0.39100333  0.05767000  0.31275167  1.0
  Nb  Nb778  1  0.39100333  0.39100333  0.31275167  1.0
  Nb  Nb779  1  0.39100333  0.72433667  0.31275167  1.0
  Nb  Nb780  1  0.72433667  0.05767000  0.31275167  1.0
  Nb  Nb781  1  0.72433667  0.39100333  0.31275167  1.0
  Nb  Nb782  1  0.72433667  0.72433667  0.31275167  1.0
  Nb  Nb783  1  0.22445733  0.22445733  0.31275167  1.0
  Nb  Nb784  1  0.22445733  0.55779067  0.31275167  1.0
  Nb  Nb785  1  0.22445733  0.89112400  0.31275167  1.0
  Nb  Nb786  1  0.55779067  0.22445733  0.31275167  1.0
  Nb  Nb787  1  0.55779067  0.55779067  0.31275167  1.0
  Nb  Nb788  1  0.55779067  0.89112400  0.31275167  1.0
  Nb  Nb789  1  0.89112400  0.22445733  0.31275167  1.0
  Nb  Nb790  1  0.89112400  0.55779067  0.31275167  1.0
  Nb  Nb791  1  0.89112400  0.89112400  0.31275167  1.0
  Nb  Nb792  1  0.10887600  0.10887600  0.31275167  1.0
  Nb  Nb793  1  0.10887600  0.44220933  0.31275167  1.0
  Nb  Nb794  1  0.10887600  0.77554267  0.31275167  1.0
  Nb  Nb795  1  0.44220933  0.10887600  0.31275167  1.0
  Nb  Nb796  1  0.44220933  0.44220933  0.31275167  1.0
  Nb  Nb797  1  0.44220933  0.77554267  0.31275167  1.0
  Nb  Nb798  1  0.77554267  0.10887600  0.31275167  1.0
  Nb  Nb799  1  0.77554267  0.44220933  0.31275167  1.0
  Nb  Nb800  1  0.77554267  0.77554267  0.31275167  1.0
  Nb  Nb801  1  0.27566333  0.27566333  0.31275167  1.0
  Nb  Nb802  1  0.27566333  0.60899667  0.31275167  1.0
  Nb  Nb803  1  0.27566333  0.94233000  0.31275167  1.0
  Nb  Nb804  1  0.60899667  0.27566333  0.31275167  1.0
  Nb  Nb805  1  0.60899667  0.60899667  0.31275167  1.0
  Nb  Nb806  1  0.60899667  0.94233000  0.31275167  1.0
  Nb  Nb807  1  0.94233000  0.27566333  0.31275167  1.0
  Nb  Nb808  1  0.94233000  0.60899667  0.31275167  1.0
  Nb  Nb809  1  0.94233000  0.94233000  0.31275167  1.0
  Nb  Nb810  1  0.00000000  0.00000000  0.31275167  1.0
  Nb  Nb811  1  0.00000000  0.33333333  0.31275167  1.0
  Nb  Nb812  1  0.00000000  0.66666667  0.31275167  1.0
  Nb  Nb813  1  0.33333333  0.00000000  0.31275167  1.0
  Nb  Nb814  1  0.33333333  0.33333333  0.31275167  1.0
  Nb  Nb815  1  0.33333333  0.66666667  0.31275167  1.0
  Nb  Nb816  1  0.66666667  0.00000000  0.31275167  1.0
  Nb  Nb817  1  0.66666667  0.33333333  0.31275167  1.0
  Nb  Nb818  1  0.66666667  0.66666667  0.31275167  1.0
  Ni  Ni819  1  0.09919600  0.26384933  0.31275167  1.0
  Ni  Ni820  1  0.09919600  0.59718267  0.31275167  1.0
  Ni  Ni821  1  0.09919600  0.93051600  0.31275167  1.0
  Ni  Ni822  1  0.43252933  0.26384933  0.31275167  1.0
  Ni  Ni823  1  0.43252933  0.59718267  0.31275167  1.0
  Ni  Ni824  1  0.43252933  0.93051600  0.31275167  1.0
  Ni  Ni825  1  0.76586267  0.26384933  0.31275167  1.0
  Ni  Ni826  1  0.76586267  0.59718267  0.31275167  1.0
  Ni  Ni827  1  0.76586267  0.93051600  0.31275167  1.0
  Ni  Ni828  1  0.26542967  0.09860467  0.31275167  1.0
  Ni  Ni829  1  0.26542967  0.43193800  0.31275167  1.0
  Ni  Ni830  1  0.26542967  0.76527133  0.31275167  1.0
  Ni  Ni831  1  0.59876300  0.09860467  0.31275167  1.0
  Ni  Ni832  1  0.59876300  0.43193800  0.31275167  1.0
  Ni  Ni833  1  0.59876300  0.76527133  0.31275167  1.0
  Ni  Ni834  1  0.93209633  0.09860467  0.31275167  1.0
  Ni  Ni835  1  0.93209633  0.43193800  0.31275167  1.0
  Ni  Ni836  1  0.93209633  0.76527133  0.31275167  1.0
  Ni  Ni837  1  0.26384933  0.09919600  0.27058167  1.0
  Ni  Ni838  1  0.26384933  0.43252933  0.27058167  1.0
  Ni  Ni839  1  0.26384933  0.76586267  0.27058167  1.0
  Ni  Ni840  1  0.59718267  0.09919600  0.27058167  1.0
  Ni  Ni841  1  0.59718267  0.43252933  0.27058167  1.0
  Ni  Ni842  1  0.59718267  0.76586267  0.27058167  1.0
  Ni  Ni843  1  0.93051600  0.09919600  0.27058167  1.0
  Ni  Ni844  1  0.93051600  0.43252933  0.27058167  1.0
  Ni  Ni845  1  0.93051600  0.76586267  0.27058167  1.0
  Ni  Ni846  1  0.09860467  0.26542967  0.27104542  1.0
  Ni  Ni847  1  0.09860467  0.59876300  0.27104542  1.0
  Ni  Ni848  1  0.09860467  0.93209633  0.27104542  1.0
  Ni  Ni849  1  0.43193800  0.26542967  0.27104542  1.0
  Ni  Ni850  1  0.43193800  0.59876300  0.27104542  1.0
  Ni  Ni851  1  0.43193800  0.93209633  0.27104542  1.0
  Ni  Ni852  1  0.76527133  0.26542967  0.27104542  1.0
  Ni  Ni853  1  0.76527133  0.59876300  0.27104542  1.0
  Ni  Ni854  1  0.76527133  0.93209633  0.27104542  1.0
  Ni  Ni855  1  0.26384933  0.26384933  0.27158833  1.0
  Ni  Ni856  1  0.26384933  0.59718267  0.27158833  1.0
  Ni  Ni857  1  0.26384933  0.93051600  0.27158833  1.0
  Ni  Ni858  1  0.59718267  0.26384933  0.27158833  1.0
  Ni  Ni859  1  0.59718267  0.59718267  0.27158833  1.0
  Ni  Ni860  1  0.59718267  0.93051600  0.27158833  1.0
  Ni  Ni861  1  0.93051600  0.26384933  0.27158833  1.0
  Ni  Ni862  1  0.93051600  0.59718267  0.27158833  1.0
  Ni  Ni863  1  0.93051600  0.93051600  0.27158833  1.0
  Ni  Ni864  1  0.09860467  0.09860467  0.27112458  1.0
  Ni  Ni865  1  0.09860467  0.43193800  0.27112458  1.0
  Ni  Ni866  1  0.09860467  0.76527133  0.27112458  1.0
  Ni  Ni867  1  0.43193800  0.09860467  0.27112458  1.0
  Ni  Ni868  1  0.43193800  0.43193800  0.27112458  1.0
  Ni  Ni869  1  0.43193800  0.76527133  0.27112458  1.0
  Ni  Ni870  1  0.76527133  0.09860467  0.27112458  1.0
  Ni  Ni871  1  0.76527133  0.43193800  0.27112458  1.0
  Ni  Ni872  1  0.76527133  0.76527133  0.27112458  1.0
  Ni  Ni873  1  0.06790367  0.23472867  0.31275167  1.0
  Ni  Ni874  1  0.06790367  0.56806200  0.31275167  1.0
  Ni  Ni875  1  0.06790367  0.90139533  0.31275167  1.0
  Ni  Ni876  1  0.40123700  0.23472867  0.31275167  1.0
  Ni  Ni877  1  0.40123700  0.56806200  0.31275167  1.0
  Ni  Ni878  1  0.40123700  0.90139533  0.31275167  1.0
  Ni  Ni879  1  0.73457033  0.23472867  0.31275167  1.0
  Ni  Ni880  1  0.73457033  0.56806200  0.31275167  1.0
  Ni  Ni881  1  0.73457033  0.90139533  0.31275167  1.0
  Ni  Ni882  1  0.23413733  0.06948400  0.31275167  1.0
  Ni  Ni883  1  0.23413733  0.40281733  0.31275167  1.0
  Ni  Ni884  1  0.23413733  0.73615067  0.31275167  1.0
  Ni  Ni885  1  0.56747067  0.06948400  0.31275167  1.0
  Ni  Ni886  1  0.56747067  0.40281733  0.31275167  1.0
  Ni  Ni887  1  0.56747067  0.73615067  0.31275167  1.0
  Ni  Ni888  1  0.90080400  0.06948400  0.31275167  1.0
  Ni  Ni889  1  0.90080400  0.40281733  0.31275167  1.0
  Ni  Ni890  1  0.90080400  0.73615067  0.31275167  1.0
  Ni  Ni891  1  0.23472867  0.06790367  0.27112458  1.0
  Ni  Ni892  1  0.23472867  0.40123700  0.27112458  1.0
  Ni  Ni893  1  0.23472867  0.73457033  0.27112458  1.0
  Ni  Ni894  1  0.56806200  0.06790367  0.27112458  1.0
  Ni  Ni895  1  0.56806200  0.40123700  0.27112458  1.0
  Ni  Ni896  1  0.56806200  0.73457033  0.27112458  1.0
  Ni  Ni897  1  0.90139533  0.06790367  0.27112458  1.0
  Ni  Ni898  1  0.90139533  0.40123700  0.27112458  1.0
  Ni  Ni899  1  0.90139533  0.73457033  0.27112458  1.0
  Ni  Ni900  1  0.06948400  0.23413733  0.27158833  1.0
  Ni  Ni901  1  0.06948400  0.56747067  0.27158833  1.0
  Ni  Ni902  1  0.06948400  0.90080400  0.27158833  1.0
  Ni  Ni903  1  0.40281733  0.23413733  0.27158833  1.0
  Ni  Ni904  1  0.40281733  0.56747067  0.27158833  1.0
  Ni  Ni905  1  0.40281733  0.90080400  0.27158833  1.0
  Ni  Ni906  1  0.73615067  0.23413733  0.27158833  1.0
  Ni  Ni907  1  0.73615067  0.56747067  0.27158833  1.0
  Ni  Ni908  1  0.73615067  0.90080400  0.27158833  1.0
  Ni  Ni909  1  0.23472867  0.23472867  0.27104542  1.0
  Ni  Ni910  1  0.23472867  0.56806200  0.27104542  1.0
  Ni  Ni911  1  0.23472867  0.90139533  0.27104542  1.0
  Ni  Ni912  1  0.56806200  0.23472867  0.27104542  1.0
  Ni  Ni913  1  0.56806200  0.56806200  0.27104542  1.0
  Ni  Ni914  1  0.56806200  0.90139533  0.27104542  1.0
  Ni  Ni915  1  0.90139533  0.23472867  0.27104542  1.0
  Ni  Ni916  1  0.90139533  0.56806200  0.27104542  1.0
  Ni  Ni917  1  0.90139533  0.90139533  0.27104542  1.0
  Ni  Ni918  1  0.06948400  0.06948400  0.27058167  1.0
  Ni  Ni919  1  0.06948400  0.40281733  0.27058167  1.0
  Ni  Ni920  1  0.06948400  0.73615067  0.27058167  1.0
  Ni  Ni921  1  0.40281733  0.06948400  0.27058167  1.0
  Ni  Ni922  1  0.40281733  0.40281733  0.27058167  1.0
  Ni  Ni923  1  0.40281733  0.73615067  0.27058167  1.0
  Ni  Ni924  1  0.73615067  0.06948400  0.27058167  1.0
  Ni  Ni925  1  0.73615067  0.40281733  0.27058167  1.0
  Ni  Ni926  1  0.73615067  0.73615067  0.27058167  1.0
  Ni  Ni927  1  0.16666667  0.16666667  0.31275167  1.0
  Ni  Ni928  1  0.16666667  0.50000000  0.31275167  1.0
  Ni  Ni929  1  0.16666667  0.83333333  0.31275167  1.0
  Ni  Ni930  1  0.50000000  0.16666667  0.31275167  1.0
  Ni  Ni931  1  0.50000000  0.50000000  0.31275167  1.0
  Ni  Ni932  1  0.50000000  0.83333333  0.31275167  1.0
  Ni  Ni933  1  0.83333333  0.16666667  0.31275167  1.0
  Ni  Ni934  1  0.83333333  0.50000000  0.31275167  1.0
  Ni  Ni935  1  0.83333333  0.83333333  0.31275167  1.0
  Nb  Nb936  1  0.07493267  0.07493267  0.39608500  1.0
  Nb  Nb937  1  0.07493267  0.40826600  0.39608500  1.0
  Nb  Nb938  1  0.07493267  0.74159933  0.39608500  1.0
  Nb  Nb939  1  0.40826600  0.07493267  0.39608500  1.0
  Nb  Nb940  1  0.40826600  0.40826600  0.39608500  1.0
  Nb  Nb941  1  0.40826600  0.74159933  0.39608500  1.0
  Nb  Nb942  1  0.74159933  0.07493267  0.39608500  1.0
  Nb  Nb943  1  0.74159933  0.40826600  0.39608500  1.0
  Nb  Nb944  1  0.74159933  0.74159933  0.39608500  1.0
  Nb  Nb945  1  0.24211633  0.24211633  0.39608500  1.0
  Nb  Nb946  1  0.24211633  0.57544967  0.39608500  1.0
  Nb  Nb947  1  0.24211633  0.90878300  0.39608500  1.0
  Nb  Nb948  1  0.57544967  0.24211633  0.39608500  1.0
  Nb  Nb949  1  0.57544967  0.57544967  0.39608500  1.0
  Nb  Nb950  1  0.57544967  0.90878300  0.39608500  1.0
  Nb  Nb951  1  0.90878300  0.24211633  0.39608500  1.0
  Nb  Nb952  1  0.90878300  0.57544967  0.39608500  1.0
  Nb  Nb953  1  0.90878300  0.90878300  0.39608500  1.0
  Nb  Nb954  1  0.09121700  0.09121700  0.39608500  1.0
  Nb  Nb955  1  0.09121700  0.42455033  0.39608500  1.0
  Nb  Nb956  1  0.09121700  0.75788367  0.39608500  1.0
  Nb  Nb957  1  0.42455033  0.09121700  0.39608500  1.0
  Nb  Nb958  1  0.42455033  0.42455033  0.39608500  1.0
  Nb  Nb959  1  0.42455033  0.75788367  0.39608500  1.0
  Nb  Nb960  1  0.75788367  0.09121700  0.39608500  1.0
  Nb  Nb961  1  0.75788367  0.42455033  0.39608500  1.0
  Nb  Nb962  1  0.75788367  0.75788367  0.39608500  1.0
  Nb  Nb963  1  0.25840067  0.25840067  0.39608500  1.0
  Nb  Nb964  1  0.25840067  0.59173400  0.39608500  1.0
  Nb  Nb965  1  0.25840067  0.92506733  0.39608500  1.0
  Nb  Nb966  1  0.59173400  0.25840067  0.39608500  1.0
  Nb  Nb967  1  0.59173400  0.59173400  0.39608500  1.0
  Nb  Nb968  1  0.59173400  0.92506733  0.39608500  1.0
  Nb  Nb969  1  0.92506733  0.25840067  0.39608500  1.0
  Nb  Nb970  1  0.92506733  0.59173400  0.39608500  1.0
  Nb  Nb971  1  0.92506733  0.92506733  0.39608500  1.0
  Nb  Nb972  1  0.19401133  0.19401133  0.39608500  1.0
  Nb  Nb973  1  0.19401133  0.52734467  0.39608500  1.0
  Nb  Nb974  1  0.19401133  0.86067800  0.39608500  1.0
  Nb  Nb975  1  0.52734467  0.19401133  0.39608500  1.0
  Nb  Nb976  1  0.52734467  0.52734467  0.39608500  1.0
  Nb  Nb977  1  0.52734467  0.86067800  0.39608500  1.0
  Nb  Nb978  1  0.86067800  0.19401133  0.39608500  1.0
  Nb  Nb979  1  0.86067800  0.52734467  0.39608500  1.0
  Nb  Nb980  1  0.86067800  0.86067800  0.39608500  1.0
  Nb  Nb981  1  0.02816667  0.02816667  0.39608500  1.0
  Nb  Nb982  1  0.02816667  0.36150000  0.39608500  1.0
  Nb  Nb983  1  0.02816667  0.69483333  0.39608500  1.0
  Nb  Nb984  1  0.36150000  0.02816667  0.39608500  1.0
  Nb  Nb985  1  0.36150000  0.36150000  0.39608500  1.0
  Nb  Nb986  1  0.36150000  0.69483333  0.39608500  1.0
  Nb  Nb987  1  0.69483333  0.02816667  0.39608500  1.0
  Nb  Nb988  1  0.69483333  0.36150000  0.39608500  1.0
  Nb  Nb989  1  0.69483333  0.69483333  0.39608500  1.0
  Nb  Nb990  1  0.30516667  0.30516667  0.39608500  1.0
  Nb  Nb991  1  0.30516667  0.63850000  0.39608500  1.0
  Nb  Nb992  1  0.30516667  0.97183333  0.39608500  1.0
  Nb  Nb993  1  0.63850000  0.30516667  0.39608500  1.0
  Nb  Nb994  1  0.63850000  0.63850000  0.39608500  1.0
  Nb  Nb995  1  0.63850000  0.97183333  0.39608500  1.0
  Nb  Nb996  1  0.97183333  0.30516667  0.39608500  1.0
  Nb  Nb997  1  0.97183333  0.63850000  0.39608500  1.0
  Nb  Nb998  1  0.97183333  0.97183333  0.39608500  1.0
  Nb  Nb999  1  0.13932200  0.13932200  0.39608500  1.0
  Nb  Nb1000  1  0.13932200  0.47265533  0.39608500  1.0
  Nb  Nb1001  1  0.13932200  0.80598867  0.39608500  1.0
  Nb  Nb1002  1  0.47265533  0.13932200  0.39608500  1.0
  Nb  Nb1003  1  0.47265533  0.47265533  0.39608500  1.0
  Nb  Nb1004  1  0.47265533  0.80598867  0.39608500  1.0
  Nb  Nb1005  1  0.80598867  0.13932200  0.39608500  1.0
  Nb  Nb1006  1  0.80598867  0.47265533  0.39608500  1.0
  Nb  Nb1007  1  0.80598867  0.80598867  0.39608500  1.0
  Nb  Nb1008  1  0.05767000  0.05767000  0.39608500  1.0
  Nb  Nb1009  1  0.05767000  0.39100333  0.39608500  1.0
  Nb  Nb1010  1  0.05767000  0.72433667  0.39608500  1.0
  Nb  Nb1011  1  0.39100333  0.05767000  0.39608500  1.0
  Nb  Nb1012  1  0.39100333  0.39100333  0.39608500  1.0
  Nb  Nb1013  1  0.39100333  0.72433667  0.39608500  1.0
  Nb  Nb1014  1  0.72433667  0.05767000  0.39608500  1.0
  Nb  Nb1015  1  0.72433667  0.39100333  0.39608500  1.0
  Nb  Nb1016  1  0.72433667  0.72433667  0.39608500  1.0
  Nb  Nb1017  1  0.22445733  0.22445733  0.39608500  1.0
  Nb  Nb1018  1  0.22445733  0.55779067  0.39608500  1.0
  Nb  Nb1019  1  0.22445733  0.89112400  0.39608500  1.0
  Nb  Nb1020  1  0.55779067  0.22445733  0.39608500  1.0
  Nb  Nb1021  1  0.55779067  0.55779067  0.39608500  1.0
  Nb  Nb1022  1  0.55779067  0.89112400  0.39608500  1.0
  Nb  Nb1023  1  0.89112400  0.22445733  0.39608500  1.0
  Nb  Nb1024  1  0.89112400  0.55779067  0.39608500  1.0
  Nb  Nb1025  1  0.89112400  0.89112400  0.39608500  1.0
  Nb  Nb1026  1  0.10887600  0.10887600  0.39608500  1.0
  Nb  Nb1027  1  0.10887600  0.44220933  0.39608500  1.0
  Nb  Nb1028  1  0.10887600  0.77554267  0.39608500  1.0
  Nb  Nb1029  1  0.44220933  0.10887600  0.39608500  1.0
  Nb  Nb1030  1  0.44220933  0.44220933  0.39608500  1.0
  Nb  Nb1031  1  0.44220933  0.77554267  0.39608500  1.0
  Nb  Nb1032  1  0.77554267  0.10887600  0.39608500  1.0
  Nb  Nb1033  1  0.77554267  0.44220933  0.39608500  1.0
  Nb  Nb1034  1  0.77554267  0.77554267  0.39608500  1.0
  Nb  Nb1035  1  0.27566333  0.27566333  0.39608500  1.0
  Nb  Nb1036  1  0.27566333  0.60899667  0.39608500  1.0
  Nb  Nb1037  1  0.27566333  0.94233000  0.39608500  1.0
  Nb  Nb1038  1  0.60899667  0.27566333  0.39608500  1.0
  Nb  Nb1039  1  0.60899667  0.60899667  0.39608500  1.0
  Nb  Nb1040  1  0.60899667  0.94233000  0.39608500  1.0
  Nb  Nb1041  1  0.94233000  0.27566333  0.39608500  1.0
  Nb  Nb1042  1  0.94233000  0.60899667  0.39608500  1.0
  Nb  Nb1043  1  0.94233000  0.94233000  0.39608500  1.0
  Nb  Nb1044  1  0.00000000  0.00000000  0.39608500  1.0
  Nb  Nb1045  1  0.00000000  0.33333333  0.39608500  1.0
  Nb  Nb1046  1  0.00000000  0.66666667  0.39608500  1.0
  Nb  Nb1047  1  0.33333333  0.00000000  0.39608500  1.0
  Nb  Nb1048  1  0.33333333  0.33333333  0.39608500  1.0
  Nb  Nb1049  1  0.33333333  0.66666667  0.39608500  1.0
  Nb  Nb1050  1  0.66666667  0.00000000  0.39608500  1.0
  Nb  Nb1051  1  0.66666667  0.33333333  0.39608500  1.0
  Nb  Nb1052  1  0.66666667  0.66666667  0.39608500  1.0
  Ni  Ni1053  1  0.09919600  0.26384933  0.39608500  1.0
  Ni  Ni1054  1  0.09919600  0.59718267  0.39608500  1.0
  Ni  Ni1055  1  0.09919600  0.93051600  0.39608500  1.0
  Ni  Ni1056  1  0.43252933  0.26384933  0.39608500  1.0
  Ni  Ni1057  1  0.43252933  0.59718267  0.39608500  1.0
  Ni  Ni1058  1  0.43252933  0.93051600  0.39608500  1.0
  Ni  Ni1059  1  0.76586267  0.26384933  0.39608500  1.0
  Ni  Ni1060  1  0.76586267  0.59718267  0.39608500  1.0
  Ni  Ni1061  1  0.76586267  0.93051600  0.39608500  1.0
  Ni  Ni1062  1  0.26542967  0.09860467  0.39608500  1.0
  Ni  Ni1063  1  0.26542967  0.43193800  0.39608500  1.0
  Ni  Ni1064  1  0.26542967  0.76527133  0.39608500  1.0
  Ni  Ni1065  1  0.59876300  0.09860467  0.39608500  1.0
  Ni  Ni1066  1  0.59876300  0.43193800  0.39608500  1.0
  Ni  Ni1067  1  0.59876300  0.76527133  0.39608500  1.0
  Ni  Ni1068  1  0.93209633  0.09860467  0.39608500  1.0
  Ni  Ni1069  1  0.93209633  0.43193800  0.39608500  1.0
  Ni  Ni1070  1  0.93209633  0.76527133  0.39608500  1.0
  Ni  Ni1071  1  0.26384933  0.09919600  0.35391500  1.0
  Ni  Ni1072  1  0.26384933  0.43252933  0.35391500  1.0
  Ni  Ni1073  1  0.26384933  0.76586267  0.35391500  1.0
  Ni  Ni1074  1  0.59718267  0.09919600  0.35391500  1.0
  Ni  Ni1075  1  0.59718267  0.43252933  0.35391500  1.0
  Ni  Ni1076  1  0.59718267  0.76586267  0.35391500  1.0
  Ni  Ni1077  1  0.93051600  0.09919600  0.35391500  1.0
  Ni  Ni1078  1  0.93051600  0.43252933  0.35391500  1.0
  Ni  Ni1079  1  0.93051600  0.76586267  0.35391500  1.0
  Ni  Ni1080  1  0.09860467  0.26542967  0.35437875  1.0
  Ni  Ni1081  1  0.09860467  0.59876300  0.35437875  1.0
  Ni  Ni1082  1  0.09860467  0.93209633  0.35437875  1.0
  Ni  Ni1083  1  0.43193800  0.26542967  0.35437875  1.0
  Ni  Ni1084  1  0.43193800  0.59876300  0.35437875  1.0
  Ni  Ni1085  1  0.43193800  0.93209633  0.35437875  1.0
  Ni  Ni1086  1  0.76527133  0.26542967  0.35437875  1.0
  Ni  Ni1087  1  0.76527133  0.59876300  0.35437875  1.0
  Ni  Ni1088  1  0.76527133  0.93209633  0.35437875  1.0
  Ni  Ni1089  1  0.26384933  0.26384933  0.35492167  1.0
  Ni  Ni1090  1  0.26384933  0.59718267  0.35492167  1.0
  Ni  Ni1091  1  0.26384933  0.93051600  0.35492167  1.0
  Ni  Ni1092  1  0.59718267  0.26384933  0.35492167  1.0
  Ni  Ni1093  1  0.59718267  0.59718267  0.35492167  1.0
  Ni  Ni1094  1  0.59718267  0.93051600  0.35492167  1.0
  Ni  Ni1095  1  0.93051600  0.26384933  0.35492167  1.0
  Ni  Ni1096  1  0.93051600  0.59718267  0.35492167  1.0
  Ni  Ni1097  1  0.93051600  0.93051600  0.35492167  1.0
  Ni  Ni1098  1  0.09860467  0.09860467  0.35445792  1.0
  Ni  Ni1099  1  0.09860467  0.43193800  0.35445792  1.0
  Ni  Ni1100  1  0.09860467  0.76527133  0.35445792  1.0
  Ni  Ni1101  1  0.43193800  0.09860467  0.35445792  1.0
  Ni  Ni1102  1  0.43193800  0.43193800  0.35445792  1.0
  Ni  Ni1103  1  0.43193800  0.76527133  0.35445792  1.0
  Ni  Ni1104  1  0.76527133  0.09860467  0.35445792  1.0
  Ni  Ni1105  1  0.76527133  0.43193800  0.35445792  1.0
  Ni  Ni1106  1  0.76527133  0.76527133  0.35445792  1.0
  Ni  Ni1107  1  0.06790367  0.23472867  0.39608500  1.0
  Ni  Ni1108  1  0.06790367  0.56806200  0.39608500  1.0
  Ni  Ni1109  1  0.06790367  0.90139533  0.39608500  1.0
  Ni  Ni1110  1  0.40123700  0.23472867  0.39608500  1.0
  Ni  Ni1111  1  0.40123700  0.56806200  0.39608500  1.0
  Ni  Ni1112  1  0.40123700  0.90139533  0.39608500  1.0
  Ni  Ni1113  1  0.73457033  0.23472867  0.39608500  1.0
  Ni  Ni1114  1  0.73457033  0.56806200  0.39608500  1.0
  Ni  Ni1115  1  0.73457033  0.90139533  0.39608500  1.0
  Ni  Ni1116  1  0.23413733  0.06948400  0.39608500  1.0
  Ni  Ni1117  1  0.23413733  0.40281733  0.39608500  1.0
  Ni  Ni1118  1  0.23413733  0.73615067  0.39608500  1.0
  Ni  Ni1119  1  0.56747067  0.06948400  0.39608500  1.0
  Ni  Ni1120  1  0.56747067  0.40281733  0.39608500  1.0
  Ni  Ni1121  1  0.56747067  0.73615067  0.39608500  1.0
  Ni  Ni1122  1  0.90080400  0.06948400  0.39608500  1.0
  Ni  Ni1123  1  0.90080400  0.40281733  0.39608500  1.0
  Ni  Ni1124  1  0.90080400  0.73615067  0.39608500  1.0
  Ni  Ni1125  1  0.23472867  0.06790367  0.35445792  1.0
  Ni  Ni1126  1  0.23472867  0.40123700  0.35445792  1.0
  Ni  Ni1127  1  0.23472867  0.73457033  0.35445792  1.0
  Ni  Ni1128  1  0.56806200  0.06790367  0.35445792  1.0
  Ni  Ni1129  1  0.56806200  0.40123700  0.35445792  1.0
  Ni  Ni1130  1  0.56806200  0.73457033  0.35445792  1.0
  Ni  Ni1131  1  0.90139533  0.06790367  0.35445792  1.0
  Ni  Ni1132  1  0.90139533  0.40123700  0.35445792  1.0
  Ni  Ni1133  1  0.90139533  0.73457033  0.35445792  1.0
  Ni  Ni1134  1  0.06948400  0.23413733  0.35492167  1.0
  Ni  Ni1135  1  0.06948400  0.56747067  0.35492167  1.0
  Ni  Ni1136  1  0.06948400  0.90080400  0.35492167  1.0
  Ni  Ni1137  1  0.40281733  0.23413733  0.35492167  1.0
  Ni  Ni1138  1  0.40281733  0.56747067  0.35492167  1.0
  Ni  Ni1139  1  0.40281733  0.90080400  0.35492167  1.0
  Ni  Ni1140  1  0.73615067  0.23413733  0.35492167  1.0
  Ni  Ni1141  1  0.73615067  0.56747067  0.35492167  1.0
  Ni  Ni1142  1  0.73615067  0.90080400  0.35492167  1.0
  Ni  Ni1143  1  0.23472867  0.23472867  0.35437875  1.0
  Ni  Ni1144  1  0.23472867  0.56806200  0.35437875  1.0
  Ni  Ni1145  1  0.23472867  0.90139533  0.35437875  1.0
  Ni  Ni1146  1  0.56806200  0.23472867  0.35437875  1.0
  Ni  Ni1147  1  0.56806200  0.56806200  0.35437875  1.0
  Ni  Ni1148  1  0.56806200  0.90139533  0.35437875  1.0
  Ni  Ni1149  1  0.90139533  0.23472867  0.35437875  1.0
  Ni  Ni1150  1  0.90139533  0.56806200  0.35437875  1.0
  Ni  Ni1151  1  0.90139533  0.90139533  0.35437875  1.0
  Ni  Ni1152  1  0.06948400  0.06948400  0.35391500  1.0
  Ni  Ni1153  1  0.06948400  0.40281733  0.35391500  1.0
  Ni  Ni1154  1  0.06948400  0.73615067  0.35391500  1.0
  Ni  Ni1155  1  0.40281733  0.06948400  0.35391500  1.0
  Ni  Ni1156  1  0.40281733  0.40281733  0.35391500  1.0
  Ni  Ni1157  1  0.40281733  0.73615067  0.35391500  1.0
  Ni  Ni1158  1  0.73615067  0.06948400  0.35391500  1.0
  Ni  Ni1159  1  0.73615067  0.40281733  0.35391500  1.0
  Ni  Ni1160  1  0.73615067  0.73615067  0.35391500  1.0
  Ni  Ni1161  1  0.16666667  0.16666667  0.39608500  1.0
  Ni  Ni1162  1  0.16666667  0.50000000  0.39608500  1.0
  Ni  Ni1163  1  0.16666667  0.83333333  0.39608500  1.0
  Ni  Ni1164  1  0.50000000  0.16666667  0.39608500  1.0
  Ni  Ni1165  1  0.50000000  0.50000000  0.39608500  1.0
  Ni  Ni1166  1  0.50000000  0.83333333  0.39608500  1.0
  Ni  Ni1167  1  0.83333333  0.16666667  0.39608500  1.0
  Ni  Ni1168  1  0.83333333  0.50000000  0.39608500  1.0
  Ni  Ni1169  1  0.83333333  0.83333333  0.39608500  1.0
