# generated using pymatgen
data_NbNi
_symmetry_space_group_name_H-M   'P 1'
_cell_length_a   54.00767526
_cell_length_b   57.87474528
_cell_length_c   126.01790894
_cell_angle_alpha   30.23447166
_cell_angle_beta   15.65219994
_cell_angle_gamma   26.02834816
_symmetry_Int_Tables_number   1
_chemical_formula_structural   NbNi
_chemical_formula_sum   'Nb702 Ni702'
_cell_volume   46630.60269944
_cell_formula_units_Z   702
loop_
 _symmetry_equiv_pos_site_id
 _symmetry_equiv_pos_as_xyz
  1  'x, y, z'
loop_
 _atom_site_type_symbol
 _atom_site_label
 _atom_site_symmetry_multiplicity
 _atom_site_fract_x
 _atom_site_fract_y
 _atom_site_fract_z
 _atom_site_occupancy
  Nb  Nb0  1  0.25840067  0.12920033  0.01927157  1.0
  Nb  Nb1  1  0.25840067  0.46253367  0.01927157  1.0
  Nb  Nb2  1  0.25840067  0.79586700  0.01927157  1.0
  Nb  Nb3  1  0.59173400  0.12920033  0.01927157  1.0
  Nb  Nb4  1  0.59173400  0.46253367  0.01927157  1.0
  Nb  Nb5  1  0.59173400  0.79586700  0.01927157  1.0
  Nb  Nb6  1  0.92506733  0.12920033  0.01927157  1.0
  Nb  Nb7  1  0.92506733  0.46253367  0.01927157  1.0
  Nb  Nb8  1  0.92506733  0.79586700  0.01927157  1.0
  Nb  Nb9  1  0.25840067  0.29586700  0.09070014  1.0
  Nb  Nb10  1  0.25840067  0.62920033  0.09070014  1.0
  Nb  Nb11  1  0.25840067  0.96253367  0.09070014  1.0
  Nb  Nb12  1  0.59173400  0.29586700  0.09070014  1.0
  Nb  Nb13  1  0.59173400  0.62920033  0.09070014  1.0
  Nb  Nb14  1  0.59173400  0.96253367  0.09070014  1.0
  Nb  Nb15  1  0.92506733  0.29586700  0.09070014  1.0
  Nb  Nb16  1  0.92506733  0.62920033  0.09070014  1.0
  Nb  Nb17  1  0.92506733  0.96253367  0.09070014  1.0
  Nb  Nb18  1  0.09121700  0.04560850  0.05465350  1.0
  Nb  Nb19  1  0.09121700  0.37894183  0.05465350  1.0
  Nb  Nb20  1  0.09121700  0.71227517  0.05465350  1.0
  Nb  Nb21  1  0.42455033  0.04560850  0.05465350  1.0
  Nb  Nb22  1  0.42455033  0.37894183  0.05465350  1.0
  Nb  Nb23  1  0.42455033  0.71227517  0.05465350  1.0
  Nb  Nb24  1  0.75788367  0.04560850  0.05465350  1.0
  Nb  Nb25  1  0.75788367  0.37894183  0.05465350  1.0
  Nb  Nb26  1  0.75788367  0.71227517  0.05465350  1.0
  Nb  Nb27  1  0.09121700  0.21227517  0.12608207  1.0
  Nb  Nb28  1  0.09121700  0.54560850  0.12608207  1.0
  Nb  Nb29  1  0.09121700  0.87894183  0.12608207  1.0
  Nb  Nb30  1  0.42455033  0.21227517  0.12608207  1.0
  Nb  Nb31  1  0.42455033  0.54560850  0.12608207  1.0
  Nb  Nb32  1  0.42455033  0.87894183  0.12608207  1.0
  Nb  Nb33  1  0.75788367  0.21227517  0.12608207  1.0
  Nb  Nb34  1  0.75788367  0.54560850  0.12608207  1.0
  Nb  Nb35  1  0.75788367  0.87894183  0.12608207  1.0
  Nb  Nb36  1  0.24211633  0.12105817  0.00880307  1.0
  Nb  Nb37  1  0.24211633  0.45439150  0.00880307  1.0
  Nb  Nb38  1  0.24211633  0.78772483  0.00880307  1.0
  Nb  Nb39  1  0.57544967  0.12105817  0.00880307  1.0
  Nb  Nb40  1  0.57544967  0.45439150  0.00880307  1.0
  Nb  Nb41  1  0.57544967  0.78772483  0.00880307  1.0
  Nb  Nb42  1  0.90878300  0.12105817  0.00880307  1.0
  Nb  Nb43  1  0.90878300  0.45439150  0.00880307  1.0
  Nb  Nb44  1  0.90878300  0.78772483  0.00880307  1.0
  Nb  Nb45  1  0.24211633  0.28772483  0.08023164  1.0
  Nb  Nb46  1  0.24211633  0.62105817  0.08023164  1.0
  Nb  Nb47  1  0.24211633  0.95439150  0.08023164  1.0
  Nb  Nb48  1  0.57544967  0.28772483  0.08023164  1.0
  Nb  Nb49  1  0.57544967  0.62105817  0.08023164  1.0
  Nb  Nb50  1  0.57544967  0.95439150  0.08023164  1.0
  Nb  Nb51  1  0.90878300  0.28772483  0.08023164  1.0
  Nb  Nb52  1  0.90878300  0.62105817  0.08023164  1.0
  Nb  Nb53  1  0.90878300  0.95439150  0.08023164  1.0
  Nb  Nb54  1  0.07493267  0.03746633  0.04418500  1.0
  Nb  Nb55  1  0.07493267  0.37079967  0.04418500  1.0
  Nb  Nb56  1  0.07493267  0.70413300  0.04418500  1.0
  Nb  Nb57  1  0.40826600  0.03746633  0.04418500  1.0
  Nb  Nb58  1  0.40826600  0.37079967  0.04418500  1.0
  Nb  Nb59  1  0.40826600  0.70413300  0.04418500  1.0
  Nb  Nb60  1  0.74159933  0.03746633  0.04418500  1.0
  Nb  Nb61  1  0.74159933  0.37079967  0.04418500  1.0
  Nb  Nb62  1  0.74159933  0.70413300  0.04418500  1.0
  Nb  Nb63  1  0.07493267  0.20413300  0.11561357  1.0
  Nb  Nb64  1  0.07493267  0.53746633  0.11561357  1.0
  Nb  Nb65  1  0.07493267  0.87079967  0.11561357  1.0
  Nb  Nb66  1  0.40826600  0.20413300  0.11561357  1.0
  Nb  Nb67  1  0.40826600  0.53746633  0.11561357  1.0
  Nb  Nb68  1  0.40826600  0.87079967  0.11561357  1.0
  Nb  Nb69  1  0.74159933  0.20413300  0.11561357  1.0
  Nb  Nb70  1  0.74159933  0.53746633  0.11561357  1.0
  Nb  Nb71  1  0.74159933  0.87079967  0.11561357  1.0
  Nb  Nb72  1  0.13932200  0.06966100  0.08557814  1.0
  Nb  Nb73  1  0.13932200  0.40299433  0.08557814  1.0
  Nb  Nb74  1  0.13932200  0.73632767  0.08557814  1.0
  Nb  Nb75  1  0.47265533  0.06966100  0.08557814  1.0
  Nb  Nb76  1  0.47265533  0.40299433  0.08557814  1.0
  Nb  Nb77  1  0.47265533  0.73632767  0.08557814  1.0
  Nb  Nb78  1  0.80598867  0.06966100  0.08557814  1.0
  Nb  Nb79  1  0.80598867  0.40299433  0.08557814  1.0
  Nb  Nb80  1  0.80598867  0.73632767  0.08557814  1.0
  Nb  Nb81  1  0.13932200  0.23632767  0.01414957  1.0
  Nb  Nb82  1  0.13932200  0.56966100  0.01414957  1.0
  Nb  Nb83  1  0.13932200  0.90299433  0.01414957  1.0
  Nb  Nb84  1  0.47265533  0.23632767  0.01414957  1.0
  Nb  Nb85  1  0.47265533  0.56966100  0.01414957  1.0
  Nb  Nb86  1  0.47265533  0.90299433  0.01414957  1.0
  Nb  Nb87  1  0.80598867  0.23632767  0.01414957  1.0
  Nb  Nb88  1  0.80598867  0.56966100  0.01414957  1.0
  Nb  Nb89  1  0.80598867  0.90299433  0.01414957  1.0
  Nb  Nb90  1  0.30516667  0.15258333  0.04933543  1.0
  Nb  Nb91  1  0.30516667  0.48591667  0.04933543  1.0
  Nb  Nb92  1  0.30516667  0.81925000  0.04933543  1.0
  Nb  Nb93  1  0.63850000  0.15258333  0.04933543  1.0
  Nb  Nb94  1  0.63850000  0.48591667  0.04933543  1.0
  Nb  Nb95  1  0.63850000  0.81925000  0.04933543  1.0
  Nb  Nb96  1  0.97183333  0.15258333  0.04933543  1.0
  Nb  Nb97  1  0.97183333  0.48591667  0.04933543  1.0
  Nb  Nb98  1  0.97183333  0.81925000  0.04933543  1.0
  Nb  Nb99  1  0.30516667  0.31925000  0.12076400  1.0
  Nb  Nb100  1  0.30516667  0.65258333  0.12076400  1.0
  Nb  Nb101  1  0.30516667  0.98591667  0.12076400  1.0
  Nb  Nb102  1  0.63850000  0.31925000  0.12076400  1.0
  Nb  Nb103  1  0.63850000  0.65258333  0.12076400  1.0
  Nb  Nb104  1  0.63850000  0.98591667  0.12076400  1.0
  Nb  Nb105  1  0.97183333  0.31925000  0.12076400  1.0
  Nb  Nb106  1  0.97183333  0.65258333  0.12076400  1.0
  Nb  Nb107  1  0.97183333  0.98591667  0.12076400  1.0
  Nb  Nb108  1  0.02816667  0.01408333  0.01412114  1.0
  Nb  Nb109  1  0.02816667  0.34741667  0.01412114  1.0
  Nb  Nb110  1  0.02816667  0.68075000  0.01412114  1.0
  Nb  Nb111  1  0.36150000  0.01408333  0.01412114  1.0
  Nb  Nb112  1  0.36150000  0.34741667  0.01412114  1.0
  Nb  Nb113  1  0.36150000  0.68075000  0.01412114  1.0
  Nb  Nb114  1  0.69483333  0.01408333  0.01412114  1.0
  Nb  Nb115  1  0.69483333  0.34741667  0.01412114  1.0
  Nb  Nb116  1  0.69483333  0.68075000  0.01412114  1.0
  Nb  Nb117  1  0.02816667  0.18075000  0.08554971  1.0
  Nb  Nb118  1  0.02816667  0.51408333  0.08554971  1.0
  Nb  Nb119  1  0.02816667  0.84741667  0.08554971  1.0
  Nb  Nb120  1  0.36150000  0.18075000  0.08554971  1.0
  Nb  Nb121  1  0.36150000  0.51408333  0.08554971  1.0
  Nb  Nb122  1  0.36150000  0.84741667  0.08554971  1.0
  Nb  Nb123  1  0.69483333  0.18075000  0.08554971  1.0
  Nb  Nb124  1  0.69483333  0.51408333  0.08554971  1.0
  Nb  Nb125  1  0.69483333  0.84741667  0.08554971  1.0
  Nb  Nb126  1  0.19401133  0.09700567  0.12073557  1.0
  Nb  Nb127  1  0.19401133  0.43033900  0.12073557  1.0
  Nb  Nb128  1  0.19401133  0.76367233  0.12073557  1.0
  Nb  Nb129  1  0.52734467  0.09700567  0.12073557  1.0
  Nb  Nb130  1  0.52734467  0.43033900  0.12073557  1.0
  Nb  Nb131  1  0.52734467  0.76367233  0.12073557  1.0
  Nb  Nb132  1  0.86067800  0.09700567  0.12073557  1.0
  Nb  Nb133  1  0.86067800  0.43033900  0.12073557  1.0
  Nb  Nb134  1  0.86067800  0.76367233  0.12073557  1.0
  Nb  Nb135  1  0.19401133  0.26367233  0.04930700  1.0
  Nb  Nb136  1  0.19401133  0.59700567  0.04930700  1.0
  Nb  Nb137  1  0.19401133  0.93033900  0.04930700  1.0
  Nb  Nb138  1  0.52734467  0.26367233  0.04930700  1.0
  Nb  Nb139  1  0.52734467  0.59700567  0.04930700  1.0
  Nb  Nb140  1  0.52734467  0.93033900  0.04930700  1.0
  Nb  Nb141  1  0.86067800  0.26367233  0.04930700  1.0
  Nb  Nb142  1  0.86067800  0.59700567  0.04930700  1.0
  Nb  Nb143  1  0.86067800  0.93033900  0.04930700  1.0
  Nb  Nb144  1  0.27566333  0.13783167  0.03036900  1.0
  Nb  Nb145  1  0.27566333  0.47116500  0.03036900  1.0
  Nb  Nb146  1  0.27566333  0.80449833  0.03036900  1.0
  Nb  Nb147  1  0.60899667  0.13783167  0.03036900  1.0
  Nb  Nb148  1  0.60899667  0.47116500  0.03036900  1.0
  Nb  Nb149  1  0.60899667  0.80449833  0.03036900  1.0
  Nb  Nb150  1  0.94233000  0.13783167  0.03036900  1.0
  Nb  Nb151  1  0.94233000  0.47116500  0.03036900  1.0
  Nb  Nb152  1  0.94233000  0.80449833  0.03036900  1.0
  Nb  Nb153  1  0.27566333  0.30449833  0.10179757  1.0
  Nb  Nb154  1  0.27566333  0.63783167  0.10179757  1.0
  Nb  Nb155  1  0.27566333  0.97116500  0.10179757  1.0
  Nb  Nb156  1  0.60899667  0.30449833  0.10179757  1.0
  Nb  Nb157  1  0.60899667  0.63783167  0.10179757  1.0
  Nb  Nb158  1  0.60899667  0.97116500  0.10179757  1.0
  Nb  Nb159  1  0.94233000  0.30449833  0.10179757  1.0
  Nb  Nb160  1  0.94233000  0.63783167  0.10179757  1.0
  Nb  Nb161  1  0.94233000  0.97116500  0.10179757  1.0
  Nb  Nb162  1  0.10887600  0.05443800  0.06600571  1.0
  Nb  Nb163  1  0.10887600  0.38777133  0.06600571  1.0
  Nb  Nb164  1  0.10887600  0.72110467  0.06600571  1.0
  Nb  Nb165  1  0.44220933  0.05443800  0.06600571  1.0
  Nb  Nb166  1  0.44220933  0.38777133  0.06600571  1.0
  Nb  Nb167  1  0.44220933  0.72110467  0.06600571  1.0
  Nb  Nb168  1  0.77554267  0.05443800  0.06600571  1.0
  Nb  Nb169  1  0.77554267  0.38777133  0.06600571  1.0
  Nb  Nb170  1  0.77554267  0.72110467  0.06600571  1.0
  Nb  Nb171  1  0.10887600  0.22110467  0.13743429  1.0
  Nb  Nb172  1  0.10887600  0.55443800  0.13743429  1.0
  Nb  Nb173  1  0.10887600  0.88777133  0.13743429  1.0
  Nb  Nb174  1  0.44220933  0.22110467  0.13743429  1.0
  Nb  Nb175  1  0.44220933  0.55443800  0.13743429  1.0
  Nb  Nb176  1  0.44220933  0.88777133  0.13743429  1.0
  Nb  Nb177  1  0.77554267  0.22110467  0.13743429  1.0
  Nb  Nb178  1  0.77554267  0.55443800  0.13743429  1.0
  Nb  Nb179  1  0.77554267  0.88777133  0.13743429  1.0
  Nb  Nb180  1  0.22445733  0.11222867  0.14030800  1.0
  Nb  Nb181  1  0.22445733  0.44556200  0.14030800  1.0
  Nb  Nb182  1  0.22445733  0.77889533  0.14030800  1.0
  Nb  Nb183  1  0.55779067  0.11222867  0.14030800  1.0
  Nb  Nb184  1  0.55779067  0.44556200  0.14030800  1.0
  Nb  Nb185  1  0.55779067  0.77889533  0.14030800  1.0
  Nb  Nb186  1  0.89112400  0.11222867  0.14030800  1.0
  Nb  Nb187  1  0.89112400  0.44556200  0.14030800  1.0
  Nb  Nb188  1  0.89112400  0.77889533  0.14030800  1.0
  Nb  Nb189  1  0.22445733  0.27889533  0.06887943  1.0
  Nb  Nb190  1  0.22445733  0.61222867  0.06887943  1.0
  Nb  Nb191  1  0.22445733  0.94556200  0.06887943  1.0
  Nb  Nb192  1  0.55779067  0.27889533  0.06887943  1.0
  Nb  Nb193  1  0.55779067  0.61222867  0.06887943  1.0
  Nb  Nb194  1  0.55779067  0.94556200  0.06887943  1.0
  Nb  Nb195  1  0.89112400  0.27889533  0.06887943  1.0
  Nb  Nb196  1  0.89112400  0.61222867  0.06887943  1.0
  Nb  Nb197  1  0.89112400  0.94556200  0.06887943  1.0
  Nb  Nb198  1  0.05767000  0.02883500  0.03308757  1.0
  Nb  Nb199  1  0.05767000  0.36216833  0.03308757  1.0
  Nb  Nb200  1  0.05767000  0.69550167  0.03308757  1.0
  Nb  Nb201  1  0.39100333  0.02883500  0.03308757  1.0
  Nb  Nb202  1  0.39100333  0.36216833  0.03308757  1.0
  Nb  Nb203  1  0.39100333  0.69550167  0.03308757  1.0
  Nb  Nb204  1  0.72433667  0.02883500  0.03308757  1.0
  Nb  Nb205  1  0.72433667  0.36216833  0.03308757  1.0
  Nb  Nb206  1  0.72433667  0.69550167  0.03308757  1.0
  Nb  Nb207  1  0.05767000  0.19550167  0.10451614  1.0
  Nb  Nb208  1  0.05767000  0.52883500  0.10451614  1.0
  Nb  Nb209  1  0.05767000  0.86216833  0.10451614  1.0
  Nb  Nb210  1  0.39100333  0.19550167  0.10451614  1.0
  Nb  Nb211  1  0.39100333  0.52883500  0.10451614  1.0
  Nb  Nb212  1  0.39100333  0.86216833  0.10451614  1.0
  Nb  Nb213  1  0.72433667  0.19550167  0.10451614  1.0
  Nb  Nb214  1  0.72433667  0.52883500  0.10451614  1.0
  Nb  Nb215  1  0.72433667  0.86216833  0.10451614  1.0
  Nb  Nb216  1  0.00000000  0.16666667  0.06744257  1.0
  Nb  Nb217  1  0.00000000  0.50000000  0.06744257  1.0
  Nb  Nb218  1  0.00000000  0.83333333  0.06744257  1.0
  Nb  Nb219  1  0.33333333  0.16666667  0.06744257  1.0
  Nb  Nb220  1  0.33333333  0.50000000  0.06744257  1.0
  Nb  Nb221  1  0.33333333  0.83333333  0.06744257  1.0
  Nb  Nb222  1  0.66666667  0.16666667  0.06744257  1.0
  Nb  Nb223  1  0.66666667  0.50000000  0.06744257  1.0
  Nb  Nb224  1  0.66666667  0.83333333  0.06744257  1.0
  Nb  Nb225  1  0.00000000  0.00000000  0.13887114  1.0
  Nb  Nb226  1  0.00000000  0.33333333  0.13887114  1.0
  Nb  Nb227  1  0.00000000  0.66666667  0.13887114  1.0
  Nb  Nb228  1  0.33333333  0.00000000  0.13887114  1.0
  Nb  Nb229  1  0.33333333  0.33333333  0.13887114  1.0
  Nb  Nb230  1  0.33333333  0.66666667  0.13887114  1.0
  Nb  Nb231  1  0.66666667  0.00000000  0.13887114  1.0
  Nb  Nb232  1  0.66666667  0.33333333  0.13887114  1.0
  Nb  Nb233  1  0.66666667  0.66666667  0.13887114  1.0
  Ni  Ni234  1  0.06948400  0.11706867  0.07596514  1.0
  Ni  Ni235  1  0.06948400  0.45040200  0.07596514  1.0
  Ni  Ni236  1  0.06948400  0.78373533  0.07596514  1.0
  Ni  Ni237  1  0.40281733  0.11706867  0.07596514  1.0
  Ni  Ni238  1  0.40281733  0.45040200  0.07596514  1.0
  Ni  Ni239  1  0.40281733  0.78373533  0.07596514  1.0
  Ni  Ni240  1  0.73615067  0.11706867  0.07596514  1.0
  Ni  Ni241  1  0.73615067  0.45040200  0.07596514  1.0
  Ni  Ni242  1  0.73615067  0.78373533  0.07596514  1.0
  Ni  Ni243  1  0.06948400  0.28373533  0.00453657  1.0
  Ni  Ni244  1  0.06948400  0.61706867  0.00453657  1.0
  Ni  Ni245  1  0.06948400  0.95040200  0.00453657  1.0
  Ni  Ni246  1  0.40281733  0.28373533  0.00453657  1.0
  Ni  Ni247  1  0.40281733  0.61706867  0.00453657  1.0
  Ni  Ni248  1  0.40281733  0.95040200  0.00453657  1.0
  Ni  Ni249  1  0.73615067  0.28373533  0.00453657  1.0
  Ni  Ni250  1  0.73615067  0.61706867  0.00453657  1.0
  Ni  Ni251  1  0.73615067  0.95040200  0.00453657  1.0
  Ni  Ni252  1  0.23472867  0.03395183  0.11116279  1.0
  Ni  Ni253  1  0.23472867  0.36728517  0.11116279  1.0
  Ni  Ni254  1  0.23472867  0.70061850  0.11116279  1.0
  Ni  Ni255  1  0.56806200  0.03395183  0.11116279  1.0
  Ni  Ni256  1  0.56806200  0.36728517  0.11116279  1.0
  Ni  Ni257  1  0.56806200  0.70061850  0.11116279  1.0
  Ni  Ni258  1  0.90139533  0.03395183  0.11116279  1.0
  Ni  Ni259  1  0.90139533  0.36728517  0.11116279  1.0
  Ni  Ni260  1  0.90139533  0.70061850  0.11116279  1.0
  Ni  Ni261  1  0.23472867  0.20061850  0.03973421  1.0
  Ni  Ni262  1  0.23472867  0.53395183  0.03973421  1.0
  Ni  Ni263  1  0.23472867  0.86728517  0.03973421  1.0
  Ni  Ni264  1  0.56806200  0.20061850  0.03973421  1.0
  Ni  Ni265  1  0.56806200  0.53395183  0.03973421  1.0
  Ni  Ni266  1  0.56806200  0.86728517  0.03973421  1.0
  Ni  Ni267  1  0.90139533  0.20061850  0.03973421  1.0
  Ni  Ni268  1  0.90139533  0.53395183  0.03973421  1.0
  Ni  Ni269  1  0.90139533  0.86728517  0.03973421  1.0
  Ni  Ni270  1  0.23413733  0.03474200  0.04068229  1.0
  Ni  Ni271  1  0.23413733  0.36807533  0.04068229  1.0
  Ni  Ni272  1  0.23413733  0.70140867  0.04068229  1.0
  Ni  Ni273  1  0.56747067  0.03474200  0.04068229  1.0
  Ni  Ni274  1  0.56747067  0.36807533  0.04068229  1.0
  Ni  Ni275  1  0.56747067  0.70140867  0.04068229  1.0
  Ni  Ni276  1  0.90080400  0.03474200  0.04068229  1.0
  Ni  Ni277  1  0.90080400  0.36807533  0.04068229  1.0
  Ni  Ni278  1  0.90080400  0.70140867  0.04068229  1.0
  Ni  Ni279  1  0.23413733  0.20140867  0.11211086  1.0
  Ni  Ni280  1  0.23413733  0.53474200  0.11211086  1.0
  Ni  Ni281  1  0.23413733  0.86807533  0.11211086  1.0
  Ni  Ni282  1  0.56747067  0.20140867  0.11211086  1.0
  Ni  Ni283  1  0.56747067  0.53474200  0.11211086  1.0
  Ni  Ni284  1  0.56747067  0.86807533  0.11211086  1.0
  Ni  Ni285  1  0.90080400  0.20140867  0.11211086  1.0
  Ni  Ni286  1  0.90080400  0.53474200  0.11211086  1.0
  Ni  Ni287  1  0.90080400  0.86807533  0.11211086  1.0
  Ni  Ni288  1  0.06790367  0.11736433  0.00405386  1.0
  Ni  Ni289  1  0.06790367  0.45069767  0.00405386  1.0
  Ni  Ni290  1  0.06790367  0.78403100  0.00405386  1.0
  Ni  Ni291  1  0.40123700  0.11736433  0.00405386  1.0
  Ni  Ni292  1  0.40123700  0.45069767  0.00405386  1.0
  Ni  Ni293  1  0.40123700  0.78403100  0.00405386  1.0
  Ni  Ni294  1  0.73457033  0.11736433  0.00405386  1.0
  Ni  Ni295  1  0.73457033  0.45069767  0.00405386  1.0
  Ni  Ni296  1  0.73457033  0.78403100  0.00405386  1.0
  Ni  Ni297  1  0.06790367  0.28403100  0.07548243  1.0
  Ni  Ni298  1  0.06790367  0.61736433  0.07548243  1.0
  Ni  Ni299  1  0.06790367  0.95069767  0.07548243  1.0
  Ni  Ni300  1  0.40123700  0.28403100  0.07548243  1.0
  Ni  Ni301  1  0.40123700  0.61736433  0.07548243  1.0
  Ni  Ni302  1  0.40123700  0.95069767  0.07548243  1.0
  Ni  Ni303  1  0.73457033  0.28403100  0.07548243  1.0
  Ni  Ni304  1  0.73457033  0.61736433  0.07548243  1.0
  Ni  Ni305  1  0.73457033  0.95069767  0.07548243  1.0
  Ni  Ni306  1  0.06948400  0.03474200  0.11124800  1.0
  Ni  Ni307  1  0.06948400  0.36807533  0.11124800  1.0
  Ni  Ni308  1  0.06948400  0.70140867  0.11124800  1.0
  Ni  Ni309  1  0.40281733  0.03474200  0.11124800  1.0
  Ni  Ni310  1  0.40281733  0.36807533  0.11124800  1.0
  Ni  Ni311  1  0.40281733  0.70140867  0.11124800  1.0
  Ni  Ni312  1  0.73615067  0.03474200  0.11124800  1.0
  Ni  Ni313  1  0.73615067  0.36807533  0.11124800  1.0
  Ni  Ni314  1  0.73615067  0.70140867  0.11124800  1.0
  Ni  Ni315  1  0.06948400  0.20140867  0.03981943  1.0
  Ni  Ni316  1  0.06948400  0.53474200  0.03981943  1.0
  Ni  Ni317  1  0.06948400  0.86807533  0.03981943  1.0
  Ni  Ni318  1  0.40281733  0.20140867  0.03981943  1.0
  Ni  Ni319  1  0.40281733  0.53474200  0.03981943  1.0
  Ni  Ni320  1  0.40281733  0.86807533  0.03981943  1.0
  Ni  Ni321  1  0.73615067  0.20140867  0.03981943  1.0
  Ni  Ni322  1  0.73615067  0.53474200  0.03981943  1.0
  Ni  Ni323  1  0.73615067  0.86807533  0.03981943  1.0
  Ni  Ni324  1  0.23472867  0.11736433  0.07541457  1.0
  Ni  Ni325  1  0.23472867  0.45069767  0.07541457  1.0
  Ni  Ni326  1  0.23472867  0.78403100  0.07541457  1.0
  Ni  Ni327  1  0.56806200  0.11736433  0.07541457  1.0
  Ni  Ni328  1  0.56806200  0.45069767  0.07541457  1.0
  Ni  Ni329  1  0.56806200  0.78403100  0.07541457  1.0
  Ni  Ni330  1  0.90139533  0.11736433  0.07541457  1.0
  Ni  Ni331  1  0.90139533  0.45069767  0.07541457  1.0
  Ni  Ni332  1  0.90139533  0.78403100  0.07541457  1.0
  Ni  Ni333  1  0.23472867  0.28403100  0.00398600  1.0
  Ni  Ni334  1  0.23472867  0.61736433  0.00398600  1.0
  Ni  Ni335  1  0.23472867  0.95069767  0.00398600  1.0
  Ni  Ni336  1  0.56806200  0.28403100  0.00398600  1.0
  Ni  Ni337  1  0.56806200  0.61736433  0.00398600  1.0
  Ni  Ni338  1  0.56806200  0.95069767  0.00398600  1.0
  Ni  Ni339  1  0.90139533  0.28403100  0.00398600  1.0
  Ni  Ni340  1  0.90139533  0.61736433  0.00398600  1.0
  Ni  Ni341  1  0.90139533  0.95069767  0.00398600  1.0
  Ni  Ni342  1  0.09860467  0.13271483  0.09515093  1.0
  Ni  Ni343  1  0.09860467  0.46604817  0.09515093  1.0
  Ni  Ni344  1  0.09860467  0.79938150  0.09515093  1.0
  Ni  Ni345  1  0.43193800  0.13271483  0.09515093  1.0
  Ni  Ni346  1  0.43193800  0.46604817  0.09515093  1.0
  Ni  Ni347  1  0.43193800  0.79938150  0.09515093  1.0
  Ni  Ni348  1  0.76527133  0.13271483  0.09515093  1.0
  Ni  Ni349  1  0.76527133  0.46604817  0.09515093  1.0
  Ni  Ni350  1  0.76527133  0.79938150  0.09515093  1.0
  Ni  Ni351  1  0.09860467  0.29938150  0.02372236  1.0
  Ni  Ni352  1  0.09860467  0.63271483  0.02372236  1.0
  Ni  Ni353  1  0.09860467  0.96604817  0.02372236  1.0
  Ni  Ni354  1  0.43193800  0.29938150  0.02372236  1.0
  Ni  Ni355  1  0.43193800  0.63271483  0.02372236  1.0
  Ni  Ni356  1  0.43193800  0.96604817  0.02372236  1.0
  Ni  Ni357  1  0.76527133  0.29938150  0.02372236  1.0
  Ni  Ni358  1  0.76527133  0.63271483  0.02372236  1.0
  Ni  Ni359  1  0.76527133  0.96604817  0.02372236  1.0
  Ni  Ni360  1  0.26384933  0.04959800  0.13034857  1.0
  Ni  Ni361  1  0.26384933  0.38293133  0.13034857  1.0
  Ni  Ni362  1  0.26384933  0.71626467  0.13034857  1.0
  Ni  Ni363  1  0.59718267  0.04959800  0.13034857  1.0
  Ni  Ni364  1  0.59718267  0.38293133  0.13034857  1.0
  Ni  Ni365  1  0.59718267  0.71626467  0.13034857  1.0
  Ni  Ni366  1  0.93051600  0.04959800  0.13034857  1.0
  Ni  Ni367  1  0.93051600  0.38293133  0.13034857  1.0
  Ni  Ni368  1  0.93051600  0.71626467  0.13034857  1.0
  Ni  Ni369  1  0.26384933  0.21626467  0.05892000  1.0
  Ni  Ni370  1  0.26384933  0.54959800  0.05892000  1.0
  Ni  Ni371  1  0.26384933  0.88293133  0.05892000  1.0
  Ni  Ni372  1  0.59718267  0.21626467  0.05892000  1.0
  Ni  Ni373  1  0.59718267  0.54959800  0.05892000  1.0
  Ni  Ni374  1  0.59718267  0.88293133  0.05892000  1.0
  Ni  Ni375  1  0.93051600  0.21626467  0.05892000  1.0
  Ni  Ni376  1  0.93051600  0.54959800  0.05892000  1.0
  Ni  Ni377  1  0.93051600  0.88293133  0.05892000  1.0
  Ni  Ni378  1  0.26542967  0.04930233  0.05940271  1.0
  Ni  Ni379  1  0.26542967  0.38263567  0.05940271  1.0
  Ni  Ni380  1  0.26542967  0.71596900  0.05940271  1.0
  Ni  Ni381  1  0.59876300  0.04930233  0.05940271  1.0
  Ni  Ni382  1  0.59876300  0.38263567  0.05940271  1.0
  Ni  Ni383  1  0.59876300  0.71596900  0.05940271  1.0
  Ni  Ni384  1  0.93209633  0.04930233  0.05940271  1.0
  Ni  Ni385  1  0.93209633  0.38263567  0.05940271  1.0
  Ni  Ni386  1  0.93209633  0.71596900  0.05940271  1.0
  Ni  Ni387  1  0.26542967  0.21596900  0.13083129  1.0
  Ni  Ni388  1  0.26542967  0.54930233  0.13083129  1.0
  Ni  Ni389  1  0.26542967  0.88263567  0.13083129  1.0
  Ni  Ni390  1  0.59876300  0.21596900  0.13083129  1.0
  Ni  Ni391  1  0.59876300  0.54930233  0.13083129  1.0
  Ni  Ni392  1  0.59876300  0.88263567  0.13083129  1.0
  Ni  Ni393  1  0.93209633  0.21596900  0.13083129  1.0
  Ni  Ni394  1  0.93209633  0.54930233  0.13083129  1.0
  Ni  Ni395  1  0.93209633  0.88263567  0.13083129  1.0
  Ni  Ni396  1  0.09919600  0.13192467  0.02277429  1.0
  Ni  Ni397  1  0.09919600  0.46525800  0.02277429  1.0
  Ni  Ni398  1  0.09919600  0.79859133  0.02277429  1.0
  Ni  Ni399  1  0.43252933  0.13192467  0.02277429  1.0
  Ni  Ni400  1  0.43252933  0.46525800  0.02277429  1.0
  Ni  Ni401  1  0.43252933  0.79859133  0.02277429  1.0
  Ni  Ni402  1  0.76586267  0.13192467  0.02277429  1.0
  Ni  Ni403  1  0.76586267  0.46525800  0.02277429  1.0
  Ni  Ni404  1  0.76586267  0.79859133  0.02277429  1.0
  Ni  Ni405  1  0.09919600  0.29859133  0.09420286  1.0
  Ni  Ni406  1  0.09919600  0.63192467  0.09420286  1.0
  Ni  Ni407  1  0.09919600  0.96525800  0.09420286  1.0
  Ni  Ni408  1  0.43252933  0.29859133  0.09420286  1.0
  Ni  Ni409  1  0.43252933  0.63192467  0.09420286  1.0
  Ni  Ni410  1  0.43252933  0.96525800  0.09420286  1.0
  Ni  Ni411  1  0.76586267  0.29859133  0.09420286  1.0
  Ni  Ni412  1  0.76586267  0.63192467  0.09420286  1.0
  Ni  Ni413  1  0.76586267  0.96525800  0.09420286  1.0
  Ni  Ni414  1  0.09860467  0.04930233  0.13089914  1.0
  Ni  Ni415  1  0.09860467  0.38263567  0.13089914  1.0
  Ni  Ni416  1  0.09860467  0.71596900  0.13089914  1.0
  Ni  Ni417  1  0.43193800  0.04930233  0.13089914  1.0
  Ni  Ni418  1  0.43193800  0.38263567  0.13089914  1.0
  Ni  Ni419  1  0.43193800  0.71596900  0.13089914  1.0
  Ni  Ni420  1  0.76527133  0.04930233  0.13089914  1.0
  Ni  Ni421  1  0.76527133  0.38263567  0.13089914  1.0
  Ni  Ni422  1  0.76527133  0.71596900  0.13089914  1.0
  Ni  Ni423  1  0.09860467  0.21596900  0.05947057  1.0
  Ni  Ni424  1  0.09860467  0.54930233  0.05947057  1.0
  Ni  Ni425  1  0.09860467  0.88263567  0.05947057  1.0
  Ni  Ni426  1  0.43193800  0.21596900  0.05947057  1.0
  Ni  Ni427  1  0.43193800  0.54930233  0.05947057  1.0
  Ni  Ni428  1  0.43193800  0.88263567  0.05947057  1.0
  Ni  Ni429  1  0.76527133  0.21596900  0.05947057  1.0
  Ni  Ni430  1  0.76527133  0.54930233  0.05947057  1.0
  Ni  Ni431  1  0.76527133  0.88263567  0.05947057  1.0
  Ni  Ni432  1  0.26384933  0.13192467  0.09506571  1.0
  Ni  Ni433  1  0.26384933  0.46525800  0.09506571  1.0
  Ni  Ni434  1  0.26384933  0.79859133  0.09506571  1.0
  Ni  Ni435  1  0.59718267  0.13192467  0.09506571  1.0
  Ni  Ni436  1  0.59718267  0.46525800  0.09506571  1.0
  Ni  Ni437  1  0.59718267  0.79859133  0.09506571  1.0
  Ni  Ni438  1  0.93051600  0.13192467  0.09506571  1.0
  Ni  Ni439  1  0.93051600  0.46525800  0.09506571  1.0
  Ni  Ni440  1  0.93051600  0.79859133  0.09506571  1.0
  Ni  Ni441  1  0.26384933  0.29859133  0.02363714  1.0
  Ni  Ni442  1  0.26384933  0.63192467  0.02363714  1.0
  Ni  Ni443  1  0.26384933  0.96525800  0.02363714  1.0
  Ni  Ni444  1  0.59718267  0.29859133  0.02363714  1.0
  Ni  Ni445  1  0.59718267  0.63192467  0.02363714  1.0
  Ni  Ni446  1  0.59718267  0.96525800  0.02363714  1.0
  Ni  Ni447  1  0.93051600  0.29859133  0.02363714  1.0
  Ni  Ni448  1  0.93051600  0.63192467  0.02363714  1.0
  Ni  Ni449  1  0.93051600  0.96525800  0.02363714  1.0
  Ni  Ni450  1  0.16666667  0.08333333  0.10315686  1.0
  Ni  Ni451  1  0.16666667  0.41666667  0.10315686  1.0
  Ni  Ni452  1  0.16666667  0.75000000  0.10315686  1.0
  Ni  Ni453  1  0.50000000  0.08333333  0.10315686  1.0
  Ni  Ni454  1  0.50000000  0.41666667  0.10315686  1.0
  Ni  Ni455  1  0.50000000  0.75000000  0.10315686  1.0
  Ni  Ni456  1  0.83333333  0.08333333  0.10315686  1.0
  Ni  Ni457  1  0.83333333  0.41666667  0.10315686  1.0
  Ni  Ni458  1  0.83333333  0.75000000  0.10315686  1.0
  Ni  Ni459  1  0.16666667  0.25000000  0.03172829  1.0
  Ni  Ni460  1  0.16666667  0.58333333  0.03172829  1.0
  Ni  Ni461  1  0.16666667  0.91666667  0.03172829  1.0
  Ni  Ni462  1  0.50000000  0.25000000  0.03172829  1.0
  Ni  Ni463  1  0.50000000  0.58333333  0.03172829  1.0
  Ni  Ni464  1  0.50000000  0.91666667  0.03172829  1.0
  Ni  Ni465  1  0.83333333  0.25000000  0.03172829  1.0
  Ni  Ni466  1  0.83333333  0.58333333  0.03172829  1.0
  Ni  Ni467  1  0.83333333  0.91666667  0.03172829  1.0
  Nb  Nb468  1  0.25840067  0.12920033  0.16212871  1.0
  Nb  Nb469  1  0.25840067  0.46253367  0.16212871  1.0
  Nb  Nb470  1  0.25840067  0.79586700  0.16212871  1.0
  Nb  Nb471  1  0.59173400  0.12920033  0.16212871  1.0
  Nb  Nb472  1  0.59173400  0.46253367  0.16212871  1.0
  Nb  Nb473  1  0.59173400  0.79586700  0.16212871  1.0
  Nb  Nb474  1  0.92506733  0.12920033  0.16212871  1.0
  Nb  Nb475  1  0.92506733  0.46253367  0.16212871  1.0
  Nb  Nb476  1  0.92506733  0.79586700  0.16212871  1.0
  Nb  Nb477  1  0.25840067  0.29586700  0.23355729  1.0
  Nb  Nb478  1  0.25840067  0.62920033  0.23355729  1.0
  Nb  Nb479  1  0.25840067  0.96253367  0.23355729  1.0
  Nb  Nb480  1  0.59173400  0.29586700  0.23355729  1.0
  Nb  Nb481  1  0.59173400  0.62920033  0.23355729  1.0
  Nb  Nb482  1  0.59173400  0.96253367  0.23355729  1.0
  Nb  Nb483  1  0.92506733  0.29586700  0.23355729  1.0
  Nb  Nb484  1  0.92506733  0.62920033  0.23355729  1.0
  Nb  Nb485  1  0.92506733  0.96253367  0.23355729  1.0
  Nb  Nb486  1  0.09121700  0.04560850  0.19751064  1.0
  Nb  Nb487  1  0.09121700  0.37894183  0.19751064  1.0
  Nb  Nb488  1  0.09121700  0.71227517  0.19751064  1.0
  Nb  Nb489  1  0.42455033  0.04560850  0.19751064  1.0
  Nb  Nb490  1  0.42455033  0.37894183  0.19751064  1.0
  Nb  Nb491  1  0.42455033  0.71227517  0.19751064  1.0
  Nb  Nb492  1  0.75788367  0.04560850  0.19751064  1.0
  Nb  Nb493  1  0.75788367  0.37894183  0.19751064  1.0
  Nb  Nb494  1  0.75788367  0.71227517  0.19751064  1.0
  Nb  Nb495  1  0.09121700  0.21227517  0.26893921  1.0
  Nb  Nb496  1  0.09121700  0.54560850  0.26893921  1.0
  Nb  Nb497  1  0.09121700  0.87894183  0.26893921  1.0
  Nb  Nb498  1  0.42455033  0.21227517  0.26893921  1.0
  Nb  Nb499  1  0.42455033  0.54560850  0.26893921  1.0
  Nb  Nb500  1  0.42455033  0.87894183  0.26893921  1.0
  Nb  Nb501  1  0.75788367  0.21227517  0.26893921  1.0
  Nb  Nb502  1  0.75788367  0.54560850  0.26893921  1.0
  Nb  Nb503  1  0.75788367  0.87894183  0.26893921  1.0
  Nb  Nb504  1  0.24211633  0.12105817  0.15166021  1.0
  Nb  Nb505  1  0.24211633  0.45439150  0.15166021  1.0
  Nb  Nb506  1  0.24211633  0.78772483  0.15166021  1.0
  Nb  Nb507  1  0.57544967  0.12105817  0.15166021  1.0
  Nb  Nb508  1  0.57544967  0.45439150  0.15166021  1.0
  Nb  Nb509  1  0.57544967  0.78772483  0.15166021  1.0
  Nb  Nb510  1  0.90878300  0.12105817  0.15166021  1.0
  Nb  Nb511  1  0.90878300  0.45439150  0.15166021  1.0
  Nb  Nb512  1  0.90878300  0.78772483  0.15166021  1.0
  Nb  Nb513  1  0.24211633  0.28772483  0.22308879  1.0
  Nb  Nb514  1  0.24211633  0.62105817  0.22308879  1.0
  Nb  Nb515  1  0.24211633  0.95439150  0.22308879  1.0
  Nb  Nb516  1  0.57544967  0.28772483  0.22308879  1.0
  Nb  Nb517  1  0.57544967  0.62105817  0.22308879  1.0
  Nb  Nb518  1  0.57544967  0.95439150  0.22308879  1.0
  Nb  Nb519  1  0.90878300  0.28772483  0.22308879  1.0
  Nb  Nb520  1  0.90878300  0.62105817  0.22308879  1.0
  Nb  Nb521  1  0.90878300  0.95439150  0.22308879  1.0
  Nb  Nb522  1  0.07493267  0.03746633  0.18704214  1.0
  Nb  Nb523  1  0.07493267  0.37079967  0.18704214  1.0
  Nb  Nb524  1  0.07493267  0.70413300  0.18704214  1.0
  Nb  Nb525  1  0.40826600  0.03746633  0.18704214  1.0
  Nb  Nb526  1  0.40826600  0.37079967  0.18704214  1.0
  Nb  Nb527  1  0.40826600  0.70413300  0.18704214  1.0
  Nb  Nb528  1  0.74159933  0.03746633  0.18704214  1.0
  Nb  Nb529  1  0.74159933  0.37079967  0.18704214  1.0
  Nb  Nb530  1  0.74159933  0.70413300  0.18704214  1.0
  Nb  Nb531  1  0.07493267  0.20413300  0.25847071  1.0
  Nb  Nb532  1  0.07493267  0.53746633  0.25847071  1.0
  Nb  Nb533  1  0.07493267  0.87079967  0.25847071  1.0
  Nb  Nb534  1  0.40826600  0.20413300  0.25847071  1.0
  Nb  Nb535  1  0.40826600  0.53746633  0.25847071  1.0
  Nb  Nb536  1  0.40826600  0.87079967  0.25847071  1.0
  Nb  Nb537  1  0.74159933  0.20413300  0.25847071  1.0
  Nb  Nb538  1  0.74159933  0.53746633  0.25847071  1.0
  Nb  Nb539  1  0.74159933  0.87079967  0.25847071  1.0
  Nb  Nb540  1  0.13932200  0.06966100  0.22843529  1.0
  Nb  Nb541  1  0.13932200  0.40299433  0.22843529  1.0
  Nb  Nb542  1  0.13932200  0.73632767  0.22843529  1.0
  Nb  Nb543  1  0.47265533  0.06966100  0.22843529  1.0
  Nb  Nb544  1  0.47265533  0.40299433  0.22843529  1.0
  Nb  Nb545  1  0.47265533  0.73632767  0.22843529  1.0
  Nb  Nb546  1  0.80598867  0.06966100  0.22843529  1.0
  Nb  Nb547  1  0.80598867  0.40299433  0.22843529  1.0
  Nb  Nb548  1  0.80598867  0.73632767  0.22843529  1.0
  Nb  Nb549  1  0.13932200  0.23632767  0.15700671  1.0
  Nb  Nb550  1  0.13932200  0.56966100  0.15700671  1.0
  Nb  Nb551  1  0.13932200  0.90299433  0.15700671  1.0
  Nb  Nb552  1  0.47265533  0.23632767  0.15700671  1.0
  Nb  Nb553  1  0.47265533  0.56966100  0.15700671  1.0
  Nb  Nb554  1  0.47265533  0.90299433  0.15700671  1.0
  Nb  Nb555  1  0.80598867  0.23632767  0.15700671  1.0
  Nb  Nb556  1  0.80598867  0.56966100  0.15700671  1.0
  Nb  Nb557  1  0.80598867  0.90299433  0.15700671  1.0
  Nb  Nb558  1  0.30516667  0.15258333  0.19219257  1.0
  Nb  Nb559  1  0.30516667  0.48591667  0.19219257  1.0
  Nb  Nb560  1  0.30516667  0.81925000  0.19219257  1.0
  Nb  Nb561  1  0.63850000  0.15258333  0.19219257  1.0
  Nb  Nb562  1  0.63850000  0.48591667  0.19219257  1.0
  Nb  Nb563  1  0.63850000  0.81925000  0.19219257  1.0
  Nb  Nb564  1  0.97183333  0.15258333  0.19219257  1.0
  Nb  Nb565  1  0.97183333  0.48591667  0.19219257  1.0
  Nb  Nb566  1  0.97183333  0.81925000  0.19219257  1.0
  Nb  Nb567  1  0.30516667  0.31925000  0.26362114  1.0
  Nb  Nb568  1  0.30516667  0.65258333  0.26362114  1.0
  Nb  Nb569  1  0.30516667  0.98591667  0.26362114  1.0
  Nb  Nb570  1  0.63850000  0.31925000  0.26362114  1.0
  Nb  Nb571  1  0.63850000  0.65258333  0.26362114  1.0
  Nb  Nb572  1  0.63850000  0.98591667  0.26362114  1.0
  Nb  Nb573  1  0.97183333  0.31925000  0.26362114  1.0
  Nb  Nb574  1  0.97183333  0.65258333  0.26362114  1.0
  Nb  Nb575  1  0.97183333  0.98591667  0.26362114  1.0
  Nb  Nb576  1  0.02816667  0.01408333  0.15697829  1.0
  Nb  Nb577  1  0.02816667  0.34741667  0.15697829  1.0
  Nb  Nb578  1  0.02816667  0.68075000  0.15697829  1.0
  Nb  Nb579  1  0.36150000  0.01408333  0.15697829  1.0
  Nb  Nb580  1  0.36150000  0.34741667  0.15697829  1.0
  Nb  Nb581  1  0.36150000  0.68075000  0.15697829  1.0
  Nb  Nb582  1  0.69483333  0.01408333  0.15697829  1.0
  Nb  Nb583  1  0.69483333  0.34741667  0.15697829  1.0
  Nb  Nb584  1  0.69483333  0.68075000  0.15697829  1.0
  Nb  Nb585  1  0.02816667  0.18075000  0.22840686  1.0
  Nb  Nb586  1  0.02816667  0.51408333  0.22840686  1.0
  Nb  Nb587  1  0.02816667  0.84741667  0.22840686  1.0
  Nb  Nb588  1  0.36150000  0.18075000  0.22840686  1.0
  Nb  Nb589  1  0.36150000  0.51408333  0.22840686  1.0
  Nb  Nb590  1  0.36150000  0.84741667  0.22840686  1.0
  Nb  Nb591  1  0.69483333  0.18075000  0.22840686  1.0
  Nb  Nb592  1  0.69483333  0.51408333  0.22840686  1.0
  Nb  Nb593  1  0.69483333  0.84741667  0.22840686  1.0
  Nb  Nb594  1  0.19401133  0.09700567  0.26359271  1.0
  Nb  Nb595  1  0.19401133  0.43033900  0.26359271  1.0
  Nb  Nb596  1  0.19401133  0.76367233  0.26359271  1.0
  Nb  Nb597  1  0.52734467  0.09700567  0.26359271  1.0
  Nb  Nb598  1  0.52734467  0.43033900  0.26359271  1.0
  Nb  Nb599  1  0.52734467  0.76367233  0.26359271  1.0
  Nb  Nb600  1  0.86067800  0.09700567  0.26359271  1.0
  Nb  Nb601  1  0.86067800  0.43033900  0.26359271  1.0
  Nb  Nb602  1  0.86067800  0.76367233  0.26359271  1.0
  Nb  Nb603  1  0.19401133  0.26367233  0.19216414  1.0
  Nb  Nb604  1  0.19401133  0.59700567  0.19216414  1.0
  Nb  Nb605  1  0.19401133  0.93033900  0.19216414  1.0
  Nb  Nb606  1  0.52734467  0.26367233  0.19216414  1.0
  Nb  Nb607  1  0.52734467  0.59700567  0.19216414  1.0
  Nb  Nb608  1  0.52734467  0.93033900  0.19216414  1.0
  Nb  Nb609  1  0.86067800  0.26367233  0.19216414  1.0
  Nb  Nb610  1  0.86067800  0.59700567  0.19216414  1.0
  Nb  Nb611  1  0.86067800  0.93033900  0.19216414  1.0
  Nb  Nb612  1  0.27566333  0.13783167  0.17322614  1.0
  Nb  Nb613  1  0.27566333  0.47116500  0.17322614  1.0
  Nb  Nb614  1  0.27566333  0.80449833  0.17322614  1.0
  Nb  Nb615  1  0.60899667  0.13783167  0.17322614  1.0
  Nb  Nb616  1  0.60899667  0.47116500  0.17322614  1.0
  Nb  Nb617  1  0.60899667  0.80449833  0.17322614  1.0
  Nb  Nb618  1  0.94233000  0.13783167  0.17322614  1.0
  Nb  Nb619  1  0.94233000  0.47116500  0.17322614  1.0
  Nb  Nb620  1  0.94233000  0.80449833  0.17322614  1.0
  Nb  Nb621  1  0.27566333  0.30449833  0.24465471  1.0
  Nb  Nb622  1  0.27566333  0.63783167  0.24465471  1.0
  Nb  Nb623  1  0.27566333  0.97116500  0.24465471  1.0
  Nb  Nb624  1  0.60899667  0.30449833  0.24465471  1.0
  Nb  Nb625  1  0.60899667  0.63783167  0.24465471  1.0
  Nb  Nb626  1  0.60899667  0.97116500  0.24465471  1.0
  Nb  Nb627  1  0.94233000  0.30449833  0.24465471  1.0
  Nb  Nb628  1  0.94233000  0.63783167  0.24465471  1.0
  Nb  Nb629  1  0.94233000  0.97116500  0.24465471  1.0
  Nb  Nb630  1  0.10887600  0.05443800  0.20886286  1.0
  Nb  Nb631  1  0.10887600  0.38777133  0.20886286  1.0
  Nb  Nb632  1  0.10887600  0.72110467  0.20886286  1.0
  Nb  Nb633  1  0.44220933  0.05443800  0.20886286  1.0
  Nb  Nb634  1  0.44220933  0.38777133  0.20886286  1.0
  Nb  Nb635  1  0.44220933  0.72110467  0.20886286  1.0
  Nb  Nb636  1  0.77554267  0.05443800  0.20886286  1.0
  Nb  Nb637  1  0.77554267  0.38777133  0.20886286  1.0
  Nb  Nb638  1  0.77554267  0.72110467  0.20886286  1.0
  Nb  Nb639  1  0.10887600  0.22110467  0.28029143  1.0
  Nb  Nb640  1  0.10887600  0.55443800  0.28029143  1.0
  Nb  Nb641  1  0.10887600  0.88777133  0.28029143  1.0
  Nb  Nb642  1  0.44220933  0.22110467  0.28029143  1.0
  Nb  Nb643  1  0.44220933  0.55443800  0.28029143  1.0
  Nb  Nb644  1  0.44220933  0.88777133  0.28029143  1.0
  Nb  Nb645  1  0.77554267  0.22110467  0.28029143  1.0
  Nb  Nb646  1  0.77554267  0.55443800  0.28029143  1.0
  Nb  Nb647  1  0.77554267  0.88777133  0.28029143  1.0
  Nb  Nb648  1  0.22445733  0.11222867  0.28316514  1.0
  Nb  Nb649  1  0.22445733  0.44556200  0.28316514  1.0
  Nb  Nb650  1  0.22445733  0.77889533  0.28316514  1.0
  Nb  Nb651  1  0.55779067  0.11222867  0.28316514  1.0
  Nb  Nb652  1  0.55779067  0.44556200  0.28316514  1.0
  Nb  Nb653  1  0.55779067  0.77889533  0.28316514  1.0
  Nb  Nb654  1  0.89112400  0.11222867  0.28316514  1.0
  Nb  Nb655  1  0.89112400  0.44556200  0.28316514  1.0
  Nb  Nb656  1  0.89112400  0.77889533  0.28316514  1.0
  Nb  Nb657  1  0.22445733  0.27889533  0.21173657  1.0
  Nb  Nb658  1  0.22445733  0.61222867  0.21173657  1.0
  Nb  Nb659  1  0.22445733  0.94556200  0.21173657  1.0
  Nb  Nb660  1  0.55779067  0.27889533  0.21173657  1.0
  Nb  Nb661  1  0.55779067  0.61222867  0.21173657  1.0
  Nb  Nb662  1  0.55779067  0.94556200  0.21173657  1.0
  Nb  Nb663  1  0.89112400  0.27889533  0.21173657  1.0
  Nb  Nb664  1  0.89112400  0.61222867  0.21173657  1.0
  Nb  Nb665  1  0.89112400  0.94556200  0.21173657  1.0
  Nb  Nb666  1  0.05767000  0.02883500  0.17594471  1.0
  Nb  Nb667  1  0.05767000  0.36216833  0.17594471  1.0
  Nb  Nb668  1  0.05767000  0.69550167  0.17594471  1.0
  Nb  Nb669  1  0.39100333  0.02883500  0.17594471  1.0
  Nb  Nb670  1  0.39100333  0.36216833  0.17594471  1.0
  Nb  Nb671  1  0.39100333  0.69550167  0.17594471  1.0
  Nb  Nb672  1  0.72433667  0.02883500  0.17594471  1.0
  Nb  Nb673  1  0.72433667  0.36216833  0.17594471  1.0
  Nb  Nb674  1  0.72433667  0.69550167  0.17594471  1.0
  Nb  Nb675  1  0.05767000  0.19550167  0.24737329  1.0
  Nb  Nb676  1  0.05767000  0.52883500  0.24737329  1.0
  Nb  Nb677  1  0.05767000  0.86216833  0.24737329  1.0
  Nb  Nb678  1  0.39100333  0.19550167  0.24737329  1.0
  Nb  Nb679  1  0.39100333  0.52883500  0.24737329  1.0
  Nb  Nb680  1  0.39100333  0.86216833  0.24737329  1.0
  Nb  Nb681  1  0.72433667  0.19550167  0.24737329  1.0
  Nb  Nb682  1  0.72433667  0.52883500  0.24737329  1.0
  Nb  Nb683  1  0.72433667  0.86216833  0.24737329  1.0
  Nb  Nb684  1  0.00000000  0.16666667  0.21029971  1.0
  Nb  Nb685  1  0.00000000  0.50000000  0.21029971  1.0
  Nb  Nb686  1  0.00000000  0.83333333  0.21029971  1.0
  Nb  Nb687  1  0.33333333  0.16666667  0.21029971  1.0
  Nb  Nb688  1  0.33333333  0.50000000  0.21029971  1.0
  Nb  Nb689  1  0.33333333  0.83333333  0.21029971  1.0
  Nb  Nb690  1  0.66666667  0.16666667  0.21029971  1.0
  Nb  Nb691  1  0.66666667  0.50000000  0.21029971  1.0
  Nb  Nb692  1  0.66666667  0.83333333  0.21029971  1.0
  Nb  Nb693  1  0.00000000  0.00000000  0.28172829  1.0
  Nb  Nb694  1  0.00000000  0.33333333  0.28172829  1.0
  Nb  Nb695  1  0.00000000  0.66666667  0.28172829  1.0
  Nb  Nb696  1  0.33333333  0.00000000  0.28172829  1.0
  Nb  Nb697  1  0.33333333  0.33333333  0.28172829  1.0
  Nb  Nb698  1  0.33333333  0.66666667  0.28172829  1.0
  Nb  Nb699  1  0.66666667  0.00000000  0.28172829  1.0
  Nb  Nb700  1  0.66666667  0.33333333  0.28172829  1.0
  Nb  Nb701  1  0.66666667  0.66666667  0.28172829  1.0
  Ni  Ni702  1  0.06948400  0.11706867  0.21882229  1.0
  Ni  Ni703  1  0.06948400  0.45040200  0.21882229  1.0
  Ni  Ni704  1  0.06948400  0.78373533  0.21882229  1.0
  Ni  Ni705  1  0.40281733  0.11706867  0.21882229  1.0
  Ni  Ni706  1  0.40281733  0.45040200  0.21882229  1.0
  Ni  Ni707  1  0.40281733  0.78373533  0.21882229  1.0
  Ni  Ni708  1  0.73615067  0.11706867  0.21882229  1.0
  Ni  Ni709  1  0.73615067  0.45040200  0.21882229  1.0
  Ni  Ni710  1  0.73615067  0.78373533  0.21882229  1.0
  Ni  Ni711  1  0.06948400  0.28373533  0.14739371  1.0
  Ni  Ni712  1  0.06948400  0.61706867  0.14739371  1.0
  Ni  Ni713  1  0.06948400  0.95040200  0.14739371  1.0
  Ni  Ni714  1  0.40281733  0.28373533  0.14739371  1.0
  Ni  Ni715  1  0.40281733  0.61706867  0.14739371  1.0
  Ni  Ni716  1  0.40281733  0.95040200  0.14739371  1.0
  Ni  Ni717  1  0.73615067  0.28373533  0.14739371  1.0
  Ni  Ni718  1  0.73615067  0.61706867  0.14739371  1.0
  Ni  Ni719  1  0.73615067  0.95040200  0.14739371  1.0
  Ni  Ni720  1  0.23472867  0.03395183  0.25401993  1.0
  Ni  Ni721  1  0.23472867  0.36728517  0.25401993  1.0
  Ni  Ni722  1  0.23472867  0.70061850  0.25401993  1.0
  Ni  Ni723  1  0.56806200  0.03395183  0.25401993  1.0
  Ni  Ni724  1  0.56806200  0.36728517  0.25401993  1.0
  Ni  Ni725  1  0.56806200  0.70061850  0.25401993  1.0
  Ni  Ni726  1  0.90139533  0.03395183  0.25401993  1.0
  Ni  Ni727  1  0.90139533  0.36728517  0.25401993  1.0
  Ni  Ni728  1  0.90139533  0.70061850  0.25401993  1.0
  Ni  Ni729  1  0.23472867  0.20061850  0.18259136  1.0
  Ni  Ni730  1  0.23472867  0.53395183  0.18259136  1.0
  Ni  Ni731  1  0.23472867  0.86728517  0.18259136  1.0
  Ni  Ni732  1  0.56806200  0.20061850  0.18259136  1.0
  Ni  Ni733  1  0.56806200  0.53395183  0.18259136  1.0
  Ni  Ni734  1  0.56806200  0.86728517  0.18259136  1.0
  Ni  Ni735  1  0.90139533  0.20061850  0.18259136  1.0
  Ni  Ni736  1  0.90139533  0.53395183  0.18259136  1.0
  Ni  Ni737  1  0.90139533  0.86728517  0.18259136  1.0
  Ni  Ni738  1  0.23413733  0.03474200  0.18353943  1.0
  Ni  Ni739  1  0.23413733  0.36807533  0.18353943  1.0
  Ni  Ni740  1  0.23413733  0.70140867  0.18353943  1.0
  Ni  Ni741  1  0.56747067  0.03474200  0.18353943  1.0
  Ni  Ni742  1  0.56747067  0.36807533  0.18353943  1.0
  Ni  Ni743  1  0.56747067  0.70140867  0.18353943  1.0
  Ni  Ni744  1  0.90080400  0.03474200  0.18353943  1.0
  Ni  Ni745  1  0.90080400  0.36807533  0.18353943  1.0
  Ni  Ni746  1  0.90080400  0.70140867  0.18353943  1.0
  Ni  Ni747  1  0.23413733  0.20140867  0.25496800  1.0
  Ni  Ni748  1  0.23413733  0.53474200  0.25496800  1.0
  Ni  Ni749  1  0.23413733  0.86807533  0.25496800  1.0
  Ni  Ni750  1  0.56747067  0.20140867  0.25496800  1.0
  Ni  Ni751  1  0.56747067  0.53474200  0.25496800  1.0
  Ni  Ni752  1  0.56747067  0.86807533  0.25496800  1.0
  Ni  Ni753  1  0.90080400  0.20140867  0.25496800  1.0
  Ni  Ni754  1  0.90080400  0.53474200  0.25496800  1.0
  Ni  Ni755  1  0.90080400  0.86807533  0.25496800  1.0
  Ni  Ni756  1  0.06790367  0.11736433  0.14691100  1.0
  Ni  Ni757  1  0.06790367  0.45069767  0.14691100  1.0
  Ni  Ni758  1  0.06790367  0.78403100  0.14691100  1.0
  Ni  Ni759  1  0.40123700  0.11736433  0.14691100  1.0
  Ni  Ni760  1  0.40123700  0.45069767  0.14691100  1.0
  Ni  Ni761  1  0.40123700  0.78403100  0.14691100  1.0
  Ni  Ni762  1  0.73457033  0.11736433  0.14691100  1.0
  Ni  Ni763  1  0.73457033  0.45069767  0.14691100  1.0
  Ni  Ni764  1  0.73457033  0.78403100  0.14691100  1.0
  Ni  Ni765  1  0.06790367  0.28403100  0.21833957  1.0
  Ni  Ni766  1  0.06790367  0.61736433  0.21833957  1.0
  Ni  Ni767  1  0.06790367  0.95069767  0.21833957  1.0
  Ni  Ni768  1  0.40123700  0.28403100  0.21833957  1.0
  Ni  Ni769  1  0.40123700  0.61736433  0.21833957  1.0
  Ni  Ni770  1  0.40123700  0.95069767  0.21833957  1.0
  Ni  Ni771  1  0.73457033  0.28403100  0.21833957  1.0
  Ni  Ni772  1  0.73457033  0.61736433  0.21833957  1.0
  Ni  Ni773  1  0.73457033  0.95069767  0.21833957  1.0
  Ni  Ni774  1  0.06948400  0.03474200  0.25410514  1.0
  Ni  Ni775  1  0.06948400  0.36807533  0.25410514  1.0
  Ni  Ni776  1  0.06948400  0.70140867  0.25410514  1.0
  Ni  Ni777  1  0.40281733  0.03474200  0.25410514  1.0
  Ni  Ni778  1  0.40281733  0.36807533  0.25410514  1.0
  Ni  Ni779  1  0.40281733  0.70140867  0.25410514  1.0
  Ni  Ni780  1  0.73615067  0.03474200  0.25410514  1.0
  Ni  Ni781  1  0.73615067  0.36807533  0.25410514  1.0
  Ni  Ni782  1  0.73615067  0.70140867  0.25410514  1.0
  Ni  Ni783  1  0.06948400  0.20140867  0.18267657  1.0
  Ni  Ni784  1  0.06948400  0.53474200  0.18267657  1.0
  Ni  Ni785  1  0.06948400  0.86807533  0.18267657  1.0
  Ni  Ni786  1  0.40281733  0.20140867  0.18267657  1.0
  Ni  Ni787  1  0.40281733  0.53474200  0.18267657  1.0
  Ni  Ni788  1  0.40281733  0.86807533  0.18267657  1.0
  Ni  Ni789  1  0.73615067  0.20140867  0.18267657  1.0
  Ni  Ni790  1  0.73615067  0.53474200  0.18267657  1.0
  Ni  Ni791  1  0.73615067  0.86807533  0.18267657  1.0
  Ni  Ni792  1  0.23472867  0.11736433  0.21827171  1.0
  Ni  Ni793  1  0.23472867  0.45069767  0.21827171  1.0
  Ni  Ni794  1  0.23472867  0.78403100  0.21827171  1.0
  Ni  Ni795  1  0.56806200  0.11736433  0.21827171  1.0
  Ni  Ni796  1  0.56806200  0.45069767  0.21827171  1.0
  Ni  Ni797  1  0.56806200  0.78403100  0.21827171  1.0
  Ni  Ni798  1  0.90139533  0.11736433  0.21827171  1.0
  Ni  Ni799  1  0.90139533  0.45069767  0.21827171  1.0
  Ni  Ni800  1  0.90139533  0.78403100  0.21827171  1.0
  Ni  Ni801  1  0.23472867  0.28403100  0.14684314  1.0
  Ni  Ni802  1  0.23472867  0.61736433  0.14684314  1.0
  Ni  Ni803  1  0.23472867  0.95069767  0.14684314  1.0
  Ni  Ni804  1  0.56806200  0.28403100  0.14684314  1.0
  Ni  Ni805  1  0.56806200  0.61736433  0.14684314  1.0
  Ni  Ni806  1  0.56806200  0.95069767  0.14684314  1.0
  Ni  Ni807  1  0.90139533  0.28403100  0.14684314  1.0
  Ni  Ni808  1  0.90139533  0.61736433  0.14684314  1.0
  Ni  Ni809  1  0.90139533  0.95069767  0.14684314  1.0
  Ni  Ni810  1  0.09860467  0.13271483  0.23800807  1.0
  Ni  Ni811  1  0.09860467  0.46604817  0.23800807  1.0
  Ni  Ni812  1  0.09860467  0.79938150  0.23800807  1.0
  Ni  Ni813  1  0.43193800  0.13271483  0.23800807  1.0
  Ni  Ni814  1  0.43193800  0.46604817  0.23800807  1.0
  Ni  Ni815  1  0.43193800  0.79938150  0.23800807  1.0
  Ni  Ni816  1  0.76527133  0.13271483  0.23800807  1.0
  Ni  Ni817  1  0.76527133  0.46604817  0.23800807  1.0
  Ni  Ni818  1  0.76527133  0.79938150  0.23800807  1.0
  Ni  Ni819  1  0.09860467  0.29938150  0.16657950  1.0
  Ni  Ni820  1  0.09860467  0.63271483  0.16657950  1.0
  Ni  Ni821  1  0.09860467  0.96604817  0.16657950  1.0
  Ni  Ni822  1  0.43193800  0.29938150  0.16657950  1.0
  Ni  Ni823  1  0.43193800  0.63271483  0.16657950  1.0
  Ni  Ni824  1  0.43193800  0.96604817  0.16657950  1.0
  Ni  Ni825  1  0.76527133  0.29938150  0.16657950  1.0
  Ni  Ni826  1  0.76527133  0.63271483  0.16657950  1.0
  Ni  Ni827  1  0.76527133  0.96604817  0.16657950  1.0
  Ni  Ni828  1  0.26384933  0.04959800  0.27320571  1.0
  Ni  Ni829  1  0.26384933  0.38293133  0.27320571  1.0
  Ni  Ni830  1  0.26384933  0.71626467  0.27320571  1.0
  Ni  Ni831  1  0.59718267  0.04959800  0.27320571  1.0
  Ni  Ni832  1  0.59718267  0.38293133  0.27320571  1.0
  Ni  Ni833  1  0.59718267  0.71626467  0.27320571  1.0
  Ni  Ni834  1  0.93051600  0.04959800  0.27320571  1.0
  Ni  Ni835  1  0.93051600  0.38293133  0.27320571  1.0
  Ni  Ni836  1  0.93051600  0.71626467  0.27320571  1.0
  Ni  Ni837  1  0.26384933  0.21626467  0.20177714  1.0
  Ni  Ni838  1  0.26384933  0.54959800  0.20177714  1.0
  Ni  Ni839  1  0.26384933  0.88293133  0.20177714  1.0
  Ni  Ni840  1  0.59718267  0.21626467  0.20177714  1.0
  Ni  Ni841  1  0.59718267  0.54959800  0.20177714  1.0
  Ni  Ni842  1  0.59718267  0.88293133  0.20177714  1.0
  Ni  Ni843  1  0.93051600  0.21626467  0.20177714  1.0
  Ni  Ni844  1  0.93051600  0.54959800  0.20177714  1.0
  Ni  Ni845  1  0.93051600  0.88293133  0.20177714  1.0
  Ni  Ni846  1  0.26542967  0.04930233  0.20225986  1.0
  Ni  Ni847  1  0.26542967  0.38263567  0.20225986  1.0
  Ni  Ni848  1  0.26542967  0.71596900  0.20225986  1.0
  Ni  Ni849  1  0.59876300  0.04930233  0.20225986  1.0
  Ni  Ni850  1  0.59876300  0.38263567  0.20225986  1.0
  Ni  Ni851  1  0.59876300  0.71596900  0.20225986  1.0
  Ni  Ni852  1  0.93209633  0.04930233  0.20225986  1.0
  Ni  Ni853  1  0.93209633  0.38263567  0.20225986  1.0
  Ni  Ni854  1  0.93209633  0.71596900  0.20225986  1.0
  Ni  Ni855  1  0.26542967  0.21596900  0.27368843  1.0
  Ni  Ni856  1  0.26542967  0.54930233  0.27368843  1.0
  Ni  Ni857  1  0.26542967  0.88263567  0.27368843  1.0
  Ni  Ni858  1  0.59876300  0.21596900  0.27368843  1.0
  Ni  Ni859  1  0.59876300  0.54930233  0.27368843  1.0
  Ni  Ni860  1  0.59876300  0.88263567  0.27368843  1.0
  Ni  Ni861  1  0.93209633  0.21596900  0.27368843  1.0
  Ni  Ni862  1  0.93209633  0.54930233  0.27368843  1.0
  Ni  Ni863  1  0.93209633  0.88263567  0.27368843  1.0
  Ni  Ni864  1  0.09919600  0.13192467  0.16563143  1.0
  Ni  Ni865  1  0.09919600  0.46525800  0.16563143  1.0
  Ni  Ni866  1  0.09919600  0.79859133  0.16563143  1.0
  Ni  Ni867  1  0.43252933  0.13192467  0.16563143  1.0
  Ni  Ni868  1  0.43252933  0.46525800  0.16563143  1.0
  Ni  Ni869  1  0.43252933  0.79859133  0.16563143  1.0
  Ni  Ni870  1  0.76586267  0.13192467  0.16563143  1.0
  Ni  Ni871  1  0.76586267  0.46525800  0.16563143  1.0
  Ni  Ni872  1  0.76586267  0.79859133  0.16563143  1.0
  Ni  Ni873  1  0.09919600  0.29859133  0.23706000  1.0
  Ni  Ni874  1  0.09919600  0.63192467  0.23706000  1.0
  Ni  Ni875  1  0.09919600  0.96525800  0.23706000  1.0
  Ni  Ni876  1  0.43252933  0.29859133  0.23706000  1.0
  Ni  Ni877  1  0.43252933  0.63192467  0.23706000  1.0
  Ni  Ni878  1  0.43252933  0.96525800  0.23706000  1.0
  Ni  Ni879  1  0.76586267  0.29859133  0.23706000  1.0
  Ni  Ni880  1  0.76586267  0.63192467  0.23706000  1.0
  Ni  Ni881  1  0.76586267  0.96525800  0.23706000  1.0
  Ni  Ni882  1  0.09860467  0.04930233  0.27375629  1.0
  Ni  Ni883  1  0.09860467  0.38263567  0.27375629  1.0
  Ni  Ni884  1  0.09860467  0.71596900  0.27375629  1.0
  Ni  Ni885  1  0.43193800  0.04930233  0.27375629  1.0
  Ni  Ni886  1  0.43193800  0.38263567  0.27375629  1.0
  Ni  Ni887  1  0.43193800  0.71596900  0.27375629  1.0
  Ni  Ni888  1  0.76527133  0.04930233  0.27375629  1.0
  Ni  Ni889  1  0.76527133  0.38263567  0.27375629  1.0
  Ni  Ni890  1  0.76527133  0.71596900  0.27375629  1.0
  Ni  Ni891  1  0.09860467  0.21596900  0.20232771  1.0
  Ni  Ni892  1  0.09860467  0.54930233  0.20232771  1.0
  Ni  Ni893  1  0.09860467  0.88263567  0.20232771  1.0
  Ni  Ni894  1  0.43193800  0.21596900  0.20232771  1.0
  Ni  Ni895  1  0.43193800  0.54930233  0.20232771  1.0
  Ni  Ni896  1  0.43193800  0.88263567  0.20232771  1.0
  Ni  Ni897  1  0.76527133  0.21596900  0.20232771  1.0
  Ni  Ni898  1  0.76527133  0.54930233  0.20232771  1.0
  Ni  Ni899  1  0.76527133  0.88263567  0.20232771  1.0
  Ni  Ni900  1  0.26384933  0.13192467  0.23792286  1.0
  Ni  Ni901  1  0.26384933  0.46525800  0.23792286  1.0
  Ni  Ni902  1  0.26384933  0.79859133  0.23792286  1.0
  Ni  Ni903  1  0.59718267  0.13192467  0.23792286  1.0
  Ni  Ni904  1  0.59718267  0.46525800  0.23792286  1.0
  Ni  Ni905  1  0.59718267  0.79859133  0.23792286  1.0
  Ni  Ni906  1  0.93051600  0.13192467  0.23792286  1.0
  Ni  Ni907  1  0.93051600  0.46525800  0.23792286  1.0
  Ni  Ni908  1  0.93051600  0.79859133  0.23792286  1.0
  Ni  Ni909  1  0.26384933  0.29859133  0.16649429  1.0
  Ni  Ni910  1  0.26384933  0.63192467  0.16649429  1.0
  Ni  Ni911  1  0.26384933  0.96525800  0.16649429  1.0
  Ni  Ni912  1  0.59718267  0.29859133  0.16649429  1.0
  Ni  Ni913  1  0.59718267  0.63192467  0.16649429  1.0
  Ni  Ni914  1  0.59718267  0.96525800  0.16649429  1.0
  Ni  Ni915  1  0.93051600  0.29859133  0.16649429  1.0
  Ni  Ni916  1  0.93051600  0.63192467  0.16649429  1.0
  Ni  Ni917  1  0.93051600  0.96525800  0.16649429  1.0
  Ni  Ni918  1  0.16666667  0.08333333  0.24601400  1.0
  Ni  Ni919  1  0.16666667  0.41666667  0.24601400  1.0
  Ni  Ni920  1  0.16666667  0.75000000  0.24601400  1.0
  Ni  Ni921  1  0.50000000  0.08333333  0.24601400  1.0
  Ni  Ni922  1  0.50000000  0.41666667  0.24601400  1.0
  Ni  Ni923  1  0.50000000  0.75000000  0.24601400  1.0
  Ni  Ni924  1  0.83333333  0.08333333  0.24601400  1.0
  Ni  Ni925  1  0.83333333  0.41666667  0.24601400  1.0
  Ni  Ni926  1  0.83333333  0.75000000  0.24601400  1.0
  Ni  Ni927  1  0.16666667  0.25000000  0.17458543  1.0
  Ni  Ni928  1  0.16666667  0.58333333  0.17458543  1.0
  Ni  Ni929  1  0.16666667  0.91666667  0.17458543  1.0
  Ni  Ni930  1  0.50000000  0.25000000  0.17458543  1.0
  Ni  Ni931  1  0.50000000  0.58333333  0.17458543  1.0
  Ni  Ni932  1  0.50000000  0.91666667  0.17458543  1.0
  Ni  Ni933  1  0.83333333  0.25000000  0.17458543  1.0
  Ni  Ni934  1  0.83333333  0.58333333  0.17458543  1.0
  Ni  Ni935  1  0.83333333  0.91666667  0.17458543  1.0
  Nb  Nb936  1  0.25840067  0.12920033  0.30498586  1.0
  Nb  Nb937  1  0.25840067  0.46253367  0.30498586  1.0
  Nb  Nb938  1  0.25840067  0.79586700  0.30498586  1.0
  Nb  Nb939  1  0.59173400  0.12920033  0.30498586  1.0
  Nb  Nb940  1  0.59173400  0.46253367  0.30498586  1.0
  Nb  Nb941  1  0.59173400  0.79586700  0.30498586  1.0
  Nb  Nb942  1  0.92506733  0.12920033  0.30498586  1.0
  Nb  Nb943  1  0.92506733  0.46253367  0.30498586  1.0
  Nb  Nb944  1  0.92506733  0.79586700  0.30498586  1.0
  Nb  Nb945  1  0.25840067  0.29586700  0.37641443  1.0
  Nb  Nb946  1  0.25840067  0.62920033  0.37641443  1.0
  Nb  Nb947  1  0.25840067  0.96253367  0.37641443  1.0
  Nb  Nb948  1  0.59173400  0.29586700  0.37641443  1.0
  Nb  Nb949  1  0.59173400  0.62920033  0.37641443  1.0
  Nb  Nb950  1  0.59173400  0.96253367  0.37641443  1.0
  Nb  Nb951  1  0.92506733  0.29586700  0.37641443  1.0
  Nb  Nb952  1  0.92506733  0.62920033  0.37641443  1.0
  Nb  Nb953  1  0.92506733  0.96253367  0.37641443  1.0
  Nb  Nb954  1  0.09121700  0.04560850  0.34036779  1.0
  Nb  Nb955  1  0.09121700  0.37894183  0.34036779  1.0
  Nb  Nb956  1  0.09121700  0.71227517  0.34036779  1.0
  Nb  Nb957  1  0.42455033  0.04560850  0.34036779  1.0
  Nb  Nb958  1  0.42455033  0.37894183  0.34036779  1.0
  Nb  Nb959  1  0.42455033  0.71227517  0.34036779  1.0
  Nb  Nb960  1  0.75788367  0.04560850  0.34036779  1.0
  Nb  Nb961  1  0.75788367  0.37894183  0.34036779  1.0
  Nb  Nb962  1  0.75788367  0.71227517  0.34036779  1.0
  Nb  Nb963  1  0.09121700  0.21227517  0.41179636  1.0
  Nb  Nb964  1  0.09121700  0.54560850  0.41179636  1.0
  Nb  Nb965  1  0.09121700  0.87894183  0.41179636  1.0
  Nb  Nb966  1  0.42455033  0.21227517  0.41179636  1.0
  Nb  Nb967  1  0.42455033  0.54560850  0.41179636  1.0
  Nb  Nb968  1  0.42455033  0.87894183  0.41179636  1.0
  Nb  Nb969  1  0.75788367  0.21227517  0.41179636  1.0
  Nb  Nb970  1  0.75788367  0.54560850  0.41179636  1.0
  Nb  Nb971  1  0.75788367  0.87894183  0.41179636  1.0
  Nb  Nb972  1  0.24211633  0.12105817  0.29451736  1.0
  Nb  Nb973  1  0.24211633  0.45439150  0.29451736  1.0
  Nb  Nb974  1  0.24211633  0.78772483  0.29451736  1.0
  Nb  Nb975  1  0.57544967  0.12105817  0.29451736  1.0
  Nb  Nb976  1  0.57544967  0.45439150  0.29451736  1.0
  Nb  Nb977  1  0.57544967  0.78772483  0.29451736  1.0
  Nb  Nb978  1  0.90878300  0.12105817  0.29451736  1.0
  Nb  Nb979  1  0.90878300  0.45439150  0.29451736  1.0
  Nb  Nb980  1  0.90878300  0.78772483  0.29451736  1.0
  Nb  Nb981  1  0.24211633  0.28772483  0.36594593  1.0
  Nb  Nb982  1  0.24211633  0.62105817  0.36594593  1.0
  Nb  Nb983  1  0.24211633  0.95439150  0.36594593  1.0
  Nb  Nb984  1  0.57544967  0.28772483  0.36594593  1.0
  Nb  Nb985  1  0.57544967  0.62105817  0.36594593  1.0
  Nb  Nb986  1  0.57544967  0.95439150  0.36594593  1.0
  Nb  Nb987  1  0.90878300  0.28772483  0.36594593  1.0
  Nb  Nb988  1  0.90878300  0.62105817  0.36594593  1.0
  Nb  Nb989  1  0.90878300  0.95439150  0.36594593  1.0
  Nb  Nb990  1  0.07493267  0.03746633  0.32989929  1.0
  Nb  Nb991  1  0.07493267  0.37079967  0.32989929  1.0
  Nb  Nb992  1  0.07493267  0.70413300  0.32989929  1.0
  Nb  Nb993  1  0.40826600  0.03746633  0.32989929  1.0
  Nb  Nb994  1  0.40826600  0.37079967  0.32989929  1.0
  Nb  Nb995  1  0.40826600  0.70413300  0.32989929  1.0
  Nb  Nb996  1  0.74159933  0.03746633  0.32989929  1.0
  Nb  Nb997  1  0.74159933  0.37079967  0.32989929  1.0
  Nb  Nb998  1  0.74159933  0.70413300  0.32989929  1.0
  Nb  Nb999  1  0.07493267  0.20413300  0.40132786  1.0
  Nb  Nb1000  1  0.07493267  0.53746633  0.40132786  1.0
  Nb  Nb1001  1  0.07493267  0.87079967  0.40132786  1.0
  Nb  Nb1002  1  0.40826600  0.20413300  0.40132786  1.0
  Nb  Nb1003  1  0.40826600  0.53746633  0.40132786  1.0
  Nb  Nb1004  1  0.40826600  0.87079967  0.40132786  1.0
  Nb  Nb1005  1  0.74159933  0.20413300  0.40132786  1.0
  Nb  Nb1006  1  0.74159933  0.53746633  0.40132786  1.0
  Nb  Nb1007  1  0.74159933  0.87079967  0.40132786  1.0
  Nb  Nb1008  1  0.13932200  0.06966100  0.37129243  1.0
  Nb  Nb1009  1  0.13932200  0.40299433  0.37129243  1.0
  Nb  Nb1010  1  0.13932200  0.73632767  0.37129243  1.0
  Nb  Nb1011  1  0.47265533  0.06966100  0.37129243  1.0
  Nb  Nb1012  1  0.47265533  0.40299433  0.37129243  1.0
  Nb  Nb1013  1  0.47265533  0.73632767  0.37129243  1.0
  Nb  Nb1014  1  0.80598867  0.06966100  0.37129243  1.0
  Nb  Nb1015  1  0.80598867  0.40299433  0.37129243  1.0
  Nb  Nb1016  1  0.80598867  0.73632767  0.37129243  1.0
  Nb  Nb1017  1  0.13932200  0.23632767  0.29986386  1.0
  Nb  Nb1018  1  0.13932200  0.56966100  0.29986386  1.0
  Nb  Nb1019  1  0.13932200  0.90299433  0.29986386  1.0
  Nb  Nb1020  1  0.47265533  0.23632767  0.29986386  1.0
  Nb  Nb1021  1  0.47265533  0.56966100  0.29986386  1.0
  Nb  Nb1022  1  0.47265533  0.90299433  0.29986386  1.0
  Nb  Nb1023  1  0.80598867  0.23632767  0.29986386  1.0
  Nb  Nb1024  1  0.80598867  0.56966100  0.29986386  1.0
  Nb  Nb1025  1  0.80598867  0.90299433  0.29986386  1.0
  Nb  Nb1026  1  0.30516667  0.15258333  0.33504971  1.0
  Nb  Nb1027  1  0.30516667  0.48591667  0.33504971  1.0
  Nb  Nb1028  1  0.30516667  0.81925000  0.33504971  1.0
  Nb  Nb1029  1  0.63850000  0.15258333  0.33504971  1.0
  Nb  Nb1030  1  0.63850000  0.48591667  0.33504971  1.0
  Nb  Nb1031  1  0.63850000  0.81925000  0.33504971  1.0
  Nb  Nb1032  1  0.97183333  0.15258333  0.33504971  1.0
  Nb  Nb1033  1  0.97183333  0.48591667  0.33504971  1.0
  Nb  Nb1034  1  0.97183333  0.81925000  0.33504971  1.0
  Nb  Nb1035  1  0.30516667  0.31925000  0.40647829  1.0
  Nb  Nb1036  1  0.30516667  0.65258333  0.40647829  1.0
  Nb  Nb1037  1  0.30516667  0.98591667  0.40647829  1.0
  Nb  Nb1038  1  0.63850000  0.31925000  0.40647829  1.0
  Nb  Nb1039  1  0.63850000  0.65258333  0.40647829  1.0
  Nb  Nb1040  1  0.63850000  0.98591667  0.40647829  1.0
  Nb  Nb1041  1  0.97183333  0.31925000  0.40647829  1.0
  Nb  Nb1042  1  0.97183333  0.65258333  0.40647829  1.0
  Nb  Nb1043  1  0.97183333  0.98591667  0.40647829  1.0
  Nb  Nb1044  1  0.02816667  0.01408333  0.29983543  1.0
  Nb  Nb1045  1  0.02816667  0.34741667  0.29983543  1.0
  Nb  Nb1046  1  0.02816667  0.68075000  0.29983543  1.0
  Nb  Nb1047  1  0.36150000  0.01408333  0.29983543  1.0
  Nb  Nb1048  1  0.36150000  0.34741667  0.29983543  1.0
  Nb  Nb1049  1  0.36150000  0.68075000  0.29983543  1.0
  Nb  Nb1050  1  0.69483333  0.01408333  0.29983543  1.0
  Nb  Nb1051  1  0.69483333  0.34741667  0.29983543  1.0
  Nb  Nb1052  1  0.69483333  0.68075000  0.29983543  1.0
  Nb  Nb1053  1  0.02816667  0.18075000  0.37126400  1.0
  Nb  Nb1054  1  0.02816667  0.51408333  0.37126400  1.0
  Nb  Nb1055  1  0.02816667  0.84741667  0.37126400  1.0
  Nb  Nb1056  1  0.36150000  0.18075000  0.37126400  1.0
  Nb  Nb1057  1  0.36150000  0.51408333  0.37126400  1.0
  Nb  Nb1058  1  0.36150000  0.84741667  0.37126400  1.0
  Nb  Nb1059  1  0.69483333  0.18075000  0.37126400  1.0
  Nb  Nb1060  1  0.69483333  0.51408333  0.37126400  1.0
  Nb  Nb1061  1  0.69483333  0.84741667  0.37126400  1.0
  Nb  Nb1062  1  0.19401133  0.09700567  0.40644986  1.0
  Nb  Nb1063  1  0.19401133  0.43033900  0.40644986  1.0
  Nb  Nb1064  1  0.19401133  0.76367233  0.40644986  1.0
  Nb  Nb1065  1  0.52734467  0.09700567  0.40644986  1.0
  Nb  Nb1066  1  0.52734467  0.43033900  0.40644986  1.0
  Nb  Nb1067  1  0.52734467  0.76367233  0.40644986  1.0
  Nb  Nb1068  1  0.86067800  0.09700567  0.40644986  1.0
  Nb  Nb1069  1  0.86067800  0.43033900  0.40644986  1.0
  Nb  Nb1070  1  0.86067800  0.76367233  0.40644986  1.0
  Nb  Nb1071  1  0.19401133  0.26367233  0.33502129  1.0
  Nb  Nb1072  1  0.19401133  0.59700567  0.33502129  1.0
  Nb  Nb1073  1  0.19401133  0.93033900  0.33502129  1.0
  Nb  Nb1074  1  0.52734467  0.26367233  0.33502129  1.0
  Nb  Nb1075  1  0.52734467  0.59700567  0.33502129  1.0
  Nb  Nb1076  1  0.52734467  0.93033900  0.33502129  1.0
  Nb  Nb1077  1  0.86067800  0.26367233  0.33502129  1.0
  Nb  Nb1078  1  0.86067800  0.59700567  0.33502129  1.0
  Nb  Nb1079  1  0.86067800  0.93033900  0.33502129  1.0
  Nb  Nb1080  1  0.27566333  0.13783167  0.31608329  1.0
  Nb  Nb1081  1  0.27566333  0.47116500  0.31608329  1.0
  Nb  Nb1082  1  0.27566333  0.80449833  0.31608329  1.0
  Nb  Nb1083  1  0.60899667  0.13783167  0.31608329  1.0
  Nb  Nb1084  1  0.60899667  0.47116500  0.31608329  1.0
  Nb  Nb1085  1  0.60899667  0.80449833  0.31608329  1.0
  Nb  Nb1086  1  0.94233000  0.13783167  0.31608329  1.0
  Nb  Nb1087  1  0.94233000  0.47116500  0.31608329  1.0
  Nb  Nb1088  1  0.94233000  0.80449833  0.31608329  1.0
  Nb  Nb1089  1  0.27566333  0.30449833  0.38751186  1.0
  Nb  Nb1090  1  0.27566333  0.63783167  0.38751186  1.0
  Nb  Nb1091  1  0.27566333  0.97116500  0.38751186  1.0
  Nb  Nb1092  1  0.60899667  0.30449833  0.38751186  1.0
  Nb  Nb1093  1  0.60899667  0.63783167  0.38751186  1.0
  Nb  Nb1094  1  0.60899667  0.97116500  0.38751186  1.0
  Nb  Nb1095  1  0.94233000  0.30449833  0.38751186  1.0
  Nb  Nb1096  1  0.94233000  0.63783167  0.38751186  1.0
  Nb  Nb1097  1  0.94233000  0.97116500  0.38751186  1.0
  Nb  Nb1098  1  0.10887600  0.05443800  0.35172000  1.0
  Nb  Nb1099  1  0.10887600  0.38777133  0.35172000  1.0
  Nb  Nb1100  1  0.10887600  0.72110467  0.35172000  1.0
  Nb  Nb1101  1  0.44220933  0.05443800  0.35172000  1.0
  Nb  Nb1102  1  0.44220933  0.38777133  0.35172000  1.0
  Nb  Nb1103  1  0.44220933  0.72110467  0.35172000  1.0
  Nb  Nb1104  1  0.77554267  0.05443800  0.35172000  1.0
  Nb  Nb1105  1  0.77554267  0.38777133  0.35172000  1.0
  Nb  Nb1106  1  0.77554267  0.72110467  0.35172000  1.0
  Nb  Nb1107  1  0.10887600  0.22110467  0.42314857  1.0
  Nb  Nb1108  1  0.10887600  0.55443800  0.42314857  1.0
  Nb  Nb1109  1  0.10887600  0.88777133  0.42314857  1.0
  Nb  Nb1110  1  0.44220933  0.22110467  0.42314857  1.0
  Nb  Nb1111  1  0.44220933  0.55443800  0.42314857  1.0
  Nb  Nb1112  1  0.44220933  0.88777133  0.42314857  1.0
  Nb  Nb1113  1  0.77554267  0.22110467  0.42314857  1.0
  Nb  Nb1114  1  0.77554267  0.55443800  0.42314857  1.0
  Nb  Nb1115  1  0.77554267  0.88777133  0.42314857  1.0
  Nb  Nb1116  1  0.22445733  0.11222867  0.42602229  1.0
  Nb  Nb1117  1  0.22445733  0.44556200  0.42602229  1.0
  Nb  Nb1118  1  0.22445733  0.77889533  0.42602229  1.0
  Nb  Nb1119  1  0.55779067  0.11222867  0.42602229  1.0
  Nb  Nb1120  1  0.55779067  0.44556200  0.42602229  1.0
  Nb  Nb1121  1  0.55779067  0.77889533  0.42602229  1.0
  Nb  Nb1122  1  0.89112400  0.11222867  0.42602229  1.0
  Nb  Nb1123  1  0.89112400  0.44556200  0.42602229  1.0
  Nb  Nb1124  1  0.89112400  0.77889533  0.42602229  1.0
  Nb  Nb1125  1  0.22445733  0.27889533  0.35459371  1.0
  Nb  Nb1126  1  0.22445733  0.61222867  0.35459371  1.0
  Nb  Nb1127  1  0.22445733  0.94556200  0.35459371  1.0
  Nb  Nb1128  1  0.55779067  0.27889533  0.35459371  1.0
  Nb  Nb1129  1  0.55779067  0.61222867  0.35459371  1.0
  Nb  Nb1130  1  0.55779067  0.94556200  0.35459371  1.0
  Nb  Nb1131  1  0.89112400  0.27889533  0.35459371  1.0
  Nb  Nb1132  1  0.89112400  0.61222867  0.35459371  1.0
  Nb  Nb1133  1  0.89112400  0.94556200  0.35459371  1.0
  Nb  Nb1134  1  0.05767000  0.02883500  0.31880186  1.0
  Nb  Nb1135  1  0.05767000  0.36216833  0.31880186  1.0
  Nb  Nb1136  1  0.05767000  0.69550167  0.31880186  1.0
  Nb  Nb1137  1  0.39100333  0.02883500  0.31880186  1.0
  Nb  Nb1138  1  0.39100333  0.36216833  0.31880186  1.0
  Nb  Nb1139  1  0.39100333  0.69550167  0.31880186  1.0
  Nb  Nb1140  1  0.72433667  0.02883500  0.31880186  1.0
  Nb  Nb1141  1  0.72433667  0.36216833  0.31880186  1.0
  Nb  Nb1142  1  0.72433667  0.69550167  0.31880186  1.0
  Nb  Nb1143  1  0.05767000  0.19550167  0.39023043  1.0
  Nb  Nb1144  1  0.05767000  0.52883500  0.39023043  1.0
  Nb  Nb1145  1  0.05767000  0.86216833  0.39023043  1.0
  Nb  Nb1146  1  0.39100333  0.19550167  0.39023043  1.0
  Nb  Nb1147  1  0.39100333  0.52883500  0.39023043  1.0
  Nb  Nb1148  1  0.39100333  0.86216833  0.39023043  1.0
  Nb  Nb1149  1  0.72433667  0.19550167  0.39023043  1.0
  Nb  Nb1150  1  0.72433667  0.52883500  0.39023043  1.0
  Nb  Nb1151  1  0.72433667  0.86216833  0.39023043  1.0
  Nb  Nb1152  1  0.00000000  0.16666667  0.35315686  1.0
  Nb  Nb1153  1  0.00000000  0.50000000  0.35315686  1.0
  Nb  Nb1154  1  0.00000000  0.83333333  0.35315686  1.0
  Nb  Nb1155  1  0.33333333  0.16666667  0.35315686  1.0
  Nb  Nb1156  1  0.33333333  0.50000000  0.35315686  1.0
  Nb  Nb1157  1  0.33333333  0.83333333  0.35315686  1.0
  Nb  Nb1158  1  0.66666667  0.16666667  0.35315686  1.0
  Nb  Nb1159  1  0.66666667  0.50000000  0.35315686  1.0
  Nb  Nb1160  1  0.66666667  0.83333333  0.35315686  1.0
  Nb  Nb1161  1  0.00000000  0.00000000  0.42458543  1.0
  Nb  Nb1162  1  0.00000000  0.33333333  0.42458543  1.0
  Nb  Nb1163  1  0.00000000  0.66666667  0.42458543  1.0
  Nb  Nb1164  1  0.33333333  0.00000000  0.42458543  1.0
  Nb  Nb1165  1  0.33333333  0.33333333  0.42458543  1.0
  Nb  Nb1166  1  0.33333333  0.66666667  0.42458543  1.0
  Nb  Nb1167  1  0.66666667  0.00000000  0.42458543  1.0
  Nb  Nb1168  1  0.66666667  0.33333333  0.42458543  1.0
  Nb  Nb1169  1  0.66666667  0.66666667  0.42458543  1.0
  Ni  Ni1170  1  0.06948400  0.11706867  0.36167943  1.0
  Ni  Ni1171  1  0.06948400  0.45040200  0.36167943  1.0
  Ni  Ni1172  1  0.06948400  0.78373533  0.36167943  1.0
  Ni  Ni1173  1  0.40281733  0.11706867  0.36167943  1.0
  Ni  Ni1174  1  0.40281733  0.45040200  0.36167943  1.0
  Ni  Ni1175  1  0.40281733  0.78373533  0.36167943  1.0
  Ni  Ni1176  1  0.73615067  0.11706867  0.36167943  1.0
  Ni  Ni1177  1  0.73615067  0.45040200  0.36167943  1.0
  Ni  Ni1178  1  0.73615067  0.78373533  0.36167943  1.0
  Ni  Ni1179  1  0.06948400  0.28373533  0.29025086  1.0
  Ni  Ni1180  1  0.06948400  0.61706867  0.29025086  1.0
  Ni  Ni1181  1  0.06948400  0.95040200  0.29025086  1.0
  Ni  Ni1182  1  0.40281733  0.28373533  0.29025086  1.0
  Ni  Ni1183  1  0.40281733  0.61706867  0.29025086  1.0
  Ni  Ni1184  1  0.40281733  0.95040200  0.29025086  1.0
  Ni  Ni1185  1  0.73615067  0.28373533  0.29025086  1.0
  Ni  Ni1186  1  0.73615067  0.61706867  0.29025086  1.0
  Ni  Ni1187  1  0.73615067  0.95040200  0.29025086  1.0
  Ni  Ni1188  1  0.23472867  0.03395183  0.39687707  1.0
  Ni  Ni1189  1  0.23472867  0.36728517  0.39687707  1.0
  Ni  Ni1190  1  0.23472867  0.70061850  0.39687707  1.0
  Ni  Ni1191  1  0.56806200  0.03395183  0.39687707  1.0
  Ni  Ni1192  1  0.56806200  0.36728517  0.39687707  1.0
  Ni  Ni1193  1  0.56806200  0.70061850  0.39687707  1.0
  Ni  Ni1194  1  0.90139533  0.03395183  0.39687707  1.0
  Ni  Ni1195  1  0.90139533  0.36728517  0.39687707  1.0
  Ni  Ni1196  1  0.90139533  0.70061850  0.39687707  1.0
  Ni  Ni1197  1  0.23472867  0.20061850  0.32544850  1.0
  Ni  Ni1198  1  0.23472867  0.53395183  0.32544850  1.0
  Ni  Ni1199  1  0.23472867  0.86728517  0.32544850  1.0
  Ni  Ni1200  1  0.56806200  0.20061850  0.32544850  1.0
  Ni  Ni1201  1  0.56806200  0.53395183  0.32544850  1.0
  Ni  Ni1202  1  0.56806200  0.86728517  0.32544850  1.0
  Ni  Ni1203  1  0.90139533  0.20061850  0.32544850  1.0
  Ni  Ni1204  1  0.90139533  0.53395183  0.32544850  1.0
  Ni  Ni1205  1  0.90139533  0.86728517  0.32544850  1.0
  Ni  Ni1206  1  0.23413733  0.03474200  0.32639657  1.0
  Ni  Ni1207  1  0.23413733  0.36807533  0.32639657  1.0
  Ni  Ni1208  1  0.23413733  0.70140867  0.32639657  1.0
  Ni  Ni1209  1  0.56747067  0.03474200  0.32639657  1.0
  Ni  Ni1210  1  0.56747067  0.36807533  0.32639657  1.0
  Ni  Ni1211  1  0.56747067  0.70140867  0.32639657  1.0
  Ni  Ni1212  1  0.90080400  0.03474200  0.32639657  1.0
  Ni  Ni1213  1  0.90080400  0.36807533  0.32639657  1.0
  Ni  Ni1214  1  0.90080400  0.70140867  0.32639657  1.0
  Ni  Ni1215  1  0.23413733  0.20140867  0.39782514  1.0
  Ni  Ni1216  1  0.23413733  0.53474200  0.39782514  1.0
  Ni  Ni1217  1  0.23413733  0.86807533  0.39782514  1.0
  Ni  Ni1218  1  0.56747067  0.20140867  0.39782514  1.0
  Ni  Ni1219  1  0.56747067  0.53474200  0.39782514  1.0
  Ni  Ni1220  1  0.56747067  0.86807533  0.39782514  1.0
  Ni  Ni1221  1  0.90080400  0.20140867  0.39782514  1.0
  Ni  Ni1222  1  0.90080400  0.53474200  0.39782514  1.0
  Ni  Ni1223  1  0.90080400  0.86807533  0.39782514  1.0
  Ni  Ni1224  1  0.06790367  0.11736433  0.28976814  1.0
  Ni  Ni1225  1  0.06790367  0.45069767  0.28976814  1.0
  Ni  Ni1226  1  0.06790367  0.78403100  0.28976814  1.0
  Ni  Ni1227  1  0.40123700  0.11736433  0.28976814  1.0
  Ni  Ni1228  1  0.40123700  0.45069767  0.28976814  1.0
  Ni  Ni1229  1  0.40123700  0.78403100  0.28976814  1.0
  Ni  Ni1230  1  0.73457033  0.11736433  0.28976814  1.0
  Ni  Ni1231  1  0.73457033  0.45069767  0.28976814  1.0
  Ni  Ni1232  1  0.73457033  0.78403100  0.28976814  1.0
  Ni  Ni1233  1  0.06790367  0.28403100  0.36119671  1.0
  Ni  Ni1234  1  0.06790367  0.61736433  0.36119671  1.0
  Ni  Ni1235  1  0.06790367  0.95069767  0.36119671  1.0
  Ni  Ni1236  1  0.40123700  0.28403100  0.36119671  1.0
  Ni  Ni1237  1  0.40123700  0.61736433  0.36119671  1.0
  Ni  Ni1238  1  0.40123700  0.95069767  0.36119671  1.0
  Ni  Ni1239  1  0.73457033  0.28403100  0.36119671  1.0
  Ni  Ni1240  1  0.73457033  0.61736433  0.36119671  1.0
  Ni  Ni1241  1  0.73457033  0.95069767  0.36119671  1.0
  Ni  Ni1242  1  0.06948400  0.03474200  0.39696229  1.0
  Ni  Ni1243  1  0.06948400  0.36807533  0.39696229  1.0
  Ni  Ni1244  1  0.06948400  0.70140867  0.39696229  1.0
  Ni  Ni1245  1  0.40281733  0.03474200  0.39696229  1.0
  Ni  Ni1246  1  0.40281733  0.36807533  0.39696229  1.0
  Ni  Ni1247  1  0.40281733  0.70140867  0.39696229  1.0
  Ni  Ni1248  1  0.73615067  0.03474200  0.39696229  1.0
  Ni  Ni1249  1  0.73615067  0.36807533  0.39696229  1.0
  Ni  Ni1250  1  0.73615067  0.70140867  0.39696229  1.0
  Ni  Ni1251  1  0.06948400  0.20140867  0.32553371  1.0
  Ni  Ni1252  1  0.06948400  0.53474200  0.32553371  1.0
  Ni  Ni1253  1  0.06948400  0.86807533  0.32553371  1.0
  Ni  Ni1254  1  0.40281733  0.20140867  0.32553371  1.0
  Ni  Ni1255  1  0.40281733  0.53474200  0.32553371  1.0
  Ni  Ni1256  1  0.40281733  0.86807533  0.32553371  1.0
  Ni  Ni1257  1  0.73615067  0.20140867  0.32553371  1.0
  Ni  Ni1258  1  0.73615067  0.53474200  0.32553371  1.0
  Ni  Ni1259  1  0.73615067  0.86807533  0.32553371  1.0
  Ni  Ni1260  1  0.23472867  0.11736433  0.36112886  1.0
  Ni  Ni1261  1  0.23472867  0.45069767  0.36112886  1.0
  Ni  Ni1262  1  0.23472867  0.78403100  0.36112886  1.0
  Ni  Ni1263  1  0.56806200  0.11736433  0.36112886  1.0
  Ni  Ni1264  1  0.56806200  0.45069767  0.36112886  1.0
  Ni  Ni1265  1  0.56806200  0.78403100  0.36112886  1.0
  Ni  Ni1266  1  0.90139533  0.11736433  0.36112886  1.0
  Ni  Ni1267  1  0.90139533  0.45069767  0.36112886  1.0
  Ni  Ni1268  1  0.90139533  0.78403100  0.36112886  1.0
  Ni  Ni1269  1  0.23472867  0.28403100  0.28970029  1.0
  Ni  Ni1270  1  0.23472867  0.61736433  0.28970029  1.0
  Ni  Ni1271  1  0.23472867  0.95069767  0.28970029  1.0
  Ni  Ni1272  1  0.56806200  0.28403100  0.28970029  1.0
  Ni  Ni1273  1  0.56806200  0.61736433  0.28970029  1.0
  Ni  Ni1274  1  0.56806200  0.95069767  0.28970029  1.0
  Ni  Ni1275  1  0.90139533  0.28403100  0.28970029  1.0
  Ni  Ni1276  1  0.90139533  0.61736433  0.28970029  1.0
  Ni  Ni1277  1  0.90139533  0.95069767  0.28970029  1.0
  Ni  Ni1278  1  0.09860467  0.13271483  0.38086521  1.0
  Ni  Ni1279  1  0.09860467  0.46604817  0.38086521  1.0
  Ni  Ni1280  1  0.09860467  0.79938150  0.38086521  1.0
  Ni  Ni1281  1  0.43193800  0.13271483  0.38086521  1.0
  Ni  Ni1282  1  0.43193800  0.46604817  0.38086521  1.0
  Ni  Ni1283  1  0.43193800  0.79938150  0.38086521  1.0
  Ni  Ni1284  1  0.76527133  0.13271483  0.38086521  1.0
  Ni  Ni1285  1  0.76527133  0.46604817  0.38086521  1.0
  Ni  Ni1286  1  0.76527133  0.79938150  0.38086521  1.0
  Ni  Ni1287  1  0.09860467  0.29938150  0.30943664  1.0
  Ni  Ni1288  1  0.09860467  0.63271483  0.30943664  1.0
  Ni  Ni1289  1  0.09860467  0.96604817  0.30943664  1.0
  Ni  Ni1290  1  0.43193800  0.29938150  0.30943664  1.0
  Ni  Ni1291  1  0.43193800  0.63271483  0.30943664  1.0
  Ni  Ni1292  1  0.43193800  0.96604817  0.30943664  1.0
  Ni  Ni1293  1  0.76527133  0.29938150  0.30943664  1.0
  Ni  Ni1294  1  0.76527133  0.63271483  0.30943664  1.0
  Ni  Ni1295  1  0.76527133  0.96604817  0.30943664  1.0
  Ni  Ni1296  1  0.26384933  0.04959800  0.41606286  1.0
  Ni  Ni1297  1  0.26384933  0.38293133  0.41606286  1.0
  Ni  Ni1298  1  0.26384933  0.71626467  0.41606286  1.0
  Ni  Ni1299  1  0.59718267  0.04959800  0.41606286  1.0
  Ni  Ni1300  1  0.59718267  0.38293133  0.41606286  1.0
  Ni  Ni1301  1  0.59718267  0.71626467  0.41606286  1.0
  Ni  Ni1302  1  0.93051600  0.04959800  0.41606286  1.0
  Ni  Ni1303  1  0.93051600  0.38293133  0.41606286  1.0
  Ni  Ni1304  1  0.93051600  0.71626467  0.41606286  1.0
  Ni  Ni1305  1  0.26384933  0.21626467  0.34463429  1.0
  Ni  Ni1306  1  0.26384933  0.54959800  0.34463429  1.0
  Ni  Ni1307  1  0.26384933  0.88293133  0.34463429  1.0
  Ni  Ni1308  1  0.59718267  0.21626467  0.34463429  1.0
  Ni  Ni1309  1  0.59718267  0.54959800  0.34463429  1.0
  Ni  Ni1310  1  0.59718267  0.88293133  0.34463429  1.0
  Ni  Ni1311  1  0.93051600  0.21626467  0.34463429  1.0
  Ni  Ni1312  1  0.93051600  0.54959800  0.34463429  1.0
  Ni  Ni1313  1  0.93051600  0.88293133  0.34463429  1.0
  Ni  Ni1314  1  0.26542967  0.04930233  0.34511700  1.0
  Ni  Ni1315  1  0.26542967  0.38263567  0.34511700  1.0
  Ni  Ni1316  1  0.26542967  0.71596900  0.34511700  1.0
  Ni  Ni1317  1  0.59876300  0.04930233  0.34511700  1.0
  Ni  Ni1318  1  0.59876300  0.38263567  0.34511700  1.0
  Ni  Ni1319  1  0.59876300  0.71596900  0.34511700  1.0
  Ni  Ni1320  1  0.93209633  0.04930233  0.34511700  1.0
  Ni  Ni1321  1  0.93209633  0.38263567  0.34511700  1.0
  Ni  Ni1322  1  0.93209633  0.71596900  0.34511700  1.0
  Ni  Ni1323  1  0.26542967  0.21596900  0.41654557  1.0
  Ni  Ni1324  1  0.26542967  0.54930233  0.41654557  1.0
  Ni  Ni1325  1  0.26542967  0.88263567  0.41654557  1.0
  Ni  Ni1326  1  0.59876300  0.21596900  0.41654557  1.0
  Ni  Ni1327  1  0.59876300  0.54930233  0.41654557  1.0
  Ni  Ni1328  1  0.59876300  0.88263567  0.41654557  1.0
  Ni  Ni1329  1  0.93209633  0.21596900  0.41654557  1.0
  Ni  Ni1330  1  0.93209633  0.54930233  0.41654557  1.0
  Ni  Ni1331  1  0.93209633  0.88263567  0.41654557  1.0
  Ni  Ni1332  1  0.09919600  0.13192467  0.30848857  1.0
  Ni  Ni1333  1  0.09919600  0.46525800  0.30848857  1.0
  Ni  Ni1334  1  0.09919600  0.79859133  0.30848857  1.0
  Ni  Ni1335  1  0.43252933  0.13192467  0.30848857  1.0
  Ni  Ni1336  1  0.43252933  0.46525800  0.30848857  1.0
  Ni  Ni1337  1  0.43252933  0.79859133  0.30848857  1.0
  Ni  Ni1338  1  0.76586267  0.13192467  0.30848857  1.0
  Ni  Ni1339  1  0.76586267  0.46525800  0.30848857  1.0
  Ni  Ni1340  1  0.76586267  0.79859133  0.30848857  1.0
  Ni  Ni1341  1  0.09919600  0.29859133  0.37991714  1.0
  Ni  Ni1342  1  0.09919600  0.63192467  0.37991714  1.0
  Ni  Ni1343  1  0.09919600  0.96525800  0.37991714  1.0
  Ni  Ni1344  1  0.43252933  0.29859133  0.37991714  1.0
  Ni  Ni1345  1  0.43252933  0.63192467  0.37991714  1.0
  Ni  Ni1346  1  0.43252933  0.96525800  0.37991714  1.0
  Ni  Ni1347  1  0.76586267  0.29859133  0.37991714  1.0
  Ni  Ni1348  1  0.76586267  0.63192467  0.37991714  1.0
  Ni  Ni1349  1  0.76586267  0.96525800  0.37991714  1.0
  Ni  Ni1350  1  0.09860467  0.04930233  0.41661343  1.0
  Ni  Ni1351  1  0.09860467  0.38263567  0.41661343  1.0
  Ni  Ni1352  1  0.09860467  0.71596900  0.41661343  1.0
  Ni  Ni1353  1  0.43193800  0.04930233  0.41661343  1.0
  Ni  Ni1354  1  0.43193800  0.38263567  0.41661343  1.0
  Ni  Ni1355  1  0.43193800  0.71596900  0.41661343  1.0
  Ni  Ni1356  1  0.76527133  0.04930233  0.41661343  1.0
  Ni  Ni1357  1  0.76527133  0.38263567  0.41661343  1.0
  Ni  Ni1358  1  0.76527133  0.71596900  0.41661343  1.0
  Ni  Ni1359  1  0.09860467  0.21596900  0.34518486  1.0
  Ni  Ni1360  1  0.09860467  0.54930233  0.34518486  1.0
  Ni  Ni1361  1  0.09860467  0.88263567  0.34518486  1.0
  Ni  Ni1362  1  0.43193800  0.21596900  0.34518486  1.0
  Ni  Ni1363  1  0.43193800  0.54930233  0.34518486  1.0
  Ni  Ni1364  1  0.43193800  0.88263567  0.34518486  1.0
  Ni  Ni1365  1  0.76527133  0.21596900  0.34518486  1.0
  Ni  Ni1366  1  0.76527133  0.54930233  0.34518486  1.0
  Ni  Ni1367  1  0.76527133  0.88263567  0.34518486  1.0
  Ni  Ni1368  1  0.26384933  0.13192467  0.38078000  1.0
  Ni  Ni1369  1  0.26384933  0.46525800  0.38078000  1.0
  Ni  Ni1370  1  0.26384933  0.79859133  0.38078000  1.0
  Ni  Ni1371  1  0.59718267  0.13192467  0.38078000  1.0
  Ni  Ni1372  1  0.59718267  0.46525800  0.38078000  1.0
  Ni  Ni1373  1  0.59718267  0.79859133  0.38078000  1.0
  Ni  Ni1374  1  0.93051600  0.13192467  0.38078000  1.0
  Ni  Ni1375  1  0.93051600  0.46525800  0.38078000  1.0
  Ni  Ni1376  1  0.93051600  0.79859133  0.38078000  1.0
  Ni  Ni1377  1  0.26384933  0.29859133  0.30935143  1.0
  Ni  Ni1378  1  0.26384933  0.63192467  0.30935143  1.0
  Ni  Ni1379  1  0.26384933  0.96525800  0.30935143  1.0
  Ni  Ni1380  1  0.59718267  0.29859133  0.30935143  1.0
  Ni  Ni1381  1  0.59718267  0.63192467  0.30935143  1.0
  Ni  Ni1382  1  0.59718267  0.96525800  0.30935143  1.0
  Ni  Ni1383  1  0.93051600  0.29859133  0.30935143  1.0
  Ni  Ni1384  1  0.93051600  0.63192467  0.30935143  1.0
  Ni  Ni1385  1  0.93051600  0.96525800  0.30935143  1.0
  Ni  Ni1386  1  0.16666667  0.08333333  0.38887114  1.0
  Ni  Ni1387  1  0.16666667  0.41666667  0.38887114  1.0
  Ni  Ni1388  1  0.16666667  0.75000000  0.38887114  1.0
  Ni  Ni1389  1  0.50000000  0.08333333  0.38887114  1.0
  Ni  Ni1390  1  0.50000000  0.41666667  0.38887114  1.0
  Ni  Ni1391  1  0.50000000  0.75000000  0.38887114  1.0
  Ni  Ni1392  1  0.83333333  0.08333333  0.38887114  1.0
  Ni  Ni1393  1  0.83333333  0.41666667  0.38887114  1.0
  Ni  Ni1394  1  0.83333333  0.75000000  0.38887114  1.0
  Ni  Ni1395  1  0.16666667  0.25000000  0.31744257  1.0
  Ni  Ni1396  1  0.16666667  0.58333333  0.31744257  1.0
  Ni  Ni1397  1  0.16666667  0.91666667  0.31744257  1.0
  Ni  Ni1398  1  0.50000000  0.25000000  0.31744257  1.0
  Ni  Ni1399  1  0.50000000  0.58333333  0.31744257  1.0
  Ni  Ni1400  1  0.50000000  0.91666667  0.31744257  1.0
  Ni  Ni1401  1  0.83333333  0.25000000  0.31744257  1.0
  Ni  Ni1402  1  0.83333333  0.58333333  0.31744257  1.0
  Ni  Ni1403  1  0.83333333  0.91666667  0.31744257  1.0
