# generated using pymatgen
data_NbNi
_symmetry_space_group_name_H-M   'P 1'
_cell_length_a   57.87474528
_cell_length_b   14.70811264
_cell_length_c   72.01023368
_cell_angle_alpha   97.82609997
_cell_angle_beta   30.23447166
_cell_angle_gamma   82.69977597
_symmetry_Int_Tables_number   1
_chemical_formula_structural   NbNi
_chemical_formula_sum   'Nb468 Ni468'
_cell_volume   26646.05868540
_cell_formula_units_Z   468
loop_
 _symmetry_equiv_pos_site_id
 _symmetry_equiv_pos_as_xyz
  1  'x, y, z'
loop_
 _atom_site_type_symbol
 _atom_site_label
 _atom_site_symmetry_multiplicity
 _atom_site_fract_x
 _atom_site_fract_y
 _atom_site_fract_z
 _atom_site_occupancy
  Nb  Nb0  1  0.03746633  0.07493267  0.13299812  1.0
  Nb  Nb1  1  0.03746633  0.40826600  0.13299812  1.0
  Nb  Nb2  1  0.03746633  0.74159933  0.13299812  1.0
  Nb  Nb3  1  0.37079967  0.07493267  0.13299813  1.0
  Nb  Nb4  1  0.37079967  0.40826600  0.13299812  1.0
  Nb  Nb5  1  0.37079967  0.74159933  0.13299812  1.0
  Nb  Nb6  1  0.70413300  0.07493267  0.13299813  1.0
  Nb  Nb7  1  0.70413300  0.40826600  0.13299812  1.0
  Nb  Nb8  1  0.70413300  0.74159933  0.13299812  1.0
  Nb  Nb9  1  0.20413300  0.07493267  0.00799812  1.0
  Nb  Nb10  1  0.20413300  0.40826600  0.00799812  1.0
  Nb  Nb11  1  0.20413300  0.74159933  0.00799812  1.0
  Nb  Nb12  1  0.53746633  0.07493267  0.00799812  1.0
  Nb  Nb13  1  0.53746633  0.40826600  0.00799812  1.0
  Nb  Nb14  1  0.53746633  0.74159933  0.00799812  1.0
  Nb  Nb15  1  0.87079967  0.07493267  0.00799812  1.0
  Nb  Nb16  1  0.87079967  0.40826600  0.00799813  1.0
  Nb  Nb17  1  0.87079967  0.74159933  0.00799812  1.0
  Nb  Nb18  1  0.12105817  0.24211633  0.19646750  1.0
  Nb  Nb19  1  0.12105817  0.57544967  0.19646750  1.0
  Nb  Nb20  1  0.12105817  0.90878300  0.19646750  1.0
  Nb  Nb21  1  0.45439150  0.24211633  0.19646750  1.0
  Nb  Nb22  1  0.45439150  0.57544967  0.19646750  1.0
  Nb  Nb23  1  0.45439150  0.90878300  0.19646750  1.0
  Nb  Nb24  1  0.78772483  0.24211633  0.19646750  1.0
  Nb  Nb25  1  0.78772483  0.57544967  0.19646750  1.0
  Nb  Nb26  1  0.78772483  0.90878300  0.19646750  1.0
  Nb  Nb27  1  0.28772483  0.24211633  0.07146750  1.0
  Nb  Nb28  1  0.28772483  0.57544967  0.07146750  1.0
  Nb  Nb29  1  0.28772483  0.90878300  0.07146750  1.0
  Nb  Nb30  1  0.62105817  0.24211633  0.07146750  1.0
  Nb  Nb31  1  0.62105817  0.57544967  0.07146750  1.0
  Nb  Nb32  1  0.62105817  0.90878300  0.07146750  1.0
  Nb  Nb33  1  0.95439150  0.24211633  0.07146750  1.0
  Nb  Nb34  1  0.95439150  0.57544967  0.07146750  1.0
  Nb  Nb35  1  0.95439150  0.90878300  0.07146750  1.0
  Nb  Nb36  1  0.04560850  0.09121700  0.16353125  1.0
  Nb  Nb37  1  0.04560850  0.42455033  0.16353125  1.0
  Nb  Nb38  1  0.04560850  0.75788367  0.16353125  1.0
  Nb  Nb39  1  0.37894183  0.09121700  0.16353125  1.0
  Nb  Nb40  1  0.37894183  0.42455033  0.16353125  1.0
  Nb  Nb41  1  0.37894183  0.75788367  0.16353125  1.0
  Nb  Nb42  1  0.71227517  0.09121700  0.16353125  1.0
  Nb  Nb43  1  0.71227517  0.42455033  0.16353125  1.0
  Nb  Nb44  1  0.71227517  0.75788367  0.16353125  1.0
  Nb  Nb45  1  0.21227517  0.09121700  0.03853125  1.0
  Nb  Nb46  1  0.21227517  0.42455033  0.03853125  1.0
  Nb  Nb47  1  0.21227517  0.75788367  0.03853125  1.0
  Nb  Nb48  1  0.54560850  0.09121700  0.03853125  1.0
  Nb  Nb49  1  0.54560850  0.42455033  0.03853125  1.0
  Nb  Nb50  1  0.54560850  0.75788367  0.03853125  1.0
  Nb  Nb51  1  0.87894183  0.09121700  0.03853125  1.0
  Nb  Nb52  1  0.87894183  0.42455033  0.03853125  1.0
  Nb  Nb53  1  0.87894183  0.75788367  0.03853125  1.0
  Nb  Nb54  1  0.12920033  0.25840067  0.22700062  1.0
  Nb  Nb55  1  0.12920033  0.59173400  0.22700062  1.0
  Nb  Nb56  1  0.12920033  0.92506733  0.22700062  1.0
  Nb  Nb57  1  0.46253367  0.25840067  0.22700062  1.0
  Nb  Nb58  1  0.46253367  0.59173400  0.22700062  1.0
  Nb  Nb59  1  0.46253367  0.92506733  0.22700062  1.0
  Nb  Nb60  1  0.79586700  0.25840067  0.22700062  1.0
  Nb  Nb61  1  0.79586700  0.59173400  0.22700062  1.0
  Nb  Nb62  1  0.79586700  0.92506733  0.22700062  1.0
  Nb  Nb63  1  0.29586700  0.25840067  0.10200062  1.0
  Nb  Nb64  1  0.29586700  0.59173400  0.10200062  1.0
  Nb  Nb65  1  0.29586700  0.92506733  0.10200062  1.0
  Nb  Nb66  1  0.62920033  0.25840067  0.10200062  1.0
  Nb  Nb67  1  0.62920033  0.59173400  0.10200062  1.0
  Nb  Nb68  1  0.62920033  0.92506733  0.10200062  1.0
  Nb  Nb69  1  0.96253367  0.25840067  0.10200062  1.0
  Nb  Nb70  1  0.96253367  0.59173400  0.10200062  1.0
  Nb  Nb71  1  0.96253367  0.92506733  0.10200062  1.0
  Nb  Nb72  1  0.09700567  0.19401133  0.10627062  1.0
  Nb  Nb73  1  0.09700567  0.52734467  0.10627062  1.0
  Nb  Nb74  1  0.09700567  0.86067800  0.10627062  1.0
  Nb  Nb75  1  0.43033900  0.19401133  0.10627062  1.0
  Nb  Nb76  1  0.43033900  0.52734467  0.10627062  1.0
  Nb  Nb77  1  0.43033900  0.86067800  0.10627062  1.0
  Nb  Nb78  1  0.76367233  0.19401133  0.10627062  1.0
  Nb  Nb79  1  0.76367233  0.52734467  0.10627062  1.0
  Nb  Nb80  1  0.76367233  0.86067800  0.10627062  1.0
  Nb  Nb81  1  0.26367233  0.19401133  0.23127063  1.0
  Nb  Nb82  1  0.26367233  0.52734467  0.23127063  1.0
  Nb  Nb83  1  0.26367233  0.86067800  0.23127063  1.0
  Nb  Nb84  1  0.59700567  0.19401133  0.23127062  1.0
  Nb  Nb85  1  0.59700567  0.52734467  0.23127063  1.0
  Nb  Nb86  1  0.59700567  0.86067800  0.23127063  1.0
  Nb  Nb87  1  0.93033900  0.19401133  0.23127062  1.0
  Nb  Nb88  1  0.93033900  0.52734467  0.23127062  1.0
  Nb  Nb89  1  0.93033900  0.86067800  0.23127063  1.0
  Nb  Nb90  1  0.01408333  0.02816667  0.04531187  1.0
  Nb  Nb91  1  0.01408333  0.36150000  0.04531187  1.0
  Nb  Nb92  1  0.01408333  0.69483333  0.04531187  1.0
  Nb  Nb93  1  0.34741667  0.02816667  0.04531187  1.0
  Nb  Nb94  1  0.34741667  0.36150000  0.04531187  1.0
  Nb  Nb95  1  0.34741667  0.69483333  0.04531187  1.0
  Nb  Nb96  1  0.68075000  0.02816667  0.04531188  1.0
  Nb  Nb97  1  0.68075000  0.36150000  0.04531187  1.0
  Nb  Nb98  1  0.68075000  0.69483333  0.04531187  1.0
  Nb  Nb99  1  0.18075000  0.02816667  0.17031188  1.0
  Nb  Nb100  1  0.18075000  0.36150000  0.17031187  1.0
  Nb  Nb101  1  0.18075000  0.69483333  0.17031187  1.0
  Nb  Nb102  1  0.51408333  0.02816667  0.17031188  1.0
  Nb  Nb103  1  0.51408333  0.36150000  0.17031188  1.0
  Nb  Nb104  1  0.51408333  0.69483333  0.17031187  1.0
  Nb  Nb105  1  0.84741667  0.02816667  0.17031188  1.0
  Nb  Nb106  1  0.84741667  0.36150000  0.17031188  1.0
  Nb  Nb107  1  0.84741667  0.69483333  0.17031187  1.0
  Nb  Nb108  1  0.15258333  0.30516667  0.06468687  1.0
  Nb  Nb109  1  0.15258333  0.63850000  0.06468687  1.0
  Nb  Nb110  1  0.15258333  0.97183333  0.06468687  1.0
  Nb  Nb111  1  0.48591667  0.30516667  0.06468687  1.0
  Nb  Nb112  1  0.48591667  0.63850000  0.06468687  1.0
  Nb  Nb113  1  0.48591667  0.97183333  0.06468687  1.0
  Nb  Nb114  1  0.81925000  0.30516667  0.06468687  1.0
  Nb  Nb115  1  0.81925000  0.63850000  0.06468687  1.0
  Nb  Nb116  1  0.81925000  0.97183333  0.06468687  1.0
  Nb  Nb117  1  0.31925000  0.30516667  0.18968687  1.0
  Nb  Nb118  1  0.31925000  0.63850000  0.18968687  1.0
  Nb  Nb119  1  0.31925000  0.97183333  0.18968687  1.0
  Nb  Nb120  1  0.65258333  0.30516667  0.18968687  1.0
  Nb  Nb121  1  0.65258333  0.63850000  0.18968687  1.0
  Nb  Nb122  1  0.65258333  0.97183333  0.18968687  1.0
  Nb  Nb123  1  0.98591667  0.30516667  0.18968687  1.0
  Nb  Nb124  1  0.98591667  0.63850000  0.18968687  1.0
  Nb  Nb125  1  0.98591667  0.97183333  0.18968687  1.0
  Nb  Nb126  1  0.06966100  0.13932200  0.00372812  1.0
  Nb  Nb127  1  0.06966100  0.47265533  0.00372812  1.0
  Nb  Nb128  1  0.06966100  0.80598867  0.00372812  1.0
  Nb  Nb129  1  0.40299433  0.13932200  0.00372812  1.0
  Nb  Nb130  1  0.40299433  0.47265533  0.00372812  1.0
  Nb  Nb131  1  0.40299433  0.80598867  0.00372812  1.0
  Nb  Nb132  1  0.73632767  0.13932200  0.00372812  1.0
  Nb  Nb133  1  0.73632767  0.47265533  0.00372812  1.0
  Nb  Nb134  1  0.73632767  0.80598867  0.00372812  1.0
  Nb  Nb135  1  0.23632767  0.13932200  0.12872812  1.0
  Nb  Nb136  1  0.23632767  0.47265533  0.12872812  1.0
  Nb  Nb137  1  0.23632767  0.80598867  0.12872812  1.0
  Nb  Nb138  1  0.56966100  0.13932200  0.12872812  1.0
  Nb  Nb139  1  0.56966100  0.47265533  0.12872812  1.0
  Nb  Nb140  1  0.56966100  0.80598867  0.12872812  1.0
  Nb  Nb141  1  0.90299433  0.13932200  0.12872812  1.0
  Nb  Nb142  1  0.90299433  0.47265533  0.12872812  1.0
  Nb  Nb143  1  0.90299433  0.80598867  0.12872812  1.0
  Nb  Nb144  1  0.02883500  0.05767000  0.10063062  1.0
  Nb  Nb145  1  0.02883500  0.39100333  0.10063062  1.0
  Nb  Nb146  1  0.02883500  0.72433667  0.10063062  1.0
  Nb  Nb147  1  0.36216833  0.05767000  0.10063063  1.0
  Nb  Nb148  1  0.36216833  0.39100333  0.10063062  1.0
  Nb  Nb149  1  0.36216833  0.72433667  0.10063062  1.0
  Nb  Nb150  1  0.69550167  0.05767000  0.10063063  1.0
  Nb  Nb151  1  0.69550167  0.39100333  0.10063062  1.0
  Nb  Nb152  1  0.69550167  0.72433667  0.10063062  1.0
  Nb  Nb153  1  0.19550167  0.05767000  0.22563062  1.0
  Nb  Nb154  1  0.19550167  0.39100333  0.22563062  1.0
  Nb  Nb155  1  0.19550167  0.72433667  0.22563062  1.0
  Nb  Nb156  1  0.52883500  0.05767000  0.22563062  1.0
  Nb  Nb157  1  0.52883500  0.39100333  0.22563062  1.0
  Nb  Nb158  1  0.52883500  0.72433667  0.22563062  1.0
  Nb  Nb159  1  0.86216833  0.05767000  0.22563062  1.0
  Nb  Nb160  1  0.86216833  0.39100333  0.22563062  1.0
  Nb  Nb161  1  0.86216833  0.72433667  0.22563062  1.0
  Nb  Nb162  1  0.11222867  0.22445733  0.16335687  1.0
  Nb  Nb163  1  0.11222867  0.55779067  0.16335687  1.0
  Nb  Nb164  1  0.11222867  0.89112400  0.16335687  1.0
  Nb  Nb165  1  0.44556200  0.22445733  0.16335687  1.0
  Nb  Nb166  1  0.44556200  0.55779067  0.16335687  1.0
  Nb  Nb167  1  0.44556200  0.89112400  0.16335687  1.0
  Nb  Nb168  1  0.77889533  0.22445733  0.16335687  1.0
  Nb  Nb169  1  0.77889533  0.55779067  0.16335687  1.0
  Nb  Nb170  1  0.77889533  0.89112400  0.16335687  1.0
  Nb  Nb171  1  0.27889533  0.22445733  0.03835687  1.0
  Nb  Nb172  1  0.27889533  0.55779067  0.03835687  1.0
  Nb  Nb173  1  0.27889533  0.89112400  0.03835687  1.0
  Nb  Nb174  1  0.61222867  0.22445733  0.03835687  1.0
  Nb  Nb175  1  0.61222867  0.55779067  0.03835687  1.0
  Nb  Nb176  1  0.61222867  0.89112400  0.03835687  1.0
  Nb  Nb177  1  0.94556200  0.22445733  0.03835687  1.0
  Nb  Nb178  1  0.94556200  0.55779067  0.03835687  1.0
  Nb  Nb179  1  0.94556200  0.89112400  0.03835687  1.0
  Nb  Nb180  1  0.05443800  0.10887600  0.19664187  1.0
  Nb  Nb181  1  0.05443800  0.44220933  0.19664187  1.0
  Nb  Nb182  1  0.05443800  0.77554267  0.19664187  1.0
  Nb  Nb183  1  0.38777133  0.10887600  0.19664187  1.0
  Nb  Nb184  1  0.38777133  0.44220933  0.19664187  1.0
  Nb  Nb185  1  0.38777133  0.77554267  0.19664187  1.0
  Nb  Nb186  1  0.72110467  0.10887600  0.19664188  1.0
  Nb  Nb187  1  0.72110467  0.44220933  0.19664187  1.0
  Nb  Nb188  1  0.72110467  0.77554267  0.19664188  1.0
  Nb  Nb189  1  0.22110467  0.10887600  0.07164187  1.0
  Nb  Nb190  1  0.22110467  0.44220933  0.07164187  1.0
  Nb  Nb191  1  0.22110467  0.77554267  0.07164187  1.0
  Nb  Nb192  1  0.55443800  0.10887600  0.07164187  1.0
  Nb  Nb193  1  0.55443800  0.44220933  0.07164187  1.0
  Nb  Nb194  1  0.55443800  0.77554267  0.07164187  1.0
  Nb  Nb195  1  0.88777133  0.10887600  0.07164187  1.0
  Nb  Nb196  1  0.88777133  0.44220933  0.07164187  1.0
  Nb  Nb197  1  0.88777133  0.77554267  0.07164187  1.0
  Nb  Nb198  1  0.13783167  0.27566333  0.00936812  1.0
  Nb  Nb199  1  0.13783167  0.60899667  0.00936812  1.0
  Nb  Nb200  1  0.13783167  0.94233000  0.00936812  1.0
  Nb  Nb201  1  0.47116500  0.27566333  0.00936813  1.0
  Nb  Nb202  1  0.47116500  0.60899667  0.00936813  1.0
  Nb  Nb203  1  0.47116500  0.94233000  0.00936812  1.0
  Nb  Nb204  1  0.80449833  0.27566333  0.00936812  1.0
  Nb  Nb205  1  0.80449833  0.60899667  0.00936812  1.0
  Nb  Nb206  1  0.80449833  0.94233000  0.00936812  1.0
  Nb  Nb207  1  0.30449833  0.27566333  0.13436812  1.0
  Nb  Nb208  1  0.30449833  0.60899667  0.13436812  1.0
  Nb  Nb209  1  0.30449833  0.94233000  0.13436812  1.0
  Nb  Nb210  1  0.63783167  0.27566333  0.13436812  1.0
  Nb  Nb211  1  0.63783167  0.60899667  0.13436812  1.0
  Nb  Nb212  1  0.63783167  0.94233000  0.13436812  1.0
  Nb  Nb213  1  0.97116500  0.27566333  0.13436813  1.0
  Nb  Nb214  1  0.97116500  0.60899667  0.13436812  1.0
  Nb  Nb215  1  0.97116500  0.94233000  0.13436812  1.0
  Nb  Nb216  1  0.00000000  0.00000000  0.24249937  1.0
  Nb  Nb217  1  0.00000000  0.33333333  0.24249937  1.0
  Nb  Nb218  1  0.00000000  0.66666667  0.24249937  1.0
  Nb  Nb219  1  0.33333333  0.00000000  0.24249938  1.0
  Nb  Nb220  1  0.33333333  0.33333333  0.24249937  1.0
  Nb  Nb221  1  0.33333333  0.66666667  0.24249937  1.0
  Nb  Nb222  1  0.66666667  0.00000000  0.24249938  1.0
  Nb  Nb223  1  0.66666667  0.33333333  0.24249937  1.0
  Nb  Nb224  1  0.66666667  0.66666667  0.24249937  1.0
  Nb  Nb225  1  0.16666667  0.00000000  0.11749938  1.0
  Nb  Nb226  1  0.16666667  0.33333333  0.11749938  1.0
  Nb  Nb227  1  0.16666667  0.66666667  0.11749937  1.0
  Nb  Nb228  1  0.50000000  0.00000000  0.11749938  1.0
  Nb  Nb229  1  0.50000000  0.33333333  0.11749937  1.0
  Nb  Nb230  1  0.50000000  0.66666667  0.11749937  1.0
  Nb  Nb231  1  0.83333333  0.00000000  0.11749937  1.0
  Nb  Nb232  1  0.83333333  0.33333333  0.11749938  1.0
  Nb  Nb233  1  0.83333333  0.66666667  0.11749937  1.0
  Ni  Ni234  1  0.04959800  0.26384933  0.17547187  1.0
  Ni  Ni235  1  0.04959800  0.59718267  0.17547187  1.0
  Ni  Ni236  1  0.04959800  0.93051600  0.17547187  1.0
  Ni  Ni237  1  0.38293133  0.26384933  0.17547187  1.0
  Ni  Ni238  1  0.38293133  0.59718267  0.17547187  1.0
  Ni  Ni239  1  0.38293133  0.93051600  0.17547187  1.0
  Ni  Ni240  1  0.71626467  0.26384933  0.17547187  1.0
  Ni  Ni241  1  0.71626467  0.59718267  0.17547187  1.0
  Ni  Ni242  1  0.71626467  0.93051600  0.17547187  1.0
  Ni  Ni243  1  0.21626467  0.26384933  0.05047187  1.0
  Ni  Ni244  1  0.21626467  0.59718267  0.05047187  1.0
  Ni  Ni245  1  0.21626467  0.93051600  0.05047187  1.0
  Ni  Ni246  1  0.54959800  0.26384933  0.05047187  1.0
  Ni  Ni247  1  0.54959800  0.59718267  0.05047187  1.0
  Ni  Ni248  1  0.54959800  0.93051600  0.05047187  1.0
  Ni  Ni249  1  0.88293133  0.26384933  0.05047187  1.0
  Ni  Ni250  1  0.88293133  0.59718267  0.05047187  1.0
  Ni  Ni251  1  0.88293133  0.93051600  0.05047187  1.0
  Ni  Ni252  1  0.13271483  0.09860467  0.23994250  1.0
  Ni  Ni253  1  0.13271483  0.43193800  0.23994250  1.0
  Ni  Ni254  1  0.13271483  0.76527133  0.23994250  1.0
  Ni  Ni255  1  0.46604817  0.09860467  0.23994250  1.0
  Ni  Ni256  1  0.46604817  0.43193800  0.23994250  1.0
  Ni  Ni257  1  0.46604817  0.76527133  0.23994250  1.0
  Ni  Ni258  1  0.79938150  0.09860467  0.23994250  1.0
  Ni  Ni259  1  0.79938150  0.43193800  0.23994250  1.0
  Ni  Ni260  1  0.79938150  0.76527133  0.23994250  1.0
  Ni  Ni261  1  0.29938150  0.09860467  0.11494250  1.0
  Ni  Ni262  1  0.29938150  0.43193800  0.11494250  1.0
  Ni  Ni263  1  0.29938150  0.76527133  0.11494250  1.0
  Ni  Ni264  1  0.63271483  0.09860467  0.11494250  1.0
  Ni  Ni265  1  0.63271483  0.43193800  0.11494250  1.0
  Ni  Ni266  1  0.63271483  0.76527133  0.11494250  1.0
  Ni  Ni267  1  0.96604817  0.09860467  0.11494250  1.0
  Ni  Ni268  1  0.96604817  0.43193800  0.11494250  1.0
  Ni  Ni269  1  0.96604817  0.76527133  0.11494250  1.0
  Ni  Ni270  1  0.13192467  0.09919600  0.11372688  1.0
  Ni  Ni271  1  0.13192467  0.43252933  0.11372688  1.0
  Ni  Ni272  1  0.13192467  0.76586267  0.11372688  1.0
  Ni  Ni273  1  0.46525800  0.09919600  0.11372688  1.0
  Ni  Ni274  1  0.46525800  0.43252933  0.11372688  1.0
  Ni  Ni275  1  0.46525800  0.76586267  0.11372688  1.0
  Ni  Ni276  1  0.79859133  0.09919600  0.11372688  1.0
  Ni  Ni277  1  0.79859133  0.43252933  0.11372688  1.0
  Ni  Ni278  1  0.79859133  0.76586267  0.11372688  1.0
  Ni  Ni279  1  0.29859133  0.09919600  0.23872687  1.0
  Ni  Ni280  1  0.29859133  0.43252933  0.23872687  1.0
  Ni  Ni281  1  0.29859133  0.76586267  0.23872687  1.0
  Ni  Ni282  1  0.63192467  0.09919600  0.23872688  1.0
  Ni  Ni283  1  0.63192467  0.43252933  0.23872687  1.0
  Ni  Ni284  1  0.63192467  0.76586267  0.23872687  1.0
  Ni  Ni285  1  0.96525800  0.09919600  0.23872688  1.0
  Ni  Ni286  1  0.96525800  0.43252933  0.23872687  1.0
  Ni  Ni287  1  0.96525800  0.76586267  0.23872687  1.0
  Ni  Ni288  1  0.04930233  0.26542967  0.05250187  1.0
  Ni  Ni289  1  0.04930233  0.59876300  0.05250187  1.0
  Ni  Ni290  1  0.04930233  0.93209633  0.05250187  1.0
  Ni  Ni291  1  0.38263567  0.26542967  0.05250188  1.0
  Ni  Ni292  1  0.38263567  0.59876300  0.05250187  1.0
  Ni  Ni293  1  0.38263567  0.93209633  0.05250187  1.0
  Ni  Ni294  1  0.71596900  0.26542967  0.05250187  1.0
  Ni  Ni295  1  0.71596900  0.59876300  0.05250187  1.0
  Ni  Ni296  1  0.71596900  0.93209633  0.05250188  1.0
  Ni  Ni297  1  0.21596900  0.26542967  0.17750188  1.0
  Ni  Ni298  1  0.21596900  0.59876300  0.17750188  1.0
  Ni  Ni299  1  0.21596900  0.93209633  0.17750188  1.0
  Ni  Ni300  1  0.54930233  0.26542967  0.17750188  1.0
  Ni  Ni301  1  0.54930233  0.59876300  0.17750188  1.0
  Ni  Ni302  1  0.54930233  0.93209633  0.17750188  1.0
  Ni  Ni303  1  0.88263567  0.26542967  0.17750188  1.0
  Ni  Ni304  1  0.88263567  0.59876300  0.17750187  1.0
  Ni  Ni305  1  0.88263567  0.93209633  0.17750188  1.0
  Ni  Ni306  1  0.13192467  0.26384933  0.11372687  1.0
  Ni  Ni307  1  0.13192467  0.59718267  0.11372687  1.0
  Ni  Ni308  1  0.13192467  0.93051600  0.11372687  1.0
  Ni  Ni309  1  0.46525800  0.26384933  0.11372688  1.0
  Ni  Ni310  1  0.46525800  0.59718267  0.11372687  1.0
  Ni  Ni311  1  0.46525800  0.93051600  0.11372688  1.0
  Ni  Ni312  1  0.79859133  0.26384933  0.11372688  1.0
  Ni  Ni313  1  0.79859133  0.59718267  0.11372688  1.0
  Ni  Ni314  1  0.79859133  0.93051600  0.11372688  1.0
  Ni  Ni315  1  0.29859133  0.26384933  0.23872687  1.0
  Ni  Ni316  1  0.29859133  0.59718267  0.23872687  1.0
  Ni  Ni317  1  0.29859133  0.93051600  0.23872687  1.0
  Ni  Ni318  1  0.63192467  0.26384933  0.23872688  1.0
  Ni  Ni319  1  0.63192467  0.59718267  0.23872687  1.0
  Ni  Ni320  1  0.63192467  0.93051600  0.23872687  1.0
  Ni  Ni321  1  0.96525800  0.26384933  0.23872687  1.0
  Ni  Ni322  1  0.96525800  0.59718267  0.23872687  1.0
  Ni  Ni323  1  0.96525800  0.93051600  0.23872687  1.0
  Ni  Ni324  1  0.04930233  0.09860467  0.05250187  1.0
  Ni  Ni325  1  0.04930233  0.43193800  0.05250187  1.0
  Ni  Ni326  1  0.04930233  0.76527133  0.05250187  1.0
  Ni  Ni327  1  0.38263567  0.09860467  0.05250187  1.0
  Ni  Ni328  1  0.38263567  0.43193800  0.05250187  1.0
  Ni  Ni329  1  0.38263567  0.76527133  0.05250187  1.0
  Ni  Ni330  1  0.71596900  0.09860467  0.05250187  1.0
  Ni  Ni331  1  0.71596900  0.43193800  0.05250187  1.0
  Ni  Ni332  1  0.71596900  0.76527133  0.05250187  1.0
  Ni  Ni333  1  0.21596900  0.09860467  0.17750188  1.0
  Ni  Ni334  1  0.21596900  0.43193800  0.17750187  1.0
  Ni  Ni335  1  0.21596900  0.76527133  0.17750187  1.0
  Ni  Ni336  1  0.54930233  0.09860467  0.17750188  1.0
  Ni  Ni337  1  0.54930233  0.43193800  0.17750188  1.0
  Ni  Ni338  1  0.54930233  0.76527133  0.17750187  1.0
  Ni  Ni339  1  0.88263567  0.09860467  0.17750188  1.0
  Ni  Ni340  1  0.88263567  0.43193800  0.17750187  1.0
  Ni  Ni341  1  0.88263567  0.76527133  0.17750187  1.0
  Ni  Ni342  1  0.03395183  0.23472867  0.12005625  1.0
  Ni  Ni343  1  0.03395183  0.56806200  0.12005625  1.0
  Ni  Ni344  1  0.03395183  0.90139533  0.12005625  1.0
  Ni  Ni345  1  0.36728517  0.23472867  0.12005625  1.0
  Ni  Ni346  1  0.36728517  0.56806200  0.12005625  1.0
  Ni  Ni347  1  0.36728517  0.90139533  0.12005625  1.0
  Ni  Ni348  1  0.70061850  0.23472867  0.12005625  1.0
  Ni  Ni349  1  0.70061850  0.56806200  0.12005625  1.0
  Ni  Ni350  1  0.70061850  0.90139533  0.12005625  1.0
  Ni  Ni351  1  0.20061850  0.23472867  0.24505625  1.0
  Ni  Ni352  1  0.20061850  0.56806200  0.24505625  1.0
  Ni  Ni353  1  0.20061850  0.90139533  0.24505625  1.0
  Ni  Ni354  1  0.53395183  0.23472867  0.24505625  1.0
  Ni  Ni355  1  0.53395183  0.56806200  0.24505625  1.0
  Ni  Ni356  1  0.53395183  0.90139533  0.24505625  1.0
  Ni  Ni357  1  0.86728517  0.23472867  0.24505625  1.0
  Ni  Ni358  1  0.86728517  0.56806200  0.24505625  1.0
  Ni  Ni359  1  0.86728517  0.90139533  0.24505625  1.0
  Ni  Ni360  1  0.11706867  0.06948400  0.18452688  1.0
  Ni  Ni361  1  0.11706867  0.40281733  0.18452687  1.0
  Ni  Ni362  1  0.11706867  0.73615067  0.18452687  1.0
  Ni  Ni363  1  0.45040200  0.06948400  0.18452687  1.0
  Ni  Ni364  1  0.45040200  0.40281733  0.18452687  1.0
  Ni  Ni365  1  0.45040200  0.73615067  0.18452688  1.0
  Ni  Ni366  1  0.78373533  0.06948400  0.18452687  1.0
  Ni  Ni367  1  0.78373533  0.40281733  0.18452688  1.0
  Ni  Ni368  1  0.78373533  0.73615067  0.18452687  1.0
  Ni  Ni369  1  0.28373533  0.06948400  0.05952687  1.0
  Ni  Ni370  1  0.28373533  0.40281733  0.05952687  1.0
  Ni  Ni371  1  0.28373533  0.73615067  0.05952687  1.0
  Ni  Ni372  1  0.61706867  0.06948400  0.05952687  1.0
  Ni  Ni373  1  0.61706867  0.40281733  0.05952687  1.0
  Ni  Ni374  1  0.61706867  0.73615067  0.05952687  1.0
  Ni  Ni375  1  0.95040200  0.06948400  0.05952687  1.0
  Ni  Ni376  1  0.95040200  0.40281733  0.05952687  1.0
  Ni  Ni377  1  0.95040200  0.73615067  0.05952687  1.0
  Ni  Ni378  1  0.11736433  0.06790367  0.05749687  1.0
  Ni  Ni379  1  0.11736433  0.40123700  0.05749687  1.0
  Ni  Ni380  1  0.11736433  0.73457033  0.05749687  1.0
  Ni  Ni381  1  0.45069767  0.06790367  0.05749688  1.0
  Ni  Ni382  1  0.45069767  0.40123700  0.05749687  1.0
  Ni  Ni383  1  0.45069767  0.73457033  0.05749687  1.0
  Ni  Ni384  1  0.78403100  0.06790367  0.05749688  1.0
  Ni  Ni385  1  0.78403100  0.40123700  0.05749687  1.0
  Ni  Ni386  1  0.78403100  0.73457033  0.05749687  1.0
  Ni  Ni387  1  0.28403100  0.06790367  0.18249687  1.0
  Ni  Ni388  1  0.28403100  0.40123700  0.18249687  1.0
  Ni  Ni389  1  0.28403100  0.73457033  0.18249687  1.0
  Ni  Ni390  1  0.61736433  0.06790367  0.18249687  1.0
  Ni  Ni391  1  0.61736433  0.40123700  0.18249687  1.0
  Ni  Ni392  1  0.61736433  0.73457033  0.18249687  1.0
  Ni  Ni393  1  0.95069767  0.06790367  0.18249687  1.0
  Ni  Ni394  1  0.95069767  0.40123700  0.18249687  1.0
  Ni  Ni395  1  0.95069767  0.73457033  0.18249687  1.0
  Ni  Ni396  1  0.03474200  0.23413733  0.24627188  1.0
  Ni  Ni397  1  0.03474200  0.56747067  0.24627187  1.0
  Ni  Ni398  1  0.03474200  0.90080400  0.24627187  1.0
  Ni  Ni399  1  0.36807533  0.23413733  0.24627187  1.0
  Ni  Ni400  1  0.36807533  0.56747067  0.24627187  1.0
  Ni  Ni401  1  0.36807533  0.90080400  0.24627188  1.0
  Ni  Ni402  1  0.70140867  0.23413733  0.24627187  1.0
  Ni  Ni403  1  0.70140867  0.56747067  0.24627188  1.0
  Ni  Ni404  1  0.70140867  0.90080400  0.24627188  1.0
  Ni  Ni405  1  0.20140867  0.23413733  0.12127188  1.0
  Ni  Ni406  1  0.20140867  0.56747067  0.12127187  1.0
  Ni  Ni407  1  0.20140867  0.90080400  0.12127187  1.0
  Ni  Ni408  1  0.53474200  0.23413733  0.12127188  1.0
  Ni  Ni409  1  0.53474200  0.56747067  0.12127188  1.0
  Ni  Ni410  1  0.53474200  0.90080400  0.12127187  1.0
  Ni  Ni411  1  0.86807533  0.23413733  0.12127187  1.0
  Ni  Ni412  1  0.86807533  0.56747067  0.12127188  1.0
  Ni  Ni413  1  0.86807533  0.90080400  0.12127187  1.0
  Ni  Ni414  1  0.11736433  0.23472867  0.05749688  1.0
  Ni  Ni415  1  0.11736433  0.56806200  0.05749688  1.0
  Ni  Ni416  1  0.11736433  0.90139533  0.05749688  1.0
  Ni  Ni417  1  0.45069767  0.23472867  0.05749688  1.0
  Ni  Ni418  1  0.45069767  0.56806200  0.05749688  1.0
  Ni  Ni419  1  0.45069767  0.90139533  0.05749688  1.0
  Ni  Ni420  1  0.78403100  0.23472867  0.05749688  1.0
  Ni  Ni421  1  0.78403100  0.56806200  0.05749688  1.0
  Ni  Ni422  1  0.78403100  0.90139533  0.05749687  1.0
  Ni  Ni423  1  0.28403100  0.23472867  0.18249687  1.0
  Ni  Ni424  1  0.28403100  0.56806200  0.18249687  1.0
  Ni  Ni425  1  0.28403100  0.90139533  0.18249687  1.0
  Ni  Ni426  1  0.61736433  0.23472867  0.18249687  1.0
  Ni  Ni427  1  0.61736433  0.56806200  0.18249687  1.0
  Ni  Ni428  1  0.61736433  0.90139533  0.18249688  1.0
  Ni  Ni429  1  0.95069767  0.23472867  0.18249687  1.0
  Ni  Ni430  1  0.95069767  0.56806200  0.18249687  1.0
  Ni  Ni431  1  0.95069767  0.90139533  0.18249687  1.0
  Ni  Ni432  1  0.03474200  0.06948400  0.24627187  1.0
  Ni  Ni433  1  0.03474200  0.40281733  0.24627187  1.0
  Ni  Ni434  1  0.03474200  0.73615067  0.24627187  1.0
  Ni  Ni435  1  0.36807533  0.06948400  0.24627187  1.0
  Ni  Ni436  1  0.36807533  0.40281733  0.24627188  1.0
  Ni  Ni437  1  0.36807533  0.73615067  0.24627187  1.0
  Ni  Ni438  1  0.70140867  0.06948400  0.24627187  1.0
  Ni  Ni439  1  0.70140867  0.40281733  0.24627187  1.0
  Ni  Ni440  1  0.70140867  0.73615067  0.24627187  1.0
  Ni  Ni441  1  0.20140867  0.06948400  0.12127187  1.0
  Ni  Ni442  1  0.20140867  0.40281733  0.12127187  1.0
  Ni  Ni443  1  0.20140867  0.73615067  0.12127187  1.0
  Ni  Ni444  1  0.53474200  0.06948400  0.12127187  1.0
  Ni  Ni445  1  0.53474200  0.40281733  0.12127187  1.0
  Ni  Ni446  1  0.53474200  0.73615067  0.12127187  1.0
  Ni  Ni447  1  0.86807533  0.06948400  0.12127187  1.0
  Ni  Ni448  1  0.86807533  0.40281733  0.12127187  1.0
  Ni  Ni449  1  0.86807533  0.73615067  0.12127187  1.0
  Ni  Ni450  1  0.08333333  0.16666667  0.05499937  1.0
  Ni  Ni451  1  0.08333333  0.50000000  0.05499937  1.0
  Ni  Ni452  1  0.08333333  0.83333333  0.05499937  1.0
  Ni  Ni453  1  0.41666667  0.16666667  0.05499937  1.0
  Ni  Ni454  1  0.41666667  0.50000000  0.05499938  1.0
  Ni  Ni455  1  0.41666667  0.83333333  0.05499937  1.0
  Ni  Ni456  1  0.75000000  0.16666667  0.05499937  1.0
  Ni  Ni457  1  0.75000000  0.50000000  0.05499937  1.0
  Ni  Ni458  1  0.75000000  0.83333333  0.05499937  1.0
  Ni  Ni459  1  0.25000000  0.16666667  0.17999937  1.0
  Ni  Ni460  1  0.25000000  0.50000000  0.17999937  1.0
  Ni  Ni461  1  0.25000000  0.83333333  0.17999937  1.0
  Ni  Ni462  1  0.58333333  0.16666667  0.17999937  1.0
  Ni  Ni463  1  0.58333333  0.50000000  0.17999937  1.0
  Ni  Ni464  1  0.58333333  0.83333333  0.17999937  1.0
  Ni  Ni465  1  0.91666667  0.16666667  0.17999937  1.0
  Ni  Ni466  1  0.91666667  0.50000000  0.17999937  1.0
  Ni  Ni467  1  0.91666667  0.83333333  0.17999937  1.0
  Nb  Nb468  1  0.03746633  0.07493267  0.38299812  1.0
  Nb  Nb469  1  0.03746633  0.40826600  0.38299812  1.0
  Nb  Nb470  1  0.03746633  0.74159933  0.38299812  1.0
  Nb  Nb471  1  0.37079967  0.07493267  0.38299813  1.0
  Nb  Nb472  1  0.37079967  0.40826600  0.38299813  1.0
  Nb  Nb473  1  0.37079967  0.74159933  0.38299812  1.0
  Nb  Nb474  1  0.70413300  0.07493267  0.38299813  1.0
  Nb  Nb475  1  0.70413300  0.40826600  0.38299812  1.0
  Nb  Nb476  1  0.70413300  0.74159933  0.38299812  1.0
  Nb  Nb477  1  0.20413300  0.07493267  0.25799812  1.0
  Nb  Nb478  1  0.20413300  0.40826600  0.25799812  1.0
  Nb  Nb479  1  0.20413300  0.74159933  0.25799812  1.0
  Nb  Nb480  1  0.53746633  0.07493267  0.25799812  1.0
  Nb  Nb481  1  0.53746633  0.40826600  0.25799812  1.0
  Nb  Nb482  1  0.53746633  0.74159933  0.25799812  1.0
  Nb  Nb483  1  0.87079967  0.07493267  0.25799812  1.0
  Nb  Nb484  1  0.87079967  0.40826600  0.25799812  1.0
  Nb  Nb485  1  0.87079967  0.74159933  0.25799812  1.0
  Nb  Nb486  1  0.12105817  0.24211633  0.44646750  1.0
  Nb  Nb487  1  0.12105817  0.57544967  0.44646750  1.0
  Nb  Nb488  1  0.12105817  0.90878300  0.44646750  1.0
  Nb  Nb489  1  0.45439150  0.24211633  0.44646750  1.0
  Nb  Nb490  1  0.45439150  0.57544967  0.44646750  1.0
  Nb  Nb491  1  0.45439150  0.90878300  0.44646750  1.0
  Nb  Nb492  1  0.78772483  0.24211633  0.44646750  1.0
  Nb  Nb493  1  0.78772483  0.57544967  0.44646750  1.0
  Nb  Nb494  1  0.78772483  0.90878300  0.44646750  1.0
  Nb  Nb495  1  0.28772483  0.24211633  0.32146750  1.0
  Nb  Nb496  1  0.28772483  0.57544967  0.32146750  1.0
  Nb  Nb497  1  0.28772483  0.90878300  0.32146750  1.0
  Nb  Nb498  1  0.62105817  0.24211633  0.32146750  1.0
  Nb  Nb499  1  0.62105817  0.57544967  0.32146750  1.0
  Nb  Nb500  1  0.62105817  0.90878300  0.32146750  1.0
  Nb  Nb501  1  0.95439150  0.24211633  0.32146750  1.0
  Nb  Nb502  1  0.95439150  0.57544967  0.32146750  1.0
  Nb  Nb503  1  0.95439150  0.90878300  0.32146750  1.0
  Nb  Nb504  1  0.04560850  0.09121700  0.41353125  1.0
  Nb  Nb505  1  0.04560850  0.42455033  0.41353125  1.0
  Nb  Nb506  1  0.04560850  0.75788367  0.41353125  1.0
  Nb  Nb507  1  0.37894183  0.09121700  0.41353125  1.0
  Nb  Nb508  1  0.37894183  0.42455033  0.41353125  1.0
  Nb  Nb509  1  0.37894183  0.75788367  0.41353125  1.0
  Nb  Nb510  1  0.71227517  0.09121700  0.41353125  1.0
  Nb  Nb511  1  0.71227517  0.42455033  0.41353125  1.0
  Nb  Nb512  1  0.71227517  0.75788367  0.41353125  1.0
  Nb  Nb513  1  0.21227517  0.09121700  0.28853125  1.0
  Nb  Nb514  1  0.21227517  0.42455033  0.28853125  1.0
  Nb  Nb515  1  0.21227517  0.75788367  0.28853125  1.0
  Nb  Nb516  1  0.54560850  0.09121700  0.28853125  1.0
  Nb  Nb517  1  0.54560850  0.42455033  0.28853125  1.0
  Nb  Nb518  1  0.54560850  0.75788367  0.28853125  1.0
  Nb  Nb519  1  0.87894183  0.09121700  0.28853125  1.0
  Nb  Nb520  1  0.87894183  0.42455033  0.28853125  1.0
  Nb  Nb521  1  0.87894183  0.75788367  0.28853125  1.0
  Nb  Nb522  1  0.12920033  0.25840067  0.47700062  1.0
  Nb  Nb523  1  0.12920033  0.59173400  0.47700062  1.0
  Nb  Nb524  1  0.12920033  0.92506733  0.47700062  1.0
  Nb  Nb525  1  0.46253367  0.25840067  0.47700062  1.0
  Nb  Nb526  1  0.46253367  0.59173400  0.47700062  1.0
  Nb  Nb527  1  0.46253367  0.92506733  0.47700062  1.0
  Nb  Nb528  1  0.79586700  0.25840067  0.47700062  1.0
  Nb  Nb529  1  0.79586700  0.59173400  0.47700062  1.0
  Nb  Nb530  1  0.79586700  0.92506733  0.47700062  1.0
  Nb  Nb531  1  0.29586700  0.25840067  0.35200062  1.0
  Nb  Nb532  1  0.29586700  0.59173400  0.35200062  1.0
  Nb  Nb533  1  0.29586700  0.92506733  0.35200062  1.0
  Nb  Nb534  1  0.62920033  0.25840067  0.35200062  1.0
  Nb  Nb535  1  0.62920033  0.59173400  0.35200062  1.0
  Nb  Nb536  1  0.62920033  0.92506733  0.35200062  1.0
  Nb  Nb537  1  0.96253367  0.25840067  0.35200062  1.0
  Nb  Nb538  1  0.96253367  0.59173400  0.35200062  1.0
  Nb  Nb539  1  0.96253367  0.92506733  0.35200062  1.0
  Nb  Nb540  1  0.09700567  0.19401133  0.35627062  1.0
  Nb  Nb541  1  0.09700567  0.52734467  0.35627062  1.0
  Nb  Nb542  1  0.09700567  0.86067800  0.35627062  1.0
  Nb  Nb543  1  0.43033900  0.19401133  0.35627062  1.0
  Nb  Nb544  1  0.43033900  0.52734467  0.35627062  1.0
  Nb  Nb545  1  0.43033900  0.86067800  0.35627062  1.0
  Nb  Nb546  1  0.76367233  0.19401133  0.35627062  1.0
  Nb  Nb547  1  0.76367233  0.52734467  0.35627062  1.0
  Nb  Nb548  1  0.76367233  0.86067800  0.35627062  1.0
  Nb  Nb549  1  0.26367233  0.19401133  0.48127062  1.0
  Nb  Nb550  1  0.26367233  0.52734467  0.48127063  1.0
  Nb  Nb551  1  0.26367233  0.86067800  0.48127062  1.0
  Nb  Nb552  1  0.59700567  0.19401133  0.48127062  1.0
  Nb  Nb553  1  0.59700567  0.52734467  0.48127062  1.0
  Nb  Nb554  1  0.59700567  0.86067800  0.48127062  1.0
  Nb  Nb555  1  0.93033900  0.19401133  0.48127062  1.0
  Nb  Nb556  1  0.93033900  0.52734467  0.48127063  1.0
  Nb  Nb557  1  0.93033900  0.86067800  0.48127063  1.0
  Nb  Nb558  1  0.01408333  0.02816667  0.29531188  1.0
  Nb  Nb559  1  0.01408333  0.36150000  0.29531187  1.0
  Nb  Nb560  1  0.01408333  0.69483333  0.29531187  1.0
  Nb  Nb561  1  0.34741667  0.02816667  0.29531187  1.0
  Nb  Nb562  1  0.34741667  0.36150000  0.29531188  1.0
  Nb  Nb563  1  0.34741667  0.69483333  0.29531187  1.0
  Nb  Nb564  1  0.68075000  0.02816667  0.29531187  1.0
  Nb  Nb565  1  0.68075000  0.36150000  0.29531187  1.0
  Nb  Nb566  1  0.68075000  0.69483333  0.29531187  1.0
  Nb  Nb567  1  0.18075000  0.02816667  0.42031188  1.0
  Nb  Nb568  1  0.18075000  0.36150000  0.42031188  1.0
  Nb  Nb569  1  0.18075000  0.69483333  0.42031187  1.0
  Nb  Nb570  1  0.51408333  0.02816667  0.42031187  1.0
  Nb  Nb571  1  0.51408333  0.36150000  0.42031188  1.0
  Nb  Nb572  1  0.51408333  0.69483333  0.42031187  1.0
  Nb  Nb573  1  0.84741667  0.02816667  0.42031187  1.0
  Nb  Nb574  1  0.84741667  0.36150000  0.42031188  1.0
  Nb  Nb575  1  0.84741667  0.69483333  0.42031188  1.0
  Nb  Nb576  1  0.15258333  0.30516667  0.31468687  1.0
  Nb  Nb577  1  0.15258333  0.63850000  0.31468687  1.0
  Nb  Nb578  1  0.15258333  0.97183333  0.31468687  1.0
  Nb  Nb579  1  0.48591667  0.30516667  0.31468687  1.0
  Nb  Nb580  1  0.48591667  0.63850000  0.31468687  1.0
  Nb  Nb581  1  0.48591667  0.97183333  0.31468687  1.0
  Nb  Nb582  1  0.81925000  0.30516667  0.31468687  1.0
  Nb  Nb583  1  0.81925000  0.63850000  0.31468687  1.0
  Nb  Nb584  1  0.81925000  0.97183333  0.31468687  1.0
  Nb  Nb585  1  0.31925000  0.30516667  0.43968687  1.0
  Nb  Nb586  1  0.31925000  0.63850000  0.43968687  1.0
  Nb  Nb587  1  0.31925000  0.97183333  0.43968687  1.0
  Nb  Nb588  1  0.65258333  0.30516667  0.43968687  1.0
  Nb  Nb589  1  0.65258333  0.63850000  0.43968687  1.0
  Nb  Nb590  1  0.65258333  0.97183333  0.43968687  1.0
  Nb  Nb591  1  0.98591667  0.30516667  0.43968687  1.0
  Nb  Nb592  1  0.98591667  0.63850000  0.43968687  1.0
  Nb  Nb593  1  0.98591667  0.97183333  0.43968687  1.0
  Nb  Nb594  1  0.06966100  0.13932200  0.25372812  1.0
  Nb  Nb595  1  0.06966100  0.47265533  0.25372812  1.0
  Nb  Nb596  1  0.06966100  0.80598867  0.25372812  1.0
  Nb  Nb597  1  0.40299433  0.13932200  0.25372812  1.0
  Nb  Nb598  1  0.40299433  0.47265533  0.25372812  1.0
  Nb  Nb599  1  0.40299433  0.80598867  0.25372812  1.0
  Nb  Nb600  1  0.73632767  0.13932200  0.25372812  1.0
  Nb  Nb601  1  0.73632767  0.47265533  0.25372812  1.0
  Nb  Nb602  1  0.73632767  0.80598867  0.25372812  1.0
  Nb  Nb603  1  0.23632767  0.13932200  0.37872812  1.0
  Nb  Nb604  1  0.23632767  0.47265533  0.37872812  1.0
  Nb  Nb605  1  0.23632767  0.80598867  0.37872812  1.0
  Nb  Nb606  1  0.56966100  0.13932200  0.37872812  1.0
  Nb  Nb607  1  0.56966100  0.47265533  0.37872812  1.0
  Nb  Nb608  1  0.56966100  0.80598867  0.37872812  1.0
  Nb  Nb609  1  0.90299433  0.13932200  0.37872812  1.0
  Nb  Nb610  1  0.90299433  0.47265533  0.37872812  1.0
  Nb  Nb611  1  0.90299433  0.80598867  0.37872812  1.0
  Nb  Nb612  1  0.02883500  0.05767000  0.35063062  1.0
  Nb  Nb613  1  0.02883500  0.39100333  0.35063062  1.0
  Nb  Nb614  1  0.02883500  0.72433667  0.35063062  1.0
  Nb  Nb615  1  0.36216833  0.05767000  0.35063062  1.0
  Nb  Nb616  1  0.36216833  0.39100333  0.35063062  1.0
  Nb  Nb617  1  0.36216833  0.72433667  0.35063062  1.0
  Nb  Nb618  1  0.69550167  0.05767000  0.35063062  1.0
  Nb  Nb619  1  0.69550167  0.39100333  0.35063062  1.0
  Nb  Nb620  1  0.69550167  0.72433667  0.35063063  1.0
  Nb  Nb621  1  0.19550167  0.05767000  0.47563063  1.0
  Nb  Nb622  1  0.19550167  0.39100333  0.47563062  1.0
  Nb  Nb623  1  0.19550167  0.72433667  0.47563062  1.0
  Nb  Nb624  1  0.52883500  0.05767000  0.47563062  1.0
  Nb  Nb625  1  0.52883500  0.39100333  0.47563062  1.0
  Nb  Nb626  1  0.52883500  0.72433667  0.47563062  1.0
  Nb  Nb627  1  0.86216833  0.05767000  0.47563062  1.0
  Nb  Nb628  1  0.86216833  0.39100333  0.47563062  1.0
  Nb  Nb629  1  0.86216833  0.72433667  0.47563062  1.0
  Nb  Nb630  1  0.11222867  0.22445733  0.41335687  1.0
  Nb  Nb631  1  0.11222867  0.55779067  0.41335688  1.0
  Nb  Nb632  1  0.11222867  0.89112400  0.41335687  1.0
  Nb  Nb633  1  0.44556200  0.22445733  0.41335687  1.0
  Nb  Nb634  1  0.44556200  0.55779067  0.41335687  1.0
  Nb  Nb635  1  0.44556200  0.89112400  0.41335688  1.0
  Nb  Nb636  1  0.77889533  0.22445733  0.41335688  1.0
  Nb  Nb637  1  0.77889533  0.55779067  0.41335687  1.0
  Nb  Nb638  1  0.77889533  0.89112400  0.41335687  1.0
  Nb  Nb639  1  0.27889533  0.22445733  0.28835687  1.0
  Nb  Nb640  1  0.27889533  0.55779067  0.28835687  1.0
  Nb  Nb641  1  0.27889533  0.89112400  0.28835687  1.0
  Nb  Nb642  1  0.61222867  0.22445733  0.28835687  1.0
  Nb  Nb643  1  0.61222867  0.55779067  0.28835687  1.0
  Nb  Nb644  1  0.61222867  0.89112400  0.28835687  1.0
  Nb  Nb645  1  0.94556200  0.22445733  0.28835687  1.0
  Nb  Nb646  1  0.94556200  0.55779067  0.28835687  1.0
  Nb  Nb647  1  0.94556200  0.89112400  0.28835687  1.0
  Nb  Nb648  1  0.05443800  0.10887600  0.44664188  1.0
  Nb  Nb649  1  0.05443800  0.44220933  0.44664188  1.0
  Nb  Nb650  1  0.05443800  0.77554267  0.44664187  1.0
  Nb  Nb651  1  0.38777133  0.10887600  0.44664188  1.0
  Nb  Nb652  1  0.38777133  0.44220933  0.44664187  1.0
  Nb  Nb653  1  0.38777133  0.77554267  0.44664188  1.0
  Nb  Nb654  1  0.72110467  0.10887600  0.44664188  1.0
  Nb  Nb655  1  0.72110467  0.44220933  0.44664187  1.0
  Nb  Nb656  1  0.72110467  0.77554267  0.44664187  1.0
  Nb  Nb657  1  0.22110467  0.10887600  0.32164187  1.0
  Nb  Nb658  1  0.22110467  0.44220933  0.32164187  1.0
  Nb  Nb659  1  0.22110467  0.77554267  0.32164187  1.0
  Nb  Nb660  1  0.55443800  0.10887600  0.32164187  1.0
  Nb  Nb661  1  0.55443800  0.44220933  0.32164187  1.0
  Nb  Nb662  1  0.55443800  0.77554267  0.32164187  1.0
  Nb  Nb663  1  0.88777133  0.10887600  0.32164187  1.0
  Nb  Nb664  1  0.88777133  0.44220933  0.32164187  1.0
  Nb  Nb665  1  0.88777133  0.77554267  0.32164187  1.0
  Nb  Nb666  1  0.13783167  0.27566333  0.25936812  1.0
  Nb  Nb667  1  0.13783167  0.60899667  0.25936812  1.0
  Nb  Nb668  1  0.13783167  0.94233000  0.25936812  1.0
  Nb  Nb669  1  0.47116500  0.27566333  0.25936812  1.0
  Nb  Nb670  1  0.47116500  0.60899667  0.25936813  1.0
  Nb  Nb671  1  0.47116500  0.94233000  0.25936812  1.0
  Nb  Nb672  1  0.80449833  0.27566333  0.25936812  1.0
  Nb  Nb673  1  0.80449833  0.60899667  0.25936812  1.0
  Nb  Nb674  1  0.80449833  0.94233000  0.25936812  1.0
  Nb  Nb675  1  0.30449833  0.27566333  0.38436812  1.0
  Nb  Nb676  1  0.30449833  0.60899667  0.38436813  1.0
  Nb  Nb677  1  0.30449833  0.94233000  0.38436812  1.0
  Nb  Nb678  1  0.63783167  0.27566333  0.38436812  1.0
  Nb  Nb679  1  0.63783167  0.60899667  0.38436812  1.0
  Nb  Nb680  1  0.63783167  0.94233000  0.38436813  1.0
  Nb  Nb681  1  0.97116500  0.27566333  0.38436813  1.0
  Nb  Nb682  1  0.97116500  0.60899667  0.38436812  1.0
  Nb  Nb683  1  0.97116500  0.94233000  0.38436812  1.0
  Nb  Nb684  1  0.00000000  0.00000000  0.49249937  1.0
  Nb  Nb685  1  0.00000000  0.33333333  0.49249938  1.0
  Nb  Nb686  1  0.00000000  0.66666667  0.49249937  1.0
  Nb  Nb687  1  0.33333333  0.00000000  0.49249937  1.0
  Nb  Nb688  1  0.33333333  0.33333333  0.49249938  1.0
  Nb  Nb689  1  0.33333333  0.66666667  0.49249937  1.0
  Nb  Nb690  1  0.66666667  0.00000000  0.49249937  1.0
  Nb  Nb691  1  0.66666667  0.33333333  0.49249937  1.0
  Nb  Nb692  1  0.66666667  0.66666667  0.49249937  1.0
  Nb  Nb693  1  0.16666667  0.00000000  0.36749937  1.0
  Nb  Nb694  1  0.16666667  0.33333333  0.36749937  1.0
  Nb  Nb695  1  0.16666667  0.66666667  0.36749937  1.0
  Nb  Nb696  1  0.50000000  0.00000000  0.36749937  1.0
  Nb  Nb697  1  0.50000000  0.33333333  0.36749938  1.0
  Nb  Nb698  1  0.50000000  0.66666667  0.36749937  1.0
  Nb  Nb699  1  0.83333333  0.00000000  0.36749937  1.0
  Nb  Nb700  1  0.83333333  0.33333333  0.36749938  1.0
  Nb  Nb701  1  0.83333333  0.66666667  0.36749937  1.0
  Ni  Ni702  1  0.04959800  0.26384933  0.42547187  1.0
  Ni  Ni703  1  0.04959800  0.59718267  0.42547187  1.0
  Ni  Ni704  1  0.04959800  0.93051600  0.42547187  1.0
  Ni  Ni705  1  0.38293133  0.26384933  0.42547187  1.0
  Ni  Ni706  1  0.38293133  0.59718267  0.42547187  1.0
  Ni  Ni707  1  0.38293133  0.93051600  0.42547187  1.0
  Ni  Ni708  1  0.71626467  0.26384933  0.42547188  1.0
  Ni  Ni709  1  0.71626467  0.59718267  0.42547187  1.0
  Ni  Ni710  1  0.71626467  0.93051600  0.42547187  1.0
  Ni  Ni711  1  0.21626467  0.26384933  0.30047187  1.0
  Ni  Ni712  1  0.21626467  0.59718267  0.30047187  1.0
  Ni  Ni713  1  0.21626467  0.93051600  0.30047187  1.0
  Ni  Ni714  1  0.54959800  0.26384933  0.30047187  1.0
  Ni  Ni715  1  0.54959800  0.59718267  0.30047187  1.0
  Ni  Ni716  1  0.54959800  0.93051600  0.30047187  1.0
  Ni  Ni717  1  0.88293133  0.26384933  0.30047188  1.0
  Ni  Ni718  1  0.88293133  0.59718267  0.30047187  1.0
  Ni  Ni719  1  0.88293133  0.93051600  0.30047187  1.0
  Ni  Ni720  1  0.13271483  0.09860467  0.48994250  1.0
  Ni  Ni721  1  0.13271483  0.43193800  0.48994250  1.0
  Ni  Ni722  1  0.13271483  0.76527133  0.48994250  1.0
  Ni  Ni723  1  0.46604817  0.09860467  0.48994250  1.0
  Ni  Ni724  1  0.46604817  0.43193800  0.48994250  1.0
  Ni  Ni725  1  0.46604817  0.76527133  0.48994250  1.0
  Ni  Ni726  1  0.79938150  0.09860467  0.48994250  1.0
  Ni  Ni727  1  0.79938150  0.43193800  0.48994250  1.0
  Ni  Ni728  1  0.79938150  0.76527133  0.48994250  1.0
  Ni  Ni729  1  0.29938150  0.09860467  0.36494250  1.0
  Ni  Ni730  1  0.29938150  0.43193800  0.36494250  1.0
  Ni  Ni731  1  0.29938150  0.76527133  0.36494250  1.0
  Ni  Ni732  1  0.63271483  0.09860467  0.36494250  1.0
  Ni  Ni733  1  0.63271483  0.43193800  0.36494250  1.0
  Ni  Ni734  1  0.63271483  0.76527133  0.36494250  1.0
  Ni  Ni735  1  0.96604817  0.09860467  0.36494250  1.0
  Ni  Ni736  1  0.96604817  0.43193800  0.36494250  1.0
  Ni  Ni737  1  0.96604817  0.76527133  0.36494250  1.0
  Ni  Ni738  1  0.13192467  0.09919600  0.36372688  1.0
  Ni  Ni739  1  0.13192467  0.43252933  0.36372688  1.0
  Ni  Ni740  1  0.13192467  0.76586267  0.36372687  1.0
  Ni  Ni741  1  0.46525800  0.09919600  0.36372687  1.0
  Ni  Ni742  1  0.46525800  0.43252933  0.36372688  1.0
  Ni  Ni743  1  0.46525800  0.76586267  0.36372687  1.0
  Ni  Ni744  1  0.79859133  0.09919600  0.36372688  1.0
  Ni  Ni745  1  0.79859133  0.43252933  0.36372688  1.0
  Ni  Ni746  1  0.79859133  0.76586267  0.36372687  1.0
  Ni  Ni747  1  0.29859133  0.09919600  0.48872687  1.0
  Ni  Ni748  1  0.29859133  0.43252933  0.48872687  1.0
  Ni  Ni749  1  0.29859133  0.76586267  0.48872687  1.0
  Ni  Ni750  1  0.63192467  0.09919600  0.48872687  1.0
  Ni  Ni751  1  0.63192467  0.43252933  0.48872687  1.0
  Ni  Ni752  1  0.63192467  0.76586267  0.48872687  1.0
  Ni  Ni753  1  0.96525800  0.09919600  0.48872687  1.0
  Ni  Ni754  1  0.96525800  0.43252933  0.48872687  1.0
  Ni  Ni755  1  0.96525800  0.76586267  0.48872687  1.0
  Ni  Ni756  1  0.04930233  0.26542967  0.30250188  1.0
  Ni  Ni757  1  0.04930233  0.59876300  0.30250187  1.0
  Ni  Ni758  1  0.04930233  0.93209633  0.30250187  1.0
  Ni  Ni759  1  0.38263567  0.26542967  0.30250188  1.0
  Ni  Ni760  1  0.38263567  0.59876300  0.30250187  1.0
  Ni  Ni761  1  0.38263567  0.93209633  0.30250187  1.0
  Ni  Ni762  1  0.71596900  0.26542967  0.30250187  1.0
  Ni  Ni763  1  0.71596900  0.59876300  0.30250187  1.0
  Ni  Ni764  1  0.71596900  0.93209633  0.30250187  1.0
  Ni  Ni765  1  0.21596900  0.26542967  0.42750188  1.0
  Ni  Ni766  1  0.21596900  0.59876300  0.42750188  1.0
  Ni  Ni767  1  0.21596900  0.93209633  0.42750187  1.0
  Ni  Ni768  1  0.54930233  0.26542967  0.42750188  1.0
  Ni  Ni769  1  0.54930233  0.59876300  0.42750187  1.0
  Ni  Ni770  1  0.54930233  0.93209633  0.42750187  1.0
  Ni  Ni771  1  0.88263567  0.26542967  0.42750187  1.0
  Ni  Ni772  1  0.88263567  0.59876300  0.42750187  1.0
  Ni  Ni773  1  0.88263567  0.93209633  0.42750187  1.0
  Ni  Ni774  1  0.13192467  0.26384933  0.36372687  1.0
  Ni  Ni775  1  0.13192467  0.59718267  0.36372687  1.0
  Ni  Ni776  1  0.13192467  0.93051600  0.36372687  1.0
  Ni  Ni777  1  0.46525800  0.26384933  0.36372687  1.0
  Ni  Ni778  1  0.46525800  0.59718267  0.36372687  1.0
  Ni  Ni779  1  0.46525800  0.93051600  0.36372688  1.0
  Ni  Ni780  1  0.79859133  0.26384933  0.36372688  1.0
  Ni  Ni781  1  0.79859133  0.59718267  0.36372687  1.0
  Ni  Ni782  1  0.79859133  0.93051600  0.36372687  1.0
  Ni  Ni783  1  0.29859133  0.26384933  0.48872687  1.0
  Ni  Ni784  1  0.29859133  0.59718267  0.48872687  1.0
  Ni  Ni785  1  0.29859133  0.93051600  0.48872687  1.0
  Ni  Ni786  1  0.63192467  0.26384933  0.48872688  1.0
  Ni  Ni787  1  0.63192467  0.59718267  0.48872687  1.0
  Ni  Ni788  1  0.63192467  0.93051600  0.48872687  1.0
  Ni  Ni789  1  0.96525800  0.26384933  0.48872687  1.0
  Ni  Ni790  1  0.96525800  0.59718267  0.48872688  1.0
  Ni  Ni791  1  0.96525800  0.93051600  0.48872687  1.0
  Ni  Ni792  1  0.04930233  0.09860467  0.30250187  1.0
  Ni  Ni793  1  0.04930233  0.43193800  0.30250187  1.0
  Ni  Ni794  1  0.04930233  0.76527133  0.30250187  1.0
  Ni  Ni795  1  0.38263567  0.09860467  0.30250187  1.0
  Ni  Ni796  1  0.38263567  0.43193800  0.30250187  1.0
  Ni  Ni797  1  0.38263567  0.76527133  0.30250187  1.0
  Ni  Ni798  1  0.71596900  0.09860467  0.30250187  1.0
  Ni  Ni799  1  0.71596900  0.43193800  0.30250187  1.0
  Ni  Ni800  1  0.71596900  0.76527133  0.30250187  1.0
  Ni  Ni801  1  0.21596900  0.09860467  0.42750187  1.0
  Ni  Ni802  1  0.21596900  0.43193800  0.42750187  1.0
  Ni  Ni803  1  0.21596900  0.76527133  0.42750187  1.0
  Ni  Ni804  1  0.54930233  0.09860467  0.42750187  1.0
  Ni  Ni805  1  0.54930233  0.43193800  0.42750187  1.0
  Ni  Ni806  1  0.54930233  0.76527133  0.42750187  1.0
  Ni  Ni807  1  0.88263567  0.09860467  0.42750188  1.0
  Ni  Ni808  1  0.88263567  0.43193800  0.42750188  1.0
  Ni  Ni809  1  0.88263567  0.76527133  0.42750187  1.0
  Ni  Ni810  1  0.03395183  0.23472867  0.37005625  1.0
  Ni  Ni811  1  0.03395183  0.56806200  0.37005625  1.0
  Ni  Ni812  1  0.03395183  0.90139533  0.37005625  1.0
  Ni  Ni813  1  0.36728517  0.23472867  0.37005625  1.0
  Ni  Ni814  1  0.36728517  0.56806200  0.37005625  1.0
  Ni  Ni815  1  0.36728517  0.90139533  0.37005625  1.0
  Ni  Ni816  1  0.70061850  0.23472867  0.37005625  1.0
  Ni  Ni817  1  0.70061850  0.56806200  0.37005625  1.0
  Ni  Ni818  1  0.70061850  0.90139533  0.37005625  1.0
  Ni  Ni819  1  0.20061850  0.23472867  0.49505625  1.0
  Ni  Ni820  1  0.20061850  0.56806200  0.49505625  1.0
  Ni  Ni821  1  0.20061850  0.90139533  0.49505625  1.0
  Ni  Ni822  1  0.53395183  0.23472867  0.49505625  1.0
  Ni  Ni823  1  0.53395183  0.56806200  0.49505625  1.0
  Ni  Ni824  1  0.53395183  0.90139533  0.49505625  1.0
  Ni  Ni825  1  0.86728517  0.23472867  0.49505625  1.0
  Ni  Ni826  1  0.86728517  0.56806200  0.49505625  1.0
  Ni  Ni827  1  0.86728517  0.90139533  0.49505625  1.0
  Ni  Ni828  1  0.11706867  0.06948400  0.43452688  1.0
  Ni  Ni829  1  0.11706867  0.40281733  0.43452687  1.0
  Ni  Ni830  1  0.11706867  0.73615067  0.43452687  1.0
  Ni  Ni831  1  0.45040200  0.06948400  0.43452687  1.0
  Ni  Ni832  1  0.45040200  0.40281733  0.43452687  1.0
  Ni  Ni833  1  0.45040200  0.73615067  0.43452687  1.0
  Ni  Ni834  1  0.78373533  0.06948400  0.43452687  1.0
  Ni  Ni835  1  0.78373533  0.40281733  0.43452687  1.0
  Ni  Ni836  1  0.78373533  0.73615067  0.43452687  1.0
  Ni  Ni837  1  0.28373533  0.06948400  0.30952687  1.0
  Ni  Ni838  1  0.28373533  0.40281733  0.30952687  1.0
  Ni  Ni839  1  0.28373533  0.73615067  0.30952687  1.0
  Ni  Ni840  1  0.61706867  0.06948400  0.30952687  1.0
  Ni  Ni841  1  0.61706867  0.40281733  0.30952687  1.0
  Ni  Ni842  1  0.61706867  0.73615067  0.30952687  1.0
  Ni  Ni843  1  0.95040200  0.06948400  0.30952687  1.0
  Ni  Ni844  1  0.95040200  0.40281733  0.30952687  1.0
  Ni  Ni845  1  0.95040200  0.73615067  0.30952687  1.0
  Ni  Ni846  1  0.11736433  0.06790367  0.30749688  1.0
  Ni  Ni847  1  0.11736433  0.40123700  0.30749688  1.0
  Ni  Ni848  1  0.11736433  0.73457033  0.30749687  1.0
  Ni  Ni849  1  0.45069767  0.06790367  0.30749688  1.0
  Ni  Ni850  1  0.45069767  0.40123700  0.30749687  1.0
  Ni  Ni851  1  0.45069767  0.73457033  0.30749687  1.0
  Ni  Ni852  1  0.78403100  0.06790367  0.30749688  1.0
  Ni  Ni853  1  0.78403100  0.40123700  0.30749687  1.0
  Ni  Ni854  1  0.78403100  0.73457033  0.30749687  1.0
  Ni  Ni855  1  0.28403100  0.06790367  0.43249687  1.0
  Ni  Ni856  1  0.28403100  0.40123700  0.43249687  1.0
  Ni  Ni857  1  0.28403100  0.73457033  0.43249687  1.0
  Ni  Ni858  1  0.61736433  0.06790367  0.43249687  1.0
  Ni  Ni859  1  0.61736433  0.40123700  0.43249687  1.0
  Ni  Ni860  1  0.61736433  0.73457033  0.43249687  1.0
  Ni  Ni861  1  0.95069767  0.06790367  0.43249687  1.0
  Ni  Ni862  1  0.95069767  0.40123700  0.43249687  1.0
  Ni  Ni863  1  0.95069767  0.73457033  0.43249687  1.0
  Ni  Ni864  1  0.03474200  0.23413733  0.49627188  1.0
  Ni  Ni865  1  0.03474200  0.56747067  0.49627187  1.0
  Ni  Ni866  1  0.03474200  0.90080400  0.49627187  1.0
  Ni  Ni867  1  0.36807533  0.23413733  0.49627188  1.0
  Ni  Ni868  1  0.36807533  0.56747067  0.49627187  1.0
  Ni  Ni869  1  0.36807533  0.90080400  0.49627187  1.0
  Ni  Ni870  1  0.70140867  0.23413733  0.49627188  1.0
  Ni  Ni871  1  0.70140867  0.56747067  0.49627187  1.0
  Ni  Ni872  1  0.70140867  0.90080400  0.49627187  1.0
  Ni  Ni873  1  0.20140867  0.23413733  0.37127188  1.0
  Ni  Ni874  1  0.20140867  0.56747067  0.37127187  1.0
  Ni  Ni875  1  0.20140867  0.90080400  0.37127187  1.0
  Ni  Ni876  1  0.53474200  0.23413733  0.37127188  1.0
  Ni  Ni877  1  0.53474200  0.56747067  0.37127187  1.0
  Ni  Ni878  1  0.53474200  0.90080400  0.37127187  1.0
  Ni  Ni879  1  0.86807533  0.23413733  0.37127187  1.0
  Ni  Ni880  1  0.86807533  0.56747067  0.37127187  1.0
  Ni  Ni881  1  0.86807533  0.90080400  0.37127187  1.0
  Ni  Ni882  1  0.11736433  0.23472867  0.30749688  1.0
  Ni  Ni883  1  0.11736433  0.56806200  0.30749687  1.0
  Ni  Ni884  1  0.11736433  0.90139533  0.30749688  1.0
  Ni  Ni885  1  0.45069767  0.23472867  0.30749687  1.0
  Ni  Ni886  1  0.45069767  0.56806200  0.30749688  1.0
  Ni  Ni887  1  0.45069767  0.90139533  0.30749688  1.0
  Ni  Ni888  1  0.78403100  0.23472867  0.30749687  1.0
  Ni  Ni889  1  0.78403100  0.56806200  0.30749688  1.0
  Ni  Ni890  1  0.78403100  0.90139533  0.30749687  1.0
  Ni  Ni891  1  0.28403100  0.23472867  0.43249688  1.0
  Ni  Ni892  1  0.28403100  0.56806200  0.43249688  1.0
  Ni  Ni893  1  0.28403100  0.90139533  0.43249687  1.0
  Ni  Ni894  1  0.61736433  0.23472867  0.43249688  1.0
  Ni  Ni895  1  0.61736433  0.56806200  0.43249687  1.0
  Ni  Ni896  1  0.61736433  0.90139533  0.43249688  1.0
  Ni  Ni897  1  0.95069767  0.23472867  0.43249688  1.0
  Ni  Ni898  1  0.95069767  0.56806200  0.43249688  1.0
  Ni  Ni899  1  0.95069767  0.90139533  0.43249687  1.0
  Ni  Ni900  1  0.03474200  0.06948400  0.49627188  1.0
  Ni  Ni901  1  0.03474200  0.40281733  0.49627187  1.0
  Ni  Ni902  1  0.03474200  0.73615067  0.49627187  1.0
  Ni  Ni903  1  0.36807533  0.06948400  0.49627188  1.0
  Ni  Ni904  1  0.36807533  0.40281733  0.49627188  1.0
  Ni  Ni905  1  0.36807533  0.73615067  0.49627187  1.0
  Ni  Ni906  1  0.70140867  0.06948400  0.49627188  1.0
  Ni  Ni907  1  0.70140867  0.40281733  0.49627187  1.0
  Ni  Ni908  1  0.70140867  0.73615067  0.49627187  1.0
  Ni  Ni909  1  0.20140867  0.06948400  0.37127187  1.0
  Ni  Ni910  1  0.20140867  0.40281733  0.37127187  1.0
  Ni  Ni911  1  0.20140867  0.73615067  0.37127187  1.0
  Ni  Ni912  1  0.53474200  0.06948400  0.37127187  1.0
  Ni  Ni913  1  0.53474200  0.40281733  0.37127187  1.0
  Ni  Ni914  1  0.53474200  0.73615067  0.37127187  1.0
  Ni  Ni915  1  0.86807533  0.06948400  0.37127187  1.0
  Ni  Ni916  1  0.86807533  0.40281733  0.37127187  1.0
  Ni  Ni917  1  0.86807533  0.73615067  0.37127187  1.0
  Ni  Ni918  1  0.08333333  0.16666667  0.30499937  1.0
  Ni  Ni919  1  0.08333333  0.50000000  0.30499937  1.0
  Ni  Ni920  1  0.08333333  0.83333333  0.30499937  1.0
  Ni  Ni921  1  0.41666667  0.16666667  0.30499937  1.0
  Ni  Ni922  1  0.41666667  0.50000000  0.30499937  1.0
  Ni  Ni923  1  0.41666667  0.83333333  0.30499937  1.0
  Ni  Ni924  1  0.75000000  0.16666667  0.30499937  1.0
  Ni  Ni925  1  0.75000000  0.50000000  0.30499937  1.0
  Ni  Ni926  1  0.75000000  0.83333333  0.30499937  1.0
  Ni  Ni927  1  0.25000000  0.16666667  0.42999937  1.0
  Ni  Ni928  1  0.25000000  0.50000000  0.42999937  1.0
  Ni  Ni929  1  0.25000000  0.83333333  0.42999937  1.0
  Ni  Ni930  1  0.58333333  0.16666667  0.42999937  1.0
  Ni  Ni931  1  0.58333333  0.50000000  0.42999937  1.0
  Ni  Ni932  1  0.58333333  0.83333333  0.42999937  1.0
  Ni  Ni933  1  0.91666667  0.16666667  0.42999937  1.0
  Ni  Ni934  1  0.91666667  0.50000000  0.42999937  1.0
  Ni  Ni935  1  0.91666667  0.83333333  0.42999937  1.0
