# generated using pymatgen
data_NbNi2
_symmetry_space_group_name_H-M   'P 1'
_cell_length_a   46.99906200
_cell_length_b   38.06457788
_cell_length_c   43.16117436
_cell_angle_alpha   139.10660535
_cell_angle_beta   90.00000000
_cell_angle_gamma   90.00000000
_symmetry_Int_Tables_number   1
_chemical_formula_structural   NbNi2
_chemical_formula_sum   'Nb576 Ni1152'
_cell_volume   50549.29100216
_cell_formula_units_Z   576
loop_
 _symmetry_equiv_pos_site_id
 _symmetry_equiv_pos_as_xyz
  1  'x, y, z'
loop_
 _atom_site_type_symbol
 _atom_site_label
 _atom_site_symmetry_multiplicity
 _atom_site_fract_x
 _atom_site_fract_y
 _atom_site_fract_z
 _atom_site_occupancy
  Nb  Nb0  1  0.03250933  0.16666667  0.05098856  1.0
  Nb  Nb1  1  0.03250933  0.50000000  0.05098856  1.0
  Nb  Nb2  1  0.03250933  0.83333333  0.05098856  1.0
  Nb  Nb3  1  0.36584267  0.16666667  0.05098856  1.0
  Nb  Nb4  1  0.36584267  0.50000000  0.05098856  1.0
  Nb  Nb5  1  0.36584267  0.83333333  0.05098856  1.0
  Nb  Nb6  1  0.69917600  0.16666667  0.05098856  1.0
  Nb  Nb7  1  0.69917600  0.50000000  0.05098856  1.0
  Nb  Nb8  1  0.69917600  0.83333333  0.05098856  1.0
  Nb  Nb9  1  0.03250933  0.00000000  0.10654411  1.0
  Nb  Nb10  1  0.03250933  0.33333333  0.10654411  1.0
  Nb  Nb11  1  0.03250933  0.66666667  0.10654411  1.0
  Nb  Nb12  1  0.36584267  0.00000000  0.10654411  1.0
  Nb  Nb13  1  0.36584267  0.33333333  0.10654411  1.0
  Nb  Nb14  1  0.36584267  0.66666667  0.10654411  1.0
  Nb  Nb15  1  0.69917600  0.00000000  0.10654411  1.0
  Nb  Nb16  1  0.69917600  0.33333333  0.10654411  1.0
  Nb  Nb17  1  0.69917600  0.66666667  0.10654411  1.0
  Nb  Nb18  1  0.30082400  0.16666667  0.05098856  1.0
  Nb  Nb19  1  0.30082400  0.50000000  0.05098856  1.0
  Nb  Nb20  1  0.30082400  0.83333333  0.05098856  1.0
  Nb  Nb21  1  0.63415733  0.16666667  0.05098856  1.0
  Nb  Nb22  1  0.63415733  0.50000000  0.05098856  1.0
  Nb  Nb23  1  0.63415733  0.83333333  0.05098856  1.0
  Nb  Nb24  1  0.96749067  0.16666667  0.05098856  1.0
  Nb  Nb25  1  0.96749067  0.50000000  0.05098856  1.0
  Nb  Nb26  1  0.96749067  0.83333333  0.05098856  1.0
  Nb  Nb27  1  0.30082400  0.00000000  0.10654411  1.0
  Nb  Nb28  1  0.30082400  0.33333333  0.10654411  1.0
  Nb  Nb29  1  0.30082400  0.66666667  0.10654411  1.0
  Nb  Nb30  1  0.63415733  0.00000000  0.10654411  1.0
  Nb  Nb31  1  0.63415733  0.33333333  0.10654411  1.0
  Nb  Nb32  1  0.63415733  0.66666667  0.10654411  1.0
  Nb  Nb33  1  0.96749067  0.00000000  0.10654411  1.0
  Nb  Nb34  1  0.96749067  0.33333333  0.10654411  1.0
  Nb  Nb35  1  0.96749067  0.66666667  0.10654411  1.0
  Nb  Nb36  1  0.19917600  0.16666667  0.05098856  1.0
  Nb  Nb37  1  0.19917600  0.50000000  0.05098856  1.0
  Nb  Nb38  1  0.19917600  0.83333333  0.05098856  1.0
  Nb  Nb39  1  0.53250933  0.16666667  0.05098856  1.0
  Nb  Nb40  1  0.53250933  0.50000000  0.05098856  1.0
  Nb  Nb41  1  0.53250933  0.83333333  0.05098856  1.0
  Nb  Nb42  1  0.86584267  0.16666667  0.05098856  1.0
  Nb  Nb43  1  0.86584267  0.50000000  0.05098856  1.0
  Nb  Nb44  1  0.86584267  0.83333333  0.05098856  1.0
  Nb  Nb45  1  0.19917600  0.00000000  0.10654411  1.0
  Nb  Nb46  1  0.19917600  0.33333333  0.10654411  1.0
  Nb  Nb47  1  0.19917600  0.66666667  0.10654411  1.0
  Nb  Nb48  1  0.53250933  0.00000000  0.10654411  1.0
  Nb  Nb49  1  0.53250933  0.33333333  0.10654411  1.0
  Nb  Nb50  1  0.53250933  0.66666667  0.10654411  1.0
  Nb  Nb51  1  0.86584267  0.00000000  0.10654411  1.0
  Nb  Nb52  1  0.86584267  0.33333333  0.10654411  1.0
  Nb  Nb53  1  0.86584267  0.66666667  0.10654411  1.0
  Nb  Nb54  1  0.13415733  0.16666667  0.05098856  1.0
  Nb  Nb55  1  0.13415733  0.50000000  0.05098856  1.0
  Nb  Nb56  1  0.13415733  0.83333333  0.05098856  1.0
  Nb  Nb57  1  0.46749067  0.16666667  0.05098856  1.0
  Nb  Nb58  1  0.46749067  0.50000000  0.05098856  1.0
  Nb  Nb59  1  0.46749067  0.83333333  0.05098856  1.0
  Nb  Nb60  1  0.80082400  0.16666667  0.05098856  1.0
  Nb  Nb61  1  0.80082400  0.50000000  0.05098856  1.0
  Nb  Nb62  1  0.80082400  0.83333333  0.05098856  1.0
  Nb  Nb63  1  0.13415733  0.00000000  0.10654411  1.0
  Nb  Nb64  1  0.13415733  0.33333333  0.10654411  1.0
  Nb  Nb65  1  0.13415733  0.66666667  0.10654411  1.0
  Nb  Nb66  1  0.46749067  0.00000000  0.10654411  1.0
  Nb  Nb67  1  0.46749067  0.33333333  0.10654411  1.0
  Nb  Nb68  1  0.46749067  0.66666667  0.10654411  1.0
  Nb  Nb69  1  0.80082400  0.00000000  0.10654411  1.0
  Nb  Nb70  1  0.80082400  0.33333333  0.10654411  1.0
  Nb  Nb71  1  0.80082400  0.66666667  0.10654411  1.0
  Nb  Nb72  1  0.28197700  0.11111111  0.06950707  1.0
  Nb  Nb73  1  0.28197700  0.44444444  0.06950707  1.0
  Nb  Nb74  1  0.28197700  0.77777778  0.06950707  1.0
  Nb  Nb75  1  0.61531033  0.11111111  0.06950707  1.0
  Nb  Nb76  1  0.61531033  0.44444444  0.06950707  1.0
  Nb  Nb77  1  0.61531033  0.77777778  0.06950707  1.0
  Nb  Nb78  1  0.94864367  0.11111111  0.06950707  1.0
  Nb  Nb79  1  0.94864367  0.44444444  0.06950707  1.0
  Nb  Nb80  1  0.94864367  0.77777778  0.06950707  1.0
  Nb  Nb81  1  0.28197700  0.27777778  0.01395152  1.0
  Nb  Nb82  1  0.28197700  0.61111111  0.01395152  1.0
  Nb  Nb83  1  0.28197700  0.94444444  0.01395152  1.0
  Nb  Nb84  1  0.61531033  0.27777778  0.01395152  1.0
  Nb  Nb85  1  0.61531033  0.61111111  0.01395152  1.0
  Nb  Nb86  1  0.61531033  0.94444444  0.01395152  1.0
  Nb  Nb87  1  0.94864367  0.27777778  0.01395152  1.0
  Nb  Nb88  1  0.94864367  0.61111111  0.01395152  1.0
  Nb  Nb89  1  0.94864367  0.94444444  0.01395152  1.0
  Nb  Nb90  1  0.05135633  0.05555556  0.08802559  1.0
  Nb  Nb91  1  0.05135633  0.38888889  0.08802559  1.0
  Nb  Nb92  1  0.05135633  0.72222222  0.08802559  1.0
  Nb  Nb93  1  0.38468967  0.05555556  0.08802559  1.0
  Nb  Nb94  1  0.38468967  0.38888889  0.08802559  1.0
  Nb  Nb95  1  0.38468967  0.72222222  0.08802559  1.0
  Nb  Nb96  1  0.71802300  0.05555556  0.08802559  1.0
  Nb  Nb97  1  0.71802300  0.38888889  0.08802559  1.0
  Nb  Nb98  1  0.71802300  0.72222222  0.08802559  1.0
  Nb  Nb99  1  0.05135633  0.22222222  0.03247004  1.0
  Nb  Nb100  1  0.05135633  0.55555556  0.03247004  1.0
  Nb  Nb101  1  0.05135633  0.88888889  0.03247004  1.0
  Nb  Nb102  1  0.38468967  0.22222222  0.03247004  1.0
  Nb  Nb103  1  0.38468967  0.55555556  0.03247004  1.0
  Nb  Nb104  1  0.38468967  0.88888889  0.03247004  1.0
  Nb  Nb105  1  0.71802300  0.22222222  0.03247004  1.0
  Nb  Nb106  1  0.71802300  0.55555556  0.03247004  1.0
  Nb  Nb107  1  0.71802300  0.88888889  0.03247004  1.0
  Nb  Nb108  1  0.11531033  0.05555556  0.08802559  1.0
  Nb  Nb109  1  0.11531033  0.38888889  0.08802559  1.0
  Nb  Nb110  1  0.11531033  0.72222222  0.08802559  1.0
  Nb  Nb111  1  0.44864367  0.05555556  0.08802559  1.0
  Nb  Nb112  1  0.44864367  0.38888889  0.08802559  1.0
  Nb  Nb113  1  0.44864367  0.72222222  0.08802559  1.0
  Nb  Nb114  1  0.78197700  0.05555556  0.08802559  1.0
  Nb  Nb115  1  0.78197700  0.38888889  0.08802559  1.0
  Nb  Nb116  1  0.78197700  0.72222222  0.08802559  1.0
  Nb  Nb117  1  0.11531033  0.22222222  0.03247004  1.0
  Nb  Nb118  1  0.11531033  0.55555556  0.03247004  1.0
  Nb  Nb119  1  0.11531033  0.88888889  0.03247004  1.0
  Nb  Nb120  1  0.44864367  0.22222222  0.03247004  1.0
  Nb  Nb121  1  0.44864367  0.55555556  0.03247004  1.0
  Nb  Nb122  1  0.44864367  0.88888889  0.03247004  1.0
  Nb  Nb123  1  0.78197700  0.22222222  0.03247004  1.0
  Nb  Nb124  1  0.78197700  0.55555556  0.03247004  1.0
  Nb  Nb125  1  0.78197700  0.88888889  0.03247004  1.0
  Nb  Nb126  1  0.21802300  0.11111111  0.06950707  1.0
  Nb  Nb127  1  0.21802300  0.44444444  0.06950707  1.0
  Nb  Nb128  1  0.21802300  0.77777778  0.06950707  1.0
  Nb  Nb129  1  0.55135633  0.11111111  0.06950707  1.0
  Nb  Nb130  1  0.55135633  0.44444444  0.06950707  1.0
  Nb  Nb131  1  0.55135633  0.77777778  0.06950707  1.0
  Nb  Nb132  1  0.88468967  0.11111111  0.06950707  1.0
  Nb  Nb133  1  0.88468967  0.44444444  0.06950707  1.0
  Nb  Nb134  1  0.88468967  0.77777778  0.06950707  1.0
  Nb  Nb135  1  0.21802300  0.27777778  0.01395152  1.0
  Nb  Nb136  1  0.21802300  0.61111111  0.01395152  1.0
  Nb  Nb137  1  0.21802300  0.94444444  0.01395152  1.0
  Nb  Nb138  1  0.55135633  0.27777778  0.01395152  1.0
  Nb  Nb139  1  0.55135633  0.61111111  0.01395152  1.0
  Nb  Nb140  1  0.55135633  0.94444444  0.01395152  1.0
  Nb  Nb141  1  0.88468967  0.27777778  0.01395152  1.0
  Nb  Nb142  1  0.88468967  0.61111111  0.01395152  1.0
  Nb  Nb143  1  0.88468967  0.94444444  0.01395152  1.0
  Ni  Ni144  1  0.04136433  0.11111111  0.06950707  1.0
  Ni  Ni145  1  0.04136433  0.44444444  0.06950707  1.0
  Ni  Ni146  1  0.04136433  0.77777778  0.06950707  1.0
  Ni  Ni147  1  0.37469767  0.11111111  0.06950707  1.0
  Ni  Ni148  1  0.37469767  0.44444444  0.06950707  1.0
  Ni  Ni149  1  0.37469767  0.77777778  0.06950707  1.0
  Ni  Ni150  1  0.70803100  0.11111111  0.06950707  1.0
  Ni  Ni151  1  0.70803100  0.44444444  0.06950707  1.0
  Ni  Ni152  1  0.70803100  0.77777778  0.06950707  1.0
  Ni  Ni153  1  0.04136433  0.27777778  0.01395152  1.0
  Ni  Ni154  1  0.04136433  0.61111111  0.01395152  1.0
  Ni  Ni155  1  0.04136433  0.94444444  0.01395152  1.0
  Ni  Ni156  1  0.37469767  0.27777778  0.01395152  1.0
  Ni  Ni157  1  0.37469767  0.61111111  0.01395152  1.0
  Ni  Ni158  1  0.37469767  0.94444444  0.01395152  1.0
  Ni  Ni159  1  0.70803100  0.27777778  0.01395152  1.0
  Ni  Ni160  1  0.70803100  0.61111111  0.01395152  1.0
  Ni  Ni161  1  0.70803100  0.94444444  0.01395152  1.0
  Ni  Ni162  1  0.29196900  0.05555556  0.08802559  1.0
  Ni  Ni163  1  0.29196900  0.38888889  0.08802559  1.0
  Ni  Ni164  1  0.29196900  0.72222222  0.08802559  1.0
  Ni  Ni165  1  0.62530233  0.05555556  0.08802559  1.0
  Ni  Ni166  1  0.62530233  0.38888889  0.08802559  1.0
  Ni  Ni167  1  0.62530233  0.72222222  0.08802559  1.0
  Ni  Ni168  1  0.95863567  0.05555556  0.08802559  1.0
  Ni  Ni169  1  0.95863567  0.38888889  0.08802559  1.0
  Ni  Ni170  1  0.95863567  0.72222222  0.08802559  1.0
  Ni  Ni171  1  0.29196900  0.22222222  0.03247004  1.0
  Ni  Ni172  1  0.29196900  0.55555556  0.03247004  1.0
  Ni  Ni173  1  0.29196900  0.88888889  0.03247004  1.0
  Ni  Ni174  1  0.62530233  0.22222222  0.03247004  1.0
  Ni  Ni175  1  0.62530233  0.55555556  0.03247004  1.0
  Ni  Ni176  1  0.62530233  0.88888889  0.03247004  1.0
  Ni  Ni177  1  0.95863567  0.22222222  0.03247004  1.0
  Ni  Ni178  1  0.95863567  0.55555556  0.03247004  1.0
  Ni  Ni179  1  0.95863567  0.88888889  0.03247004  1.0
  Ni  Ni180  1  0.20803100  0.05555556  0.08802559  1.0
  Ni  Ni181  1  0.20803100  0.38888889  0.08802559  1.0
  Ni  Ni182  1  0.20803100  0.72222222  0.08802559  1.0
  Ni  Ni183  1  0.54136433  0.05555556  0.08802559  1.0
  Ni  Ni184  1  0.54136433  0.38888889  0.08802559  1.0
  Ni  Ni185  1  0.54136433  0.72222222  0.08802559  1.0
  Ni  Ni186  1  0.87469767  0.05555556  0.08802559  1.0
  Ni  Ni187  1  0.87469767  0.38888889  0.08802559  1.0
  Ni  Ni188  1  0.87469767  0.72222222  0.08802559  1.0
  Ni  Ni189  1  0.20803100  0.22222222  0.03247004  1.0
  Ni  Ni190  1  0.20803100  0.55555556  0.03247004  1.0
  Ni  Ni191  1  0.20803100  0.88888889  0.03247004  1.0
  Ni  Ni192  1  0.54136433  0.22222222  0.03247004  1.0
  Ni  Ni193  1  0.54136433  0.55555556  0.03247004  1.0
  Ni  Ni194  1  0.54136433  0.88888889  0.03247004  1.0
  Ni  Ni195  1  0.87469767  0.22222222  0.03247004  1.0
  Ni  Ni196  1  0.87469767  0.55555556  0.03247004  1.0
  Ni  Ni197  1  0.87469767  0.88888889  0.03247004  1.0
  Ni  Ni198  1  0.12530233  0.11111111  0.06950707  1.0
  Ni  Ni199  1  0.12530233  0.44444444  0.06950707  1.0
  Ni  Ni200  1  0.12530233  0.77777778  0.06950707  1.0
  Ni  Ni201  1  0.45863567  0.11111111  0.06950707  1.0
  Ni  Ni202  1  0.45863567  0.44444444  0.06950707  1.0
  Ni  Ni203  1  0.45863567  0.77777778  0.06950707  1.0
  Ni  Ni204  1  0.79196900  0.11111111  0.06950707  1.0
  Ni  Ni205  1  0.79196900  0.44444444  0.06950707  1.0
  Ni  Ni206  1  0.79196900  0.77777778  0.06950707  1.0
  Ni  Ni207  1  0.12530233  0.27777778  0.01395152  1.0
  Ni  Ni208  1  0.12530233  0.61111111  0.01395152  1.0
  Ni  Ni209  1  0.12530233  0.94444444  0.01395152  1.0
  Ni  Ni210  1  0.45863567  0.27777778  0.01395152  1.0
  Ni  Ni211  1  0.45863567  0.61111111  0.01395152  1.0
  Ni  Ni212  1  0.45863567  0.94444444  0.01395152  1.0
  Ni  Ni213  1  0.79196900  0.27777778  0.01395152  1.0
  Ni  Ni214  1  0.79196900  0.61111111  0.01395152  1.0
  Ni  Ni215  1  0.79196900  0.94444444  0.01395152  1.0
  Ni  Ni216  1  0.00000000  0.16666667  0.10654411  1.0
  Ni  Ni217  1  0.00000000  0.50000000  0.10654411  1.0
  Ni  Ni218  1  0.00000000  0.83333333  0.10654411  1.0
  Ni  Ni219  1  0.33333333  0.16666667  0.10654411  1.0
  Ni  Ni220  1  0.33333333  0.50000000  0.10654411  1.0
  Ni  Ni221  1  0.33333333  0.83333333  0.10654411  1.0
  Ni  Ni222  1  0.66666667  0.16666667  0.10654411  1.0
  Ni  Ni223  1  0.66666667  0.50000000  0.10654411  1.0
  Ni  Ni224  1  0.66666667  0.83333333  0.10654411  1.0
  Ni  Ni225  1  0.00000000  0.00000000  0.05098856  1.0
  Ni  Ni226  1  0.00000000  0.33333333  0.05098856  1.0
  Ni  Ni227  1  0.00000000  0.66666667  0.05098856  1.0
  Ni  Ni228  1  0.33333333  0.00000000  0.05098856  1.0
  Ni  Ni229  1  0.33333333  0.33333333  0.05098856  1.0
  Ni  Ni230  1  0.33333333  0.66666667  0.05098856  1.0
  Ni  Ni231  1  0.66666667  0.00000000  0.05098856  1.0
  Ni  Ni232  1  0.66666667  0.33333333  0.05098856  1.0
  Ni  Ni233  1  0.66666667  0.66666667  0.05098856  1.0
  Ni  Ni234  1  0.00000000  0.08333333  0.02321078  1.0
  Ni  Ni235  1  0.00000000  0.41666667  0.02321078  1.0
  Ni  Ni236  1  0.00000000  0.75000000  0.02321078  1.0
  Ni  Ni237  1  0.33333333  0.08333333  0.02321078  1.0
  Ni  Ni238  1  0.33333333  0.41666667  0.02321078  1.0
  Ni  Ni239  1  0.33333333  0.75000000  0.02321078  1.0
  Ni  Ni240  1  0.66666667  0.08333333  0.02321078  1.0
  Ni  Ni241  1  0.66666667  0.41666667  0.02321078  1.0
  Ni  Ni242  1  0.66666667  0.75000000  0.02321078  1.0
  Ni  Ni243  1  0.00000000  0.25000000  0.07876633  1.0
  Ni  Ni244  1  0.00000000  0.58333333  0.07876633  1.0
  Ni  Ni245  1  0.00000000  0.91666667  0.07876633  1.0
  Ni  Ni246  1  0.33333333  0.25000000  0.07876633  1.0
  Ni  Ni247  1  0.33333333  0.58333333  0.07876633  1.0
  Ni  Ni248  1  0.33333333  0.91666667  0.07876633  1.0
  Ni  Ni249  1  0.66666667  0.25000000  0.07876633  1.0
  Ni  Ni250  1  0.66666667  0.58333333  0.07876633  1.0
  Ni  Ni251  1  0.66666667  0.91666667  0.07876633  1.0
  Ni  Ni252  1  0.00000000  0.08333333  0.07876633  1.0
  Ni  Ni253  1  0.00000000  0.41666667  0.07876633  1.0
  Ni  Ni254  1  0.00000000  0.75000000  0.07876633  1.0
  Ni  Ni255  1  0.33333333  0.08333333  0.07876633  1.0
  Ni  Ni256  1  0.33333333  0.41666667  0.07876633  1.0
  Ni  Ni257  1  0.33333333  0.75000000  0.07876633  1.0
  Ni  Ni258  1  0.66666667  0.08333333  0.07876633  1.0
  Ni  Ni259  1  0.66666667  0.41666667  0.07876633  1.0
  Ni  Ni260  1  0.66666667  0.75000000  0.07876633  1.0
  Ni  Ni261  1  0.00000000  0.25000000  0.02321078  1.0
  Ni  Ni262  1  0.00000000  0.58333333  0.02321078  1.0
  Ni  Ni263  1  0.00000000  0.91666667  0.02321078  1.0
  Ni  Ni264  1  0.33333333  0.25000000  0.02321078  1.0
  Ni  Ni265  1  0.33333333  0.58333333  0.02321078  1.0
  Ni  Ni266  1  0.33333333  0.91666667  0.02321078  1.0
  Ni  Ni267  1  0.66666667  0.25000000  0.02321078  1.0
  Ni  Ni268  1  0.66666667  0.58333333  0.02321078  1.0
  Ni  Ni269  1  0.66666667  0.91666667  0.02321078  1.0
  Ni  Ni270  1  0.16666667  0.16666667  0.10654411  1.0
  Ni  Ni271  1  0.16666667  0.50000000  0.10654411  1.0
  Ni  Ni272  1  0.16666667  0.83333333  0.10654411  1.0
  Ni  Ni273  1  0.50000000  0.16666667  0.10654411  1.0
  Ni  Ni274  1  0.50000000  0.50000000  0.10654411  1.0
  Ni  Ni275  1  0.50000000  0.83333333  0.10654411  1.0
  Ni  Ni276  1  0.83333333  0.16666667  0.10654411  1.0
  Ni  Ni277  1  0.83333333  0.50000000  0.10654411  1.0
  Ni  Ni278  1  0.83333333  0.83333333  0.10654411  1.0
  Ni  Ni279  1  0.16666667  0.00000000  0.05098856  1.0
  Ni  Ni280  1  0.16666667  0.33333333  0.05098856  1.0
  Ni  Ni281  1  0.16666667  0.66666667  0.05098856  1.0
  Ni  Ni282  1  0.50000000  0.00000000  0.05098856  1.0
  Ni  Ni283  1  0.50000000  0.33333333  0.05098856  1.0
  Ni  Ni284  1  0.50000000  0.66666667  0.05098856  1.0
  Ni  Ni285  1  0.83333333  0.00000000  0.05098856  1.0
  Ni  Ni286  1  0.83333333  0.33333333  0.05098856  1.0
  Ni  Ni287  1  0.83333333  0.66666667  0.05098856  1.0
  Ni  Ni288  1  0.16666667  0.08333333  0.02321078  1.0
  Ni  Ni289  1  0.16666667  0.41666667  0.02321078  1.0
  Ni  Ni290  1  0.16666667  0.75000000  0.02321078  1.0
  Ni  Ni291  1  0.50000000  0.08333333  0.02321078  1.0
  Ni  Ni292  1  0.50000000  0.41666667  0.02321078  1.0
  Ni  Ni293  1  0.50000000  0.75000000  0.02321078  1.0
  Ni  Ni294  1  0.83333333  0.08333333  0.02321078  1.0
  Ni  Ni295  1  0.83333333  0.41666667  0.02321078  1.0
  Ni  Ni296  1  0.83333333  0.75000000  0.02321078  1.0
  Ni  Ni297  1  0.16666667  0.25000000  0.07876633  1.0
  Ni  Ni298  1  0.16666667  0.58333333  0.07876633  1.0
  Ni  Ni299  1  0.16666667  0.91666667  0.07876633  1.0
  Ni  Ni300  1  0.50000000  0.25000000  0.07876633  1.0
  Ni  Ni301  1  0.50000000  0.58333333  0.07876633  1.0
  Ni  Ni302  1  0.50000000  0.91666667  0.07876633  1.0
  Ni  Ni303  1  0.83333333  0.25000000  0.07876633  1.0
  Ni  Ni304  1  0.83333333  0.58333333  0.07876633  1.0
  Ni  Ni305  1  0.83333333  0.91666667  0.07876633  1.0
  Ni  Ni306  1  0.16666667  0.08333333  0.07876633  1.0
  Ni  Ni307  1  0.16666667  0.41666667  0.07876633  1.0
  Ni  Ni308  1  0.16666667  0.75000000  0.07876633  1.0
  Ni  Ni309  1  0.50000000  0.08333333  0.07876633  1.0
  Ni  Ni310  1  0.50000000  0.41666667  0.07876633  1.0
  Ni  Ni311  1  0.50000000  0.75000000  0.07876633  1.0
  Ni  Ni312  1  0.83333333  0.08333333  0.07876633  1.0
  Ni  Ni313  1  0.83333333  0.41666667  0.07876633  1.0
  Ni  Ni314  1  0.83333333  0.75000000  0.07876633  1.0
  Ni  Ni315  1  0.16666667  0.25000000  0.02321078  1.0
  Ni  Ni316  1  0.16666667  0.58333333  0.02321078  1.0
  Ni  Ni317  1  0.16666667  0.91666667  0.02321078  1.0
  Ni  Ni318  1  0.50000000  0.25000000  0.02321078  1.0
  Ni  Ni319  1  0.50000000  0.58333333  0.02321078  1.0
  Ni  Ni320  1  0.50000000  0.91666667  0.02321078  1.0
  Ni  Ni321  1  0.83333333  0.25000000  0.02321078  1.0
  Ni  Ni322  1  0.83333333  0.58333333  0.02321078  1.0
  Ni  Ni323  1  0.83333333  0.91666667  0.02321078  1.0
  Ni  Ni324  1  0.08333333  0.05480400  0.03196900  1.0
  Ni  Ni325  1  0.08333333  0.38813733  0.03196900  1.0
  Ni  Ni326  1  0.08333333  0.72147067  0.03196900  1.0
  Ni  Ni327  1  0.41666667  0.05480400  0.03196900  1.0
  Ni  Ni328  1  0.41666667  0.38813733  0.03196900  1.0
  Ni  Ni329  1  0.41666667  0.72147067  0.03196900  1.0
  Ni  Ni330  1  0.75000000  0.05480400  0.03196900  1.0
  Ni  Ni331  1  0.75000000  0.38813733  0.03196900  1.0
  Ni  Ni332  1  0.75000000  0.72147067  0.03196900  1.0
  Ni  Ni333  1  0.08333333  0.22147067  0.08752456  1.0
  Ni  Ni334  1  0.08333333  0.55480400  0.08752456  1.0
  Ni  Ni335  1  0.08333333  0.88813733  0.08752456  1.0
  Ni  Ni336  1  0.41666667  0.22147067  0.08752456  1.0
  Ni  Ni337  1  0.41666667  0.55480400  0.08752456  1.0
  Ni  Ni338  1  0.41666667  0.88813733  0.08752456  1.0
  Ni  Ni339  1  0.75000000  0.22147067  0.08752456  1.0
  Ni  Ni340  1  0.75000000  0.55480400  0.08752456  1.0
  Ni  Ni341  1  0.75000000  0.88813733  0.08752456  1.0
  Ni  Ni342  1  0.08333333  0.13926467  0.00531856  1.0
  Ni  Ni343  1  0.08333333  0.47259800  0.00531856  1.0
  Ni  Ni344  1  0.08333333  0.80593133  0.00531856  1.0
  Ni  Ni345  1  0.41666667  0.13926467  0.00531856  1.0
  Ni  Ni346  1  0.41666667  0.47259800  0.00531856  1.0
  Ni  Ni347  1  0.41666667  0.80593133  0.00531856  1.0
  Ni  Ni348  1  0.75000000  0.13926467  0.00531856  1.0
  Ni  Ni349  1  0.75000000  0.47259800  0.00531856  1.0
  Ni  Ni350  1  0.75000000  0.80593133  0.00531856  1.0
  Ni  Ni351  1  0.08333333  0.30593133  0.06087411  1.0
  Ni  Ni352  1  0.08333333  0.63926467  0.06087411  1.0
  Ni  Ni353  1  0.08333333  0.97259800  0.06087411  1.0
  Ni  Ni354  1  0.41666667  0.30593133  0.06087411  1.0
  Ni  Ni355  1  0.41666667  0.63926467  0.06087411  1.0
  Ni  Ni356  1  0.41666667  0.97259800  0.06087411  1.0
  Ni  Ni357  1  0.75000000  0.30593133  0.06087411  1.0
  Ni  Ni358  1  0.75000000  0.63926467  0.06087411  1.0
  Ni  Ni359  1  0.75000000  0.97259800  0.06087411  1.0
  Ni  Ni360  1  0.08333333  0.13926467  0.06012256  1.0
  Ni  Ni361  1  0.08333333  0.47259800  0.06012256  1.0
  Ni  Ni362  1  0.08333333  0.80593133  0.06012256  1.0
  Ni  Ni363  1  0.41666667  0.13926467  0.06012256  1.0
  Ni  Ni364  1  0.41666667  0.47259800  0.06012256  1.0
  Ni  Ni365  1  0.41666667  0.80593133  0.06012256  1.0
  Ni  Ni366  1  0.75000000  0.13926467  0.06012256  1.0
  Ni  Ni367  1  0.75000000  0.47259800  0.06012256  1.0
  Ni  Ni368  1  0.75000000  0.80593133  0.06012256  1.0
  Ni  Ni369  1  0.08333333  0.30593133  0.00456700  1.0
  Ni  Ni370  1  0.08333333  0.63926467  0.00456700  1.0
  Ni  Ni371  1  0.08333333  0.97259800  0.00456700  1.0
  Ni  Ni372  1  0.41666667  0.30593133  0.00456700  1.0
  Ni  Ni373  1  0.41666667  0.63926467  0.00456700  1.0
  Ni  Ni374  1  0.41666667  0.97259800  0.00456700  1.0
  Ni  Ni375  1  0.75000000  0.30593133  0.00456700  1.0
  Ni  Ni376  1  0.75000000  0.63926467  0.00456700  1.0
  Ni  Ni377  1  0.75000000  0.97259800  0.00456700  1.0
  Ni  Ni378  1  0.25000000  0.11186267  0.01445256  1.0
  Ni  Ni379  1  0.25000000  0.44519600  0.01445256  1.0
  Ni  Ni380  1  0.25000000  0.77852933  0.01445256  1.0
  Ni  Ni381  1  0.58333333  0.11186267  0.01445256  1.0
  Ni  Ni382  1  0.58333333  0.44519600  0.01445256  1.0
  Ni  Ni383  1  0.58333333  0.77852933  0.01445256  1.0
  Ni  Ni384  1  0.91666667  0.11186267  0.01445256  1.0
  Ni  Ni385  1  0.91666667  0.44519600  0.01445256  1.0
  Ni  Ni386  1  0.91666667  0.77852933  0.01445256  1.0
  Ni  Ni387  1  0.25000000  0.27852933  0.07000811  1.0
  Ni  Ni388  1  0.25000000  0.61186267  0.07000811  1.0
  Ni  Ni389  1  0.25000000  0.94519600  0.07000811  1.0
  Ni  Ni390  1  0.58333333  0.27852933  0.07000811  1.0
  Ni  Ni391  1  0.58333333  0.61186267  0.07000811  1.0
  Ni  Ni392  1  0.58333333  0.94519600  0.07000811  1.0
  Ni  Ni393  1  0.91666667  0.27852933  0.07000811  1.0
  Ni  Ni394  1  0.91666667  0.61186267  0.07000811  1.0
  Ni  Ni395  1  0.91666667  0.94519600  0.07000811  1.0
  Ni  Ni396  1  0.25000000  0.02740200  0.04110300  1.0
  Ni  Ni397  1  0.25000000  0.36073533  0.04110300  1.0
  Ni  Ni398  1  0.25000000  0.69406867  0.04110300  1.0
  Ni  Ni399  1  0.58333333  0.02740200  0.04110300  1.0
  Ni  Ni400  1  0.58333333  0.36073533  0.04110300  1.0
  Ni  Ni401  1  0.58333333  0.69406867  0.04110300  1.0
  Ni  Ni402  1  0.91666667  0.02740200  0.04110300  1.0
  Ni  Ni403  1  0.91666667  0.36073533  0.04110300  1.0
  Ni  Ni404  1  0.91666667  0.69406867  0.04110300  1.0
  Ni  Ni405  1  0.25000000  0.19406867  0.09665856  1.0
  Ni  Ni406  1  0.25000000  0.52740200  0.09665856  1.0
  Ni  Ni407  1  0.25000000  0.86073533  0.09665856  1.0
  Ni  Ni408  1  0.58333333  0.19406867  0.09665856  1.0
  Ni  Ni409  1  0.58333333  0.52740200  0.09665856  1.0
  Ni  Ni410  1  0.58333333  0.86073533  0.09665856  1.0
  Ni  Ni411  1  0.91666667  0.19406867  0.09665856  1.0
  Ni  Ni412  1  0.91666667  0.52740200  0.09665856  1.0
  Ni  Ni413  1  0.91666667  0.86073533  0.09665856  1.0
  Ni  Ni414  1  0.25000000  0.02740200  0.09741011  1.0
  Ni  Ni415  1  0.25000000  0.36073533  0.09741011  1.0
  Ni  Ni416  1  0.25000000  0.69406867  0.09741011  1.0
  Ni  Ni417  1  0.58333333  0.02740200  0.09741011  1.0
  Ni  Ni418  1  0.58333333  0.36073533  0.09741011  1.0
  Ni  Ni419  1  0.58333333  0.69406867  0.09741011  1.0
  Ni  Ni420  1  0.91666667  0.02740200  0.09741011  1.0
  Ni  Ni421  1  0.91666667  0.36073533  0.09741011  1.0
  Ni  Ni422  1  0.91666667  0.69406867  0.09741011  1.0
  Ni  Ni423  1  0.25000000  0.19406867  0.04185456  1.0
  Ni  Ni424  1  0.25000000  0.52740200  0.04185456  1.0
  Ni  Ni425  1  0.25000000  0.86073533  0.04185456  1.0
  Ni  Ni426  1  0.58333333  0.19406867  0.04185456  1.0
  Ni  Ni427  1  0.58333333  0.52740200  0.04185456  1.0
  Ni  Ni428  1  0.58333333  0.86073533  0.04185456  1.0
  Ni  Ni429  1  0.91666667  0.19406867  0.04185456  1.0
  Ni  Ni430  1  0.91666667  0.52740200  0.04185456  1.0
  Ni  Ni431  1  0.91666667  0.86073533  0.04185456  1.0
  Nb  Nb432  1  0.03250933  0.16666667  0.16209967  1.0
  Nb  Nb433  1  0.03250933  0.50000000  0.16209967  1.0
  Nb  Nb434  1  0.03250933  0.83333333  0.16209967  1.0
  Nb  Nb435  1  0.36584267  0.16666667  0.16209967  1.0
  Nb  Nb436  1  0.36584267  0.50000000  0.16209967  1.0
  Nb  Nb437  1  0.36584267  0.83333333  0.16209967  1.0
  Nb  Nb438  1  0.69917600  0.16666667  0.16209967  1.0
  Nb  Nb439  1  0.69917600  0.50000000  0.16209967  1.0
  Nb  Nb440  1  0.69917600  0.83333333  0.16209967  1.0
  Nb  Nb441  1  0.03250933  0.00000000  0.21765522  1.0
  Nb  Nb442  1  0.03250933  0.33333333  0.21765522  1.0
  Nb  Nb443  1  0.03250933  0.66666667  0.21765522  1.0
  Nb  Nb444  1  0.36584267  0.00000000  0.21765522  1.0
  Nb  Nb445  1  0.36584267  0.33333333  0.21765522  1.0
  Nb  Nb446  1  0.36584267  0.66666667  0.21765522  1.0
  Nb  Nb447  1  0.69917600  0.00000000  0.21765522  1.0
  Nb  Nb448  1  0.69917600  0.33333333  0.21765522  1.0
  Nb  Nb449  1  0.69917600  0.66666667  0.21765522  1.0
  Nb  Nb450  1  0.30082400  0.16666667  0.16209967  1.0
  Nb  Nb451  1  0.30082400  0.50000000  0.16209967  1.0
  Nb  Nb452  1  0.30082400  0.83333333  0.16209967  1.0
  Nb  Nb453  1  0.63415733  0.16666667  0.16209967  1.0
  Nb  Nb454  1  0.63415733  0.50000000  0.16209967  1.0
  Nb  Nb455  1  0.63415733  0.83333333  0.16209967  1.0
  Nb  Nb456  1  0.96749067  0.16666667  0.16209967  1.0
  Nb  Nb457  1  0.96749067  0.50000000  0.16209967  1.0
  Nb  Nb458  1  0.96749067  0.83333333  0.16209967  1.0
  Nb  Nb459  1  0.30082400  0.00000000  0.21765522  1.0
  Nb  Nb460  1  0.30082400  0.33333333  0.21765522  1.0
  Nb  Nb461  1  0.30082400  0.66666667  0.21765522  1.0
  Nb  Nb462  1  0.63415733  0.00000000  0.21765522  1.0
  Nb  Nb463  1  0.63415733  0.33333333  0.21765522  1.0
  Nb  Nb464  1  0.63415733  0.66666667  0.21765522  1.0
  Nb  Nb465  1  0.96749067  0.00000000  0.21765522  1.0
  Nb  Nb466  1  0.96749067  0.33333333  0.21765522  1.0
  Nb  Nb467  1  0.96749067  0.66666667  0.21765522  1.0
  Nb  Nb468  1  0.19917600  0.16666667  0.16209967  1.0
  Nb  Nb469  1  0.19917600  0.50000000  0.16209967  1.0
  Nb  Nb470  1  0.19917600  0.83333333  0.16209967  1.0
  Nb  Nb471  1  0.53250933  0.16666667  0.16209967  1.0
  Nb  Nb472  1  0.53250933  0.50000000  0.16209967  1.0
  Nb  Nb473  1  0.53250933  0.83333333  0.16209967  1.0
  Nb  Nb474  1  0.86584267  0.16666667  0.16209967  1.0
  Nb  Nb475  1  0.86584267  0.50000000  0.16209967  1.0
  Nb  Nb476  1  0.86584267  0.83333333  0.16209967  1.0
  Nb  Nb477  1  0.19917600  0.00000000  0.21765522  1.0
  Nb  Nb478  1  0.19917600  0.33333333  0.21765522  1.0
  Nb  Nb479  1  0.19917600  0.66666667  0.21765522  1.0
  Nb  Nb480  1  0.53250933  0.00000000  0.21765522  1.0
  Nb  Nb481  1  0.53250933  0.33333333  0.21765522  1.0
  Nb  Nb482  1  0.53250933  0.66666667  0.21765522  1.0
  Nb  Nb483  1  0.86584267  0.00000000  0.21765522  1.0
  Nb  Nb484  1  0.86584267  0.33333333  0.21765522  1.0
  Nb  Nb485  1  0.86584267  0.66666667  0.21765522  1.0
  Nb  Nb486  1  0.13415733  0.16666667  0.16209967  1.0
  Nb  Nb487  1  0.13415733  0.50000000  0.16209967  1.0
  Nb  Nb488  1  0.13415733  0.83333333  0.16209967  1.0
  Nb  Nb489  1  0.46749067  0.16666667  0.16209967  1.0
  Nb  Nb490  1  0.46749067  0.50000000  0.16209967  1.0
  Nb  Nb491  1  0.46749067  0.83333333  0.16209967  1.0
  Nb  Nb492  1  0.80082400  0.16666667  0.16209967  1.0
  Nb  Nb493  1  0.80082400  0.50000000  0.16209967  1.0
  Nb  Nb494  1  0.80082400  0.83333333  0.16209967  1.0
  Nb  Nb495  1  0.13415733  0.00000000  0.21765522  1.0
  Nb  Nb496  1  0.13415733  0.33333333  0.21765522  1.0
  Nb  Nb497  1  0.13415733  0.66666667  0.21765522  1.0
  Nb  Nb498  1  0.46749067  0.00000000  0.21765522  1.0
  Nb  Nb499  1  0.46749067  0.33333333  0.21765522  1.0
  Nb  Nb500  1  0.46749067  0.66666667  0.21765522  1.0
  Nb  Nb501  1  0.80082400  0.00000000  0.21765522  1.0
  Nb  Nb502  1  0.80082400  0.33333333  0.21765522  1.0
  Nb  Nb503  1  0.80082400  0.66666667  0.21765522  1.0
  Nb  Nb504  1  0.28197700  0.11111111  0.18061819  1.0
  Nb  Nb505  1  0.28197700  0.44444444  0.18061819  1.0
  Nb  Nb506  1  0.28197700  0.77777778  0.18061819  1.0
  Nb  Nb507  1  0.61531033  0.11111111  0.18061819  1.0
  Nb  Nb508  1  0.61531033  0.44444444  0.18061819  1.0
  Nb  Nb509  1  0.61531033  0.77777778  0.18061819  1.0
  Nb  Nb510  1  0.94864367  0.11111111  0.18061819  1.0
  Nb  Nb511  1  0.94864367  0.44444444  0.18061819  1.0
  Nb  Nb512  1  0.94864367  0.77777778  0.18061819  1.0
  Nb  Nb513  1  0.28197700  0.27777778  0.12506263  1.0
  Nb  Nb514  1  0.28197700  0.61111111  0.12506263  1.0
  Nb  Nb515  1  0.28197700  0.94444444  0.12506263  1.0
  Nb  Nb516  1  0.61531033  0.27777778  0.12506263  1.0
  Nb  Nb517  1  0.61531033  0.61111111  0.12506263  1.0
  Nb  Nb518  1  0.61531033  0.94444444  0.12506263  1.0
  Nb  Nb519  1  0.94864367  0.27777778  0.12506263  1.0
  Nb  Nb520  1  0.94864367  0.61111111  0.12506263  1.0
  Nb  Nb521  1  0.94864367  0.94444444  0.12506263  1.0
  Nb  Nb522  1  0.05135633  0.05555556  0.19913670  1.0
  Nb  Nb523  1  0.05135633  0.38888889  0.19913670  1.0
  Nb  Nb524  1  0.05135633  0.72222222  0.19913670  1.0
  Nb  Nb525  1  0.38468967  0.05555556  0.19913670  1.0
  Nb  Nb526  1  0.38468967  0.38888889  0.19913670  1.0
  Nb  Nb527  1  0.38468967  0.72222222  0.19913670  1.0
  Nb  Nb528  1  0.71802300  0.05555556  0.19913670  1.0
  Nb  Nb529  1  0.71802300  0.38888889  0.19913670  1.0
  Nb  Nb530  1  0.71802300  0.72222222  0.19913670  1.0
  Nb  Nb531  1  0.05135633  0.22222222  0.14358115  1.0
  Nb  Nb532  1  0.05135633  0.55555556  0.14358115  1.0
  Nb  Nb533  1  0.05135633  0.88888889  0.14358115  1.0
  Nb  Nb534  1  0.38468967  0.22222222  0.14358115  1.0
  Nb  Nb535  1  0.38468967  0.55555556  0.14358115  1.0
  Nb  Nb536  1  0.38468967  0.88888889  0.14358115  1.0
  Nb  Nb537  1  0.71802300  0.22222222  0.14358115  1.0
  Nb  Nb538  1  0.71802300  0.55555556  0.14358115  1.0
  Nb  Nb539  1  0.71802300  0.88888889  0.14358115  1.0
  Nb  Nb540  1  0.11531033  0.05555556  0.19913670  1.0
  Nb  Nb541  1  0.11531033  0.38888889  0.19913670  1.0
  Nb  Nb542  1  0.11531033  0.72222222  0.19913670  1.0
  Nb  Nb543  1  0.44864367  0.05555556  0.19913670  1.0
  Nb  Nb544  1  0.44864367  0.38888889  0.19913670  1.0
  Nb  Nb545  1  0.44864367  0.72222222  0.19913670  1.0
  Nb  Nb546  1  0.78197700  0.05555556  0.19913670  1.0
  Nb  Nb547  1  0.78197700  0.38888889  0.19913670  1.0
  Nb  Nb548  1  0.78197700  0.72222222  0.19913670  1.0
  Nb  Nb549  1  0.11531033  0.22222222  0.14358115  1.0
  Nb  Nb550  1  0.11531033  0.55555556  0.14358115  1.0
  Nb  Nb551  1  0.11531033  0.88888889  0.14358115  1.0
  Nb  Nb552  1  0.44864367  0.22222222  0.14358115  1.0
  Nb  Nb553  1  0.44864367  0.55555556  0.14358115  1.0
  Nb  Nb554  1  0.44864367  0.88888889  0.14358115  1.0
  Nb  Nb555  1  0.78197700  0.22222222  0.14358115  1.0
  Nb  Nb556  1  0.78197700  0.55555556  0.14358115  1.0
  Nb  Nb557  1  0.78197700  0.88888889  0.14358115  1.0
  Nb  Nb558  1  0.21802300  0.11111111  0.18061819  1.0
  Nb  Nb559  1  0.21802300  0.44444444  0.18061819  1.0
  Nb  Nb560  1  0.21802300  0.77777778  0.18061819  1.0
  Nb  Nb561  1  0.55135633  0.11111111  0.18061819  1.0
  Nb  Nb562  1  0.55135633  0.44444444  0.18061819  1.0
  Nb  Nb563  1  0.55135633  0.77777778  0.18061819  1.0
  Nb  Nb564  1  0.88468967  0.11111111  0.18061819  1.0
  Nb  Nb565  1  0.88468967  0.44444444  0.18061819  1.0
  Nb  Nb566  1  0.88468967  0.77777778  0.18061819  1.0
  Nb  Nb567  1  0.21802300  0.27777778  0.12506263  1.0
  Nb  Nb568  1  0.21802300  0.61111111  0.12506263  1.0
  Nb  Nb569  1  0.21802300  0.94444444  0.12506263  1.0
  Nb  Nb570  1  0.55135633  0.27777778  0.12506263  1.0
  Nb  Nb571  1  0.55135633  0.61111111  0.12506263  1.0
  Nb  Nb572  1  0.55135633  0.94444444  0.12506263  1.0
  Nb  Nb573  1  0.88468967  0.27777778  0.12506263  1.0
  Nb  Nb574  1  0.88468967  0.61111111  0.12506263  1.0
  Nb  Nb575  1  0.88468967  0.94444444  0.12506263  1.0
  Ni  Ni576  1  0.04136433  0.11111111  0.18061819  1.0
  Ni  Ni577  1  0.04136433  0.44444444  0.18061819  1.0
  Ni  Ni578  1  0.04136433  0.77777778  0.18061819  1.0
  Ni  Ni579  1  0.37469767  0.11111111  0.18061819  1.0
  Ni  Ni580  1  0.37469767  0.44444444  0.18061819  1.0
  Ni  Ni581  1  0.37469767  0.77777778  0.18061819  1.0
  Ni  Ni582  1  0.70803100  0.11111111  0.18061819  1.0
  Ni  Ni583  1  0.70803100  0.44444444  0.18061819  1.0
  Ni  Ni584  1  0.70803100  0.77777778  0.18061819  1.0
  Ni  Ni585  1  0.04136433  0.27777778  0.12506263  1.0
  Ni  Ni586  1  0.04136433  0.61111111  0.12506263  1.0
  Ni  Ni587  1  0.04136433  0.94444444  0.12506263  1.0
  Ni  Ni588  1  0.37469767  0.27777778  0.12506263  1.0
  Ni  Ni589  1  0.37469767  0.61111111  0.12506263  1.0
  Ni  Ni590  1  0.37469767  0.94444444  0.12506263  1.0
  Ni  Ni591  1  0.70803100  0.27777778  0.12506263  1.0
  Ni  Ni592  1  0.70803100  0.61111111  0.12506263  1.0
  Ni  Ni593  1  0.70803100  0.94444444  0.12506263  1.0
  Ni  Ni594  1  0.29196900  0.05555556  0.19913670  1.0
  Ni  Ni595  1  0.29196900  0.38888889  0.19913670  1.0
  Ni  Ni596  1  0.29196900  0.72222222  0.19913670  1.0
  Ni  Ni597  1  0.62530233  0.05555556  0.19913670  1.0
  Ni  Ni598  1  0.62530233  0.38888889  0.19913670  1.0
  Ni  Ni599  1  0.62530233  0.72222222  0.19913670  1.0
  Ni  Ni600  1  0.95863567  0.05555556  0.19913670  1.0
  Ni  Ni601  1  0.95863567  0.38888889  0.19913670  1.0
  Ni  Ni602  1  0.95863567  0.72222222  0.19913670  1.0
  Ni  Ni603  1  0.29196900  0.22222222  0.14358115  1.0
  Ni  Ni604  1  0.29196900  0.55555556  0.14358115  1.0
  Ni  Ni605  1  0.29196900  0.88888889  0.14358115  1.0
  Ni  Ni606  1  0.62530233  0.22222222  0.14358115  1.0
  Ni  Ni607  1  0.62530233  0.55555556  0.14358115  1.0
  Ni  Ni608  1  0.62530233  0.88888889  0.14358115  1.0
  Ni  Ni609  1  0.95863567  0.22222222  0.14358115  1.0
  Ni  Ni610  1  0.95863567  0.55555556  0.14358115  1.0
  Ni  Ni611  1  0.95863567  0.88888889  0.14358115  1.0
  Ni  Ni612  1  0.20803100  0.05555556  0.19913670  1.0
  Ni  Ni613  1  0.20803100  0.38888889  0.19913670  1.0
  Ni  Ni614  1  0.20803100  0.72222222  0.19913670  1.0
  Ni  Ni615  1  0.54136433  0.05555556  0.19913670  1.0
  Ni  Ni616  1  0.54136433  0.38888889  0.19913670  1.0
  Ni  Ni617  1  0.54136433  0.72222222  0.19913670  1.0
  Ni  Ni618  1  0.87469767  0.05555556  0.19913670  1.0
  Ni  Ni619  1  0.87469767  0.38888889  0.19913670  1.0
  Ni  Ni620  1  0.87469767  0.72222222  0.19913670  1.0
  Ni  Ni621  1  0.20803100  0.22222222  0.14358115  1.0
  Ni  Ni622  1  0.20803100  0.55555556  0.14358115  1.0
  Ni  Ni623  1  0.20803100  0.88888889  0.14358115  1.0
  Ni  Ni624  1  0.54136433  0.22222222  0.14358115  1.0
  Ni  Ni625  1  0.54136433  0.55555556  0.14358115  1.0
  Ni  Ni626  1  0.54136433  0.88888889  0.14358115  1.0
  Ni  Ni627  1  0.87469767  0.22222222  0.14358115  1.0
  Ni  Ni628  1  0.87469767  0.55555556  0.14358115  1.0
  Ni  Ni629  1  0.87469767  0.88888889  0.14358115  1.0
  Ni  Ni630  1  0.12530233  0.11111111  0.18061819  1.0
  Ni  Ni631  1  0.12530233  0.44444444  0.18061819  1.0
  Ni  Ni632  1  0.12530233  0.77777778  0.18061819  1.0
  Ni  Ni633  1  0.45863567  0.11111111  0.18061819  1.0
  Ni  Ni634  1  0.45863567  0.44444444  0.18061819  1.0
  Ni  Ni635  1  0.45863567  0.77777778  0.18061819  1.0
  Ni  Ni636  1  0.79196900  0.11111111  0.18061819  1.0
  Ni  Ni637  1  0.79196900  0.44444444  0.18061819  1.0
  Ni  Ni638  1  0.79196900  0.77777778  0.18061819  1.0
  Ni  Ni639  1  0.12530233  0.27777778  0.12506263  1.0
  Ni  Ni640  1  0.12530233  0.61111111  0.12506263  1.0
  Ni  Ni641  1  0.12530233  0.94444444  0.12506263  1.0
  Ni  Ni642  1  0.45863567  0.27777778  0.12506263  1.0
  Ni  Ni643  1  0.45863567  0.61111111  0.12506263  1.0
  Ni  Ni644  1  0.45863567  0.94444444  0.12506263  1.0
  Ni  Ni645  1  0.79196900  0.27777778  0.12506263  1.0
  Ni  Ni646  1  0.79196900  0.61111111  0.12506263  1.0
  Ni  Ni647  1  0.79196900  0.94444444  0.12506263  1.0
  Ni  Ni648  1  0.00000000  0.16666667  0.21765522  1.0
  Ni  Ni649  1  0.00000000  0.50000000  0.21765522  1.0
  Ni  Ni650  1  0.00000000  0.83333333  0.21765522  1.0
  Ni  Ni651  1  0.33333333  0.16666667  0.21765522  1.0
  Ni  Ni652  1  0.33333333  0.50000000  0.21765522  1.0
  Ni  Ni653  1  0.33333333  0.83333333  0.21765522  1.0
  Ni  Ni654  1  0.66666667  0.16666667  0.21765522  1.0
  Ni  Ni655  1  0.66666667  0.50000000  0.21765522  1.0
  Ni  Ni656  1  0.66666667  0.83333333  0.21765522  1.0
  Ni  Ni657  1  0.00000000  0.00000000  0.16209967  1.0
  Ni  Ni658  1  0.00000000  0.33333333  0.16209967  1.0
  Ni  Ni659  1  0.00000000  0.66666667  0.16209967  1.0
  Ni  Ni660  1  0.33333333  0.00000000  0.16209967  1.0
  Ni  Ni661  1  0.33333333  0.33333333  0.16209967  1.0
  Ni  Ni662  1  0.33333333  0.66666667  0.16209967  1.0
  Ni  Ni663  1  0.66666667  0.00000000  0.16209967  1.0
  Ni  Ni664  1  0.66666667  0.33333333  0.16209967  1.0
  Ni  Ni665  1  0.66666667  0.66666667  0.16209967  1.0
  Ni  Ni666  1  0.00000000  0.08333333  0.13432189  1.0
  Ni  Ni667  1  0.00000000  0.41666667  0.13432189  1.0
  Ni  Ni668  1  0.00000000  0.75000000  0.13432189  1.0
  Ni  Ni669  1  0.33333333  0.08333333  0.13432189  1.0
  Ni  Ni670  1  0.33333333  0.41666667  0.13432189  1.0
  Ni  Ni671  1  0.33333333  0.75000000  0.13432189  1.0
  Ni  Ni672  1  0.66666667  0.08333333  0.13432189  1.0
  Ni  Ni673  1  0.66666667  0.41666667  0.13432189  1.0
  Ni  Ni674  1  0.66666667  0.75000000  0.13432189  1.0
  Ni  Ni675  1  0.00000000  0.25000000  0.18987744  1.0
  Ni  Ni676  1  0.00000000  0.58333333  0.18987744  1.0
  Ni  Ni677  1  0.00000000  0.91666667  0.18987744  1.0
  Ni  Ni678  1  0.33333333  0.25000000  0.18987744  1.0
  Ni  Ni679  1  0.33333333  0.58333333  0.18987744  1.0
  Ni  Ni680  1  0.33333333  0.91666667  0.18987744  1.0
  Ni  Ni681  1  0.66666667  0.25000000  0.18987744  1.0
  Ni  Ni682  1  0.66666667  0.58333333  0.18987744  1.0
  Ni  Ni683  1  0.66666667  0.91666667  0.18987744  1.0
  Ni  Ni684  1  0.00000000  0.08333333  0.18987744  1.0
  Ni  Ni685  1  0.00000000  0.41666667  0.18987744  1.0
  Ni  Ni686  1  0.00000000  0.75000000  0.18987744  1.0
  Ni  Ni687  1  0.33333333  0.08333333  0.18987744  1.0
  Ni  Ni688  1  0.33333333  0.41666667  0.18987744  1.0
  Ni  Ni689  1  0.33333333  0.75000000  0.18987744  1.0
  Ni  Ni690  1  0.66666667  0.08333333  0.18987744  1.0
  Ni  Ni691  1  0.66666667  0.41666667  0.18987744  1.0
  Ni  Ni692  1  0.66666667  0.75000000  0.18987744  1.0
  Ni  Ni693  1  0.00000000  0.25000000  0.13432189  1.0
  Ni  Ni694  1  0.00000000  0.58333333  0.13432189  1.0
  Ni  Ni695  1  0.00000000  0.91666667  0.13432189  1.0
  Ni  Ni696  1  0.33333333  0.25000000  0.13432189  1.0
  Ni  Ni697  1  0.33333333  0.58333333  0.13432189  1.0
  Ni  Ni698  1  0.33333333  0.91666667  0.13432189  1.0
  Ni  Ni699  1  0.66666667  0.25000000  0.13432189  1.0
  Ni  Ni700  1  0.66666667  0.58333333  0.13432189  1.0
  Ni  Ni701  1  0.66666667  0.91666667  0.13432189  1.0
  Ni  Ni702  1  0.16666667  0.16666667  0.21765522  1.0
  Ni  Ni703  1  0.16666667  0.50000000  0.21765522  1.0
  Ni  Ni704  1  0.16666667  0.83333333  0.21765522  1.0
  Ni  Ni705  1  0.50000000  0.16666667  0.21765522  1.0
  Ni  Ni706  1  0.50000000  0.50000000  0.21765522  1.0
  Ni  Ni707  1  0.50000000  0.83333333  0.21765522  1.0
  Ni  Ni708  1  0.83333333  0.16666667  0.21765522  1.0
  Ni  Ni709  1  0.83333333  0.50000000  0.21765522  1.0
  Ni  Ni710  1  0.83333333  0.83333333  0.21765522  1.0
  Ni  Ni711  1  0.16666667  0.00000000  0.16209967  1.0
  Ni  Ni712  1  0.16666667  0.33333333  0.16209967  1.0
  Ni  Ni713  1  0.16666667  0.66666667  0.16209967  1.0
  Ni  Ni714  1  0.50000000  0.00000000  0.16209967  1.0
  Ni  Ni715  1  0.50000000  0.33333333  0.16209967  1.0
  Ni  Ni716  1  0.50000000  0.66666667  0.16209967  1.0
  Ni  Ni717  1  0.83333333  0.00000000  0.16209967  1.0
  Ni  Ni718  1  0.83333333  0.33333333  0.16209967  1.0
  Ni  Ni719  1  0.83333333  0.66666667  0.16209967  1.0
  Ni  Ni720  1  0.16666667  0.08333333  0.13432189  1.0
  Ni  Ni721  1  0.16666667  0.41666667  0.13432189  1.0
  Ni  Ni722  1  0.16666667  0.75000000  0.13432189  1.0
  Ni  Ni723  1  0.50000000  0.08333333  0.13432189  1.0
  Ni  Ni724  1  0.50000000  0.41666667  0.13432189  1.0
  Ni  Ni725  1  0.50000000  0.75000000  0.13432189  1.0
  Ni  Ni726  1  0.83333333  0.08333333  0.13432189  1.0
  Ni  Ni727  1  0.83333333  0.41666667  0.13432189  1.0
  Ni  Ni728  1  0.83333333  0.75000000  0.13432189  1.0
  Ni  Ni729  1  0.16666667  0.25000000  0.18987744  1.0
  Ni  Ni730  1  0.16666667  0.58333333  0.18987744  1.0
  Ni  Ni731  1  0.16666667  0.91666667  0.18987744  1.0
  Ni  Ni732  1  0.50000000  0.25000000  0.18987744  1.0
  Ni  Ni733  1  0.50000000  0.58333333  0.18987744  1.0
  Ni  Ni734  1  0.50000000  0.91666667  0.18987744  1.0
  Ni  Ni735  1  0.83333333  0.25000000  0.18987744  1.0
  Ni  Ni736  1  0.83333333  0.58333333  0.18987744  1.0
  Ni  Ni737  1  0.83333333  0.91666667  0.18987744  1.0
  Ni  Ni738  1  0.16666667  0.08333333  0.18987744  1.0
  Ni  Ni739  1  0.16666667  0.41666667  0.18987744  1.0
  Ni  Ni740  1  0.16666667  0.75000000  0.18987744  1.0
  Ni  Ni741  1  0.50000000  0.08333333  0.18987744  1.0
  Ni  Ni742  1  0.50000000  0.41666667  0.18987744  1.0
  Ni  Ni743  1  0.50000000  0.75000000  0.18987744  1.0
  Ni  Ni744  1  0.83333333  0.08333333  0.18987744  1.0
  Ni  Ni745  1  0.83333333  0.41666667  0.18987744  1.0
  Ni  Ni746  1  0.83333333  0.75000000  0.18987744  1.0
  Ni  Ni747  1  0.16666667  0.25000000  0.13432189  1.0
  Ni  Ni748  1  0.16666667  0.58333333  0.13432189  1.0
  Ni  Ni749  1  0.16666667  0.91666667  0.13432189  1.0
  Ni  Ni750  1  0.50000000  0.25000000  0.13432189  1.0
  Ni  Ni751  1  0.50000000  0.58333333  0.13432189  1.0
  Ni  Ni752  1  0.50000000  0.91666667  0.13432189  1.0
  Ni  Ni753  1  0.83333333  0.25000000  0.13432189  1.0
  Ni  Ni754  1  0.83333333  0.58333333  0.13432189  1.0
  Ni  Ni755  1  0.83333333  0.91666667  0.13432189  1.0
  Ni  Ni756  1  0.08333333  0.05480400  0.14308011  1.0
  Ni  Ni757  1  0.08333333  0.38813733  0.14308011  1.0
  Ni  Ni758  1  0.08333333  0.72147067  0.14308011  1.0
  Ni  Ni759  1  0.41666667  0.05480400  0.14308011  1.0
  Ni  Ni760  1  0.41666667  0.38813733  0.14308011  1.0
  Ni  Ni761  1  0.41666667  0.72147067  0.14308011  1.0
  Ni  Ni762  1  0.75000000  0.05480400  0.14308011  1.0
  Ni  Ni763  1  0.75000000  0.38813733  0.14308011  1.0
  Ni  Ni764  1  0.75000000  0.72147067  0.14308011  1.0
  Ni  Ni765  1  0.08333333  0.22147067  0.19863567  1.0
  Ni  Ni766  1  0.08333333  0.55480400  0.19863567  1.0
  Ni  Ni767  1  0.08333333  0.88813733  0.19863567  1.0
  Ni  Ni768  1  0.41666667  0.22147067  0.19863567  1.0
  Ni  Ni769  1  0.41666667  0.55480400  0.19863567  1.0
  Ni  Ni770  1  0.41666667  0.88813733  0.19863567  1.0
  Ni  Ni771  1  0.75000000  0.22147067  0.19863567  1.0
  Ni  Ni772  1  0.75000000  0.55480400  0.19863567  1.0
  Ni  Ni773  1  0.75000000  0.88813733  0.19863567  1.0
  Ni  Ni774  1  0.08333333  0.13926467  0.11642967  1.0
  Ni  Ni775  1  0.08333333  0.47259800  0.11642967  1.0
  Ni  Ni776  1  0.08333333  0.80593133  0.11642967  1.0
  Ni  Ni777  1  0.41666667  0.13926467  0.11642967  1.0
  Ni  Ni778  1  0.41666667  0.47259800  0.11642967  1.0
  Ni  Ni779  1  0.41666667  0.80593133  0.11642967  1.0
  Ni  Ni780  1  0.75000000  0.13926467  0.11642967  1.0
  Ni  Ni781  1  0.75000000  0.47259800  0.11642967  1.0
  Ni  Ni782  1  0.75000000  0.80593133  0.11642967  1.0
  Ni  Ni783  1  0.08333333  0.30593133  0.17198522  1.0
  Ni  Ni784  1  0.08333333  0.63926467  0.17198522  1.0
  Ni  Ni785  1  0.08333333  0.97259800  0.17198522  1.0
  Ni  Ni786  1  0.41666667  0.30593133  0.17198522  1.0
  Ni  Ni787  1  0.41666667  0.63926467  0.17198522  1.0
  Ni  Ni788  1  0.41666667  0.97259800  0.17198522  1.0
  Ni  Ni789  1  0.75000000  0.30593133  0.17198522  1.0
  Ni  Ni790  1  0.75000000  0.63926467  0.17198522  1.0
  Ni  Ni791  1  0.75000000  0.97259800  0.17198522  1.0
  Ni  Ni792  1  0.08333333  0.13926467  0.17123367  1.0
  Ni  Ni793  1  0.08333333  0.47259800  0.17123367  1.0
  Ni  Ni794  1  0.08333333  0.80593133  0.17123367  1.0
  Ni  Ni795  1  0.41666667  0.13926467  0.17123367  1.0
  Ni  Ni796  1  0.41666667  0.47259800  0.17123367  1.0
  Ni  Ni797  1  0.41666667  0.80593133  0.17123367  1.0
  Ni  Ni798  1  0.75000000  0.13926467  0.17123367  1.0
  Ni  Ni799  1  0.75000000  0.47259800  0.17123367  1.0
  Ni  Ni800  1  0.75000000  0.80593133  0.17123367  1.0
  Ni  Ni801  1  0.08333333  0.30593133  0.11567811  1.0
  Ni  Ni802  1  0.08333333  0.63926467  0.11567811  1.0
  Ni  Ni803  1  0.08333333  0.97259800  0.11567811  1.0
  Ni  Ni804  1  0.41666667  0.30593133  0.11567811  1.0
  Ni  Ni805  1  0.41666667  0.63926467  0.11567811  1.0
  Ni  Ni806  1  0.41666667  0.97259800  0.11567811  1.0
  Ni  Ni807  1  0.75000000  0.30593133  0.11567811  1.0
  Ni  Ni808  1  0.75000000  0.63926467  0.11567811  1.0
  Ni  Ni809  1  0.75000000  0.97259800  0.11567811  1.0
  Ni  Ni810  1  0.25000000  0.11186267  0.12556367  1.0
  Ni  Ni811  1  0.25000000  0.44519600  0.12556367  1.0
  Ni  Ni812  1  0.25000000  0.77852933  0.12556367  1.0
  Ni  Ni813  1  0.58333333  0.11186267  0.12556367  1.0
  Ni  Ni814  1  0.58333333  0.44519600  0.12556367  1.0
  Ni  Ni815  1  0.58333333  0.77852933  0.12556367  1.0
  Ni  Ni816  1  0.91666667  0.11186267  0.12556367  1.0
  Ni  Ni817  1  0.91666667  0.44519600  0.12556367  1.0
  Ni  Ni818  1  0.91666667  0.77852933  0.12556367  1.0
  Ni  Ni819  1  0.25000000  0.27852933  0.18111922  1.0
  Ni  Ni820  1  0.25000000  0.61186267  0.18111922  1.0
  Ni  Ni821  1  0.25000000  0.94519600  0.18111922  1.0
  Ni  Ni822  1  0.58333333  0.27852933  0.18111922  1.0
  Ni  Ni823  1  0.58333333  0.61186267  0.18111922  1.0
  Ni  Ni824  1  0.58333333  0.94519600  0.18111922  1.0
  Ni  Ni825  1  0.91666667  0.27852933  0.18111922  1.0
  Ni  Ni826  1  0.91666667  0.61186267  0.18111922  1.0
  Ni  Ni827  1  0.91666667  0.94519600  0.18111922  1.0
  Ni  Ni828  1  0.25000000  0.02740200  0.15221411  1.0
  Ni  Ni829  1  0.25000000  0.36073533  0.15221411  1.0
  Ni  Ni830  1  0.25000000  0.69406867  0.15221411  1.0
  Ni  Ni831  1  0.58333333  0.02740200  0.15221411  1.0
  Ni  Ni832  1  0.58333333  0.36073533  0.15221411  1.0
  Ni  Ni833  1  0.58333333  0.69406867  0.15221411  1.0
  Ni  Ni834  1  0.91666667  0.02740200  0.15221411  1.0
  Ni  Ni835  1  0.91666667  0.36073533  0.15221411  1.0
  Ni  Ni836  1  0.91666667  0.69406867  0.15221411  1.0
  Ni  Ni837  1  0.25000000  0.19406867  0.20776967  1.0
  Ni  Ni838  1  0.25000000  0.52740200  0.20776967  1.0
  Ni  Ni839  1  0.25000000  0.86073533  0.20776967  1.0
  Ni  Ni840  1  0.58333333  0.19406867  0.20776967  1.0
  Ni  Ni841  1  0.58333333  0.52740200  0.20776967  1.0
  Ni  Ni842  1  0.58333333  0.86073533  0.20776967  1.0
  Ni  Ni843  1  0.91666667  0.19406867  0.20776967  1.0
  Ni  Ni844  1  0.91666667  0.52740200  0.20776967  1.0
  Ni  Ni845  1  0.91666667  0.86073533  0.20776967  1.0
  Ni  Ni846  1  0.25000000  0.02740200  0.20852122  1.0
  Ni  Ni847  1  0.25000000  0.36073533  0.20852122  1.0
  Ni  Ni848  1  0.25000000  0.69406867  0.20852122  1.0
  Ni  Ni849  1  0.58333333  0.02740200  0.20852122  1.0
  Ni  Ni850  1  0.58333333  0.36073533  0.20852122  1.0
  Ni  Ni851  1  0.58333333  0.69406867  0.20852122  1.0
  Ni  Ni852  1  0.91666667  0.02740200  0.20852122  1.0
  Ni  Ni853  1  0.91666667  0.36073533  0.20852122  1.0
  Ni  Ni854  1  0.91666667  0.69406867  0.20852122  1.0
  Ni  Ni855  1  0.25000000  0.19406867  0.15296567  1.0
  Ni  Ni856  1  0.25000000  0.52740200  0.15296567  1.0
  Ni  Ni857  1  0.25000000  0.86073533  0.15296567  1.0
  Ni  Ni858  1  0.58333333  0.19406867  0.15296567  1.0
  Ni  Ni859  1  0.58333333  0.52740200  0.15296567  1.0
  Ni  Ni860  1  0.58333333  0.86073533  0.15296567  1.0
  Ni  Ni861  1  0.91666667  0.19406867  0.15296567  1.0
  Ni  Ni862  1  0.91666667  0.52740200  0.15296567  1.0
  Ni  Ni863  1  0.91666667  0.86073533  0.15296567  1.0
  Nb  Nb864  1  0.03250933  0.16666667  0.27321078  1.0
  Nb  Nb865  1  0.03250933  0.50000000  0.27321078  1.0
  Nb  Nb866  1  0.03250933  0.83333333  0.27321078  1.0
  Nb  Nb867  1  0.36584267  0.16666667  0.27321078  1.0
  Nb  Nb868  1  0.36584267  0.50000000  0.27321078  1.0
  Nb  Nb869  1  0.36584267  0.83333333  0.27321078  1.0
  Nb  Nb870  1  0.69917600  0.16666667  0.27321078  1.0
  Nb  Nb871  1  0.69917600  0.50000000  0.27321078  1.0
  Nb  Nb872  1  0.69917600  0.83333333  0.27321078  1.0
  Nb  Nb873  1  0.03250933  0.00000000  0.32876633  1.0
  Nb  Nb874  1  0.03250933  0.33333333  0.32876633  1.0
  Nb  Nb875  1  0.03250933  0.66666667  0.32876633  1.0
  Nb  Nb876  1  0.36584267  0.00000000  0.32876633  1.0
  Nb  Nb877  1  0.36584267  0.33333333  0.32876633  1.0
  Nb  Nb878  1  0.36584267  0.66666667  0.32876633  1.0
  Nb  Nb879  1  0.69917600  0.00000000  0.32876633  1.0
  Nb  Nb880  1  0.69917600  0.33333333  0.32876633  1.0
  Nb  Nb881  1  0.69917600  0.66666667  0.32876633  1.0
  Nb  Nb882  1  0.30082400  0.16666667  0.27321078  1.0
  Nb  Nb883  1  0.30082400  0.50000000  0.27321078  1.0
  Nb  Nb884  1  0.30082400  0.83333333  0.27321078  1.0
  Nb  Nb885  1  0.63415733  0.16666667  0.27321078  1.0
  Nb  Nb886  1  0.63415733  0.50000000  0.27321078  1.0
  Nb  Nb887  1  0.63415733  0.83333333  0.27321078  1.0
  Nb  Nb888  1  0.96749067  0.16666667  0.27321078  1.0
  Nb  Nb889  1  0.96749067  0.50000000  0.27321078  1.0
  Nb  Nb890  1  0.96749067  0.83333333  0.27321078  1.0
  Nb  Nb891  1  0.30082400  0.00000000  0.32876633  1.0
  Nb  Nb892  1  0.30082400  0.33333333  0.32876633  1.0
  Nb  Nb893  1  0.30082400  0.66666667  0.32876633  1.0
  Nb  Nb894  1  0.63415733  0.00000000  0.32876633  1.0
  Nb  Nb895  1  0.63415733  0.33333333  0.32876633  1.0
  Nb  Nb896  1  0.63415733  0.66666667  0.32876633  1.0
  Nb  Nb897  1  0.96749067  0.00000000  0.32876633  1.0
  Nb  Nb898  1  0.96749067  0.33333333  0.32876633  1.0
  Nb  Nb899  1  0.96749067  0.66666667  0.32876633  1.0
  Nb  Nb900  1  0.19917600  0.16666667  0.27321078  1.0
  Nb  Nb901  1  0.19917600  0.50000000  0.27321078  1.0
  Nb  Nb902  1  0.19917600  0.83333333  0.27321078  1.0
  Nb  Nb903  1  0.53250933  0.16666667  0.27321078  1.0
  Nb  Nb904  1  0.53250933  0.50000000  0.27321078  1.0
  Nb  Nb905  1  0.53250933  0.83333333  0.27321078  1.0
  Nb  Nb906  1  0.86584267  0.16666667  0.27321078  1.0
  Nb  Nb907  1  0.86584267  0.50000000  0.27321078  1.0
  Nb  Nb908  1  0.86584267  0.83333333  0.27321078  1.0
  Nb  Nb909  1  0.19917600  0.00000000  0.32876633  1.0
  Nb  Nb910  1  0.19917600  0.33333333  0.32876633  1.0
  Nb  Nb911  1  0.19917600  0.66666667  0.32876633  1.0
  Nb  Nb912  1  0.53250933  0.00000000  0.32876633  1.0
  Nb  Nb913  1  0.53250933  0.33333333  0.32876633  1.0
  Nb  Nb914  1  0.53250933  0.66666667  0.32876633  1.0
  Nb  Nb915  1  0.86584267  0.00000000  0.32876633  1.0
  Nb  Nb916  1  0.86584267  0.33333333  0.32876633  1.0
  Nb  Nb917  1  0.86584267  0.66666667  0.32876633  1.0
  Nb  Nb918  1  0.13415733  0.16666667  0.27321078  1.0
  Nb  Nb919  1  0.13415733  0.50000000  0.27321078  1.0
  Nb  Nb920  1  0.13415733  0.83333333  0.27321078  1.0
  Nb  Nb921  1  0.46749067  0.16666667  0.27321078  1.0
  Nb  Nb922  1  0.46749067  0.50000000  0.27321078  1.0
  Nb  Nb923  1  0.46749067  0.83333333  0.27321078  1.0
  Nb  Nb924  1  0.80082400  0.16666667  0.27321078  1.0
  Nb  Nb925  1  0.80082400  0.50000000  0.27321078  1.0
  Nb  Nb926  1  0.80082400  0.83333333  0.27321078  1.0
  Nb  Nb927  1  0.13415733  0.00000000  0.32876633  1.0
  Nb  Nb928  1  0.13415733  0.33333333  0.32876633  1.0
  Nb  Nb929  1  0.13415733  0.66666667  0.32876633  1.0
  Nb  Nb930  1  0.46749067  0.00000000  0.32876633  1.0
  Nb  Nb931  1  0.46749067  0.33333333  0.32876633  1.0
  Nb  Nb932  1  0.46749067  0.66666667  0.32876633  1.0
  Nb  Nb933  1  0.80082400  0.00000000  0.32876633  1.0
  Nb  Nb934  1  0.80082400  0.33333333  0.32876633  1.0
  Nb  Nb935  1  0.80082400  0.66666667  0.32876633  1.0
  Nb  Nb936  1  0.28197700  0.11111111  0.29172930  1.0
  Nb  Nb937  1  0.28197700  0.44444444  0.29172930  1.0
  Nb  Nb938  1  0.28197700  0.77777778  0.29172930  1.0
  Nb  Nb939  1  0.61531033  0.11111111  0.29172930  1.0
  Nb  Nb940  1  0.61531033  0.44444444  0.29172930  1.0
  Nb  Nb941  1  0.61531033  0.77777778  0.29172930  1.0
  Nb  Nb942  1  0.94864367  0.11111111  0.29172930  1.0
  Nb  Nb943  1  0.94864367  0.44444444  0.29172930  1.0
  Nb  Nb944  1  0.94864367  0.77777778  0.29172930  1.0
  Nb  Nb945  1  0.28197700  0.27777778  0.23617374  1.0
  Nb  Nb946  1  0.28197700  0.61111111  0.23617374  1.0
  Nb  Nb947  1  0.28197700  0.94444444  0.23617374  1.0
  Nb  Nb948  1  0.61531033  0.27777778  0.23617374  1.0
  Nb  Nb949  1  0.61531033  0.61111111  0.23617374  1.0
  Nb  Nb950  1  0.61531033  0.94444444  0.23617374  1.0
  Nb  Nb951  1  0.94864367  0.27777778  0.23617374  1.0
  Nb  Nb952  1  0.94864367  0.61111111  0.23617374  1.0
  Nb  Nb953  1  0.94864367  0.94444444  0.23617374  1.0
  Nb  Nb954  1  0.05135633  0.05555556  0.31024781  1.0
  Nb  Nb955  1  0.05135633  0.38888889  0.31024781  1.0
  Nb  Nb956  1  0.05135633  0.72222222  0.31024781  1.0
  Nb  Nb957  1  0.38468967  0.05555556  0.31024781  1.0
  Nb  Nb958  1  0.38468967  0.38888889  0.31024781  1.0
  Nb  Nb959  1  0.38468967  0.72222222  0.31024781  1.0
  Nb  Nb960  1  0.71802300  0.05555556  0.31024781  1.0
  Nb  Nb961  1  0.71802300  0.38888889  0.31024781  1.0
  Nb  Nb962  1  0.71802300  0.72222222  0.31024781  1.0
  Nb  Nb963  1  0.05135633  0.22222222  0.25469226  1.0
  Nb  Nb964  1  0.05135633  0.55555556  0.25469226  1.0
  Nb  Nb965  1  0.05135633  0.88888889  0.25469226  1.0
  Nb  Nb966  1  0.38468967  0.22222222  0.25469226  1.0
  Nb  Nb967  1  0.38468967  0.55555556  0.25469226  1.0
  Nb  Nb968  1  0.38468967  0.88888889  0.25469226  1.0
  Nb  Nb969  1  0.71802300  0.22222222  0.25469226  1.0
  Nb  Nb970  1  0.71802300  0.55555556  0.25469226  1.0
  Nb  Nb971  1  0.71802300  0.88888889  0.25469226  1.0
  Nb  Nb972  1  0.11531033  0.05555556  0.31024781  1.0
  Nb  Nb973  1  0.11531033  0.38888889  0.31024781  1.0
  Nb  Nb974  1  0.11531033  0.72222222  0.31024781  1.0
  Nb  Nb975  1  0.44864367  0.05555556  0.31024781  1.0
  Nb  Nb976  1  0.44864367  0.38888889  0.31024781  1.0
  Nb  Nb977  1  0.44864367  0.72222222  0.31024781  1.0
  Nb  Nb978  1  0.78197700  0.05555556  0.31024781  1.0
  Nb  Nb979  1  0.78197700  0.38888889  0.31024781  1.0
  Nb  Nb980  1  0.78197700  0.72222222  0.31024781  1.0
  Nb  Nb981  1  0.11531033  0.22222222  0.25469226  1.0
  Nb  Nb982  1  0.11531033  0.55555556  0.25469226  1.0
  Nb  Nb983  1  0.11531033  0.88888889  0.25469226  1.0
  Nb  Nb984  1  0.44864367  0.22222222  0.25469226  1.0
  Nb  Nb985  1  0.44864367  0.55555556  0.25469226  1.0
  Nb  Nb986  1  0.44864367  0.88888889  0.25469226  1.0
  Nb  Nb987  1  0.78197700  0.22222222  0.25469226  1.0
  Nb  Nb988  1  0.78197700  0.55555556  0.25469226  1.0
  Nb  Nb989  1  0.78197700  0.88888889  0.25469226  1.0
  Nb  Nb990  1  0.21802300  0.11111111  0.29172930  1.0
  Nb  Nb991  1  0.21802300  0.44444444  0.29172930  1.0
  Nb  Nb992  1  0.21802300  0.77777778  0.29172930  1.0
  Nb  Nb993  1  0.55135633  0.11111111  0.29172930  1.0
  Nb  Nb994  1  0.55135633  0.44444444  0.29172930  1.0
  Nb  Nb995  1  0.55135633  0.77777778  0.29172930  1.0
  Nb  Nb996  1  0.88468967  0.11111111  0.29172930  1.0
  Nb  Nb997  1  0.88468967  0.44444444  0.29172930  1.0
  Nb  Nb998  1  0.88468967  0.77777778  0.29172930  1.0
  Nb  Nb999  1  0.21802300  0.27777778  0.23617374  1.0
  Nb  Nb1000  1  0.21802300  0.61111111  0.23617374  1.0
  Nb  Nb1001  1  0.21802300  0.94444444  0.23617374  1.0
  Nb  Nb1002  1  0.55135633  0.27777778  0.23617374  1.0
  Nb  Nb1003  1  0.55135633  0.61111111  0.23617374  1.0
  Nb  Nb1004  1  0.55135633  0.94444444  0.23617374  1.0
  Nb  Nb1005  1  0.88468967  0.27777778  0.23617374  1.0
  Nb  Nb1006  1  0.88468967  0.61111111  0.23617374  1.0
  Nb  Nb1007  1  0.88468967  0.94444444  0.23617374  1.0
  Ni  Ni1008  1  0.04136433  0.11111111  0.29172930  1.0
  Ni  Ni1009  1  0.04136433  0.44444444  0.29172930  1.0
  Ni  Ni1010  1  0.04136433  0.77777778  0.29172930  1.0
  Ni  Ni1011  1  0.37469767  0.11111111  0.29172930  1.0
  Ni  Ni1012  1  0.37469767  0.44444444  0.29172930  1.0
  Ni  Ni1013  1  0.37469767  0.77777778  0.29172930  1.0
  Ni  Ni1014  1  0.70803100  0.11111111  0.29172930  1.0
  Ni  Ni1015  1  0.70803100  0.44444444  0.29172930  1.0
  Ni  Ni1016  1  0.70803100  0.77777778  0.29172930  1.0
  Ni  Ni1017  1  0.04136433  0.27777778  0.23617374  1.0
  Ni  Ni1018  1  0.04136433  0.61111111  0.23617374  1.0
  Ni  Ni1019  1  0.04136433  0.94444444  0.23617374  1.0
  Ni  Ni1020  1  0.37469767  0.27777778  0.23617374  1.0
  Ni  Ni1021  1  0.37469767  0.61111111  0.23617374  1.0
  Ni  Ni1022  1  0.37469767  0.94444444  0.23617374  1.0
  Ni  Ni1023  1  0.70803100  0.27777778  0.23617374  1.0
  Ni  Ni1024  1  0.70803100  0.61111111  0.23617374  1.0
  Ni  Ni1025  1  0.70803100  0.94444444  0.23617374  1.0
  Ni  Ni1026  1  0.29196900  0.05555556  0.31024781  1.0
  Ni  Ni1027  1  0.29196900  0.38888889  0.31024781  1.0
  Ni  Ni1028  1  0.29196900  0.72222222  0.31024781  1.0
  Ni  Ni1029  1  0.62530233  0.05555556  0.31024781  1.0
  Ni  Ni1030  1  0.62530233  0.38888889  0.31024781  1.0
  Ni  Ni1031  1  0.62530233  0.72222222  0.31024781  1.0
  Ni  Ni1032  1  0.95863567  0.05555556  0.31024781  1.0
  Ni  Ni1033  1  0.95863567  0.38888889  0.31024781  1.0
  Ni  Ni1034  1  0.95863567  0.72222222  0.31024781  1.0
  Ni  Ni1035  1  0.29196900  0.22222222  0.25469226  1.0
  Ni  Ni1036  1  0.29196900  0.55555556  0.25469226  1.0
  Ni  Ni1037  1  0.29196900  0.88888889  0.25469226  1.0
  Ni  Ni1038  1  0.62530233  0.22222222  0.25469226  1.0
  Ni  Ni1039  1  0.62530233  0.55555556  0.25469226  1.0
  Ni  Ni1040  1  0.62530233  0.88888889  0.25469226  1.0
  Ni  Ni1041  1  0.95863567  0.22222222  0.25469226  1.0
  Ni  Ni1042  1  0.95863567  0.55555556  0.25469226  1.0
  Ni  Ni1043  1  0.95863567  0.88888889  0.25469226  1.0
  Ni  Ni1044  1  0.20803100  0.05555556  0.31024781  1.0
  Ni  Ni1045  1  0.20803100  0.38888889  0.31024781  1.0
  Ni  Ni1046  1  0.20803100  0.72222222  0.31024781  1.0
  Ni  Ni1047  1  0.54136433  0.05555556  0.31024781  1.0
  Ni  Ni1048  1  0.54136433  0.38888889  0.31024781  1.0
  Ni  Ni1049  1  0.54136433  0.72222222  0.31024781  1.0
  Ni  Ni1050  1  0.87469767  0.05555556  0.31024781  1.0
  Ni  Ni1051  1  0.87469767  0.38888889  0.31024781  1.0
  Ni  Ni1052  1  0.87469767  0.72222222  0.31024781  1.0
  Ni  Ni1053  1  0.20803100  0.22222222  0.25469226  1.0
  Ni  Ni1054  1  0.20803100  0.55555556  0.25469226  1.0
  Ni  Ni1055  1  0.20803100  0.88888889  0.25469226  1.0
  Ni  Ni1056  1  0.54136433  0.22222222  0.25469226  1.0
  Ni  Ni1057  1  0.54136433  0.55555556  0.25469226  1.0
  Ni  Ni1058  1  0.54136433  0.88888889  0.25469226  1.0
  Ni  Ni1059  1  0.87469767  0.22222222  0.25469226  1.0
  Ni  Ni1060  1  0.87469767  0.55555556  0.25469226  1.0
  Ni  Ni1061  1  0.87469767  0.88888889  0.25469226  1.0
  Ni  Ni1062  1  0.12530233  0.11111111  0.29172930  1.0
  Ni  Ni1063  1  0.12530233  0.44444444  0.29172930  1.0
  Ni  Ni1064  1  0.12530233  0.77777778  0.29172930  1.0
  Ni  Ni1065  1  0.45863567  0.11111111  0.29172930  1.0
  Ni  Ni1066  1  0.45863567  0.44444444  0.29172930  1.0
  Ni  Ni1067  1  0.45863567  0.77777778  0.29172930  1.0
  Ni  Ni1068  1  0.79196900  0.11111111  0.29172930  1.0
  Ni  Ni1069  1  0.79196900  0.44444444  0.29172930  1.0
  Ni  Ni1070  1  0.79196900  0.77777778  0.29172930  1.0
  Ni  Ni1071  1  0.12530233  0.27777778  0.23617374  1.0
  Ni  Ni1072  1  0.12530233  0.61111111  0.23617374  1.0
  Ni  Ni1073  1  0.12530233  0.94444444  0.23617374  1.0
  Ni  Ni1074  1  0.45863567  0.27777778  0.23617374  1.0
  Ni  Ni1075  1  0.45863567  0.61111111  0.23617374  1.0
  Ni  Ni1076  1  0.45863567  0.94444444  0.23617374  1.0
  Ni  Ni1077  1  0.79196900  0.27777778  0.23617374  1.0
  Ni  Ni1078  1  0.79196900  0.61111111  0.23617374  1.0
  Ni  Ni1079  1  0.79196900  0.94444444  0.23617374  1.0
  Ni  Ni1080  1  0.00000000  0.16666667  0.32876633  1.0
  Ni  Ni1081  1  0.00000000  0.50000000  0.32876633  1.0
  Ni  Ni1082  1  0.00000000  0.83333333  0.32876633  1.0
  Ni  Ni1083  1  0.33333333  0.16666667  0.32876633  1.0
  Ni  Ni1084  1  0.33333333  0.50000000  0.32876633  1.0
  Ni  Ni1085  1  0.33333333  0.83333333  0.32876633  1.0
  Ni  Ni1086  1  0.66666667  0.16666667  0.32876633  1.0
  Ni  Ni1087  1  0.66666667  0.50000000  0.32876633  1.0
  Ni  Ni1088  1  0.66666667  0.83333333  0.32876633  1.0
  Ni  Ni1089  1  0.00000000  0.00000000  0.27321078  1.0
  Ni  Ni1090  1  0.00000000  0.33333333  0.27321078  1.0
  Ni  Ni1091  1  0.00000000  0.66666667  0.27321078  1.0
  Ni  Ni1092  1  0.33333333  0.00000000  0.27321078  1.0
  Ni  Ni1093  1  0.33333333  0.33333333  0.27321078  1.0
  Ni  Ni1094  1  0.33333333  0.66666667  0.27321078  1.0
  Ni  Ni1095  1  0.66666667  0.00000000  0.27321078  1.0
  Ni  Ni1096  1  0.66666667  0.33333333  0.27321078  1.0
  Ni  Ni1097  1  0.66666667  0.66666667  0.27321078  1.0
  Ni  Ni1098  1  0.00000000  0.08333333  0.24543300  1.0
  Ni  Ni1099  1  0.00000000  0.41666667  0.24543300  1.0
  Ni  Ni1100  1  0.00000000  0.75000000  0.24543300  1.0
  Ni  Ni1101  1  0.33333333  0.08333333  0.24543300  1.0
  Ni  Ni1102  1  0.33333333  0.41666667  0.24543300  1.0
  Ni  Ni1103  1  0.33333333  0.75000000  0.24543300  1.0
  Ni  Ni1104  1  0.66666667  0.08333333  0.24543300  1.0
  Ni  Ni1105  1  0.66666667  0.41666667  0.24543300  1.0
  Ni  Ni1106  1  0.66666667  0.75000000  0.24543300  1.0
  Ni  Ni1107  1  0.00000000  0.25000000  0.30098856  1.0
  Ni  Ni1108  1  0.00000000  0.58333333  0.30098856  1.0
  Ni  Ni1109  1  0.00000000  0.91666667  0.30098856  1.0
  Ni  Ni1110  1  0.33333333  0.25000000  0.30098856  1.0
  Ni  Ni1111  1  0.33333333  0.58333333  0.30098856  1.0
  Ni  Ni1112  1  0.33333333  0.91666667  0.30098856  1.0
  Ni  Ni1113  1  0.66666667  0.25000000  0.30098856  1.0
  Ni  Ni1114  1  0.66666667  0.58333333  0.30098856  1.0
  Ni  Ni1115  1  0.66666667  0.91666667  0.30098856  1.0
  Ni  Ni1116  1  0.00000000  0.08333333  0.30098856  1.0
  Ni  Ni1117  1  0.00000000  0.41666667  0.30098856  1.0
  Ni  Ni1118  1  0.00000000  0.75000000  0.30098856  1.0
  Ni  Ni1119  1  0.33333333  0.08333333  0.30098856  1.0
  Ni  Ni1120  1  0.33333333  0.41666667  0.30098856  1.0
  Ni  Ni1121  1  0.33333333  0.75000000  0.30098856  1.0
  Ni  Ni1122  1  0.66666667  0.08333333  0.30098856  1.0
  Ni  Ni1123  1  0.66666667  0.41666667  0.30098856  1.0
  Ni  Ni1124  1  0.66666667  0.75000000  0.30098856  1.0
  Ni  Ni1125  1  0.00000000  0.25000000  0.24543300  1.0
  Ni  Ni1126  1  0.00000000  0.58333333  0.24543300  1.0
  Ni  Ni1127  1  0.00000000  0.91666667  0.24543300  1.0
  Ni  Ni1128  1  0.33333333  0.25000000  0.24543300  1.0
  Ni  Ni1129  1  0.33333333  0.58333333  0.24543300  1.0
  Ni  Ni1130  1  0.33333333  0.91666667  0.24543300  1.0
  Ni  Ni1131  1  0.66666667  0.25000000  0.24543300  1.0
  Ni  Ni1132  1  0.66666667  0.58333333  0.24543300  1.0
  Ni  Ni1133  1  0.66666667  0.91666667  0.24543300  1.0
  Ni  Ni1134  1  0.16666667  0.16666667  0.32876633  1.0
  Ni  Ni1135  1  0.16666667  0.50000000  0.32876633  1.0
  Ni  Ni1136  1  0.16666667  0.83333333  0.32876633  1.0
  Ni  Ni1137  1  0.50000000  0.16666667  0.32876633  1.0
  Ni  Ni1138  1  0.50000000  0.50000000  0.32876633  1.0
  Ni  Ni1139  1  0.50000000  0.83333333  0.32876633  1.0
  Ni  Ni1140  1  0.83333333  0.16666667  0.32876633  1.0
  Ni  Ni1141  1  0.83333333  0.50000000  0.32876633  1.0
  Ni  Ni1142  1  0.83333333  0.83333333  0.32876633  1.0
  Ni  Ni1143  1  0.16666667  0.00000000  0.27321078  1.0
  Ni  Ni1144  1  0.16666667  0.33333333  0.27321078  1.0
  Ni  Ni1145  1  0.16666667  0.66666667  0.27321078  1.0
  Ni  Ni1146  1  0.50000000  0.00000000  0.27321078  1.0
  Ni  Ni1147  1  0.50000000  0.33333333  0.27321078  1.0
  Ni  Ni1148  1  0.50000000  0.66666667  0.27321078  1.0
  Ni  Ni1149  1  0.83333333  0.00000000  0.27321078  1.0
  Ni  Ni1150  1  0.83333333  0.33333333  0.27321078  1.0
  Ni  Ni1151  1  0.83333333  0.66666667  0.27321078  1.0
  Ni  Ni1152  1  0.16666667  0.08333333  0.24543300  1.0
  Ni  Ni1153  1  0.16666667  0.41666667  0.24543300  1.0
  Ni  Ni1154  1  0.16666667  0.75000000  0.24543300  1.0
  Ni  Ni1155  1  0.50000000  0.08333333  0.24543300  1.0
  Ni  Ni1156  1  0.50000000  0.41666667  0.24543300  1.0
  Ni  Ni1157  1  0.50000000  0.75000000  0.24543300  1.0
  Ni  Ni1158  1  0.83333333  0.08333333  0.24543300  1.0
  Ni  Ni1159  1  0.83333333  0.41666667  0.24543300  1.0
  Ni  Ni1160  1  0.83333333  0.75000000  0.24543300  1.0
  Ni  Ni1161  1  0.16666667  0.25000000  0.30098856  1.0
  Ni  Ni1162  1  0.16666667  0.58333333  0.30098856  1.0
  Ni  Ni1163  1  0.16666667  0.91666667  0.30098856  1.0
  Ni  Ni1164  1  0.50000000  0.25000000  0.30098856  1.0
  Ni  Ni1165  1  0.50000000  0.58333333  0.30098856  1.0
  Ni  Ni1166  1  0.50000000  0.91666667  0.30098856  1.0
  Ni  Ni1167  1  0.83333333  0.25000000  0.30098856  1.0
  Ni  Ni1168  1  0.83333333  0.58333333  0.30098856  1.0
  Ni  Ni1169  1  0.83333333  0.91666667  0.30098856  1.0
  Ni  Ni1170  1  0.16666667  0.08333333  0.30098856  1.0
  Ni  Ni1171  1  0.16666667  0.41666667  0.30098856  1.0
  Ni  Ni1172  1  0.16666667  0.75000000  0.30098856  1.0
  Ni  Ni1173  1  0.50000000  0.08333333  0.30098856  1.0
  Ni  Ni1174  1  0.50000000  0.41666667  0.30098856  1.0
  Ni  Ni1175  1  0.50000000  0.75000000  0.30098856  1.0
  Ni  Ni1176  1  0.83333333  0.08333333  0.30098856  1.0
  Ni  Ni1177  1  0.83333333  0.41666667  0.30098856  1.0
  Ni  Ni1178  1  0.83333333  0.75000000  0.30098856  1.0
  Ni  Ni1179  1  0.16666667  0.25000000  0.24543300  1.0
  Ni  Ni1180  1  0.16666667  0.58333333  0.24543300  1.0
  Ni  Ni1181  1  0.16666667  0.91666667  0.24543300  1.0
  Ni  Ni1182  1  0.50000000  0.25000000  0.24543300  1.0
  Ni  Ni1183  1  0.50000000  0.58333333  0.24543300  1.0
  Ni  Ni1184  1  0.50000000  0.91666667  0.24543300  1.0
  Ni  Ni1185  1  0.83333333  0.25000000  0.24543300  1.0
  Ni  Ni1186  1  0.83333333  0.58333333  0.24543300  1.0
  Ni  Ni1187  1  0.83333333  0.91666667  0.24543300  1.0
  Ni  Ni1188  1  0.08333333  0.05480400  0.25419122  1.0
  Ni  Ni1189  1  0.08333333  0.38813733  0.25419122  1.0
  Ni  Ni1190  1  0.08333333  0.72147067  0.25419122  1.0
  Ni  Ni1191  1  0.41666667  0.05480400  0.25419122  1.0
  Ni  Ni1192  1  0.41666667  0.38813733  0.25419122  1.0
  Ni  Ni1193  1  0.41666667  0.72147067  0.25419122  1.0
  Ni  Ni1194  1  0.75000000  0.05480400  0.25419122  1.0
  Ni  Ni1195  1  0.75000000  0.38813733  0.25419122  1.0
  Ni  Ni1196  1  0.75000000  0.72147067  0.25419122  1.0
  Ni  Ni1197  1  0.08333333  0.22147067  0.30974678  1.0
  Ni  Ni1198  1  0.08333333  0.55480400  0.30974678  1.0
  Ni  Ni1199  1  0.08333333  0.88813733  0.30974678  1.0
  Ni  Ni1200  1  0.41666667  0.22147067  0.30974678  1.0
  Ni  Ni1201  1  0.41666667  0.55480400  0.30974678  1.0
  Ni  Ni1202  1  0.41666667  0.88813733  0.30974678  1.0
  Ni  Ni1203  1  0.75000000  0.22147067  0.30974678  1.0
  Ni  Ni1204  1  0.75000000  0.55480400  0.30974678  1.0
  Ni  Ni1205  1  0.75000000  0.88813733  0.30974678  1.0
  Ni  Ni1206  1  0.08333333  0.13926467  0.22754078  1.0
  Ni  Ni1207  1  0.08333333  0.47259800  0.22754078  1.0
  Ni  Ni1208  1  0.08333333  0.80593133  0.22754078  1.0
  Ni  Ni1209  1  0.41666667  0.13926467  0.22754078  1.0
  Ni  Ni1210  1  0.41666667  0.47259800  0.22754078  1.0
  Ni  Ni1211  1  0.41666667  0.80593133  0.22754078  1.0
  Ni  Ni1212  1  0.75000000  0.13926467  0.22754078  1.0
  Ni  Ni1213  1  0.75000000  0.47259800  0.22754078  1.0
  Ni  Ni1214  1  0.75000000  0.80593133  0.22754078  1.0
  Ni  Ni1215  1  0.08333333  0.30593133  0.28309633  1.0
  Ni  Ni1216  1  0.08333333  0.63926467  0.28309633  1.0
  Ni  Ni1217  1  0.08333333  0.97259800  0.28309633  1.0
  Ni  Ni1218  1  0.41666667  0.30593133  0.28309633  1.0
  Ni  Ni1219  1  0.41666667  0.63926467  0.28309633  1.0
  Ni  Ni1220  1  0.41666667  0.97259800  0.28309633  1.0
  Ni  Ni1221  1  0.75000000  0.30593133  0.28309633  1.0
  Ni  Ni1222  1  0.75000000  0.63926467  0.28309633  1.0
  Ni  Ni1223  1  0.75000000  0.97259800  0.28309633  1.0
  Ni  Ni1224  1  0.08333333  0.13926467  0.28234478  1.0
  Ni  Ni1225  1  0.08333333  0.47259800  0.28234478  1.0
  Ni  Ni1226  1  0.08333333  0.80593133  0.28234478  1.0
  Ni  Ni1227  1  0.41666667  0.13926467  0.28234478  1.0
  Ni  Ni1228  1  0.41666667  0.47259800  0.28234478  1.0
  Ni  Ni1229  1  0.41666667  0.80593133  0.28234478  1.0
  Ni  Ni1230  1  0.75000000  0.13926467  0.28234478  1.0
  Ni  Ni1231  1  0.75000000  0.47259800  0.28234478  1.0
  Ni  Ni1232  1  0.75000000  0.80593133  0.28234478  1.0
  Ni  Ni1233  1  0.08333333  0.30593133  0.22678922  1.0
  Ni  Ni1234  1  0.08333333  0.63926467  0.22678922  1.0
  Ni  Ni1235  1  0.08333333  0.97259800  0.22678922  1.0
  Ni  Ni1236  1  0.41666667  0.30593133  0.22678922  1.0
  Ni  Ni1237  1  0.41666667  0.63926467  0.22678922  1.0
  Ni  Ni1238  1  0.41666667  0.97259800  0.22678922  1.0
  Ni  Ni1239  1  0.75000000  0.30593133  0.22678922  1.0
  Ni  Ni1240  1  0.75000000  0.63926467  0.22678922  1.0
  Ni  Ni1241  1  0.75000000  0.97259800  0.22678922  1.0
  Ni  Ni1242  1  0.25000000  0.11186267  0.23667478  1.0
  Ni  Ni1243  1  0.25000000  0.44519600  0.23667478  1.0
  Ni  Ni1244  1  0.25000000  0.77852933  0.23667478  1.0
  Ni  Ni1245  1  0.58333333  0.11186267  0.23667478  1.0
  Ni  Ni1246  1  0.58333333  0.44519600  0.23667478  1.0
  Ni  Ni1247  1  0.58333333  0.77852933  0.23667478  1.0
  Ni  Ni1248  1  0.91666667  0.11186267  0.23667478  1.0
  Ni  Ni1249  1  0.91666667  0.44519600  0.23667478  1.0
  Ni  Ni1250  1  0.91666667  0.77852933  0.23667478  1.0
  Ni  Ni1251  1  0.25000000  0.27852933  0.29223033  1.0
  Ni  Ni1252  1  0.25000000  0.61186267  0.29223033  1.0
  Ni  Ni1253  1  0.25000000  0.94519600  0.29223033  1.0
  Ni  Ni1254  1  0.58333333  0.27852933  0.29223033  1.0
  Ni  Ni1255  1  0.58333333  0.61186267  0.29223033  1.0
  Ni  Ni1256  1  0.58333333  0.94519600  0.29223033  1.0
  Ni  Ni1257  1  0.91666667  0.27852933  0.29223033  1.0
  Ni  Ni1258  1  0.91666667  0.61186267  0.29223033  1.0
  Ni  Ni1259  1  0.91666667  0.94519600  0.29223033  1.0
  Ni  Ni1260  1  0.25000000  0.02740200  0.26332522  1.0
  Ni  Ni1261  1  0.25000000  0.36073533  0.26332522  1.0
  Ni  Ni1262  1  0.25000000  0.69406867  0.26332522  1.0
  Ni  Ni1263  1  0.58333333  0.02740200  0.26332522  1.0
  Ni  Ni1264  1  0.58333333  0.36073533  0.26332522  1.0
  Ni  Ni1265  1  0.58333333  0.69406867  0.26332522  1.0
  Ni  Ni1266  1  0.91666667  0.02740200  0.26332522  1.0
  Ni  Ni1267  1  0.91666667  0.36073533  0.26332522  1.0
  Ni  Ni1268  1  0.91666667  0.69406867  0.26332522  1.0
  Ni  Ni1269  1  0.25000000  0.19406867  0.31888078  1.0
  Ni  Ni1270  1  0.25000000  0.52740200  0.31888078  1.0
  Ni  Ni1271  1  0.25000000  0.86073533  0.31888078  1.0
  Ni  Ni1272  1  0.58333333  0.19406867  0.31888078  1.0
  Ni  Ni1273  1  0.58333333  0.52740200  0.31888078  1.0
  Ni  Ni1274  1  0.58333333  0.86073533  0.31888078  1.0
  Ni  Ni1275  1  0.91666667  0.19406867  0.31888078  1.0
  Ni  Ni1276  1  0.91666667  0.52740200  0.31888078  1.0
  Ni  Ni1277  1  0.91666667  0.86073533  0.31888078  1.0
  Ni  Ni1278  1  0.25000000  0.02740200  0.31963233  1.0
  Ni  Ni1279  1  0.25000000  0.36073533  0.31963233  1.0
  Ni  Ni1280  1  0.25000000  0.69406867  0.31963233  1.0
  Ni  Ni1281  1  0.58333333  0.02740200  0.31963233  1.0
  Ni  Ni1282  1  0.58333333  0.36073533  0.31963233  1.0
  Ni  Ni1283  1  0.58333333  0.69406867  0.31963233  1.0
  Ni  Ni1284  1  0.91666667  0.02740200  0.31963233  1.0
  Ni  Ni1285  1  0.91666667  0.36073533  0.31963233  1.0
  Ni  Ni1286  1  0.91666667  0.69406867  0.31963233  1.0
  Ni  Ni1287  1  0.25000000  0.19406867  0.26407678  1.0
  Ni  Ni1288  1  0.25000000  0.52740200  0.26407678  1.0
  Ni  Ni1289  1  0.25000000  0.86073533  0.26407678  1.0
  Ni  Ni1290  1  0.58333333  0.19406867  0.26407678  1.0
  Ni  Ni1291  1  0.58333333  0.52740200  0.26407678  1.0
  Ni  Ni1292  1  0.58333333  0.86073533  0.26407678  1.0
  Ni  Ni1293  1  0.91666667  0.19406867  0.26407678  1.0
  Ni  Ni1294  1  0.91666667  0.52740200  0.26407678  1.0
  Ni  Ni1295  1  0.91666667  0.86073533  0.26407678  1.0
  Nb  Nb1296  1  0.03250933  0.16666667  0.38432189  1.0
  Nb  Nb1297  1  0.03250933  0.50000000  0.38432189  1.0
  Nb  Nb1298  1  0.03250933  0.83333333  0.38432189  1.0
  Nb  Nb1299  1  0.36584267  0.16666667  0.38432189  1.0
  Nb  Nb1300  1  0.36584267  0.50000000  0.38432189  1.0
  Nb  Nb1301  1  0.36584267  0.83333333  0.38432189  1.0
  Nb  Nb1302  1  0.69917600  0.16666667  0.38432189  1.0
  Nb  Nb1303  1  0.69917600  0.50000000  0.38432189  1.0
  Nb  Nb1304  1  0.69917600  0.83333333  0.38432189  1.0
  Nb  Nb1305  1  0.03250933  0.00000000  0.43987744  1.0
  Nb  Nb1306  1  0.03250933  0.33333333  0.43987744  1.0
  Nb  Nb1307  1  0.03250933  0.66666667  0.43987744  1.0
  Nb  Nb1308  1  0.36584267  0.00000000  0.43987744  1.0
  Nb  Nb1309  1  0.36584267  0.33333333  0.43987744  1.0
  Nb  Nb1310  1  0.36584267  0.66666667  0.43987744  1.0
  Nb  Nb1311  1  0.69917600  0.00000000  0.43987744  1.0
  Nb  Nb1312  1  0.69917600  0.33333333  0.43987744  1.0
  Nb  Nb1313  1  0.69917600  0.66666667  0.43987744  1.0
  Nb  Nb1314  1  0.30082400  0.16666667  0.38432189  1.0
  Nb  Nb1315  1  0.30082400  0.50000000  0.38432189  1.0
  Nb  Nb1316  1  0.30082400  0.83333333  0.38432189  1.0
  Nb  Nb1317  1  0.63415733  0.16666667  0.38432189  1.0
  Nb  Nb1318  1  0.63415733  0.50000000  0.38432189  1.0
  Nb  Nb1319  1  0.63415733  0.83333333  0.38432189  1.0
  Nb  Nb1320  1  0.96749067  0.16666667  0.38432189  1.0
  Nb  Nb1321  1  0.96749067  0.50000000  0.38432189  1.0
  Nb  Nb1322  1  0.96749067  0.83333333  0.38432189  1.0
  Nb  Nb1323  1  0.30082400  0.00000000  0.43987744  1.0
  Nb  Nb1324  1  0.30082400  0.33333333  0.43987744  1.0
  Nb  Nb1325  1  0.30082400  0.66666667  0.43987744  1.0
  Nb  Nb1326  1  0.63415733  0.00000000  0.43987744  1.0
  Nb  Nb1327  1  0.63415733  0.33333333  0.43987744  1.0
  Nb  Nb1328  1  0.63415733  0.66666667  0.43987744  1.0
  Nb  Nb1329  1  0.96749067  0.00000000  0.43987744  1.0
  Nb  Nb1330  1  0.96749067  0.33333333  0.43987744  1.0
  Nb  Nb1331  1  0.96749067  0.66666667  0.43987744  1.0
  Nb  Nb1332  1  0.19917600  0.16666667  0.38432189  1.0
  Nb  Nb1333  1  0.19917600  0.50000000  0.38432189  1.0
  Nb  Nb1334  1  0.19917600  0.83333333  0.38432189  1.0
  Nb  Nb1335  1  0.53250933  0.16666667  0.38432189  1.0
  Nb  Nb1336  1  0.53250933  0.50000000  0.38432189  1.0
  Nb  Nb1337  1  0.53250933  0.83333333  0.38432189  1.0
  Nb  Nb1338  1  0.86584267  0.16666667  0.38432189  1.0
  Nb  Nb1339  1  0.86584267  0.50000000  0.38432189  1.0
  Nb  Nb1340  1  0.86584267  0.83333333  0.38432189  1.0
  Nb  Nb1341  1  0.19917600  0.00000000  0.43987744  1.0
  Nb  Nb1342  1  0.19917600  0.33333333  0.43987744  1.0
  Nb  Nb1343  1  0.19917600  0.66666667  0.43987744  1.0
  Nb  Nb1344  1  0.53250933  0.00000000  0.43987744  1.0
  Nb  Nb1345  1  0.53250933  0.33333333  0.43987744  1.0
  Nb  Nb1346  1  0.53250933  0.66666667  0.43987744  1.0
  Nb  Nb1347  1  0.86584267  0.00000000  0.43987744  1.0
  Nb  Nb1348  1  0.86584267  0.33333333  0.43987744  1.0
  Nb  Nb1349  1  0.86584267  0.66666667  0.43987744  1.0
  Nb  Nb1350  1  0.13415733  0.16666667  0.38432189  1.0
  Nb  Nb1351  1  0.13415733  0.50000000  0.38432189  1.0
  Nb  Nb1352  1  0.13415733  0.83333333  0.38432189  1.0
  Nb  Nb1353  1  0.46749067  0.16666667  0.38432189  1.0
  Nb  Nb1354  1  0.46749067  0.50000000  0.38432189  1.0
  Nb  Nb1355  1  0.46749067  0.83333333  0.38432189  1.0
  Nb  Nb1356  1  0.80082400  0.16666667  0.38432189  1.0
  Nb  Nb1357  1  0.80082400  0.50000000  0.38432189  1.0
  Nb  Nb1358  1  0.80082400  0.83333333  0.38432189  1.0
  Nb  Nb1359  1  0.13415733  0.00000000  0.43987744  1.0
  Nb  Nb1360  1  0.13415733  0.33333333  0.43987744  1.0
  Nb  Nb1361  1  0.13415733  0.66666667  0.43987744  1.0
  Nb  Nb1362  1  0.46749067  0.00000000  0.43987744  1.0
  Nb  Nb1363  1  0.46749067  0.33333333  0.43987744  1.0
  Nb  Nb1364  1  0.46749067  0.66666667  0.43987744  1.0
  Nb  Nb1365  1  0.80082400  0.00000000  0.43987744  1.0
  Nb  Nb1366  1  0.80082400  0.33333333  0.43987744  1.0
  Nb  Nb1367  1  0.80082400  0.66666667  0.43987744  1.0
  Nb  Nb1368  1  0.28197700  0.11111111  0.40284041  1.0
  Nb  Nb1369  1  0.28197700  0.44444444  0.40284041  1.0
  Nb  Nb1370  1  0.28197700  0.77777778  0.40284041  1.0
  Nb  Nb1371  1  0.61531033  0.11111111  0.40284041  1.0
  Nb  Nb1372  1  0.61531033  0.44444444  0.40284041  1.0
  Nb  Nb1373  1  0.61531033  0.77777778  0.40284041  1.0
  Nb  Nb1374  1  0.94864367  0.11111111  0.40284041  1.0
  Nb  Nb1375  1  0.94864367  0.44444444  0.40284041  1.0
  Nb  Nb1376  1  0.94864367  0.77777778  0.40284041  1.0
  Nb  Nb1377  1  0.28197700  0.27777778  0.34728485  1.0
  Nb  Nb1378  1  0.28197700  0.61111111  0.34728485  1.0
  Nb  Nb1379  1  0.28197700  0.94444444  0.34728485  1.0
  Nb  Nb1380  1  0.61531033  0.27777778  0.34728485  1.0
  Nb  Nb1381  1  0.61531033  0.61111111  0.34728485  1.0
  Nb  Nb1382  1  0.61531033  0.94444444  0.34728485  1.0
  Nb  Nb1383  1  0.94864367  0.27777778  0.34728485  1.0
  Nb  Nb1384  1  0.94864367  0.61111111  0.34728485  1.0
  Nb  Nb1385  1  0.94864367  0.94444444  0.34728485  1.0
  Nb  Nb1386  1  0.05135633  0.05555556  0.42135893  1.0
  Nb  Nb1387  1  0.05135633  0.38888889  0.42135893  1.0
  Nb  Nb1388  1  0.05135633  0.72222222  0.42135893  1.0
  Nb  Nb1389  1  0.38468967  0.05555556  0.42135893  1.0
  Nb  Nb1390  1  0.38468967  0.38888889  0.42135893  1.0
  Nb  Nb1391  1  0.38468967  0.72222222  0.42135893  1.0
  Nb  Nb1392  1  0.71802300  0.05555556  0.42135893  1.0
  Nb  Nb1393  1  0.71802300  0.38888889  0.42135893  1.0
  Nb  Nb1394  1  0.71802300  0.72222222  0.42135893  1.0
  Nb  Nb1395  1  0.05135633  0.22222222  0.36580337  1.0
  Nb  Nb1396  1  0.05135633  0.55555556  0.36580337  1.0
  Nb  Nb1397  1  0.05135633  0.88888889  0.36580337  1.0
  Nb  Nb1398  1  0.38468967  0.22222222  0.36580337  1.0
  Nb  Nb1399  1  0.38468967  0.55555556  0.36580337  1.0
  Nb  Nb1400  1  0.38468967  0.88888889  0.36580337  1.0
  Nb  Nb1401  1  0.71802300  0.22222222  0.36580337  1.0
  Nb  Nb1402  1  0.71802300  0.55555556  0.36580337  1.0
  Nb  Nb1403  1  0.71802300  0.88888889  0.36580337  1.0
  Nb  Nb1404  1  0.11531033  0.05555556  0.42135893  1.0
  Nb  Nb1405  1  0.11531033  0.38888889  0.42135893  1.0
  Nb  Nb1406  1  0.11531033  0.72222222  0.42135893  1.0
  Nb  Nb1407  1  0.44864367  0.05555556  0.42135893  1.0
  Nb  Nb1408  1  0.44864367  0.38888889  0.42135893  1.0
  Nb  Nb1409  1  0.44864367  0.72222222  0.42135893  1.0
  Nb  Nb1410  1  0.78197700  0.05555556  0.42135893  1.0
  Nb  Nb1411  1  0.78197700  0.38888889  0.42135893  1.0
  Nb  Nb1412  1  0.78197700  0.72222222  0.42135893  1.0
  Nb  Nb1413  1  0.11531033  0.22222222  0.36580337  1.0
  Nb  Nb1414  1  0.11531033  0.55555556  0.36580337  1.0
  Nb  Nb1415  1  0.11531033  0.88888889  0.36580337  1.0
  Nb  Nb1416  1  0.44864367  0.22222222  0.36580337  1.0
  Nb  Nb1417  1  0.44864367  0.55555556  0.36580337  1.0
  Nb  Nb1418  1  0.44864367  0.88888889  0.36580337  1.0
  Nb  Nb1419  1  0.78197700  0.22222222  0.36580337  1.0
  Nb  Nb1420  1  0.78197700  0.55555556  0.36580337  1.0
  Nb  Nb1421  1  0.78197700  0.88888889  0.36580337  1.0
  Nb  Nb1422  1  0.21802300  0.11111111  0.40284041  1.0
  Nb  Nb1423  1  0.21802300  0.44444444  0.40284041  1.0
  Nb  Nb1424  1  0.21802300  0.77777778  0.40284041  1.0
  Nb  Nb1425  1  0.55135633  0.11111111  0.40284041  1.0
  Nb  Nb1426  1  0.55135633  0.44444444  0.40284041  1.0
  Nb  Nb1427  1  0.55135633  0.77777778  0.40284041  1.0
  Nb  Nb1428  1  0.88468967  0.11111111  0.40284041  1.0
  Nb  Nb1429  1  0.88468967  0.44444444  0.40284041  1.0
  Nb  Nb1430  1  0.88468967  0.77777778  0.40284041  1.0
  Nb  Nb1431  1  0.21802300  0.27777778  0.34728485  1.0
  Nb  Nb1432  1  0.21802300  0.61111111  0.34728485  1.0
  Nb  Nb1433  1  0.21802300  0.94444444  0.34728485  1.0
  Nb  Nb1434  1  0.55135633  0.27777778  0.34728485  1.0
  Nb  Nb1435  1  0.55135633  0.61111111  0.34728485  1.0
  Nb  Nb1436  1  0.55135633  0.94444444  0.34728485  1.0
  Nb  Nb1437  1  0.88468967  0.27777778  0.34728485  1.0
  Nb  Nb1438  1  0.88468967  0.61111111  0.34728485  1.0
  Nb  Nb1439  1  0.88468967  0.94444444  0.34728485  1.0
  Ni  Ni1440  1  0.04136433  0.11111111  0.40284041  1.0
  Ni  Ni1441  1  0.04136433  0.44444444  0.40284041  1.0
  Ni  Ni1442  1  0.04136433  0.77777778  0.40284041  1.0
  Ni  Ni1443  1  0.37469767  0.11111111  0.40284041  1.0
  Ni  Ni1444  1  0.37469767  0.44444444  0.40284041  1.0
  Ni  Ni1445  1  0.37469767  0.77777778  0.40284041  1.0
  Ni  Ni1446  1  0.70803100  0.11111111  0.40284041  1.0
  Ni  Ni1447  1  0.70803100  0.44444444  0.40284041  1.0
  Ni  Ni1448  1  0.70803100  0.77777778  0.40284041  1.0
  Ni  Ni1449  1  0.04136433  0.27777778  0.34728485  1.0
  Ni  Ni1450  1  0.04136433  0.61111111  0.34728485  1.0
  Ni  Ni1451  1  0.04136433  0.94444444  0.34728485  1.0
  Ni  Ni1452  1  0.37469767  0.27777778  0.34728485  1.0
  Ni  Ni1453  1  0.37469767  0.61111111  0.34728485  1.0
  Ni  Ni1454  1  0.37469767  0.94444444  0.34728485  1.0
  Ni  Ni1455  1  0.70803100  0.27777778  0.34728485  1.0
  Ni  Ni1456  1  0.70803100  0.61111111  0.34728485  1.0
  Ni  Ni1457  1  0.70803100  0.94444444  0.34728485  1.0
  Ni  Ni1458  1  0.29196900  0.05555556  0.42135893  1.0
  Ni  Ni1459  1  0.29196900  0.38888889  0.42135893  1.0
  Ni  Ni1460  1  0.29196900  0.72222222  0.42135893  1.0
  Ni  Ni1461  1  0.62530233  0.05555556  0.42135893  1.0
  Ni  Ni1462  1  0.62530233  0.38888889  0.42135893  1.0
  Ni  Ni1463  1  0.62530233  0.72222222  0.42135893  1.0
  Ni  Ni1464  1  0.95863567  0.05555556  0.42135893  1.0
  Ni  Ni1465  1  0.95863567  0.38888889  0.42135893  1.0
  Ni  Ni1466  1  0.95863567  0.72222222  0.42135893  1.0
  Ni  Ni1467  1  0.29196900  0.22222222  0.36580337  1.0
  Ni  Ni1468  1  0.29196900  0.55555556  0.36580337  1.0
  Ni  Ni1469  1  0.29196900  0.88888889  0.36580337  1.0
  Ni  Ni1470  1  0.62530233  0.22222222  0.36580337  1.0
  Ni  Ni1471  1  0.62530233  0.55555556  0.36580337  1.0
  Ni  Ni1472  1  0.62530233  0.88888889  0.36580337  1.0
  Ni  Ni1473  1  0.95863567  0.22222222  0.36580337  1.0
  Ni  Ni1474  1  0.95863567  0.55555556  0.36580337  1.0
  Ni  Ni1475  1  0.95863567  0.88888889  0.36580337  1.0
  Ni  Ni1476  1  0.20803100  0.05555556  0.42135893  1.0
  Ni  Ni1477  1  0.20803100  0.38888889  0.42135893  1.0
  Ni  Ni1478  1  0.20803100  0.72222222  0.42135893  1.0
  Ni  Ni1479  1  0.54136433  0.05555556  0.42135893  1.0
  Ni  Ni1480  1  0.54136433  0.38888889  0.42135893  1.0
  Ni  Ni1481  1  0.54136433  0.72222222  0.42135893  1.0
  Ni  Ni1482  1  0.87469767  0.05555556  0.42135893  1.0
  Ni  Ni1483  1  0.87469767  0.38888889  0.42135893  1.0
  Ni  Ni1484  1  0.87469767  0.72222222  0.42135893  1.0
  Ni  Ni1485  1  0.20803100  0.22222222  0.36580337  1.0
  Ni  Ni1486  1  0.20803100  0.55555556  0.36580337  1.0
  Ni  Ni1487  1  0.20803100  0.88888889  0.36580337  1.0
  Ni  Ni1488  1  0.54136433  0.22222222  0.36580337  1.0
  Ni  Ni1489  1  0.54136433  0.55555556  0.36580337  1.0
  Ni  Ni1490  1  0.54136433  0.88888889  0.36580337  1.0
  Ni  Ni1491  1  0.87469767  0.22222222  0.36580337  1.0
  Ni  Ni1492  1  0.87469767  0.55555556  0.36580337  1.0
  Ni  Ni1493  1  0.87469767  0.88888889  0.36580337  1.0
  Ni  Ni1494  1  0.12530233  0.11111111  0.40284041  1.0
  Ni  Ni1495  1  0.12530233  0.44444444  0.40284041  1.0
  Ni  Ni1496  1  0.12530233  0.77777778  0.40284041  1.0
  Ni  Ni1497  1  0.45863567  0.11111111  0.40284041  1.0
  Ni  Ni1498  1  0.45863567  0.44444444  0.40284041  1.0
  Ni  Ni1499  1  0.45863567  0.77777778  0.40284041  1.0
  Ni  Ni1500  1  0.79196900  0.11111111  0.40284041  1.0
  Ni  Ni1501  1  0.79196900  0.44444444  0.40284041  1.0
  Ni  Ni1502  1  0.79196900  0.77777778  0.40284041  1.0
  Ni  Ni1503  1  0.12530233  0.27777778  0.34728485  1.0
  Ni  Ni1504  1  0.12530233  0.61111111  0.34728485  1.0
  Ni  Ni1505  1  0.12530233  0.94444444  0.34728485  1.0
  Ni  Ni1506  1  0.45863567  0.27777778  0.34728485  1.0
  Ni  Ni1507  1  0.45863567  0.61111111  0.34728485  1.0
  Ni  Ni1508  1  0.45863567  0.94444444  0.34728485  1.0
  Ni  Ni1509  1  0.79196900  0.27777778  0.34728485  1.0
  Ni  Ni1510  1  0.79196900  0.61111111  0.34728485  1.0
  Ni  Ni1511  1  0.79196900  0.94444444  0.34728485  1.0
  Ni  Ni1512  1  0.00000000  0.16666667  0.43987744  1.0
  Ni  Ni1513  1  0.00000000  0.50000000  0.43987744  1.0
  Ni  Ni1514  1  0.00000000  0.83333333  0.43987744  1.0
  Ni  Ni1515  1  0.33333333  0.16666667  0.43987744  1.0
  Ni  Ni1516  1  0.33333333  0.50000000  0.43987744  1.0
  Ni  Ni1517  1  0.33333333  0.83333333  0.43987744  1.0
  Ni  Ni1518  1  0.66666667  0.16666667  0.43987744  1.0
  Ni  Ni1519  1  0.66666667  0.50000000  0.43987744  1.0
  Ni  Ni1520  1  0.66666667  0.83333333  0.43987744  1.0
  Ni  Ni1521  1  0.00000000  0.00000000  0.38432189  1.0
  Ni  Ni1522  1  0.00000000  0.33333333  0.38432189  1.0
  Ni  Ni1523  1  0.00000000  0.66666667  0.38432189  1.0
  Ni  Ni1524  1  0.33333333  0.00000000  0.38432189  1.0
  Ni  Ni1525  1  0.33333333  0.33333333  0.38432189  1.0
  Ni  Ni1526  1  0.33333333  0.66666667  0.38432189  1.0
  Ni  Ni1527  1  0.66666667  0.00000000  0.38432189  1.0
  Ni  Ni1528  1  0.66666667  0.33333333  0.38432189  1.0
  Ni  Ni1529  1  0.66666667  0.66666667  0.38432189  1.0
  Ni  Ni1530  1  0.00000000  0.08333333  0.35654411  1.0
  Ni  Ni1531  1  0.00000000  0.41666667  0.35654411  1.0
  Ni  Ni1532  1  0.00000000  0.75000000  0.35654411  1.0
  Ni  Ni1533  1  0.33333333  0.08333333  0.35654411  1.0
  Ni  Ni1534  1  0.33333333  0.41666667  0.35654411  1.0
  Ni  Ni1535  1  0.33333333  0.75000000  0.35654411  1.0
  Ni  Ni1536  1  0.66666667  0.08333333  0.35654411  1.0
  Ni  Ni1537  1  0.66666667  0.41666667  0.35654411  1.0
  Ni  Ni1538  1  0.66666667  0.75000000  0.35654411  1.0
  Ni  Ni1539  1  0.00000000  0.25000000  0.41209967  1.0
  Ni  Ni1540  1  0.00000000  0.58333333  0.41209967  1.0
  Ni  Ni1541  1  0.00000000  0.91666667  0.41209967  1.0
  Ni  Ni1542  1  0.33333333  0.25000000  0.41209967  1.0
  Ni  Ni1543  1  0.33333333  0.58333333  0.41209967  1.0
  Ni  Ni1544  1  0.33333333  0.91666667  0.41209967  1.0
  Ni  Ni1545  1  0.66666667  0.25000000  0.41209967  1.0
  Ni  Ni1546  1  0.66666667  0.58333333  0.41209967  1.0
  Ni  Ni1547  1  0.66666667  0.91666667  0.41209967  1.0
  Ni  Ni1548  1  0.00000000  0.08333333  0.41209967  1.0
  Ni  Ni1549  1  0.00000000  0.41666667  0.41209967  1.0
  Ni  Ni1550  1  0.00000000  0.75000000  0.41209967  1.0
  Ni  Ni1551  1  0.33333333  0.08333333  0.41209967  1.0
  Ni  Ni1552  1  0.33333333  0.41666667  0.41209967  1.0
  Ni  Ni1553  1  0.33333333  0.75000000  0.41209967  1.0
  Ni  Ni1554  1  0.66666667  0.08333333  0.41209967  1.0
  Ni  Ni1555  1  0.66666667  0.41666667  0.41209967  1.0
  Ni  Ni1556  1  0.66666667  0.75000000  0.41209967  1.0
  Ni  Ni1557  1  0.00000000  0.25000000  0.35654411  1.0
  Ni  Ni1558  1  0.00000000  0.58333333  0.35654411  1.0
  Ni  Ni1559  1  0.00000000  0.91666667  0.35654411  1.0
  Ni  Ni1560  1  0.33333333  0.25000000  0.35654411  1.0
  Ni  Ni1561  1  0.33333333  0.58333333  0.35654411  1.0
  Ni  Ni1562  1  0.33333333  0.91666667  0.35654411  1.0
  Ni  Ni1563  1  0.66666667  0.25000000  0.35654411  1.0
  Ni  Ni1564  1  0.66666667  0.58333333  0.35654411  1.0
  Ni  Ni1565  1  0.66666667  0.91666667  0.35654411  1.0
  Ni  Ni1566  1  0.16666667  0.16666667  0.43987744  1.0
  Ni  Ni1567  1  0.16666667  0.50000000  0.43987744  1.0
  Ni  Ni1568  1  0.16666667  0.83333333  0.43987744  1.0
  Ni  Ni1569  1  0.50000000  0.16666667  0.43987744  1.0
  Ni  Ni1570  1  0.50000000  0.50000000  0.43987744  1.0
  Ni  Ni1571  1  0.50000000  0.83333333  0.43987744  1.0
  Ni  Ni1572  1  0.83333333  0.16666667  0.43987744  1.0
  Ni  Ni1573  1  0.83333333  0.50000000  0.43987744  1.0
  Ni  Ni1574  1  0.83333333  0.83333333  0.43987744  1.0
  Ni  Ni1575  1  0.16666667  0.00000000  0.38432189  1.0
  Ni  Ni1576  1  0.16666667  0.33333333  0.38432189  1.0
  Ni  Ni1577  1  0.16666667  0.66666667  0.38432189  1.0
  Ni  Ni1578  1  0.50000000  0.00000000  0.38432189  1.0
  Ni  Ni1579  1  0.50000000  0.33333333  0.38432189  1.0
  Ni  Ni1580  1  0.50000000  0.66666667  0.38432189  1.0
  Ni  Ni1581  1  0.83333333  0.00000000  0.38432189  1.0
  Ni  Ni1582  1  0.83333333  0.33333333  0.38432189  1.0
  Ni  Ni1583  1  0.83333333  0.66666667  0.38432189  1.0
  Ni  Ni1584  1  0.16666667  0.08333333  0.35654411  1.0
  Ni  Ni1585  1  0.16666667  0.41666667  0.35654411  1.0
  Ni  Ni1586  1  0.16666667  0.75000000  0.35654411  1.0
  Ni  Ni1587  1  0.50000000  0.08333333  0.35654411  1.0
  Ni  Ni1588  1  0.50000000  0.41666667  0.35654411  1.0
  Ni  Ni1589  1  0.50000000  0.75000000  0.35654411  1.0
  Ni  Ni1590  1  0.83333333  0.08333333  0.35654411  1.0
  Ni  Ni1591  1  0.83333333  0.41666667  0.35654411  1.0
  Ni  Ni1592  1  0.83333333  0.75000000  0.35654411  1.0
  Ni  Ni1593  1  0.16666667  0.25000000  0.41209967  1.0
  Ni  Ni1594  1  0.16666667  0.58333333  0.41209967  1.0
  Ni  Ni1595  1  0.16666667  0.91666667  0.41209967  1.0
  Ni  Ni1596  1  0.50000000  0.25000000  0.41209967  1.0
  Ni  Ni1597  1  0.50000000  0.58333333  0.41209967  1.0
  Ni  Ni1598  1  0.50000000  0.91666667  0.41209967  1.0
  Ni  Ni1599  1  0.83333333  0.25000000  0.41209967  1.0
  Ni  Ni1600  1  0.83333333  0.58333333  0.41209967  1.0
  Ni  Ni1601  1  0.83333333  0.91666667  0.41209967  1.0
  Ni  Ni1602  1  0.16666667  0.08333333  0.41209967  1.0
  Ni  Ni1603  1  0.16666667  0.41666667  0.41209967  1.0
  Ni  Ni1604  1  0.16666667  0.75000000  0.41209967  1.0
  Ni  Ni1605  1  0.50000000  0.08333333  0.41209967  1.0
  Ni  Ni1606  1  0.50000000  0.41666667  0.41209967  1.0
  Ni  Ni1607  1  0.50000000  0.75000000  0.41209967  1.0
  Ni  Ni1608  1  0.83333333  0.08333333  0.41209967  1.0
  Ni  Ni1609  1  0.83333333  0.41666667  0.41209967  1.0
  Ni  Ni1610  1  0.83333333  0.75000000  0.41209967  1.0
  Ni  Ni1611  1  0.16666667  0.25000000  0.35654411  1.0
  Ni  Ni1612  1  0.16666667  0.58333333  0.35654411  1.0
  Ni  Ni1613  1  0.16666667  0.91666667  0.35654411  1.0
  Ni  Ni1614  1  0.50000000  0.25000000  0.35654411  1.0
  Ni  Ni1615  1  0.50000000  0.58333333  0.35654411  1.0
  Ni  Ni1616  1  0.50000000  0.91666667  0.35654411  1.0
  Ni  Ni1617  1  0.83333333  0.25000000  0.35654411  1.0
  Ni  Ni1618  1  0.83333333  0.58333333  0.35654411  1.0
  Ni  Ni1619  1  0.83333333  0.91666667  0.35654411  1.0
  Ni  Ni1620  1  0.08333333  0.05480400  0.36530233  1.0
  Ni  Ni1621  1  0.08333333  0.38813733  0.36530233  1.0
  Ni  Ni1622  1  0.08333333  0.72147067  0.36530233  1.0
  Ni  Ni1623  1  0.41666667  0.05480400  0.36530233  1.0
  Ni  Ni1624  1  0.41666667  0.38813733  0.36530233  1.0
  Ni  Ni1625  1  0.41666667  0.72147067  0.36530233  1.0
  Ni  Ni1626  1  0.75000000  0.05480400  0.36530233  1.0
  Ni  Ni1627  1  0.75000000  0.38813733  0.36530233  1.0
  Ni  Ni1628  1  0.75000000  0.72147067  0.36530233  1.0
  Ni  Ni1629  1  0.08333333  0.22147067  0.42085789  1.0
  Ni  Ni1630  1  0.08333333  0.55480400  0.42085789  1.0
  Ni  Ni1631  1  0.08333333  0.88813733  0.42085789  1.0
  Ni  Ni1632  1  0.41666667  0.22147067  0.42085789  1.0
  Ni  Ni1633  1  0.41666667  0.55480400  0.42085789  1.0
  Ni  Ni1634  1  0.41666667  0.88813733  0.42085789  1.0
  Ni  Ni1635  1  0.75000000  0.22147067  0.42085789  1.0
  Ni  Ni1636  1  0.75000000  0.55480400  0.42085789  1.0
  Ni  Ni1637  1  0.75000000  0.88813733  0.42085789  1.0
  Ni  Ni1638  1  0.08333333  0.13926467  0.33865189  1.0
  Ni  Ni1639  1  0.08333333  0.47259800  0.33865189  1.0
  Ni  Ni1640  1  0.08333333  0.80593133  0.33865189  1.0
  Ni  Ni1641  1  0.41666667  0.13926467  0.33865189  1.0
  Ni  Ni1642  1  0.41666667  0.47259800  0.33865189  1.0
  Ni  Ni1643  1  0.41666667  0.80593133  0.33865189  1.0
  Ni  Ni1644  1  0.75000000  0.13926467  0.33865189  1.0
  Ni  Ni1645  1  0.75000000  0.47259800  0.33865189  1.0
  Ni  Ni1646  1  0.75000000  0.80593133  0.33865189  1.0
  Ni  Ni1647  1  0.08333333  0.30593133  0.39420744  1.0
  Ni  Ni1648  1  0.08333333  0.63926467  0.39420744  1.0
  Ni  Ni1649  1  0.08333333  0.97259800  0.39420744  1.0
  Ni  Ni1650  1  0.41666667  0.30593133  0.39420744  1.0
  Ni  Ni1651  1  0.41666667  0.63926467  0.39420744  1.0
  Ni  Ni1652  1  0.41666667  0.97259800  0.39420744  1.0
  Ni  Ni1653  1  0.75000000  0.30593133  0.39420744  1.0
  Ni  Ni1654  1  0.75000000  0.63926467  0.39420744  1.0
  Ni  Ni1655  1  0.75000000  0.97259800  0.39420744  1.0
  Ni  Ni1656  1  0.08333333  0.13926467  0.39345589  1.0
  Ni  Ni1657  1  0.08333333  0.47259800  0.39345589  1.0
  Ni  Ni1658  1  0.08333333  0.80593133  0.39345589  1.0
  Ni  Ni1659  1  0.41666667  0.13926467  0.39345589  1.0
  Ni  Ni1660  1  0.41666667  0.47259800  0.39345589  1.0
  Ni  Ni1661  1  0.41666667  0.80593133  0.39345589  1.0
  Ni  Ni1662  1  0.75000000  0.13926467  0.39345589  1.0
  Ni  Ni1663  1  0.75000000  0.47259800  0.39345589  1.0
  Ni  Ni1664  1  0.75000000  0.80593133  0.39345589  1.0
  Ni  Ni1665  1  0.08333333  0.30593133  0.33790033  1.0
  Ni  Ni1666  1  0.08333333  0.63926467  0.33790033  1.0
  Ni  Ni1667  1  0.08333333  0.97259800  0.33790033  1.0
  Ni  Ni1668  1  0.41666667  0.30593133  0.33790033  1.0
  Ni  Ni1669  1  0.41666667  0.63926467  0.33790033  1.0
  Ni  Ni1670  1  0.41666667  0.97259800  0.33790033  1.0
  Ni  Ni1671  1  0.75000000  0.30593133  0.33790033  1.0
  Ni  Ni1672  1  0.75000000  0.63926467  0.33790033  1.0
  Ni  Ni1673  1  0.75000000  0.97259800  0.33790033  1.0
  Ni  Ni1674  1  0.25000000  0.11186267  0.34778589  1.0
  Ni  Ni1675  1  0.25000000  0.44519600  0.34778589  1.0
  Ni  Ni1676  1  0.25000000  0.77852933  0.34778589  1.0
  Ni  Ni1677  1  0.58333333  0.11186267  0.34778589  1.0
  Ni  Ni1678  1  0.58333333  0.44519600  0.34778589  1.0
  Ni  Ni1679  1  0.58333333  0.77852933  0.34778589  1.0
  Ni  Ni1680  1  0.91666667  0.11186267  0.34778589  1.0
  Ni  Ni1681  1  0.91666667  0.44519600  0.34778589  1.0
  Ni  Ni1682  1  0.91666667  0.77852933  0.34778589  1.0
  Ni  Ni1683  1  0.25000000  0.27852933  0.40334144  1.0
  Ni  Ni1684  1  0.25000000  0.61186267  0.40334144  1.0
  Ni  Ni1685  1  0.25000000  0.94519600  0.40334144  1.0
  Ni  Ni1686  1  0.58333333  0.27852933  0.40334144  1.0
  Ni  Ni1687  1  0.58333333  0.61186267  0.40334144  1.0
  Ni  Ni1688  1  0.58333333  0.94519600  0.40334144  1.0
  Ni  Ni1689  1  0.91666667  0.27852933  0.40334144  1.0
  Ni  Ni1690  1  0.91666667  0.61186267  0.40334144  1.0
  Ni  Ni1691  1  0.91666667  0.94519600  0.40334144  1.0
  Ni  Ni1692  1  0.25000000  0.02740200  0.37443633  1.0
  Ni  Ni1693  1  0.25000000  0.36073533  0.37443633  1.0
  Ni  Ni1694  1  0.25000000  0.69406867  0.37443633  1.0
  Ni  Ni1695  1  0.58333333  0.02740200  0.37443633  1.0
  Ni  Ni1696  1  0.58333333  0.36073533  0.37443633  1.0
  Ni  Ni1697  1  0.58333333  0.69406867  0.37443633  1.0
  Ni  Ni1698  1  0.91666667  0.02740200  0.37443633  1.0
  Ni  Ni1699  1  0.91666667  0.36073533  0.37443633  1.0
  Ni  Ni1700  1  0.91666667  0.69406867  0.37443633  1.0
  Ni  Ni1701  1  0.25000000  0.19406867  0.42999189  1.0
  Ni  Ni1702  1  0.25000000  0.52740200  0.42999189  1.0
  Ni  Ni1703  1  0.25000000  0.86073533  0.42999189  1.0
  Ni  Ni1704  1  0.58333333  0.19406867  0.42999189  1.0
  Ni  Ni1705  1  0.58333333  0.52740200  0.42999189  1.0
  Ni  Ni1706  1  0.58333333  0.86073533  0.42999189  1.0
  Ni  Ni1707  1  0.91666667  0.19406867  0.42999189  1.0
  Ni  Ni1708  1  0.91666667  0.52740200  0.42999189  1.0
  Ni  Ni1709  1  0.91666667  0.86073533  0.42999189  1.0
  Ni  Ni1710  1  0.25000000  0.02740200  0.43074344  1.0
  Ni  Ni1711  1  0.25000000  0.36073533  0.43074344  1.0
  Ni  Ni1712  1  0.25000000  0.69406867  0.43074344  1.0
  Ni  Ni1713  1  0.58333333  0.02740200  0.43074344  1.0
  Ni  Ni1714  1  0.58333333  0.36073533  0.43074344  1.0
  Ni  Ni1715  1  0.58333333  0.69406867  0.43074344  1.0
  Ni  Ni1716  1  0.91666667  0.02740200  0.43074344  1.0
  Ni  Ni1717  1  0.91666667  0.36073533  0.43074344  1.0
  Ni  Ni1718  1  0.91666667  0.69406867  0.43074344  1.0
  Ni  Ni1719  1  0.25000000  0.19406867  0.37518789  1.0
  Ni  Ni1720  1  0.25000000  0.52740200  0.37518789  1.0
  Ni  Ni1721  1  0.25000000  0.86073533  0.37518789  1.0
  Ni  Ni1722  1  0.58333333  0.19406867  0.37518789  1.0
  Ni  Ni1723  1  0.58333333  0.52740200  0.37518789  1.0
  Ni  Ni1724  1  0.58333333  0.86073533  0.37518789  1.0
  Ni  Ni1725  1  0.91666667  0.19406867  0.37518789  1.0
  Ni  Ni1726  1  0.91666667  0.52740200  0.37518789  1.0
  Ni  Ni1727  1  0.91666667  0.86073533  0.37518789  1.0
