# generated using pymatgen
data_NbNi2
_symmetry_space_group_name_H-M   'P 1'
_cell_length_a   38.06457788
_cell_length_b   49.15179824
_cell_length_c   28.77411624
_cell_angle_alpha   81.58434495
_cell_angle_beta   79.10660535
_cell_angle_gamma   73.94369957
_symmetry_Int_Tables_number   1
_chemical_formula_structural   NbNi2
_chemical_formula_sum   'Nb576 Ni1152'
_cell_volume   50549.29100216
_cell_formula_units_Z   576
loop_
 _symmetry_equiv_pos_site_id
 _symmetry_equiv_pos_as_xyz
  1  'x, y, z'
loop_
 _atom_site_type_symbol
 _atom_site_label
 _atom_site_symmetry_multiplicity
 _atom_site_fract_x
 _atom_site_fract_y
 _atom_site_fract_z
 _atom_site_occupancy
  Nb  Nb0  1  0.23049333  0.30082400  0.95242800  1.0
  Nb  Nb1  1  0.23049333  0.63415733  0.95242800  1.0
  Nb  Nb2  1  0.23049333  0.96749067  0.95242800  1.0
  Nb  Nb3  1  0.56382667  0.30082400  0.95242800  1.0
  Nb  Nb4  1  0.56382667  0.63415733  0.95242800  1.0
  Nb  Nb5  1  0.56382667  0.96749067  0.95242800  1.0
  Nb  Nb6  1  0.89716000  0.30082400  0.95242800  1.0
  Nb  Nb7  1  0.89716000  0.63415733  0.95242800  1.0
  Nb  Nb8  1  0.89716000  0.96749067  0.95242800  1.0
  Nb  Nb9  1  0.11938222  0.30082400  0.89687244  1.0
  Nb  Nb10  1  0.11938222  0.63415733  0.89687244  1.0
  Nb  Nb11  1  0.11938222  0.96749067  0.89687244  1.0
  Nb  Nb12  1  0.45271556  0.30082400  0.89687244  1.0
  Nb  Nb13  1  0.45271556  0.63415733  0.89687244  1.0
  Nb  Nb14  1  0.45271556  0.96749067  0.89687244  1.0
  Nb  Nb15  1  0.78604889  0.30082400  0.89687244  1.0
  Nb  Nb16  1  0.78604889  0.63415733  0.89687244  1.0
  Nb  Nb17  1  0.78604889  0.96749067  0.89687244  1.0
  Nb  Nb18  1  0.31993156  0.03250933  0.99714711  1.0
  Nb  Nb19  1  0.31993156  0.36584267  0.99714711  1.0
  Nb  Nb20  1  0.31993156  0.69917600  0.99714711  1.0
  Nb  Nb21  1  0.65326489  0.03250933  0.99714711  1.0
  Nb  Nb22  1  0.65326489  0.36584267  0.99714711  1.0
  Nb  Nb23  1  0.65326489  0.69917600  0.99714711  1.0
  Nb  Nb24  1  0.98659822  0.03250933  0.99714711  1.0
  Nb  Nb25  1  0.98659822  0.36584267  0.99714711  1.0
  Nb  Nb26  1  0.98659822  0.69917600  0.99714711  1.0
  Nb  Nb27  1  0.20882044  0.03250933  0.94159156  1.0
  Nb  Nb28  1  0.20882044  0.36584267  0.94159156  1.0
  Nb  Nb29  1  0.20882044  0.69917600  0.94159156  1.0
  Nb  Nb30  1  0.54215378  0.03250933  0.94159156  1.0
  Nb  Nb31  1  0.54215378  0.36584267  0.94159156  1.0
  Nb  Nb32  1  0.54215378  0.69917600  0.94159156  1.0
  Nb  Nb33  1  0.87548711  0.03250933  0.94159156  1.0
  Nb  Nb34  1  0.87548711  0.36584267  0.94159156  1.0
  Nb  Nb35  1  0.87548711  0.69917600  0.94159156  1.0
  Nb  Nb36  1  0.28604889  0.13415733  0.98020578  1.0
  Nb  Nb37  1  0.28604889  0.46749067  0.98020578  1.0
  Nb  Nb38  1  0.28604889  0.80082400  0.98020578  1.0
  Nb  Nb39  1  0.61938222  0.13415733  0.98020578  1.0
  Nb  Nb40  1  0.61938222  0.46749067  0.98020578  1.0
  Nb  Nb41  1  0.61938222  0.80082400  0.98020578  1.0
  Nb  Nb42  1  0.95271556  0.13415733  0.98020578  1.0
  Nb  Nb43  1  0.95271556  0.46749067  0.98020578  1.0
  Nb  Nb44  1  0.95271556  0.80082400  0.98020578  1.0
  Nb  Nb45  1  0.17493778  0.13415733  0.92465022  1.0
  Nb  Nb46  1  0.17493778  0.46749067  0.92465022  1.0
  Nb  Nb47  1  0.17493778  0.80082400  0.92465022  1.0
  Nb  Nb48  1  0.50827111  0.13415733  0.92465022  1.0
  Nb  Nb49  1  0.50827111  0.46749067  0.92465022  1.0
  Nb  Nb50  1  0.50827111  0.80082400  0.92465022  1.0
  Nb  Nb51  1  0.84160444  0.13415733  0.92465022  1.0
  Nb  Nb52  1  0.84160444  0.46749067  0.92465022  1.0
  Nb  Nb53  1  0.84160444  0.80082400  0.92465022  1.0
  Nb  Nb54  1  0.26437600  0.19917600  0.96936933  1.0
  Nb  Nb55  1  0.26437600  0.53250933  0.96936933  1.0
  Nb  Nb56  1  0.26437600  0.86584267  0.96936933  1.0
  Nb  Nb57  1  0.59770933  0.19917600  0.96936933  1.0
  Nb  Nb58  1  0.59770933  0.53250933  0.96936933  1.0
  Nb  Nb59  1  0.59770933  0.86584267  0.96936933  1.0
  Nb  Nb60  1  0.93104267  0.19917600  0.96936933  1.0
  Nb  Nb61  1  0.93104267  0.53250933  0.96936933  1.0
  Nb  Nb62  1  0.93104267  0.86584267  0.96936933  1.0
  Nb  Nb63  1  0.15326489  0.19917600  0.91381378  1.0
  Nb  Nb64  1  0.15326489  0.53250933  0.91381378  1.0
  Nb  Nb65  1  0.15326489  0.86584267  0.91381378  1.0
  Nb  Nb66  1  0.48659822  0.19917600  0.91381378  1.0
  Nb  Nb67  1  0.48659822  0.53250933  0.91381378  1.0
  Nb  Nb68  1  0.48659822  0.86584267  0.91381378  1.0
  Nb  Nb69  1  0.81993156  0.19917600  0.91381378  1.0
  Nb  Nb70  1  0.81993156  0.53250933  0.91381378  1.0
  Nb  Nb71  1  0.81993156  0.86584267  0.91381378  1.0
  Nb  Nb72  1  0.01735293  0.05135633  0.90141335  1.0
  Nb  Nb73  1  0.01735293  0.38468967  0.90141335  1.0
  Nb  Nb74  1  0.01735293  0.71802300  0.90141335  1.0
  Nb  Nb75  1  0.35068626  0.05135633  0.90141335  1.0
  Nb  Nb76  1  0.35068626  0.38468967  0.90141335  1.0
  Nb  Nb77  1  0.35068626  0.71802300  0.90141335  1.0
  Nb  Nb78  1  0.68401959  0.05135633  0.90141335  1.0
  Nb  Nb79  1  0.68401959  0.38468967  0.90141335  1.0
  Nb  Nb80  1  0.68401959  0.71802300  0.90141335  1.0
  Nb  Nb81  1  0.12846404  0.05135633  0.95696891  1.0
  Nb  Nb82  1  0.12846404  0.38468967  0.95696891  1.0
  Nb  Nb83  1  0.12846404  0.71802300  0.95696891  1.0
  Nb  Nb84  1  0.46179737  0.05135633  0.95696891  1.0
  Nb  Nb85  1  0.46179737  0.38468967  0.95696891  1.0
  Nb  Nb86  1  0.46179737  0.71802300  0.95696891  1.0
  Nb  Nb87  1  0.79513070  0.05135633  0.95696891  1.0
  Nb  Nb88  1  0.79513070  0.38468967  0.95696891  1.0
  Nb  Nb89  1  0.79513070  0.71802300  0.95696891  1.0
  Nb  Nb90  1  0.08862752  0.28197700  0.99260620  1.0
  Nb  Nb91  1  0.08862752  0.61531033  0.99260620  1.0
  Nb  Nb92  1  0.08862752  0.94864367  0.99260620  1.0
  Nb  Nb93  1  0.42196085  0.28197700  0.99260620  1.0
  Nb  Nb94  1  0.42196085  0.61531033  0.99260620  1.0
  Nb  Nb95  1  0.42196085  0.94864367  0.99260620  1.0
  Nb  Nb96  1  0.75529419  0.28197700  0.99260620  1.0
  Nb  Nb97  1  0.75529419  0.61531033  0.99260620  1.0
  Nb  Nb98  1  0.75529419  0.94864367  0.99260620  1.0
  Nb  Nb99  1  0.31084974  0.28197700  0.93705065  1.0
  Nb  Nb100  1  0.31084974  0.61531033  0.93705065  1.0
  Nb  Nb101  1  0.31084974  0.94864367  0.93705065  1.0
  Nb  Nb102  1  0.64418307  0.28197700  0.93705065  1.0
  Nb  Nb103  1  0.64418307  0.61531033  0.93705065  1.0
  Nb  Nb104  1  0.64418307  0.94864367  0.93705065  1.0
  Nb  Nb105  1  0.97751641  0.28197700  0.93705065  1.0
  Nb  Nb106  1  0.97751641  0.61531033  0.93705065  1.0
  Nb  Nb107  1  0.97751641  0.94864367  0.93705065  1.0
  Nb  Nb108  1  0.22105663  0.21802300  0.89215409  1.0
  Nb  Nb109  1  0.22105663  0.55135633  0.89215409  1.0
  Nb  Nb110  1  0.22105663  0.88468967  0.89215409  1.0
  Nb  Nb111  1  0.55438996  0.21802300  0.89215409  1.0
  Nb  Nb112  1  0.55438996  0.55135633  0.89215409  1.0
  Nb  Nb113  1  0.55438996  0.88468967  0.89215409  1.0
  Nb  Nb114  1  0.88772330  0.21802300  0.89215409  1.0
  Nb  Nb115  1  0.88772330  0.55135633  0.89215409  1.0
  Nb  Nb116  1  0.88772330  0.88468967  0.89215409  1.0
  Nb  Nb117  1  0.33216774  0.21802300  0.94770965  1.0
  Nb  Nb118  1  0.33216774  0.55135633  0.94770965  1.0
  Nb  Nb119  1  0.33216774  0.88468967  0.94770965  1.0
  Nb  Nb120  1  0.66550107  0.21802300  0.94770965  1.0
  Nb  Nb121  1  0.66550107  0.55135633  0.94770965  1.0
  Nb  Nb122  1  0.66550107  0.88468967  0.94770965  1.0
  Nb  Nb123  1  0.99883441  0.21802300  0.94770965  1.0
  Nb  Nb124  1  0.99883441  0.55135633  0.94770965  1.0
  Nb  Nb125  1  0.99883441  0.88468967  0.94770965  1.0
  Nb  Nb126  1  0.32936826  0.11531033  0.89075435  1.0
  Nb  Nb127  1  0.32936826  0.44864367  0.89075435  1.0
  Nb  Nb128  1  0.32936826  0.78197700  0.89075435  1.0
  Nb  Nb129  1  0.66270159  0.11531033  0.89075435  1.0
  Nb  Nb130  1  0.66270159  0.44864367  0.89075435  1.0
  Nb  Nb131  1  0.66270159  0.78197700  0.89075435  1.0
  Nb  Nb132  1  0.99603493  0.11531033  0.89075435  1.0
  Nb  Nb133  1  0.99603493  0.44864367  0.89075435  1.0
  Nb  Nb134  1  0.99603493  0.78197700  0.89075435  1.0
  Nb  Nb135  1  0.10714604  0.11531033  0.94630991  1.0
  Nb  Nb136  1  0.10714604  0.44864367  0.94630991  1.0
  Nb  Nb137  1  0.10714604  0.78197700  0.94630991  1.0
  Nb  Nb138  1  0.44047937  0.11531033  0.94630991  1.0
  Nb  Nb139  1  0.44047937  0.44864367  0.94630991  1.0
  Nb  Nb140  1  0.44047937  0.78197700  0.94630991  1.0
  Nb  Nb141  1  0.77381270  0.11531033  0.94630991  1.0
  Nb  Nb142  1  0.77381270  0.44864367  0.94630991  1.0
  Nb  Nb143  1  0.77381270  0.78197700  0.94630991  1.0
  Nb  Nb144  1  0.00827111  0.30082400  0.84131689  1.0
  Nb  Nb145  1  0.00827111  0.63415733  0.84131689  1.0
  Nb  Nb146  1  0.00827111  0.96749067  0.84131689  1.0
  Nb  Nb147  1  0.34160444  0.30082400  0.84131689  1.0
  Nb  Nb148  1  0.34160444  0.63415733  0.84131689  1.0
  Nb  Nb149  1  0.34160444  0.96749067  0.84131689  1.0
  Nb  Nb150  1  0.67493778  0.30082400  0.84131689  1.0
  Nb  Nb151  1  0.67493778  0.63415733  0.84131689  1.0
  Nb  Nb152  1  0.67493778  0.96749067  0.84131689  1.0
  Nb  Nb153  1  0.23049333  0.30082400  0.78576133  1.0
  Nb  Nb154  1  0.23049333  0.63415733  0.78576133  1.0
  Nb  Nb155  1  0.23049333  0.96749067  0.78576133  1.0
  Nb  Nb156  1  0.56382667  0.30082400  0.78576133  1.0
  Nb  Nb157  1  0.56382667  0.63415733  0.78576133  1.0
  Nb  Nb158  1  0.56382667  0.96749067  0.78576133  1.0
  Nb  Nb159  1  0.89716000  0.30082400  0.78576133  1.0
  Nb  Nb160  1  0.89716000  0.63415733  0.78576133  1.0
  Nb  Nb161  1  0.89716000  0.96749067  0.78576133  1.0
  Nb  Nb162  1  0.09770933  0.03250933  0.88603600  1.0
  Nb  Nb163  1  0.09770933  0.36584267  0.88603600  1.0
  Nb  Nb164  1  0.09770933  0.69917600  0.88603600  1.0
  Nb  Nb165  1  0.43104267  0.03250933  0.88603600  1.0
  Nb  Nb166  1  0.43104267  0.36584267  0.88603600  1.0
  Nb  Nb167  1  0.43104267  0.69917600  0.88603600  1.0
  Nb  Nb168  1  0.76437600  0.03250933  0.88603600  1.0
  Nb  Nb169  1  0.76437600  0.36584267  0.88603600  1.0
  Nb  Nb170  1  0.76437600  0.69917600  0.88603600  1.0
  Nb  Nb171  1  0.31993156  0.03250933  0.83048044  1.0
  Nb  Nb172  1  0.31993156  0.36584267  0.83048044  1.0
  Nb  Nb173  1  0.31993156  0.69917600  0.83048044  1.0
  Nb  Nb174  1  0.65326489  0.03250933  0.83048044  1.0
  Nb  Nb175  1  0.65326489  0.36584267  0.83048044  1.0
  Nb  Nb176  1  0.65326489  0.69917600  0.83048044  1.0
  Nb  Nb177  1  0.98659822  0.03250933  0.83048044  1.0
  Nb  Nb178  1  0.98659822  0.36584267  0.83048044  1.0
  Nb  Nb179  1  0.98659822  0.69917600  0.83048044  1.0
  Nb  Nb180  1  0.06382667  0.13415733  0.86909467  1.0
  Nb  Nb181  1  0.06382667  0.46749067  0.86909467  1.0
  Nb  Nb182  1  0.06382667  0.80082400  0.86909467  1.0
  Nb  Nb183  1  0.39716000  0.13415733  0.86909467  1.0
  Nb  Nb184  1  0.39716000  0.46749067  0.86909467  1.0
  Nb  Nb185  1  0.39716000  0.80082400  0.86909467  1.0
  Nb  Nb186  1  0.73049333  0.13415733  0.86909467  1.0
  Nb  Nb187  1  0.73049333  0.46749067  0.86909467  1.0
  Nb  Nb188  1  0.73049333  0.80082400  0.86909467  1.0
  Nb  Nb189  1  0.28604889  0.13415733  0.81353911  1.0
  Nb  Nb190  1  0.28604889  0.46749067  0.81353911  1.0
  Nb  Nb191  1  0.28604889  0.80082400  0.81353911  1.0
  Nb  Nb192  1  0.61938222  0.13415733  0.81353911  1.0
  Nb  Nb193  1  0.61938222  0.46749067  0.81353911  1.0
  Nb  Nb194  1  0.61938222  0.80082400  0.81353911  1.0
  Nb  Nb195  1  0.95271556  0.13415733  0.81353911  1.0
  Nb  Nb196  1  0.95271556  0.46749067  0.81353911  1.0
  Nb  Nb197  1  0.95271556  0.80082400  0.81353911  1.0
  Nb  Nb198  1  0.04215378  0.19917600  0.85825822  1.0
  Nb  Nb199  1  0.04215378  0.53250933  0.85825822  1.0
  Nb  Nb200  1  0.04215378  0.86584267  0.85825822  1.0
  Nb  Nb201  1  0.37548711  0.19917600  0.85825822  1.0
  Nb  Nb202  1  0.37548711  0.53250933  0.85825822  1.0
  Nb  Nb203  1  0.37548711  0.86584267  0.85825822  1.0
  Nb  Nb204  1  0.70882044  0.19917600  0.85825822  1.0
  Nb  Nb205  1  0.70882044  0.53250933  0.85825822  1.0
  Nb  Nb206  1  0.70882044  0.86584267  0.85825822  1.0
  Nb  Nb207  1  0.26437600  0.19917600  0.80270267  1.0
  Nb  Nb208  1  0.26437600  0.53250933  0.80270267  1.0
  Nb  Nb209  1  0.26437600  0.86584267  0.80270267  1.0
  Nb  Nb210  1  0.59770933  0.19917600  0.80270267  1.0
  Nb  Nb211  1  0.59770933  0.53250933  0.80270267  1.0
  Nb  Nb212  1  0.59770933  0.86584267  0.80270267  1.0
  Nb  Nb213  1  0.93104267  0.19917600  0.80270267  1.0
  Nb  Nb214  1  0.93104267  0.53250933  0.80270267  1.0
  Nb  Nb215  1  0.93104267  0.86584267  0.80270267  1.0
  Nb  Nb216  1  0.12846404  0.05135633  0.79030224  1.0
  Nb  Nb217  1  0.12846404  0.38468967  0.79030224  1.0
  Nb  Nb218  1  0.12846404  0.71802300  0.79030224  1.0
  Nb  Nb219  1  0.46179737  0.05135633  0.79030224  1.0
  Nb  Nb220  1  0.46179737  0.38468967  0.79030224  1.0
  Nb  Nb221  1  0.46179737  0.71802300  0.79030224  1.0
  Nb  Nb222  1  0.79513070  0.05135633  0.79030224  1.0
  Nb  Nb223  1  0.79513070  0.38468967  0.79030224  1.0
  Nb  Nb224  1  0.79513070  0.71802300  0.79030224  1.0
  Nb  Nb225  1  0.23957515  0.05135633  0.84585780  1.0
  Nb  Nb226  1  0.23957515  0.38468967  0.84585780  1.0
  Nb  Nb227  1  0.23957515  0.71802300  0.84585780  1.0
  Nb  Nb228  1  0.57290848  0.05135633  0.84585780  1.0
  Nb  Nb229  1  0.57290848  0.38468967  0.84585780  1.0
  Nb  Nb230  1  0.57290848  0.71802300  0.84585780  1.0
  Nb  Nb231  1  0.90624181  0.05135633  0.84585780  1.0
  Nb  Nb232  1  0.90624181  0.38468967  0.84585780  1.0
  Nb  Nb233  1  0.90624181  0.71802300  0.84585780  1.0
  Nb  Nb234  1  0.19973863  0.28197700  0.88149509  1.0
  Nb  Nb235  1  0.19973863  0.61531033  0.88149509  1.0
  Nb  Nb236  1  0.19973863  0.94864367  0.88149509  1.0
  Nb  Nb237  1  0.53307196  0.28197700  0.88149509  1.0
  Nb  Nb238  1  0.53307196  0.61531033  0.88149509  1.0
  Nb  Nb239  1  0.53307196  0.94864367  0.88149509  1.0
  Nb  Nb240  1  0.86640530  0.28197700  0.88149509  1.0
  Nb  Nb241  1  0.86640530  0.61531033  0.88149509  1.0
  Nb  Nb242  1  0.86640530  0.94864367  0.88149509  1.0
  Nb  Nb243  1  0.08862752  0.28197700  0.82593954  1.0
  Nb  Nb244  1  0.08862752  0.61531033  0.82593954  1.0
  Nb  Nb245  1  0.08862752  0.94864367  0.82593954  1.0
  Nb  Nb246  1  0.42196085  0.28197700  0.82593954  1.0
  Nb  Nb247  1  0.42196085  0.61531033  0.82593954  1.0
  Nb  Nb248  1  0.42196085  0.94864367  0.82593954  1.0
  Nb  Nb249  1  0.75529419  0.28197700  0.82593954  1.0
  Nb  Nb250  1  0.75529419  0.61531033  0.82593954  1.0
  Nb  Nb251  1  0.75529419  0.94864367  0.82593954  1.0
  Nb  Nb252  1  0.33216774  0.21802300  0.78104298  1.0
  Nb  Nb253  1  0.33216774  0.55135633  0.78104298  1.0
  Nb  Nb254  1  0.33216774  0.88468967  0.78104298  1.0
  Nb  Nb255  1  0.66550107  0.21802300  0.78104298  1.0
  Nb  Nb256  1  0.66550107  0.55135633  0.78104298  1.0
  Nb  Nb257  1  0.66550107  0.88468967  0.78104298  1.0
  Nb  Nb258  1  0.99883441  0.21802300  0.78104298  1.0
  Nb  Nb259  1  0.99883441  0.55135633  0.78104298  1.0
  Nb  Nb260  1  0.99883441  0.88468967  0.78104298  1.0
  Nb  Nb261  1  0.10994552  0.21802300  0.83659854  1.0
  Nb  Nb262  1  0.10994552  0.55135633  0.83659854  1.0
  Nb  Nb263  1  0.10994552  0.88468967  0.83659854  1.0
  Nb  Nb264  1  0.44327885  0.21802300  0.83659854  1.0
  Nb  Nb265  1  0.44327885  0.55135633  0.83659854  1.0
  Nb  Nb266  1  0.44327885  0.88468967  0.83659854  1.0
  Nb  Nb267  1  0.77661219  0.21802300  0.83659854  1.0
  Nb  Nb268  1  0.77661219  0.55135633  0.83659854  1.0
  Nb  Nb269  1  0.77661219  0.88468967  0.83659854  1.0
  Nb  Nb270  1  0.10714604  0.11531033  0.77964324  1.0
  Nb  Nb271  1  0.10714604  0.44864367  0.77964324  1.0
  Nb  Nb272  1  0.10714604  0.78197700  0.77964324  1.0
  Nb  Nb273  1  0.44047937  0.11531033  0.77964324  1.0
  Nb  Nb274  1  0.44047937  0.44864367  0.77964324  1.0
  Nb  Nb275  1  0.44047937  0.78197700  0.77964324  1.0
  Nb  Nb276  1  0.77381270  0.11531033  0.77964324  1.0
  Nb  Nb277  1  0.77381270  0.44864367  0.77964324  1.0
  Nb  Nb278  1  0.77381270  0.78197700  0.77964324  1.0
  Nb  Nb279  1  0.21825715  0.11531033  0.83519880  1.0
  Nb  Nb280  1  0.21825715  0.44864367  0.83519880  1.0
  Nb  Nb281  1  0.21825715  0.78197700  0.83519880  1.0
  Nb  Nb282  1  0.55159048  0.11531033  0.83519880  1.0
  Nb  Nb283  1  0.55159048  0.44864367  0.83519880  1.0
  Nb  Nb284  1  0.55159048  0.78197700  0.83519880  1.0
  Nb  Nb285  1  0.88492381  0.11531033  0.83519880  1.0
  Nb  Nb286  1  0.88492381  0.44864367  0.83519880  1.0
  Nb  Nb287  1  0.88492381  0.78197700  0.83519880  1.0
  Nb  Nb288  1  0.11938222  0.30082400  0.73020578  1.0
  Nb  Nb289  1  0.11938222  0.63415733  0.73020578  1.0
  Nb  Nb290  1  0.11938222  0.96749067  0.73020578  1.0
  Nb  Nb291  1  0.45271556  0.30082400  0.73020578  1.0
  Nb  Nb292  1  0.45271556  0.63415733  0.73020578  1.0
  Nb  Nb293  1  0.45271556  0.96749067  0.73020578  1.0
  Nb  Nb294  1  0.78604889  0.30082400  0.73020578  1.0
  Nb  Nb295  1  0.78604889  0.63415733  0.73020578  1.0
  Nb  Nb296  1  0.78604889  0.96749067  0.73020578  1.0
  Nb  Nb297  1  0.00827111  0.30082400  0.67465022  1.0
  Nb  Nb298  1  0.00827111  0.63415733  0.67465022  1.0
  Nb  Nb299  1  0.00827111  0.96749067  0.67465022  1.0
  Nb  Nb300  1  0.34160444  0.30082400  0.67465022  1.0
  Nb  Nb301  1  0.34160444  0.63415733  0.67465022  1.0
  Nb  Nb302  1  0.34160444  0.96749067  0.67465022  1.0
  Nb  Nb303  1  0.67493778  0.30082400  0.67465022  1.0
  Nb  Nb304  1  0.67493778  0.63415733  0.67465022  1.0
  Nb  Nb305  1  0.67493778  0.96749067  0.67465022  1.0
  Nb  Nb306  1  0.20882044  0.03250933  0.77492489  1.0
  Nb  Nb307  1  0.20882044  0.36584267  0.77492489  1.0
  Nb  Nb308  1  0.20882044  0.69917600  0.77492489  1.0
  Nb  Nb309  1  0.54215378  0.03250933  0.77492489  1.0
  Nb  Nb310  1  0.54215378  0.36584267  0.77492489  1.0
  Nb  Nb311  1  0.54215378  0.69917600  0.77492489  1.0
  Nb  Nb312  1  0.87548711  0.03250933  0.77492489  1.0
  Nb  Nb313  1  0.87548711  0.36584267  0.77492489  1.0
  Nb  Nb314  1  0.87548711  0.69917600  0.77492489  1.0
  Nb  Nb315  1  0.09770933  0.03250933  0.71936933  1.0
  Nb  Nb316  1  0.09770933  0.36584267  0.71936933  1.0
  Nb  Nb317  1  0.09770933  0.69917600  0.71936933  1.0
  Nb  Nb318  1  0.43104267  0.03250933  0.71936933  1.0
  Nb  Nb319  1  0.43104267  0.36584267  0.71936933  1.0
  Nb  Nb320  1  0.43104267  0.69917600  0.71936933  1.0
  Nb  Nb321  1  0.76437600  0.03250933  0.71936933  1.0
  Nb  Nb322  1  0.76437600  0.36584267  0.71936933  1.0
  Nb  Nb323  1  0.76437600  0.69917600  0.71936933  1.0
  Nb  Nb324  1  0.17493778  0.13415733  0.75798356  1.0
  Nb  Nb325  1  0.17493778  0.46749067  0.75798356  1.0
  Nb  Nb326  1  0.17493778  0.80082400  0.75798356  1.0
  Nb  Nb327  1  0.50827111  0.13415733  0.75798356  1.0
  Nb  Nb328  1  0.50827111  0.46749067  0.75798356  1.0
  Nb  Nb329  1  0.50827111  0.80082400  0.75798356  1.0
  Nb  Nb330  1  0.84160444  0.13415733  0.75798356  1.0
  Nb  Nb331  1  0.84160444  0.46749067  0.75798356  1.0
  Nb  Nb332  1  0.84160444  0.80082400  0.75798356  1.0
  Nb  Nb333  1  0.06382667  0.13415733  0.70242800  1.0
  Nb  Nb334  1  0.06382667  0.46749067  0.70242800  1.0
  Nb  Nb335  1  0.06382667  0.80082400  0.70242800  1.0
  Nb  Nb336  1  0.39716000  0.13415733  0.70242800  1.0
  Nb  Nb337  1  0.39716000  0.46749067  0.70242800  1.0
  Nb  Nb338  1  0.39716000  0.80082400  0.70242800  1.0
  Nb  Nb339  1  0.73049333  0.13415733  0.70242800  1.0
  Nb  Nb340  1  0.73049333  0.46749067  0.70242800  1.0
  Nb  Nb341  1  0.73049333  0.80082400  0.70242800  1.0
  Nb  Nb342  1  0.15326489  0.19917600  0.74714711  1.0
  Nb  Nb343  1  0.15326489  0.53250933  0.74714711  1.0
  Nb  Nb344  1  0.15326489  0.86584267  0.74714711  1.0
  Nb  Nb345  1  0.48659822  0.19917600  0.74714711  1.0
  Nb  Nb346  1  0.48659822  0.53250933  0.74714711  1.0
  Nb  Nb347  1  0.48659822  0.86584267  0.74714711  1.0
  Nb  Nb348  1  0.81993156  0.19917600  0.74714711  1.0
  Nb  Nb349  1  0.81993156  0.53250933  0.74714711  1.0
  Nb  Nb350  1  0.81993156  0.86584267  0.74714711  1.0
  Nb  Nb351  1  0.04215378  0.19917600  0.69159156  1.0
  Nb  Nb352  1  0.04215378  0.53250933  0.69159156  1.0
  Nb  Nb353  1  0.04215378  0.86584267  0.69159156  1.0
  Nb  Nb354  1  0.37548711  0.19917600  0.69159156  1.0
  Nb  Nb355  1  0.37548711  0.53250933  0.69159156  1.0
  Nb  Nb356  1  0.37548711  0.86584267  0.69159156  1.0
  Nb  Nb357  1  0.70882044  0.19917600  0.69159156  1.0
  Nb  Nb358  1  0.70882044  0.53250933  0.69159156  1.0
  Nb  Nb359  1  0.70882044  0.86584267  0.69159156  1.0
  Nb  Nb360  1  0.23957515  0.05135633  0.67919113  1.0
  Nb  Nb361  1  0.23957515  0.38468967  0.67919113  1.0
  Nb  Nb362  1  0.23957515  0.71802300  0.67919113  1.0
  Nb  Nb363  1  0.57290848  0.05135633  0.67919113  1.0
  Nb  Nb364  1  0.57290848  0.38468967  0.67919113  1.0
  Nb  Nb365  1  0.57290848  0.71802300  0.67919113  1.0
  Nb  Nb366  1  0.90624181  0.05135633  0.67919113  1.0
  Nb  Nb367  1  0.90624181  0.38468967  0.67919113  1.0
  Nb  Nb368  1  0.90624181  0.71802300  0.67919113  1.0
  Nb  Nb369  1  0.01735293  0.05135633  0.73474669  1.0
  Nb  Nb370  1  0.01735293  0.38468967  0.73474669  1.0
  Nb  Nb371  1  0.01735293  0.71802300  0.73474669  1.0
  Nb  Nb372  1  0.35068626  0.05135633  0.73474669  1.0
  Nb  Nb373  1  0.35068626  0.38468967  0.73474669  1.0
  Nb  Nb374  1  0.35068626  0.71802300  0.73474669  1.0
  Nb  Nb375  1  0.68401959  0.05135633  0.73474669  1.0
  Nb  Nb376  1  0.68401959  0.38468967  0.73474669  1.0
  Nb  Nb377  1  0.68401959  0.71802300  0.73474669  1.0
  Nb  Nb378  1  0.31084974  0.28197700  0.77038398  1.0
  Nb  Nb379  1  0.31084974  0.61531033  0.77038398  1.0
  Nb  Nb380  1  0.31084974  0.94864367  0.77038398  1.0
  Nb  Nb381  1  0.64418307  0.28197700  0.77038398  1.0
  Nb  Nb382  1  0.64418307  0.61531033  0.77038398  1.0
  Nb  Nb383  1  0.64418307  0.94864367  0.77038398  1.0
  Nb  Nb384  1  0.97751641  0.28197700  0.77038398  1.0
  Nb  Nb385  1  0.97751641  0.61531033  0.77038398  1.0
  Nb  Nb386  1  0.97751641  0.94864367  0.77038398  1.0
  Nb  Nb387  1  0.19973863  0.28197700  0.71482843  1.0
  Nb  Nb388  1  0.19973863  0.61531033  0.71482843  1.0
  Nb  Nb389  1  0.19973863  0.94864367  0.71482843  1.0
  Nb  Nb390  1  0.53307196  0.28197700  0.71482843  1.0
  Nb  Nb391  1  0.53307196  0.61531033  0.71482843  1.0
  Nb  Nb392  1  0.53307196  0.94864367  0.71482843  1.0
  Nb  Nb393  1  0.86640530  0.28197700  0.71482843  1.0
  Nb  Nb394  1  0.86640530  0.61531033  0.71482843  1.0
  Nb  Nb395  1  0.86640530  0.94864367  0.71482843  1.0
  Nb  Nb396  1  0.10994552  0.21802300  0.66993187  1.0
  Nb  Nb397  1  0.10994552  0.55135633  0.66993187  1.0
  Nb  Nb398  1  0.10994552  0.88468967  0.66993187  1.0
  Nb  Nb399  1  0.44327885  0.21802300  0.66993187  1.0
  Nb  Nb400  1  0.44327885  0.55135633  0.66993187  1.0
  Nb  Nb401  1  0.44327885  0.88468967  0.66993187  1.0
  Nb  Nb402  1  0.77661219  0.21802300  0.66993187  1.0
  Nb  Nb403  1  0.77661219  0.55135633  0.66993187  1.0
  Nb  Nb404  1  0.77661219  0.88468967  0.66993187  1.0
  Nb  Nb405  1  0.22105663  0.21802300  0.72548743  1.0
  Nb  Nb406  1  0.22105663  0.55135633  0.72548743  1.0
  Nb  Nb407  1  0.22105663  0.88468967  0.72548743  1.0
  Nb  Nb408  1  0.55438996  0.21802300  0.72548743  1.0
  Nb  Nb409  1  0.55438996  0.55135633  0.72548743  1.0
  Nb  Nb410  1  0.55438996  0.88468967  0.72548743  1.0
  Nb  Nb411  1  0.88772330  0.21802300  0.72548743  1.0
  Nb  Nb412  1  0.88772330  0.55135633  0.72548743  1.0
  Nb  Nb413  1  0.88772330  0.88468967  0.72548743  1.0
  Nb  Nb414  1  0.21825715  0.11531033  0.66853213  1.0
  Nb  Nb415  1  0.21825715  0.44864367  0.66853213  1.0
  Nb  Nb416  1  0.21825715  0.78197700  0.66853213  1.0
  Nb  Nb417  1  0.55159048  0.11531033  0.66853213  1.0
  Nb  Nb418  1  0.55159048  0.44864367  0.66853213  1.0
  Nb  Nb419  1  0.55159048  0.78197700  0.66853213  1.0
  Nb  Nb420  1  0.88492381  0.11531033  0.66853213  1.0
  Nb  Nb421  1  0.88492381  0.44864367  0.66853213  1.0
  Nb  Nb422  1  0.88492381  0.78197700  0.66853213  1.0
  Nb  Nb423  1  0.32936826  0.11531033  0.72408769  1.0
  Nb  Nb424  1  0.32936826  0.44864367  0.72408769  1.0
  Nb  Nb425  1  0.32936826  0.78197700  0.72408769  1.0
  Nb  Nb426  1  0.66270159  0.11531033  0.72408769  1.0
  Nb  Nb427  1  0.66270159  0.44864367  0.72408769  1.0
  Nb  Nb428  1  0.66270159  0.78197700  0.72408769  1.0
  Nb  Nb429  1  0.99603493  0.11531033  0.72408769  1.0
  Nb  Nb430  1  0.99603493  0.44864367  0.72408769  1.0
  Nb  Nb431  1  0.99603493  0.78197700  0.72408769  1.0
  Nb  Nb432  1  0.23049333  0.30082400  0.61909467  1.0
  Nb  Nb433  1  0.23049333  0.63415733  0.61909467  1.0
  Nb  Nb434  1  0.23049333  0.96749067  0.61909467  1.0
  Nb  Nb435  1  0.56382667  0.30082400  0.61909467  1.0
  Nb  Nb436  1  0.56382667  0.63415733  0.61909467  1.0
  Nb  Nb437  1  0.56382667  0.96749067  0.61909467  1.0
  Nb  Nb438  1  0.89716000  0.30082400  0.61909467  1.0
  Nb  Nb439  1  0.89716000  0.63415733  0.61909467  1.0
  Nb  Nb440  1  0.89716000  0.96749067  0.61909467  1.0
  Nb  Nb441  1  0.11938222  0.30082400  0.56353911  1.0
  Nb  Nb442  1  0.11938222  0.63415733  0.56353911  1.0
  Nb  Nb443  1  0.11938222  0.96749067  0.56353911  1.0
  Nb  Nb444  1  0.45271556  0.30082400  0.56353911  1.0
  Nb  Nb445  1  0.45271556  0.63415733  0.56353911  1.0
  Nb  Nb446  1  0.45271556  0.96749067  0.56353911  1.0
  Nb  Nb447  1  0.78604889  0.30082400  0.56353911  1.0
  Nb  Nb448  1  0.78604889  0.63415733  0.56353911  1.0
  Nb  Nb449  1  0.78604889  0.96749067  0.56353911  1.0
  Nb  Nb450  1  0.31993156  0.03250933  0.66381378  1.0
  Nb  Nb451  1  0.31993156  0.36584267  0.66381378  1.0
  Nb  Nb452  1  0.31993156  0.69917600  0.66381378  1.0
  Nb  Nb453  1  0.65326489  0.03250933  0.66381378  1.0
  Nb  Nb454  1  0.65326489  0.36584267  0.66381378  1.0
  Nb  Nb455  1  0.65326489  0.69917600  0.66381378  1.0
  Nb  Nb456  1  0.98659822  0.03250933  0.66381378  1.0
  Nb  Nb457  1  0.98659822  0.36584267  0.66381378  1.0
  Nb  Nb458  1  0.98659822  0.69917600  0.66381378  1.0
  Nb  Nb459  1  0.20882044  0.03250933  0.60825822  1.0
  Nb  Nb460  1  0.20882044  0.36584267  0.60825822  1.0
  Nb  Nb461  1  0.20882044  0.69917600  0.60825822  1.0
  Nb  Nb462  1  0.54215378  0.03250933  0.60825822  1.0
  Nb  Nb463  1  0.54215378  0.36584267  0.60825822  1.0
  Nb  Nb464  1  0.54215378  0.69917600  0.60825822  1.0
  Nb  Nb465  1  0.87548711  0.03250933  0.60825822  1.0
  Nb  Nb466  1  0.87548711  0.36584267  0.60825822  1.0
  Nb  Nb467  1  0.87548711  0.69917600  0.60825822  1.0
  Nb  Nb468  1  0.28604889  0.13415733  0.64687244  1.0
  Nb  Nb469  1  0.28604889  0.46749067  0.64687244  1.0
  Nb  Nb470  1  0.28604889  0.80082400  0.64687244  1.0
  Nb  Nb471  1  0.61938222  0.13415733  0.64687244  1.0
  Nb  Nb472  1  0.61938222  0.46749067  0.64687244  1.0
  Nb  Nb473  1  0.61938222  0.80082400  0.64687244  1.0
  Nb  Nb474  1  0.95271556  0.13415733  0.64687244  1.0
  Nb  Nb475  1  0.95271556  0.46749067  0.64687244  1.0
  Nb  Nb476  1  0.95271556  0.80082400  0.64687244  1.0
  Nb  Nb477  1  0.17493778  0.13415733  0.59131689  1.0
  Nb  Nb478  1  0.17493778  0.46749067  0.59131689  1.0
  Nb  Nb479  1  0.17493778  0.80082400  0.59131689  1.0
  Nb  Nb480  1  0.50827111  0.13415733  0.59131689  1.0
  Nb  Nb481  1  0.50827111  0.46749067  0.59131689  1.0
  Nb  Nb482  1  0.50827111  0.80082400  0.59131689  1.0
  Nb  Nb483  1  0.84160444  0.13415733  0.59131689  1.0
  Nb  Nb484  1  0.84160444  0.46749067  0.59131689  1.0
  Nb  Nb485  1  0.84160444  0.80082400  0.59131689  1.0
  Nb  Nb486  1  0.26437600  0.19917600  0.63603600  1.0
  Nb  Nb487  1  0.26437600  0.53250933  0.63603600  1.0
  Nb  Nb488  1  0.26437600  0.86584267  0.63603600  1.0
  Nb  Nb489  1  0.59770933  0.19917600  0.63603600  1.0
  Nb  Nb490  1  0.59770933  0.53250933  0.63603600  1.0
  Nb  Nb491  1  0.59770933  0.86584267  0.63603600  1.0
  Nb  Nb492  1  0.93104267  0.19917600  0.63603600  1.0
  Nb  Nb493  1  0.93104267  0.53250933  0.63603600  1.0
  Nb  Nb494  1  0.93104267  0.86584267  0.63603600  1.0
  Nb  Nb495  1  0.15326489  0.19917600  0.58048044  1.0
  Nb  Nb496  1  0.15326489  0.53250933  0.58048044  1.0
  Nb  Nb497  1  0.15326489  0.86584267  0.58048044  1.0
  Nb  Nb498  1  0.48659822  0.19917600  0.58048044  1.0
  Nb  Nb499  1  0.48659822  0.53250933  0.58048044  1.0
  Nb  Nb500  1  0.48659822  0.86584267  0.58048044  1.0
  Nb  Nb501  1  0.81993156  0.19917600  0.58048044  1.0
  Nb  Nb502  1  0.81993156  0.53250933  0.58048044  1.0
  Nb  Nb503  1  0.81993156  0.86584267  0.58048044  1.0
  Nb  Nb504  1  0.01735293  0.05135633  0.56808002  1.0
  Nb  Nb505  1  0.01735293  0.38468967  0.56808002  1.0
  Nb  Nb506  1  0.01735293  0.71802300  0.56808002  1.0
  Nb  Nb507  1  0.35068626  0.05135633  0.56808002  1.0
  Nb  Nb508  1  0.35068626  0.38468967  0.56808002  1.0
  Nb  Nb509  1  0.35068626  0.71802300  0.56808002  1.0
  Nb  Nb510  1  0.68401959  0.05135633  0.56808002  1.0
  Nb  Nb511  1  0.68401959  0.38468967  0.56808002  1.0
  Nb  Nb512  1  0.68401959  0.71802300  0.56808002  1.0
  Nb  Nb513  1  0.12846404  0.05135633  0.62363557  1.0
  Nb  Nb514  1  0.12846404  0.38468967  0.62363557  1.0
  Nb  Nb515  1  0.12846404  0.71802300  0.62363557  1.0
  Nb  Nb516  1  0.46179737  0.05135633  0.62363557  1.0
  Nb  Nb517  1  0.46179737  0.38468967  0.62363557  1.0
  Nb  Nb518  1  0.46179737  0.71802300  0.62363557  1.0
  Nb  Nb519  1  0.79513070  0.05135633  0.62363557  1.0
  Nb  Nb520  1  0.79513070  0.38468967  0.62363557  1.0
  Nb  Nb521  1  0.79513070  0.71802300  0.62363557  1.0
  Nb  Nb522  1  0.08862752  0.28197700  0.65927287  1.0
  Nb  Nb523  1  0.08862752  0.61531033  0.65927287  1.0
  Nb  Nb524  1  0.08862752  0.94864367  0.65927287  1.0
  Nb  Nb525  1  0.42196085  0.28197700  0.65927287  1.0
  Nb  Nb526  1  0.42196085  0.61531033  0.65927287  1.0
  Nb  Nb527  1  0.42196085  0.94864367  0.65927287  1.0
  Nb  Nb528  1  0.75529419  0.28197700  0.65927287  1.0
  Nb  Nb529  1  0.75529419  0.61531033  0.65927287  1.0
  Nb  Nb530  1  0.75529419  0.94864367  0.65927287  1.0
  Nb  Nb531  1  0.31084974  0.28197700  0.60371731  1.0
  Nb  Nb532  1  0.31084974  0.61531033  0.60371731  1.0
  Nb  Nb533  1  0.31084974  0.94864367  0.60371731  1.0
  Nb  Nb534  1  0.64418307  0.28197700  0.60371731  1.0
  Nb  Nb535  1  0.64418307  0.61531033  0.60371731  1.0
  Nb  Nb536  1  0.64418307  0.94864367  0.60371731  1.0
  Nb  Nb537  1  0.97751641  0.28197700  0.60371731  1.0
  Nb  Nb538  1  0.97751641  0.61531033  0.60371731  1.0
  Nb  Nb539  1  0.97751641  0.94864367  0.60371731  1.0
  Nb  Nb540  1  0.22105663  0.21802300  0.55882076  1.0
  Nb  Nb541  1  0.22105663  0.55135633  0.55882076  1.0
  Nb  Nb542  1  0.22105663  0.88468967  0.55882076  1.0
  Nb  Nb543  1  0.55438996  0.21802300  0.55882076  1.0
  Nb  Nb544  1  0.55438996  0.55135633  0.55882076  1.0
  Nb  Nb545  1  0.55438996  0.88468967  0.55882076  1.0
  Nb  Nb546  1  0.88772330  0.21802300  0.55882076  1.0
  Nb  Nb547  1  0.88772330  0.55135633  0.55882076  1.0
  Nb  Nb548  1  0.88772330  0.88468967  0.55882076  1.0
  Nb  Nb549  1  0.33216774  0.21802300  0.61437631  1.0
  Nb  Nb550  1  0.33216774  0.55135633  0.61437631  1.0
  Nb  Nb551  1  0.33216774  0.88468967  0.61437631  1.0
  Nb  Nb552  1  0.66550107  0.21802300  0.61437631  1.0
  Nb  Nb553  1  0.66550107  0.55135633  0.61437631  1.0
  Nb  Nb554  1  0.66550107  0.88468967  0.61437631  1.0
  Nb  Nb555  1  0.99883441  0.21802300  0.61437631  1.0
  Nb  Nb556  1  0.99883441  0.55135633  0.61437631  1.0
  Nb  Nb557  1  0.99883441  0.88468967  0.61437631  1.0
  Nb  Nb558  1  0.32936826  0.11531033  0.55742102  1.0
  Nb  Nb559  1  0.32936826  0.44864367  0.55742102  1.0
  Nb  Nb560  1  0.32936826  0.78197700  0.55742102  1.0
  Nb  Nb561  1  0.66270159  0.11531033  0.55742102  1.0
  Nb  Nb562  1  0.66270159  0.44864367  0.55742102  1.0
  Nb  Nb563  1  0.66270159  0.78197700  0.55742102  1.0
  Nb  Nb564  1  0.99603493  0.11531033  0.55742102  1.0
  Nb  Nb565  1  0.99603493  0.44864367  0.55742102  1.0
  Nb  Nb566  1  0.99603493  0.78197700  0.55742102  1.0
  Nb  Nb567  1  0.10714604  0.11531033  0.61297657  1.0
  Nb  Nb568  1  0.10714604  0.44864367  0.61297657  1.0
  Nb  Nb569  1  0.10714604  0.78197700  0.61297657  1.0
  Nb  Nb570  1  0.44047937  0.11531033  0.61297657  1.0
  Nb  Nb571  1  0.44047937  0.44864367  0.61297657  1.0
  Nb  Nb572  1  0.44047937  0.78197700  0.61297657  1.0
  Nb  Nb573  1  0.77381270  0.11531033  0.61297657  1.0
  Nb  Nb574  1  0.77381270  0.44864367  0.61297657  1.0
  Nb  Nb575  1  0.77381270  0.78197700  0.61297657  1.0
  Ni  Ni576  1  0.15937093  0.29196900  0.97242235  1.0
  Ni  Ni577  1  0.15937093  0.62530233  0.97242235  1.0
  Ni  Ni578  1  0.15937093  0.95863567  0.97242235  1.0
  Ni  Ni579  1  0.49270426  0.29196900  0.97242235  1.0
  Ni  Ni580  1  0.49270426  0.62530233  0.97242235  1.0
  Ni  Ni581  1  0.49270426  0.95863567  0.97242235  1.0
  Ni  Ni582  1  0.82603759  0.29196900  0.97242235  1.0
  Ni  Ni583  1  0.82603759  0.62530233  0.97242235  1.0
  Ni  Ni584  1  0.82603759  0.95863567  0.97242235  1.0
  Ni  Ni585  1  0.04825981  0.29196900  0.91686680  1.0
  Ni  Ni586  1  0.04825981  0.62530233  0.91686680  1.0
  Ni  Ni587  1  0.04825981  0.95863567  0.91686680  1.0
  Ni  Ni588  1  0.38159315  0.29196900  0.91686680  1.0
  Ni  Ni589  1  0.38159315  0.62530233  0.91686680  1.0
  Ni  Ni590  1  0.38159315  0.95863567  0.91686680  1.0
  Ni  Ni591  1  0.71492648  0.29196900  0.91686680  1.0
  Ni  Ni592  1  0.71492648  0.62530233  0.91686680  1.0
  Ni  Ni593  1  0.71492648  0.95863567  0.91686680  1.0
  Ni  Ni594  1  0.27994285  0.04136433  0.92159720  1.0
  Ni  Ni595  1  0.27994285  0.37469767  0.92159720  1.0
  Ni  Ni596  1  0.27994285  0.70803100  0.92159720  1.0
  Ni  Ni597  1  0.61327619  0.04136433  0.92159720  1.0
  Ni  Ni598  1  0.61327619  0.37469767  0.92159720  1.0
  Ni  Ni599  1  0.61327619  0.70803100  0.92159720  1.0
  Ni  Ni600  1  0.94660952  0.04136433  0.92159720  1.0
  Ni  Ni601  1  0.94660952  0.37469767  0.92159720  1.0
  Ni  Ni602  1  0.94660952  0.70803100  0.92159720  1.0
  Ni  Ni603  1  0.05772063  0.04136433  0.97715276  1.0
  Ni  Ni604  1  0.05772063  0.37469767  0.97715276  1.0
  Ni  Ni605  1  0.05772063  0.70803100  0.97715276  1.0
  Ni  Ni606  1  0.39105396  0.04136433  0.97715276  1.0
  Ni  Ni607  1  0.39105396  0.37469767  0.97715276  1.0
  Ni  Ni608  1  0.39105396  0.70803100  0.97715276  1.0
  Ni  Ni609  1  0.72438730  0.04136433  0.97715276  1.0
  Ni  Ni610  1  0.72438730  0.37469767  0.97715276  1.0
  Ni  Ni611  1  0.72438730  0.70803100  0.97715276  1.0
  Ni  Ni612  1  0.25196352  0.12530233  0.90760754  1.0
  Ni  Ni613  1  0.25196352  0.45863567  0.90760754  1.0
  Ni  Ni614  1  0.25196352  0.79196900  0.90760754  1.0
  Ni  Ni615  1  0.58529685  0.12530233  0.90760754  1.0
  Ni  Ni616  1  0.58529685  0.45863567  0.90760754  1.0
  Ni  Ni617  1  0.58529685  0.79196900  0.90760754  1.0
  Ni  Ni618  1  0.91863019  0.12530233  0.90760754  1.0
  Ni  Ni619  1  0.91863019  0.45863567  0.90760754  1.0
  Ni  Ni620  1  0.91863019  0.79196900  0.90760754  1.0
  Ni  Ni621  1  0.02974130  0.12530233  0.96316309  1.0
  Ni  Ni622  1  0.02974130  0.45863567  0.96316309  1.0
  Ni  Ni623  1  0.02974130  0.79196900  0.96316309  1.0
  Ni  Ni624  1  0.36307463  0.12530233  0.96316309  1.0
  Ni  Ni625  1  0.36307463  0.45863567  0.96316309  1.0
  Ni  Ni626  1  0.36307463  0.79196900  0.96316309  1.0
  Ni  Ni627  1  0.69640796  0.12530233  0.96316309  1.0
  Ni  Ni628  1  0.69640796  0.45863567  0.96316309  1.0
  Ni  Ni629  1  0.69640796  0.79196900  0.96316309  1.0
  Ni  Ni630  1  0.18735026  0.20803100  0.98641202  1.0
  Ni  Ni631  1  0.18735026  0.54136433  0.98641202  1.0
  Ni  Ni632  1  0.18735026  0.87469767  0.98641202  1.0
  Ni  Ni633  1  0.52068359  0.20803100  0.98641202  1.0
  Ni  Ni634  1  0.52068359  0.54136433  0.98641202  1.0
  Ni  Ni635  1  0.52068359  0.87469767  0.98641202  1.0
  Ni  Ni636  1  0.85401693  0.20803100  0.98641202  1.0
  Ni  Ni637  1  0.85401693  0.54136433  0.98641202  1.0
  Ni  Ni638  1  0.85401693  0.87469767  0.98641202  1.0
  Ni  Ni639  1  0.07623915  0.20803100  0.93085646  1.0
  Ni  Ni640  1  0.07623915  0.54136433  0.93085646  1.0
  Ni  Ni641  1  0.07623915  0.87469767  0.93085646  1.0
  Ni  Ni642  1  0.40957248  0.20803100  0.93085646  1.0
  Ni  Ni643  1  0.40957248  0.54136433  0.93085646  1.0
  Ni  Ni644  1  0.40957248  0.87469767  0.93085646  1.0
  Ni  Ni645  1  0.74290581  0.20803100  0.93085646  1.0
  Ni  Ni646  1  0.74290581  0.54136433  0.93085646  1.0
  Ni  Ni647  1  0.74290581  0.87469767  0.93085646  1.0
  Ni  Ni648  1  0.05299022  0.33333333  0.94700978  1.0
  Ni  Ni649  1  0.05299022  0.66666667  0.94700978  1.0
  Ni  Ni650  1  0.05299022  0.00000000  0.94700978  1.0
  Ni  Ni651  1  0.38632356  0.33333333  0.94700978  1.0
  Ni  Ni652  1  0.38632356  0.66666667  0.94700978  1.0
  Ni  Ni653  1  0.38632356  0.00000000  0.94700978  1.0
  Ni  Ni654  1  0.71965689  0.33333333  0.94700978  1.0
  Ni  Ni655  1  0.71965689  0.66666667  0.94700978  1.0
  Ni  Ni656  1  0.71965689  0.00000000  0.94700978  1.0
  Ni  Ni657  1  0.27521244  0.33333333  0.89145422  1.0
  Ni  Ni658  1  0.27521244  0.66666667  0.89145422  1.0
  Ni  Ni659  1  0.27521244  0.00000000  0.89145422  1.0
  Ni  Ni660  1  0.60854578  0.33333333  0.89145422  1.0
  Ni  Ni661  1  0.60854578  0.66666667  0.89145422  1.0
  Ni  Ni662  1  0.60854578  0.00000000  0.89145422  1.0
  Ni  Ni663  1  0.94187911  0.33333333  0.89145422  1.0
  Ni  Ni664  1  0.94187911  0.66666667  0.89145422  1.0
  Ni  Ni665  1  0.94187911  0.00000000  0.89145422  1.0
  Ni  Ni666  1  0.27521244  0.00000000  0.97478756  1.0
  Ni  Ni667  1  0.27521244  0.33333333  0.97478756  1.0
  Ni  Ni668  1  0.27521244  0.66666667  0.97478756  1.0
  Ni  Ni669  1  0.60854578  0.00000000  0.97478756  1.0
  Ni  Ni670  1  0.60854578  0.33333333  0.97478756  1.0
  Ni  Ni671  1  0.60854578  0.66666667  0.97478756  1.0
  Ni  Ni672  1  0.94187911  0.00000000  0.97478756  1.0
  Ni  Ni673  1  0.94187911  0.33333333  0.97478756  1.0
  Ni  Ni674  1  0.94187911  0.66666667  0.97478756  1.0
  Ni  Ni675  1  0.16410133  0.00000000  0.91923200  1.0
  Ni  Ni676  1  0.16410133  0.33333333  0.91923200  1.0
  Ni  Ni677  1  0.16410133  0.66666667  0.91923200  1.0
  Ni  Ni678  1  0.49743467  0.00000000  0.91923200  1.0
  Ni  Ni679  1  0.49743467  0.33333333  0.91923200  1.0
  Ni  Ni680  1  0.49743467  0.66666667  0.91923200  1.0
  Ni  Ni681  1  0.83076800  0.00000000  0.91923200  1.0
  Ni  Ni682  1  0.83076800  0.33333333  0.91923200  1.0
  Ni  Ni683  1  0.83076800  0.66666667  0.91923200  1.0
  Ni  Ni684  1  0.33076800  0.00000000  0.91923200  1.0
  Ni  Ni685  1  0.33076800  0.33333333  0.91923200  1.0
  Ni  Ni686  1  0.33076800  0.66666667  0.91923200  1.0
  Ni  Ni687  1  0.66410133  0.00000000  0.91923200  1.0
  Ni  Ni688  1  0.66410133  0.33333333  0.91923200  1.0
  Ni  Ni689  1  0.66410133  0.66666667  0.91923200  1.0
  Ni  Ni690  1  0.99743467  0.00000000  0.91923200  1.0
  Ni  Ni691  1  0.99743467  0.33333333  0.91923200  1.0
  Ni  Ni692  1  0.99743467  0.66666667  0.91923200  1.0
  Ni  Ni693  1  0.10854578  0.00000000  0.97478756  1.0
  Ni  Ni694  1  0.10854578  0.33333333  0.97478756  1.0
  Ni  Ni695  1  0.10854578  0.66666667  0.97478756  1.0
  Ni  Ni696  1  0.44187911  0.00000000  0.97478756  1.0
  Ni  Ni697  1  0.44187911  0.33333333  0.97478756  1.0
  Ni  Ni698  1  0.44187911  0.66666667  0.97478756  1.0
  Ni  Ni699  1  0.77521244  0.00000000  0.97478756  1.0
  Ni  Ni700  1  0.77521244  0.33333333  0.97478756  1.0
  Ni  Ni701  1  0.77521244  0.66666667  0.97478756  1.0
  Ni  Ni702  1  0.33076800  0.16666667  0.91923200  1.0
  Ni  Ni703  1  0.33076800  0.50000000  0.91923200  1.0
  Ni  Ni704  1  0.33076800  0.83333333  0.91923200  1.0
  Ni  Ni705  1  0.66410133  0.16666667  0.91923200  1.0
  Ni  Ni706  1  0.66410133  0.50000000  0.91923200  1.0
  Ni  Ni707  1  0.66410133  0.83333333  0.91923200  1.0
  Ni  Ni708  1  0.99743467  0.16666667  0.91923200  1.0
  Ni  Ni709  1  0.99743467  0.50000000  0.91923200  1.0
  Ni  Ni710  1  0.99743467  0.83333333  0.91923200  1.0
  Ni  Ni711  1  0.10854578  0.16666667  0.97478756  1.0
  Ni  Ni712  1  0.10854578  0.50000000  0.97478756  1.0
  Ni  Ni713  1  0.10854578  0.83333333  0.97478756  1.0
  Ni  Ni714  1  0.44187911  0.16666667  0.97478756  1.0
  Ni  Ni715  1  0.44187911  0.50000000  0.97478756  1.0
  Ni  Ni716  1  0.44187911  0.83333333  0.97478756  1.0
  Ni  Ni717  1  0.77521244  0.16666667  0.97478756  1.0
  Ni  Ni718  1  0.77521244  0.50000000  0.97478756  1.0
  Ni  Ni719  1  0.77521244  0.83333333  0.97478756  1.0
  Ni  Ni720  1  0.21965689  0.16666667  0.94700978  1.0
  Ni  Ni721  1  0.21965689  0.50000000  0.94700978  1.0
  Ni  Ni722  1  0.21965689  0.83333333  0.94700978  1.0
  Ni  Ni723  1  0.55299022  0.16666667  0.94700978  1.0
  Ni  Ni724  1  0.55299022  0.50000000  0.94700978  1.0
  Ni  Ni725  1  0.55299022  0.83333333  0.94700978  1.0
  Ni  Ni726  1  0.88632356  0.16666667  0.94700978  1.0
  Ni  Ni727  1  0.88632356  0.50000000  0.94700978  1.0
  Ni  Ni728  1  0.88632356  0.83333333  0.94700978  1.0
  Ni  Ni729  1  0.10854578  0.16666667  0.89145422  1.0
  Ni  Ni730  1  0.10854578  0.50000000  0.89145422  1.0
  Ni  Ni731  1  0.10854578  0.83333333  0.89145422  1.0
  Ni  Ni732  1  0.44187911  0.16666667  0.89145422  1.0
  Ni  Ni733  1  0.44187911  0.50000000  0.89145422  1.0
  Ni  Ni734  1  0.44187911  0.83333333  0.89145422  1.0
  Ni  Ni735  1  0.77521244  0.16666667  0.89145422  1.0
  Ni  Ni736  1  0.77521244  0.50000000  0.89145422  1.0
  Ni  Ni737  1  0.77521244  0.83333333  0.89145422  1.0
  Ni  Ni738  1  0.27521244  0.16666667  0.89145422  1.0
  Ni  Ni739  1  0.27521244  0.50000000  0.89145422  1.0
  Ni  Ni740  1  0.27521244  0.83333333  0.89145422  1.0
  Ni  Ni741  1  0.60854578  0.16666667  0.89145422  1.0
  Ni  Ni742  1  0.60854578  0.50000000  0.89145422  1.0
  Ni  Ni743  1  0.60854578  0.83333333  0.89145422  1.0
  Ni  Ni744  1  0.94187911  0.16666667  0.89145422  1.0
  Ni  Ni745  1  0.94187911  0.50000000  0.89145422  1.0
  Ni  Ni746  1  0.94187911  0.83333333  0.89145422  1.0
  Ni  Ni747  1  0.05299022  0.16666667  0.94700978  1.0
  Ni  Ni748  1  0.05299022  0.50000000  0.94700978  1.0
  Ni  Ni749  1  0.05299022  0.83333333  0.94700978  1.0
  Ni  Ni750  1  0.38632356  0.16666667  0.94700978  1.0
  Ni  Ni751  1  0.38632356  0.50000000  0.94700978  1.0
  Ni  Ni752  1  0.38632356  0.83333333  0.94700978  1.0
  Ni  Ni753  1  0.71965689  0.16666667  0.94700978  1.0
  Ni  Ni754  1  0.71965689  0.50000000  0.94700978  1.0
  Ni  Ni755  1  0.71965689  0.83333333  0.94700978  1.0
  Ni  Ni756  1  0.15459156  0.25000000  0.94187911  1.0
  Ni  Ni757  1  0.15459156  0.58333333  0.94187911  1.0
  Ni  Ni758  1  0.15459156  0.91666667  0.94187911  1.0
  Ni  Ni759  1  0.48792489  0.25000000  0.94187911  1.0
  Ni  Ni760  1  0.48792489  0.58333333  0.94187911  1.0
  Ni  Ni761  1  0.48792489  0.91666667  0.94187911  1.0
  Ni  Ni762  1  0.82125822  0.25000000  0.94187911  1.0
  Ni  Ni763  1  0.82125822  0.58333333  0.94187911  1.0
  Ni  Ni764  1  0.82125822  0.91666667  0.94187911  1.0
  Ni  Ni765  1  0.26570267  0.25000000  0.99743467  1.0
  Ni  Ni766  1  0.26570267  0.58333333  0.99743467  1.0
  Ni  Ni767  1  0.26570267  0.91666667  0.99743467  1.0
  Ni  Ni768  1  0.59903600  0.25000000  0.99743467  1.0
  Ni  Ni769  1  0.59903600  0.58333333  0.99743467  1.0
  Ni  Ni770  1  0.59903600  0.91666667  0.99743467  1.0
  Ni  Ni771  1  0.93236933  0.25000000  0.99743467  1.0
  Ni  Ni772  1  0.93236933  0.58333333  0.99743467  1.0
  Ni  Ni773  1  0.93236933  0.91666667  0.99743467  1.0
  Ni  Ni774  1  0.26570267  0.25000000  0.91522867  1.0
  Ni  Ni775  1  0.26570267  0.58333333  0.91522867  1.0
  Ni  Ni776  1  0.26570267  0.91666667  0.91522867  1.0
  Ni  Ni777  1  0.59903600  0.25000000  0.91522867  1.0
  Ni  Ni778  1  0.59903600  0.58333333  0.91522867  1.0
  Ni  Ni779  1  0.59903600  0.91666667  0.91522867  1.0
  Ni  Ni780  1  0.93236933  0.25000000  0.91522867  1.0
  Ni  Ni781  1  0.93236933  0.58333333  0.91522867  1.0
  Ni  Ni782  1  0.93236933  0.91666667  0.91522867  1.0
  Ni  Ni783  1  0.04348044  0.25000000  0.97078422  1.0
  Ni  Ni784  1  0.04348044  0.58333333  0.97078422  1.0
  Ni  Ni785  1  0.04348044  0.91666667  0.97078422  1.0
  Ni  Ni786  1  0.37681378  0.25000000  0.97078422  1.0
  Ni  Ni787  1  0.37681378  0.58333333  0.97078422  1.0
  Ni  Ni788  1  0.37681378  0.91666667  0.97078422  1.0
  Ni  Ni789  1  0.71014711  0.25000000  0.97078422  1.0
  Ni  Ni790  1  0.71014711  0.58333333  0.97078422  1.0
  Ni  Ni791  1  0.71014711  0.91666667  0.97078422  1.0
  Ni  Ni792  1  0.21089867  0.25000000  0.97003267  1.0
  Ni  Ni793  1  0.21089867  0.58333333  0.97003267  1.0
  Ni  Ni794  1  0.21089867  0.91666667  0.97003267  1.0
  Ni  Ni795  1  0.54423200  0.25000000  0.97003267  1.0
  Ni  Ni796  1  0.54423200  0.58333333  0.97003267  1.0
  Ni  Ni797  1  0.54423200  0.91666667  0.97003267  1.0
  Ni  Ni798  1  0.87756533  0.25000000  0.97003267  1.0
  Ni  Ni799  1  0.87756533  0.58333333  0.97003267  1.0
  Ni  Ni800  1  0.87756533  0.91666667  0.97003267  1.0
  Ni  Ni801  1  0.09978756  0.25000000  0.91447711  1.0
  Ni  Ni802  1  0.09978756  0.58333333  0.91447711  1.0
  Ni  Ni803  1  0.09978756  0.91666667  0.91447711  1.0
  Ni  Ni804  1  0.43312089  0.25000000  0.91447711  1.0
  Ni  Ni805  1  0.43312089  0.58333333  0.91447711  1.0
  Ni  Ni806  1  0.43312089  0.91666667  0.91447711  1.0
  Ni  Ni807  1  0.76645422  0.25000000  0.91447711  1.0
  Ni  Ni808  1  0.76645422  0.58333333  0.91447711  1.0
  Ni  Ni809  1  0.76645422  0.91666667  0.91447711  1.0
  Ni  Ni810  1  0.28472222  0.08333333  0.95214044  1.0
  Ni  Ni811  1  0.28472222  0.41666667  0.95214044  1.0
  Ni  Ni812  1  0.28472222  0.75000000  0.95214044  1.0
  Ni  Ni813  1  0.61805556  0.08333333  0.95214044  1.0
  Ni  Ni814  1  0.61805556  0.41666667  0.95214044  1.0
  Ni  Ni815  1  0.61805556  0.75000000  0.95214044  1.0
  Ni  Ni816  1  0.95138889  0.08333333  0.95214044  1.0
  Ni  Ni817  1  0.95138889  0.41666667  0.95214044  1.0
  Ni  Ni818  1  0.95138889  0.75000000  0.95214044  1.0
  Ni  Ni819  1  0.17361111  0.08333333  0.89658489  1.0
  Ni  Ni820  1  0.17361111  0.41666667  0.89658489  1.0
  Ni  Ni821  1  0.17361111  0.75000000  0.89658489  1.0
  Ni  Ni822  1  0.50694444  0.08333333  0.89658489  1.0
  Ni  Ni823  1  0.50694444  0.41666667  0.89658489  1.0
  Ni  Ni824  1  0.50694444  0.75000000  0.89658489  1.0
  Ni  Ni825  1  0.84027778  0.08333333  0.89658489  1.0
  Ni  Ni826  1  0.84027778  0.41666667  0.89658489  1.0
  Ni  Ni827  1  0.84027778  0.75000000  0.89658489  1.0
  Ni  Ni828  1  0.17361111  0.08333333  0.97879089  1.0
  Ni  Ni829  1  0.17361111  0.41666667  0.97879089  1.0
  Ni  Ni830  1  0.17361111  0.75000000  0.97879089  1.0
  Ni  Ni831  1  0.50694444  0.08333333  0.97879089  1.0
  Ni  Ni832  1  0.50694444  0.41666667  0.97879089  1.0
  Ni  Ni833  1  0.50694444  0.75000000  0.97879089  1.0
  Ni  Ni834  1  0.84027778  0.08333333  0.97879089  1.0
  Ni  Ni835  1  0.84027778  0.41666667  0.97879089  1.0
  Ni  Ni836  1  0.84027778  0.75000000  0.97879089  1.0
  Ni  Ni837  1  0.06250000  0.08333333  0.92323533  1.0
  Ni  Ni838  1  0.06250000  0.41666667  0.92323533  1.0
  Ni  Ni839  1  0.06250000  0.75000000  0.92323533  1.0
  Ni  Ni840  1  0.39583333  0.08333333  0.92323533  1.0
  Ni  Ni841  1  0.39583333  0.41666667  0.92323533  1.0
  Ni  Ni842  1  0.39583333  0.75000000  0.92323533  1.0
  Ni  Ni843  1  0.72916667  0.08333333  0.92323533  1.0
  Ni  Ni844  1  0.72916667  0.41666667  0.92323533  1.0
  Ni  Ni845  1  0.72916667  0.75000000  0.92323533  1.0
  Ni  Ni846  1  0.22841511  0.08333333  0.92398689  1.0
  Ni  Ni847  1  0.22841511  0.41666667  0.92398689  1.0
  Ni  Ni848  1  0.22841511  0.75000000  0.92398689  1.0
  Ni  Ni849  1  0.56174844  0.08333333  0.92398689  1.0
  Ni  Ni850  1  0.56174844  0.41666667  0.92398689  1.0
  Ni  Ni851  1  0.56174844  0.75000000  0.92398689  1.0
  Ni  Ni852  1  0.89508178  0.08333333  0.92398689  1.0
  Ni  Ni853  1  0.89508178  0.41666667  0.92398689  1.0
  Ni  Ni854  1  0.89508178  0.75000000  0.92398689  1.0
  Ni  Ni855  1  0.00619289  0.08333333  0.97954244  1.0
  Ni  Ni856  1  0.00619289  0.41666667  0.97954244  1.0
  Ni  Ni857  1  0.00619289  0.75000000  0.97954244  1.0
  Ni  Ni858  1  0.33952622  0.08333333  0.97954244  1.0
  Ni  Ni859  1  0.33952622  0.41666667  0.97954244  1.0
  Ni  Ni860  1  0.33952622  0.75000000  0.97954244  1.0
  Ni  Ni861  1  0.67285956  0.08333333  0.97954244  1.0
  Ni  Ni862  1  0.67285956  0.41666667  0.97954244  1.0
  Ni  Ni863  1  0.67285956  0.75000000  0.97954244  1.0
  Ni  Ni864  1  0.27048204  0.29196900  0.86131124  1.0
  Ni  Ni865  1  0.27048204  0.62530233  0.86131124  1.0
  Ni  Ni866  1  0.27048204  0.95863567  0.86131124  1.0
  Ni  Ni867  1  0.60381537  0.29196900  0.86131124  1.0
  Ni  Ni868  1  0.60381537  0.62530233  0.86131124  1.0
  Ni  Ni869  1  0.60381537  0.95863567  0.86131124  1.0
  Ni  Ni870  1  0.93714870  0.29196900  0.86131124  1.0
  Ni  Ni871  1  0.93714870  0.62530233  0.86131124  1.0
  Ni  Ni872  1  0.93714870  0.95863567  0.86131124  1.0
  Ni  Ni873  1  0.15937093  0.29196900  0.80575569  1.0
  Ni  Ni874  1  0.15937093  0.62530233  0.80575569  1.0
  Ni  Ni875  1  0.15937093  0.95863567  0.80575569  1.0
  Ni  Ni876  1  0.49270426  0.29196900  0.80575569  1.0
  Ni  Ni877  1  0.49270426  0.62530233  0.80575569  1.0
  Ni  Ni878  1  0.49270426  0.95863567  0.80575569  1.0
  Ni  Ni879  1  0.82603759  0.29196900  0.80575569  1.0
  Ni  Ni880  1  0.82603759  0.62530233  0.80575569  1.0
  Ni  Ni881  1  0.82603759  0.95863567  0.80575569  1.0
  Ni  Ni882  1  0.05772063  0.04136433  0.81048609  1.0
  Ni  Ni883  1  0.05772063  0.37469767  0.81048609  1.0
  Ni  Ni884  1  0.05772063  0.70803100  0.81048609  1.0
  Ni  Ni885  1  0.39105396  0.04136433  0.81048609  1.0
  Ni  Ni886  1  0.39105396  0.37469767  0.81048609  1.0
  Ni  Ni887  1  0.39105396  0.70803100  0.81048609  1.0
  Ni  Ni888  1  0.72438730  0.04136433  0.81048609  1.0
  Ni  Ni889  1  0.72438730  0.37469767  0.81048609  1.0
  Ni  Ni890  1  0.72438730  0.70803100  0.81048609  1.0
  Ni  Ni891  1  0.16883174  0.04136433  0.86604165  1.0
  Ni  Ni892  1  0.16883174  0.37469767  0.86604165  1.0
  Ni  Ni893  1  0.16883174  0.70803100  0.86604165  1.0
  Ni  Ni894  1  0.50216507  0.04136433  0.86604165  1.0
  Ni  Ni895  1  0.50216507  0.37469767  0.86604165  1.0
  Ni  Ni896  1  0.50216507  0.70803100  0.86604165  1.0
  Ni  Ni897  1  0.83549841  0.04136433  0.86604165  1.0
  Ni  Ni898  1  0.83549841  0.37469767  0.86604165  1.0
  Ni  Ni899  1  0.83549841  0.70803100  0.86604165  1.0
  Ni  Ni900  1  0.02974130  0.12530233  0.79649643  1.0
  Ni  Ni901  1  0.02974130  0.45863567  0.79649643  1.0
  Ni  Ni902  1  0.02974130  0.79196900  0.79649643  1.0
  Ni  Ni903  1  0.36307463  0.12530233  0.79649643  1.0
  Ni  Ni904  1  0.36307463  0.45863567  0.79649643  1.0
  Ni  Ni905  1  0.36307463  0.79196900  0.79649643  1.0
  Ni  Ni906  1  0.69640796  0.12530233  0.79649643  1.0
  Ni  Ni907  1  0.69640796  0.45863567  0.79649643  1.0
  Ni  Ni908  1  0.69640796  0.79196900  0.79649643  1.0
  Ni  Ni909  1  0.14085241  0.12530233  0.85205198  1.0
  Ni  Ni910  1  0.14085241  0.45863567  0.85205198  1.0
  Ni  Ni911  1  0.14085241  0.79196900  0.85205198  1.0
  Ni  Ni912  1  0.47418574  0.12530233  0.85205198  1.0
  Ni  Ni913  1  0.47418574  0.45863567  0.85205198  1.0
  Ni  Ni914  1  0.47418574  0.79196900  0.85205198  1.0
  Ni  Ni915  1  0.80751907  0.12530233  0.85205198  1.0
  Ni  Ni916  1  0.80751907  0.45863567  0.85205198  1.0
  Ni  Ni917  1  0.80751907  0.79196900  0.85205198  1.0
  Ni  Ni918  1  0.29846137  0.20803100  0.87530091  1.0
  Ni  Ni919  1  0.29846137  0.54136433  0.87530091  1.0
  Ni  Ni920  1  0.29846137  0.87469767  0.87530091  1.0
  Ni  Ni921  1  0.63179470  0.20803100  0.87530091  1.0
  Ni  Ni922  1  0.63179470  0.54136433  0.87530091  1.0
  Ni  Ni923  1  0.63179470  0.87469767  0.87530091  1.0
  Ni  Ni924  1  0.96512804  0.20803100  0.87530091  1.0
  Ni  Ni925  1  0.96512804  0.54136433  0.87530091  1.0
  Ni  Ni926  1  0.96512804  0.87469767  0.87530091  1.0
  Ni  Ni927  1  0.18735026  0.20803100  0.81974535  1.0
  Ni  Ni928  1  0.18735026  0.54136433  0.81974535  1.0
  Ni  Ni929  1  0.18735026  0.87469767  0.81974535  1.0
  Ni  Ni930  1  0.52068359  0.20803100  0.81974535  1.0
  Ni  Ni931  1  0.52068359  0.54136433  0.81974535  1.0
  Ni  Ni932  1  0.52068359  0.87469767  0.81974535  1.0
  Ni  Ni933  1  0.85401693  0.20803100  0.81974535  1.0
  Ni  Ni934  1  0.85401693  0.54136433  0.81974535  1.0
  Ni  Ni935  1  0.85401693  0.87469767  0.81974535  1.0
  Ni  Ni936  1  0.16410133  0.33333333  0.83589867  1.0
  Ni  Ni937  1  0.16410133  0.66666667  0.83589867  1.0
  Ni  Ni938  1  0.16410133  0.00000000  0.83589867  1.0
  Ni  Ni939  1  0.49743467  0.33333333  0.83589867  1.0
  Ni  Ni940  1  0.49743467  0.66666667  0.83589867  1.0
  Ni  Ni941  1  0.49743467  0.00000000  0.83589867  1.0
  Ni  Ni942  1  0.83076800  0.33333333  0.83589867  1.0
  Ni  Ni943  1  0.83076800  0.66666667  0.83589867  1.0
  Ni  Ni944  1  0.83076800  0.00000000  0.83589867  1.0
  Ni  Ni945  1  0.05299022  0.33333333  0.78034311  1.0
  Ni  Ni946  1  0.05299022  0.66666667  0.78034311  1.0
  Ni  Ni947  1  0.05299022  0.00000000  0.78034311  1.0
  Ni  Ni948  1  0.38632356  0.33333333  0.78034311  1.0
  Ni  Ni949  1  0.38632356  0.66666667  0.78034311  1.0
  Ni  Ni950  1  0.38632356  0.00000000  0.78034311  1.0
  Ni  Ni951  1  0.71965689  0.33333333  0.78034311  1.0
  Ni  Ni952  1  0.71965689  0.66666667  0.78034311  1.0
  Ni  Ni953  1  0.71965689  0.00000000  0.78034311  1.0
  Ni  Ni954  1  0.05299022  0.00000000  0.86367644  1.0
  Ni  Ni955  1  0.05299022  0.33333333  0.86367644  1.0
  Ni  Ni956  1  0.05299022  0.66666667  0.86367644  1.0
  Ni  Ni957  1  0.38632356  0.00000000  0.86367644  1.0
  Ni  Ni958  1  0.38632356  0.33333333  0.86367644  1.0
  Ni  Ni959  1  0.38632356  0.66666667  0.86367644  1.0
  Ni  Ni960  1  0.71965689  0.00000000  0.86367644  1.0
  Ni  Ni961  1  0.71965689  0.33333333  0.86367644  1.0
  Ni  Ni962  1  0.71965689  0.66666667  0.86367644  1.0
  Ni  Ni963  1  0.27521244  0.00000000  0.80812089  1.0
  Ni  Ni964  1  0.27521244  0.33333333  0.80812089  1.0
  Ni  Ni965  1  0.27521244  0.66666667  0.80812089  1.0
  Ni  Ni966  1  0.60854578  0.00000000  0.80812089  1.0
  Ni  Ni967  1  0.60854578  0.33333333  0.80812089  1.0
  Ni  Ni968  1  0.60854578  0.66666667  0.80812089  1.0
  Ni  Ni969  1  0.94187911  0.00000000  0.80812089  1.0
  Ni  Ni970  1  0.94187911  0.33333333  0.80812089  1.0
  Ni  Ni971  1  0.94187911  0.66666667  0.80812089  1.0
  Ni  Ni972  1  0.10854578  0.33333333  0.80812089  1.0
  Ni  Ni973  1  0.10854578  0.66666667  0.80812089  1.0
  Ni  Ni974  1  0.10854578  0.00000000  0.80812089  1.0
  Ni  Ni975  1  0.44187911  0.33333333  0.80812089  1.0
  Ni  Ni976  1  0.44187911  0.66666667  0.80812089  1.0
  Ni  Ni977  1  0.44187911  0.00000000  0.80812089  1.0
  Ni  Ni978  1  0.77521244  0.33333333  0.80812089  1.0
  Ni  Ni979  1  0.77521244  0.66666667  0.80812089  1.0
  Ni  Ni980  1  0.77521244  0.00000000  0.80812089  1.0
  Ni  Ni981  1  0.21965689  0.00000000  0.86367644  1.0
  Ni  Ni982  1  0.21965689  0.33333333  0.86367644  1.0
  Ni  Ni983  1  0.21965689  0.66666667  0.86367644  1.0
  Ni  Ni984  1  0.55299022  0.00000000  0.86367644  1.0
  Ni  Ni985  1  0.55299022  0.33333333  0.86367644  1.0
  Ni  Ni986  1  0.55299022  0.66666667  0.86367644  1.0
  Ni  Ni987  1  0.88632356  0.00000000  0.86367644  1.0
  Ni  Ni988  1  0.88632356  0.33333333  0.86367644  1.0
  Ni  Ni989  1  0.88632356  0.66666667  0.86367644  1.0
  Ni  Ni990  1  0.10854578  0.16666667  0.80812089  1.0
  Ni  Ni991  1  0.10854578  0.50000000  0.80812089  1.0
  Ni  Ni992  1  0.10854578  0.83333333  0.80812089  1.0
  Ni  Ni993  1  0.44187911  0.16666667  0.80812089  1.0
  Ni  Ni994  1  0.44187911  0.50000000  0.80812089  1.0
  Ni  Ni995  1  0.44187911  0.83333333  0.80812089  1.0
  Ni  Ni996  1  0.77521244  0.16666667  0.80812089  1.0
  Ni  Ni997  1  0.77521244  0.50000000  0.80812089  1.0
  Ni  Ni998  1  0.77521244  0.83333333  0.80812089  1.0
  Ni  Ni999  1  0.21965689  0.16666667  0.86367644  1.0
  Ni  Ni1000  1  0.21965689  0.50000000  0.86367644  1.0
  Ni  Ni1001  1  0.21965689  0.83333333  0.86367644  1.0
  Ni  Ni1002  1  0.55299022  0.16666667  0.86367644  1.0
  Ni  Ni1003  1  0.55299022  0.50000000  0.86367644  1.0
  Ni  Ni1004  1  0.55299022  0.83333333  0.86367644  1.0
  Ni  Ni1005  1  0.88632356  0.16666667  0.86367644  1.0
  Ni  Ni1006  1  0.88632356  0.50000000  0.86367644  1.0
  Ni  Ni1007  1  0.88632356  0.83333333  0.86367644  1.0
  Ni  Ni1008  1  0.33076800  0.16666667  0.83589867  1.0
  Ni  Ni1009  1  0.33076800  0.50000000  0.83589867  1.0
  Ni  Ni1010  1  0.33076800  0.83333333  0.83589867  1.0
  Ni  Ni1011  1  0.66410133  0.16666667  0.83589867  1.0
  Ni  Ni1012  1  0.66410133  0.50000000  0.83589867  1.0
  Ni  Ni1013  1  0.66410133  0.83333333  0.83589867  1.0
  Ni  Ni1014  1  0.99743467  0.16666667  0.83589867  1.0
  Ni  Ni1015  1  0.99743467  0.50000000  0.83589867  1.0
  Ni  Ni1016  1  0.99743467  0.83333333  0.83589867  1.0
  Ni  Ni1017  1  0.21965689  0.16666667  0.78034311  1.0
  Ni  Ni1018  1  0.21965689  0.50000000  0.78034311  1.0
  Ni  Ni1019  1  0.21965689  0.83333333  0.78034311  1.0
  Ni  Ni1020  1  0.55299022  0.16666667  0.78034311  1.0
  Ni  Ni1021  1  0.55299022  0.50000000  0.78034311  1.0
  Ni  Ni1022  1  0.55299022  0.83333333  0.78034311  1.0
  Ni  Ni1023  1  0.88632356  0.16666667  0.78034311  1.0
  Ni  Ni1024  1  0.88632356  0.50000000  0.78034311  1.0
  Ni  Ni1025  1  0.88632356  0.83333333  0.78034311  1.0
  Ni  Ni1026  1  0.05299022  0.16666667  0.78034311  1.0
  Ni  Ni1027  1  0.05299022  0.50000000  0.78034311  1.0
  Ni  Ni1028  1  0.05299022  0.83333333  0.78034311  1.0
  Ni  Ni1029  1  0.38632356  0.16666667  0.78034311  1.0
  Ni  Ni1030  1  0.38632356  0.50000000  0.78034311  1.0
  Ni  Ni1031  1  0.38632356  0.83333333  0.78034311  1.0
  Ni  Ni1032  1  0.71965689  0.16666667  0.78034311  1.0
  Ni  Ni1033  1  0.71965689  0.50000000  0.78034311  1.0
  Ni  Ni1034  1  0.71965689  0.83333333  0.78034311  1.0
  Ni  Ni1035  1  0.16410133  0.16666667  0.83589867  1.0
  Ni  Ni1036  1  0.16410133  0.50000000  0.83589867  1.0
  Ni  Ni1037  1  0.16410133  0.83333333  0.83589867  1.0
  Ni  Ni1038  1  0.49743467  0.16666667  0.83589867  1.0
  Ni  Ni1039  1  0.49743467  0.50000000  0.83589867  1.0
  Ni  Ni1040  1  0.49743467  0.83333333  0.83589867  1.0
  Ni  Ni1041  1  0.83076800  0.16666667  0.83589867  1.0
  Ni  Ni1042  1  0.83076800  0.50000000  0.83589867  1.0
  Ni  Ni1043  1  0.83076800  0.83333333  0.83589867  1.0
  Ni  Ni1044  1  0.26570267  0.25000000  0.83076800  1.0
  Ni  Ni1045  1  0.26570267  0.58333333  0.83076800  1.0
  Ni  Ni1046  1  0.26570267  0.91666667  0.83076800  1.0
  Ni  Ni1047  1  0.59903600  0.25000000  0.83076800  1.0
  Ni  Ni1048  1  0.59903600  0.58333333  0.83076800  1.0
  Ni  Ni1049  1  0.59903600  0.91666667  0.83076800  1.0
  Ni  Ni1050  1  0.93236933  0.25000000  0.83076800  1.0
  Ni  Ni1051  1  0.93236933  0.58333333  0.83076800  1.0
  Ni  Ni1052  1  0.93236933  0.91666667  0.83076800  1.0
  Ni  Ni1053  1  0.04348044  0.25000000  0.88632356  1.0
  Ni  Ni1054  1  0.04348044  0.58333333  0.88632356  1.0
  Ni  Ni1055  1  0.04348044  0.91666667  0.88632356  1.0
  Ni  Ni1056  1  0.37681378  0.25000000  0.88632356  1.0
  Ni  Ni1057  1  0.37681378  0.58333333  0.88632356  1.0
  Ni  Ni1058  1  0.37681378  0.91666667  0.88632356  1.0
  Ni  Ni1059  1  0.71014711  0.25000000  0.88632356  1.0
  Ni  Ni1060  1  0.71014711  0.58333333  0.88632356  1.0
  Ni  Ni1061  1  0.71014711  0.91666667  0.88632356  1.0
  Ni  Ni1062  1  0.04348044  0.25000000  0.80411756  1.0
  Ni  Ni1063  1  0.04348044  0.58333333  0.80411756  1.0
  Ni  Ni1064  1  0.04348044  0.91666667  0.80411756  1.0
  Ni  Ni1065  1  0.37681378  0.25000000  0.80411756  1.0
  Ni  Ni1066  1  0.37681378  0.58333333  0.80411756  1.0
  Ni  Ni1067  1  0.37681378  0.91666667  0.80411756  1.0
  Ni  Ni1068  1  0.71014711  0.25000000  0.80411756  1.0
  Ni  Ni1069  1  0.71014711  0.58333333  0.80411756  1.0
  Ni  Ni1070  1  0.71014711  0.91666667  0.80411756  1.0
  Ni  Ni1071  1  0.15459156  0.25000000  0.85967311  1.0
  Ni  Ni1072  1  0.15459156  0.58333333  0.85967311  1.0
  Ni  Ni1073  1  0.15459156  0.91666667  0.85967311  1.0
  Ni  Ni1074  1  0.48792489  0.25000000  0.85967311  1.0
  Ni  Ni1075  1  0.48792489  0.58333333  0.85967311  1.0
  Ni  Ni1076  1  0.48792489  0.91666667  0.85967311  1.0
  Ni  Ni1077  1  0.82125822  0.25000000  0.85967311  1.0
  Ni  Ni1078  1  0.82125822  0.58333333  0.85967311  1.0
  Ni  Ni1079  1  0.82125822  0.91666667  0.85967311  1.0
  Ni  Ni1080  1  0.32200978  0.25000000  0.85892156  1.0
  Ni  Ni1081  1  0.32200978  0.58333333  0.85892156  1.0
  Ni  Ni1082  1  0.32200978  0.91666667  0.85892156  1.0
  Ni  Ni1083  1  0.65534311  0.25000000  0.85892156  1.0
  Ni  Ni1084  1  0.65534311  0.58333333  0.85892156  1.0
  Ni  Ni1085  1  0.65534311  0.91666667  0.85892156  1.0
  Ni  Ni1086  1  0.98867644  0.25000000  0.85892156  1.0
  Ni  Ni1087  1  0.98867644  0.58333333  0.85892156  1.0
  Ni  Ni1088  1  0.98867644  0.91666667  0.85892156  1.0
  Ni  Ni1089  1  0.21089867  0.25000000  0.80336600  1.0
  Ni  Ni1090  1  0.21089867  0.58333333  0.80336600  1.0
  Ni  Ni1091  1  0.21089867  0.91666667  0.80336600  1.0
  Ni  Ni1092  1  0.54423200  0.25000000  0.80336600  1.0
  Ni  Ni1093  1  0.54423200  0.58333333  0.80336600  1.0
  Ni  Ni1094  1  0.54423200  0.91666667  0.80336600  1.0
  Ni  Ni1095  1  0.87756533  0.25000000  0.80336600  1.0
  Ni  Ni1096  1  0.87756533  0.58333333  0.80336600  1.0
  Ni  Ni1097  1  0.87756533  0.91666667  0.80336600  1.0
  Ni  Ni1098  1  0.06250000  0.08333333  0.84102933  1.0
  Ni  Ni1099  1  0.06250000  0.41666667  0.84102933  1.0
  Ni  Ni1100  1  0.06250000  0.75000000  0.84102933  1.0
  Ni  Ni1101  1  0.39583333  0.08333333  0.84102933  1.0
  Ni  Ni1102  1  0.39583333  0.41666667  0.84102933  1.0
  Ni  Ni1103  1  0.39583333  0.75000000  0.84102933  1.0
  Ni  Ni1104  1  0.72916667  0.08333333  0.84102933  1.0
  Ni  Ni1105  1  0.72916667  0.41666667  0.84102933  1.0
  Ni  Ni1106  1  0.72916667  0.75000000  0.84102933  1.0
  Ni  Ni1107  1  0.28472222  0.08333333  0.78547378  1.0
  Ni  Ni1108  1  0.28472222  0.41666667  0.78547378  1.0
  Ni  Ni1109  1  0.28472222  0.75000000  0.78547378  1.0
  Ni  Ni1110  1  0.61805556  0.08333333  0.78547378  1.0
  Ni  Ni1111  1  0.61805556  0.41666667  0.78547378  1.0
  Ni  Ni1112  1  0.61805556  0.75000000  0.78547378  1.0
  Ni  Ni1113  1  0.95138889  0.08333333  0.78547378  1.0
  Ni  Ni1114  1  0.95138889  0.41666667  0.78547378  1.0
  Ni  Ni1115  1  0.95138889  0.75000000  0.78547378  1.0
  Ni  Ni1116  1  0.28472222  0.08333333  0.86767978  1.0
  Ni  Ni1117  1  0.28472222  0.41666667  0.86767978  1.0
  Ni  Ni1118  1  0.28472222  0.75000000  0.86767978  1.0
  Ni  Ni1119  1  0.61805556  0.08333333  0.86767978  1.0
  Ni  Ni1120  1  0.61805556  0.41666667  0.86767978  1.0
  Ni  Ni1121  1  0.61805556  0.75000000  0.86767978  1.0
  Ni  Ni1122  1  0.95138889  0.08333333  0.86767978  1.0
  Ni  Ni1123  1  0.95138889  0.41666667  0.86767978  1.0
  Ni  Ni1124  1  0.95138889  0.75000000  0.86767978  1.0
  Ni  Ni1125  1  0.17361111  0.08333333  0.81212422  1.0
  Ni  Ni1126  1  0.17361111  0.41666667  0.81212422  1.0
  Ni  Ni1127  1  0.17361111  0.75000000  0.81212422  1.0
  Ni  Ni1128  1  0.50694444  0.08333333  0.81212422  1.0
  Ni  Ni1129  1  0.50694444  0.41666667  0.81212422  1.0
  Ni  Ni1130  1  0.50694444  0.75000000  0.81212422  1.0
  Ni  Ni1131  1  0.84027778  0.08333333  0.81212422  1.0
  Ni  Ni1132  1  0.84027778  0.41666667  0.81212422  1.0
  Ni  Ni1133  1  0.84027778  0.75000000  0.81212422  1.0
  Ni  Ni1134  1  0.00619289  0.08333333  0.81287578  1.0
  Ni  Ni1135  1  0.00619289  0.41666667  0.81287578  1.0
  Ni  Ni1136  1  0.00619289  0.75000000  0.81287578  1.0
  Ni  Ni1137  1  0.33952622  0.08333333  0.81287578  1.0
  Ni  Ni1138  1  0.33952622  0.41666667  0.81287578  1.0
  Ni  Ni1139  1  0.33952622  0.75000000  0.81287578  1.0
  Ni  Ni1140  1  0.67285956  0.08333333  0.81287578  1.0
  Ni  Ni1141  1  0.67285956  0.41666667  0.81287578  1.0
  Ni  Ni1142  1  0.67285956  0.75000000  0.81287578  1.0
  Ni  Ni1143  1  0.11730400  0.08333333  0.86843133  1.0
  Ni  Ni1144  1  0.11730400  0.41666667  0.86843133  1.0
  Ni  Ni1145  1  0.11730400  0.75000000  0.86843133  1.0
  Ni  Ni1146  1  0.45063733  0.08333333  0.86843133  1.0
  Ni  Ni1147  1  0.45063733  0.41666667  0.86843133  1.0
  Ni  Ni1148  1  0.45063733  0.75000000  0.86843133  1.0
  Ni  Ni1149  1  0.78397067  0.08333333  0.86843133  1.0
  Ni  Ni1150  1  0.78397067  0.41666667  0.86843133  1.0
  Ni  Ni1151  1  0.78397067  0.75000000  0.86843133  1.0
  Ni  Ni1152  1  0.04825981  0.29196900  0.75020013  1.0
  Ni  Ni1153  1  0.04825981  0.62530233  0.75020013  1.0
  Ni  Ni1154  1  0.04825981  0.95863567  0.75020013  1.0
  Ni  Ni1155  1  0.38159315  0.29196900  0.75020013  1.0
  Ni  Ni1156  1  0.38159315  0.62530233  0.75020013  1.0
  Ni  Ni1157  1  0.38159315  0.95863567  0.75020013  1.0
  Ni  Ni1158  1  0.71492648  0.29196900  0.75020013  1.0
  Ni  Ni1159  1  0.71492648  0.62530233  0.75020013  1.0
  Ni  Ni1160  1  0.71492648  0.95863567  0.75020013  1.0
  Ni  Ni1161  1  0.27048204  0.29196900  0.69464457  1.0
  Ni  Ni1162  1  0.27048204  0.62530233  0.69464457  1.0
  Ni  Ni1163  1  0.27048204  0.95863567  0.69464457  1.0
  Ni  Ni1164  1  0.60381537  0.29196900  0.69464457  1.0
  Ni  Ni1165  1  0.60381537  0.62530233  0.69464457  1.0
  Ni  Ni1166  1  0.60381537  0.95863567  0.69464457  1.0
  Ni  Ni1167  1  0.93714870  0.29196900  0.69464457  1.0
  Ni  Ni1168  1  0.93714870  0.62530233  0.69464457  1.0
  Ni  Ni1169  1  0.93714870  0.95863567  0.69464457  1.0
  Ni  Ni1170  1  0.16883174  0.04136433  0.69937498  1.0
  Ni  Ni1171  1  0.16883174  0.37469767  0.69937498  1.0
  Ni  Ni1172  1  0.16883174  0.70803100  0.69937498  1.0
  Ni  Ni1173  1  0.50216507  0.04136433  0.69937498  1.0
  Ni  Ni1174  1  0.50216507  0.37469767  0.69937498  1.0
  Ni  Ni1175  1  0.50216507  0.70803100  0.69937498  1.0
  Ni  Ni1176  1  0.83549841  0.04136433  0.69937498  1.0
  Ni  Ni1177  1  0.83549841  0.37469767  0.69937498  1.0
  Ni  Ni1178  1  0.83549841  0.70803100  0.69937498  1.0
  Ni  Ni1179  1  0.27994285  0.04136433  0.75493054  1.0
  Ni  Ni1180  1  0.27994285  0.37469767  0.75493054  1.0
  Ni  Ni1181  1  0.27994285  0.70803100  0.75493054  1.0
  Ni  Ni1182  1  0.61327619  0.04136433  0.75493054  1.0
  Ni  Ni1183  1  0.61327619  0.37469767  0.75493054  1.0
  Ni  Ni1184  1  0.61327619  0.70803100  0.75493054  1.0
  Ni  Ni1185  1  0.94660952  0.04136433  0.75493054  1.0
  Ni  Ni1186  1  0.94660952  0.37469767  0.75493054  1.0
  Ni  Ni1187  1  0.94660952  0.70803100  0.75493054  1.0
  Ni  Ni1188  1  0.14085241  0.12530233  0.68538531  1.0
  Ni  Ni1189  1  0.14085241  0.45863567  0.68538531  1.0
  Ni  Ni1190  1  0.14085241  0.79196900  0.68538531  1.0
  Ni  Ni1191  1  0.47418574  0.12530233  0.68538531  1.0
  Ni  Ni1192  1  0.47418574  0.45863567  0.68538531  1.0
  Ni  Ni1193  1  0.47418574  0.79196900  0.68538531  1.0
  Ni  Ni1194  1  0.80751907  0.12530233  0.68538531  1.0
  Ni  Ni1195  1  0.80751907  0.45863567  0.68538531  1.0
  Ni  Ni1196  1  0.80751907  0.79196900  0.68538531  1.0
  Ni  Ni1197  1  0.25196352  0.12530233  0.74094087  1.0
  Ni  Ni1198  1  0.25196352  0.45863567  0.74094087  1.0
  Ni  Ni1199  1  0.25196352  0.79196900  0.74094087  1.0
  Ni  Ni1200  1  0.58529685  0.12530233  0.74094087  1.0
  Ni  Ni1201  1  0.58529685  0.45863567  0.74094087  1.0
  Ni  Ni1202  1  0.58529685  0.79196900  0.74094087  1.0
  Ni  Ni1203  1  0.91863019  0.12530233  0.74094087  1.0
  Ni  Ni1204  1  0.91863019  0.45863567  0.74094087  1.0
  Ni  Ni1205  1  0.91863019  0.79196900  0.74094087  1.0
  Ni  Ni1206  1  0.07623915  0.20803100  0.76418980  1.0
  Ni  Ni1207  1  0.07623915  0.54136433  0.76418980  1.0
  Ni  Ni1208  1  0.07623915  0.87469767  0.76418980  1.0
  Ni  Ni1209  1  0.40957248  0.20803100  0.76418980  1.0
  Ni  Ni1210  1  0.40957248  0.54136433  0.76418980  1.0
  Ni  Ni1211  1  0.40957248  0.87469767  0.76418980  1.0
  Ni  Ni1212  1  0.74290581  0.20803100  0.76418980  1.0
  Ni  Ni1213  1  0.74290581  0.54136433  0.76418980  1.0
  Ni  Ni1214  1  0.74290581  0.87469767  0.76418980  1.0
  Ni  Ni1215  1  0.29846137  0.20803100  0.70863424  1.0
  Ni  Ni1216  1  0.29846137  0.54136433  0.70863424  1.0
  Ni  Ni1217  1  0.29846137  0.87469767  0.70863424  1.0
  Ni  Ni1218  1  0.63179470  0.20803100  0.70863424  1.0
  Ni  Ni1219  1  0.63179470  0.54136433  0.70863424  1.0
  Ni  Ni1220  1  0.63179470  0.87469767  0.70863424  1.0
  Ni  Ni1221  1  0.96512804  0.20803100  0.70863424  1.0
  Ni  Ni1222  1  0.96512804  0.54136433  0.70863424  1.0
  Ni  Ni1223  1  0.96512804  0.87469767  0.70863424  1.0
  Ni  Ni1224  1  0.27521244  0.33333333  0.72478756  1.0
  Ni  Ni1225  1  0.27521244  0.66666667  0.72478756  1.0
  Ni  Ni1226  1  0.27521244  0.00000000  0.72478756  1.0
  Ni  Ni1227  1  0.60854578  0.33333333  0.72478756  1.0
  Ni  Ni1228  1  0.60854578  0.66666667  0.72478756  1.0
  Ni  Ni1229  1  0.60854578  0.00000000  0.72478756  1.0
  Ni  Ni1230  1  0.94187911  0.33333333  0.72478756  1.0
  Ni  Ni1231  1  0.94187911  0.66666667  0.72478756  1.0
  Ni  Ni1232  1  0.94187911  0.00000000  0.72478756  1.0
  Ni  Ni1233  1  0.16410133  0.33333333  0.66923200  1.0
  Ni  Ni1234  1  0.16410133  0.66666667  0.66923200  1.0
  Ni  Ni1235  1  0.16410133  0.00000000  0.66923200  1.0
  Ni  Ni1236  1  0.49743467  0.33333333  0.66923200  1.0
  Ni  Ni1237  1  0.49743467  0.66666667  0.66923200  1.0
  Ni  Ni1238  1  0.49743467  0.00000000  0.66923200  1.0
  Ni  Ni1239  1  0.83076800  0.33333333  0.66923200  1.0
  Ni  Ni1240  1  0.83076800  0.66666667  0.66923200  1.0
  Ni  Ni1241  1  0.83076800  0.00000000  0.66923200  1.0
  Ni  Ni1242  1  0.16410133  0.00000000  0.75256533  1.0
  Ni  Ni1243  1  0.16410133  0.33333333  0.75256533  1.0
  Ni  Ni1244  1  0.16410133  0.66666667  0.75256533  1.0
  Ni  Ni1245  1  0.49743467  0.00000000  0.75256533  1.0
  Ni  Ni1246  1  0.49743467  0.33333333  0.75256533  1.0
  Ni  Ni1247  1  0.49743467  0.66666667  0.75256533  1.0
  Ni  Ni1248  1  0.83076800  0.00000000  0.75256533  1.0
  Ni  Ni1249  1  0.83076800  0.33333333  0.75256533  1.0
  Ni  Ni1250  1  0.83076800  0.66666667  0.75256533  1.0
  Ni  Ni1251  1  0.05299022  0.00000000  0.69700978  1.0
  Ni  Ni1252  1  0.05299022  0.33333333  0.69700978  1.0
  Ni  Ni1253  1  0.05299022  0.66666667  0.69700978  1.0
  Ni  Ni1254  1  0.38632356  0.00000000  0.69700978  1.0
  Ni  Ni1255  1  0.38632356  0.33333333  0.69700978  1.0
  Ni  Ni1256  1  0.38632356  0.66666667  0.69700978  1.0
  Ni  Ni1257  1  0.71965689  0.00000000  0.69700978  1.0
  Ni  Ni1258  1  0.71965689  0.33333333  0.69700978  1.0
  Ni  Ni1259  1  0.71965689  0.66666667  0.69700978  1.0
  Ni  Ni1260  1  0.21965689  0.00000000  0.69700978  1.0
  Ni  Ni1261  1  0.21965689  0.33333333  0.69700978  1.0
  Ni  Ni1262  1  0.21965689  0.66666667  0.69700978  1.0
  Ni  Ni1263  1  0.55299022  0.00000000  0.69700978  1.0
  Ni  Ni1264  1  0.55299022  0.33333333  0.69700978  1.0
  Ni  Ni1265  1  0.55299022  0.66666667  0.69700978  1.0
  Ni  Ni1266  1  0.88632356  0.00000000  0.69700978  1.0
  Ni  Ni1267  1  0.88632356  0.33333333  0.69700978  1.0
  Ni  Ni1268  1  0.88632356  0.66666667  0.69700978  1.0
  Ni  Ni1269  1  0.33076800  0.00000000  0.75256533  1.0
  Ni  Ni1270  1  0.33076800  0.33333333  0.75256533  1.0
  Ni  Ni1271  1  0.33076800  0.66666667  0.75256533  1.0
  Ni  Ni1272  1  0.66410133  0.00000000  0.75256533  1.0
  Ni  Ni1273  1  0.66410133  0.33333333  0.75256533  1.0
  Ni  Ni1274  1  0.66410133  0.66666667  0.75256533  1.0
  Ni  Ni1275  1  0.99743467  0.00000000  0.75256533  1.0
  Ni  Ni1276  1  0.99743467  0.33333333  0.75256533  1.0
  Ni  Ni1277  1  0.99743467  0.66666667  0.75256533  1.0
  Ni  Ni1278  1  0.21965689  0.16666667  0.69700978  1.0
  Ni  Ni1279  1  0.21965689  0.50000000  0.69700978  1.0
  Ni  Ni1280  1  0.21965689  0.83333333  0.69700978  1.0
  Ni  Ni1281  1  0.55299022  0.16666667  0.69700978  1.0
  Ni  Ni1282  1  0.55299022  0.50000000  0.69700978  1.0
  Ni  Ni1283  1  0.55299022  0.83333333  0.69700978  1.0
  Ni  Ni1284  1  0.88632356  0.16666667  0.69700978  1.0
  Ni  Ni1285  1  0.88632356  0.50000000  0.69700978  1.0
  Ni  Ni1286  1  0.88632356  0.83333333  0.69700978  1.0
  Ni  Ni1287  1  0.33076800  0.16666667  0.75256533  1.0
  Ni  Ni1288  1  0.33076800  0.50000000  0.75256533  1.0
  Ni  Ni1289  1  0.33076800  0.83333333  0.75256533  1.0
  Ni  Ni1290  1  0.66410133  0.16666667  0.75256533  1.0
  Ni  Ni1291  1  0.66410133  0.50000000  0.75256533  1.0
  Ni  Ni1292  1  0.66410133  0.83333333  0.75256533  1.0
  Ni  Ni1293  1  0.99743467  0.16666667  0.75256533  1.0
  Ni  Ni1294  1  0.99743467  0.50000000  0.75256533  1.0
  Ni  Ni1295  1  0.99743467  0.83333333  0.75256533  1.0
  Ni  Ni1296  1  0.10854578  0.16666667  0.72478756  1.0
  Ni  Ni1297  1  0.10854578  0.50000000  0.72478756  1.0
  Ni  Ni1298  1  0.10854578  0.83333333  0.72478756  1.0
  Ni  Ni1299  1  0.44187911  0.16666667  0.72478756  1.0
  Ni  Ni1300  1  0.44187911  0.50000000  0.72478756  1.0
  Ni  Ni1301  1  0.44187911  0.83333333  0.72478756  1.0
  Ni  Ni1302  1  0.77521244  0.16666667  0.72478756  1.0
  Ni  Ni1303  1  0.77521244  0.50000000  0.72478756  1.0
  Ni  Ni1304  1  0.77521244  0.83333333  0.72478756  1.0
  Ni  Ni1305  1  0.33076800  0.16666667  0.66923200  1.0
  Ni  Ni1306  1  0.33076800  0.50000000  0.66923200  1.0
  Ni  Ni1307  1  0.33076800  0.83333333  0.66923200  1.0
  Ni  Ni1308  1  0.66410133  0.16666667  0.66923200  1.0
  Ni  Ni1309  1  0.66410133  0.50000000  0.66923200  1.0
  Ni  Ni1310  1  0.66410133  0.83333333  0.66923200  1.0
  Ni  Ni1311  1  0.99743467  0.16666667  0.66923200  1.0
  Ni  Ni1312  1  0.99743467  0.50000000  0.66923200  1.0
  Ni  Ni1313  1  0.99743467  0.83333333  0.66923200  1.0
  Ni  Ni1314  1  0.16410133  0.16666667  0.66923200  1.0
  Ni  Ni1315  1  0.16410133  0.50000000  0.66923200  1.0
  Ni  Ni1316  1  0.16410133  0.83333333  0.66923200  1.0
  Ni  Ni1317  1  0.49743467  0.16666667  0.66923200  1.0
  Ni  Ni1318  1  0.49743467  0.50000000  0.66923200  1.0
  Ni  Ni1319  1  0.49743467  0.83333333  0.66923200  1.0
  Ni  Ni1320  1  0.83076800  0.16666667  0.66923200  1.0
  Ni  Ni1321  1  0.83076800  0.50000000  0.66923200  1.0
  Ni  Ni1322  1  0.83076800  0.83333333  0.66923200  1.0
  Ni  Ni1323  1  0.27521244  0.16666667  0.72478756  1.0
  Ni  Ni1324  1  0.27521244  0.50000000  0.72478756  1.0
  Ni  Ni1325  1  0.27521244  0.83333333  0.72478756  1.0
  Ni  Ni1326  1  0.60854578  0.16666667  0.72478756  1.0
  Ni  Ni1327  1  0.60854578  0.50000000  0.72478756  1.0
  Ni  Ni1328  1  0.60854578  0.83333333  0.72478756  1.0
  Ni  Ni1329  1  0.94187911  0.16666667  0.72478756  1.0
  Ni  Ni1330  1  0.94187911  0.50000000  0.72478756  1.0
  Ni  Ni1331  1  0.94187911  0.83333333  0.72478756  1.0
  Ni  Ni1332  1  0.04348044  0.25000000  0.71965689  1.0
  Ni  Ni1333  1  0.04348044  0.58333333  0.71965689  1.0
  Ni  Ni1334  1  0.04348044  0.91666667  0.71965689  1.0
  Ni  Ni1335  1  0.37681378  0.25000000  0.71965689  1.0
  Ni  Ni1336  1  0.37681378  0.58333333  0.71965689  1.0
  Ni  Ni1337  1  0.37681378  0.91666667  0.71965689  1.0
  Ni  Ni1338  1  0.71014711  0.25000000  0.71965689  1.0
  Ni  Ni1339  1  0.71014711  0.58333333  0.71965689  1.0
  Ni  Ni1340  1  0.71014711  0.91666667  0.71965689  1.0
  Ni  Ni1341  1  0.15459156  0.25000000  0.77521244  1.0
  Ni  Ni1342  1  0.15459156  0.58333333  0.77521244  1.0
  Ni  Ni1343  1  0.15459156  0.91666667  0.77521244  1.0
  Ni  Ni1344  1  0.48792489  0.25000000  0.77521244  1.0
  Ni  Ni1345  1  0.48792489  0.58333333  0.77521244  1.0
  Ni  Ni1346  1  0.48792489  0.91666667  0.77521244  1.0
  Ni  Ni1347  1  0.82125822  0.25000000  0.77521244  1.0
  Ni  Ni1348  1  0.82125822  0.58333333  0.77521244  1.0
  Ni  Ni1349  1  0.82125822  0.91666667  0.77521244  1.0
  Ni  Ni1350  1  0.15459156  0.25000000  0.69300644  1.0
  Ni  Ni1351  1  0.15459156  0.58333333  0.69300644  1.0
  Ni  Ni1352  1  0.15459156  0.91666667  0.69300644  1.0
  Ni  Ni1353  1  0.48792489  0.25000000  0.69300644  1.0
  Ni  Ni1354  1  0.48792489  0.58333333  0.69300644  1.0
  Ni  Ni1355  1  0.48792489  0.91666667  0.69300644  1.0
  Ni  Ni1356  1  0.82125822  0.25000000  0.69300644  1.0
  Ni  Ni1357  1  0.82125822  0.58333333  0.69300644  1.0
  Ni  Ni1358  1  0.82125822  0.91666667  0.69300644  1.0
  Ni  Ni1359  1  0.26570267  0.25000000  0.74856200  1.0
  Ni  Ni1360  1  0.26570267  0.58333333  0.74856200  1.0
  Ni  Ni1361  1  0.26570267  0.91666667  0.74856200  1.0
  Ni  Ni1362  1  0.59903600  0.25000000  0.74856200  1.0
  Ni  Ni1363  1  0.59903600  0.58333333  0.74856200  1.0
  Ni  Ni1364  1  0.59903600  0.91666667  0.74856200  1.0
  Ni  Ni1365  1  0.93236933  0.25000000  0.74856200  1.0
  Ni  Ni1366  1  0.93236933  0.58333333  0.74856200  1.0
  Ni  Ni1367  1  0.93236933  0.91666667  0.74856200  1.0
  Ni  Ni1368  1  0.09978756  0.25000000  0.74781044  1.0
  Ni  Ni1369  1  0.09978756  0.58333333  0.74781044  1.0
  Ni  Ni1370  1  0.09978756  0.91666667  0.74781044  1.0
  Ni  Ni1371  1  0.43312089  0.25000000  0.74781044  1.0
  Ni  Ni1372  1  0.43312089  0.58333333  0.74781044  1.0
  Ni  Ni1373  1  0.43312089  0.91666667  0.74781044  1.0
  Ni  Ni1374  1  0.76645422  0.25000000  0.74781044  1.0
  Ni  Ni1375  1  0.76645422  0.58333333  0.74781044  1.0
  Ni  Ni1376  1  0.76645422  0.91666667  0.74781044  1.0
  Ni  Ni1377  1  0.32200978  0.25000000  0.69225489  1.0
  Ni  Ni1378  1  0.32200978  0.58333333  0.69225489  1.0
  Ni  Ni1379  1  0.32200978  0.91666667  0.69225489  1.0
  Ni  Ni1380  1  0.65534311  0.25000000  0.69225489  1.0
  Ni  Ni1381  1  0.65534311  0.58333333  0.69225489  1.0
  Ni  Ni1382  1  0.65534311  0.91666667  0.69225489  1.0
  Ni  Ni1383  1  0.98867644  0.25000000  0.69225489  1.0
  Ni  Ni1384  1  0.98867644  0.58333333  0.69225489  1.0
  Ni  Ni1385  1  0.98867644  0.91666667  0.69225489  1.0
  Ni  Ni1386  1  0.17361111  0.08333333  0.72991822  1.0
  Ni  Ni1387  1  0.17361111  0.41666667  0.72991822  1.0
  Ni  Ni1388  1  0.17361111  0.75000000  0.72991822  1.0
  Ni  Ni1389  1  0.50694444  0.08333333  0.72991822  1.0
  Ni  Ni1390  1  0.50694444  0.41666667  0.72991822  1.0
  Ni  Ni1391  1  0.50694444  0.75000000  0.72991822  1.0
  Ni  Ni1392  1  0.84027778  0.08333333  0.72991822  1.0
  Ni  Ni1393  1  0.84027778  0.41666667  0.72991822  1.0
  Ni  Ni1394  1  0.84027778  0.75000000  0.72991822  1.0
  Ni  Ni1395  1  0.06250000  0.08333333  0.67436267  1.0
  Ni  Ni1396  1  0.06250000  0.41666667  0.67436267  1.0
  Ni  Ni1397  1  0.06250000  0.75000000  0.67436267  1.0
  Ni  Ni1398  1  0.39583333  0.08333333  0.67436267  1.0
  Ni  Ni1399  1  0.39583333  0.41666667  0.67436267  1.0
  Ni  Ni1400  1  0.39583333  0.75000000  0.67436267  1.0
  Ni  Ni1401  1  0.72916667  0.08333333  0.67436267  1.0
  Ni  Ni1402  1  0.72916667  0.41666667  0.67436267  1.0
  Ni  Ni1403  1  0.72916667  0.75000000  0.67436267  1.0
  Ni  Ni1404  1  0.06250000  0.08333333  0.75656867  1.0
  Ni  Ni1405  1  0.06250000  0.41666667  0.75656867  1.0
  Ni  Ni1406  1  0.06250000  0.75000000  0.75656867  1.0
  Ni  Ni1407  1  0.39583333  0.08333333  0.75656867  1.0
  Ni  Ni1408  1  0.39583333  0.41666667  0.75656867  1.0
  Ni  Ni1409  1  0.39583333  0.75000000  0.75656867  1.0
  Ni  Ni1410  1  0.72916667  0.08333333  0.75656867  1.0
  Ni  Ni1411  1  0.72916667  0.41666667  0.75656867  1.0
  Ni  Ni1412  1  0.72916667  0.75000000  0.75656867  1.0
  Ni  Ni1413  1  0.28472222  0.08333333  0.70101311  1.0
  Ni  Ni1414  1  0.28472222  0.41666667  0.70101311  1.0
  Ni  Ni1415  1  0.28472222  0.75000000  0.70101311  1.0
  Ni  Ni1416  1  0.61805556  0.08333333  0.70101311  1.0
  Ni  Ni1417  1  0.61805556  0.41666667  0.70101311  1.0
  Ni  Ni1418  1  0.61805556  0.75000000  0.70101311  1.0
  Ni  Ni1419  1  0.95138889  0.08333333  0.70101311  1.0
  Ni  Ni1420  1  0.95138889  0.41666667  0.70101311  1.0
  Ni  Ni1421  1  0.95138889  0.75000000  0.70101311  1.0
  Ni  Ni1422  1  0.11730400  0.08333333  0.70176467  1.0
  Ni  Ni1423  1  0.11730400  0.41666667  0.70176467  1.0
  Ni  Ni1424  1  0.11730400  0.75000000  0.70176467  1.0
  Ni  Ni1425  1  0.45063733  0.08333333  0.70176467  1.0
  Ni  Ni1426  1  0.45063733  0.41666667  0.70176467  1.0
  Ni  Ni1427  1  0.45063733  0.75000000  0.70176467  1.0
  Ni  Ni1428  1  0.78397067  0.08333333  0.70176467  1.0
  Ni  Ni1429  1  0.78397067  0.41666667  0.70176467  1.0
  Ni  Ni1430  1  0.78397067  0.75000000  0.70176467  1.0
  Ni  Ni1431  1  0.22841511  0.08333333  0.75732022  1.0
  Ni  Ni1432  1  0.22841511  0.41666667  0.75732022  1.0
  Ni  Ni1433  1  0.22841511  0.75000000  0.75732022  1.0
  Ni  Ni1434  1  0.56174844  0.08333333  0.75732022  1.0
  Ni  Ni1435  1  0.56174844  0.41666667  0.75732022  1.0
  Ni  Ni1436  1  0.56174844  0.75000000  0.75732022  1.0
  Ni  Ni1437  1  0.89508178  0.08333333  0.75732022  1.0
  Ni  Ni1438  1  0.89508178  0.41666667  0.75732022  1.0
  Ni  Ni1439  1  0.89508178  0.75000000  0.75732022  1.0
  Ni  Ni1440  1  0.15937093  0.29196900  0.63908902  1.0
  Ni  Ni1441  1  0.15937093  0.62530233  0.63908902  1.0
  Ni  Ni1442  1  0.15937093  0.95863567  0.63908902  1.0
  Ni  Ni1443  1  0.49270426  0.29196900  0.63908902  1.0
  Ni  Ni1444  1  0.49270426  0.62530233  0.63908902  1.0
  Ni  Ni1445  1  0.49270426  0.95863567  0.63908902  1.0
  Ni  Ni1446  1  0.82603759  0.29196900  0.63908902  1.0
  Ni  Ni1447  1  0.82603759  0.62530233  0.63908902  1.0
  Ni  Ni1448  1  0.82603759  0.95863567  0.63908902  1.0
  Ni  Ni1449  1  0.04825981  0.29196900  0.58353346  1.0
  Ni  Ni1450  1  0.04825981  0.62530233  0.58353346  1.0
  Ni  Ni1451  1  0.04825981  0.95863567  0.58353346  1.0
  Ni  Ni1452  1  0.38159315  0.29196900  0.58353346  1.0
  Ni  Ni1453  1  0.38159315  0.62530233  0.58353346  1.0
  Ni  Ni1454  1  0.38159315  0.95863567  0.58353346  1.0
  Ni  Ni1455  1  0.71492648  0.29196900  0.58353346  1.0
  Ni  Ni1456  1  0.71492648  0.62530233  0.58353346  1.0
  Ni  Ni1457  1  0.71492648  0.95863567  0.58353346  1.0
  Ni  Ni1458  1  0.27994285  0.04136433  0.58826387  1.0
  Ni  Ni1459  1  0.27994285  0.37469767  0.58826387  1.0
  Ni  Ni1460  1  0.27994285  0.70803100  0.58826387  1.0
  Ni  Ni1461  1  0.61327619  0.04136433  0.58826387  1.0
  Ni  Ni1462  1  0.61327619  0.37469767  0.58826387  1.0
  Ni  Ni1463  1  0.61327619  0.70803100  0.58826387  1.0
  Ni  Ni1464  1  0.94660952  0.04136433  0.58826387  1.0
  Ni  Ni1465  1  0.94660952  0.37469767  0.58826387  1.0
  Ni  Ni1466  1  0.94660952  0.70803100  0.58826387  1.0
  Ni  Ni1467  1  0.05772063  0.04136433  0.64381943  1.0
  Ni  Ni1468  1  0.05772063  0.37469767  0.64381943  1.0
  Ni  Ni1469  1  0.05772063  0.70803100  0.64381943  1.0
  Ni  Ni1470  1  0.39105396  0.04136433  0.64381943  1.0
  Ni  Ni1471  1  0.39105396  0.37469767  0.64381943  1.0
  Ni  Ni1472  1  0.39105396  0.70803100  0.64381943  1.0
  Ni  Ni1473  1  0.72438730  0.04136433  0.64381943  1.0
  Ni  Ni1474  1  0.72438730  0.37469767  0.64381943  1.0
  Ni  Ni1475  1  0.72438730  0.70803100  0.64381943  1.0
  Ni  Ni1476  1  0.25196352  0.12530233  0.57427420  1.0
  Ni  Ni1477  1  0.25196352  0.45863567  0.57427420  1.0
  Ni  Ni1478  1  0.25196352  0.79196900  0.57427420  1.0
  Ni  Ni1479  1  0.58529685  0.12530233  0.57427420  1.0
  Ni  Ni1480  1  0.58529685  0.45863567  0.57427420  1.0
  Ni  Ni1481  1  0.58529685  0.79196900  0.57427420  1.0
  Ni  Ni1482  1  0.91863019  0.12530233  0.57427420  1.0
  Ni  Ni1483  1  0.91863019  0.45863567  0.57427420  1.0
  Ni  Ni1484  1  0.91863019  0.79196900  0.57427420  1.0
  Ni  Ni1485  1  0.02974130  0.12530233  0.62982976  1.0
  Ni  Ni1486  1  0.02974130  0.45863567  0.62982976  1.0
  Ni  Ni1487  1  0.02974130  0.79196900  0.62982976  1.0
  Ni  Ni1488  1  0.36307463  0.12530233  0.62982976  1.0
  Ni  Ni1489  1  0.36307463  0.45863567  0.62982976  1.0
  Ni  Ni1490  1  0.36307463  0.79196900  0.62982976  1.0
  Ni  Ni1491  1  0.69640796  0.12530233  0.62982976  1.0
  Ni  Ni1492  1  0.69640796  0.45863567  0.62982976  1.0
  Ni  Ni1493  1  0.69640796  0.79196900  0.62982976  1.0
  Ni  Ni1494  1  0.18735026  0.20803100  0.65307869  1.0
  Ni  Ni1495  1  0.18735026  0.54136433  0.65307869  1.0
  Ni  Ni1496  1  0.18735026  0.87469767  0.65307869  1.0
  Ni  Ni1497  1  0.52068359  0.20803100  0.65307869  1.0
  Ni  Ni1498  1  0.52068359  0.54136433  0.65307869  1.0
  Ni  Ni1499  1  0.52068359  0.87469767  0.65307869  1.0
  Ni  Ni1500  1  0.85401693  0.20803100  0.65307869  1.0
  Ni  Ni1501  1  0.85401693  0.54136433  0.65307869  1.0
  Ni  Ni1502  1  0.85401693  0.87469767  0.65307869  1.0
  Ni  Ni1503  1  0.07623915  0.20803100  0.59752313  1.0
  Ni  Ni1504  1  0.07623915  0.54136433  0.59752313  1.0
  Ni  Ni1505  1  0.07623915  0.87469767  0.59752313  1.0
  Ni  Ni1506  1  0.40957248  0.20803100  0.59752313  1.0
  Ni  Ni1507  1  0.40957248  0.54136433  0.59752313  1.0
  Ni  Ni1508  1  0.40957248  0.87469767  0.59752313  1.0
  Ni  Ni1509  1  0.74290581  0.20803100  0.59752313  1.0
  Ni  Ni1510  1  0.74290581  0.54136433  0.59752313  1.0
  Ni  Ni1511  1  0.74290581  0.87469767  0.59752313  1.0
  Ni  Ni1512  1  0.05299022  0.00000000  0.61367644  1.0
  Ni  Ni1513  1  0.05299022  0.33333333  0.61367644  1.0
  Ni  Ni1514  1  0.05299022  0.66666667  0.61367644  1.0
  Ni  Ni1515  1  0.38632356  0.00000000  0.61367644  1.0
  Ni  Ni1516  1  0.38632356  0.33333333  0.61367644  1.0
  Ni  Ni1517  1  0.38632356  0.66666667  0.61367644  1.0
  Ni  Ni1518  1  0.71965689  0.00000000  0.61367644  1.0
  Ni  Ni1519  1  0.71965689  0.33333333  0.61367644  1.0
  Ni  Ni1520  1  0.71965689  0.66666667  0.61367644  1.0
  Ni  Ni1521  1  0.27521244  0.33333333  0.55812089  1.0
  Ni  Ni1522  1  0.27521244  0.66666667  0.55812089  1.0
  Ni  Ni1523  1  0.27521244  0.00000000  0.55812089  1.0
  Ni  Ni1524  1  0.60854578  0.33333333  0.55812089  1.0
  Ni  Ni1525  1  0.60854578  0.66666667  0.55812089  1.0
  Ni  Ni1526  1  0.60854578  0.00000000  0.55812089  1.0
  Ni  Ni1527  1  0.94187911  0.33333333  0.55812089  1.0
  Ni  Ni1528  1  0.94187911  0.66666667  0.55812089  1.0
  Ni  Ni1529  1  0.94187911  0.00000000  0.55812089  1.0
  Ni  Ni1530  1  0.27521244  0.33333333  0.64145422  1.0
  Ni  Ni1531  1  0.27521244  0.66666667  0.64145422  1.0
  Ni  Ni1532  1  0.27521244  0.00000000  0.64145422  1.0
  Ni  Ni1533  1  0.60854578  0.33333333  0.64145422  1.0
  Ni  Ni1534  1  0.60854578  0.66666667  0.64145422  1.0
  Ni  Ni1535  1  0.60854578  0.00000000  0.64145422  1.0
  Ni  Ni1536  1  0.94187911  0.33333333  0.64145422  1.0
  Ni  Ni1537  1  0.94187911  0.66666667  0.64145422  1.0
  Ni  Ni1538  1  0.94187911  0.00000000  0.64145422  1.0
  Ni  Ni1539  1  0.16410133  0.00000000  0.58589867  1.0
  Ni  Ni1540  1  0.16410133  0.33333333  0.58589867  1.0
  Ni  Ni1541  1  0.16410133  0.66666667  0.58589867  1.0
  Ni  Ni1542  1  0.49743467  0.00000000  0.58589867  1.0
  Ni  Ni1543  1  0.49743467  0.33333333  0.58589867  1.0
  Ni  Ni1544  1  0.49743467  0.66666667  0.58589867  1.0
  Ni  Ni1545  1  0.83076800  0.00000000  0.58589867  1.0
  Ni  Ni1546  1  0.83076800  0.33333333  0.58589867  1.0
  Ni  Ni1547  1  0.83076800  0.66666667  0.58589867  1.0
  Ni  Ni1548  1  0.33076800  0.33333333  0.58589867  1.0
  Ni  Ni1549  1  0.33076800  0.66666667  0.58589867  1.0
  Ni  Ni1550  1  0.33076800  0.00000000  0.58589867  1.0
  Ni  Ni1551  1  0.66410133  0.33333333  0.58589867  1.0
  Ni  Ni1552  1  0.66410133  0.66666667  0.58589867  1.0
  Ni  Ni1553  1  0.66410133  0.00000000  0.58589867  1.0
  Ni  Ni1554  1  0.99743467  0.33333333  0.58589867  1.0
  Ni  Ni1555  1  0.99743467  0.66666667  0.58589867  1.0
  Ni  Ni1556  1  0.99743467  0.00000000  0.58589867  1.0
  Ni  Ni1557  1  0.10854578  0.00000000  0.64145422  1.0
  Ni  Ni1558  1  0.10854578  0.33333333  0.64145422  1.0
  Ni  Ni1559  1  0.10854578  0.66666667  0.64145422  1.0
  Ni  Ni1560  1  0.44187911  0.00000000  0.64145422  1.0
  Ni  Ni1561  1  0.44187911  0.33333333  0.64145422  1.0
  Ni  Ni1562  1  0.44187911  0.66666667  0.64145422  1.0
  Ni  Ni1563  1  0.77521244  0.00000000  0.64145422  1.0
  Ni  Ni1564  1  0.77521244  0.33333333  0.64145422  1.0
  Ni  Ni1565  1  0.77521244  0.66666667  0.64145422  1.0
  Ni  Ni1566  1  0.33076800  0.16666667  0.58589867  1.0
  Ni  Ni1567  1  0.33076800  0.50000000  0.58589867  1.0
  Ni  Ni1568  1  0.33076800  0.83333333  0.58589867  1.0
  Ni  Ni1569  1  0.66410133  0.16666667  0.58589867  1.0
  Ni  Ni1570  1  0.66410133  0.50000000  0.58589867  1.0
  Ni  Ni1571  1  0.66410133  0.83333333  0.58589867  1.0
  Ni  Ni1572  1  0.99743467  0.16666667  0.58589867  1.0
  Ni  Ni1573  1  0.99743467  0.50000000  0.58589867  1.0
  Ni  Ni1574  1  0.99743467  0.83333333  0.58589867  1.0
  Ni  Ni1575  1  0.10854578  0.16666667  0.64145422  1.0
  Ni  Ni1576  1  0.10854578  0.50000000  0.64145422  1.0
  Ni  Ni1577  1  0.10854578  0.83333333  0.64145422  1.0
  Ni  Ni1578  1  0.44187911  0.16666667  0.64145422  1.0
  Ni  Ni1579  1  0.44187911  0.50000000  0.64145422  1.0
  Ni  Ni1580  1  0.44187911  0.83333333  0.64145422  1.0
  Ni  Ni1581  1  0.77521244  0.16666667  0.64145422  1.0
  Ni  Ni1582  1  0.77521244  0.50000000  0.64145422  1.0
  Ni  Ni1583  1  0.77521244  0.83333333  0.64145422  1.0
  Ni  Ni1584  1  0.21965689  0.16666667  0.61367644  1.0
  Ni  Ni1585  1  0.21965689  0.50000000  0.61367644  1.0
  Ni  Ni1586  1  0.21965689  0.83333333  0.61367644  1.0
  Ni  Ni1587  1  0.55299022  0.16666667  0.61367644  1.0
  Ni  Ni1588  1  0.55299022  0.50000000  0.61367644  1.0
  Ni  Ni1589  1  0.55299022  0.83333333  0.61367644  1.0
  Ni  Ni1590  1  0.88632356  0.16666667  0.61367644  1.0
  Ni  Ni1591  1  0.88632356  0.50000000  0.61367644  1.0
  Ni  Ni1592  1  0.88632356  0.83333333  0.61367644  1.0
  Ni  Ni1593  1  0.10854578  0.16666667  0.55812089  1.0
  Ni  Ni1594  1  0.10854578  0.50000000  0.55812089  1.0
  Ni  Ni1595  1  0.10854578  0.83333333  0.55812089  1.0
  Ni  Ni1596  1  0.44187911  0.16666667  0.55812089  1.0
  Ni  Ni1597  1  0.44187911  0.50000000  0.55812089  1.0
  Ni  Ni1598  1  0.44187911  0.83333333  0.55812089  1.0
  Ni  Ni1599  1  0.77521244  0.16666667  0.55812089  1.0
  Ni  Ni1600  1  0.77521244  0.50000000  0.55812089  1.0
  Ni  Ni1601  1  0.77521244  0.83333333  0.55812089  1.0
  Ni  Ni1602  1  0.27521244  0.16666667  0.55812089  1.0
  Ni  Ni1603  1  0.27521244  0.50000000  0.55812089  1.0
  Ni  Ni1604  1  0.27521244  0.83333333  0.55812089  1.0
  Ni  Ni1605  1  0.60854578  0.16666667  0.55812089  1.0
  Ni  Ni1606  1  0.60854578  0.50000000  0.55812089  1.0
  Ni  Ni1607  1  0.60854578  0.83333333  0.55812089  1.0
  Ni  Ni1608  1  0.94187911  0.16666667  0.55812089  1.0
  Ni  Ni1609  1  0.94187911  0.50000000  0.55812089  1.0
  Ni  Ni1610  1  0.94187911  0.83333333  0.55812089  1.0
  Ni  Ni1611  1  0.05299022  0.16666667  0.61367644  1.0
  Ni  Ni1612  1  0.05299022  0.50000000  0.61367644  1.0
  Ni  Ni1613  1  0.05299022  0.83333333  0.61367644  1.0
  Ni  Ni1614  1  0.38632356  0.16666667  0.61367644  1.0
  Ni  Ni1615  1  0.38632356  0.50000000  0.61367644  1.0
  Ni  Ni1616  1  0.38632356  0.83333333  0.61367644  1.0
  Ni  Ni1617  1  0.71965689  0.16666667  0.61367644  1.0
  Ni  Ni1618  1  0.71965689  0.50000000  0.61367644  1.0
  Ni  Ni1619  1  0.71965689  0.83333333  0.61367644  1.0
  Ni  Ni1620  1  0.15459156  0.25000000  0.60854578  1.0
  Ni  Ni1621  1  0.15459156  0.58333333  0.60854578  1.0
  Ni  Ni1622  1  0.15459156  0.91666667  0.60854578  1.0
  Ni  Ni1623  1  0.48792489  0.25000000  0.60854578  1.0
  Ni  Ni1624  1  0.48792489  0.58333333  0.60854578  1.0
  Ni  Ni1625  1  0.48792489  0.91666667  0.60854578  1.0
  Ni  Ni1626  1  0.82125822  0.25000000  0.60854578  1.0
  Ni  Ni1627  1  0.82125822  0.58333333  0.60854578  1.0
  Ni  Ni1628  1  0.82125822  0.91666667  0.60854578  1.0
  Ni  Ni1629  1  0.26570267  0.25000000  0.66410133  1.0
  Ni  Ni1630  1  0.26570267  0.58333333  0.66410133  1.0
  Ni  Ni1631  1  0.26570267  0.91666667  0.66410133  1.0
  Ni  Ni1632  1  0.59903600  0.25000000  0.66410133  1.0
  Ni  Ni1633  1  0.59903600  0.58333333  0.66410133  1.0
  Ni  Ni1634  1  0.59903600  0.91666667  0.66410133  1.0
  Ni  Ni1635  1  0.93236933  0.25000000  0.66410133  1.0
  Ni  Ni1636  1  0.93236933  0.58333333  0.66410133  1.0
  Ni  Ni1637  1  0.93236933  0.91666667  0.66410133  1.0
  Ni  Ni1638  1  0.26570267  0.25000000  0.58189533  1.0
  Ni  Ni1639  1  0.26570267  0.58333333  0.58189533  1.0
  Ni  Ni1640  1  0.26570267  0.91666667  0.58189533  1.0
  Ni  Ni1641  1  0.59903600  0.25000000  0.58189533  1.0
  Ni  Ni1642  1  0.59903600  0.58333333  0.58189533  1.0
  Ni  Ni1643  1  0.59903600  0.91666667  0.58189533  1.0
  Ni  Ni1644  1  0.93236933  0.25000000  0.58189533  1.0
  Ni  Ni1645  1  0.93236933  0.58333333  0.58189533  1.0
  Ni  Ni1646  1  0.93236933  0.91666667  0.58189533  1.0
  Ni  Ni1647  1  0.04348044  0.25000000  0.63745089  1.0
  Ni  Ni1648  1  0.04348044  0.58333333  0.63745089  1.0
  Ni  Ni1649  1  0.04348044  0.91666667  0.63745089  1.0
  Ni  Ni1650  1  0.37681378  0.25000000  0.63745089  1.0
  Ni  Ni1651  1  0.37681378  0.58333333  0.63745089  1.0
  Ni  Ni1652  1  0.37681378  0.91666667  0.63745089  1.0
  Ni  Ni1653  1  0.71014711  0.25000000  0.63745089  1.0
  Ni  Ni1654  1  0.71014711  0.58333333  0.63745089  1.0
  Ni  Ni1655  1  0.71014711  0.91666667  0.63745089  1.0
  Ni  Ni1656  1  0.21089867  0.25000000  0.63669933  1.0
  Ni  Ni1657  1  0.21089867  0.58333333  0.63669933  1.0
  Ni  Ni1658  1  0.21089867  0.91666667  0.63669933  1.0
  Ni  Ni1659  1  0.54423200  0.25000000  0.63669933  1.0
  Ni  Ni1660  1  0.54423200  0.58333333  0.63669933  1.0
  Ni  Ni1661  1  0.54423200  0.91666667  0.63669933  1.0
  Ni  Ni1662  1  0.87756533  0.25000000  0.63669933  1.0
  Ni  Ni1663  1  0.87756533  0.58333333  0.63669933  1.0
  Ni  Ni1664  1  0.87756533  0.91666667  0.63669933  1.0
  Ni  Ni1665  1  0.09978756  0.25000000  0.58114378  1.0
  Ni  Ni1666  1  0.09978756  0.58333333  0.58114378  1.0
  Ni  Ni1667  1  0.09978756  0.91666667  0.58114378  1.0
  Ni  Ni1668  1  0.43312089  0.25000000  0.58114378  1.0
  Ni  Ni1669  1  0.43312089  0.58333333  0.58114378  1.0
  Ni  Ni1670  1  0.43312089  0.91666667  0.58114378  1.0
  Ni  Ni1671  1  0.76645422  0.25000000  0.58114378  1.0
  Ni  Ni1672  1  0.76645422  0.58333333  0.58114378  1.0
  Ni  Ni1673  1  0.76645422  0.91666667  0.58114378  1.0
  Ni  Ni1674  1  0.28472222  0.08333333  0.61880711  1.0
  Ni  Ni1675  1  0.28472222  0.41666667  0.61880711  1.0
  Ni  Ni1676  1  0.28472222  0.75000000  0.61880711  1.0
  Ni  Ni1677  1  0.61805556  0.08333333  0.61880711  1.0
  Ni  Ni1678  1  0.61805556  0.41666667  0.61880711  1.0
  Ni  Ni1679  1  0.61805556  0.75000000  0.61880711  1.0
  Ni  Ni1680  1  0.95138889  0.08333333  0.61880711  1.0
  Ni  Ni1681  1  0.95138889  0.41666667  0.61880711  1.0
  Ni  Ni1682  1  0.95138889  0.75000000  0.61880711  1.0
  Ni  Ni1683  1  0.17361111  0.08333333  0.56325156  1.0
  Ni  Ni1684  1  0.17361111  0.41666667  0.56325156  1.0
  Ni  Ni1685  1  0.17361111  0.75000000  0.56325156  1.0
  Ni  Ni1686  1  0.50694444  0.08333333  0.56325156  1.0
  Ni  Ni1687  1  0.50694444  0.41666667  0.56325156  1.0
  Ni  Ni1688  1  0.50694444  0.75000000  0.56325156  1.0
  Ni  Ni1689  1  0.84027778  0.08333333  0.56325156  1.0
  Ni  Ni1690  1  0.84027778  0.41666667  0.56325156  1.0
  Ni  Ni1691  1  0.84027778  0.75000000  0.56325156  1.0
  Ni  Ni1692  1  0.17361111  0.08333333  0.64545756  1.0
  Ni  Ni1693  1  0.17361111  0.41666667  0.64545756  1.0
  Ni  Ni1694  1  0.17361111  0.75000000  0.64545756  1.0
  Ni  Ni1695  1  0.50694444  0.08333333  0.64545756  1.0
  Ni  Ni1696  1  0.50694444  0.41666667  0.64545756  1.0
  Ni  Ni1697  1  0.50694444  0.75000000  0.64545756  1.0
  Ni  Ni1698  1  0.84027778  0.08333333  0.64545756  1.0
  Ni  Ni1699  1  0.84027778  0.41666667  0.64545756  1.0
  Ni  Ni1700  1  0.84027778  0.75000000  0.64545756  1.0
  Ni  Ni1701  1  0.06250000  0.08333333  0.58990200  1.0
  Ni  Ni1702  1  0.06250000  0.41666667  0.58990200  1.0
  Ni  Ni1703  1  0.06250000  0.75000000  0.58990200  1.0
  Ni  Ni1704  1  0.39583333  0.08333333  0.58990200  1.0
  Ni  Ni1705  1  0.39583333  0.41666667  0.58990200  1.0
  Ni  Ni1706  1  0.39583333  0.75000000  0.58990200  1.0
  Ni  Ni1707  1  0.72916667  0.08333333  0.58990200  1.0
  Ni  Ni1708  1  0.72916667  0.41666667  0.58990200  1.0
  Ni  Ni1709  1  0.72916667  0.75000000  0.58990200  1.0
  Ni  Ni1710  1  0.22841511  0.08333333  0.59065356  1.0
  Ni  Ni1711  1  0.22841511  0.41666667  0.59065356  1.0
  Ni  Ni1712  1  0.22841511  0.75000000  0.59065356  1.0
  Ni  Ni1713  1  0.56174844  0.08333333  0.59065356  1.0
  Ni  Ni1714  1  0.56174844  0.41666667  0.59065356  1.0
  Ni  Ni1715  1  0.56174844  0.75000000  0.59065356  1.0
  Ni  Ni1716  1  0.89508178  0.08333333  0.59065356  1.0
  Ni  Ni1717  1  0.89508178  0.41666667  0.59065356  1.0
  Ni  Ni1718  1  0.89508178  0.75000000  0.59065356  1.0
  Ni  Ni1719  1  0.00619289  0.08333333  0.64620911  1.0
  Ni  Ni1720  1  0.00619289  0.41666667  0.64620911  1.0
  Ni  Ni1721  1  0.00619289  0.75000000  0.64620911  1.0
  Ni  Ni1722  1  0.33952622  0.08333333  0.64620911  1.0
  Ni  Ni1723  1  0.33952622  0.41666667  0.64620911  1.0
  Ni  Ni1724  1  0.33952622  0.75000000  0.64620911  1.0
  Ni  Ni1725  1  0.67285956  0.08333333  0.64620911  1.0
  Ni  Ni1726  1  0.67285956  0.41666667  0.64620911  1.0
  Ni  Ni1727  1  0.67285956  0.75000000  0.64620911  1.0
