# generated using pymatgen
data_Ni19Ge12
_symmetry_space_group_name_H-M   'P 1'
_cell_length_a   34.95195598
_cell_length_b   63.67748830
_cell_length_c   60.50518983
_cell_angle_alpha   108.52221474
_cell_angle_beta   150.05478421
_cell_angle_gamma   74.00605284
_symmetry_Int_Tables_number   1
_chemical_formula_structural   Ni19Ge12
_chemical_formula_sum   'Ni1368 Ge864'
_cell_volume   63738.25001214
_cell_formula_units_Z   72
loop_
 _symmetry_equiv_pos_site_id
 _symmetry_equiv_pos_as_xyz
  1  'x, y, z'
loop_
 _atom_site_type_symbol
 _atom_site_label
 _atom_site_symmetry_multiplicity
 _atom_site_fract_x
 _atom_site_fract_y
 _atom_site_fract_z
 _atom_site_occupancy
  Ni  Ni0  1  0.10953567  0.08333333  0.09382856  1.0
  Ni  Ni1  1  0.10953567  0.41666667  0.09382856  1.0
  Ni  Ni2  1  0.10953567  0.75000000  0.09382856  1.0
  Ni  Ni3  1  0.44286900  0.08333333  0.09382856  1.0
  Ni  Ni4  1  0.44286900  0.41666667  0.09382856  1.0
  Ni  Ni5  1  0.44286900  0.75000000  0.09382856  1.0
  Ni  Ni6  1  0.77620233  0.08333333  0.09382856  1.0
  Ni  Ni7  1  0.77620233  0.41666667  0.09382856  1.0
  Ni  Ni8  1  0.77620233  0.75000000  0.09382856  1.0
  Ni  Ni9  1  0.10953567  0.25000000  0.03827300  1.0
  Ni  Ni10  1  0.10953567  0.58333333  0.03827300  1.0
  Ni  Ni11  1  0.10953567  0.91666667  0.03827300  1.0
  Ni  Ni12  1  0.44286900  0.25000000  0.03827300  1.0
  Ni  Ni13  1  0.44286900  0.58333333  0.03827300  1.0
  Ni  Ni14  1  0.44286900  0.91666667  0.03827300  1.0
  Ni  Ni15  1  0.77620233  0.25000000  0.03827300  1.0
  Ni  Ni16  1  0.77620233  0.58333333  0.03827300  1.0
  Ni  Ni17  1  0.77620233  0.91666667  0.03827300  1.0
  Ni  Ni18  1  0.33151400  0.12426583  0.03368039  1.0
  Ni  Ni19  1  0.33151400  0.45759917  0.03368039  1.0
  Ni  Ni20  1  0.33151400  0.79093250  0.03368039  1.0
  Ni  Ni21  1  0.66484733  0.12426583  0.03368039  1.0
  Ni  Ni22  1  0.66484733  0.45759917  0.03368039  1.0
  Ni  Ni23  1  0.66484733  0.79093250  0.03368039  1.0
  Ni  Ni24  1  0.99818067  0.12426583  0.03368039  1.0
  Ni  Ni25  1  0.99818067  0.45759917  0.03368039  1.0
  Ni  Ni26  1  0.99818067  0.79093250  0.03368039  1.0
  Ni  Ni27  1  0.33151400  0.29093250  0.08923594  1.0
  Ni  Ni28  1  0.33151400  0.62426583  0.08923594  1.0
  Ni  Ni29  1  0.33151400  0.95759917  0.08923594  1.0
  Ni  Ni30  1  0.66484733  0.29093250  0.08923594  1.0
  Ni  Ni31  1  0.66484733  0.62426583  0.08923594  1.0
  Ni  Ni32  1  0.66484733  0.95759917  0.08923594  1.0
  Ni  Ni33  1  0.99818067  0.29093250  0.08923594  1.0
  Ni  Ni34  1  0.99818067  0.62426583  0.08923594  1.0
  Ni  Ni35  1  0.99818067  0.95759917  0.08923594  1.0
  Ni  Ni36  1  0.33284700  0.04240083  0.00639206  1.0
  Ni  Ni37  1  0.33284700  0.37573417  0.00639206  1.0
  Ni  Ni38  1  0.33284700  0.70906750  0.00639206  1.0
  Ni  Ni39  1  0.66618033  0.04240083  0.00639206  1.0
  Ni  Ni40  1  0.66618033  0.37573417  0.00639206  1.0
  Ni  Ni41  1  0.66618033  0.70906750  0.00639206  1.0
  Ni  Ni42  1  0.99951367  0.04240083  0.00639206  1.0
  Ni  Ni43  1  0.99951367  0.37573417  0.00639206  1.0
  Ni  Ni44  1  0.99951367  0.70906750  0.00639206  1.0
  Ni  Ni45  1  0.33284700  0.20906750  0.06194761  1.0
  Ni  Ni46  1  0.33284700  0.54240083  0.06194761  1.0
  Ni  Ni47  1  0.33284700  0.87573417  0.06194761  1.0
  Ni  Ni48  1  0.66618033  0.20906750  0.06194761  1.0
  Ni  Ni49  1  0.66618033  0.54240083  0.06194761  1.0
  Ni  Ni50  1  0.66618033  0.87573417  0.06194761  1.0
  Ni  Ni51  1  0.99951367  0.20906750  0.06194761  1.0
  Ni  Ni52  1  0.99951367  0.54240083  0.06194761  1.0
  Ni  Ni53  1  0.99951367  0.87573417  0.06194761  1.0
  Ni  Ni54  1  0.11222733  0.12462183  0.03507428  1.0
  Ni  Ni55  1  0.11222733  0.45795517  0.03507428  1.0
  Ni  Ni56  1  0.11222733  0.79128850  0.03507428  1.0
  Ni  Ni57  1  0.44556067  0.12462183  0.03507428  1.0
  Ni  Ni58  1  0.44556067  0.45795517  0.03507428  1.0
  Ni  Ni59  1  0.44556067  0.79128850  0.03507428  1.0
  Ni  Ni60  1  0.77889400  0.12462183  0.03507428  1.0
  Ni  Ni61  1  0.77889400  0.45795517  0.03507428  1.0
  Ni  Ni62  1  0.77889400  0.79128850  0.03507428  1.0
  Ni  Ni63  1  0.11222733  0.29128850  0.09062983  1.0
  Ni  Ni64  1  0.11222733  0.62462183  0.09062983  1.0
  Ni  Ni65  1  0.11222733  0.95795517  0.09062983  1.0
  Ni  Ni66  1  0.44556067  0.29128850  0.09062983  1.0
  Ni  Ni67  1  0.44556067  0.62462183  0.09062983  1.0
  Ni  Ni68  1  0.44556067  0.95795517  0.09062983  1.0
  Ni  Ni69  1  0.77889400  0.29128850  0.09062983  1.0
  Ni  Ni70  1  0.77889400  0.62462183  0.09062983  1.0
  Ni  Ni71  1  0.77889400  0.95795517  0.09062983  1.0
  Ni  Ni72  1  0.22262600  0.04204483  0.00754861  1.0
  Ni  Ni73  1  0.22262600  0.37537817  0.00754861  1.0
  Ni  Ni74  1  0.22262600  0.70871150  0.00754861  1.0
  Ni  Ni75  1  0.55595933  0.04204483  0.00754861  1.0
  Ni  Ni76  1  0.55595933  0.37537817  0.00754861  1.0
  Ni  Ni77  1  0.55595933  0.70871150  0.00754861  1.0
  Ni  Ni78  1  0.88929267  0.04204483  0.00754861  1.0
  Ni  Ni79  1  0.88929267  0.37537817  0.00754861  1.0
  Ni  Ni80  1  0.88929267  0.70871150  0.00754861  1.0
  Ni  Ni81  1  0.22262600  0.20871150  0.06310417  1.0
  Ni  Ni82  1  0.22262600  0.54204483  0.06310417  1.0
  Ni  Ni83  1  0.22262600  0.87537817  0.06310417  1.0
  Ni  Ni84  1  0.55595933  0.20871150  0.06310417  1.0
  Ni  Ni85  1  0.55595933  0.54204483  0.06310417  1.0
  Ni  Ni86  1  0.55595933  0.87537817  0.06310417  1.0
  Ni  Ni87  1  0.88929267  0.20871150  0.06310417  1.0
  Ni  Ni88  1  0.88929267  0.54204483  0.06310417  1.0
  Ni  Ni89  1  0.88929267  0.87537817  0.06310417  1.0
  Ni  Ni90  1  0.22049067  0.16606200  0.01050056  1.0
  Ni  Ni91  1  0.22049067  0.49939533  0.01050056  1.0
  Ni  Ni92  1  0.22049067  0.83272867  0.01050056  1.0
  Ni  Ni93  1  0.55382400  0.16606200  0.01050056  1.0
  Ni  Ni94  1  0.55382400  0.49939533  0.01050056  1.0
  Ni  Ni95  1  0.55382400  0.83272867  0.01050056  1.0
  Ni  Ni96  1  0.88715733  0.16606200  0.01050056  1.0
  Ni  Ni97  1  0.88715733  0.49939533  0.01050056  1.0
  Ni  Ni98  1  0.88715733  0.83272867  0.01050056  1.0
  Ni  Ni99  1  0.22049067  0.33272867  0.06605611  1.0
  Ni  Ni100  1  0.22049067  0.66606200  0.06605611  1.0
  Ni  Ni101  1  0.22049067  0.99939533  0.06605611  1.0
  Ni  Ni102  1  0.55382400  0.33272867  0.06605611  1.0
  Ni  Ni103  1  0.55382400  0.66606200  0.06605611  1.0
  Ni  Ni104  1  0.55382400  0.99939533  0.06605611  1.0
  Ni  Ni105  1  0.88715733  0.33272867  0.06605611  1.0
  Ni  Ni106  1  0.88715733  0.66606200  0.06605611  1.0
  Ni  Ni107  1  0.88715733  0.99939533  0.06605611  1.0
  Ni  Ni108  1  0.33253467  0.00060467  0.06645922  1.0
  Ni  Ni109  1  0.33253467  0.33393800  0.06645922  1.0
  Ni  Ni110  1  0.33253467  0.66727133  0.06645922  1.0
  Ni  Ni111  1  0.66586800  0.00060467  0.06645922  1.0
  Ni  Ni112  1  0.66586800  0.33393800  0.06645922  1.0
  Ni  Ni113  1  0.66586800  0.66727133  0.06645922  1.0
  Ni  Ni114  1  0.99920133  0.00060467  0.06645922  1.0
  Ni  Ni115  1  0.99920133  0.33393800  0.06645922  1.0
  Ni  Ni116  1  0.99920133  0.66727133  0.06645922  1.0
  Ni  Ni117  1  0.33253467  0.16727133  0.01090367  1.0
  Ni  Ni118  1  0.33253467  0.50060467  0.01090367  1.0
  Ni  Ni119  1  0.33253467  0.83393800  0.01090367  1.0
  Ni  Ni120  1  0.66586800  0.16727133  0.01090367  1.0
  Ni  Ni121  1  0.66586800  0.50060467  0.01090367  1.0
  Ni  Ni122  1  0.66586800  0.83393800  0.01090367  1.0
  Ni  Ni123  1  0.99920133  0.16727133  0.01090367  1.0
  Ni  Ni124  1  0.99920133  0.50060467  0.01090367  1.0
  Ni  Ni125  1  0.99920133  0.83393800  0.01090367  1.0
  Ni  Ni126  1  0.11114933  0.14570750  0.08027861  1.0
  Ni  Ni127  1  0.11114933  0.47904083  0.08027861  1.0
  Ni  Ni128  1  0.11114933  0.81237417  0.08027861  1.0
  Ni  Ni129  1  0.44448267  0.14570750  0.08027861  1.0
  Ni  Ni130  1  0.44448267  0.47904083  0.08027861  1.0
  Ni  Ni131  1  0.44448267  0.81237417  0.08027861  1.0
  Ni  Ni132  1  0.77781600  0.14570750  0.08027861  1.0
  Ni  Ni133  1  0.77781600  0.47904083  0.08027861  1.0
  Ni  Ni134  1  0.77781600  0.81237417  0.08027861  1.0
  Ni  Ni135  1  0.11114933  0.31237417  0.02472306  1.0
  Ni  Ni136  1  0.11114933  0.64570750  0.02472306  1.0
  Ni  Ni137  1  0.11114933  0.97904083  0.02472306  1.0
  Ni  Ni138  1  0.44448267  0.31237417  0.02472306  1.0
  Ni  Ni139  1  0.44448267  0.64570750  0.02472306  1.0
  Ni  Ni140  1  0.44448267  0.97904083  0.02472306  1.0
  Ni  Ni141  1  0.77781600  0.31237417  0.02472306  1.0
  Ni  Ni142  1  0.77781600  0.64570750  0.02472306  1.0
  Ni  Ni143  1  0.77781600  0.97904083  0.02472306  1.0
  Ni  Ni144  1  0.00489800  0.02095917  0.03869583  1.0
  Ni  Ni145  1  0.00489800  0.35429250  0.03869583  1.0
  Ni  Ni146  1  0.00489800  0.68762583  0.03869583  1.0
  Ni  Ni147  1  0.33823133  0.02095917  0.03869583  1.0
  Ni  Ni148  1  0.33823133  0.35429250  0.03869583  1.0
  Ni  Ni149  1  0.33823133  0.68762583  0.03869583  1.0
  Ni  Ni150  1  0.67156467  0.02095917  0.03869583  1.0
  Ni  Ni151  1  0.67156467  0.35429250  0.03869583  1.0
  Ni  Ni152  1  0.67156467  0.68762583  0.03869583  1.0
  Ni  Ni153  1  0.00489800  0.18762583  0.09425139  1.0
  Ni  Ni154  1  0.00489800  0.52095917  0.09425139  1.0
  Ni  Ni155  1  0.00489800  0.85429250  0.09425139  1.0
  Ni  Ni156  1  0.33823133  0.18762583  0.09425139  1.0
  Ni  Ni157  1  0.33823133  0.52095917  0.09425139  1.0
  Ni  Ni158  1  0.33823133  0.85429250  0.09425139  1.0
  Ni  Ni159  1  0.67156467  0.18762583  0.09425139  1.0
  Ni  Ni160  1  0.67156467  0.52095917  0.09425139  1.0
  Ni  Ni161  1  0.67156467  0.85429250  0.09425139  1.0
  Ni  Ni162  1  0.11317033  0.10382600  0.06553289  1.0
  Ni  Ni163  1  0.11317033  0.43715933  0.06553289  1.0
  Ni  Ni164  1  0.11317033  0.77049267  0.06553289  1.0
  Ni  Ni165  1  0.44650367  0.10382600  0.06553289  1.0
  Ni  Ni166  1  0.44650367  0.43715933  0.06553289  1.0
  Ni  Ni167  1  0.44650367  0.77049267  0.06553289  1.0
  Ni  Ni168  1  0.77983700  0.10382600  0.06553289  1.0
  Ni  Ni169  1  0.77983700  0.43715933  0.06553289  1.0
  Ni  Ni170  1  0.77983700  0.77049267  0.06553289  1.0
  Ni  Ni171  1  0.11317033  0.27049267  0.00997733  1.0
  Ni  Ni172  1  0.11317033  0.60382600  0.00997733  1.0
  Ni  Ni173  1  0.11317033  0.93715933  0.00997733  1.0
  Ni  Ni174  1  0.44650367  0.27049267  0.00997733  1.0
  Ni  Ni175  1  0.44650367  0.60382600  0.00997733  1.0
  Ni  Ni176  1  0.44650367  0.93715933  0.00997733  1.0
  Ni  Ni177  1  0.77983700  0.27049267  0.00997733  1.0
  Ni  Ni178  1  0.77983700  0.60382600  0.00997733  1.0
  Ni  Ni179  1  0.77983700  0.93715933  0.00997733  1.0
  Ni  Ni180  1  0.00052133  0.06284067  0.05187111  1.0
  Ni  Ni181  1  0.00052133  0.39617400  0.05187111  1.0
  Ni  Ni182  1  0.00052133  0.72950733  0.05187111  1.0
  Ni  Ni183  1  0.33385467  0.06284067  0.05187111  1.0
  Ni  Ni184  1  0.33385467  0.39617400  0.05187111  1.0
  Ni  Ni185  1  0.33385467  0.72950733  0.05187111  1.0
  Ni  Ni186  1  0.66718800  0.06284067  0.05187111  1.0
  Ni  Ni187  1  0.66718800  0.39617400  0.05187111  1.0
  Ni  Ni188  1  0.66718800  0.72950733  0.05187111  1.0
  Ni  Ni189  1  0.00052133  0.22950733  0.10742667  1.0
  Ni  Ni190  1  0.00052133  0.56284067  0.10742667  1.0
  Ni  Ni191  1  0.00052133  0.89617400  0.10742667  1.0
  Ni  Ni192  1  0.33385467  0.22950733  0.10742667  1.0
  Ni  Ni193  1  0.33385467  0.56284067  0.10742667  1.0
  Ni  Ni194  1  0.33385467  0.89617400  0.10742667  1.0
  Ni  Ni195  1  0.66718800  0.22950733  0.10742667  1.0
  Ni  Ni196  1  0.66718800  0.56284067  0.10742667  1.0
  Ni  Ni197  1  0.66718800  0.89617400  0.10742667  1.0
  Ni  Ni198  1  0.11168200  0.06269650  0.04904783  1.0
  Ni  Ni199  1  0.11168200  0.39602983  0.04904783  1.0
  Ni  Ni200  1  0.11168200  0.72936317  0.04904783  1.0
  Ni  Ni201  1  0.44501533  0.06269650  0.04904783  1.0
  Ni  Ni202  1  0.44501533  0.39602983  0.04904783  1.0
  Ni  Ni203  1  0.44501533  0.72936317  0.04904783  1.0
  Ni  Ni204  1  0.77834867  0.06269650  0.04904783  1.0
  Ni  Ni205  1  0.77834867  0.39602983  0.04904783  1.0
  Ni  Ni206  1  0.77834867  0.72936317  0.04904783  1.0
  Ni  Ni207  1  0.11168200  0.22936317  0.10460339  1.0
  Ni  Ni208  1  0.11168200  0.56269650  0.10460339  1.0
  Ni  Ni209  1  0.11168200  0.89602983  0.10460339  1.0
  Ni  Ni210  1  0.44501533  0.22936317  0.10460339  1.0
  Ni  Ni211  1  0.44501533  0.56269650  0.10460339  1.0
  Ni  Ni212  1  0.44501533  0.89602983  0.10460339  1.0
  Ni  Ni213  1  0.77834867  0.22936317  0.10460339  1.0
  Ni  Ni214  1  0.77834867  0.56269650  0.10460339  1.0
  Ni  Ni215  1  0.77834867  0.89602983  0.10460339  1.0
  Ni  Ni216  1  0.32701733  0.10397017  0.06280572  1.0
  Ni  Ni217  1  0.32701733  0.43730350  0.06280572  1.0
  Ni  Ni218  1  0.32701733  0.77063683  0.06280572  1.0
  Ni  Ni219  1  0.66035067  0.10397017  0.06280572  1.0
  Ni  Ni220  1  0.66035067  0.43730350  0.06280572  1.0
  Ni  Ni221  1  0.66035067  0.77063683  0.06280572  1.0
  Ni  Ni222  1  0.99368400  0.10397017  0.06280572  1.0
  Ni  Ni223  1  0.99368400  0.43730350  0.06280572  1.0
  Ni  Ni224  1  0.99368400  0.77063683  0.06280572  1.0
  Ni  Ni225  1  0.32701733  0.27063683  0.00725017  1.0
  Ni  Ni226  1  0.32701733  0.60397017  0.00725017  1.0
  Ni  Ni227  1  0.32701733  0.93730350  0.00725017  1.0
  Ni  Ni228  1  0.66035067  0.27063683  0.00725017  1.0
  Ni  Ni229  1  0.66035067  0.60397017  0.00725017  1.0
  Ni  Ni230  1  0.66035067  0.93730350  0.00725017  1.0
  Ni  Ni231  1  0.99368400  0.27063683  0.00725017  1.0
  Ni  Ni232  1  0.99368400  0.60397017  0.00725017  1.0
  Ni  Ni233  1  0.99368400  0.93730350  0.00725017  1.0
  Ni  Ni234  1  0.11022267  0.02096233  0.03702111  1.0
  Ni  Ni235  1  0.11022267  0.35429567  0.03702111  1.0
  Ni  Ni236  1  0.11022267  0.68762900  0.03702111  1.0
  Ni  Ni237  1  0.44355600  0.02096233  0.03702111  1.0
  Ni  Ni238  1  0.44355600  0.35429567  0.03702111  1.0
  Ni  Ni239  1  0.44355600  0.68762900  0.03702111  1.0
  Ni  Ni240  1  0.77688933  0.02096233  0.03702111  1.0
  Ni  Ni241  1  0.77688933  0.35429567  0.03702111  1.0
  Ni  Ni242  1  0.77688933  0.68762900  0.03702111  1.0
  Ni  Ni243  1  0.11022267  0.18762900  0.09257667  1.0
  Ni  Ni244  1  0.11022267  0.52096233  0.09257667  1.0
  Ni  Ni245  1  0.11022267  0.85429567  0.09257667  1.0
  Ni  Ni246  1  0.44355600  0.18762900  0.09257667  1.0
  Ni  Ni247  1  0.44355600  0.52096233  0.09257667  1.0
  Ni  Ni248  1  0.44355600  0.85429567  0.09257667  1.0
  Ni  Ni249  1  0.77688933  0.18762900  0.09257667  1.0
  Ni  Ni250  1  0.77688933  0.52096233  0.09257667  1.0
  Ni  Ni251  1  0.77688933  0.85429567  0.09257667  1.0
  Ni  Ni252  1  0.00079733  0.14570433  0.07860178  1.0
  Ni  Ni253  1  0.00079733  0.47903767  0.07860178  1.0
  Ni  Ni254  1  0.00079733  0.81237100  0.07860178  1.0
  Ni  Ni255  1  0.33413067  0.14570433  0.07860178  1.0
  Ni  Ni256  1  0.33413067  0.47903767  0.07860178  1.0
  Ni  Ni257  1  0.33413067  0.81237100  0.07860178  1.0
  Ni  Ni258  1  0.66746400  0.14570433  0.07860178  1.0
  Ni  Ni259  1  0.66746400  0.47903767  0.07860178  1.0
  Ni  Ni260  1  0.66746400  0.81237100  0.07860178  1.0
  Ni  Ni261  1  0.00079733  0.31237100  0.02304622  1.0
  Ni  Ni262  1  0.00079733  0.64570433  0.02304622  1.0
  Ni  Ni263  1  0.00079733  0.97903767  0.02304622  1.0
  Ni  Ni264  1  0.33413067  0.31237100  0.02304622  1.0
  Ni  Ni265  1  0.33413067  0.64570433  0.02304622  1.0
  Ni  Ni266  1  0.33413067  0.97903767  0.02304622  1.0
  Ni  Ni267  1  0.66746400  0.31237100  0.02304622  1.0
  Ni  Ni268  1  0.66746400  0.64570433  0.02304622  1.0
  Ni  Ni269  1  0.66746400  0.97903767  0.02304622  1.0
  Ni  Ni270  1  0.22004200  0.14569217  0.07590294  1.0
  Ni  Ni271  1  0.22004200  0.47902550  0.07590294  1.0
  Ni  Ni272  1  0.22004200  0.81235883  0.07590294  1.0
  Ni  Ni273  1  0.55337533  0.14569217  0.07590294  1.0
  Ni  Ni274  1  0.55337533  0.47902550  0.07590294  1.0
  Ni  Ni275  1  0.55337533  0.81235883  0.07590294  1.0
  Ni  Ni276  1  0.88670867  0.14569217  0.07590294  1.0
  Ni  Ni277  1  0.88670867  0.47902550  0.07590294  1.0
  Ni  Ni278  1  0.88670867  0.81235883  0.07590294  1.0
  Ni  Ni279  1  0.22004200  0.31235883  0.02034739  1.0
  Ni  Ni280  1  0.22004200  0.64569217  0.02034739  1.0
  Ni  Ni281  1  0.22004200  0.97902550  0.02034739  1.0
  Ni  Ni282  1  0.55337533  0.31235883  0.02034739  1.0
  Ni  Ni283  1  0.55337533  0.64569217  0.02034739  1.0
  Ni  Ni284  1  0.55337533  0.97902550  0.02034739  1.0
  Ni  Ni285  1  0.88670867  0.31235883  0.02034739  1.0
  Ni  Ni286  1  0.88670867  0.64569217  0.02034739  1.0
  Ni  Ni287  1  0.88670867  0.97902550  0.02034739  1.0
  Ni  Ni288  1  0.21622700  0.02097450  0.03433039  1.0
  Ni  Ni289  1  0.21622700  0.35430783  0.03433039  1.0
  Ni  Ni290  1  0.21622700  0.68764117  0.03433039  1.0
  Ni  Ni291  1  0.54956033  0.02097450  0.03433039  1.0
  Ni  Ni292  1  0.54956033  0.35430783  0.03433039  1.0
  Ni  Ni293  1  0.54956033  0.68764117  0.03433039  1.0
  Ni  Ni294  1  0.88289367  0.02097450  0.03433039  1.0
  Ni  Ni295  1  0.88289367  0.35430783  0.03433039  1.0
  Ni  Ni296  1  0.88289367  0.68764117  0.03433039  1.0
  Ni  Ni297  1  0.21622700  0.18764117  0.08988594  1.0
  Ni  Ni298  1  0.21622700  0.52097450  0.08988594  1.0
  Ni  Ni299  1  0.21622700  0.85430783  0.08988594  1.0
  Ni  Ni300  1  0.54956033  0.18764117  0.08988594  1.0
  Ni  Ni301  1  0.54956033  0.52097450  0.08988594  1.0
  Ni  Ni302  1  0.54956033  0.85430783  0.08988594  1.0
  Ni  Ni303  1  0.88289367  0.18764117  0.08988594  1.0
  Ni  Ni304  1  0.88289367  0.52097450  0.08988594  1.0
  Ni  Ni305  1  0.88289367  0.85430783  0.08988594  1.0
  Ni  Ni306  1  0.22557633  0.10379083  0.06431794  1.0
  Ni  Ni307  1  0.22557633  0.43712417  0.06431794  1.0
  Ni  Ni308  1  0.22557633  0.77045750  0.06431794  1.0
  Ni  Ni309  1  0.55890967  0.10379083  0.06431794  1.0
  Ni  Ni310  1  0.55890967  0.43712417  0.06431794  1.0
  Ni  Ni311  1  0.55890967  0.77045750  0.06431794  1.0
  Ni  Ni312  1  0.89224300  0.10379083  0.06431794  1.0
  Ni  Ni313  1  0.89224300  0.43712417  0.06431794  1.0
  Ni  Ni314  1  0.89224300  0.77045750  0.06431794  1.0
  Ni  Ni315  1  0.22557633  0.27045750  0.00876239  1.0
  Ni  Ni316  1  0.22557633  0.60379083  0.00876239  1.0
  Ni  Ni317  1  0.22557633  0.93712417  0.00876239  1.0
  Ni  Ni318  1  0.55890967  0.27045750  0.00876239  1.0
  Ni  Ni319  1  0.55890967  0.60379083  0.00876239  1.0
  Ni  Ni320  1  0.55890967  0.93712417  0.00876239  1.0
  Ni  Ni321  1  0.89224300  0.27045750  0.00876239  1.0
  Ni  Ni322  1  0.89224300  0.60379083  0.00876239  1.0
  Ni  Ni323  1  0.89224300  0.93712417  0.00876239  1.0
  Ni  Ni324  1  0.21783900  0.06287583  0.05067961  1.0
  Ni  Ni325  1  0.21783900  0.39620917  0.05067961  1.0
  Ni  Ni326  1  0.21783900  0.72954250  0.05067961  1.0
  Ni  Ni327  1  0.55117233  0.06287583  0.05067961  1.0
  Ni  Ni328  1  0.55117233  0.39620917  0.05067961  1.0
  Ni  Ni329  1  0.55117233  0.72954250  0.05067961  1.0
  Ni  Ni330  1  0.88450567  0.06287583  0.05067961  1.0
  Ni  Ni331  1  0.88450567  0.39620917  0.05067961  1.0
  Ni  Ni332  1  0.88450567  0.72954250  0.05067961  1.0
  Ni  Ni333  1  0.21783900  0.22954250  0.10623517  1.0
  Ni  Ni334  1  0.21783900  0.56287583  0.10623517  1.0
  Ni  Ni335  1  0.21783900  0.89620917  0.10623517  1.0
  Ni  Ni336  1  0.55117233  0.22954250  0.10623517  1.0
  Ni  Ni337  1  0.55117233  0.56287583  0.10623517  1.0
  Ni  Ni338  1  0.55117233  0.89620917  0.10623517  1.0
  Ni  Ni339  1  0.88450567  0.22954250  0.10623517  1.0
  Ni  Ni340  1  0.88450567  0.56287583  0.10623517  1.0
  Ni  Ni341  1  0.88450567  0.89620917  0.10623517  1.0
  Ge  Ge342  1  0.00857433  0.00000000  0.10985433  1.0
  Ge  Ge343  1  0.00857433  0.33333333  0.10985433  1.0
  Ge  Ge344  1  0.00857433  0.66666667  0.10985433  1.0
  Ge  Ge345  1  0.34190767  0.00000000  0.10985433  1.0
  Ge  Ge346  1  0.34190767  0.33333333  0.10985433  1.0
  Ge  Ge347  1  0.34190767  0.66666667  0.10985433  1.0
  Ge  Ge348  1  0.67524100  0.00000000  0.10985433  1.0
  Ge  Ge349  1  0.67524100  0.33333333  0.10985433  1.0
  Ge  Ge350  1  0.67524100  0.66666667  0.10985433  1.0
  Ge  Ge351  1  0.00857433  0.16666667  0.05429878  1.0
  Ge  Ge352  1  0.00857433  0.50000000  0.05429878  1.0
  Ge  Ge353  1  0.00857433  0.83333333  0.05429878  1.0
  Ge  Ge354  1  0.34190767  0.16666667  0.05429878  1.0
  Ge  Ge355  1  0.34190767  0.50000000  0.05429878  1.0
  Ge  Ge356  1  0.34190767  0.83333333  0.05429878  1.0
  Ge  Ge357  1  0.67524100  0.16666667  0.05429878  1.0
  Ge  Ge358  1  0.67524100  0.50000000  0.05429878  1.0
  Ge  Ge359  1  0.67524100  0.83333333  0.05429878  1.0
  Ge  Ge360  1  0.32574633  0.08333333  0.01574678  1.0
  Ge  Ge361  1  0.32574633  0.41666667  0.01574678  1.0
  Ge  Ge362  1  0.32574633  0.75000000  0.01574678  1.0
  Ge  Ge363  1  0.65907967  0.08333333  0.01574678  1.0
  Ge  Ge364  1  0.65907967  0.41666667  0.01574678  1.0
  Ge  Ge365  1  0.65907967  0.75000000  0.01574678  1.0
  Ge  Ge366  1  0.99241300  0.08333333  0.01574678  1.0
  Ge  Ge367  1  0.99241300  0.41666667  0.01574678  1.0
  Ge  Ge368  1  0.99241300  0.75000000  0.01574678  1.0
  Ge  Ge369  1  0.32574633  0.25000000  0.07130233  1.0
  Ge  Ge370  1  0.32574633  0.58333333  0.07130233  1.0
  Ge  Ge371  1  0.32574633  0.91666667  0.07130233  1.0
  Ge  Ge372  1  0.65907967  0.25000000  0.07130233  1.0
  Ge  Ge373  1  0.65907967  0.58333333  0.07130233  1.0
  Ge  Ge374  1  0.65907967  0.91666667  0.07130233  1.0
  Ge  Ge375  1  0.99241300  0.25000000  0.07130233  1.0
  Ge  Ge376  1  0.99241300  0.58333333  0.07130233  1.0
  Ge  Ge377  1  0.99241300  0.91666667  0.07130233  1.0
  Ge  Ge378  1  0.12086700  0.12458433  0.00060067  1.0
  Ge  Ge379  1  0.12086700  0.45791767  0.00060067  1.0
  Ge  Ge380  1  0.12086700  0.79125100  0.00060067  1.0
  Ge  Ge381  1  0.45420033  0.12458433  0.00060067  1.0
  Ge  Ge382  1  0.45420033  0.45791767  0.00060067  1.0
  Ge  Ge383  1  0.45420033  0.79125100  0.00060067  1.0
  Ge  Ge384  1  0.78753367  0.12458433  0.00060067  1.0
  Ge  Ge385  1  0.78753367  0.45791767  0.00060067  1.0
  Ge  Ge386  1  0.78753367  0.79125100  0.00060067  1.0
  Ge  Ge387  1  0.12086700  0.29125100  0.05615622  1.0
  Ge  Ge388  1  0.12086700  0.62458433  0.05615622  1.0
  Ge  Ge389  1  0.12086700  0.95791767  0.05615622  1.0
  Ge  Ge390  1  0.45420033  0.29125100  0.05615622  1.0
  Ge  Ge391  1  0.45420033  0.62458433  0.05615622  1.0
  Ge  Ge392  1  0.45420033  0.95791767  0.05615622  1.0
  Ge  Ge393  1  0.78753367  0.29125100  0.05615622  1.0
  Ge  Ge394  1  0.78753367  0.62458433  0.05615622  1.0
  Ge  Ge395  1  0.78753367  0.95791767  0.05615622  1.0
  Ge  Ge396  1  0.11060300  0.04208233  0.08421111  1.0
  Ge  Ge397  1  0.11060300  0.37541567  0.08421111  1.0
  Ge  Ge398  1  0.11060300  0.70874900  0.08421111  1.0
  Ge  Ge399  1  0.44393633  0.04208233  0.08421111  1.0
  Ge  Ge400  1  0.44393633  0.37541567  0.08421111  1.0
  Ge  Ge401  1  0.44393633  0.70874900  0.08421111  1.0
  Ge  Ge402  1  0.77726967  0.04208233  0.08421111  1.0
  Ge  Ge403  1  0.77726967  0.37541567  0.08421111  1.0
  Ge  Ge404  1  0.77726967  0.70874900  0.08421111  1.0
  Ge  Ge405  1  0.11060300  0.20874900  0.02865556  1.0
  Ge  Ge406  1  0.11060300  0.54208233  0.02865556  1.0
  Ge  Ge407  1  0.11060300  0.87541567  0.02865556  1.0
  Ge  Ge408  1  0.44393633  0.20874900  0.02865556  1.0
  Ge  Ge409  1  0.44393633  0.54208233  0.02865556  1.0
  Ge  Ge410  1  0.44393633  0.87541567  0.02865556  1.0
  Ge  Ge411  1  0.77726967  0.20874900  0.02865556  1.0
  Ge  Ge412  1  0.77726967  0.54208233  0.02865556  1.0
  Ge  Ge413  1  0.77726967  0.87541567  0.02865556  1.0
  Ge  Ge414  1  0.11047367  0.16628633  0.04432422  1.0
  Ge  Ge415  1  0.11047367  0.49961967  0.04432422  1.0
  Ge  Ge416  1  0.11047367  0.83295300  0.04432422  1.0
  Ge  Ge417  1  0.44380700  0.16628633  0.04432422  1.0
  Ge  Ge418  1  0.44380700  0.49961967  0.04432422  1.0
  Ge  Ge419  1  0.44380700  0.83295300  0.04432422  1.0
  Ge  Ge420  1  0.77714033  0.16628633  0.04432422  1.0
  Ge  Ge421  1  0.77714033  0.49961967  0.04432422  1.0
  Ge  Ge422  1  0.77714033  0.83295300  0.04432422  1.0
  Ge  Ge423  1  0.11047367  0.33295300  0.09987978  1.0
  Ge  Ge424  1  0.11047367  0.66628633  0.09987978  1.0
  Ge  Ge425  1  0.11047367  0.99961967  0.09987978  1.0
  Ge  Ge426  1  0.44380700  0.33295300  0.09987978  1.0
  Ge  Ge427  1  0.44380700  0.66628633  0.09987978  1.0
  Ge  Ge428  1  0.44380700  0.99961967  0.09987978  1.0
  Ge  Ge429  1  0.77714033  0.33295300  0.09987978  1.0
  Ge  Ge430  1  0.77714033  0.66628633  0.09987978  1.0
  Ge  Ge431  1  0.77714033  0.99961967  0.09987978  1.0
  Ge  Ge432  1  0.21046500  0.00038033  0.10013333  1.0
  Ge  Ge433  1  0.21046500  0.33371367  0.10013333  1.0
  Ge  Ge434  1  0.21046500  0.66704700  0.10013333  1.0
  Ge  Ge435  1  0.54379833  0.00038033  0.10013333  1.0
  Ge  Ge436  1  0.54379833  0.33371367  0.10013333  1.0
  Ge  Ge437  1  0.54379833  0.66704700  0.10013333  1.0
  Ge  Ge438  1  0.87713167  0.00038033  0.10013333  1.0
  Ge  Ge439  1  0.87713167  0.33371367  0.10013333  1.0
  Ge  Ge440  1  0.87713167  0.66704700  0.10013333  1.0
  Ge  Ge441  1  0.21046500  0.16704700  0.04457778  1.0
  Ge  Ge442  1  0.21046500  0.50038033  0.04457778  1.0
  Ge  Ge443  1  0.21046500  0.83371367  0.04457778  1.0
  Ge  Ge444  1  0.54379833  0.16704700  0.04457778  1.0
  Ge  Ge445  1  0.54379833  0.50038033  0.04457778  1.0
  Ge  Ge446  1  0.54379833  0.83371367  0.04457778  1.0
  Ge  Ge447  1  0.87713167  0.16704700  0.04457778  1.0
  Ge  Ge448  1  0.87713167  0.50038033  0.04457778  1.0
  Ge  Ge449  1  0.87713167  0.83371367  0.04457778  1.0
  Ge  Ge450  1  0.10957333  0.08367200  0.02191544  1.0
  Ge  Ge451  1  0.10957333  0.41700533  0.02191544  1.0
  Ge  Ge452  1  0.10957333  0.75033867  0.02191544  1.0
  Ge  Ge453  1  0.44290667  0.08367200  0.02191544  1.0
  Ge  Ge454  1  0.44290667  0.41700533  0.02191544  1.0
  Ge  Ge455  1  0.44290667  0.75033867  0.02191544  1.0
  Ge  Ge456  1  0.77624000  0.08367200  0.02191544  1.0
  Ge  Ge457  1  0.77624000  0.41700533  0.02191544  1.0
  Ge  Ge458  1  0.77624000  0.75033867  0.02191544  1.0
  Ge  Ge459  1  0.10957333  0.25033867  0.07747100  1.0
  Ge  Ge460  1  0.10957333  0.58367200  0.07747100  1.0
  Ge  Ge461  1  0.10957333  0.91700533  0.07747100  1.0
  Ge  Ge462  1  0.44290667  0.25033867  0.07747100  1.0
  Ge  Ge463  1  0.44290667  0.58367200  0.07747100  1.0
  Ge  Ge464  1  0.44290667  0.91700533  0.07747100  1.0
  Ge  Ge465  1  0.77624000  0.25033867  0.07747100  1.0
  Ge  Ge466  1  0.77624000  0.58367200  0.07747100  1.0
  Ge  Ge467  1  0.77624000  0.91700533  0.07747100  1.0
  Ge  Ge468  1  0.22675333  0.08299467  0.02168967  1.0
  Ge  Ge469  1  0.22675333  0.41632800  0.02168967  1.0
  Ge  Ge470  1  0.22675333  0.74966133  0.02168967  1.0
  Ge  Ge471  1  0.56008667  0.08299467  0.02168967  1.0
  Ge  Ge472  1  0.56008667  0.41632800  0.02168967  1.0
  Ge  Ge473  1  0.56008667  0.74966133  0.02168967  1.0
  Ge  Ge474  1  0.89342000  0.08299467  0.02168967  1.0
  Ge  Ge475  1  0.89342000  0.41632800  0.02168967  1.0
  Ge  Ge476  1  0.89342000  0.74966133  0.02168967  1.0
  Ge  Ge477  1  0.22675333  0.24966133  0.07724522  1.0
  Ge  Ge478  1  0.22675333  0.58299467  0.07724522  1.0
  Ge  Ge479  1  0.22675333  0.91632800  0.07724522  1.0
  Ge  Ge480  1  0.56008667  0.24966133  0.07724522  1.0
  Ge  Ge481  1  0.56008667  0.58299467  0.07724522  1.0
  Ge  Ge482  1  0.56008667  0.91632800  0.07724522  1.0
  Ge  Ge483  1  0.89342000  0.24966133  0.07724522  1.0
  Ge  Ge484  1  0.89342000  0.58299467  0.07724522  1.0
  Ge  Ge485  1  0.89342000  0.91632800  0.07724522  1.0
  Ge  Ge486  1  0.22143100  0.12462350  0.00125583  1.0
  Ge  Ge487  1  0.22143100  0.45795683  0.00125583  1.0
  Ge  Ge488  1  0.22143100  0.79129017  0.00125583  1.0
  Ge  Ge489  1  0.55476433  0.12462350  0.00125583  1.0
  Ge  Ge490  1  0.55476433  0.45795683  0.00125583  1.0
  Ge  Ge491  1  0.55476433  0.79129017  0.00125583  1.0
  Ge  Ge492  1  0.88809767  0.12462350  0.00125583  1.0
  Ge  Ge493  1  0.88809767  0.45795683  0.00125583  1.0
  Ge  Ge494  1  0.88809767  0.79129017  0.00125583  1.0
  Ge  Ge495  1  0.22143100  0.29129017  0.05681139  1.0
  Ge  Ge496  1  0.22143100  0.62462350  0.05681139  1.0
  Ge  Ge497  1  0.22143100  0.95795683  0.05681139  1.0
  Ge  Ge498  1  0.55476433  0.29129017  0.05681139  1.0
  Ge  Ge499  1  0.55476433  0.62462350  0.05681139  1.0
  Ge  Ge500  1  0.55476433  0.95795683  0.05681139  1.0
  Ge  Ge501  1  0.88809767  0.29129017  0.05681139  1.0
  Ge  Ge502  1  0.88809767  0.62462350  0.05681139  1.0
  Ge  Ge503  1  0.88809767  0.95795683  0.05681139  1.0
  Ge  Ge504  1  0.01196533  0.04204317  0.08484017  1.0
  Ge  Ge505  1  0.01196533  0.37537650  0.08484017  1.0
  Ge  Ge506  1  0.01196533  0.70870983  0.08484017  1.0
  Ge  Ge507  1  0.34529867  0.04204317  0.08484017  1.0
  Ge  Ge508  1  0.34529867  0.37537650  0.08484017  1.0
  Ge  Ge509  1  0.34529867  0.70870983  0.08484017  1.0
  Ge  Ge510  1  0.67863200  0.04204317  0.08484017  1.0
  Ge  Ge511  1  0.67863200  0.37537650  0.08484017  1.0
  Ge  Ge512  1  0.67863200  0.70870983  0.08484017  1.0
  Ge  Ge513  1  0.01196533  0.20870983  0.02928461  1.0
  Ge  Ge514  1  0.01196533  0.54204317  0.02928461  1.0
  Ge  Ge515  1  0.01196533  0.87537650  0.02928461  1.0
  Ge  Ge516  1  0.34529867  0.20870983  0.02928461  1.0
  Ge  Ge517  1  0.34529867  0.54204317  0.02928461  1.0
  Ge  Ge518  1  0.34529867  0.87537650  0.02928461  1.0
  Ge  Ge519  1  0.67863200  0.20870983  0.02928461  1.0
  Ge  Ge520  1  0.67863200  0.54204317  0.02928461  1.0
  Ge  Ge521  1  0.67863200  0.87537650  0.02928461  1.0
  Ge  Ge522  1  0.21212400  0.04133083  0.07434706  1.0
  Ge  Ge523  1  0.21212400  0.37466417  0.07434706  1.0
  Ge  Ge524  1  0.21212400  0.70799750  0.07434706  1.0
  Ge  Ge525  1  0.54545733  0.04133083  0.07434706  1.0
  Ge  Ge526  1  0.54545733  0.37466417  0.07434706  1.0
  Ge  Ge527  1  0.54545733  0.70799750  0.07434706  1.0
  Ge  Ge528  1  0.87879067  0.04133083  0.07434706  1.0
  Ge  Ge529  1  0.87879067  0.37466417  0.07434706  1.0
  Ge  Ge530  1  0.87879067  0.70799750  0.07434706  1.0
  Ge  Ge531  1  0.21212400  0.20799750  0.01879150  1.0
  Ge  Ge532  1  0.21212400  0.54133083  0.01879150  1.0
  Ge  Ge533  1  0.21212400  0.87466417  0.01879150  1.0
  Ge  Ge534  1  0.54545733  0.20799750  0.01879150  1.0
  Ge  Ge535  1  0.54545733  0.54133083  0.01879150  1.0
  Ge  Ge536  1  0.54545733  0.87466417  0.01879150  1.0
  Ge  Ge537  1  0.87879067  0.20799750  0.01879150  1.0
  Ge  Ge538  1  0.87879067  0.54133083  0.01879150  1.0
  Ge  Ge539  1  0.87879067  0.87466417  0.01879150  1.0
  Ge  Ge540  1  0.32383867  0.12533583  0.10234872  1.0
  Ge  Ge541  1  0.32383867  0.45866917  0.10234872  1.0
  Ge  Ge542  1  0.32383867  0.79200250  0.10234872  1.0
  Ge  Ge543  1  0.65717200  0.12533583  0.10234872  1.0
  Ge  Ge544  1  0.65717200  0.45866917  0.10234872  1.0
  Ge  Ge545  1  0.65717200  0.79200250  0.10234872  1.0
  Ge  Ge546  1  0.99050533  0.12533583  0.10234872  1.0
  Ge  Ge547  1  0.99050533  0.45866917  0.10234872  1.0
  Ge  Ge548  1  0.99050533  0.79200250  0.10234872  1.0
  Ge  Ge549  1  0.32383867  0.29200250  0.04679317  1.0
  Ge  Ge550  1  0.32383867  0.62533583  0.04679317  1.0
  Ge  Ge551  1  0.32383867  0.95866917  0.04679317  1.0
  Ge  Ge552  1  0.65717200  0.29200250  0.04679317  1.0
  Ge  Ge553  1  0.65717200  0.62533583  0.04679317  1.0
  Ge  Ge554  1  0.65717200  0.95866917  0.04679317  1.0
  Ge  Ge555  1  0.99050533  0.29200250  0.04679317  1.0
  Ge  Ge556  1  0.99050533  0.62533583  0.04679317  1.0
  Ge  Ge557  1  0.99050533  0.95866917  0.04679317  1.0
  Ni  Ni558  1  0.10953567  0.08333333  0.20493967  1.0
  Ni  Ni559  1  0.10953567  0.41666667  0.20493967  1.0
  Ni  Ni560  1  0.10953567  0.75000000  0.20493967  1.0
  Ni  Ni561  1  0.44286900  0.08333333  0.20493967  1.0
  Ni  Ni562  1  0.44286900  0.41666667  0.20493967  1.0
  Ni  Ni563  1  0.44286900  0.75000000  0.20493967  1.0
  Ni  Ni564  1  0.77620233  0.08333333  0.20493967  1.0
  Ni  Ni565  1  0.77620233  0.41666667  0.20493967  1.0
  Ni  Ni566  1  0.77620233  0.75000000  0.20493967  1.0
  Ni  Ni567  1  0.10953567  0.25000000  0.14938411  1.0
  Ni  Ni568  1  0.10953567  0.58333333  0.14938411  1.0
  Ni  Ni569  1  0.10953567  0.91666667  0.14938411  1.0
  Ni  Ni570  1  0.44286900  0.25000000  0.14938411  1.0
  Ni  Ni571  1  0.44286900  0.58333333  0.14938411  1.0
  Ni  Ni572  1  0.44286900  0.91666667  0.14938411  1.0
  Ni  Ni573  1  0.77620233  0.25000000  0.14938411  1.0
  Ni  Ni574  1  0.77620233  0.58333333  0.14938411  1.0
  Ni  Ni575  1  0.77620233  0.91666667  0.14938411  1.0
  Ni  Ni576  1  0.33151400  0.12426583  0.14479150  1.0
  Ni  Ni577  1  0.33151400  0.45759917  0.14479150  1.0
  Ni  Ni578  1  0.33151400  0.79093250  0.14479150  1.0
  Ni  Ni579  1  0.66484733  0.12426583  0.14479150  1.0
  Ni  Ni580  1  0.66484733  0.45759917  0.14479150  1.0
  Ni  Ni581  1  0.66484733  0.79093250  0.14479150  1.0
  Ni  Ni582  1  0.99818067  0.12426583  0.14479150  1.0
  Ni  Ni583  1  0.99818067  0.45759917  0.14479150  1.0
  Ni  Ni584  1  0.99818067  0.79093250  0.14479150  1.0
  Ni  Ni585  1  0.33151400  0.29093250  0.20034706  1.0
  Ni  Ni586  1  0.33151400  0.62426583  0.20034706  1.0
  Ni  Ni587  1  0.33151400  0.95759917  0.20034706  1.0
  Ni  Ni588  1  0.66484733  0.29093250  0.20034706  1.0
  Ni  Ni589  1  0.66484733  0.62426583  0.20034706  1.0
  Ni  Ni590  1  0.66484733  0.95759917  0.20034706  1.0
  Ni  Ni591  1  0.99818067  0.29093250  0.20034706  1.0
  Ni  Ni592  1  0.99818067  0.62426583  0.20034706  1.0
  Ni  Ni593  1  0.99818067  0.95759917  0.20034706  1.0
  Ni  Ni594  1  0.33284700  0.04240083  0.11750317  1.0
  Ni  Ni595  1  0.33284700  0.37573417  0.11750317  1.0
  Ni  Ni596  1  0.33284700  0.70906750  0.11750317  1.0
  Ni  Ni597  1  0.66618033  0.04240083  0.11750317  1.0
  Ni  Ni598  1  0.66618033  0.37573417  0.11750317  1.0
  Ni  Ni599  1  0.66618033  0.70906750  0.11750317  1.0
  Ni  Ni600  1  0.99951367  0.04240083  0.11750317  1.0
  Ni  Ni601  1  0.99951367  0.37573417  0.11750317  1.0
  Ni  Ni602  1  0.99951367  0.70906750  0.11750317  1.0
  Ni  Ni603  1  0.33284700  0.20906750  0.17305872  1.0
  Ni  Ni604  1  0.33284700  0.54240083  0.17305872  1.0
  Ni  Ni605  1  0.33284700  0.87573417  0.17305872  1.0
  Ni  Ni606  1  0.66618033  0.20906750  0.17305872  1.0
  Ni  Ni607  1  0.66618033  0.54240083  0.17305872  1.0
  Ni  Ni608  1  0.66618033  0.87573417  0.17305872  1.0
  Ni  Ni609  1  0.99951367  0.20906750  0.17305872  1.0
  Ni  Ni610  1  0.99951367  0.54240083  0.17305872  1.0
  Ni  Ni611  1  0.99951367  0.87573417  0.17305872  1.0
  Ni  Ni612  1  0.11222733  0.12462183  0.14618539  1.0
  Ni  Ni613  1  0.11222733  0.45795517  0.14618539  1.0
  Ni  Ni614  1  0.11222733  0.79128850  0.14618539  1.0
  Ni  Ni615  1  0.44556067  0.12462183  0.14618539  1.0
  Ni  Ni616  1  0.44556067  0.45795517  0.14618539  1.0
  Ni  Ni617  1  0.44556067  0.79128850  0.14618539  1.0
  Ni  Ni618  1  0.77889400  0.12462183  0.14618539  1.0
  Ni  Ni619  1  0.77889400  0.45795517  0.14618539  1.0
  Ni  Ni620  1  0.77889400  0.79128850  0.14618539  1.0
  Ni  Ni621  1  0.11222733  0.29128850  0.20174094  1.0
  Ni  Ni622  1  0.11222733  0.62462183  0.20174094  1.0
  Ni  Ni623  1  0.11222733  0.95795517  0.20174094  1.0
  Ni  Ni624  1  0.44556067  0.29128850  0.20174094  1.0
  Ni  Ni625  1  0.44556067  0.62462183  0.20174094  1.0
  Ni  Ni626  1  0.44556067  0.95795517  0.20174094  1.0
  Ni  Ni627  1  0.77889400  0.29128850  0.20174094  1.0
  Ni  Ni628  1  0.77889400  0.62462183  0.20174094  1.0
  Ni  Ni629  1  0.77889400  0.95795517  0.20174094  1.0
  Ni  Ni630  1  0.22262600  0.04204483  0.11865972  1.0
  Ni  Ni631  1  0.22262600  0.37537817  0.11865972  1.0
  Ni  Ni632  1  0.22262600  0.70871150  0.11865972  1.0
  Ni  Ni633  1  0.55595933  0.04204483  0.11865972  1.0
  Ni  Ni634  1  0.55595933  0.37537817  0.11865972  1.0
  Ni  Ni635  1  0.55595933  0.70871150  0.11865972  1.0
  Ni  Ni636  1  0.88929267  0.04204483  0.11865972  1.0
  Ni  Ni637  1  0.88929267  0.37537817  0.11865972  1.0
  Ni  Ni638  1  0.88929267  0.70871150  0.11865972  1.0
  Ni  Ni639  1  0.22262600  0.20871150  0.17421528  1.0
  Ni  Ni640  1  0.22262600  0.54204483  0.17421528  1.0
  Ni  Ni641  1  0.22262600  0.87537817  0.17421528  1.0
  Ni  Ni642  1  0.55595933  0.20871150  0.17421528  1.0
  Ni  Ni643  1  0.55595933  0.54204483  0.17421528  1.0
  Ni  Ni644  1  0.55595933  0.87537817  0.17421528  1.0
  Ni  Ni645  1  0.88929267  0.20871150  0.17421528  1.0
  Ni  Ni646  1  0.88929267  0.54204483  0.17421528  1.0
  Ni  Ni647  1  0.88929267  0.87537817  0.17421528  1.0
  Ni  Ni648  1  0.22049067  0.16606200  0.12161167  1.0
  Ni  Ni649  1  0.22049067  0.49939533  0.12161167  1.0
  Ni  Ni650  1  0.22049067  0.83272867  0.12161167  1.0
  Ni  Ni651  1  0.55382400  0.16606200  0.12161167  1.0
  Ni  Ni652  1  0.55382400  0.49939533  0.12161167  1.0
  Ni  Ni653  1  0.55382400  0.83272867  0.12161167  1.0
  Ni  Ni654  1  0.88715733  0.16606200  0.12161167  1.0
  Ni  Ni655  1  0.88715733  0.49939533  0.12161167  1.0
  Ni  Ni656  1  0.88715733  0.83272867  0.12161167  1.0
  Ni  Ni657  1  0.22049067  0.33272867  0.17716722  1.0
  Ni  Ni658  1  0.22049067  0.66606200  0.17716722  1.0
  Ni  Ni659  1  0.22049067  0.99939533  0.17716722  1.0
  Ni  Ni660  1  0.55382400  0.33272867  0.17716722  1.0
  Ni  Ni661  1  0.55382400  0.66606200  0.17716722  1.0
  Ni  Ni662  1  0.55382400  0.99939533  0.17716722  1.0
  Ni  Ni663  1  0.88715733  0.33272867  0.17716722  1.0
  Ni  Ni664  1  0.88715733  0.66606200  0.17716722  1.0
  Ni  Ni665  1  0.88715733  0.99939533  0.17716722  1.0
  Ni  Ni666  1  0.33253467  0.00060467  0.17757033  1.0
  Ni  Ni667  1  0.33253467  0.33393800  0.17757033  1.0
  Ni  Ni668  1  0.33253467  0.66727133  0.17757033  1.0
  Ni  Ni669  1  0.66586800  0.00060467  0.17757033  1.0
  Ni  Ni670  1  0.66586800  0.33393800  0.17757033  1.0
  Ni  Ni671  1  0.66586800  0.66727133  0.17757033  1.0
  Ni  Ni672  1  0.99920133  0.00060467  0.17757033  1.0
  Ni  Ni673  1  0.99920133  0.33393800  0.17757033  1.0
  Ni  Ni674  1  0.99920133  0.66727133  0.17757033  1.0
  Ni  Ni675  1  0.33253467  0.16727133  0.12201478  1.0
  Ni  Ni676  1  0.33253467  0.50060467  0.12201478  1.0
  Ni  Ni677  1  0.33253467  0.83393800  0.12201478  1.0
  Ni  Ni678  1  0.66586800  0.16727133  0.12201478  1.0
  Ni  Ni679  1  0.66586800  0.50060467  0.12201478  1.0
  Ni  Ni680  1  0.66586800  0.83393800  0.12201478  1.0
  Ni  Ni681  1  0.99920133  0.16727133  0.12201478  1.0
  Ni  Ni682  1  0.99920133  0.50060467  0.12201478  1.0
  Ni  Ni683  1  0.99920133  0.83393800  0.12201478  1.0
  Ni  Ni684  1  0.11114933  0.14570750  0.19138972  1.0
  Ni  Ni685  1  0.11114933  0.47904083  0.19138972  1.0
  Ni  Ni686  1  0.11114933  0.81237417  0.19138972  1.0
  Ni  Ni687  1  0.44448267  0.14570750  0.19138972  1.0
  Ni  Ni688  1  0.44448267  0.47904083  0.19138972  1.0
  Ni  Ni689  1  0.44448267  0.81237417  0.19138972  1.0
  Ni  Ni690  1  0.77781600  0.14570750  0.19138972  1.0
  Ni  Ni691  1  0.77781600  0.47904083  0.19138972  1.0
  Ni  Ni692  1  0.77781600  0.81237417  0.19138972  1.0
  Ni  Ni693  1  0.11114933  0.31237417  0.13583417  1.0
  Ni  Ni694  1  0.11114933  0.64570750  0.13583417  1.0
  Ni  Ni695  1  0.11114933  0.97904083  0.13583417  1.0
  Ni  Ni696  1  0.44448267  0.31237417  0.13583417  1.0
  Ni  Ni697  1  0.44448267  0.64570750  0.13583417  1.0
  Ni  Ni698  1  0.44448267  0.97904083  0.13583417  1.0
  Ni  Ni699  1  0.77781600  0.31237417  0.13583417  1.0
  Ni  Ni700  1  0.77781600  0.64570750  0.13583417  1.0
  Ni  Ni701  1  0.77781600  0.97904083  0.13583417  1.0
  Ni  Ni702  1  0.00489800  0.02095917  0.14980694  1.0
  Ni  Ni703  1  0.00489800  0.35429250  0.14980694  1.0
  Ni  Ni704  1  0.00489800  0.68762583  0.14980694  1.0
  Ni  Ni705  1  0.33823133  0.02095917  0.14980694  1.0
  Ni  Ni706  1  0.33823133  0.35429250  0.14980694  1.0
  Ni  Ni707  1  0.33823133  0.68762583  0.14980694  1.0
  Ni  Ni708  1  0.67156467  0.02095917  0.14980694  1.0
  Ni  Ni709  1  0.67156467  0.35429250  0.14980694  1.0
  Ni  Ni710  1  0.67156467  0.68762583  0.14980694  1.0
  Ni  Ni711  1  0.00489800  0.18762583  0.20536250  1.0
  Ni  Ni712  1  0.00489800  0.52095917  0.20536250  1.0
  Ni  Ni713  1  0.00489800  0.85429250  0.20536250  1.0
  Ni  Ni714  1  0.33823133  0.18762583  0.20536250  1.0
  Ni  Ni715  1  0.33823133  0.52095917  0.20536250  1.0
  Ni  Ni716  1  0.33823133  0.85429250  0.20536250  1.0
  Ni  Ni717  1  0.67156467  0.18762583  0.20536250  1.0
  Ni  Ni718  1  0.67156467  0.52095917  0.20536250  1.0
  Ni  Ni719  1  0.67156467  0.85429250  0.20536250  1.0
  Ni  Ni720  1  0.11317033  0.10382600  0.17664400  1.0
  Ni  Ni721  1  0.11317033  0.43715933  0.17664400  1.0
  Ni  Ni722  1  0.11317033  0.77049267  0.17664400  1.0
  Ni  Ni723  1  0.44650367  0.10382600  0.17664400  1.0
  Ni  Ni724  1  0.44650367  0.43715933  0.17664400  1.0
  Ni  Ni725  1  0.44650367  0.77049267  0.17664400  1.0
  Ni  Ni726  1  0.77983700  0.10382600  0.17664400  1.0
  Ni  Ni727  1  0.77983700  0.43715933  0.17664400  1.0
  Ni  Ni728  1  0.77983700  0.77049267  0.17664400  1.0
  Ni  Ni729  1  0.11317033  0.27049267  0.12108844  1.0
  Ni  Ni730  1  0.11317033  0.60382600  0.12108844  1.0
  Ni  Ni731  1  0.11317033  0.93715933  0.12108844  1.0
  Ni  Ni732  1  0.44650367  0.27049267  0.12108844  1.0
  Ni  Ni733  1  0.44650367  0.60382600  0.12108844  1.0
  Ni  Ni734  1  0.44650367  0.93715933  0.12108844  1.0
  Ni  Ni735  1  0.77983700  0.27049267  0.12108844  1.0
  Ni  Ni736  1  0.77983700  0.60382600  0.12108844  1.0
  Ni  Ni737  1  0.77983700  0.93715933  0.12108844  1.0
  Ni  Ni738  1  0.00052133  0.06284067  0.16298222  1.0
  Ni  Ni739  1  0.00052133  0.39617400  0.16298222  1.0
  Ni  Ni740  1  0.00052133  0.72950733  0.16298222  1.0
  Ni  Ni741  1  0.33385467  0.06284067  0.16298222  1.0
  Ni  Ni742  1  0.33385467  0.39617400  0.16298222  1.0
  Ni  Ni743  1  0.33385467  0.72950733  0.16298222  1.0
  Ni  Ni744  1  0.66718800  0.06284067  0.16298222  1.0
  Ni  Ni745  1  0.66718800  0.39617400  0.16298222  1.0
  Ni  Ni746  1  0.66718800  0.72950733  0.16298222  1.0
  Ni  Ni747  1  0.00052133  0.22950733  0.21853778  1.0
  Ni  Ni748  1  0.00052133  0.56284067  0.21853778  1.0
  Ni  Ni749  1  0.00052133  0.89617400  0.21853778  1.0
  Ni  Ni750  1  0.33385467  0.22950733  0.21853778  1.0
  Ni  Ni751  1  0.33385467  0.56284067  0.21853778  1.0
  Ni  Ni752  1  0.33385467  0.89617400  0.21853778  1.0
  Ni  Ni753  1  0.66718800  0.22950733  0.21853778  1.0
  Ni  Ni754  1  0.66718800  0.56284067  0.21853778  1.0
  Ni  Ni755  1  0.66718800  0.89617400  0.21853778  1.0
  Ni  Ni756  1  0.11168200  0.06269650  0.16015894  1.0
  Ni  Ni757  1  0.11168200  0.39602983  0.16015894  1.0
  Ni  Ni758  1  0.11168200  0.72936317  0.16015894  1.0
  Ni  Ni759  1  0.44501533  0.06269650  0.16015894  1.0
  Ni  Ni760  1  0.44501533  0.39602983  0.16015894  1.0
  Ni  Ni761  1  0.44501533  0.72936317  0.16015894  1.0
  Ni  Ni762  1  0.77834867  0.06269650  0.16015894  1.0
  Ni  Ni763  1  0.77834867  0.39602983  0.16015894  1.0
  Ni  Ni764  1  0.77834867  0.72936317  0.16015894  1.0
  Ni  Ni765  1  0.11168200  0.22936317  0.21571450  1.0
  Ni  Ni766  1  0.11168200  0.56269650  0.21571450  1.0
  Ni  Ni767  1  0.11168200  0.89602983  0.21571450  1.0
  Ni  Ni768  1  0.44501533  0.22936317  0.21571450  1.0
  Ni  Ni769  1  0.44501533  0.56269650  0.21571450  1.0
  Ni  Ni770  1  0.44501533  0.89602983  0.21571450  1.0
  Ni  Ni771  1  0.77834867  0.22936317  0.21571450  1.0
  Ni  Ni772  1  0.77834867  0.56269650  0.21571450  1.0
  Ni  Ni773  1  0.77834867  0.89602983  0.21571450  1.0
  Ni  Ni774  1  0.32701733  0.10397017  0.17391683  1.0
  Ni  Ni775  1  0.32701733  0.43730350  0.17391683  1.0
  Ni  Ni776  1  0.32701733  0.77063683  0.17391683  1.0
  Ni  Ni777  1  0.66035067  0.10397017  0.17391683  1.0
  Ni  Ni778  1  0.66035067  0.43730350  0.17391683  1.0
  Ni  Ni779  1  0.66035067  0.77063683  0.17391683  1.0
  Ni  Ni780  1  0.99368400  0.10397017  0.17391683  1.0
  Ni  Ni781  1  0.99368400  0.43730350  0.17391683  1.0
  Ni  Ni782  1  0.99368400  0.77063683  0.17391683  1.0
  Ni  Ni783  1  0.32701733  0.27063683  0.11836128  1.0
  Ni  Ni784  1  0.32701733  0.60397017  0.11836128  1.0
  Ni  Ni785  1  0.32701733  0.93730350  0.11836128  1.0
  Ni  Ni786  1  0.66035067  0.27063683  0.11836128  1.0
  Ni  Ni787  1  0.66035067  0.60397017  0.11836128  1.0
  Ni  Ni788  1  0.66035067  0.93730350  0.11836128  1.0
  Ni  Ni789  1  0.99368400  0.27063683  0.11836128  1.0
  Ni  Ni790  1  0.99368400  0.60397017  0.11836128  1.0
  Ni  Ni791  1  0.99368400  0.93730350  0.11836128  1.0
  Ni  Ni792  1  0.11022267  0.02096233  0.14813222  1.0
  Ni  Ni793  1  0.11022267  0.35429567  0.14813222  1.0
  Ni  Ni794  1  0.11022267  0.68762900  0.14813222  1.0
  Ni  Ni795  1  0.44355600  0.02096233  0.14813222  1.0
  Ni  Ni796  1  0.44355600  0.35429567  0.14813222  1.0
  Ni  Ni797  1  0.44355600  0.68762900  0.14813222  1.0
  Ni  Ni798  1  0.77688933  0.02096233  0.14813222  1.0
  Ni  Ni799  1  0.77688933  0.35429567  0.14813222  1.0
  Ni  Ni800  1  0.77688933  0.68762900  0.14813222  1.0
  Ni  Ni801  1  0.11022267  0.18762900  0.20368778  1.0
  Ni  Ni802  1  0.11022267  0.52096233  0.20368778  1.0
  Ni  Ni803  1  0.11022267  0.85429567  0.20368778  1.0
  Ni  Ni804  1  0.44355600  0.18762900  0.20368778  1.0
  Ni  Ni805  1  0.44355600  0.52096233  0.20368778  1.0
  Ni  Ni806  1  0.44355600  0.85429567  0.20368778  1.0
  Ni  Ni807  1  0.77688933  0.18762900  0.20368778  1.0
  Ni  Ni808  1  0.77688933  0.52096233  0.20368778  1.0
  Ni  Ni809  1  0.77688933  0.85429567  0.20368778  1.0
  Ni  Ni810  1  0.00079733  0.14570433  0.18971289  1.0
  Ni  Ni811  1  0.00079733  0.47903767  0.18971289  1.0
  Ni  Ni812  1  0.00079733  0.81237100  0.18971289  1.0
  Ni  Ni813  1  0.33413067  0.14570433  0.18971289  1.0
  Ni  Ni814  1  0.33413067  0.47903767  0.18971289  1.0
  Ni  Ni815  1  0.33413067  0.81237100  0.18971289  1.0
  Ni  Ni816  1  0.66746400  0.14570433  0.18971289  1.0
  Ni  Ni817  1  0.66746400  0.47903767  0.18971289  1.0
  Ni  Ni818  1  0.66746400  0.81237100  0.18971289  1.0
  Ni  Ni819  1  0.00079733  0.31237100  0.13415733  1.0
  Ni  Ni820  1  0.00079733  0.64570433  0.13415733  1.0
  Ni  Ni821  1  0.00079733  0.97903767  0.13415733  1.0
  Ni  Ni822  1  0.33413067  0.31237100  0.13415733  1.0
  Ni  Ni823  1  0.33413067  0.64570433  0.13415733  1.0
  Ni  Ni824  1  0.33413067  0.97903767  0.13415733  1.0
  Ni  Ni825  1  0.66746400  0.31237100  0.13415733  1.0
  Ni  Ni826  1  0.66746400  0.64570433  0.13415733  1.0
  Ni  Ni827  1  0.66746400  0.97903767  0.13415733  1.0
  Ni  Ni828  1  0.22004200  0.14569217  0.18701406  1.0
  Ni  Ni829  1  0.22004200  0.47902550  0.18701406  1.0
  Ni  Ni830  1  0.22004200  0.81235883  0.18701406  1.0
  Ni  Ni831  1  0.55337533  0.14569217  0.18701406  1.0
  Ni  Ni832  1  0.55337533  0.47902550  0.18701406  1.0
  Ni  Ni833  1  0.55337533  0.81235883  0.18701406  1.0
  Ni  Ni834  1  0.88670867  0.14569217  0.18701406  1.0
  Ni  Ni835  1  0.88670867  0.47902550  0.18701406  1.0
  Ni  Ni836  1  0.88670867  0.81235883  0.18701406  1.0
  Ni  Ni837  1  0.22004200  0.31235883  0.13145850  1.0
  Ni  Ni838  1  0.22004200  0.64569217  0.13145850  1.0
  Ni  Ni839  1  0.22004200  0.97902550  0.13145850  1.0
  Ni  Ni840  1  0.55337533  0.31235883  0.13145850  1.0
  Ni  Ni841  1  0.55337533  0.64569217  0.13145850  1.0
  Ni  Ni842  1  0.55337533  0.97902550  0.13145850  1.0
  Ni  Ni843  1  0.88670867  0.31235883  0.13145850  1.0
  Ni  Ni844  1  0.88670867  0.64569217  0.13145850  1.0
  Ni  Ni845  1  0.88670867  0.97902550  0.13145850  1.0
  Ni  Ni846  1  0.21622700  0.02097450  0.14544150  1.0
  Ni  Ni847  1  0.21622700  0.35430783  0.14544150  1.0
  Ni  Ni848  1  0.21622700  0.68764117  0.14544150  1.0
  Ni  Ni849  1  0.54956033  0.02097450  0.14544150  1.0
  Ni  Ni850  1  0.54956033  0.35430783  0.14544150  1.0
  Ni  Ni851  1  0.54956033  0.68764117  0.14544150  1.0
  Ni  Ni852  1  0.88289367  0.02097450  0.14544150  1.0
  Ni  Ni853  1  0.88289367  0.35430783  0.14544150  1.0
  Ni  Ni854  1  0.88289367  0.68764117  0.14544150  1.0
  Ni  Ni855  1  0.21622700  0.18764117  0.20099706  1.0
  Ni  Ni856  1  0.21622700  0.52097450  0.20099706  1.0
  Ni  Ni857  1  0.21622700  0.85430783  0.20099706  1.0
  Ni  Ni858  1  0.54956033  0.18764117  0.20099706  1.0
  Ni  Ni859  1  0.54956033  0.52097450  0.20099706  1.0
  Ni  Ni860  1  0.54956033  0.85430783  0.20099706  1.0
  Ni  Ni861  1  0.88289367  0.18764117  0.20099706  1.0
  Ni  Ni862  1  0.88289367  0.52097450  0.20099706  1.0
  Ni  Ni863  1  0.88289367  0.85430783  0.20099706  1.0
  Ni  Ni864  1  0.22557633  0.10379083  0.17542906  1.0
  Ni  Ni865  1  0.22557633  0.43712417  0.17542906  1.0
  Ni  Ni866  1  0.22557633  0.77045750  0.17542906  1.0
  Ni  Ni867  1  0.55890967  0.10379083  0.17542906  1.0
  Ni  Ni868  1  0.55890967  0.43712417  0.17542906  1.0
  Ni  Ni869  1  0.55890967  0.77045750  0.17542906  1.0
  Ni  Ni870  1  0.89224300  0.10379083  0.17542906  1.0
  Ni  Ni871  1  0.89224300  0.43712417  0.17542906  1.0
  Ni  Ni872  1  0.89224300  0.77045750  0.17542906  1.0
  Ni  Ni873  1  0.22557633  0.27045750  0.11987350  1.0
  Ni  Ni874  1  0.22557633  0.60379083  0.11987350  1.0
  Ni  Ni875  1  0.22557633  0.93712417  0.11987350  1.0
  Ni  Ni876  1  0.55890967  0.27045750  0.11987350  1.0
  Ni  Ni877  1  0.55890967  0.60379083  0.11987350  1.0
  Ni  Ni878  1  0.55890967  0.93712417  0.11987350  1.0
  Ni  Ni879  1  0.89224300  0.27045750  0.11987350  1.0
  Ni  Ni880  1  0.89224300  0.60379083  0.11987350  1.0
  Ni  Ni881  1  0.89224300  0.93712417  0.11987350  1.0
  Ni  Ni882  1  0.21783900  0.06287583  0.16179072  1.0
  Ni  Ni883  1  0.21783900  0.39620917  0.16179072  1.0
  Ni  Ni884  1  0.21783900  0.72954250  0.16179072  1.0
  Ni  Ni885  1  0.55117233  0.06287583  0.16179072  1.0
  Ni  Ni886  1  0.55117233  0.39620917  0.16179072  1.0
  Ni  Ni887  1  0.55117233  0.72954250  0.16179072  1.0
  Ni  Ni888  1  0.88450567  0.06287583  0.16179072  1.0
  Ni  Ni889  1  0.88450567  0.39620917  0.16179072  1.0
  Ni  Ni890  1  0.88450567  0.72954250  0.16179072  1.0
  Ni  Ni891  1  0.21783900  0.22954250  0.21734628  1.0
  Ni  Ni892  1  0.21783900  0.56287583  0.21734628  1.0
  Ni  Ni893  1  0.21783900  0.89620917  0.21734628  1.0
  Ni  Ni894  1  0.55117233  0.22954250  0.21734628  1.0
  Ni  Ni895  1  0.55117233  0.56287583  0.21734628  1.0
  Ni  Ni896  1  0.55117233  0.89620917  0.21734628  1.0
  Ni  Ni897  1  0.88450567  0.22954250  0.21734628  1.0
  Ni  Ni898  1  0.88450567  0.56287583  0.21734628  1.0
  Ni  Ni899  1  0.88450567  0.89620917  0.21734628  1.0
  Ge  Ge900  1  0.00857433  0.00000000  0.22096544  1.0
  Ge  Ge901  1  0.00857433  0.33333333  0.22096544  1.0
  Ge  Ge902  1  0.00857433  0.66666667  0.22096544  1.0
  Ge  Ge903  1  0.34190767  0.00000000  0.22096544  1.0
  Ge  Ge904  1  0.34190767  0.33333333  0.22096544  1.0
  Ge  Ge905  1  0.34190767  0.66666667  0.22096544  1.0
  Ge  Ge906  1  0.67524100  0.00000000  0.22096544  1.0
  Ge  Ge907  1  0.67524100  0.33333333  0.22096544  1.0
  Ge  Ge908  1  0.67524100  0.66666667  0.22096544  1.0
  Ge  Ge909  1  0.00857433  0.16666667  0.16540989  1.0
  Ge  Ge910  1  0.00857433  0.50000000  0.16540989  1.0
  Ge  Ge911  1  0.00857433  0.83333333  0.16540989  1.0
  Ge  Ge912  1  0.34190767  0.16666667  0.16540989  1.0
  Ge  Ge913  1  0.34190767  0.50000000  0.16540989  1.0
  Ge  Ge914  1  0.34190767  0.83333333  0.16540989  1.0
  Ge  Ge915  1  0.67524100  0.16666667  0.16540989  1.0
  Ge  Ge916  1  0.67524100  0.50000000  0.16540989  1.0
  Ge  Ge917  1  0.67524100  0.83333333  0.16540989  1.0
  Ge  Ge918  1  0.32574633  0.08333333  0.12685789  1.0
  Ge  Ge919  1  0.32574633  0.41666667  0.12685789  1.0
  Ge  Ge920  1  0.32574633  0.75000000  0.12685789  1.0
  Ge  Ge921  1  0.65907967  0.08333333  0.12685789  1.0
  Ge  Ge922  1  0.65907967  0.41666667  0.12685789  1.0
  Ge  Ge923  1  0.65907967  0.75000000  0.12685789  1.0
  Ge  Ge924  1  0.99241300  0.08333333  0.12685789  1.0
  Ge  Ge925  1  0.99241300  0.41666667  0.12685789  1.0
  Ge  Ge926  1  0.99241300  0.75000000  0.12685789  1.0
  Ge  Ge927  1  0.32574633  0.25000000  0.18241344  1.0
  Ge  Ge928  1  0.32574633  0.58333333  0.18241344  1.0
  Ge  Ge929  1  0.32574633  0.91666667  0.18241344  1.0
  Ge  Ge930  1  0.65907967  0.25000000  0.18241344  1.0
  Ge  Ge931  1  0.65907967  0.58333333  0.18241344  1.0
  Ge  Ge932  1  0.65907967  0.91666667  0.18241344  1.0
  Ge  Ge933  1  0.99241300  0.25000000  0.18241344  1.0
  Ge  Ge934  1  0.99241300  0.58333333  0.18241344  1.0
  Ge  Ge935  1  0.99241300  0.91666667  0.18241344  1.0
  Ge  Ge936  1  0.12086700  0.12458433  0.11171178  1.0
  Ge  Ge937  1  0.12086700  0.45791767  0.11171178  1.0
  Ge  Ge938  1  0.12086700  0.79125100  0.11171178  1.0
  Ge  Ge939  1  0.45420033  0.12458433  0.11171178  1.0
  Ge  Ge940  1  0.45420033  0.45791767  0.11171178  1.0
  Ge  Ge941  1  0.45420033  0.79125100  0.11171178  1.0
  Ge  Ge942  1  0.78753367  0.12458433  0.11171178  1.0
  Ge  Ge943  1  0.78753367  0.45791767  0.11171178  1.0
  Ge  Ge944  1  0.78753367  0.79125100  0.11171178  1.0
  Ge  Ge945  1  0.12086700  0.29125100  0.16726733  1.0
  Ge  Ge946  1  0.12086700  0.62458433  0.16726733  1.0
  Ge  Ge947  1  0.12086700  0.95791767  0.16726733  1.0
  Ge  Ge948  1  0.45420033  0.29125100  0.16726733  1.0
  Ge  Ge949  1  0.45420033  0.62458433  0.16726733  1.0
  Ge  Ge950  1  0.45420033  0.95791767  0.16726733  1.0
  Ge  Ge951  1  0.78753367  0.29125100  0.16726733  1.0
  Ge  Ge952  1  0.78753367  0.62458433  0.16726733  1.0
  Ge  Ge953  1  0.78753367  0.95791767  0.16726733  1.0
  Ge  Ge954  1  0.11060300  0.04208233  0.19532222  1.0
  Ge  Ge955  1  0.11060300  0.37541567  0.19532222  1.0
  Ge  Ge956  1  0.11060300  0.70874900  0.19532222  1.0
  Ge  Ge957  1  0.44393633  0.04208233  0.19532222  1.0
  Ge  Ge958  1  0.44393633  0.37541567  0.19532222  1.0
  Ge  Ge959  1  0.44393633  0.70874900  0.19532222  1.0
  Ge  Ge960  1  0.77726967  0.04208233  0.19532222  1.0
  Ge  Ge961  1  0.77726967  0.37541567  0.19532222  1.0
  Ge  Ge962  1  0.77726967  0.70874900  0.19532222  1.0
  Ge  Ge963  1  0.11060300  0.20874900  0.13976667  1.0
  Ge  Ge964  1  0.11060300  0.54208233  0.13976667  1.0
  Ge  Ge965  1  0.11060300  0.87541567  0.13976667  1.0
  Ge  Ge966  1  0.44393633  0.20874900  0.13976667  1.0
  Ge  Ge967  1  0.44393633  0.54208233  0.13976667  1.0
  Ge  Ge968  1  0.44393633  0.87541567  0.13976667  1.0
  Ge  Ge969  1  0.77726967  0.20874900  0.13976667  1.0
  Ge  Ge970  1  0.77726967  0.54208233  0.13976667  1.0
  Ge  Ge971  1  0.77726967  0.87541567  0.13976667  1.0
  Ge  Ge972  1  0.11047367  0.16628633  0.15543533  1.0
  Ge  Ge973  1  0.11047367  0.49961967  0.15543533  1.0
  Ge  Ge974  1  0.11047367  0.83295300  0.15543533  1.0
  Ge  Ge975  1  0.44380700  0.16628633  0.15543533  1.0
  Ge  Ge976  1  0.44380700  0.49961967  0.15543533  1.0
  Ge  Ge977  1  0.44380700  0.83295300  0.15543533  1.0
  Ge  Ge978  1  0.77714033  0.16628633  0.15543533  1.0
  Ge  Ge979  1  0.77714033  0.49961967  0.15543533  1.0
  Ge  Ge980  1  0.77714033  0.83295300  0.15543533  1.0
  Ge  Ge981  1  0.11047367  0.33295300  0.21099089  1.0
  Ge  Ge982  1  0.11047367  0.66628633  0.21099089  1.0
  Ge  Ge983  1  0.11047367  0.99961967  0.21099089  1.0
  Ge  Ge984  1  0.44380700  0.33295300  0.21099089  1.0
  Ge  Ge985  1  0.44380700  0.66628633  0.21099089  1.0
  Ge  Ge986  1  0.44380700  0.99961967  0.21099089  1.0
  Ge  Ge987  1  0.77714033  0.33295300  0.21099089  1.0
  Ge  Ge988  1  0.77714033  0.66628633  0.21099089  1.0
  Ge  Ge989  1  0.77714033  0.99961967  0.21099089  1.0
  Ge  Ge990  1  0.21046500  0.00038033  0.21124444  1.0
  Ge  Ge991  1  0.21046500  0.33371367  0.21124444  1.0
  Ge  Ge992  1  0.21046500  0.66704700  0.21124444  1.0
  Ge  Ge993  1  0.54379833  0.00038033  0.21124444  1.0
  Ge  Ge994  1  0.54379833  0.33371367  0.21124444  1.0
  Ge  Ge995  1  0.54379833  0.66704700  0.21124444  1.0
  Ge  Ge996  1  0.87713167  0.00038033  0.21124444  1.0
  Ge  Ge997  1  0.87713167  0.33371367  0.21124444  1.0
  Ge  Ge998  1  0.87713167  0.66704700  0.21124444  1.0
  Ge  Ge999  1  0.21046500  0.16704700  0.15568889  1.0
  Ge  Ge1000  1  0.21046500  0.50038033  0.15568889  1.0
  Ge  Ge1001  1  0.21046500  0.83371367  0.15568889  1.0
  Ge  Ge1002  1  0.54379833  0.16704700  0.15568889  1.0
  Ge  Ge1003  1  0.54379833  0.50038033  0.15568889  1.0
  Ge  Ge1004  1  0.54379833  0.83371367  0.15568889  1.0
  Ge  Ge1005  1  0.87713167  0.16704700  0.15568889  1.0
  Ge  Ge1006  1  0.87713167  0.50038033  0.15568889  1.0
  Ge  Ge1007  1  0.87713167  0.83371367  0.15568889  1.0
  Ge  Ge1008  1  0.10957333  0.08367200  0.13302656  1.0
  Ge  Ge1009  1  0.10957333  0.41700533  0.13302656  1.0
  Ge  Ge1010  1  0.10957333  0.75033867  0.13302656  1.0
  Ge  Ge1011  1  0.44290667  0.08367200  0.13302656  1.0
  Ge  Ge1012  1  0.44290667  0.41700533  0.13302656  1.0
  Ge  Ge1013  1  0.44290667  0.75033867  0.13302656  1.0
  Ge  Ge1014  1  0.77624000  0.08367200  0.13302656  1.0
  Ge  Ge1015  1  0.77624000  0.41700533  0.13302656  1.0
  Ge  Ge1016  1  0.77624000  0.75033867  0.13302656  1.0
  Ge  Ge1017  1  0.10957333  0.25033867  0.18858211  1.0
  Ge  Ge1018  1  0.10957333  0.58367200  0.18858211  1.0
  Ge  Ge1019  1  0.10957333  0.91700533  0.18858211  1.0
  Ge  Ge1020  1  0.44290667  0.25033867  0.18858211  1.0
  Ge  Ge1021  1  0.44290667  0.58367200  0.18858211  1.0
  Ge  Ge1022  1  0.44290667  0.91700533  0.18858211  1.0
  Ge  Ge1023  1  0.77624000  0.25033867  0.18858211  1.0
  Ge  Ge1024  1  0.77624000  0.58367200  0.18858211  1.0
  Ge  Ge1025  1  0.77624000  0.91700533  0.18858211  1.0
  Ge  Ge1026  1  0.22675333  0.08299467  0.13280078  1.0
  Ge  Ge1027  1  0.22675333  0.41632800  0.13280078  1.0
  Ge  Ge1028  1  0.22675333  0.74966133  0.13280078  1.0
  Ge  Ge1029  1  0.56008667  0.08299467  0.13280078  1.0
  Ge  Ge1030  1  0.56008667  0.41632800  0.13280078  1.0
  Ge  Ge1031  1  0.56008667  0.74966133  0.13280078  1.0
  Ge  Ge1032  1  0.89342000  0.08299467  0.13280078  1.0
  Ge  Ge1033  1  0.89342000  0.41632800  0.13280078  1.0
  Ge  Ge1034  1  0.89342000  0.74966133  0.13280078  1.0
  Ge  Ge1035  1  0.22675333  0.24966133  0.18835633  1.0
  Ge  Ge1036  1  0.22675333  0.58299467  0.18835633  1.0
  Ge  Ge1037  1  0.22675333  0.91632800  0.18835633  1.0
  Ge  Ge1038  1  0.56008667  0.24966133  0.18835633  1.0
  Ge  Ge1039  1  0.56008667  0.58299467  0.18835633  1.0
  Ge  Ge1040  1  0.56008667  0.91632800  0.18835633  1.0
  Ge  Ge1041  1  0.89342000  0.24966133  0.18835633  1.0
  Ge  Ge1042  1  0.89342000  0.58299467  0.18835633  1.0
  Ge  Ge1043  1  0.89342000  0.91632800  0.18835633  1.0
  Ge  Ge1044  1  0.22143100  0.12462350  0.11236694  1.0
  Ge  Ge1045  1  0.22143100  0.45795683  0.11236694  1.0
  Ge  Ge1046  1  0.22143100  0.79129017  0.11236694  1.0
  Ge  Ge1047  1  0.55476433  0.12462350  0.11236694  1.0
  Ge  Ge1048  1  0.55476433  0.45795683  0.11236694  1.0
  Ge  Ge1049  1  0.55476433  0.79129017  0.11236694  1.0
  Ge  Ge1050  1  0.88809767  0.12462350  0.11236694  1.0
  Ge  Ge1051  1  0.88809767  0.45795683  0.11236694  1.0
  Ge  Ge1052  1  0.88809767  0.79129017  0.11236694  1.0
  Ge  Ge1053  1  0.22143100  0.29129017  0.16792250  1.0
  Ge  Ge1054  1  0.22143100  0.62462350  0.16792250  1.0
  Ge  Ge1055  1  0.22143100  0.95795683  0.16792250  1.0
  Ge  Ge1056  1  0.55476433  0.29129017  0.16792250  1.0
  Ge  Ge1057  1  0.55476433  0.62462350  0.16792250  1.0
  Ge  Ge1058  1  0.55476433  0.95795683  0.16792250  1.0
  Ge  Ge1059  1  0.88809767  0.29129017  0.16792250  1.0
  Ge  Ge1060  1  0.88809767  0.62462350  0.16792250  1.0
  Ge  Ge1061  1  0.88809767  0.95795683  0.16792250  1.0
  Ge  Ge1062  1  0.01196533  0.04204317  0.19595128  1.0
  Ge  Ge1063  1  0.01196533  0.37537650  0.19595128  1.0
  Ge  Ge1064  1  0.01196533  0.70870983  0.19595128  1.0
  Ge  Ge1065  1  0.34529867  0.04204317  0.19595128  1.0
  Ge  Ge1066  1  0.34529867  0.37537650  0.19595128  1.0
  Ge  Ge1067  1  0.34529867  0.70870983  0.19595128  1.0
  Ge  Ge1068  1  0.67863200  0.04204317  0.19595128  1.0
  Ge  Ge1069  1  0.67863200  0.37537650  0.19595128  1.0
  Ge  Ge1070  1  0.67863200  0.70870983  0.19595128  1.0
  Ge  Ge1071  1  0.01196533  0.20870983  0.14039572  1.0
  Ge  Ge1072  1  0.01196533  0.54204317  0.14039572  1.0
  Ge  Ge1073  1  0.01196533  0.87537650  0.14039572  1.0
  Ge  Ge1074  1  0.34529867  0.20870983  0.14039572  1.0
  Ge  Ge1075  1  0.34529867  0.54204317  0.14039572  1.0
  Ge  Ge1076  1  0.34529867  0.87537650  0.14039572  1.0
  Ge  Ge1077  1  0.67863200  0.20870983  0.14039572  1.0
  Ge  Ge1078  1  0.67863200  0.54204317  0.14039572  1.0
  Ge  Ge1079  1  0.67863200  0.87537650  0.14039572  1.0
  Ge  Ge1080  1  0.21212400  0.04133083  0.18545817  1.0
  Ge  Ge1081  1  0.21212400  0.37466417  0.18545817  1.0
  Ge  Ge1082  1  0.21212400  0.70799750  0.18545817  1.0
  Ge  Ge1083  1  0.54545733  0.04133083  0.18545817  1.0
  Ge  Ge1084  1  0.54545733  0.37466417  0.18545817  1.0
  Ge  Ge1085  1  0.54545733  0.70799750  0.18545817  1.0
  Ge  Ge1086  1  0.87879067  0.04133083  0.18545817  1.0
  Ge  Ge1087  1  0.87879067  0.37466417  0.18545817  1.0
  Ge  Ge1088  1  0.87879067  0.70799750  0.18545817  1.0
  Ge  Ge1089  1  0.21212400  0.20799750  0.12990261  1.0
  Ge  Ge1090  1  0.21212400  0.54133083  0.12990261  1.0
  Ge  Ge1091  1  0.21212400  0.87466417  0.12990261  1.0
  Ge  Ge1092  1  0.54545733  0.20799750  0.12990261  1.0
  Ge  Ge1093  1  0.54545733  0.54133083  0.12990261  1.0
  Ge  Ge1094  1  0.54545733  0.87466417  0.12990261  1.0
  Ge  Ge1095  1  0.87879067  0.20799750  0.12990261  1.0
  Ge  Ge1096  1  0.87879067  0.54133083  0.12990261  1.0
  Ge  Ge1097  1  0.87879067  0.87466417  0.12990261  1.0
  Ge  Ge1098  1  0.32383867  0.12533583  0.21345983  1.0
  Ge  Ge1099  1  0.32383867  0.45866917  0.21345983  1.0
  Ge  Ge1100  1  0.32383867  0.79200250  0.21345983  1.0
  Ge  Ge1101  1  0.65717200  0.12533583  0.21345983  1.0
  Ge  Ge1102  1  0.65717200  0.45866917  0.21345983  1.0
  Ge  Ge1103  1  0.65717200  0.79200250  0.21345983  1.0
  Ge  Ge1104  1  0.99050533  0.12533583  0.21345983  1.0
  Ge  Ge1105  1  0.99050533  0.45866917  0.21345983  1.0
  Ge  Ge1106  1  0.99050533  0.79200250  0.21345983  1.0
  Ge  Ge1107  1  0.32383867  0.29200250  0.15790428  1.0
  Ge  Ge1108  1  0.32383867  0.62533583  0.15790428  1.0
  Ge  Ge1109  1  0.32383867  0.95866917  0.15790428  1.0
  Ge  Ge1110  1  0.65717200  0.29200250  0.15790428  1.0
  Ge  Ge1111  1  0.65717200  0.62533583  0.15790428  1.0
  Ge  Ge1112  1  0.65717200  0.95866917  0.15790428  1.0
  Ge  Ge1113  1  0.99050533  0.29200250  0.15790428  1.0
  Ge  Ge1114  1  0.99050533  0.62533583  0.15790428  1.0
  Ge  Ge1115  1  0.99050533  0.95866917  0.15790428  1.0
  Ni  Ni1116  1  0.10953567  0.08333333  0.31605078  1.0
  Ni  Ni1117  1  0.10953567  0.41666667  0.31605078  1.0
  Ni  Ni1118  1  0.10953567  0.75000000  0.31605078  1.0
  Ni  Ni1119  1  0.44286900  0.08333333  0.31605078  1.0
  Ni  Ni1120  1  0.44286900  0.41666667  0.31605078  1.0
  Ni  Ni1121  1  0.44286900  0.75000000  0.31605078  1.0
  Ni  Ni1122  1  0.77620233  0.08333333  0.31605078  1.0
  Ni  Ni1123  1  0.77620233  0.41666667  0.31605078  1.0
  Ni  Ni1124  1  0.77620233  0.75000000  0.31605078  1.0
  Ni  Ni1125  1  0.10953567  0.25000000  0.26049522  1.0
  Ni  Ni1126  1  0.10953567  0.58333333  0.26049522  1.0
  Ni  Ni1127  1  0.10953567  0.91666667  0.26049522  1.0
  Ni  Ni1128  1  0.44286900  0.25000000  0.26049522  1.0
  Ni  Ni1129  1  0.44286900  0.58333333  0.26049522  1.0
  Ni  Ni1130  1  0.44286900  0.91666667  0.26049522  1.0
  Ni  Ni1131  1  0.77620233  0.25000000  0.26049522  1.0
  Ni  Ni1132  1  0.77620233  0.58333333  0.26049522  1.0
  Ni  Ni1133  1  0.77620233  0.91666667  0.26049522  1.0
  Ni  Ni1134  1  0.33151400  0.12426583  0.25590261  1.0
  Ni  Ni1135  1  0.33151400  0.45759917  0.25590261  1.0
  Ni  Ni1136  1  0.33151400  0.79093250  0.25590261  1.0
  Ni  Ni1137  1  0.66484733  0.12426583  0.25590261  1.0
  Ni  Ni1138  1  0.66484733  0.45759917  0.25590261  1.0
  Ni  Ni1139  1  0.66484733  0.79093250  0.25590261  1.0
  Ni  Ni1140  1  0.99818067  0.12426583  0.25590261  1.0
  Ni  Ni1141  1  0.99818067  0.45759917  0.25590261  1.0
  Ni  Ni1142  1  0.99818067  0.79093250  0.25590261  1.0
  Ni  Ni1143  1  0.33151400  0.29093250  0.31145817  1.0
  Ni  Ni1144  1  0.33151400  0.62426583  0.31145817  1.0
  Ni  Ni1145  1  0.33151400  0.95759917  0.31145817  1.0
  Ni  Ni1146  1  0.66484733  0.29093250  0.31145817  1.0
  Ni  Ni1147  1  0.66484733  0.62426583  0.31145817  1.0
  Ni  Ni1148  1  0.66484733  0.95759917  0.31145817  1.0
  Ni  Ni1149  1  0.99818067  0.29093250  0.31145817  1.0
  Ni  Ni1150  1  0.99818067  0.62426583  0.31145817  1.0
  Ni  Ni1151  1  0.99818067  0.95759917  0.31145817  1.0
  Ni  Ni1152  1  0.33284700  0.04240083  0.22861428  1.0
  Ni  Ni1153  1  0.33284700  0.37573417  0.22861428  1.0
  Ni  Ni1154  1  0.33284700  0.70906750  0.22861428  1.0
  Ni  Ni1155  1  0.66618033  0.04240083  0.22861428  1.0
  Ni  Ni1156  1  0.66618033  0.37573417  0.22861428  1.0
  Ni  Ni1157  1  0.66618033  0.70906750  0.22861428  1.0
  Ni  Ni1158  1  0.99951367  0.04240083  0.22861428  1.0
  Ni  Ni1159  1  0.99951367  0.37573417  0.22861428  1.0
  Ni  Ni1160  1  0.99951367  0.70906750  0.22861428  1.0
  Ni  Ni1161  1  0.33284700  0.20906750  0.28416983  1.0
  Ni  Ni1162  1  0.33284700  0.54240083  0.28416983  1.0
  Ni  Ni1163  1  0.33284700  0.87573417  0.28416983  1.0
  Ni  Ni1164  1  0.66618033  0.20906750  0.28416983  1.0
  Ni  Ni1165  1  0.66618033  0.54240083  0.28416983  1.0
  Ni  Ni1166  1  0.66618033  0.87573417  0.28416983  1.0
  Ni  Ni1167  1  0.99951367  0.20906750  0.28416983  1.0
  Ni  Ni1168  1  0.99951367  0.54240083  0.28416983  1.0
  Ni  Ni1169  1  0.99951367  0.87573417  0.28416983  1.0
  Ni  Ni1170  1  0.11222733  0.12462183  0.25729650  1.0
  Ni  Ni1171  1  0.11222733  0.45795517  0.25729650  1.0
  Ni  Ni1172  1  0.11222733  0.79128850  0.25729650  1.0
  Ni  Ni1173  1  0.44556067  0.12462183  0.25729650  1.0
  Ni  Ni1174  1  0.44556067  0.45795517  0.25729650  1.0
  Ni  Ni1175  1  0.44556067  0.79128850  0.25729650  1.0
  Ni  Ni1176  1  0.77889400  0.12462183  0.25729650  1.0
  Ni  Ni1177  1  0.77889400  0.45795517  0.25729650  1.0
  Ni  Ni1178  1  0.77889400  0.79128850  0.25729650  1.0
  Ni  Ni1179  1  0.11222733  0.29128850  0.31285206  1.0
  Ni  Ni1180  1  0.11222733  0.62462183  0.31285206  1.0
  Ni  Ni1181  1  0.11222733  0.95795517  0.31285206  1.0
  Ni  Ni1182  1  0.44556067  0.29128850  0.31285206  1.0
  Ni  Ni1183  1  0.44556067  0.62462183  0.31285206  1.0
  Ni  Ni1184  1  0.44556067  0.95795517  0.31285206  1.0
  Ni  Ni1185  1  0.77889400  0.29128850  0.31285206  1.0
  Ni  Ni1186  1  0.77889400  0.62462183  0.31285206  1.0
  Ni  Ni1187  1  0.77889400  0.95795517  0.31285206  1.0
  Ni  Ni1188  1  0.22262600  0.04204483  0.22977083  1.0
  Ni  Ni1189  1  0.22262600  0.37537817  0.22977083  1.0
  Ni  Ni1190  1  0.22262600  0.70871150  0.22977083  1.0
  Ni  Ni1191  1  0.55595933  0.04204483  0.22977083  1.0
  Ni  Ni1192  1  0.55595933  0.37537817  0.22977083  1.0
  Ni  Ni1193  1  0.55595933  0.70871150  0.22977083  1.0
  Ni  Ni1194  1  0.88929267  0.04204483  0.22977083  1.0
  Ni  Ni1195  1  0.88929267  0.37537817  0.22977083  1.0
  Ni  Ni1196  1  0.88929267  0.70871150  0.22977083  1.0
  Ni  Ni1197  1  0.22262600  0.20871150  0.28532639  1.0
  Ni  Ni1198  1  0.22262600  0.54204483  0.28532639  1.0
  Ni  Ni1199  1  0.22262600  0.87537817  0.28532639  1.0
  Ni  Ni1200  1  0.55595933  0.20871150  0.28532639  1.0
  Ni  Ni1201  1  0.55595933  0.54204483  0.28532639  1.0
  Ni  Ni1202  1  0.55595933  0.87537817  0.28532639  1.0
  Ni  Ni1203  1  0.88929267  0.20871150  0.28532639  1.0
  Ni  Ni1204  1  0.88929267  0.54204483  0.28532639  1.0
  Ni  Ni1205  1  0.88929267  0.87537817  0.28532639  1.0
  Ni  Ni1206  1  0.22049067  0.16606200  0.23272278  1.0
  Ni  Ni1207  1  0.22049067  0.49939533  0.23272278  1.0
  Ni  Ni1208  1  0.22049067  0.83272867  0.23272278  1.0
  Ni  Ni1209  1  0.55382400  0.16606200  0.23272278  1.0
  Ni  Ni1210  1  0.55382400  0.49939533  0.23272278  1.0
  Ni  Ni1211  1  0.55382400  0.83272867  0.23272278  1.0
  Ni  Ni1212  1  0.88715733  0.16606200  0.23272278  1.0
  Ni  Ni1213  1  0.88715733  0.49939533  0.23272278  1.0
  Ni  Ni1214  1  0.88715733  0.83272867  0.23272278  1.0
  Ni  Ni1215  1  0.22049067  0.33272867  0.28827833  1.0
  Ni  Ni1216  1  0.22049067  0.66606200  0.28827833  1.0
  Ni  Ni1217  1  0.22049067  0.99939533  0.28827833  1.0
  Ni  Ni1218  1  0.55382400  0.33272867  0.28827833  1.0
  Ni  Ni1219  1  0.55382400  0.66606200  0.28827833  1.0
  Ni  Ni1220  1  0.55382400  0.99939533  0.28827833  1.0
  Ni  Ni1221  1  0.88715733  0.33272867  0.28827833  1.0
  Ni  Ni1222  1  0.88715733  0.66606200  0.28827833  1.0
  Ni  Ni1223  1  0.88715733  0.99939533  0.28827833  1.0
  Ni  Ni1224  1  0.33253467  0.00060467  0.28868144  1.0
  Ni  Ni1225  1  0.33253467  0.33393800  0.28868144  1.0
  Ni  Ni1226  1  0.33253467  0.66727133  0.28868144  1.0
  Ni  Ni1227  1  0.66586800  0.00060467  0.28868144  1.0
  Ni  Ni1228  1  0.66586800  0.33393800  0.28868144  1.0
  Ni  Ni1229  1  0.66586800  0.66727133  0.28868144  1.0
  Ni  Ni1230  1  0.99920133  0.00060467  0.28868144  1.0
  Ni  Ni1231  1  0.99920133  0.33393800  0.28868144  1.0
  Ni  Ni1232  1  0.99920133  0.66727133  0.28868144  1.0
  Ni  Ni1233  1  0.33253467  0.16727133  0.23312589  1.0
  Ni  Ni1234  1  0.33253467  0.50060467  0.23312589  1.0
  Ni  Ni1235  1  0.33253467  0.83393800  0.23312589  1.0
  Ni  Ni1236  1  0.66586800  0.16727133  0.23312589  1.0
  Ni  Ni1237  1  0.66586800  0.50060467  0.23312589  1.0
  Ni  Ni1238  1  0.66586800  0.83393800  0.23312589  1.0
  Ni  Ni1239  1  0.99920133  0.16727133  0.23312589  1.0
  Ni  Ni1240  1  0.99920133  0.50060467  0.23312589  1.0
  Ni  Ni1241  1  0.99920133  0.83393800  0.23312589  1.0
  Ni  Ni1242  1  0.11114933  0.14570750  0.30250083  1.0
  Ni  Ni1243  1  0.11114933  0.47904083  0.30250083  1.0
  Ni  Ni1244  1  0.11114933  0.81237417  0.30250083  1.0
  Ni  Ni1245  1  0.44448267  0.14570750  0.30250083  1.0
  Ni  Ni1246  1  0.44448267  0.47904083  0.30250083  1.0
  Ni  Ni1247  1  0.44448267  0.81237417  0.30250083  1.0
  Ni  Ni1248  1  0.77781600  0.14570750  0.30250083  1.0
  Ni  Ni1249  1  0.77781600  0.47904083  0.30250083  1.0
  Ni  Ni1250  1  0.77781600  0.81237417  0.30250083  1.0
  Ni  Ni1251  1  0.11114933  0.31237417  0.24694528  1.0
  Ni  Ni1252  1  0.11114933  0.64570750  0.24694528  1.0
  Ni  Ni1253  1  0.11114933  0.97904083  0.24694528  1.0
  Ni  Ni1254  1  0.44448267  0.31237417  0.24694528  1.0
  Ni  Ni1255  1  0.44448267  0.64570750  0.24694528  1.0
  Ni  Ni1256  1  0.44448267  0.97904083  0.24694528  1.0
  Ni  Ni1257  1  0.77781600  0.31237417  0.24694528  1.0
  Ni  Ni1258  1  0.77781600  0.64570750  0.24694528  1.0
  Ni  Ni1259  1  0.77781600  0.97904083  0.24694528  1.0
  Ni  Ni1260  1  0.00489800  0.02095917  0.26091806  1.0
  Ni  Ni1261  1  0.00489800  0.35429250  0.26091806  1.0
  Ni  Ni1262  1  0.00489800  0.68762583  0.26091806  1.0
  Ni  Ni1263  1  0.33823133  0.02095917  0.26091806  1.0
  Ni  Ni1264  1  0.33823133  0.35429250  0.26091806  1.0
  Ni  Ni1265  1  0.33823133  0.68762583  0.26091806  1.0
  Ni  Ni1266  1  0.67156467  0.02095917  0.26091806  1.0
  Ni  Ni1267  1  0.67156467  0.35429250  0.26091806  1.0
  Ni  Ni1268  1  0.67156467  0.68762583  0.26091806  1.0
  Ni  Ni1269  1  0.00489800  0.18762583  0.31647361  1.0
  Ni  Ni1270  1  0.00489800  0.52095917  0.31647361  1.0
  Ni  Ni1271  1  0.00489800  0.85429250  0.31647361  1.0
  Ni  Ni1272  1  0.33823133  0.18762583  0.31647361  1.0
  Ni  Ni1273  1  0.33823133  0.52095917  0.31647361  1.0
  Ni  Ni1274  1  0.33823133  0.85429250  0.31647361  1.0
  Ni  Ni1275  1  0.67156467  0.18762583  0.31647361  1.0
  Ni  Ni1276  1  0.67156467  0.52095917  0.31647361  1.0
  Ni  Ni1277  1  0.67156467  0.85429250  0.31647361  1.0
  Ni  Ni1278  1  0.11317033  0.10382600  0.28775511  1.0
  Ni  Ni1279  1  0.11317033  0.43715933  0.28775511  1.0
  Ni  Ni1280  1  0.11317033  0.77049267  0.28775511  1.0
  Ni  Ni1281  1  0.44650367  0.10382600  0.28775511  1.0
  Ni  Ni1282  1  0.44650367  0.43715933  0.28775511  1.0
  Ni  Ni1283  1  0.44650367  0.77049267  0.28775511  1.0
  Ni  Ni1284  1  0.77983700  0.10382600  0.28775511  1.0
  Ni  Ni1285  1  0.77983700  0.43715933  0.28775511  1.0
  Ni  Ni1286  1  0.77983700  0.77049267  0.28775511  1.0
  Ni  Ni1287  1  0.11317033  0.27049267  0.23219956  1.0
  Ni  Ni1288  1  0.11317033  0.60382600  0.23219956  1.0
  Ni  Ni1289  1  0.11317033  0.93715933  0.23219956  1.0
  Ni  Ni1290  1  0.44650367  0.27049267  0.23219956  1.0
  Ni  Ni1291  1  0.44650367  0.60382600  0.23219956  1.0
  Ni  Ni1292  1  0.44650367  0.93715933  0.23219956  1.0
  Ni  Ni1293  1  0.77983700  0.27049267  0.23219956  1.0
  Ni  Ni1294  1  0.77983700  0.60382600  0.23219956  1.0
  Ni  Ni1295  1  0.77983700  0.93715933  0.23219956  1.0
  Ni  Ni1296  1  0.00052133  0.06284067  0.27409333  1.0
  Ni  Ni1297  1  0.00052133  0.39617400  0.27409333  1.0
  Ni  Ni1298  1  0.00052133  0.72950733  0.27409333  1.0
  Ni  Ni1299  1  0.33385467  0.06284067  0.27409333  1.0
  Ni  Ni1300  1  0.33385467  0.39617400  0.27409333  1.0
  Ni  Ni1301  1  0.33385467  0.72950733  0.27409333  1.0
  Ni  Ni1302  1  0.66718800  0.06284067  0.27409333  1.0
  Ni  Ni1303  1  0.66718800  0.39617400  0.27409333  1.0
  Ni  Ni1304  1  0.66718800  0.72950733  0.27409333  1.0
  Ni  Ni1305  1  0.00052133  0.22950733  0.32964889  1.0
  Ni  Ni1306  1  0.00052133  0.56284067  0.32964889  1.0
  Ni  Ni1307  1  0.00052133  0.89617400  0.32964889  1.0
  Ni  Ni1308  1  0.33385467  0.22950733  0.32964889  1.0
  Ni  Ni1309  1  0.33385467  0.56284067  0.32964889  1.0
  Ni  Ni1310  1  0.33385467  0.89617400  0.32964889  1.0
  Ni  Ni1311  1  0.66718800  0.22950733  0.32964889  1.0
  Ni  Ni1312  1  0.66718800  0.56284067  0.32964889  1.0
  Ni  Ni1313  1  0.66718800  0.89617400  0.32964889  1.0
  Ni  Ni1314  1  0.11168200  0.06269650  0.27127006  1.0
  Ni  Ni1315  1  0.11168200  0.39602983  0.27127006  1.0
  Ni  Ni1316  1  0.11168200  0.72936317  0.27127006  1.0
  Ni  Ni1317  1  0.44501533  0.06269650  0.27127006  1.0
  Ni  Ni1318  1  0.44501533  0.39602983  0.27127006  1.0
  Ni  Ni1319  1  0.44501533  0.72936317  0.27127006  1.0
  Ni  Ni1320  1  0.77834867  0.06269650  0.27127006  1.0
  Ni  Ni1321  1  0.77834867  0.39602983  0.27127006  1.0
  Ni  Ni1322  1  0.77834867  0.72936317  0.27127006  1.0
  Ni  Ni1323  1  0.11168200  0.22936317  0.32682561  1.0
  Ni  Ni1324  1  0.11168200  0.56269650  0.32682561  1.0
  Ni  Ni1325  1  0.11168200  0.89602983  0.32682561  1.0
  Ni  Ni1326  1  0.44501533  0.22936317  0.32682561  1.0
  Ni  Ni1327  1  0.44501533  0.56269650  0.32682561  1.0
  Ni  Ni1328  1  0.44501533  0.89602983  0.32682561  1.0
  Ni  Ni1329  1  0.77834867  0.22936317  0.32682561  1.0
  Ni  Ni1330  1  0.77834867  0.56269650  0.32682561  1.0
  Ni  Ni1331  1  0.77834867  0.89602983  0.32682561  1.0
  Ni  Ni1332  1  0.32701733  0.10397017  0.28502794  1.0
  Ni  Ni1333  1  0.32701733  0.43730350  0.28502794  1.0
  Ni  Ni1334  1  0.32701733  0.77063683  0.28502794  1.0
  Ni  Ni1335  1  0.66035067  0.10397017  0.28502794  1.0
  Ni  Ni1336  1  0.66035067  0.43730350  0.28502794  1.0
  Ni  Ni1337  1  0.66035067  0.77063683  0.28502794  1.0
  Ni  Ni1338  1  0.99368400  0.10397017  0.28502794  1.0
  Ni  Ni1339  1  0.99368400  0.43730350  0.28502794  1.0
  Ni  Ni1340  1  0.99368400  0.77063683  0.28502794  1.0
  Ni  Ni1341  1  0.32701733  0.27063683  0.22947239  1.0
  Ni  Ni1342  1  0.32701733  0.60397017  0.22947239  1.0
  Ni  Ni1343  1  0.32701733  0.93730350  0.22947239  1.0
  Ni  Ni1344  1  0.66035067  0.27063683  0.22947239  1.0
  Ni  Ni1345  1  0.66035067  0.60397017  0.22947239  1.0
  Ni  Ni1346  1  0.66035067  0.93730350  0.22947239  1.0
  Ni  Ni1347  1  0.99368400  0.27063683  0.22947239  1.0
  Ni  Ni1348  1  0.99368400  0.60397017  0.22947239  1.0
  Ni  Ni1349  1  0.99368400  0.93730350  0.22947239  1.0
  Ni  Ni1350  1  0.11022267  0.02096233  0.25924333  1.0
  Ni  Ni1351  1  0.11022267  0.35429567  0.25924333  1.0
  Ni  Ni1352  1  0.11022267  0.68762900  0.25924333  1.0
  Ni  Ni1353  1  0.44355600  0.02096233  0.25924333  1.0
  Ni  Ni1354  1  0.44355600  0.35429567  0.25924333  1.0
  Ni  Ni1355  1  0.44355600  0.68762900  0.25924333  1.0
  Ni  Ni1356  1  0.77688933  0.02096233  0.25924333  1.0
  Ni  Ni1357  1  0.77688933  0.35429567  0.25924333  1.0
  Ni  Ni1358  1  0.77688933  0.68762900  0.25924333  1.0
  Ni  Ni1359  1  0.11022267  0.18762900  0.31479889  1.0
  Ni  Ni1360  1  0.11022267  0.52096233  0.31479889  1.0
  Ni  Ni1361  1  0.11022267  0.85429567  0.31479889  1.0
  Ni  Ni1362  1  0.44355600  0.18762900  0.31479889  1.0
  Ni  Ni1363  1  0.44355600  0.52096233  0.31479889  1.0
  Ni  Ni1364  1  0.44355600  0.85429567  0.31479889  1.0
  Ni  Ni1365  1  0.77688933  0.18762900  0.31479889  1.0
  Ni  Ni1366  1  0.77688933  0.52096233  0.31479889  1.0
  Ni  Ni1367  1  0.77688933  0.85429567  0.31479889  1.0
  Ni  Ni1368  1  0.00079733  0.14570433  0.30082400  1.0
  Ni  Ni1369  1  0.00079733  0.47903767  0.30082400  1.0
  Ni  Ni1370  1  0.00079733  0.81237100  0.30082400  1.0
  Ni  Ni1371  1  0.33413067  0.14570433  0.30082400  1.0
  Ni  Ni1372  1  0.33413067  0.47903767  0.30082400  1.0
  Ni  Ni1373  1  0.33413067  0.81237100  0.30082400  1.0
  Ni  Ni1374  1  0.66746400  0.14570433  0.30082400  1.0
  Ni  Ni1375  1  0.66746400  0.47903767  0.30082400  1.0
  Ni  Ni1376  1  0.66746400  0.81237100  0.30082400  1.0
  Ni  Ni1377  1  0.00079733  0.31237100  0.24526844  1.0
  Ni  Ni1378  1  0.00079733  0.64570433  0.24526844  1.0
  Ni  Ni1379  1  0.00079733  0.97903767  0.24526844  1.0
  Ni  Ni1380  1  0.33413067  0.31237100  0.24526844  1.0
  Ni  Ni1381  1  0.33413067  0.64570433  0.24526844  1.0
  Ni  Ni1382  1  0.33413067  0.97903767  0.24526844  1.0
  Ni  Ni1383  1  0.66746400  0.31237100  0.24526844  1.0
  Ni  Ni1384  1  0.66746400  0.64570433  0.24526844  1.0
  Ni  Ni1385  1  0.66746400  0.97903767  0.24526844  1.0
  Ni  Ni1386  1  0.22004200  0.14569217  0.29812517  1.0
  Ni  Ni1387  1  0.22004200  0.47902550  0.29812517  1.0
  Ni  Ni1388  1  0.22004200  0.81235883  0.29812517  1.0
  Ni  Ni1389  1  0.55337533  0.14569217  0.29812517  1.0
  Ni  Ni1390  1  0.55337533  0.47902550  0.29812517  1.0
  Ni  Ni1391  1  0.55337533  0.81235883  0.29812517  1.0
  Ni  Ni1392  1  0.88670867  0.14569217  0.29812517  1.0
  Ni  Ni1393  1  0.88670867  0.47902550  0.29812517  1.0
  Ni  Ni1394  1  0.88670867  0.81235883  0.29812517  1.0
  Ni  Ni1395  1  0.22004200  0.31235883  0.24256961  1.0
  Ni  Ni1396  1  0.22004200  0.64569217  0.24256961  1.0
  Ni  Ni1397  1  0.22004200  0.97902550  0.24256961  1.0
  Ni  Ni1398  1  0.55337533  0.31235883  0.24256961  1.0
  Ni  Ni1399  1  0.55337533  0.64569217  0.24256961  1.0
  Ni  Ni1400  1  0.55337533  0.97902550  0.24256961  1.0
  Ni  Ni1401  1  0.88670867  0.31235883  0.24256961  1.0
  Ni  Ni1402  1  0.88670867  0.64569217  0.24256961  1.0
  Ni  Ni1403  1  0.88670867  0.97902550  0.24256961  1.0
  Ni  Ni1404  1  0.21622700  0.02097450  0.25655261  1.0
  Ni  Ni1405  1  0.21622700  0.35430783  0.25655261  1.0
  Ni  Ni1406  1  0.21622700  0.68764117  0.25655261  1.0
  Ni  Ni1407  1  0.54956033  0.02097450  0.25655261  1.0
  Ni  Ni1408  1  0.54956033  0.35430783  0.25655261  1.0
  Ni  Ni1409  1  0.54956033  0.68764117  0.25655261  1.0
  Ni  Ni1410  1  0.88289367  0.02097450  0.25655261  1.0
  Ni  Ni1411  1  0.88289367  0.35430783  0.25655261  1.0
  Ni  Ni1412  1  0.88289367  0.68764117  0.25655261  1.0
  Ni  Ni1413  1  0.21622700  0.18764117  0.31210817  1.0
  Ni  Ni1414  1  0.21622700  0.52097450  0.31210817  1.0
  Ni  Ni1415  1  0.21622700  0.85430783  0.31210817  1.0
  Ni  Ni1416  1  0.54956033  0.18764117  0.31210817  1.0
  Ni  Ni1417  1  0.54956033  0.52097450  0.31210817  1.0
  Ni  Ni1418  1  0.54956033  0.85430783  0.31210817  1.0
  Ni  Ni1419  1  0.88289367  0.18764117  0.31210817  1.0
  Ni  Ni1420  1  0.88289367  0.52097450  0.31210817  1.0
  Ni  Ni1421  1  0.88289367  0.85430783  0.31210817  1.0
  Ni  Ni1422  1  0.22557633  0.10379083  0.28654017  1.0
  Ni  Ni1423  1  0.22557633  0.43712417  0.28654017  1.0
  Ni  Ni1424  1  0.22557633  0.77045750  0.28654017  1.0
  Ni  Ni1425  1  0.55890967  0.10379083  0.28654017  1.0
  Ni  Ni1426  1  0.55890967  0.43712417  0.28654017  1.0
  Ni  Ni1427  1  0.55890967  0.77045750  0.28654017  1.0
  Ni  Ni1428  1  0.89224300  0.10379083  0.28654017  1.0
  Ni  Ni1429  1  0.89224300  0.43712417  0.28654017  1.0
  Ni  Ni1430  1  0.89224300  0.77045750  0.28654017  1.0
  Ni  Ni1431  1  0.22557633  0.27045750  0.23098461  1.0
  Ni  Ni1432  1  0.22557633  0.60379083  0.23098461  1.0
  Ni  Ni1433  1  0.22557633  0.93712417  0.23098461  1.0
  Ni  Ni1434  1  0.55890967  0.27045750  0.23098461  1.0
  Ni  Ni1435  1  0.55890967  0.60379083  0.23098461  1.0
  Ni  Ni1436  1  0.55890967  0.93712417  0.23098461  1.0
  Ni  Ni1437  1  0.89224300  0.27045750  0.23098461  1.0
  Ni  Ni1438  1  0.89224300  0.60379083  0.23098461  1.0
  Ni  Ni1439  1  0.89224300  0.93712417  0.23098461  1.0
  Ni  Ni1440  1  0.21783900  0.06287583  0.27290183  1.0
  Ni  Ni1441  1  0.21783900  0.39620917  0.27290183  1.0
  Ni  Ni1442  1  0.21783900  0.72954250  0.27290183  1.0
  Ni  Ni1443  1  0.55117233  0.06287583  0.27290183  1.0
  Ni  Ni1444  1  0.55117233  0.39620917  0.27290183  1.0
  Ni  Ni1445  1  0.55117233  0.72954250  0.27290183  1.0
  Ni  Ni1446  1  0.88450567  0.06287583  0.27290183  1.0
  Ni  Ni1447  1  0.88450567  0.39620917  0.27290183  1.0
  Ni  Ni1448  1  0.88450567  0.72954250  0.27290183  1.0
  Ni  Ni1449  1  0.21783900  0.22954250  0.32845739  1.0
  Ni  Ni1450  1  0.21783900  0.56287583  0.32845739  1.0
  Ni  Ni1451  1  0.21783900  0.89620917  0.32845739  1.0
  Ni  Ni1452  1  0.55117233  0.22954250  0.32845739  1.0
  Ni  Ni1453  1  0.55117233  0.56287583  0.32845739  1.0
  Ni  Ni1454  1  0.55117233  0.89620917  0.32845739  1.0
  Ni  Ni1455  1  0.88450567  0.22954250  0.32845739  1.0
  Ni  Ni1456  1  0.88450567  0.56287583  0.32845739  1.0
  Ni  Ni1457  1  0.88450567  0.89620917  0.32845739  1.0
  Ge  Ge1458  1  0.00857433  0.00000000  0.33207656  1.0
  Ge  Ge1459  1  0.00857433  0.33333333  0.33207656  1.0
  Ge  Ge1460  1  0.00857433  0.66666667  0.33207656  1.0
  Ge  Ge1461  1  0.34190767  0.00000000  0.33207656  1.0
  Ge  Ge1462  1  0.34190767  0.33333333  0.33207656  1.0
  Ge  Ge1463  1  0.34190767  0.66666667  0.33207656  1.0
  Ge  Ge1464  1  0.67524100  0.00000000  0.33207656  1.0
  Ge  Ge1465  1  0.67524100  0.33333333  0.33207656  1.0
  Ge  Ge1466  1  0.67524100  0.66666667  0.33207656  1.0
  Ge  Ge1467  1  0.00857433  0.16666667  0.27652100  1.0
  Ge  Ge1468  1  0.00857433  0.50000000  0.27652100  1.0
  Ge  Ge1469  1  0.00857433  0.83333333  0.27652100  1.0
  Ge  Ge1470  1  0.34190767  0.16666667  0.27652100  1.0
  Ge  Ge1471  1  0.34190767  0.50000000  0.27652100  1.0
  Ge  Ge1472  1  0.34190767  0.83333333  0.27652100  1.0
  Ge  Ge1473  1  0.67524100  0.16666667  0.27652100  1.0
  Ge  Ge1474  1  0.67524100  0.50000000  0.27652100  1.0
  Ge  Ge1475  1  0.67524100  0.83333333  0.27652100  1.0
  Ge  Ge1476  1  0.32574633  0.08333333  0.23796900  1.0
  Ge  Ge1477  1  0.32574633  0.41666667  0.23796900  1.0
  Ge  Ge1478  1  0.32574633  0.75000000  0.23796900  1.0
  Ge  Ge1479  1  0.65907967  0.08333333  0.23796900  1.0
  Ge  Ge1480  1  0.65907967  0.41666667  0.23796900  1.0
  Ge  Ge1481  1  0.65907967  0.75000000  0.23796900  1.0
  Ge  Ge1482  1  0.99241300  0.08333333  0.23796900  1.0
  Ge  Ge1483  1  0.99241300  0.41666667  0.23796900  1.0
  Ge  Ge1484  1  0.99241300  0.75000000  0.23796900  1.0
  Ge  Ge1485  1  0.32574633  0.25000000  0.29352456  1.0
  Ge  Ge1486  1  0.32574633  0.58333333  0.29352456  1.0
  Ge  Ge1487  1  0.32574633  0.91666667  0.29352456  1.0
  Ge  Ge1488  1  0.65907967  0.25000000  0.29352456  1.0
  Ge  Ge1489  1  0.65907967  0.58333333  0.29352456  1.0
  Ge  Ge1490  1  0.65907967  0.91666667  0.29352456  1.0
  Ge  Ge1491  1  0.99241300  0.25000000  0.29352456  1.0
  Ge  Ge1492  1  0.99241300  0.58333333  0.29352456  1.0
  Ge  Ge1493  1  0.99241300  0.91666667  0.29352456  1.0
  Ge  Ge1494  1  0.12086700  0.12458433  0.22282289  1.0
  Ge  Ge1495  1  0.12086700  0.45791767  0.22282289  1.0
  Ge  Ge1496  1  0.12086700  0.79125100  0.22282289  1.0
  Ge  Ge1497  1  0.45420033  0.12458433  0.22282289  1.0
  Ge  Ge1498  1  0.45420033  0.45791767  0.22282289  1.0
  Ge  Ge1499  1  0.45420033  0.79125100  0.22282289  1.0
  Ge  Ge1500  1  0.78753367  0.12458433  0.22282289  1.0
  Ge  Ge1501  1  0.78753367  0.45791767  0.22282289  1.0
  Ge  Ge1502  1  0.78753367  0.79125100  0.22282289  1.0
  Ge  Ge1503  1  0.12086700  0.29125100  0.27837844  1.0
  Ge  Ge1504  1  0.12086700  0.62458433  0.27837844  1.0
  Ge  Ge1505  1  0.12086700  0.95791767  0.27837844  1.0
  Ge  Ge1506  1  0.45420033  0.29125100  0.27837844  1.0
  Ge  Ge1507  1  0.45420033  0.62458433  0.27837844  1.0
  Ge  Ge1508  1  0.45420033  0.95791767  0.27837844  1.0
  Ge  Ge1509  1  0.78753367  0.29125100  0.27837844  1.0
  Ge  Ge1510  1  0.78753367  0.62458433  0.27837844  1.0
  Ge  Ge1511  1  0.78753367  0.95791767  0.27837844  1.0
  Ge  Ge1512  1  0.11060300  0.04208233  0.30643333  1.0
  Ge  Ge1513  1  0.11060300  0.37541567  0.30643333  1.0
  Ge  Ge1514  1  0.11060300  0.70874900  0.30643333  1.0
  Ge  Ge1515  1  0.44393633  0.04208233  0.30643333  1.0
  Ge  Ge1516  1  0.44393633  0.37541567  0.30643333  1.0
  Ge  Ge1517  1  0.44393633  0.70874900  0.30643333  1.0
  Ge  Ge1518  1  0.77726967  0.04208233  0.30643333  1.0
  Ge  Ge1519  1  0.77726967  0.37541567  0.30643333  1.0
  Ge  Ge1520  1  0.77726967  0.70874900  0.30643333  1.0
  Ge  Ge1521  1  0.11060300  0.20874900  0.25087778  1.0
  Ge  Ge1522  1  0.11060300  0.54208233  0.25087778  1.0
  Ge  Ge1523  1  0.11060300  0.87541567  0.25087778  1.0
  Ge  Ge1524  1  0.44393633  0.20874900  0.25087778  1.0
  Ge  Ge1525  1  0.44393633  0.54208233  0.25087778  1.0
  Ge  Ge1526  1  0.44393633  0.87541567  0.25087778  1.0
  Ge  Ge1527  1  0.77726967  0.20874900  0.25087778  1.0
  Ge  Ge1528  1  0.77726967  0.54208233  0.25087778  1.0
  Ge  Ge1529  1  0.77726967  0.87541567  0.25087778  1.0
  Ge  Ge1530  1  0.11047367  0.16628633  0.26654644  1.0
  Ge  Ge1531  1  0.11047367  0.49961967  0.26654644  1.0
  Ge  Ge1532  1  0.11047367  0.83295300  0.26654644  1.0
  Ge  Ge1533  1  0.44380700  0.16628633  0.26654644  1.0
  Ge  Ge1534  1  0.44380700  0.49961967  0.26654644  1.0
  Ge  Ge1535  1  0.44380700  0.83295300  0.26654644  1.0
  Ge  Ge1536  1  0.77714033  0.16628633  0.26654644  1.0
  Ge  Ge1537  1  0.77714033  0.49961967  0.26654644  1.0
  Ge  Ge1538  1  0.77714033  0.83295300  0.26654644  1.0
  Ge  Ge1539  1  0.11047367  0.33295300  0.32210200  1.0
  Ge  Ge1540  1  0.11047367  0.66628633  0.32210200  1.0
  Ge  Ge1541  1  0.11047367  0.99961967  0.32210200  1.0
  Ge  Ge1542  1  0.44380700  0.33295300  0.32210200  1.0
  Ge  Ge1543  1  0.44380700  0.66628633  0.32210200  1.0
  Ge  Ge1544  1  0.44380700  0.99961967  0.32210200  1.0
  Ge  Ge1545  1  0.77714033  0.33295300  0.32210200  1.0
  Ge  Ge1546  1  0.77714033  0.66628633  0.32210200  1.0
  Ge  Ge1547  1  0.77714033  0.99961967  0.32210200  1.0
  Ge  Ge1548  1  0.21046500  0.00038033  0.32235556  1.0
  Ge  Ge1549  1  0.21046500  0.33371367  0.32235556  1.0
  Ge  Ge1550  1  0.21046500  0.66704700  0.32235556  1.0
  Ge  Ge1551  1  0.54379833  0.00038033  0.32235556  1.0
  Ge  Ge1552  1  0.54379833  0.33371367  0.32235556  1.0
  Ge  Ge1553  1  0.54379833  0.66704700  0.32235556  1.0
  Ge  Ge1554  1  0.87713167  0.00038033  0.32235556  1.0
  Ge  Ge1555  1  0.87713167  0.33371367  0.32235556  1.0
  Ge  Ge1556  1  0.87713167  0.66704700  0.32235556  1.0
  Ge  Ge1557  1  0.21046500  0.16704700  0.26680000  1.0
  Ge  Ge1558  1  0.21046500  0.50038033  0.26680000  1.0
  Ge  Ge1559  1  0.21046500  0.83371367  0.26680000  1.0
  Ge  Ge1560  1  0.54379833  0.16704700  0.26680000  1.0
  Ge  Ge1561  1  0.54379833  0.50038033  0.26680000  1.0
  Ge  Ge1562  1  0.54379833  0.83371367  0.26680000  1.0
  Ge  Ge1563  1  0.87713167  0.16704700  0.26680000  1.0
  Ge  Ge1564  1  0.87713167  0.50038033  0.26680000  1.0
  Ge  Ge1565  1  0.87713167  0.83371367  0.26680000  1.0
  Ge  Ge1566  1  0.10957333  0.08367200  0.24413767  1.0
  Ge  Ge1567  1  0.10957333  0.41700533  0.24413767  1.0
  Ge  Ge1568  1  0.10957333  0.75033867  0.24413767  1.0
  Ge  Ge1569  1  0.44290667  0.08367200  0.24413767  1.0
  Ge  Ge1570  1  0.44290667  0.41700533  0.24413767  1.0
  Ge  Ge1571  1  0.44290667  0.75033867  0.24413767  1.0
  Ge  Ge1572  1  0.77624000  0.08367200  0.24413767  1.0
  Ge  Ge1573  1  0.77624000  0.41700533  0.24413767  1.0
  Ge  Ge1574  1  0.77624000  0.75033867  0.24413767  1.0
  Ge  Ge1575  1  0.10957333  0.25033867  0.29969322  1.0
  Ge  Ge1576  1  0.10957333  0.58367200  0.29969322  1.0
  Ge  Ge1577  1  0.10957333  0.91700533  0.29969322  1.0
  Ge  Ge1578  1  0.44290667  0.25033867  0.29969322  1.0
  Ge  Ge1579  1  0.44290667  0.58367200  0.29969322  1.0
  Ge  Ge1580  1  0.44290667  0.91700533  0.29969322  1.0
  Ge  Ge1581  1  0.77624000  0.25033867  0.29969322  1.0
  Ge  Ge1582  1  0.77624000  0.58367200  0.29969322  1.0
  Ge  Ge1583  1  0.77624000  0.91700533  0.29969322  1.0
  Ge  Ge1584  1  0.22675333  0.08299467  0.24391189  1.0
  Ge  Ge1585  1  0.22675333  0.41632800  0.24391189  1.0
  Ge  Ge1586  1  0.22675333  0.74966133  0.24391189  1.0
  Ge  Ge1587  1  0.56008667  0.08299467  0.24391189  1.0
  Ge  Ge1588  1  0.56008667  0.41632800  0.24391189  1.0
  Ge  Ge1589  1  0.56008667  0.74966133  0.24391189  1.0
  Ge  Ge1590  1  0.89342000  0.08299467  0.24391189  1.0
  Ge  Ge1591  1  0.89342000  0.41632800  0.24391189  1.0
  Ge  Ge1592  1  0.89342000  0.74966133  0.24391189  1.0
  Ge  Ge1593  1  0.22675333  0.24966133  0.29946744  1.0
  Ge  Ge1594  1  0.22675333  0.58299467  0.29946744  1.0
  Ge  Ge1595  1  0.22675333  0.91632800  0.29946744  1.0
  Ge  Ge1596  1  0.56008667  0.24966133  0.29946744  1.0
  Ge  Ge1597  1  0.56008667  0.58299467  0.29946744  1.0
  Ge  Ge1598  1  0.56008667  0.91632800  0.29946744  1.0
  Ge  Ge1599  1  0.89342000  0.24966133  0.29946744  1.0
  Ge  Ge1600  1  0.89342000  0.58299467  0.29946744  1.0
  Ge  Ge1601  1  0.89342000  0.91632800  0.29946744  1.0
  Ge  Ge1602  1  0.22143100  0.12462350  0.22347806  1.0
  Ge  Ge1603  1  0.22143100  0.45795683  0.22347806  1.0
  Ge  Ge1604  1  0.22143100  0.79129017  0.22347806  1.0
  Ge  Ge1605  1  0.55476433  0.12462350  0.22347806  1.0
  Ge  Ge1606  1  0.55476433  0.45795683  0.22347806  1.0
  Ge  Ge1607  1  0.55476433  0.79129017  0.22347806  1.0
  Ge  Ge1608  1  0.88809767  0.12462350  0.22347806  1.0
  Ge  Ge1609  1  0.88809767  0.45795683  0.22347806  1.0
  Ge  Ge1610  1  0.88809767  0.79129017  0.22347806  1.0
  Ge  Ge1611  1  0.22143100  0.29129017  0.27903361  1.0
  Ge  Ge1612  1  0.22143100  0.62462350  0.27903361  1.0
  Ge  Ge1613  1  0.22143100  0.95795683  0.27903361  1.0
  Ge  Ge1614  1  0.55476433  0.29129017  0.27903361  1.0
  Ge  Ge1615  1  0.55476433  0.62462350  0.27903361  1.0
  Ge  Ge1616  1  0.55476433  0.95795683  0.27903361  1.0
  Ge  Ge1617  1  0.88809767  0.29129017  0.27903361  1.0
  Ge  Ge1618  1  0.88809767  0.62462350  0.27903361  1.0
  Ge  Ge1619  1  0.88809767  0.95795683  0.27903361  1.0
  Ge  Ge1620  1  0.01196533  0.04204317  0.30706239  1.0
  Ge  Ge1621  1  0.01196533  0.37537650  0.30706239  1.0
  Ge  Ge1622  1  0.01196533  0.70870983  0.30706239  1.0
  Ge  Ge1623  1  0.34529867  0.04204317  0.30706239  1.0
  Ge  Ge1624  1  0.34529867  0.37537650  0.30706239  1.0
  Ge  Ge1625  1  0.34529867  0.70870983  0.30706239  1.0
  Ge  Ge1626  1  0.67863200  0.04204317  0.30706239  1.0
  Ge  Ge1627  1  0.67863200  0.37537650  0.30706239  1.0
  Ge  Ge1628  1  0.67863200  0.70870983  0.30706239  1.0
  Ge  Ge1629  1  0.01196533  0.20870983  0.25150683  1.0
  Ge  Ge1630  1  0.01196533  0.54204317  0.25150683  1.0
  Ge  Ge1631  1  0.01196533  0.87537650  0.25150683  1.0
  Ge  Ge1632  1  0.34529867  0.20870983  0.25150683  1.0
  Ge  Ge1633  1  0.34529867  0.54204317  0.25150683  1.0
  Ge  Ge1634  1  0.34529867  0.87537650  0.25150683  1.0
  Ge  Ge1635  1  0.67863200  0.20870983  0.25150683  1.0
  Ge  Ge1636  1  0.67863200  0.54204317  0.25150683  1.0
  Ge  Ge1637  1  0.67863200  0.87537650  0.25150683  1.0
  Ge  Ge1638  1  0.21212400  0.04133083  0.29656928  1.0
  Ge  Ge1639  1  0.21212400  0.37466417  0.29656928  1.0
  Ge  Ge1640  1  0.21212400  0.70799750  0.29656928  1.0
  Ge  Ge1641  1  0.54545733  0.04133083  0.29656928  1.0
  Ge  Ge1642  1  0.54545733  0.37466417  0.29656928  1.0
  Ge  Ge1643  1  0.54545733  0.70799750  0.29656928  1.0
  Ge  Ge1644  1  0.87879067  0.04133083  0.29656928  1.0
  Ge  Ge1645  1  0.87879067  0.37466417  0.29656928  1.0
  Ge  Ge1646  1  0.87879067  0.70799750  0.29656928  1.0
  Ge  Ge1647  1  0.21212400  0.20799750  0.24101372  1.0
  Ge  Ge1648  1  0.21212400  0.54133083  0.24101372  1.0
  Ge  Ge1649  1  0.21212400  0.87466417  0.24101372  1.0
  Ge  Ge1650  1  0.54545733  0.20799750  0.24101372  1.0
  Ge  Ge1651  1  0.54545733  0.54133083  0.24101372  1.0
  Ge  Ge1652  1  0.54545733  0.87466417  0.24101372  1.0
  Ge  Ge1653  1  0.87879067  0.20799750  0.24101372  1.0
  Ge  Ge1654  1  0.87879067  0.54133083  0.24101372  1.0
  Ge  Ge1655  1  0.87879067  0.87466417  0.24101372  1.0
  Ge  Ge1656  1  0.32383867  0.12533583  0.32457094  1.0
  Ge  Ge1657  1  0.32383867  0.45866917  0.32457094  1.0
  Ge  Ge1658  1  0.32383867  0.79200250  0.32457094  1.0
  Ge  Ge1659  1  0.65717200  0.12533583  0.32457094  1.0
  Ge  Ge1660  1  0.65717200  0.45866917  0.32457094  1.0
  Ge  Ge1661  1  0.65717200  0.79200250  0.32457094  1.0
  Ge  Ge1662  1  0.99050533  0.12533583  0.32457094  1.0
  Ge  Ge1663  1  0.99050533  0.45866917  0.32457094  1.0
  Ge  Ge1664  1  0.99050533  0.79200250  0.32457094  1.0
  Ge  Ge1665  1  0.32383867  0.29200250  0.26901539  1.0
  Ge  Ge1666  1  0.32383867  0.62533583  0.26901539  1.0
  Ge  Ge1667  1  0.32383867  0.95866917  0.26901539  1.0
  Ge  Ge1668  1  0.65717200  0.29200250  0.26901539  1.0
  Ge  Ge1669  1  0.65717200  0.62533583  0.26901539  1.0
  Ge  Ge1670  1  0.65717200  0.95866917  0.26901539  1.0
  Ge  Ge1671  1  0.99050533  0.29200250  0.26901539  1.0
  Ge  Ge1672  1  0.99050533  0.62533583  0.26901539  1.0
  Ge  Ge1673  1  0.99050533  0.95866917  0.26901539  1.0
  Ni  Ni1674  1  0.10953567  0.08333333  0.42716189  1.0
  Ni  Ni1675  1  0.10953567  0.41666667  0.42716189  1.0
  Ni  Ni1676  1  0.10953567  0.75000000  0.42716189  1.0
  Ni  Ni1677  1  0.44286900  0.08333333  0.42716189  1.0
  Ni  Ni1678  1  0.44286900  0.41666667  0.42716189  1.0
  Ni  Ni1679  1  0.44286900  0.75000000  0.42716189  1.0
  Ni  Ni1680  1  0.77620233  0.08333333  0.42716189  1.0
  Ni  Ni1681  1  0.77620233  0.41666667  0.42716189  1.0
  Ni  Ni1682  1  0.77620233  0.75000000  0.42716189  1.0
  Ni  Ni1683  1  0.10953567  0.25000000  0.37160633  1.0
  Ni  Ni1684  1  0.10953567  0.58333333  0.37160633  1.0
  Ni  Ni1685  1  0.10953567  0.91666667  0.37160633  1.0
  Ni  Ni1686  1  0.44286900  0.25000000  0.37160633  1.0
  Ni  Ni1687  1  0.44286900  0.58333333  0.37160633  1.0
  Ni  Ni1688  1  0.44286900  0.91666667  0.37160633  1.0
  Ni  Ni1689  1  0.77620233  0.25000000  0.37160633  1.0
  Ni  Ni1690  1  0.77620233  0.58333333  0.37160633  1.0
  Ni  Ni1691  1  0.77620233  0.91666667  0.37160633  1.0
  Ni  Ni1692  1  0.33151400  0.12426583  0.36701372  1.0
  Ni  Ni1693  1  0.33151400  0.45759917  0.36701372  1.0
  Ni  Ni1694  1  0.33151400  0.79093250  0.36701372  1.0
  Ni  Ni1695  1  0.66484733  0.12426583  0.36701372  1.0
  Ni  Ni1696  1  0.66484733  0.45759917  0.36701372  1.0
  Ni  Ni1697  1  0.66484733  0.79093250  0.36701372  1.0
  Ni  Ni1698  1  0.99818067  0.12426583  0.36701372  1.0
  Ni  Ni1699  1  0.99818067  0.45759917  0.36701372  1.0
  Ni  Ni1700  1  0.99818067  0.79093250  0.36701372  1.0
  Ni  Ni1701  1  0.33151400  0.29093250  0.42256928  1.0
  Ni  Ni1702  1  0.33151400  0.62426583  0.42256928  1.0
  Ni  Ni1703  1  0.33151400  0.95759917  0.42256928  1.0
  Ni  Ni1704  1  0.66484733  0.29093250  0.42256928  1.0
  Ni  Ni1705  1  0.66484733  0.62426583  0.42256928  1.0
  Ni  Ni1706  1  0.66484733  0.95759917  0.42256928  1.0
  Ni  Ni1707  1  0.99818067  0.29093250  0.42256928  1.0
  Ni  Ni1708  1  0.99818067  0.62426583  0.42256928  1.0
  Ni  Ni1709  1  0.99818067  0.95759917  0.42256928  1.0
  Ni  Ni1710  1  0.33284700  0.04240083  0.33972539  1.0
  Ni  Ni1711  1  0.33284700  0.37573417  0.33972539  1.0
  Ni  Ni1712  1  0.33284700  0.70906750  0.33972539  1.0
  Ni  Ni1713  1  0.66618033  0.04240083  0.33972539  1.0
  Ni  Ni1714  1  0.66618033  0.37573417  0.33972539  1.0
  Ni  Ni1715  1  0.66618033  0.70906750  0.33972539  1.0
  Ni  Ni1716  1  0.99951367  0.04240083  0.33972539  1.0
  Ni  Ni1717  1  0.99951367  0.37573417  0.33972539  1.0
  Ni  Ni1718  1  0.99951367  0.70906750  0.33972539  1.0
  Ni  Ni1719  1  0.33284700  0.20906750  0.39528094  1.0
  Ni  Ni1720  1  0.33284700  0.54240083  0.39528094  1.0
  Ni  Ni1721  1  0.33284700  0.87573417  0.39528094  1.0
  Ni  Ni1722  1  0.66618033  0.20906750  0.39528094  1.0
  Ni  Ni1723  1  0.66618033  0.54240083  0.39528094  1.0
  Ni  Ni1724  1  0.66618033  0.87573417  0.39528094  1.0
  Ni  Ni1725  1  0.99951367  0.20906750  0.39528094  1.0
  Ni  Ni1726  1  0.99951367  0.54240083  0.39528094  1.0
  Ni  Ni1727  1  0.99951367  0.87573417  0.39528094  1.0
  Ni  Ni1728  1  0.11222733  0.12462183  0.36840761  1.0
  Ni  Ni1729  1  0.11222733  0.45795517  0.36840761  1.0
  Ni  Ni1730  1  0.11222733  0.79128850  0.36840761  1.0
  Ni  Ni1731  1  0.44556067  0.12462183  0.36840761  1.0
  Ni  Ni1732  1  0.44556067  0.45795517  0.36840761  1.0
  Ni  Ni1733  1  0.44556067  0.79128850  0.36840761  1.0
  Ni  Ni1734  1  0.77889400  0.12462183  0.36840761  1.0
  Ni  Ni1735  1  0.77889400  0.45795517  0.36840761  1.0
  Ni  Ni1736  1  0.77889400  0.79128850  0.36840761  1.0
  Ni  Ni1737  1  0.11222733  0.29128850  0.42396317  1.0
  Ni  Ni1738  1  0.11222733  0.62462183  0.42396317  1.0
  Ni  Ni1739  1  0.11222733  0.95795517  0.42396317  1.0
  Ni  Ni1740  1  0.44556067  0.29128850  0.42396317  1.0
  Ni  Ni1741  1  0.44556067  0.62462183  0.42396317  1.0
  Ni  Ni1742  1  0.44556067  0.95795517  0.42396317  1.0
  Ni  Ni1743  1  0.77889400  0.29128850  0.42396317  1.0
  Ni  Ni1744  1  0.77889400  0.62462183  0.42396317  1.0
  Ni  Ni1745  1  0.77889400  0.95795517  0.42396317  1.0
  Ni  Ni1746  1  0.22262600  0.04204483  0.34088194  1.0
  Ni  Ni1747  1  0.22262600  0.37537817  0.34088194  1.0
  Ni  Ni1748  1  0.22262600  0.70871150  0.34088194  1.0
  Ni  Ni1749  1  0.55595933  0.04204483  0.34088194  1.0
  Ni  Ni1750  1  0.55595933  0.37537817  0.34088194  1.0
  Ni  Ni1751  1  0.55595933  0.70871150  0.34088194  1.0
  Ni  Ni1752  1  0.88929267  0.04204483  0.34088194  1.0
  Ni  Ni1753  1  0.88929267  0.37537817  0.34088194  1.0
  Ni  Ni1754  1  0.88929267  0.70871150  0.34088194  1.0
  Ni  Ni1755  1  0.22262600  0.20871150  0.39643750  1.0
  Ni  Ni1756  1  0.22262600  0.54204483  0.39643750  1.0
  Ni  Ni1757  1  0.22262600  0.87537817  0.39643750  1.0
  Ni  Ni1758  1  0.55595933  0.20871150  0.39643750  1.0
  Ni  Ni1759  1  0.55595933  0.54204483  0.39643750  1.0
  Ni  Ni1760  1  0.55595933  0.87537817  0.39643750  1.0
  Ni  Ni1761  1  0.88929267  0.20871150  0.39643750  1.0
  Ni  Ni1762  1  0.88929267  0.54204483  0.39643750  1.0
  Ni  Ni1763  1  0.88929267  0.87537817  0.39643750  1.0
  Ni  Ni1764  1  0.22049067  0.16606200  0.34383389  1.0
  Ni  Ni1765  1  0.22049067  0.49939533  0.34383389  1.0
  Ni  Ni1766  1  0.22049067  0.83272867  0.34383389  1.0
  Ni  Ni1767  1  0.55382400  0.16606200  0.34383389  1.0
  Ni  Ni1768  1  0.55382400  0.49939533  0.34383389  1.0
  Ni  Ni1769  1  0.55382400  0.83272867  0.34383389  1.0
  Ni  Ni1770  1  0.88715733  0.16606200  0.34383389  1.0
  Ni  Ni1771  1  0.88715733  0.49939533  0.34383389  1.0
  Ni  Ni1772  1  0.88715733  0.83272867  0.34383389  1.0
  Ni  Ni1773  1  0.22049067  0.33272867  0.39938944  1.0
  Ni  Ni1774  1  0.22049067  0.66606200  0.39938944  1.0
  Ni  Ni1775  1  0.22049067  0.99939533  0.39938944  1.0
  Ni  Ni1776  1  0.55382400  0.33272867  0.39938944  1.0
  Ni  Ni1777  1  0.55382400  0.66606200  0.39938944  1.0
  Ni  Ni1778  1  0.55382400  0.99939533  0.39938944  1.0
  Ni  Ni1779  1  0.88715733  0.33272867  0.39938944  1.0
  Ni  Ni1780  1  0.88715733  0.66606200  0.39938944  1.0
  Ni  Ni1781  1  0.88715733  0.99939533  0.39938944  1.0
  Ni  Ni1782  1  0.33253467  0.00060467  0.39979256  1.0
  Ni  Ni1783  1  0.33253467  0.33393800  0.39979256  1.0
  Ni  Ni1784  1  0.33253467  0.66727133  0.39979256  1.0
  Ni  Ni1785  1  0.66586800  0.00060467  0.39979256  1.0
  Ni  Ni1786  1  0.66586800  0.33393800  0.39979256  1.0
  Ni  Ni1787  1  0.66586800  0.66727133  0.39979256  1.0
  Ni  Ni1788  1  0.99920133  0.00060467  0.39979256  1.0
  Ni  Ni1789  1  0.99920133  0.33393800  0.39979256  1.0
  Ni  Ni1790  1  0.99920133  0.66727133  0.39979256  1.0
  Ni  Ni1791  1  0.33253467  0.16727133  0.34423700  1.0
  Ni  Ni1792  1  0.33253467  0.50060467  0.34423700  1.0
  Ni  Ni1793  1  0.33253467  0.83393800  0.34423700  1.0
  Ni  Ni1794  1  0.66586800  0.16727133  0.34423700  1.0
  Ni  Ni1795  1  0.66586800  0.50060467  0.34423700  1.0
  Ni  Ni1796  1  0.66586800  0.83393800  0.34423700  1.0
  Ni  Ni1797  1  0.99920133  0.16727133  0.34423700  1.0
  Ni  Ni1798  1  0.99920133  0.50060467  0.34423700  1.0
  Ni  Ni1799  1  0.99920133  0.83393800  0.34423700  1.0
  Ni  Ni1800  1  0.11114933  0.14570750  0.41361194  1.0
  Ni  Ni1801  1  0.11114933  0.47904083  0.41361194  1.0
  Ni  Ni1802  1  0.11114933  0.81237417  0.41361194  1.0
  Ni  Ni1803  1  0.44448267  0.14570750  0.41361194  1.0
  Ni  Ni1804  1  0.44448267  0.47904083  0.41361194  1.0
  Ni  Ni1805  1  0.44448267  0.81237417  0.41361194  1.0
  Ni  Ni1806  1  0.77781600  0.14570750  0.41361194  1.0
  Ni  Ni1807  1  0.77781600  0.47904083  0.41361194  1.0
  Ni  Ni1808  1  0.77781600  0.81237417  0.41361194  1.0
  Ni  Ni1809  1  0.11114933  0.31237417  0.35805639  1.0
  Ni  Ni1810  1  0.11114933  0.64570750  0.35805639  1.0
  Ni  Ni1811  1  0.11114933  0.97904083  0.35805639  1.0
  Ni  Ni1812  1  0.44448267  0.31237417  0.35805639  1.0
  Ni  Ni1813  1  0.44448267  0.64570750  0.35805639  1.0
  Ni  Ni1814  1  0.44448267  0.97904083  0.35805639  1.0
  Ni  Ni1815  1  0.77781600  0.31237417  0.35805639  1.0
  Ni  Ni1816  1  0.77781600  0.64570750  0.35805639  1.0
  Ni  Ni1817  1  0.77781600  0.97904083  0.35805639  1.0
  Ni  Ni1818  1  0.00489800  0.02095917  0.37202917  1.0
  Ni  Ni1819  1  0.00489800  0.35429250  0.37202917  1.0
  Ni  Ni1820  1  0.00489800  0.68762583  0.37202917  1.0
  Ni  Ni1821  1  0.33823133  0.02095917  0.37202917  1.0
  Ni  Ni1822  1  0.33823133  0.35429250  0.37202917  1.0
  Ni  Ni1823  1  0.33823133  0.68762583  0.37202917  1.0
  Ni  Ni1824  1  0.67156467  0.02095917  0.37202917  1.0
  Ni  Ni1825  1  0.67156467  0.35429250  0.37202917  1.0
  Ni  Ni1826  1  0.67156467  0.68762583  0.37202917  1.0
  Ni  Ni1827  1  0.00489800  0.18762583  0.42758472  1.0
  Ni  Ni1828  1  0.00489800  0.52095917  0.42758472  1.0
  Ni  Ni1829  1  0.00489800  0.85429250  0.42758472  1.0
  Ni  Ni1830  1  0.33823133  0.18762583  0.42758472  1.0
  Ni  Ni1831  1  0.33823133  0.52095917  0.42758472  1.0
  Ni  Ni1832  1  0.33823133  0.85429250  0.42758472  1.0
  Ni  Ni1833  1  0.67156467  0.18762583  0.42758472  1.0
  Ni  Ni1834  1  0.67156467  0.52095917  0.42758472  1.0
  Ni  Ni1835  1  0.67156467  0.85429250  0.42758472  1.0
  Ni  Ni1836  1  0.11317033  0.10382600  0.39886622  1.0
  Ni  Ni1837  1  0.11317033  0.43715933  0.39886622  1.0
  Ni  Ni1838  1  0.11317033  0.77049267  0.39886622  1.0
  Ni  Ni1839  1  0.44650367  0.10382600  0.39886622  1.0
  Ni  Ni1840  1  0.44650367  0.43715933  0.39886622  1.0
  Ni  Ni1841  1  0.44650367  0.77049267  0.39886622  1.0
  Ni  Ni1842  1  0.77983700  0.10382600  0.39886622  1.0
  Ni  Ni1843  1  0.77983700  0.43715933  0.39886622  1.0
  Ni  Ni1844  1  0.77983700  0.77049267  0.39886622  1.0
  Ni  Ni1845  1  0.11317033  0.27049267  0.34331067  1.0
  Ni  Ni1846  1  0.11317033  0.60382600  0.34331067  1.0
  Ni  Ni1847  1  0.11317033  0.93715933  0.34331067  1.0
  Ni  Ni1848  1  0.44650367  0.27049267  0.34331067  1.0
  Ni  Ni1849  1  0.44650367  0.60382600  0.34331067  1.0
  Ni  Ni1850  1  0.44650367  0.93715933  0.34331067  1.0
  Ni  Ni1851  1  0.77983700  0.27049267  0.34331067  1.0
  Ni  Ni1852  1  0.77983700  0.60382600  0.34331067  1.0
  Ni  Ni1853  1  0.77983700  0.93715933  0.34331067  1.0
  Ni  Ni1854  1  0.00052133  0.06284067  0.38520444  1.0
  Ni  Ni1855  1  0.00052133  0.39617400  0.38520444  1.0
  Ni  Ni1856  1  0.00052133  0.72950733  0.38520444  1.0
  Ni  Ni1857  1  0.33385467  0.06284067  0.38520444  1.0
  Ni  Ni1858  1  0.33385467  0.39617400  0.38520444  1.0
  Ni  Ni1859  1  0.33385467  0.72950733  0.38520444  1.0
  Ni  Ni1860  1  0.66718800  0.06284067  0.38520444  1.0
  Ni  Ni1861  1  0.66718800  0.39617400  0.38520444  1.0
  Ni  Ni1862  1  0.66718800  0.72950733  0.38520444  1.0
  Ni  Ni1863  1  0.00052133  0.22950733  0.44076000  1.0
  Ni  Ni1864  1  0.00052133  0.56284067  0.44076000  1.0
  Ni  Ni1865  1  0.00052133  0.89617400  0.44076000  1.0
  Ni  Ni1866  1  0.33385467  0.22950733  0.44076000  1.0
  Ni  Ni1867  1  0.33385467  0.56284067  0.44076000  1.0
  Ni  Ni1868  1  0.33385467  0.89617400  0.44076000  1.0
  Ni  Ni1869  1  0.66718800  0.22950733  0.44076000  1.0
  Ni  Ni1870  1  0.66718800  0.56284067  0.44076000  1.0
  Ni  Ni1871  1  0.66718800  0.89617400  0.44076000  1.0
  Ni  Ni1872  1  0.11168200  0.06269650  0.38238117  1.0
  Ni  Ni1873  1  0.11168200  0.39602983  0.38238117  1.0
  Ni  Ni1874  1  0.11168200  0.72936317  0.38238117  1.0
  Ni  Ni1875  1  0.44501533  0.06269650  0.38238117  1.0
  Ni  Ni1876  1  0.44501533  0.39602983  0.38238117  1.0
  Ni  Ni1877  1  0.44501533  0.72936317  0.38238117  1.0
  Ni  Ni1878  1  0.77834867  0.06269650  0.38238117  1.0
  Ni  Ni1879  1  0.77834867  0.39602983  0.38238117  1.0
  Ni  Ni1880  1  0.77834867  0.72936317  0.38238117  1.0
  Ni  Ni1881  1  0.11168200  0.22936317  0.43793672  1.0
  Ni  Ni1882  1  0.11168200  0.56269650  0.43793672  1.0
  Ni  Ni1883  1  0.11168200  0.89602983  0.43793672  1.0
  Ni  Ni1884  1  0.44501533  0.22936317  0.43793672  1.0
  Ni  Ni1885  1  0.44501533  0.56269650  0.43793672  1.0
  Ni  Ni1886  1  0.44501533  0.89602983  0.43793672  1.0
  Ni  Ni1887  1  0.77834867  0.22936317  0.43793672  1.0
  Ni  Ni1888  1  0.77834867  0.56269650  0.43793672  1.0
  Ni  Ni1889  1  0.77834867  0.89602983  0.43793672  1.0
  Ni  Ni1890  1  0.32701733  0.10397017  0.39613906  1.0
  Ni  Ni1891  1  0.32701733  0.43730350  0.39613906  1.0
  Ni  Ni1892  1  0.32701733  0.77063683  0.39613906  1.0
  Ni  Ni1893  1  0.66035067  0.10397017  0.39613906  1.0
  Ni  Ni1894  1  0.66035067  0.43730350  0.39613906  1.0
  Ni  Ni1895  1  0.66035067  0.77063683  0.39613906  1.0
  Ni  Ni1896  1  0.99368400  0.10397017  0.39613906  1.0
  Ni  Ni1897  1  0.99368400  0.43730350  0.39613906  1.0
  Ni  Ni1898  1  0.99368400  0.77063683  0.39613906  1.0
  Ni  Ni1899  1  0.32701733  0.27063683  0.34058350  1.0
  Ni  Ni1900  1  0.32701733  0.60397017  0.34058350  1.0
  Ni  Ni1901  1  0.32701733  0.93730350  0.34058350  1.0
  Ni  Ni1902  1  0.66035067  0.27063683  0.34058350  1.0
  Ni  Ni1903  1  0.66035067  0.60397017  0.34058350  1.0
  Ni  Ni1904  1  0.66035067  0.93730350  0.34058350  1.0
  Ni  Ni1905  1  0.99368400  0.27063683  0.34058350  1.0
  Ni  Ni1906  1  0.99368400  0.60397017  0.34058350  1.0
  Ni  Ni1907  1  0.99368400  0.93730350  0.34058350  1.0
  Ni  Ni1908  1  0.11022267  0.02096233  0.37035444  1.0
  Ni  Ni1909  1  0.11022267  0.35429567  0.37035444  1.0
  Ni  Ni1910  1  0.11022267  0.68762900  0.37035444  1.0
  Ni  Ni1911  1  0.44355600  0.02096233  0.37035444  1.0
  Ni  Ni1912  1  0.44355600  0.35429567  0.37035444  1.0
  Ni  Ni1913  1  0.44355600  0.68762900  0.37035444  1.0
  Ni  Ni1914  1  0.77688933  0.02096233  0.37035444  1.0
  Ni  Ni1915  1  0.77688933  0.35429567  0.37035444  1.0
  Ni  Ni1916  1  0.77688933  0.68762900  0.37035444  1.0
  Ni  Ni1917  1  0.11022267  0.18762900  0.42591000  1.0
  Ni  Ni1918  1  0.11022267  0.52096233  0.42591000  1.0
  Ni  Ni1919  1  0.11022267  0.85429567  0.42591000  1.0
  Ni  Ni1920  1  0.44355600  0.18762900  0.42591000  1.0
  Ni  Ni1921  1  0.44355600  0.52096233  0.42591000  1.0
  Ni  Ni1922  1  0.44355600  0.85429567  0.42591000  1.0
  Ni  Ni1923  1  0.77688933  0.18762900  0.42591000  1.0
  Ni  Ni1924  1  0.77688933  0.52096233  0.42591000  1.0
  Ni  Ni1925  1  0.77688933  0.85429567  0.42591000  1.0
  Ni  Ni1926  1  0.00079733  0.14570433  0.41193511  1.0
  Ni  Ni1927  1  0.00079733  0.47903767  0.41193511  1.0
  Ni  Ni1928  1  0.00079733  0.81237100  0.41193511  1.0
  Ni  Ni1929  1  0.33413067  0.14570433  0.41193511  1.0
  Ni  Ni1930  1  0.33413067  0.47903767  0.41193511  1.0
  Ni  Ni1931  1  0.33413067  0.81237100  0.41193511  1.0
  Ni  Ni1932  1  0.66746400  0.14570433  0.41193511  1.0
  Ni  Ni1933  1  0.66746400  0.47903767  0.41193511  1.0
  Ni  Ni1934  1  0.66746400  0.81237100  0.41193511  1.0
  Ni  Ni1935  1  0.00079733  0.31237100  0.35637956  1.0
  Ni  Ni1936  1  0.00079733  0.64570433  0.35637956  1.0
  Ni  Ni1937  1  0.00079733  0.97903767  0.35637956  1.0
  Ni  Ni1938  1  0.33413067  0.31237100  0.35637956  1.0
  Ni  Ni1939  1  0.33413067  0.64570433  0.35637956  1.0
  Ni  Ni1940  1  0.33413067  0.97903767  0.35637956  1.0
  Ni  Ni1941  1  0.66746400  0.31237100  0.35637956  1.0
  Ni  Ni1942  1  0.66746400  0.64570433  0.35637956  1.0
  Ni  Ni1943  1  0.66746400  0.97903767  0.35637956  1.0
  Ni  Ni1944  1  0.22004200  0.14569217  0.40923628  1.0
  Ni  Ni1945  1  0.22004200  0.47902550  0.40923628  1.0
  Ni  Ni1946  1  0.22004200  0.81235883  0.40923628  1.0
  Ni  Ni1947  1  0.55337533  0.14569217  0.40923628  1.0
  Ni  Ni1948  1  0.55337533  0.47902550  0.40923628  1.0
  Ni  Ni1949  1  0.55337533  0.81235883  0.40923628  1.0
  Ni  Ni1950  1  0.88670867  0.14569217  0.40923628  1.0
  Ni  Ni1951  1  0.88670867  0.47902550  0.40923628  1.0
  Ni  Ni1952  1  0.88670867  0.81235883  0.40923628  1.0
  Ni  Ni1953  1  0.22004200  0.31235883  0.35368072  1.0
  Ni  Ni1954  1  0.22004200  0.64569217  0.35368072  1.0
  Ni  Ni1955  1  0.22004200  0.97902550  0.35368072  1.0
  Ni  Ni1956  1  0.55337533  0.31235883  0.35368072  1.0
  Ni  Ni1957  1  0.55337533  0.64569217  0.35368072  1.0
  Ni  Ni1958  1  0.55337533  0.97902550  0.35368072  1.0
  Ni  Ni1959  1  0.88670867  0.31235883  0.35368072  1.0
  Ni  Ni1960  1  0.88670867  0.64569217  0.35368072  1.0
  Ni  Ni1961  1  0.88670867  0.97902550  0.35368072  1.0
  Ni  Ni1962  1  0.21622700  0.02097450  0.36766372  1.0
  Ni  Ni1963  1  0.21622700  0.35430783  0.36766372  1.0
  Ni  Ni1964  1  0.21622700  0.68764117  0.36766372  1.0
  Ni  Ni1965  1  0.54956033  0.02097450  0.36766372  1.0
  Ni  Ni1966  1  0.54956033  0.35430783  0.36766372  1.0
  Ni  Ni1967  1  0.54956033  0.68764117  0.36766372  1.0
  Ni  Ni1968  1  0.88289367  0.02097450  0.36766372  1.0
  Ni  Ni1969  1  0.88289367  0.35430783  0.36766372  1.0
  Ni  Ni1970  1  0.88289367  0.68764117  0.36766372  1.0
  Ni  Ni1971  1  0.21622700  0.18764117  0.42321928  1.0
  Ni  Ni1972  1  0.21622700  0.52097450  0.42321928  1.0
  Ni  Ni1973  1  0.21622700  0.85430783  0.42321928  1.0
  Ni  Ni1974  1  0.54956033  0.18764117  0.42321928  1.0
  Ni  Ni1975  1  0.54956033  0.52097450  0.42321928  1.0
  Ni  Ni1976  1  0.54956033  0.85430783  0.42321928  1.0
  Ni  Ni1977  1  0.88289367  0.18764117  0.42321928  1.0
  Ni  Ni1978  1  0.88289367  0.52097450  0.42321928  1.0
  Ni  Ni1979  1  0.88289367  0.85430783  0.42321928  1.0
  Ni  Ni1980  1  0.22557633  0.10379083  0.39765128  1.0
  Ni  Ni1981  1  0.22557633  0.43712417  0.39765128  1.0
  Ni  Ni1982  1  0.22557633  0.77045750  0.39765128  1.0
  Ni  Ni1983  1  0.55890967  0.10379083  0.39765128  1.0
  Ni  Ni1984  1  0.55890967  0.43712417  0.39765128  1.0
  Ni  Ni1985  1  0.55890967  0.77045750  0.39765128  1.0
  Ni  Ni1986  1  0.89224300  0.10379083  0.39765128  1.0
  Ni  Ni1987  1  0.89224300  0.43712417  0.39765128  1.0
  Ni  Ni1988  1  0.89224300  0.77045750  0.39765128  1.0
  Ni  Ni1989  1  0.22557633  0.27045750  0.34209572  1.0
  Ni  Ni1990  1  0.22557633  0.60379083  0.34209572  1.0
  Ni  Ni1991  1  0.22557633  0.93712417  0.34209572  1.0
  Ni  Ni1992  1  0.55890967  0.27045750  0.34209572  1.0
  Ni  Ni1993  1  0.55890967  0.60379083  0.34209572  1.0
  Ni  Ni1994  1  0.55890967  0.93712417  0.34209572  1.0
  Ni  Ni1995  1  0.89224300  0.27045750  0.34209572  1.0
  Ni  Ni1996  1  0.89224300  0.60379083  0.34209572  1.0
  Ni  Ni1997  1  0.89224300  0.93712417  0.34209572  1.0
  Ni  Ni1998  1  0.21783900  0.06287583  0.38401294  1.0
  Ni  Ni1999  1  0.21783900  0.39620917  0.38401294  1.0
  Ni  Ni2000  1  0.21783900  0.72954250  0.38401294  1.0
  Ni  Ni2001  1  0.55117233  0.06287583  0.38401294  1.0
  Ni  Ni2002  1  0.55117233  0.39620917  0.38401294  1.0
  Ni  Ni2003  1  0.55117233  0.72954250  0.38401294  1.0
  Ni  Ni2004  1  0.88450567  0.06287583  0.38401294  1.0
  Ni  Ni2005  1  0.88450567  0.39620917  0.38401294  1.0
  Ni  Ni2006  1  0.88450567  0.72954250  0.38401294  1.0
  Ni  Ni2007  1  0.21783900  0.22954250  0.43956850  1.0
  Ni  Ni2008  1  0.21783900  0.56287583  0.43956850  1.0
  Ni  Ni2009  1  0.21783900  0.89620917  0.43956850  1.0
  Ni  Ni2010  1  0.55117233  0.22954250  0.43956850  1.0
  Ni  Ni2011  1  0.55117233  0.56287583  0.43956850  1.0
  Ni  Ni2012  1  0.55117233  0.89620917  0.43956850  1.0
  Ni  Ni2013  1  0.88450567  0.22954250  0.43956850  1.0
  Ni  Ni2014  1  0.88450567  0.56287583  0.43956850  1.0
  Ni  Ni2015  1  0.88450567  0.89620917  0.43956850  1.0
  Ge  Ge2016  1  0.00857433  0.00000000  0.44318767  1.0
  Ge  Ge2017  1  0.00857433  0.33333333  0.44318767  1.0
  Ge  Ge2018  1  0.00857433  0.66666667  0.44318767  1.0
  Ge  Ge2019  1  0.34190767  0.00000000  0.44318767  1.0
  Ge  Ge2020  1  0.34190767  0.33333333  0.44318767  1.0
  Ge  Ge2021  1  0.34190767  0.66666667  0.44318767  1.0
  Ge  Ge2022  1  0.67524100  0.00000000  0.44318767  1.0
  Ge  Ge2023  1  0.67524100  0.33333333  0.44318767  1.0
  Ge  Ge2024  1  0.67524100  0.66666667  0.44318767  1.0
  Ge  Ge2025  1  0.00857433  0.16666667  0.38763211  1.0
  Ge  Ge2026  1  0.00857433  0.50000000  0.38763211  1.0
  Ge  Ge2027  1  0.00857433  0.83333333  0.38763211  1.0
  Ge  Ge2028  1  0.34190767  0.16666667  0.38763211  1.0
  Ge  Ge2029  1  0.34190767  0.50000000  0.38763211  1.0
  Ge  Ge2030  1  0.34190767  0.83333333  0.38763211  1.0
  Ge  Ge2031  1  0.67524100  0.16666667  0.38763211  1.0
  Ge  Ge2032  1  0.67524100  0.50000000  0.38763211  1.0
  Ge  Ge2033  1  0.67524100  0.83333333  0.38763211  1.0
  Ge  Ge2034  1  0.32574633  0.08333333  0.34908011  1.0
  Ge  Ge2035  1  0.32574633  0.41666667  0.34908011  1.0
  Ge  Ge2036  1  0.32574633  0.75000000  0.34908011  1.0
  Ge  Ge2037  1  0.65907967  0.08333333  0.34908011  1.0
  Ge  Ge2038  1  0.65907967  0.41666667  0.34908011  1.0
  Ge  Ge2039  1  0.65907967  0.75000000  0.34908011  1.0
  Ge  Ge2040  1  0.99241300  0.08333333  0.34908011  1.0
  Ge  Ge2041  1  0.99241300  0.41666667  0.34908011  1.0
  Ge  Ge2042  1  0.99241300  0.75000000  0.34908011  1.0
  Ge  Ge2043  1  0.32574633  0.25000000  0.40463567  1.0
  Ge  Ge2044  1  0.32574633  0.58333333  0.40463567  1.0
  Ge  Ge2045  1  0.32574633  0.91666667  0.40463567  1.0
  Ge  Ge2046  1  0.65907967  0.25000000  0.40463567  1.0
  Ge  Ge2047  1  0.65907967  0.58333333  0.40463567  1.0
  Ge  Ge2048  1  0.65907967  0.91666667  0.40463567  1.0
  Ge  Ge2049  1  0.99241300  0.25000000  0.40463567  1.0
  Ge  Ge2050  1  0.99241300  0.58333333  0.40463567  1.0
  Ge  Ge2051  1  0.99241300  0.91666667  0.40463567  1.0
  Ge  Ge2052  1  0.12086700  0.12458433  0.33393400  1.0
  Ge  Ge2053  1  0.12086700  0.45791767  0.33393400  1.0
  Ge  Ge2054  1  0.12086700  0.79125100  0.33393400  1.0
  Ge  Ge2055  1  0.45420033  0.12458433  0.33393400  1.0
  Ge  Ge2056  1  0.45420033  0.45791767  0.33393400  1.0
  Ge  Ge2057  1  0.45420033  0.79125100  0.33393400  1.0
  Ge  Ge2058  1  0.78753367  0.12458433  0.33393400  1.0
  Ge  Ge2059  1  0.78753367  0.45791767  0.33393400  1.0
  Ge  Ge2060  1  0.78753367  0.79125100  0.33393400  1.0
  Ge  Ge2061  1  0.12086700  0.29125100  0.38948956  1.0
  Ge  Ge2062  1  0.12086700  0.62458433  0.38948956  1.0
  Ge  Ge2063  1  0.12086700  0.95791767  0.38948956  1.0
  Ge  Ge2064  1  0.45420033  0.29125100  0.38948956  1.0
  Ge  Ge2065  1  0.45420033  0.62458433  0.38948956  1.0
  Ge  Ge2066  1  0.45420033  0.95791767  0.38948956  1.0
  Ge  Ge2067  1  0.78753367  0.29125100  0.38948956  1.0
  Ge  Ge2068  1  0.78753367  0.62458433  0.38948956  1.0
  Ge  Ge2069  1  0.78753367  0.95791767  0.38948956  1.0
  Ge  Ge2070  1  0.11060300  0.04208233  0.41754444  1.0
  Ge  Ge2071  1  0.11060300  0.37541567  0.41754444  1.0
  Ge  Ge2072  1  0.11060300  0.70874900  0.41754444  1.0
  Ge  Ge2073  1  0.44393633  0.04208233  0.41754444  1.0
  Ge  Ge2074  1  0.44393633  0.37541567  0.41754444  1.0
  Ge  Ge2075  1  0.44393633  0.70874900  0.41754444  1.0
  Ge  Ge2076  1  0.77726967  0.04208233  0.41754444  1.0
  Ge  Ge2077  1  0.77726967  0.37541567  0.41754444  1.0
  Ge  Ge2078  1  0.77726967  0.70874900  0.41754444  1.0
  Ge  Ge2079  1  0.11060300  0.20874900  0.36198889  1.0
  Ge  Ge2080  1  0.11060300  0.54208233  0.36198889  1.0
  Ge  Ge2081  1  0.11060300  0.87541567  0.36198889  1.0
  Ge  Ge2082  1  0.44393633  0.20874900  0.36198889  1.0
  Ge  Ge2083  1  0.44393633  0.54208233  0.36198889  1.0
  Ge  Ge2084  1  0.44393633  0.87541567  0.36198889  1.0
  Ge  Ge2085  1  0.77726967  0.20874900  0.36198889  1.0
  Ge  Ge2086  1  0.77726967  0.54208233  0.36198889  1.0
  Ge  Ge2087  1  0.77726967  0.87541567  0.36198889  1.0
  Ge  Ge2088  1  0.11047367  0.16628633  0.37765756  1.0
  Ge  Ge2089  1  0.11047367  0.49961967  0.37765756  1.0
  Ge  Ge2090  1  0.11047367  0.83295300  0.37765756  1.0
  Ge  Ge2091  1  0.44380700  0.16628633  0.37765756  1.0
  Ge  Ge2092  1  0.44380700  0.49961967  0.37765756  1.0
  Ge  Ge2093  1  0.44380700  0.83295300  0.37765756  1.0
  Ge  Ge2094  1  0.77714033  0.16628633  0.37765756  1.0
  Ge  Ge2095  1  0.77714033  0.49961967  0.37765756  1.0
  Ge  Ge2096  1  0.77714033  0.83295300  0.37765756  1.0
  Ge  Ge2097  1  0.11047367  0.33295300  0.43321311  1.0
  Ge  Ge2098  1  0.11047367  0.66628633  0.43321311  1.0
  Ge  Ge2099  1  0.11047367  0.99961967  0.43321311  1.0
  Ge  Ge2100  1  0.44380700  0.33295300  0.43321311  1.0
  Ge  Ge2101  1  0.44380700  0.66628633  0.43321311  1.0
  Ge  Ge2102  1  0.44380700  0.99961967  0.43321311  1.0
  Ge  Ge2103  1  0.77714033  0.33295300  0.43321311  1.0
  Ge  Ge2104  1  0.77714033  0.66628633  0.43321311  1.0
  Ge  Ge2105  1  0.77714033  0.99961967  0.43321311  1.0
  Ge  Ge2106  1  0.21046500  0.00038033  0.43346667  1.0
  Ge  Ge2107  1  0.21046500  0.33371367  0.43346667  1.0
  Ge  Ge2108  1  0.21046500  0.66704700  0.43346667  1.0
  Ge  Ge2109  1  0.54379833  0.00038033  0.43346667  1.0
  Ge  Ge2110  1  0.54379833  0.33371367  0.43346667  1.0
  Ge  Ge2111  1  0.54379833  0.66704700  0.43346667  1.0
  Ge  Ge2112  1  0.87713167  0.00038033  0.43346667  1.0
  Ge  Ge2113  1  0.87713167  0.33371367  0.43346667  1.0
  Ge  Ge2114  1  0.87713167  0.66704700  0.43346667  1.0
  Ge  Ge2115  1  0.21046500  0.16704700  0.37791111  1.0
  Ge  Ge2116  1  0.21046500  0.50038033  0.37791111  1.0
  Ge  Ge2117  1  0.21046500  0.83371367  0.37791111  1.0
  Ge  Ge2118  1  0.54379833  0.16704700  0.37791111  1.0
  Ge  Ge2119  1  0.54379833  0.50038033  0.37791111  1.0
  Ge  Ge2120  1  0.54379833  0.83371367  0.37791111  1.0
  Ge  Ge2121  1  0.87713167  0.16704700  0.37791111  1.0
  Ge  Ge2122  1  0.87713167  0.50038033  0.37791111  1.0
  Ge  Ge2123  1  0.87713167  0.83371367  0.37791111  1.0
  Ge  Ge2124  1  0.10957333  0.08367200  0.35524878  1.0
  Ge  Ge2125  1  0.10957333  0.41700533  0.35524878  1.0
  Ge  Ge2126  1  0.10957333  0.75033867  0.35524878  1.0
  Ge  Ge2127  1  0.44290667  0.08367200  0.35524878  1.0
  Ge  Ge2128  1  0.44290667  0.41700533  0.35524878  1.0
  Ge  Ge2129  1  0.44290667  0.75033867  0.35524878  1.0
  Ge  Ge2130  1  0.77624000  0.08367200  0.35524878  1.0
  Ge  Ge2131  1  0.77624000  0.41700533  0.35524878  1.0
  Ge  Ge2132  1  0.77624000  0.75033867  0.35524878  1.0
  Ge  Ge2133  1  0.10957333  0.25033867  0.41080433  1.0
  Ge  Ge2134  1  0.10957333  0.58367200  0.41080433  1.0
  Ge  Ge2135  1  0.10957333  0.91700533  0.41080433  1.0
  Ge  Ge2136  1  0.44290667  0.25033867  0.41080433  1.0
  Ge  Ge2137  1  0.44290667  0.58367200  0.41080433  1.0
  Ge  Ge2138  1  0.44290667  0.91700533  0.41080433  1.0
  Ge  Ge2139  1  0.77624000  0.25033867  0.41080433  1.0
  Ge  Ge2140  1  0.77624000  0.58367200  0.41080433  1.0
  Ge  Ge2141  1  0.77624000  0.91700533  0.41080433  1.0
  Ge  Ge2142  1  0.22675333  0.08299467  0.35502300  1.0
  Ge  Ge2143  1  0.22675333  0.41632800  0.35502300  1.0
  Ge  Ge2144  1  0.22675333  0.74966133  0.35502300  1.0
  Ge  Ge2145  1  0.56008667  0.08299467  0.35502300  1.0
  Ge  Ge2146  1  0.56008667  0.41632800  0.35502300  1.0
  Ge  Ge2147  1  0.56008667  0.74966133  0.35502300  1.0
  Ge  Ge2148  1  0.89342000  0.08299467  0.35502300  1.0
  Ge  Ge2149  1  0.89342000  0.41632800  0.35502300  1.0
  Ge  Ge2150  1  0.89342000  0.74966133  0.35502300  1.0
  Ge  Ge2151  1  0.22675333  0.24966133  0.41057856  1.0
  Ge  Ge2152  1  0.22675333  0.58299467  0.41057856  1.0
  Ge  Ge2153  1  0.22675333  0.91632800  0.41057856  1.0
  Ge  Ge2154  1  0.56008667  0.24966133  0.41057856  1.0
  Ge  Ge2155  1  0.56008667  0.58299467  0.41057856  1.0
  Ge  Ge2156  1  0.56008667  0.91632800  0.41057856  1.0
  Ge  Ge2157  1  0.89342000  0.24966133  0.41057856  1.0
  Ge  Ge2158  1  0.89342000  0.58299467  0.41057856  1.0
  Ge  Ge2159  1  0.89342000  0.91632800  0.41057856  1.0
  Ge  Ge2160  1  0.22143100  0.12462350  0.33458917  1.0
  Ge  Ge2161  1  0.22143100  0.45795683  0.33458917  1.0
  Ge  Ge2162  1  0.22143100  0.79129017  0.33458917  1.0
  Ge  Ge2163  1  0.55476433  0.12462350  0.33458917  1.0
  Ge  Ge2164  1  0.55476433  0.45795683  0.33458917  1.0
  Ge  Ge2165  1  0.55476433  0.79129017  0.33458917  1.0
  Ge  Ge2166  1  0.88809767  0.12462350  0.33458917  1.0
  Ge  Ge2167  1  0.88809767  0.45795683  0.33458917  1.0
  Ge  Ge2168  1  0.88809767  0.79129017  0.33458917  1.0
  Ge  Ge2169  1  0.22143100  0.29129017  0.39014472  1.0
  Ge  Ge2170  1  0.22143100  0.62462350  0.39014472  1.0
  Ge  Ge2171  1  0.22143100  0.95795683  0.39014472  1.0
  Ge  Ge2172  1  0.55476433  0.29129017  0.39014472  1.0
  Ge  Ge2173  1  0.55476433  0.62462350  0.39014472  1.0
  Ge  Ge2174  1  0.55476433  0.95795683  0.39014472  1.0
  Ge  Ge2175  1  0.88809767  0.29129017  0.39014472  1.0
  Ge  Ge2176  1  0.88809767  0.62462350  0.39014472  1.0
  Ge  Ge2177  1  0.88809767  0.95795683  0.39014472  1.0
  Ge  Ge2178  1  0.01196533  0.04204317  0.41817350  1.0
  Ge  Ge2179  1  0.01196533  0.37537650  0.41817350  1.0
  Ge  Ge2180  1  0.01196533  0.70870983  0.41817350  1.0
  Ge  Ge2181  1  0.34529867  0.04204317  0.41817350  1.0
  Ge  Ge2182  1  0.34529867  0.37537650  0.41817350  1.0
  Ge  Ge2183  1  0.34529867  0.70870983  0.41817350  1.0
  Ge  Ge2184  1  0.67863200  0.04204317  0.41817350  1.0
  Ge  Ge2185  1  0.67863200  0.37537650  0.41817350  1.0
  Ge  Ge2186  1  0.67863200  0.70870983  0.41817350  1.0
  Ge  Ge2187  1  0.01196533  0.20870983  0.36261794  1.0
  Ge  Ge2188  1  0.01196533  0.54204317  0.36261794  1.0
  Ge  Ge2189  1  0.01196533  0.87537650  0.36261794  1.0
  Ge  Ge2190  1  0.34529867  0.20870983  0.36261794  1.0
  Ge  Ge2191  1  0.34529867  0.54204317  0.36261794  1.0
  Ge  Ge2192  1  0.34529867  0.87537650  0.36261794  1.0
  Ge  Ge2193  1  0.67863200  0.20870983  0.36261794  1.0
  Ge  Ge2194  1  0.67863200  0.54204317  0.36261794  1.0
  Ge  Ge2195  1  0.67863200  0.87537650  0.36261794  1.0
  Ge  Ge2196  1  0.21212400  0.04133083  0.40768039  1.0
  Ge  Ge2197  1  0.21212400  0.37466417  0.40768039  1.0
  Ge  Ge2198  1  0.21212400  0.70799750  0.40768039  1.0
  Ge  Ge2199  1  0.54545733  0.04133083  0.40768039  1.0
  Ge  Ge2200  1  0.54545733  0.37466417  0.40768039  1.0
  Ge  Ge2201  1  0.54545733  0.70799750  0.40768039  1.0
  Ge  Ge2202  1  0.87879067  0.04133083  0.40768039  1.0
  Ge  Ge2203  1  0.87879067  0.37466417  0.40768039  1.0
  Ge  Ge2204  1  0.87879067  0.70799750  0.40768039  1.0
  Ge  Ge2205  1  0.21212400  0.20799750  0.35212483  1.0
  Ge  Ge2206  1  0.21212400  0.54133083  0.35212483  1.0
  Ge  Ge2207  1  0.21212400  0.87466417  0.35212483  1.0
  Ge  Ge2208  1  0.54545733  0.20799750  0.35212483  1.0
  Ge  Ge2209  1  0.54545733  0.54133083  0.35212483  1.0
  Ge  Ge2210  1  0.54545733  0.87466417  0.35212483  1.0
  Ge  Ge2211  1  0.87879067  0.20799750  0.35212483  1.0
  Ge  Ge2212  1  0.87879067  0.54133083  0.35212483  1.0
  Ge  Ge2213  1  0.87879067  0.87466417  0.35212483  1.0
  Ge  Ge2214  1  0.32383867  0.12533583  0.43568206  1.0
  Ge  Ge2215  1  0.32383867  0.45866917  0.43568206  1.0
  Ge  Ge2216  1  0.32383867  0.79200250  0.43568206  1.0
  Ge  Ge2217  1  0.65717200  0.12533583  0.43568206  1.0
  Ge  Ge2218  1  0.65717200  0.45866917  0.43568206  1.0
  Ge  Ge2219  1  0.65717200  0.79200250  0.43568206  1.0
  Ge  Ge2220  1  0.99050533  0.12533583  0.43568206  1.0
  Ge  Ge2221  1  0.99050533  0.45866917  0.43568206  1.0
  Ge  Ge2222  1  0.99050533  0.79200250  0.43568206  1.0
  Ge  Ge2223  1  0.32383867  0.29200250  0.38012650  1.0
  Ge  Ge2224  1  0.32383867  0.62533583  0.38012650  1.0
  Ge  Ge2225  1  0.32383867  0.95866917  0.38012650  1.0
  Ge  Ge2226  1  0.65717200  0.29200250  0.38012650  1.0
  Ge  Ge2227  1  0.65717200  0.62533583  0.38012650  1.0
  Ge  Ge2228  1  0.65717200  0.95866917  0.38012650  1.0
  Ge  Ge2229  1  0.99050533  0.29200250  0.38012650  1.0
  Ge  Ge2230  1  0.99050533  0.62533583  0.38012650  1.0
  Ge  Ge2231  1  0.99050533  0.95866917  0.38012650  1.0
