# generated using pymatgen
data_Ni19Ge12
_symmetry_space_group_name_H-M   'P 1'
_cell_length_a   30.18952998
_cell_length_b   53.38579095
_cell_length_c   47.05959209
_cell_angle_alpha   139.18485741
_cell_angle_beta   90.05710560
_cell_angle_gamma   89.93527893
_symmetry_Int_Tables_number   1
_chemical_formula_structural   Ni19Ge12
_chemical_formula_sum   'Ni1026 Ge648'
_cell_volume   49574.19445389
_cell_formula_units_Z   54
loop_
 _symmetry_equiv_pos_site_id
 _symmetry_equiv_pos_as_xyz
  1  'x, y, z'
loop_
 _atom_site_type_symbol
 _atom_site_label
 _atom_site_symmetry_multiplicity
 _atom_site_fract_x
 _atom_site_fract_y
 _atom_site_fract_z
 _atom_site_occupancy
  Ni  Ni0  1  0.16666667  0.11189883  0.13648050  1.0
  Ni  Ni1  1  0.16666667  0.44523217  0.13648050  1.0
  Ni  Ni2  1  0.16666667  0.77856550  0.13648050  1.0
  Ni  Ni3  1  0.50000000  0.11189883  0.13648050  1.0
  Ni  Ni4  1  0.50000000  0.44523217  0.13648050  1.0
  Ni  Ni5  1  0.50000000  0.77856550  0.13648050  1.0
  Ni  Ni6  1  0.83333333  0.11189883  0.13648050  1.0
  Ni  Ni7  1  0.83333333  0.44523217  0.13648050  1.0
  Ni  Ni8  1  0.83333333  0.77856550  0.13648050  1.0
  Ni  Ni9  1  0.16666667  0.27856550  0.06505193  1.0
  Ni  Ni10  1  0.16666667  0.61189883  0.06505193  1.0
  Ni  Ni11  1  0.16666667  0.94523217  0.06505193  1.0
  Ni  Ni12  1  0.50000000  0.27856550  0.06505193  1.0
  Ni  Ni13  1  0.50000000  0.61189883  0.06505193  1.0
  Ni  Ni14  1  0.50000000  0.94523217  0.06505193  1.0
  Ni  Ni15  1  0.83333333  0.27856550  0.06505193  1.0
  Ni  Ni16  1  0.83333333  0.61189883  0.06505193  1.0
  Ni  Ni17  1  0.83333333  0.94523217  0.06505193  1.0
  Ni  Ni18  1  0.08480167  0.00090967  0.13606600  1.0
  Ni  Ni19  1  0.08480167  0.33424300  0.13606600  1.0
  Ni  Ni20  1  0.08480167  0.66757633  0.13606600  1.0
  Ni  Ni21  1  0.41813500  0.00090967  0.13606600  1.0
  Ni  Ni22  1  0.41813500  0.33424300  0.13606600  1.0
  Ni  Ni23  1  0.41813500  0.66757633  0.13606600  1.0
  Ni  Ni24  1  0.75146833  0.00090967  0.13606600  1.0
  Ni  Ni25  1  0.75146833  0.33424300  0.13606600  1.0
  Ni  Ni26  1  0.75146833  0.66757633  0.13606600  1.0
  Ni  Ni27  1  0.08480167  0.16757633  0.06463743  1.0
  Ni  Ni28  1  0.08480167  0.50090967  0.06463743  1.0
  Ni  Ni29  1  0.08480167  0.83424300  0.06463743  1.0
  Ni  Ni30  1  0.41813500  0.16757633  0.06463743  1.0
  Ni  Ni31  1  0.41813500  0.50090967  0.06463743  1.0
  Ni  Ni32  1  0.41813500  0.83424300  0.06463743  1.0
  Ni  Ni33  1  0.75146833  0.16757633  0.06463743  1.0
  Ni  Ni34  1  0.75146833  0.50090967  0.06463743  1.0
  Ni  Ni35  1  0.75146833  0.83424300  0.06463743  1.0
  Ni  Ni36  1  0.24853167  0.00024317  0.13635164  1.0
  Ni  Ni37  1  0.24853167  0.33357650  0.13635164  1.0
  Ni  Ni38  1  0.24853167  0.66690983  0.13635164  1.0
  Ni  Ni39  1  0.58186500  0.00024317  0.13635164  1.0
  Ni  Ni40  1  0.58186500  0.33357650  0.13635164  1.0
  Ni  Ni41  1  0.58186500  0.66690983  0.13635164  1.0
  Ni  Ni42  1  0.91519833  0.00024317  0.13635164  1.0
  Ni  Ni43  1  0.91519833  0.33357650  0.13635164  1.0
  Ni  Ni44  1  0.91519833  0.66690983  0.13635164  1.0
  Ni  Ni45  1  0.24853167  0.16690983  0.06492307  1.0
  Ni  Ni46  1  0.24853167  0.50024317  0.06492307  1.0
  Ni  Ni47  1  0.24853167  0.83357650  0.06492307  1.0
  Ni  Ni48  1  0.58186500  0.16690983  0.06492307  1.0
  Ni  Ni49  1  0.58186500  0.50024317  0.06492307  1.0
  Ni  Ni50  1  0.58186500  0.83357650  0.06492307  1.0
  Ni  Ni51  1  0.91519833  0.16690983  0.06492307  1.0
  Ni  Ni52  1  0.91519833  0.50024317  0.06492307  1.0
  Ni  Ni53  1  0.91519833  0.83357650  0.06492307  1.0
  Ni  Ni54  1  0.08408967  0.11055300  0.08743643  1.0
  Ni  Ni55  1  0.08408967  0.44388633  0.08743643  1.0
  Ni  Ni56  1  0.08408967  0.77721967  0.08743643  1.0
  Ni  Ni57  1  0.41742300  0.11055300  0.08743643  1.0
  Ni  Ni58  1  0.41742300  0.44388633  0.08743643  1.0
  Ni  Ni59  1  0.41742300  0.77721967  0.08743643  1.0
  Ni  Ni60  1  0.75075633  0.11055300  0.08743643  1.0
  Ni  Ni61  1  0.75075633  0.44388633  0.08743643  1.0
  Ni  Ni62  1  0.75075633  0.77721967  0.08743643  1.0
  Ni  Ni63  1  0.08408967  0.27721967  0.01600786  1.0
  Ni  Ni64  1  0.08408967  0.61055300  0.01600786  1.0
  Ni  Ni65  1  0.08408967  0.94388633  0.01600786  1.0
  Ni  Ni66  1  0.41742300  0.27721967  0.01600786  1.0
  Ni  Ni67  1  0.41742300  0.61055300  0.01600786  1.0
  Ni  Ni68  1  0.41742300  0.94388633  0.01600786  1.0
  Ni  Ni69  1  0.75075633  0.27721967  0.01600786  1.0
  Ni  Ni70  1  0.75075633  0.61055300  0.01600786  1.0
  Ni  Ni71  1  0.75075633  0.94388633  0.01600786  1.0
  Ni  Ni72  1  0.24924367  0.05535367  0.11109329  1.0
  Ni  Ni73  1  0.24924367  0.38868700  0.11109329  1.0
  Ni  Ni74  1  0.24924367  0.72202033  0.11109329  1.0
  Ni  Ni75  1  0.58257700  0.05535367  0.11109329  1.0
  Ni  Ni76  1  0.58257700  0.38868700  0.11109329  1.0
  Ni  Ni77  1  0.58257700  0.72202033  0.11109329  1.0
  Ni  Ni78  1  0.91591033  0.05535367  0.11109329  1.0
  Ni  Ni79  1  0.91591033  0.38868700  0.11109329  1.0
  Ni  Ni80  1  0.91591033  0.72202033  0.11109329  1.0
  Ni  Ni81  1  0.24924367  0.22202033  0.03966471  1.0
  Ni  Ni82  1  0.24924367  0.55535367  0.03966471  1.0
  Ni  Ni83  1  0.24924367  0.88868700  0.03966471  1.0
  Ni  Ni84  1  0.58257700  0.22202033  0.03966471  1.0
  Ni  Ni85  1  0.58257700  0.55535367  0.03966471  1.0
  Ni  Ni86  1  0.58257700  0.88868700  0.03966471  1.0
  Ni  Ni87  1  0.91591033  0.22202033  0.03966471  1.0
  Ni  Ni88  1  0.91591033  0.55535367  0.03966471  1.0
  Ni  Ni89  1  0.91591033  0.88868700  0.03966471  1.0
  Ni  Ni90  1  0.00120933  0.05642133  0.01713343  1.0
  Ni  Ni91  1  0.00120933  0.38975467  0.01713343  1.0
  Ni  Ni92  1  0.00120933  0.72308800  0.01713343  1.0
  Ni  Ni93  1  0.33454267  0.05642133  0.01713343  1.0
  Ni  Ni94  1  0.33454267  0.38975467  0.01713343  1.0
  Ni  Ni95  1  0.33454267  0.72308800  0.01713343  1.0
  Ni  Ni96  1  0.66787600  0.05642133  0.01713343  1.0
  Ni  Ni97  1  0.66787600  0.38975467  0.01713343  1.0
  Ni  Ni98  1  0.66787600  0.72308800  0.01713343  1.0
  Ni  Ni99  1  0.00120933  0.22308800  0.08856200  1.0
  Ni  Ni100  1  0.00120933  0.55642133  0.08856200  1.0
  Ni  Ni101  1  0.00120933  0.88975467  0.08856200  1.0
  Ni  Ni102  1  0.33454267  0.22308800  0.08856200  1.0
  Ni  Ni103  1  0.33454267  0.55642133  0.08856200  1.0
  Ni  Ni104  1  0.33454267  0.88975467  0.08856200  1.0
  Ni  Ni105  1  0.66787600  0.22308800  0.08856200  1.0
  Ni  Ni106  1  0.66787600  0.55642133  0.08856200  1.0
  Ni  Ni107  1  0.66787600  0.88975467  0.08856200  1.0
  Ni  Ni108  1  0.33212400  0.00039933  0.04114286  1.0
  Ni  Ni109  1  0.33212400  0.33373267  0.04114286  1.0
  Ni  Ni110  1  0.33212400  0.66706600  0.04114286  1.0
  Ni  Ni111  1  0.66545733  0.00039933  0.04114286  1.0
  Ni  Ni112  1  0.66545733  0.33373267  0.04114286  1.0
  Ni  Ni113  1  0.66545733  0.66706600  0.04114286  1.0
  Ni  Ni114  1  0.99879067  0.00039933  0.04114286  1.0
  Ni  Ni115  1  0.99879067  0.33373267  0.04114286  1.0
  Ni  Ni116  1  0.99879067  0.66706600  0.04114286  1.0
  Ni  Ni117  1  0.33212400  0.16706600  0.11257143  1.0
  Ni  Ni118  1  0.33212400  0.50039933  0.11257143  1.0
  Ni  Ni119  1  0.33212400  0.83373267  0.11257143  1.0
  Ni  Ni120  1  0.66545733  0.16706600  0.11257143  1.0
  Ni  Ni121  1  0.66545733  0.50039933  0.11257143  1.0
  Ni  Ni122  1  0.66545733  0.83373267  0.11257143  1.0
  Ni  Ni123  1  0.99879067  0.16706600  0.11257143  1.0
  Ni  Ni124  1  0.99879067  0.50039933  0.11257143  1.0
  Ni  Ni125  1  0.99879067  0.83373267  0.11257143  1.0
  Ni  Ni126  1  0.04191833  0.11109200  0.03812229  1.0
  Ni  Ni127  1  0.04191833  0.44442533  0.03812229  1.0
  Ni  Ni128  1  0.04191833  0.77775867  0.03812229  1.0
  Ni  Ni129  1  0.37525167  0.11109200  0.03812229  1.0
  Ni  Ni130  1  0.37525167  0.44442533  0.03812229  1.0
  Ni  Ni131  1  0.37525167  0.77775867  0.03812229  1.0
  Ni  Ni132  1  0.70858500  0.11109200  0.03812229  1.0
  Ni  Ni133  1  0.70858500  0.44442533  0.03812229  1.0
  Ni  Ni134  1  0.70858500  0.77775867  0.03812229  1.0
  Ni  Ni135  1  0.04191833  0.27775867  0.10955086  1.0
  Ni  Ni136  1  0.04191833  0.61109200  0.10955086  1.0
  Ni  Ni137  1  0.04191833  0.94442533  0.10955086  1.0
  Ni  Ni138  1  0.37525167  0.27775867  0.10955086  1.0
  Ni  Ni139  1  0.37525167  0.61109200  0.10955086  1.0
  Ni  Ni140  1  0.37525167  0.94442533  0.10955086  1.0
  Ni  Ni141  1  0.70858500  0.27775867  0.10955086  1.0
  Ni  Ni142  1  0.70858500  0.61109200  0.10955086  1.0
  Ni  Ni143  1  0.70858500  0.94442533  0.10955086  1.0
  Ni  Ni144  1  0.29141500  0.16421767  0.01535414  1.0
  Ni  Ni145  1  0.29141500  0.49755100  0.01535414  1.0
  Ni  Ni146  1  0.29141500  0.83088433  0.01535414  1.0
  Ni  Ni147  1  0.62474833  0.16421767  0.01535414  1.0
  Ni  Ni148  1  0.62474833  0.49755100  0.01535414  1.0
  Ni  Ni149  1  0.62474833  0.83088433  0.01535414  1.0
  Ni  Ni150  1  0.95808167  0.16421767  0.01535414  1.0
  Ni  Ni151  1  0.95808167  0.49755100  0.01535414  1.0
  Ni  Ni152  1  0.95808167  0.83088433  0.01535414  1.0
  Ni  Ni153  1  0.29141500  0.33088433  0.08678271  1.0
  Ni  Ni154  1  0.29141500  0.66421767  0.08678271  1.0
  Ni  Ni155  1  0.29141500  0.99755100  0.08678271  1.0
  Ni  Ni156  1  0.62474833  0.33088433  0.08678271  1.0
  Ni  Ni157  1  0.62474833  0.66421767  0.08678271  1.0
  Ni  Ni158  1  0.62474833  0.99755100  0.08678271  1.0
  Ni  Ni159  1  0.95808167  0.33088433  0.08678271  1.0
  Ni  Ni160  1  0.95808167  0.66421767  0.08678271  1.0
  Ni  Ni161  1  0.95808167  0.99755100  0.08678271  1.0
  Ni  Ni162  1  0.12568133  0.11008150  0.03956493  1.0
  Ni  Ni163  1  0.12568133  0.44341483  0.03956493  1.0
  Ni  Ni164  1  0.12568133  0.77674817  0.03956493  1.0
  Ni  Ni165  1  0.45901467  0.11008150  0.03956493  1.0
  Ni  Ni166  1  0.45901467  0.44341483  0.03956493  1.0
  Ni  Ni167  1  0.45901467  0.77674817  0.03956493  1.0
  Ni  Ni168  1  0.79234800  0.11008150  0.03956493  1.0
  Ni  Ni169  1  0.79234800  0.44341483  0.03956493  1.0
  Ni  Ni170  1  0.79234800  0.77674817  0.03956493  1.0
  Ni  Ni171  1  0.12568133  0.27674817  0.11099350  1.0
  Ni  Ni172  1  0.12568133  0.61008150  0.11099350  1.0
  Ni  Ni173  1  0.12568133  0.94341483  0.11099350  1.0
  Ni  Ni174  1  0.45901467  0.27674817  0.11099350  1.0
  Ni  Ni175  1  0.45901467  0.61008150  0.11099350  1.0
  Ni  Ni176  1  0.45901467  0.94341483  0.11099350  1.0
  Ni  Ni177  1  0.79234800  0.27674817  0.11099350  1.0
  Ni  Ni178  1  0.79234800  0.61008150  0.11099350  1.0
  Ni  Ni179  1  0.79234800  0.94341483  0.11099350  1.0
  Ni  Ni180  1  0.20765200  0.16640600  0.01542586  1.0
  Ni  Ni181  1  0.20765200  0.49973933  0.01542586  1.0
  Ni  Ni182  1  0.20765200  0.83307267  0.01542586  1.0
  Ni  Ni183  1  0.54098533  0.16640600  0.01542586  1.0
  Ni  Ni184  1  0.54098533  0.49973933  0.01542586  1.0
  Ni  Ni185  1  0.54098533  0.83307267  0.01542586  1.0
  Ni  Ni186  1  0.87431867  0.16640600  0.01542586  1.0
  Ni  Ni187  1  0.87431867  0.49973933  0.01542586  1.0
  Ni  Ni188  1  0.87431867  0.83307267  0.01542586  1.0
  Ni  Ni189  1  0.20765200  0.33307267  0.08685443  1.0
  Ni  Ni190  1  0.20765200  0.66640600  0.08685443  1.0
  Ni  Ni191  1  0.20765200  0.99973933  0.08685443  1.0
  Ni  Ni192  1  0.54098533  0.33307267  0.08685443  1.0
  Ni  Ni193  1  0.54098533  0.66640600  0.08685443  1.0
  Ni  Ni194  1  0.54098533  0.99973933  0.08685443  1.0
  Ni  Ni195  1  0.87431867  0.33307267  0.08685443  1.0
  Ni  Ni196  1  0.87431867  0.66640600  0.08685443  1.0
  Ni  Ni197  1  0.87431867  0.99973933  0.08685443  1.0
  Ni  Ni198  1  0.20794033  0.11082567  0.04281414  1.0
  Ni  Ni199  1  0.20794033  0.44415900  0.04281414  1.0
  Ni  Ni200  1  0.20794033  0.77749233  0.04281414  1.0
  Ni  Ni201  1  0.54127367  0.11082567  0.04281414  1.0
  Ni  Ni202  1  0.54127367  0.44415900  0.04281414  1.0
  Ni  Ni203  1  0.54127367  0.77749233  0.04281414  1.0
  Ni  Ni204  1  0.87460700  0.11082567  0.04281414  1.0
  Ni  Ni205  1  0.87460700  0.44415900  0.04281414  1.0
  Ni  Ni206  1  0.87460700  0.77749233  0.04281414  1.0
  Ni  Ni207  1  0.20794033  0.27749233  0.11424271  1.0
  Ni  Ni208  1  0.20794033  0.61082567  0.11424271  1.0
  Ni  Ni209  1  0.20794033  0.94415900  0.11424271  1.0
  Ni  Ni210  1  0.54127367  0.27749233  0.11424271  1.0
  Ni  Ni211  1  0.54127367  0.61082567  0.11424271  1.0
  Ni  Ni212  1  0.54127367  0.94415900  0.11424271  1.0
  Ni  Ni213  1  0.87460700  0.27749233  0.11424271  1.0
  Ni  Ni214  1  0.87460700  0.61082567  0.11424271  1.0
  Ni  Ni215  1  0.87460700  0.94415900  0.11424271  1.0
  Ni  Ni216  1  0.12539300  0.00315800  0.08895743  1.0
  Ni  Ni217  1  0.12539300  0.33649133  0.08895743  1.0
  Ni  Ni218  1  0.12539300  0.66982467  0.08895743  1.0
  Ni  Ni219  1  0.45872633  0.00315800  0.08895743  1.0
  Ni  Ni220  1  0.45872633  0.33649133  0.08895743  1.0
  Ni  Ni221  1  0.45872633  0.66982467  0.08895743  1.0
  Ni  Ni222  1  0.79205967  0.00315800  0.08895743  1.0
  Ni  Ni223  1  0.79205967  0.33649133  0.08895743  1.0
  Ni  Ni224  1  0.79205967  0.66982467  0.08895743  1.0
  Ni  Ni225  1  0.12539300  0.16982467  0.01752886  1.0
  Ni  Ni226  1  0.12539300  0.50315800  0.01752886  1.0
  Ni  Ni227  1  0.12539300  0.83649133  0.01752886  1.0
  Ni  Ni228  1  0.45872633  0.16982467  0.01752886  1.0
  Ni  Ni229  1  0.45872633  0.50315800  0.01752886  1.0
  Ni  Ni230  1  0.45872633  0.83649133  0.01752886  1.0
  Ni  Ni231  1  0.79205967  0.16982467  0.01752886  1.0
  Ni  Ni232  1  0.79205967  0.50315800  0.01752886  1.0
  Ni  Ni233  1  0.79205967  0.83649133  0.01752886  1.0
  Ni  Ni234  1  0.29140867  0.11155533  0.04007829  1.0
  Ni  Ni235  1  0.29140867  0.44488867  0.04007829  1.0
  Ni  Ni236  1  0.29140867  0.77822200  0.04007829  1.0
  Ni  Ni237  1  0.62474200  0.11155533  0.04007829  1.0
  Ni  Ni238  1  0.62474200  0.44488867  0.04007829  1.0
  Ni  Ni239  1  0.62474200  0.77822200  0.04007829  1.0
  Ni  Ni240  1  0.95807533  0.11155533  0.04007829  1.0
  Ni  Ni241  1  0.95807533  0.44488867  0.04007829  1.0
  Ni  Ni242  1  0.95807533  0.77822200  0.04007829  1.0
  Ni  Ni243  1  0.29140867  0.27822200  0.11150686  1.0
  Ni  Ni244  1  0.29140867  0.61155533  0.11150686  1.0
  Ni  Ni245  1  0.29140867  0.94488867  0.11150686  1.0
  Ni  Ni246  1  0.62474200  0.27822200  0.11150686  1.0
  Ni  Ni247  1  0.62474200  0.61155533  0.11150686  1.0
  Ni  Ni248  1  0.62474200  0.94488867  0.11150686  1.0
  Ni  Ni249  1  0.95807533  0.27822200  0.11150686  1.0
  Ni  Ni250  1  0.95807533  0.61155533  0.11150686  1.0
  Ni  Ni251  1  0.95807533  0.94488867  0.11150686  1.0
  Ni  Ni252  1  0.04192467  0.16626800  0.01663000  1.0
  Ni  Ni253  1  0.04192467  0.49960133  0.01663000  1.0
  Ni  Ni254  1  0.04192467  0.83293467  0.01663000  1.0
  Ni  Ni255  1  0.37525800  0.16626800  0.01663000  1.0
  Ni  Ni256  1  0.37525800  0.49960133  0.01663000  1.0
  Ni  Ni257  1  0.37525800  0.83293467  0.01663000  1.0
  Ni  Ni258  1  0.70859133  0.16626800  0.01663000  1.0
  Ni  Ni259  1  0.70859133  0.49960133  0.01663000  1.0
  Ni  Ni260  1  0.70859133  0.83293467  0.01663000  1.0
  Ni  Ni261  1  0.04192467  0.33293467  0.08805857  1.0
  Ni  Ni262  1  0.04192467  0.66626800  0.08805857  1.0
  Ni  Ni263  1  0.04192467  0.99960133  0.08805857  1.0
  Ni  Ni264  1  0.37525800  0.33293467  0.08805857  1.0
  Ni  Ni265  1  0.37525800  0.66626800  0.08805857  1.0
  Ni  Ni266  1  0.37525800  0.99960133  0.08805857  1.0
  Ni  Ni267  1  0.70859133  0.33293467  0.08805857  1.0
  Ni  Ni268  1  0.70859133  0.66626800  0.08805857  1.0
  Ni  Ni269  1  0.70859133  0.99960133  0.08805857  1.0
  Ni  Ni270  1  0.04194900  0.05664567  0.06707571  1.0
  Ni  Ni271  1  0.04194900  0.38997900  0.06707571  1.0
  Ni  Ni272  1  0.04194900  0.72331233  0.06707571  1.0
  Ni  Ni273  1  0.37528233  0.05664567  0.06707571  1.0
  Ni  Ni274  1  0.37528233  0.38997900  0.06707571  1.0
  Ni  Ni275  1  0.37528233  0.72331233  0.06707571  1.0
  Ni  Ni276  1  0.70861567  0.05664567  0.06707571  1.0
  Ni  Ni277  1  0.70861567  0.38997900  0.06707571  1.0
  Ni  Ni278  1  0.70861567  0.72331233  0.06707571  1.0
  Ni  Ni279  1  0.04194900  0.22331233  0.13850429  1.0
  Ni  Ni280  1  0.04194900  0.55664567  0.13850429  1.0
  Ni  Ni281  1  0.04194900  0.88997900  0.13850429  1.0
  Ni  Ni282  1  0.37528233  0.22331233  0.13850429  1.0
  Ni  Ni283  1  0.37528233  0.55664567  0.13850429  1.0
  Ni  Ni284  1  0.37528233  0.88997900  0.13850429  1.0
  Ni  Ni285  1  0.70861567  0.22331233  0.13850429  1.0
  Ni  Ni286  1  0.70861567  0.55664567  0.13850429  1.0
  Ni  Ni287  1  0.70861567  0.88997900  0.13850429  1.0
  Ni  Ni288  1  0.29138433  0.05855317  0.06625821  1.0
  Ni  Ni289  1  0.29138433  0.39188650  0.06625821  1.0
  Ni  Ni290  1  0.29138433  0.72521983  0.06625821  1.0
  Ni  Ni291  1  0.62471767  0.05855317  0.06625821  1.0
  Ni  Ni292  1  0.62471767  0.39188650  0.06625821  1.0
  Ni  Ni293  1  0.62471767  0.72521983  0.06625821  1.0
  Ni  Ni294  1  0.95805100  0.05855317  0.06625821  1.0
  Ni  Ni295  1  0.95805100  0.39188650  0.06625821  1.0
  Ni  Ni296  1  0.95805100  0.72521983  0.06625821  1.0
  Ni  Ni297  1  0.29138433  0.22521983  0.13768679  1.0
  Ni  Ni298  1  0.29138433  0.55855317  0.13768679  1.0
  Ni  Ni299  1  0.29138433  0.89188650  0.13768679  1.0
  Ni  Ni300  1  0.62471767  0.22521983  0.13768679  1.0
  Ni  Ni301  1  0.62471767  0.55855317  0.13768679  1.0
  Ni  Ni302  1  0.62471767  0.89188650  0.13768679  1.0
  Ni  Ni303  1  0.95805100  0.22521983  0.13768679  1.0
  Ni  Ni304  1  0.95805100  0.55855317  0.13768679  1.0
  Ni  Ni305  1  0.95805100  0.89188650  0.13768679  1.0
  Ni  Ni306  1  0.12575167  0.05387850  0.06519893  1.0
  Ni  Ni307  1  0.12575167  0.38721183  0.06519893  1.0
  Ni  Ni308  1  0.12575167  0.72054517  0.06519893  1.0
  Ni  Ni309  1  0.45908500  0.05387850  0.06519893  1.0
  Ni  Ni310  1  0.45908500  0.38721183  0.06519893  1.0
  Ni  Ni311  1  0.45908500  0.72054517  0.06519893  1.0
  Ni  Ni312  1  0.79241833  0.05387850  0.06519893  1.0
  Ni  Ni313  1  0.79241833  0.38721183  0.06519893  1.0
  Ni  Ni314  1  0.79241833  0.72054517  0.06519893  1.0
  Ni  Ni315  1  0.12575167  0.22054517  0.13662750  1.0
  Ni  Ni316  1  0.12575167  0.55387850  0.13662750  1.0
  Ni  Ni317  1  0.12575167  0.88721183  0.13662750  1.0
  Ni  Ni318  1  0.45908500  0.22054517  0.13662750  1.0
  Ni  Ni319  1  0.45908500  0.55387850  0.13662750  1.0
  Ni  Ni320  1  0.45908500  0.88721183  0.13662750  1.0
  Ni  Ni321  1  0.79241833  0.22054517  0.13662750  1.0
  Ni  Ni322  1  0.79241833  0.55387850  0.13662750  1.0
  Ni  Ni323  1  0.79241833  0.88721183  0.13662750  1.0
  Ni  Ni324  1  0.20758167  0.05774717  0.06354093  1.0
  Ni  Ni325  1  0.20758167  0.39108050  0.06354093  1.0
  Ni  Ni326  1  0.20758167  0.72441383  0.06354093  1.0
  Ni  Ni327  1  0.54091500  0.05774717  0.06354093  1.0
  Ni  Ni328  1  0.54091500  0.39108050  0.06354093  1.0
  Ni  Ni329  1  0.54091500  0.72441383  0.06354093  1.0
  Ni  Ni330  1  0.87424833  0.05774717  0.06354093  1.0
  Ni  Ni331  1  0.87424833  0.39108050  0.06354093  1.0
  Ni  Ni332  1  0.87424833  0.72441383  0.06354093  1.0
  Ni  Ni333  1  0.20758167  0.22441383  0.13496950  1.0
  Ni  Ni334  1  0.20758167  0.55774717  0.13496950  1.0
  Ni  Ni335  1  0.20758167  0.89108050  0.13496950  1.0
  Ni  Ni336  1  0.54091500  0.22441383  0.13496950  1.0
  Ni  Ni337  1  0.54091500  0.55774717  0.13496950  1.0
  Ni  Ni338  1  0.54091500  0.89108050  0.13496950  1.0
  Ni  Ni339  1  0.87424833  0.22441383  0.13496950  1.0
  Ni  Ni340  1  0.87424833  0.55774717  0.13496950  1.0
  Ni  Ni341  1  0.87424833  0.89108050  0.13496950  1.0
  Ge  Ge342  1  0.00000000  0.16237950  0.05852707  1.0
  Ge  Ge343  1  0.00000000  0.49571283  0.05852707  1.0
  Ge  Ge344  1  0.00000000  0.82904617  0.05852707  1.0
  Ge  Ge345  1  0.33333333  0.16237950  0.05852707  1.0
  Ge  Ge346  1  0.33333333  0.49571283  0.05852707  1.0
  Ge  Ge347  1  0.33333333  0.82904617  0.05852707  1.0
  Ge  Ge348  1  0.66666667  0.16237950  0.05852707  1.0
  Ge  Ge349  1  0.66666667  0.49571283  0.05852707  1.0
  Ge  Ge350  1  0.66666667  0.82904617  0.05852707  1.0
  Ge  Ge351  1  0.00000000  0.32904617  0.12995564  1.0
  Ge  Ge352  1  0.00000000  0.66237950  0.12995564  1.0
  Ge  Ge353  1  0.00000000  0.99571283  0.12995564  1.0
  Ge  Ge354  1  0.33333333  0.32904617  0.12995564  1.0
  Ge  Ge355  1  0.33333333  0.66237950  0.12995564  1.0
  Ge  Ge356  1  0.33333333  0.99571283  0.12995564  1.0
  Ge  Ge357  1  0.66666667  0.32904617  0.12995564  1.0
  Ge  Ge358  1  0.66666667  0.66237950  0.12995564  1.0
  Ge  Ge359  1  0.66666667  0.99571283  0.12995564  1.0
  Ge  Ge360  1  0.16666667  0.00379350  0.14034507  1.0
  Ge  Ge361  1  0.16666667  0.33712683  0.14034507  1.0
  Ge  Ge362  1  0.16666667  0.67046017  0.14034507  1.0
  Ge  Ge363  1  0.50000000  0.00379350  0.14034507  1.0
  Ge  Ge364  1  0.50000000  0.33712683  0.14034507  1.0
  Ge  Ge365  1  0.50000000  0.67046017  0.14034507  1.0
  Ge  Ge366  1  0.83333333  0.00379350  0.14034507  1.0
  Ge  Ge367  1  0.83333333  0.33712683  0.14034507  1.0
  Ge  Ge368  1  0.83333333  0.67046017  0.14034507  1.0
  Ge  Ge369  1  0.16666667  0.17046017  0.06891650  1.0
  Ge  Ge370  1  0.16666667  0.50379350  0.06891650  1.0
  Ge  Ge371  1  0.16666667  0.83712683  0.06891650  1.0
  Ge  Ge372  1  0.50000000  0.17046017  0.06891650  1.0
  Ge  Ge373  1  0.50000000  0.50379350  0.06891650  1.0
  Ge  Ge374  1  0.50000000  0.83712683  0.06891650  1.0
  Ge  Ge375  1  0.83333333  0.17046017  0.06891650  1.0
  Ge  Ge376  1  0.83333333  0.50379350  0.06891650  1.0
  Ge  Ge377  1  0.83333333  0.83712683  0.06891650  1.0
  Ge  Ge378  1  0.08416467  0.10623317  0.13359493  1.0
  Ge  Ge379  1  0.08416467  0.43956650  0.13359493  1.0
  Ge  Ge380  1  0.08416467  0.77289983  0.13359493  1.0
  Ge  Ge381  1  0.41749800  0.10623317  0.13359493  1.0
  Ge  Ge382  1  0.41749800  0.43956650  0.13359493  1.0
  Ge  Ge383  1  0.41749800  0.77289983  0.13359493  1.0
  Ge  Ge384  1  0.75083133  0.10623317  0.13359493  1.0
  Ge  Ge385  1  0.75083133  0.43956650  0.13359493  1.0
  Ge  Ge386  1  0.75083133  0.77289983  0.13359493  1.0
  Ge  Ge387  1  0.08416467  0.27289983  0.06216636  1.0
  Ge  Ge388  1  0.08416467  0.60623317  0.06216636  1.0
  Ge  Ge389  1  0.08416467  0.93956650  0.06216636  1.0
  Ge  Ge390  1  0.41749800  0.27289983  0.06216636  1.0
  Ge  Ge391  1  0.41749800  0.60623317  0.06216636  1.0
  Ge  Ge392  1  0.41749800  0.93956650  0.06216636  1.0
  Ge  Ge393  1  0.75083133  0.27289983  0.06216636  1.0
  Ge  Ge394  1  0.75083133  0.60623317  0.06216636  1.0
  Ge  Ge395  1  0.75083133  0.93956650  0.06216636  1.0
  Ge  Ge396  1  0.24916867  0.11136517  0.13139550  1.0
  Ge  Ge397  1  0.24916867  0.44469850  0.13139550  1.0
  Ge  Ge398  1  0.24916867  0.77803183  0.13139550  1.0
  Ge  Ge399  1  0.58250200  0.11136517  0.13139550  1.0
  Ge  Ge400  1  0.58250200  0.44469850  0.13139550  1.0
  Ge  Ge401  1  0.58250200  0.77803183  0.13139550  1.0
  Ge  Ge402  1  0.91583533  0.11136517  0.13139550  1.0
  Ge  Ge403  1  0.91583533  0.44469850  0.13139550  1.0
  Ge  Ge404  1  0.91583533  0.77803183  0.13139550  1.0
  Ge  Ge405  1  0.24916867  0.27803183  0.05996693  1.0
  Ge  Ge406  1  0.24916867  0.61136517  0.05996693  1.0
  Ge  Ge407  1  0.24916867  0.94469850  0.05996693  1.0
  Ge  Ge408  1  0.58250200  0.27803183  0.05996693  1.0
  Ge  Ge409  1  0.58250200  0.61136517  0.05996693  1.0
  Ge  Ge410  1  0.58250200  0.94469850  0.05996693  1.0
  Ge  Ge411  1  0.91583533  0.27803183  0.05996693  1.0
  Ge  Ge412  1  0.91583533  0.61136517  0.05996693  1.0
  Ge  Ge413  1  0.91583533  0.94469850  0.05996693  1.0
  Ge  Ge414  1  0.00076067  0.11142983  0.09302407  1.0
  Ge  Ge415  1  0.00076067  0.44476317  0.09302407  1.0
  Ge  Ge416  1  0.00076067  0.77809650  0.09302407  1.0
  Ge  Ge417  1  0.33409400  0.11142983  0.09302407  1.0
  Ge  Ge418  1  0.33409400  0.44476317  0.09302407  1.0
  Ge  Ge419  1  0.33409400  0.77809650  0.09302407  1.0
  Ge  Ge420  1  0.66742733  0.11142983  0.09302407  1.0
  Ge  Ge421  1  0.66742733  0.44476317  0.09302407  1.0
  Ge  Ge422  1  0.66742733  0.77809650  0.09302407  1.0
  Ge  Ge423  1  0.00076067  0.27809650  0.02159550  1.0
  Ge  Ge424  1  0.00076067  0.61142983  0.02159550  1.0
  Ge  Ge425  1  0.00076067  0.94476317  0.02159550  1.0
  Ge  Ge426  1  0.33409400  0.27809650  0.02159550  1.0
  Ge  Ge427  1  0.33409400  0.61142983  0.02159550  1.0
  Ge  Ge428  1  0.33409400  0.94476317  0.02159550  1.0
  Ge  Ge429  1  0.66742733  0.27809650  0.02159550  1.0
  Ge  Ge430  1  0.66742733  0.61142983  0.02159550  1.0
  Ge  Ge431  1  0.66742733  0.94476317  0.02159550  1.0
  Ge  Ge432  1  0.33257267  0.06143417  0.11445079  1.0
  Ge  Ge433  1  0.33257267  0.39476750  0.11445079  1.0
  Ge  Ge434  1  0.33257267  0.72810083  0.11445079  1.0
  Ge  Ge435  1  0.66590600  0.06143417  0.11445079  1.0
  Ge  Ge436  1  0.66590600  0.39476750  0.11445079  1.0
  Ge  Ge437  1  0.66590600  0.72810083  0.11445079  1.0
  Ge  Ge438  1  0.99923933  0.06143417  0.11445079  1.0
  Ge  Ge439  1  0.99923933  0.39476750  0.11445079  1.0
  Ge  Ge440  1  0.99923933  0.72810083  0.11445079  1.0
  Ge  Ge441  1  0.33257267  0.22810083  0.04302221  1.0
  Ge  Ge442  1  0.33257267  0.56143417  0.04302221  1.0
  Ge  Ge443  1  0.33257267  0.89476750  0.04302221  1.0
  Ge  Ge444  1  0.66590600  0.22810083  0.04302221  1.0
  Ge  Ge445  1  0.66590600  0.56143417  0.04302221  1.0
  Ge  Ge446  1  0.66590600  0.89476750  0.04302221  1.0
  Ge  Ge447  1  0.99923933  0.22810083  0.04302221  1.0
  Ge  Ge448  1  0.99923933  0.56143417  0.04302221  1.0
  Ge  Ge449  1  0.99923933  0.89476750  0.04302221  1.0
  Ge  Ge450  1  0.16598933  0.11188000  0.08623629  1.0
  Ge  Ge451  1  0.16598933  0.44521333  0.08623629  1.0
  Ge  Ge452  1  0.16598933  0.77854667  0.08623629  1.0
  Ge  Ge453  1  0.49932267  0.11188000  0.08623629  1.0
  Ge  Ge454  1  0.49932267  0.44521333  0.08623629  1.0
  Ge  Ge455  1  0.49932267  0.77854667  0.08623629  1.0
  Ge  Ge456  1  0.83265600  0.11188000  0.08623629  1.0
  Ge  Ge457  1  0.83265600  0.44521333  0.08623629  1.0
  Ge  Ge458  1  0.83265600  0.77854667  0.08623629  1.0
  Ge  Ge459  1  0.16598933  0.27854667  0.01480771  1.0
  Ge  Ge460  1  0.16598933  0.61188000  0.01480771  1.0
  Ge  Ge461  1  0.16598933  0.94521333  0.01480771  1.0
  Ge  Ge462  1  0.49932267  0.27854667  0.01480771  1.0
  Ge  Ge463  1  0.49932267  0.61188000  0.01480771  1.0
  Ge  Ge464  1  0.49932267  0.94521333  0.01480771  1.0
  Ge  Ge465  1  0.83265600  0.27854667  0.01480771  1.0
  Ge  Ge466  1  0.83265600  0.61188000  0.01480771  1.0
  Ge  Ge467  1  0.83265600  0.94521333  0.01480771  1.0
  Ge  Ge468  1  0.16734400  0.05329000  0.11134629  1.0
  Ge  Ge469  1  0.16734400  0.38662333  0.11134629  1.0
  Ge  Ge470  1  0.16734400  0.71995667  0.11134629  1.0
  Ge  Ge471  1  0.50067733  0.05329000  0.11134629  1.0
  Ge  Ge472  1  0.50067733  0.38662333  0.11134629  1.0
  Ge  Ge473  1  0.50067733  0.71995667  0.11134629  1.0
  Ge  Ge474  1  0.83401067  0.05329000  0.11134629  1.0
  Ge  Ge475  1  0.83401067  0.38662333  0.11134629  1.0
  Ge  Ge476  1  0.83401067  0.71995667  0.11134629  1.0
  Ge  Ge477  1  0.16734400  0.21995667  0.03991771  1.0
  Ge  Ge478  1  0.16734400  0.55329000  0.03991771  1.0
  Ge  Ge479  1  0.16734400  0.88662333  0.03991771  1.0
  Ge  Ge480  1  0.50067733  0.21995667  0.03991771  1.0
  Ge  Ge481  1  0.50067733  0.55329000  0.03991771  1.0
  Ge  Ge482  1  0.50067733  0.88662333  0.03991771  1.0
  Ge  Ge483  1  0.83401067  0.21995667  0.03991771  1.0
  Ge  Ge484  1  0.83401067  0.55329000  0.03991771  1.0
  Ge  Ge485  1  0.83401067  0.88662333  0.03991771  1.0
  Ge  Ge486  1  0.08408633  0.05595117  0.01146164  1.0
  Ge  Ge487  1  0.08408633  0.38928450  0.01146164  1.0
  Ge  Ge488  1  0.08408633  0.72261783  0.01146164  1.0
  Ge  Ge489  1  0.41741967  0.05595117  0.01146164  1.0
  Ge  Ge490  1  0.41741967  0.38928450  0.01146164  1.0
  Ge  Ge491  1  0.41741967  0.72261783  0.01146164  1.0
  Ge  Ge492  1  0.75075300  0.05595117  0.01146164  1.0
  Ge  Ge493  1  0.75075300  0.38928450  0.01146164  1.0
  Ge  Ge494  1  0.75075300  0.72261783  0.01146164  1.0
  Ge  Ge495  1  0.08408633  0.22261783  0.08289021  1.0
  Ge  Ge496  1  0.08408633  0.55595117  0.08289021  1.0
  Ge  Ge497  1  0.08408633  0.88928450  0.08289021  1.0
  Ge  Ge498  1  0.41741967  0.22261783  0.08289021  1.0
  Ge  Ge499  1  0.41741967  0.55595117  0.08289021  1.0
  Ge  Ge500  1  0.41741967  0.88928450  0.08289021  1.0
  Ge  Ge501  1  0.75075300  0.22261783  0.08289021  1.0
  Ge  Ge502  1  0.75075300  0.55595117  0.08289021  1.0
  Ge  Ge503  1  0.75075300  0.88928450  0.08289021  1.0
  Ge  Ge504  1  0.24924700  0.16068400  0.10943329  1.0
  Ge  Ge505  1  0.24924700  0.49401733  0.10943329  1.0
  Ge  Ge506  1  0.24924700  0.82735067  0.10943329  1.0
  Ge  Ge507  1  0.58258033  0.16068400  0.10943329  1.0
  Ge  Ge508  1  0.58258033  0.49401733  0.10943329  1.0
  Ge  Ge509  1  0.58258033  0.82735067  0.10943329  1.0
  Ge  Ge510  1  0.91591367  0.16068400  0.10943329  1.0
  Ge  Ge511  1  0.91591367  0.49401733  0.10943329  1.0
  Ge  Ge512  1  0.91591367  0.82735067  0.10943329  1.0
  Ge  Ge513  1  0.24924700  0.32735067  0.03800471  1.0
  Ge  Ge514  1  0.24924700  0.66068400  0.03800471  1.0
  Ge  Ge515  1  0.24924700  0.99401733  0.03800471  1.0
  Ge  Ge516  1  0.58258033  0.32735067  0.03800471  1.0
  Ge  Ge517  1  0.58258033  0.66068400  0.03800471  1.0
  Ge  Ge518  1  0.58258033  0.99401733  0.03800471  1.0
  Ge  Ge519  1  0.91591367  0.32735067  0.03800471  1.0
  Ge  Ge520  1  0.91591367  0.66068400  0.03800471  1.0
  Ge  Ge521  1  0.91591367  0.99401733  0.03800471  1.0
  Ge  Ge522  1  0.25067167  0.06060467  0.02265314  1.0
  Ge  Ge523  1  0.25067167  0.39393800  0.02265314  1.0
  Ge  Ge524  1  0.25067167  0.72727133  0.02265314  1.0
  Ge  Ge525  1  0.58400500  0.06060467  0.02265314  1.0
  Ge  Ge526  1  0.58400500  0.39393800  0.02265314  1.0
  Ge  Ge527  1  0.58400500  0.72727133  0.02265314  1.0
  Ge  Ge528  1  0.91733833  0.06060467  0.02265314  1.0
  Ge  Ge529  1  0.91733833  0.39393800  0.02265314  1.0
  Ge  Ge530  1  0.91733833  0.72727133  0.02265314  1.0
  Ge  Ge531  1  0.25067167  0.22727133  0.09408171  1.0
  Ge  Ge532  1  0.25067167  0.56060467  0.09408171  1.0
  Ge  Ge533  1  0.25067167  0.89393800  0.09408171  1.0
  Ge  Ge534  1  0.58400500  0.22727133  0.09408171  1.0
  Ge  Ge535  1  0.58400500  0.56060467  0.09408171  1.0
  Ge  Ge536  1  0.58400500  0.89393800  0.09408171  1.0
  Ge  Ge537  1  0.91733833  0.22727133  0.09408171  1.0
  Ge  Ge538  1  0.91733833  0.56060467  0.09408171  1.0
  Ge  Ge539  1  0.91733833  0.89393800  0.09408171  1.0
  Ge  Ge540  1  0.08266167  0.00474733  0.04659200  1.0
  Ge  Ge541  1  0.08266167  0.33808067  0.04659200  1.0
  Ge  Ge542  1  0.08266167  0.67141400  0.04659200  1.0
  Ge  Ge543  1  0.41599500  0.00474733  0.04659200  1.0
  Ge  Ge544  1  0.41599500  0.33808067  0.04659200  1.0
  Ge  Ge545  1  0.41599500  0.67141400  0.04659200  1.0
  Ge  Ge546  1  0.74932833  0.00474733  0.04659200  1.0
  Ge  Ge547  1  0.74932833  0.33808067  0.04659200  1.0
  Ge  Ge548  1  0.74932833  0.67141400  0.04659200  1.0
  Ge  Ge549  1  0.08266167  0.17141400  0.11802057  1.0
  Ge  Ge550  1  0.08266167  0.50474733  0.11802057  1.0
  Ge  Ge551  1  0.08266167  0.83808067  0.11802057  1.0
  Ge  Ge552  1  0.41599500  0.17141400  0.11802057  1.0
  Ge  Ge553  1  0.41599500  0.50474733  0.11802057  1.0
  Ge  Ge554  1  0.41599500  0.83808067  0.11802057  1.0
  Ge  Ge555  1  0.74932833  0.17141400  0.11802057  1.0
  Ge  Ge556  1  0.74932833  0.50474733  0.11802057  1.0
  Ge  Ge557  1  0.74932833  0.83808067  0.11802057  1.0
  Ni  Ni558  1  0.16666667  0.11189883  0.27933764  1.0
  Ni  Ni559  1  0.16666667  0.44523217  0.27933764  1.0
  Ni  Ni560  1  0.16666667  0.77856550  0.27933764  1.0
  Ni  Ni561  1  0.50000000  0.11189883  0.27933764  1.0
  Ni  Ni562  1  0.50000000  0.44523217  0.27933764  1.0
  Ni  Ni563  1  0.50000000  0.77856550  0.27933764  1.0
  Ni  Ni564  1  0.83333333  0.11189883  0.27933764  1.0
  Ni  Ni565  1  0.83333333  0.44523217  0.27933764  1.0
  Ni  Ni566  1  0.83333333  0.77856550  0.27933764  1.0
  Ni  Ni567  1  0.16666667  0.27856550  0.20790907  1.0
  Ni  Ni568  1  0.16666667  0.61189883  0.20790907  1.0
  Ni  Ni569  1  0.16666667  0.94523217  0.20790907  1.0
  Ni  Ni570  1  0.50000000  0.27856550  0.20790907  1.0
  Ni  Ni571  1  0.50000000  0.61189883  0.20790907  1.0
  Ni  Ni572  1  0.50000000  0.94523217  0.20790907  1.0
  Ni  Ni573  1  0.83333333  0.27856550  0.20790907  1.0
  Ni  Ni574  1  0.83333333  0.61189883  0.20790907  1.0
  Ni  Ni575  1  0.83333333  0.94523217  0.20790907  1.0
  Ni  Ni576  1  0.08480167  0.00090967  0.27892314  1.0
  Ni  Ni577  1  0.08480167  0.33424300  0.27892314  1.0
  Ni  Ni578  1  0.08480167  0.66757633  0.27892314  1.0
  Ni  Ni579  1  0.41813500  0.00090967  0.27892314  1.0
  Ni  Ni580  1  0.41813500  0.33424300  0.27892314  1.0
  Ni  Ni581  1  0.41813500  0.66757633  0.27892314  1.0
  Ni  Ni582  1  0.75146833  0.00090967  0.27892314  1.0
  Ni  Ni583  1  0.75146833  0.33424300  0.27892314  1.0
  Ni  Ni584  1  0.75146833  0.66757633  0.27892314  1.0
  Ni  Ni585  1  0.08480167  0.16757633  0.20749457  1.0
  Ni  Ni586  1  0.08480167  0.50090967  0.20749457  1.0
  Ni  Ni587  1  0.08480167  0.83424300  0.20749457  1.0
  Ni  Ni588  1  0.41813500  0.16757633  0.20749457  1.0
  Ni  Ni589  1  0.41813500  0.50090967  0.20749457  1.0
  Ni  Ni590  1  0.41813500  0.83424300  0.20749457  1.0
  Ni  Ni591  1  0.75146833  0.16757633  0.20749457  1.0
  Ni  Ni592  1  0.75146833  0.50090967  0.20749457  1.0
  Ni  Ni593  1  0.75146833  0.83424300  0.20749457  1.0
  Ni  Ni594  1  0.24853167  0.00024317  0.27920879  1.0
  Ni  Ni595  1  0.24853167  0.33357650  0.27920879  1.0
  Ni  Ni596  1  0.24853167  0.66690983  0.27920879  1.0
  Ni  Ni597  1  0.58186500  0.00024317  0.27920879  1.0
  Ni  Ni598  1  0.58186500  0.33357650  0.27920879  1.0
  Ni  Ni599  1  0.58186500  0.66690983  0.27920879  1.0
  Ni  Ni600  1  0.91519833  0.00024317  0.27920879  1.0
  Ni  Ni601  1  0.91519833  0.33357650  0.27920879  1.0
  Ni  Ni602  1  0.91519833  0.66690983  0.27920879  1.0
  Ni  Ni603  1  0.24853167  0.16690983  0.20778021  1.0
  Ni  Ni604  1  0.24853167  0.50024317  0.20778021  1.0
  Ni  Ni605  1  0.24853167  0.83357650  0.20778021  1.0
  Ni  Ni606  1  0.58186500  0.16690983  0.20778021  1.0
  Ni  Ni607  1  0.58186500  0.50024317  0.20778021  1.0
  Ni  Ni608  1  0.58186500  0.83357650  0.20778021  1.0
  Ni  Ni609  1  0.91519833  0.16690983  0.20778021  1.0
  Ni  Ni610  1  0.91519833  0.50024317  0.20778021  1.0
  Ni  Ni611  1  0.91519833  0.83357650  0.20778021  1.0
  Ni  Ni612  1  0.08408967  0.11055300  0.23029357  1.0
  Ni  Ni613  1  0.08408967  0.44388633  0.23029357  1.0
  Ni  Ni614  1  0.08408967  0.77721967  0.23029357  1.0
  Ni  Ni615  1  0.41742300  0.11055300  0.23029357  1.0
  Ni  Ni616  1  0.41742300  0.44388633  0.23029357  1.0
  Ni  Ni617  1  0.41742300  0.77721967  0.23029357  1.0
  Ni  Ni618  1  0.75075633  0.11055300  0.23029357  1.0
  Ni  Ni619  1  0.75075633  0.44388633  0.23029357  1.0
  Ni  Ni620  1  0.75075633  0.77721967  0.23029357  1.0
  Ni  Ni621  1  0.08408967  0.27721967  0.15886500  1.0
  Ni  Ni622  1  0.08408967  0.61055300  0.15886500  1.0
  Ni  Ni623  1  0.08408967  0.94388633  0.15886500  1.0
  Ni  Ni624  1  0.41742300  0.27721967  0.15886500  1.0
  Ni  Ni625  1  0.41742300  0.61055300  0.15886500  1.0
  Ni  Ni626  1  0.41742300  0.94388633  0.15886500  1.0
  Ni  Ni627  1  0.75075633  0.27721967  0.15886500  1.0
  Ni  Ni628  1  0.75075633  0.61055300  0.15886500  1.0
  Ni  Ni629  1  0.75075633  0.94388633  0.15886500  1.0
  Ni  Ni630  1  0.24924367  0.05535367  0.25395043  1.0
  Ni  Ni631  1  0.24924367  0.38868700  0.25395043  1.0
  Ni  Ni632  1  0.24924367  0.72202033  0.25395043  1.0
  Ni  Ni633  1  0.58257700  0.05535367  0.25395043  1.0
  Ni  Ni634  1  0.58257700  0.38868700  0.25395043  1.0
  Ni  Ni635  1  0.58257700  0.72202033  0.25395043  1.0
  Ni  Ni636  1  0.91591033  0.05535367  0.25395043  1.0
  Ni  Ni637  1  0.91591033  0.38868700  0.25395043  1.0
  Ni  Ni638  1  0.91591033  0.72202033  0.25395043  1.0
  Ni  Ni639  1  0.24924367  0.22202033  0.18252186  1.0
  Ni  Ni640  1  0.24924367  0.55535367  0.18252186  1.0
  Ni  Ni641  1  0.24924367  0.88868700  0.18252186  1.0
  Ni  Ni642  1  0.58257700  0.22202033  0.18252186  1.0
  Ni  Ni643  1  0.58257700  0.55535367  0.18252186  1.0
  Ni  Ni644  1  0.58257700  0.88868700  0.18252186  1.0
  Ni  Ni645  1  0.91591033  0.22202033  0.18252186  1.0
  Ni  Ni646  1  0.91591033  0.55535367  0.18252186  1.0
  Ni  Ni647  1  0.91591033  0.88868700  0.18252186  1.0
  Ni  Ni648  1  0.00120933  0.05642133  0.15999057  1.0
  Ni  Ni649  1  0.00120933  0.38975467  0.15999057  1.0
  Ni  Ni650  1  0.00120933  0.72308800  0.15999057  1.0
  Ni  Ni651  1  0.33454267  0.05642133  0.15999057  1.0
  Ni  Ni652  1  0.33454267  0.38975467  0.15999057  1.0
  Ni  Ni653  1  0.33454267  0.72308800  0.15999057  1.0
  Ni  Ni654  1  0.66787600  0.05642133  0.15999057  1.0
  Ni  Ni655  1  0.66787600  0.38975467  0.15999057  1.0
  Ni  Ni656  1  0.66787600  0.72308800  0.15999057  1.0
  Ni  Ni657  1  0.00120933  0.22308800  0.23141914  1.0
  Ni  Ni658  1  0.00120933  0.55642133  0.23141914  1.0
  Ni  Ni659  1  0.00120933  0.88975467  0.23141914  1.0
  Ni  Ni660  1  0.33454267  0.22308800  0.23141914  1.0
  Ni  Ni661  1  0.33454267  0.55642133  0.23141914  1.0
  Ni  Ni662  1  0.33454267  0.88975467  0.23141914  1.0
  Ni  Ni663  1  0.66787600  0.22308800  0.23141914  1.0
  Ni  Ni664  1  0.66787600  0.55642133  0.23141914  1.0
  Ni  Ni665  1  0.66787600  0.88975467  0.23141914  1.0
  Ni  Ni666  1  0.33212400  0.00039933  0.18400000  1.0
  Ni  Ni667  1  0.33212400  0.33373267  0.18400000  1.0
  Ni  Ni668  1  0.33212400  0.66706600  0.18400000  1.0
  Ni  Ni669  1  0.66545733  0.00039933  0.18400000  1.0
  Ni  Ni670  1  0.66545733  0.33373267  0.18400000  1.0
  Ni  Ni671  1  0.66545733  0.66706600  0.18400000  1.0
  Ni  Ni672  1  0.99879067  0.00039933  0.18400000  1.0
  Ni  Ni673  1  0.99879067  0.33373267  0.18400000  1.0
  Ni  Ni674  1  0.99879067  0.66706600  0.18400000  1.0
  Ni  Ni675  1  0.33212400  0.16706600  0.25542857  1.0
  Ni  Ni676  1  0.33212400  0.50039933  0.25542857  1.0
  Ni  Ni677  1  0.33212400  0.83373267  0.25542857  1.0
  Ni  Ni678  1  0.66545733  0.16706600  0.25542857  1.0
  Ni  Ni679  1  0.66545733  0.50039933  0.25542857  1.0
  Ni  Ni680  1  0.66545733  0.83373267  0.25542857  1.0
  Ni  Ni681  1  0.99879067  0.16706600  0.25542857  1.0
  Ni  Ni682  1  0.99879067  0.50039933  0.25542857  1.0
  Ni  Ni683  1  0.99879067  0.83373267  0.25542857  1.0
  Ni  Ni684  1  0.04191833  0.11109200  0.18097943  1.0
  Ni  Ni685  1  0.04191833  0.44442533  0.18097943  1.0
  Ni  Ni686  1  0.04191833  0.77775867  0.18097943  1.0
  Ni  Ni687  1  0.37525167  0.11109200  0.18097943  1.0
  Ni  Ni688  1  0.37525167  0.44442533  0.18097943  1.0
  Ni  Ni689  1  0.37525167  0.77775867  0.18097943  1.0
  Ni  Ni690  1  0.70858500  0.11109200  0.18097943  1.0
  Ni  Ni691  1  0.70858500  0.44442533  0.18097943  1.0
  Ni  Ni692  1  0.70858500  0.77775867  0.18097943  1.0
  Ni  Ni693  1  0.04191833  0.27775867  0.25240800  1.0
  Ni  Ni694  1  0.04191833  0.61109200  0.25240800  1.0
  Ni  Ni695  1  0.04191833  0.94442533  0.25240800  1.0
  Ni  Ni696  1  0.37525167  0.27775867  0.25240800  1.0
  Ni  Ni697  1  0.37525167  0.61109200  0.25240800  1.0
  Ni  Ni698  1  0.37525167  0.94442533  0.25240800  1.0
  Ni  Ni699  1  0.70858500  0.27775867  0.25240800  1.0
  Ni  Ni700  1  0.70858500  0.61109200  0.25240800  1.0
  Ni  Ni701  1  0.70858500  0.94442533  0.25240800  1.0
  Ni  Ni702  1  0.29141500  0.16421767  0.15821129  1.0
  Ni  Ni703  1  0.29141500  0.49755100  0.15821129  1.0
  Ni  Ni704  1  0.29141500  0.83088433  0.15821129  1.0
  Ni  Ni705  1  0.62474833  0.16421767  0.15821129  1.0
  Ni  Ni706  1  0.62474833  0.49755100  0.15821129  1.0
  Ni  Ni707  1  0.62474833  0.83088433  0.15821129  1.0
  Ni  Ni708  1  0.95808167  0.16421767  0.15821129  1.0
  Ni  Ni709  1  0.95808167  0.49755100  0.15821129  1.0
  Ni  Ni710  1  0.95808167  0.83088433  0.15821129  1.0
  Ni  Ni711  1  0.29141500  0.33088433  0.22963986  1.0
  Ni  Ni712  1  0.29141500  0.66421767  0.22963986  1.0
  Ni  Ni713  1  0.29141500  0.99755100  0.22963986  1.0
  Ni  Ni714  1  0.62474833  0.33088433  0.22963986  1.0
  Ni  Ni715  1  0.62474833  0.66421767  0.22963986  1.0
  Ni  Ni716  1  0.62474833  0.99755100  0.22963986  1.0
  Ni  Ni717  1  0.95808167  0.33088433  0.22963986  1.0
  Ni  Ni718  1  0.95808167  0.66421767  0.22963986  1.0
  Ni  Ni719  1  0.95808167  0.99755100  0.22963986  1.0
  Ni  Ni720  1  0.12568133  0.11008150  0.18242207  1.0
  Ni  Ni721  1  0.12568133  0.44341483  0.18242207  1.0
  Ni  Ni722  1  0.12568133  0.77674817  0.18242207  1.0
  Ni  Ni723  1  0.45901467  0.11008150  0.18242207  1.0
  Ni  Ni724  1  0.45901467  0.44341483  0.18242207  1.0
  Ni  Ni725  1  0.45901467  0.77674817  0.18242207  1.0
  Ni  Ni726  1  0.79234800  0.11008150  0.18242207  1.0
  Ni  Ni727  1  0.79234800  0.44341483  0.18242207  1.0
  Ni  Ni728  1  0.79234800  0.77674817  0.18242207  1.0
  Ni  Ni729  1  0.12568133  0.27674817  0.25385064  1.0
  Ni  Ni730  1  0.12568133  0.61008150  0.25385064  1.0
  Ni  Ni731  1  0.12568133  0.94341483  0.25385064  1.0
  Ni  Ni732  1  0.45901467  0.27674817  0.25385064  1.0
  Ni  Ni733  1  0.45901467  0.61008150  0.25385064  1.0
  Ni  Ni734  1  0.45901467  0.94341483  0.25385064  1.0
  Ni  Ni735  1  0.79234800  0.27674817  0.25385064  1.0
  Ni  Ni736  1  0.79234800  0.61008150  0.25385064  1.0
  Ni  Ni737  1  0.79234800  0.94341483  0.25385064  1.0
  Ni  Ni738  1  0.20765200  0.16640600  0.15828300  1.0
  Ni  Ni739  1  0.20765200  0.49973933  0.15828300  1.0
  Ni  Ni740  1  0.20765200  0.83307267  0.15828300  1.0
  Ni  Ni741  1  0.54098533  0.16640600  0.15828300  1.0
  Ni  Ni742  1  0.54098533  0.49973933  0.15828300  1.0
  Ni  Ni743  1  0.54098533  0.83307267  0.15828300  1.0
  Ni  Ni744  1  0.87431867  0.16640600  0.15828300  1.0
  Ni  Ni745  1  0.87431867  0.49973933  0.15828300  1.0
  Ni  Ni746  1  0.87431867  0.83307267  0.15828300  1.0
  Ni  Ni747  1  0.20765200  0.33307267  0.22971157  1.0
  Ni  Ni748  1  0.20765200  0.66640600  0.22971157  1.0
  Ni  Ni749  1  0.20765200  0.99973933  0.22971157  1.0
  Ni  Ni750  1  0.54098533  0.33307267  0.22971157  1.0
  Ni  Ni751  1  0.54098533  0.66640600  0.22971157  1.0
  Ni  Ni752  1  0.54098533  0.99973933  0.22971157  1.0
  Ni  Ni753  1  0.87431867  0.33307267  0.22971157  1.0
  Ni  Ni754  1  0.87431867  0.66640600  0.22971157  1.0
  Ni  Ni755  1  0.87431867  0.99973933  0.22971157  1.0
  Ni  Ni756  1  0.20794033  0.11082567  0.18567129  1.0
  Ni  Ni757  1  0.20794033  0.44415900  0.18567129  1.0
  Ni  Ni758  1  0.20794033  0.77749233  0.18567129  1.0
  Ni  Ni759  1  0.54127367  0.11082567  0.18567129  1.0
  Ni  Ni760  1  0.54127367  0.44415900  0.18567129  1.0
  Ni  Ni761  1  0.54127367  0.77749233  0.18567129  1.0
  Ni  Ni762  1  0.87460700  0.11082567  0.18567129  1.0
  Ni  Ni763  1  0.87460700  0.44415900  0.18567129  1.0
  Ni  Ni764  1  0.87460700  0.77749233  0.18567129  1.0
  Ni  Ni765  1  0.20794033  0.27749233  0.25709986  1.0
  Ni  Ni766  1  0.20794033  0.61082567  0.25709986  1.0
  Ni  Ni767  1  0.20794033  0.94415900  0.25709986  1.0
  Ni  Ni768  1  0.54127367  0.27749233  0.25709986  1.0
  Ni  Ni769  1  0.54127367  0.61082567  0.25709986  1.0
  Ni  Ni770  1  0.54127367  0.94415900  0.25709986  1.0
  Ni  Ni771  1  0.87460700  0.27749233  0.25709986  1.0
  Ni  Ni772  1  0.87460700  0.61082567  0.25709986  1.0
  Ni  Ni773  1  0.87460700  0.94415900  0.25709986  1.0
  Ni  Ni774  1  0.12539300  0.00315800  0.23181457  1.0
  Ni  Ni775  1  0.12539300  0.33649133  0.23181457  1.0
  Ni  Ni776  1  0.12539300  0.66982467  0.23181457  1.0
  Ni  Ni777  1  0.45872633  0.00315800  0.23181457  1.0
  Ni  Ni778  1  0.45872633  0.33649133  0.23181457  1.0
  Ni  Ni779  1  0.45872633  0.66982467  0.23181457  1.0
  Ni  Ni780  1  0.79205967  0.00315800  0.23181457  1.0
  Ni  Ni781  1  0.79205967  0.33649133  0.23181457  1.0
  Ni  Ni782  1  0.79205967  0.66982467  0.23181457  1.0
  Ni  Ni783  1  0.12539300  0.16982467  0.16038600  1.0
  Ni  Ni784  1  0.12539300  0.50315800  0.16038600  1.0
  Ni  Ni785  1  0.12539300  0.83649133  0.16038600  1.0
  Ni  Ni786  1  0.45872633  0.16982467  0.16038600  1.0
  Ni  Ni787  1  0.45872633  0.50315800  0.16038600  1.0
  Ni  Ni788  1  0.45872633  0.83649133  0.16038600  1.0
  Ni  Ni789  1  0.79205967  0.16982467  0.16038600  1.0
  Ni  Ni790  1  0.79205967  0.50315800  0.16038600  1.0
  Ni  Ni791  1  0.79205967  0.83649133  0.16038600  1.0
  Ni  Ni792  1  0.29140867  0.11155533  0.18293543  1.0
  Ni  Ni793  1  0.29140867  0.44488867  0.18293543  1.0
  Ni  Ni794  1  0.29140867  0.77822200  0.18293543  1.0
  Ni  Ni795  1  0.62474200  0.11155533  0.18293543  1.0
  Ni  Ni796  1  0.62474200  0.44488867  0.18293543  1.0
  Ni  Ni797  1  0.62474200  0.77822200  0.18293543  1.0
  Ni  Ni798  1  0.95807533  0.11155533  0.18293543  1.0
  Ni  Ni799  1  0.95807533  0.44488867  0.18293543  1.0
  Ni  Ni800  1  0.95807533  0.77822200  0.18293543  1.0
  Ni  Ni801  1  0.29140867  0.27822200  0.25436400  1.0
  Ni  Ni802  1  0.29140867  0.61155533  0.25436400  1.0
  Ni  Ni803  1  0.29140867  0.94488867  0.25436400  1.0
  Ni  Ni804  1  0.62474200  0.27822200  0.25436400  1.0
  Ni  Ni805  1  0.62474200  0.61155533  0.25436400  1.0
  Ni  Ni806  1  0.62474200  0.94488867  0.25436400  1.0
  Ni  Ni807  1  0.95807533  0.27822200  0.25436400  1.0
  Ni  Ni808  1  0.95807533  0.61155533  0.25436400  1.0
  Ni  Ni809  1  0.95807533  0.94488867  0.25436400  1.0
  Ni  Ni810  1  0.04192467  0.16626800  0.15948714  1.0
  Ni  Ni811  1  0.04192467  0.49960133  0.15948714  1.0
  Ni  Ni812  1  0.04192467  0.83293467  0.15948714  1.0
  Ni  Ni813  1  0.37525800  0.16626800  0.15948714  1.0
  Ni  Ni814  1  0.37525800  0.49960133  0.15948714  1.0
  Ni  Ni815  1  0.37525800  0.83293467  0.15948714  1.0
  Ni  Ni816  1  0.70859133  0.16626800  0.15948714  1.0
  Ni  Ni817  1  0.70859133  0.49960133  0.15948714  1.0
  Ni  Ni818  1  0.70859133  0.83293467  0.15948714  1.0
  Ni  Ni819  1  0.04192467  0.33293467  0.23091571  1.0
  Ni  Ni820  1  0.04192467  0.66626800  0.23091571  1.0
  Ni  Ni821  1  0.04192467  0.99960133  0.23091571  1.0
  Ni  Ni822  1  0.37525800  0.33293467  0.23091571  1.0
  Ni  Ni823  1  0.37525800  0.66626800  0.23091571  1.0
  Ni  Ni824  1  0.37525800  0.99960133  0.23091571  1.0
  Ni  Ni825  1  0.70859133  0.33293467  0.23091571  1.0
  Ni  Ni826  1  0.70859133  0.66626800  0.23091571  1.0
  Ni  Ni827  1  0.70859133  0.99960133  0.23091571  1.0
  Ni  Ni828  1  0.04194900  0.05664567  0.20993286  1.0
  Ni  Ni829  1  0.04194900  0.38997900  0.20993286  1.0
  Ni  Ni830  1  0.04194900  0.72331233  0.20993286  1.0
  Ni  Ni831  1  0.37528233  0.05664567  0.20993286  1.0
  Ni  Ni832  1  0.37528233  0.38997900  0.20993286  1.0
  Ni  Ni833  1  0.37528233  0.72331233  0.20993286  1.0
  Ni  Ni834  1  0.70861567  0.05664567  0.20993286  1.0
  Ni  Ni835  1  0.70861567  0.38997900  0.20993286  1.0
  Ni  Ni836  1  0.70861567  0.72331233  0.20993286  1.0
  Ni  Ni837  1  0.04194900  0.22331233  0.28136143  1.0
  Ni  Ni838  1  0.04194900  0.55664567  0.28136143  1.0
  Ni  Ni839  1  0.04194900  0.88997900  0.28136143  1.0
  Ni  Ni840  1  0.37528233  0.22331233  0.28136143  1.0
  Ni  Ni841  1  0.37528233  0.55664567  0.28136143  1.0
  Ni  Ni842  1  0.37528233  0.88997900  0.28136143  1.0
  Ni  Ni843  1  0.70861567  0.22331233  0.28136143  1.0
  Ni  Ni844  1  0.70861567  0.55664567  0.28136143  1.0
  Ni  Ni845  1  0.70861567  0.88997900  0.28136143  1.0
  Ni  Ni846  1  0.29138433  0.05855317  0.20911536  1.0
  Ni  Ni847  1  0.29138433  0.39188650  0.20911536  1.0
  Ni  Ni848  1  0.29138433  0.72521983  0.20911536  1.0
  Ni  Ni849  1  0.62471767  0.05855317  0.20911536  1.0
  Ni  Ni850  1  0.62471767  0.39188650  0.20911536  1.0
  Ni  Ni851  1  0.62471767  0.72521983  0.20911536  1.0
  Ni  Ni852  1  0.95805100  0.05855317  0.20911536  1.0
  Ni  Ni853  1  0.95805100  0.39188650  0.20911536  1.0
  Ni  Ni854  1  0.95805100  0.72521983  0.20911536  1.0
  Ni  Ni855  1  0.29138433  0.22521983  0.28054393  1.0
  Ni  Ni856  1  0.29138433  0.55855317  0.28054393  1.0
  Ni  Ni857  1  0.29138433  0.89188650  0.28054393  1.0
  Ni  Ni858  1  0.62471767  0.22521983  0.28054393  1.0
  Ni  Ni859  1  0.62471767  0.55855317  0.28054393  1.0
  Ni  Ni860  1  0.62471767  0.89188650  0.28054393  1.0
  Ni  Ni861  1  0.95805100  0.22521983  0.28054393  1.0
  Ni  Ni862  1  0.95805100  0.55855317  0.28054393  1.0
  Ni  Ni863  1  0.95805100  0.89188650  0.28054393  1.0
  Ni  Ni864  1  0.12575167  0.05387850  0.20805607  1.0
  Ni  Ni865  1  0.12575167  0.38721183  0.20805607  1.0
  Ni  Ni866  1  0.12575167  0.72054517  0.20805607  1.0
  Ni  Ni867  1  0.45908500  0.05387850  0.20805607  1.0
  Ni  Ni868  1  0.45908500  0.38721183  0.20805607  1.0
  Ni  Ni869  1  0.45908500  0.72054517  0.20805607  1.0
  Ni  Ni870  1  0.79241833  0.05387850  0.20805607  1.0
  Ni  Ni871  1  0.79241833  0.38721183  0.20805607  1.0
  Ni  Ni872  1  0.79241833  0.72054517  0.20805607  1.0
  Ni  Ni873  1  0.12575167  0.22054517  0.27948464  1.0
  Ni  Ni874  1  0.12575167  0.55387850  0.27948464  1.0
  Ni  Ni875  1  0.12575167  0.88721183  0.27948464  1.0
  Ni  Ni876  1  0.45908500  0.22054517  0.27948464  1.0
  Ni  Ni877  1  0.45908500  0.55387850  0.27948464  1.0
  Ni  Ni878  1  0.45908500  0.88721183  0.27948464  1.0
  Ni  Ni879  1  0.79241833  0.22054517  0.27948464  1.0
  Ni  Ni880  1  0.79241833  0.55387850  0.27948464  1.0
  Ni  Ni881  1  0.79241833  0.88721183  0.27948464  1.0
  Ni  Ni882  1  0.20758167  0.05774717  0.20639807  1.0
  Ni  Ni883  1  0.20758167  0.39108050  0.20639807  1.0
  Ni  Ni884  1  0.20758167  0.72441383  0.20639807  1.0
  Ni  Ni885  1  0.54091500  0.05774717  0.20639807  1.0
  Ni  Ni886  1  0.54091500  0.39108050  0.20639807  1.0
  Ni  Ni887  1  0.54091500  0.72441383  0.20639807  1.0
  Ni  Ni888  1  0.87424833  0.05774717  0.20639807  1.0
  Ni  Ni889  1  0.87424833  0.39108050  0.20639807  1.0
  Ni  Ni890  1  0.87424833  0.72441383  0.20639807  1.0
  Ni  Ni891  1  0.20758167  0.22441383  0.27782664  1.0
  Ni  Ni892  1  0.20758167  0.55774717  0.27782664  1.0
  Ni  Ni893  1  0.20758167  0.89108050  0.27782664  1.0
  Ni  Ni894  1  0.54091500  0.22441383  0.27782664  1.0
  Ni  Ni895  1  0.54091500  0.55774717  0.27782664  1.0
  Ni  Ni896  1  0.54091500  0.89108050  0.27782664  1.0
  Ni  Ni897  1  0.87424833  0.22441383  0.27782664  1.0
  Ni  Ni898  1  0.87424833  0.55774717  0.27782664  1.0
  Ni  Ni899  1  0.87424833  0.89108050  0.27782664  1.0
  Ge  Ge900  1  0.00000000  0.16237950  0.20138421  1.0
  Ge  Ge901  1  0.00000000  0.49571283  0.20138421  1.0
  Ge  Ge902  1  0.00000000  0.82904617  0.20138421  1.0
  Ge  Ge903  1  0.33333333  0.16237950  0.20138421  1.0
  Ge  Ge904  1  0.33333333  0.49571283  0.20138421  1.0
  Ge  Ge905  1  0.33333333  0.82904617  0.20138421  1.0
  Ge  Ge906  1  0.66666667  0.16237950  0.20138421  1.0
  Ge  Ge907  1  0.66666667  0.49571283  0.20138421  1.0
  Ge  Ge908  1  0.66666667  0.82904617  0.20138421  1.0
  Ge  Ge909  1  0.00000000  0.32904617  0.27281279  1.0
  Ge  Ge910  1  0.00000000  0.66237950  0.27281279  1.0
  Ge  Ge911  1  0.00000000  0.99571283  0.27281279  1.0
  Ge  Ge912  1  0.33333333  0.32904617  0.27281279  1.0
  Ge  Ge913  1  0.33333333  0.66237950  0.27281279  1.0
  Ge  Ge914  1  0.33333333  0.99571283  0.27281279  1.0
  Ge  Ge915  1  0.66666667  0.32904617  0.27281279  1.0
  Ge  Ge916  1  0.66666667  0.66237950  0.27281279  1.0
  Ge  Ge917  1  0.66666667  0.99571283  0.27281279  1.0
  Ge  Ge918  1  0.16666667  0.00379350  0.28320221  1.0
  Ge  Ge919  1  0.16666667  0.33712683  0.28320221  1.0
  Ge  Ge920  1  0.16666667  0.67046017  0.28320221  1.0
  Ge  Ge921  1  0.50000000  0.00379350  0.28320221  1.0
  Ge  Ge922  1  0.50000000  0.33712683  0.28320221  1.0
  Ge  Ge923  1  0.50000000  0.67046017  0.28320221  1.0
  Ge  Ge924  1  0.83333333  0.00379350  0.28320221  1.0
  Ge  Ge925  1  0.83333333  0.33712683  0.28320221  1.0
  Ge  Ge926  1  0.83333333  0.67046017  0.28320221  1.0
  Ge  Ge927  1  0.16666667  0.17046017  0.21177364  1.0
  Ge  Ge928  1  0.16666667  0.50379350  0.21177364  1.0
  Ge  Ge929  1  0.16666667  0.83712683  0.21177364  1.0
  Ge  Ge930  1  0.50000000  0.17046017  0.21177364  1.0
  Ge  Ge931  1  0.50000000  0.50379350  0.21177364  1.0
  Ge  Ge932  1  0.50000000  0.83712683  0.21177364  1.0
  Ge  Ge933  1  0.83333333  0.17046017  0.21177364  1.0
  Ge  Ge934  1  0.83333333  0.50379350  0.21177364  1.0
  Ge  Ge935  1  0.83333333  0.83712683  0.21177364  1.0
  Ge  Ge936  1  0.08416467  0.10623317  0.27645207  1.0
  Ge  Ge937  1  0.08416467  0.43956650  0.27645207  1.0
  Ge  Ge938  1  0.08416467  0.77289983  0.27645207  1.0
  Ge  Ge939  1  0.41749800  0.10623317  0.27645207  1.0
  Ge  Ge940  1  0.41749800  0.43956650  0.27645207  1.0
  Ge  Ge941  1  0.41749800  0.77289983  0.27645207  1.0
  Ge  Ge942  1  0.75083133  0.10623317  0.27645207  1.0
  Ge  Ge943  1  0.75083133  0.43956650  0.27645207  1.0
  Ge  Ge944  1  0.75083133  0.77289983  0.27645207  1.0
  Ge  Ge945  1  0.08416467  0.27289983  0.20502350  1.0
  Ge  Ge946  1  0.08416467  0.60623317  0.20502350  1.0
  Ge  Ge947  1  0.08416467  0.93956650  0.20502350  1.0
  Ge  Ge948  1  0.41749800  0.27289983  0.20502350  1.0
  Ge  Ge949  1  0.41749800  0.60623317  0.20502350  1.0
  Ge  Ge950  1  0.41749800  0.93956650  0.20502350  1.0
  Ge  Ge951  1  0.75083133  0.27289983  0.20502350  1.0
  Ge  Ge952  1  0.75083133  0.60623317  0.20502350  1.0
  Ge  Ge953  1  0.75083133  0.93956650  0.20502350  1.0
  Ge  Ge954  1  0.24916867  0.11136517  0.27425264  1.0
  Ge  Ge955  1  0.24916867  0.44469850  0.27425264  1.0
  Ge  Ge956  1  0.24916867  0.77803183  0.27425264  1.0
  Ge  Ge957  1  0.58250200  0.11136517  0.27425264  1.0
  Ge  Ge958  1  0.58250200  0.44469850  0.27425264  1.0
  Ge  Ge959  1  0.58250200  0.77803183  0.27425264  1.0
  Ge  Ge960  1  0.91583533  0.11136517  0.27425264  1.0
  Ge  Ge961  1  0.91583533  0.44469850  0.27425264  1.0
  Ge  Ge962  1  0.91583533  0.77803183  0.27425264  1.0
  Ge  Ge963  1  0.24916867  0.27803183  0.20282407  1.0
  Ge  Ge964  1  0.24916867  0.61136517  0.20282407  1.0
  Ge  Ge965  1  0.24916867  0.94469850  0.20282407  1.0
  Ge  Ge966  1  0.58250200  0.27803183  0.20282407  1.0
  Ge  Ge967  1  0.58250200  0.61136517  0.20282407  1.0
  Ge  Ge968  1  0.58250200  0.94469850  0.20282407  1.0
  Ge  Ge969  1  0.91583533  0.27803183  0.20282407  1.0
  Ge  Ge970  1  0.91583533  0.61136517  0.20282407  1.0
  Ge  Ge971  1  0.91583533  0.94469850  0.20282407  1.0
  Ge  Ge972  1  0.00076067  0.11142983  0.23588121  1.0
  Ge  Ge973  1  0.00076067  0.44476317  0.23588121  1.0
  Ge  Ge974  1  0.00076067  0.77809650  0.23588121  1.0
  Ge  Ge975  1  0.33409400  0.11142983  0.23588121  1.0
  Ge  Ge976  1  0.33409400  0.44476317  0.23588121  1.0
  Ge  Ge977  1  0.33409400  0.77809650  0.23588121  1.0
  Ge  Ge978  1  0.66742733  0.11142983  0.23588121  1.0
  Ge  Ge979  1  0.66742733  0.44476317  0.23588121  1.0
  Ge  Ge980  1  0.66742733  0.77809650  0.23588121  1.0
  Ge  Ge981  1  0.00076067  0.27809650  0.16445264  1.0
  Ge  Ge982  1  0.00076067  0.61142983  0.16445264  1.0
  Ge  Ge983  1  0.00076067  0.94476317  0.16445264  1.0
  Ge  Ge984  1  0.33409400  0.27809650  0.16445264  1.0
  Ge  Ge985  1  0.33409400  0.61142983  0.16445264  1.0
  Ge  Ge986  1  0.33409400  0.94476317  0.16445264  1.0
  Ge  Ge987  1  0.66742733  0.27809650  0.16445264  1.0
  Ge  Ge988  1  0.66742733  0.61142983  0.16445264  1.0
  Ge  Ge989  1  0.66742733  0.94476317  0.16445264  1.0
  Ge  Ge990  1  0.33257267  0.06143417  0.25730793  1.0
  Ge  Ge991  1  0.33257267  0.39476750  0.25730793  1.0
  Ge  Ge992  1  0.33257267  0.72810083  0.25730793  1.0
  Ge  Ge993  1  0.66590600  0.06143417  0.25730793  1.0
  Ge  Ge994  1  0.66590600  0.39476750  0.25730793  1.0
  Ge  Ge995  1  0.66590600  0.72810083  0.25730793  1.0
  Ge  Ge996  1  0.99923933  0.06143417  0.25730793  1.0
  Ge  Ge997  1  0.99923933  0.39476750  0.25730793  1.0
  Ge  Ge998  1  0.99923933  0.72810083  0.25730793  1.0
  Ge  Ge999  1  0.33257267  0.22810083  0.18587936  1.0
  Ge  Ge1000  1  0.33257267  0.56143417  0.18587936  1.0
  Ge  Ge1001  1  0.33257267  0.89476750  0.18587936  1.0
  Ge  Ge1002  1  0.66590600  0.22810083  0.18587936  1.0
  Ge  Ge1003  1  0.66590600  0.56143417  0.18587936  1.0
  Ge  Ge1004  1  0.66590600  0.89476750  0.18587936  1.0
  Ge  Ge1005  1  0.99923933  0.22810083  0.18587936  1.0
  Ge  Ge1006  1  0.99923933  0.56143417  0.18587936  1.0
  Ge  Ge1007  1  0.99923933  0.89476750  0.18587936  1.0
  Ge  Ge1008  1  0.16598933  0.11188000  0.22909343  1.0
  Ge  Ge1009  1  0.16598933  0.44521333  0.22909343  1.0
  Ge  Ge1010  1  0.16598933  0.77854667  0.22909343  1.0
  Ge  Ge1011  1  0.49932267  0.11188000  0.22909343  1.0
  Ge  Ge1012  1  0.49932267  0.44521333  0.22909343  1.0
  Ge  Ge1013  1  0.49932267  0.77854667  0.22909343  1.0
  Ge  Ge1014  1  0.83265600  0.11188000  0.22909343  1.0
  Ge  Ge1015  1  0.83265600  0.44521333  0.22909343  1.0
  Ge  Ge1016  1  0.83265600  0.77854667  0.22909343  1.0
  Ge  Ge1017  1  0.16598933  0.27854667  0.15766486  1.0
  Ge  Ge1018  1  0.16598933  0.61188000  0.15766486  1.0
  Ge  Ge1019  1  0.16598933  0.94521333  0.15766486  1.0
  Ge  Ge1020  1  0.49932267  0.27854667  0.15766486  1.0
  Ge  Ge1021  1  0.49932267  0.61188000  0.15766486  1.0
  Ge  Ge1022  1  0.49932267  0.94521333  0.15766486  1.0
  Ge  Ge1023  1  0.83265600  0.27854667  0.15766486  1.0
  Ge  Ge1024  1  0.83265600  0.61188000  0.15766486  1.0
  Ge  Ge1025  1  0.83265600  0.94521333  0.15766486  1.0
  Ge  Ge1026  1  0.16734400  0.05329000  0.25420343  1.0
  Ge  Ge1027  1  0.16734400  0.38662333  0.25420343  1.0
  Ge  Ge1028  1  0.16734400  0.71995667  0.25420343  1.0
  Ge  Ge1029  1  0.50067733  0.05329000  0.25420343  1.0
  Ge  Ge1030  1  0.50067733  0.38662333  0.25420343  1.0
  Ge  Ge1031  1  0.50067733  0.71995667  0.25420343  1.0
  Ge  Ge1032  1  0.83401067  0.05329000  0.25420343  1.0
  Ge  Ge1033  1  0.83401067  0.38662333  0.25420343  1.0
  Ge  Ge1034  1  0.83401067  0.71995667  0.25420343  1.0
  Ge  Ge1035  1  0.16734400  0.21995667  0.18277486  1.0
  Ge  Ge1036  1  0.16734400  0.55329000  0.18277486  1.0
  Ge  Ge1037  1  0.16734400  0.88662333  0.18277486  1.0
  Ge  Ge1038  1  0.50067733  0.21995667  0.18277486  1.0
  Ge  Ge1039  1  0.50067733  0.55329000  0.18277486  1.0
  Ge  Ge1040  1  0.50067733  0.88662333  0.18277486  1.0
  Ge  Ge1041  1  0.83401067  0.21995667  0.18277486  1.0
  Ge  Ge1042  1  0.83401067  0.55329000  0.18277486  1.0
  Ge  Ge1043  1  0.83401067  0.88662333  0.18277486  1.0
  Ge  Ge1044  1  0.08408633  0.05595117  0.15431879  1.0
  Ge  Ge1045  1  0.08408633  0.38928450  0.15431879  1.0
  Ge  Ge1046  1  0.08408633  0.72261783  0.15431879  1.0
  Ge  Ge1047  1  0.41741967  0.05595117  0.15431879  1.0
  Ge  Ge1048  1  0.41741967  0.38928450  0.15431879  1.0
  Ge  Ge1049  1  0.41741967  0.72261783  0.15431879  1.0
  Ge  Ge1050  1  0.75075300  0.05595117  0.15431879  1.0
  Ge  Ge1051  1  0.75075300  0.38928450  0.15431879  1.0
  Ge  Ge1052  1  0.75075300  0.72261783  0.15431879  1.0
  Ge  Ge1053  1  0.08408633  0.22261783  0.22574736  1.0
  Ge  Ge1054  1  0.08408633  0.55595117  0.22574736  1.0
  Ge  Ge1055  1  0.08408633  0.88928450  0.22574736  1.0
  Ge  Ge1056  1  0.41741967  0.22261783  0.22574736  1.0
  Ge  Ge1057  1  0.41741967  0.55595117  0.22574736  1.0
  Ge  Ge1058  1  0.41741967  0.88928450  0.22574736  1.0
  Ge  Ge1059  1  0.75075300  0.22261783  0.22574736  1.0
  Ge  Ge1060  1  0.75075300  0.55595117  0.22574736  1.0
  Ge  Ge1061  1  0.75075300  0.88928450  0.22574736  1.0
  Ge  Ge1062  1  0.24924700  0.16068400  0.25229043  1.0
  Ge  Ge1063  1  0.24924700  0.49401733  0.25229043  1.0
  Ge  Ge1064  1  0.24924700  0.82735067  0.25229043  1.0
  Ge  Ge1065  1  0.58258033  0.16068400  0.25229043  1.0
  Ge  Ge1066  1  0.58258033  0.49401733  0.25229043  1.0
  Ge  Ge1067  1  0.58258033  0.82735067  0.25229043  1.0
  Ge  Ge1068  1  0.91591367  0.16068400  0.25229043  1.0
  Ge  Ge1069  1  0.91591367  0.49401733  0.25229043  1.0
  Ge  Ge1070  1  0.91591367  0.82735067  0.25229043  1.0
  Ge  Ge1071  1  0.24924700  0.32735067  0.18086186  1.0
  Ge  Ge1072  1  0.24924700  0.66068400  0.18086186  1.0
  Ge  Ge1073  1  0.24924700  0.99401733  0.18086186  1.0
  Ge  Ge1074  1  0.58258033  0.32735067  0.18086186  1.0
  Ge  Ge1075  1  0.58258033  0.66068400  0.18086186  1.0
  Ge  Ge1076  1  0.58258033  0.99401733  0.18086186  1.0
  Ge  Ge1077  1  0.91591367  0.32735067  0.18086186  1.0
  Ge  Ge1078  1  0.91591367  0.66068400  0.18086186  1.0
  Ge  Ge1079  1  0.91591367  0.99401733  0.18086186  1.0
  Ge  Ge1080  1  0.25067167  0.06060467  0.16551029  1.0
  Ge  Ge1081  1  0.25067167  0.39393800  0.16551029  1.0
  Ge  Ge1082  1  0.25067167  0.72727133  0.16551029  1.0
  Ge  Ge1083  1  0.58400500  0.06060467  0.16551029  1.0
  Ge  Ge1084  1  0.58400500  0.39393800  0.16551029  1.0
  Ge  Ge1085  1  0.58400500  0.72727133  0.16551029  1.0
  Ge  Ge1086  1  0.91733833  0.06060467  0.16551029  1.0
  Ge  Ge1087  1  0.91733833  0.39393800  0.16551029  1.0
  Ge  Ge1088  1  0.91733833  0.72727133  0.16551029  1.0
  Ge  Ge1089  1  0.25067167  0.22727133  0.23693886  1.0
  Ge  Ge1090  1  0.25067167  0.56060467  0.23693886  1.0
  Ge  Ge1091  1  0.25067167  0.89393800  0.23693886  1.0
  Ge  Ge1092  1  0.58400500  0.22727133  0.23693886  1.0
  Ge  Ge1093  1  0.58400500  0.56060467  0.23693886  1.0
  Ge  Ge1094  1  0.58400500  0.89393800  0.23693886  1.0
  Ge  Ge1095  1  0.91733833  0.22727133  0.23693886  1.0
  Ge  Ge1096  1  0.91733833  0.56060467  0.23693886  1.0
  Ge  Ge1097  1  0.91733833  0.89393800  0.23693886  1.0
  Ge  Ge1098  1  0.08266167  0.00474733  0.18944914  1.0
  Ge  Ge1099  1  0.08266167  0.33808067  0.18944914  1.0
  Ge  Ge1100  1  0.08266167  0.67141400  0.18944914  1.0
  Ge  Ge1101  1  0.41599500  0.00474733  0.18944914  1.0
  Ge  Ge1102  1  0.41599500  0.33808067  0.18944914  1.0
  Ge  Ge1103  1  0.41599500  0.67141400  0.18944914  1.0
  Ge  Ge1104  1  0.74932833  0.00474733  0.18944914  1.0
  Ge  Ge1105  1  0.74932833  0.33808067  0.18944914  1.0
  Ge  Ge1106  1  0.74932833  0.67141400  0.18944914  1.0
  Ge  Ge1107  1  0.08266167  0.17141400  0.26087771  1.0
  Ge  Ge1108  1  0.08266167  0.50474733  0.26087771  1.0
  Ge  Ge1109  1  0.08266167  0.83808067  0.26087771  1.0
  Ge  Ge1110  1  0.41599500  0.17141400  0.26087771  1.0
  Ge  Ge1111  1  0.41599500  0.50474733  0.26087771  1.0
  Ge  Ge1112  1  0.41599500  0.83808067  0.26087771  1.0
  Ge  Ge1113  1  0.74932833  0.17141400  0.26087771  1.0
  Ge  Ge1114  1  0.74932833  0.50474733  0.26087771  1.0
  Ge  Ge1115  1  0.74932833  0.83808067  0.26087771  1.0
  Ni  Ni1116  1  0.16666667  0.11189883  0.42219479  1.0
  Ni  Ni1117  1  0.16666667  0.44523217  0.42219479  1.0
  Ni  Ni1118  1  0.16666667  0.77856550  0.42219479  1.0
  Ni  Ni1119  1  0.50000000  0.11189883  0.42219479  1.0
  Ni  Ni1120  1  0.50000000  0.44523217  0.42219479  1.0
  Ni  Ni1121  1  0.50000000  0.77856550  0.42219479  1.0
  Ni  Ni1122  1  0.83333333  0.11189883  0.42219479  1.0
  Ni  Ni1123  1  0.83333333  0.44523217  0.42219479  1.0
  Ni  Ni1124  1  0.83333333  0.77856550  0.42219479  1.0
  Ni  Ni1125  1  0.16666667  0.27856550  0.35076621  1.0
  Ni  Ni1126  1  0.16666667  0.61189883  0.35076621  1.0
  Ni  Ni1127  1  0.16666667  0.94523217  0.35076621  1.0
  Ni  Ni1128  1  0.50000000  0.27856550  0.35076621  1.0
  Ni  Ni1129  1  0.50000000  0.61189883  0.35076621  1.0
  Ni  Ni1130  1  0.50000000  0.94523217  0.35076621  1.0
  Ni  Ni1131  1  0.83333333  0.27856550  0.35076621  1.0
  Ni  Ni1132  1  0.83333333  0.61189883  0.35076621  1.0
  Ni  Ni1133  1  0.83333333  0.94523217  0.35076621  1.0
  Ni  Ni1134  1  0.08480167  0.00090967  0.42178029  1.0
  Ni  Ni1135  1  0.08480167  0.33424300  0.42178029  1.0
  Ni  Ni1136  1  0.08480167  0.66757633  0.42178029  1.0
  Ni  Ni1137  1  0.41813500  0.00090967  0.42178029  1.0
  Ni  Ni1138  1  0.41813500  0.33424300  0.42178029  1.0
  Ni  Ni1139  1  0.41813500  0.66757633  0.42178029  1.0
  Ni  Ni1140  1  0.75146833  0.00090967  0.42178029  1.0
  Ni  Ni1141  1  0.75146833  0.33424300  0.42178029  1.0
  Ni  Ni1142  1  0.75146833  0.66757633  0.42178029  1.0
  Ni  Ni1143  1  0.08480167  0.16757633  0.35035171  1.0
  Ni  Ni1144  1  0.08480167  0.50090967  0.35035171  1.0
  Ni  Ni1145  1  0.08480167  0.83424300  0.35035171  1.0
  Ni  Ni1146  1  0.41813500  0.16757633  0.35035171  1.0
  Ni  Ni1147  1  0.41813500  0.50090967  0.35035171  1.0
  Ni  Ni1148  1  0.41813500  0.83424300  0.35035171  1.0
  Ni  Ni1149  1  0.75146833  0.16757633  0.35035171  1.0
  Ni  Ni1150  1  0.75146833  0.50090967  0.35035171  1.0
  Ni  Ni1151  1  0.75146833  0.83424300  0.35035171  1.0
  Ni  Ni1152  1  0.24853167  0.00024317  0.42206593  1.0
  Ni  Ni1153  1  0.24853167  0.33357650  0.42206593  1.0
  Ni  Ni1154  1  0.24853167  0.66690983  0.42206593  1.0
  Ni  Ni1155  1  0.58186500  0.00024317  0.42206593  1.0
  Ni  Ni1156  1  0.58186500  0.33357650  0.42206593  1.0
  Ni  Ni1157  1  0.58186500  0.66690983  0.42206593  1.0
  Ni  Ni1158  1  0.91519833  0.00024317  0.42206593  1.0
  Ni  Ni1159  1  0.91519833  0.33357650  0.42206593  1.0
  Ni  Ni1160  1  0.91519833  0.66690983  0.42206593  1.0
  Ni  Ni1161  1  0.24853167  0.16690983  0.35063736  1.0
  Ni  Ni1162  1  0.24853167  0.50024317  0.35063736  1.0
  Ni  Ni1163  1  0.24853167  0.83357650  0.35063736  1.0
  Ni  Ni1164  1  0.58186500  0.16690983  0.35063736  1.0
  Ni  Ni1165  1  0.58186500  0.50024317  0.35063736  1.0
  Ni  Ni1166  1  0.58186500  0.83357650  0.35063736  1.0
  Ni  Ni1167  1  0.91519833  0.16690983  0.35063736  1.0
  Ni  Ni1168  1  0.91519833  0.50024317  0.35063736  1.0
  Ni  Ni1169  1  0.91519833  0.83357650  0.35063736  1.0
  Ni  Ni1170  1  0.08408967  0.11055300  0.37315071  1.0
  Ni  Ni1171  1  0.08408967  0.44388633  0.37315071  1.0
  Ni  Ni1172  1  0.08408967  0.77721967  0.37315071  1.0
  Ni  Ni1173  1  0.41742300  0.11055300  0.37315071  1.0
  Ni  Ni1174  1  0.41742300  0.44388633  0.37315071  1.0
  Ni  Ni1175  1  0.41742300  0.77721967  0.37315071  1.0
  Ni  Ni1176  1  0.75075633  0.11055300  0.37315071  1.0
  Ni  Ni1177  1  0.75075633  0.44388633  0.37315071  1.0
  Ni  Ni1178  1  0.75075633  0.77721967  0.37315071  1.0
  Ni  Ni1179  1  0.08408967  0.27721967  0.30172214  1.0
  Ni  Ni1180  1  0.08408967  0.61055300  0.30172214  1.0
  Ni  Ni1181  1  0.08408967  0.94388633  0.30172214  1.0
  Ni  Ni1182  1  0.41742300  0.27721967  0.30172214  1.0
  Ni  Ni1183  1  0.41742300  0.61055300  0.30172214  1.0
  Ni  Ni1184  1  0.41742300  0.94388633  0.30172214  1.0
  Ni  Ni1185  1  0.75075633  0.27721967  0.30172214  1.0
  Ni  Ni1186  1  0.75075633  0.61055300  0.30172214  1.0
  Ni  Ni1187  1  0.75075633  0.94388633  0.30172214  1.0
  Ni  Ni1188  1  0.24924367  0.05535367  0.39680757  1.0
  Ni  Ni1189  1  0.24924367  0.38868700  0.39680757  1.0
  Ni  Ni1190  1  0.24924367  0.72202033  0.39680757  1.0
  Ni  Ni1191  1  0.58257700  0.05535367  0.39680757  1.0
  Ni  Ni1192  1  0.58257700  0.38868700  0.39680757  1.0
  Ni  Ni1193  1  0.58257700  0.72202033  0.39680757  1.0
  Ni  Ni1194  1  0.91591033  0.05535367  0.39680757  1.0
  Ni  Ni1195  1  0.91591033  0.38868700  0.39680757  1.0
  Ni  Ni1196  1  0.91591033  0.72202033  0.39680757  1.0
  Ni  Ni1197  1  0.24924367  0.22202033  0.32537900  1.0
  Ni  Ni1198  1  0.24924367  0.55535367  0.32537900  1.0
  Ni  Ni1199  1  0.24924367  0.88868700  0.32537900  1.0
  Ni  Ni1200  1  0.58257700  0.22202033  0.32537900  1.0
  Ni  Ni1201  1  0.58257700  0.55535367  0.32537900  1.0
  Ni  Ni1202  1  0.58257700  0.88868700  0.32537900  1.0
  Ni  Ni1203  1  0.91591033  0.22202033  0.32537900  1.0
  Ni  Ni1204  1  0.91591033  0.55535367  0.32537900  1.0
  Ni  Ni1205  1  0.91591033  0.88868700  0.32537900  1.0
  Ni  Ni1206  1  0.00120933  0.05642133  0.30284771  1.0
  Ni  Ni1207  1  0.00120933  0.38975467  0.30284771  1.0
  Ni  Ni1208  1  0.00120933  0.72308800  0.30284771  1.0
  Ni  Ni1209  1  0.33454267  0.05642133  0.30284771  1.0
  Ni  Ni1210  1  0.33454267  0.38975467  0.30284771  1.0
  Ni  Ni1211  1  0.33454267  0.72308800  0.30284771  1.0
  Ni  Ni1212  1  0.66787600  0.05642133  0.30284771  1.0
  Ni  Ni1213  1  0.66787600  0.38975467  0.30284771  1.0
  Ni  Ni1214  1  0.66787600  0.72308800  0.30284771  1.0
  Ni  Ni1215  1  0.00120933  0.22308800  0.37427629  1.0
  Ni  Ni1216  1  0.00120933  0.55642133  0.37427629  1.0
  Ni  Ni1217  1  0.00120933  0.88975467  0.37427629  1.0
  Ni  Ni1218  1  0.33454267  0.22308800  0.37427629  1.0
  Ni  Ni1219  1  0.33454267  0.55642133  0.37427629  1.0
  Ni  Ni1220  1  0.33454267  0.88975467  0.37427629  1.0
  Ni  Ni1221  1  0.66787600  0.22308800  0.37427629  1.0
  Ni  Ni1222  1  0.66787600  0.55642133  0.37427629  1.0
  Ni  Ni1223  1  0.66787600  0.88975467  0.37427629  1.0
  Ni  Ni1224  1  0.33212400  0.00039933  0.32685714  1.0
  Ni  Ni1225  1  0.33212400  0.33373267  0.32685714  1.0
  Ni  Ni1226  1  0.33212400  0.66706600  0.32685714  1.0
  Ni  Ni1227  1  0.66545733  0.00039933  0.32685714  1.0
  Ni  Ni1228  1  0.66545733  0.33373267  0.32685714  1.0
  Ni  Ni1229  1  0.66545733  0.66706600  0.32685714  1.0
  Ni  Ni1230  1  0.99879067  0.00039933  0.32685714  1.0
  Ni  Ni1231  1  0.99879067  0.33373267  0.32685714  1.0
  Ni  Ni1232  1  0.99879067  0.66706600  0.32685714  1.0
  Ni  Ni1233  1  0.33212400  0.16706600  0.39828571  1.0
  Ni  Ni1234  1  0.33212400  0.50039933  0.39828571  1.0
  Ni  Ni1235  1  0.33212400  0.83373267  0.39828571  1.0
  Ni  Ni1236  1  0.66545733  0.16706600  0.39828571  1.0
  Ni  Ni1237  1  0.66545733  0.50039933  0.39828571  1.0
  Ni  Ni1238  1  0.66545733  0.83373267  0.39828571  1.0
  Ni  Ni1239  1  0.99879067  0.16706600  0.39828571  1.0
  Ni  Ni1240  1  0.99879067  0.50039933  0.39828571  1.0
  Ni  Ni1241  1  0.99879067  0.83373267  0.39828571  1.0
  Ni  Ni1242  1  0.04191833  0.11109200  0.32383657  1.0
  Ni  Ni1243  1  0.04191833  0.44442533  0.32383657  1.0
  Ni  Ni1244  1  0.04191833  0.77775867  0.32383657  1.0
  Ni  Ni1245  1  0.37525167  0.11109200  0.32383657  1.0
  Ni  Ni1246  1  0.37525167  0.44442533  0.32383657  1.0
  Ni  Ni1247  1  0.37525167  0.77775867  0.32383657  1.0
  Ni  Ni1248  1  0.70858500  0.11109200  0.32383657  1.0
  Ni  Ni1249  1  0.70858500  0.44442533  0.32383657  1.0
  Ni  Ni1250  1  0.70858500  0.77775867  0.32383657  1.0
  Ni  Ni1251  1  0.04191833  0.27775867  0.39526514  1.0
  Ni  Ni1252  1  0.04191833  0.61109200  0.39526514  1.0
  Ni  Ni1253  1  0.04191833  0.94442533  0.39526514  1.0
  Ni  Ni1254  1  0.37525167  0.27775867  0.39526514  1.0
  Ni  Ni1255  1  0.37525167  0.61109200  0.39526514  1.0
  Ni  Ni1256  1  0.37525167  0.94442533  0.39526514  1.0
  Ni  Ni1257  1  0.70858500  0.27775867  0.39526514  1.0
  Ni  Ni1258  1  0.70858500  0.61109200  0.39526514  1.0
  Ni  Ni1259  1  0.70858500  0.94442533  0.39526514  1.0
  Ni  Ni1260  1  0.29141500  0.16421767  0.30106843  1.0
  Ni  Ni1261  1  0.29141500  0.49755100  0.30106843  1.0
  Ni  Ni1262  1  0.29141500  0.83088433  0.30106843  1.0
  Ni  Ni1263  1  0.62474833  0.16421767  0.30106843  1.0
  Ni  Ni1264  1  0.62474833  0.49755100  0.30106843  1.0
  Ni  Ni1265  1  0.62474833  0.83088433  0.30106843  1.0
  Ni  Ni1266  1  0.95808167  0.16421767  0.30106843  1.0
  Ni  Ni1267  1  0.95808167  0.49755100  0.30106843  1.0
  Ni  Ni1268  1  0.95808167  0.83088433  0.30106843  1.0
  Ni  Ni1269  1  0.29141500  0.33088433  0.37249700  1.0
  Ni  Ni1270  1  0.29141500  0.66421767  0.37249700  1.0
  Ni  Ni1271  1  0.29141500  0.99755100  0.37249700  1.0
  Ni  Ni1272  1  0.62474833  0.33088433  0.37249700  1.0
  Ni  Ni1273  1  0.62474833  0.66421767  0.37249700  1.0
  Ni  Ni1274  1  0.62474833  0.99755100  0.37249700  1.0
  Ni  Ni1275  1  0.95808167  0.33088433  0.37249700  1.0
  Ni  Ni1276  1  0.95808167  0.66421767  0.37249700  1.0
  Ni  Ni1277  1  0.95808167  0.99755100  0.37249700  1.0
  Ni  Ni1278  1  0.12568133  0.11008150  0.32527921  1.0
  Ni  Ni1279  1  0.12568133  0.44341483  0.32527921  1.0
  Ni  Ni1280  1  0.12568133  0.77674817  0.32527921  1.0
  Ni  Ni1281  1  0.45901467  0.11008150  0.32527921  1.0
  Ni  Ni1282  1  0.45901467  0.44341483  0.32527921  1.0
  Ni  Ni1283  1  0.45901467  0.77674817  0.32527921  1.0
  Ni  Ni1284  1  0.79234800  0.11008150  0.32527921  1.0
  Ni  Ni1285  1  0.79234800  0.44341483  0.32527921  1.0
  Ni  Ni1286  1  0.79234800  0.77674817  0.32527921  1.0
  Ni  Ni1287  1  0.12568133  0.27674817  0.39670779  1.0
  Ni  Ni1288  1  0.12568133  0.61008150  0.39670779  1.0
  Ni  Ni1289  1  0.12568133  0.94341483  0.39670779  1.0
  Ni  Ni1290  1  0.45901467  0.27674817  0.39670779  1.0
  Ni  Ni1291  1  0.45901467  0.61008150  0.39670779  1.0
  Ni  Ni1292  1  0.45901467  0.94341483  0.39670779  1.0
  Ni  Ni1293  1  0.79234800  0.27674817  0.39670779  1.0
  Ni  Ni1294  1  0.79234800  0.61008150  0.39670779  1.0
  Ni  Ni1295  1  0.79234800  0.94341483  0.39670779  1.0
  Ni  Ni1296  1  0.20765200  0.16640600  0.30114014  1.0
  Ni  Ni1297  1  0.20765200  0.49973933  0.30114014  1.0
  Ni  Ni1298  1  0.20765200  0.83307267  0.30114014  1.0
  Ni  Ni1299  1  0.54098533  0.16640600  0.30114014  1.0
  Ni  Ni1300  1  0.54098533  0.49973933  0.30114014  1.0
  Ni  Ni1301  1  0.54098533  0.83307267  0.30114014  1.0
  Ni  Ni1302  1  0.87431867  0.16640600  0.30114014  1.0
  Ni  Ni1303  1  0.87431867  0.49973933  0.30114014  1.0
  Ni  Ni1304  1  0.87431867  0.83307267  0.30114014  1.0
  Ni  Ni1305  1  0.20765200  0.33307267  0.37256871  1.0
  Ni  Ni1306  1  0.20765200  0.66640600  0.37256871  1.0
  Ni  Ni1307  1  0.20765200  0.99973933  0.37256871  1.0
  Ni  Ni1308  1  0.54098533  0.33307267  0.37256871  1.0
  Ni  Ni1309  1  0.54098533  0.66640600  0.37256871  1.0
  Ni  Ni1310  1  0.54098533  0.99973933  0.37256871  1.0
  Ni  Ni1311  1  0.87431867  0.33307267  0.37256871  1.0
  Ni  Ni1312  1  0.87431867  0.66640600  0.37256871  1.0
  Ni  Ni1313  1  0.87431867  0.99973933  0.37256871  1.0
  Ni  Ni1314  1  0.20794033  0.11082567  0.32852843  1.0
  Ni  Ni1315  1  0.20794033  0.44415900  0.32852843  1.0
  Ni  Ni1316  1  0.20794033  0.77749233  0.32852843  1.0
  Ni  Ni1317  1  0.54127367  0.11082567  0.32852843  1.0
  Ni  Ni1318  1  0.54127367  0.44415900  0.32852843  1.0
  Ni  Ni1319  1  0.54127367  0.77749233  0.32852843  1.0
  Ni  Ni1320  1  0.87460700  0.11082567  0.32852843  1.0
  Ni  Ni1321  1  0.87460700  0.44415900  0.32852843  1.0
  Ni  Ni1322  1  0.87460700  0.77749233  0.32852843  1.0
  Ni  Ni1323  1  0.20794033  0.27749233  0.39995700  1.0
  Ni  Ni1324  1  0.20794033  0.61082567  0.39995700  1.0
  Ni  Ni1325  1  0.20794033  0.94415900  0.39995700  1.0
  Ni  Ni1326  1  0.54127367  0.27749233  0.39995700  1.0
  Ni  Ni1327  1  0.54127367  0.61082567  0.39995700  1.0
  Ni  Ni1328  1  0.54127367  0.94415900  0.39995700  1.0
  Ni  Ni1329  1  0.87460700  0.27749233  0.39995700  1.0
  Ni  Ni1330  1  0.87460700  0.61082567  0.39995700  1.0
  Ni  Ni1331  1  0.87460700  0.94415900  0.39995700  1.0
  Ni  Ni1332  1  0.12539300  0.00315800  0.37467171  1.0
  Ni  Ni1333  1  0.12539300  0.33649133  0.37467171  1.0
  Ni  Ni1334  1  0.12539300  0.66982467  0.37467171  1.0
  Ni  Ni1335  1  0.45872633  0.00315800  0.37467171  1.0
  Ni  Ni1336  1  0.45872633  0.33649133  0.37467171  1.0
  Ni  Ni1337  1  0.45872633  0.66982467  0.37467171  1.0
  Ni  Ni1338  1  0.79205967  0.00315800  0.37467171  1.0
  Ni  Ni1339  1  0.79205967  0.33649133  0.37467171  1.0
  Ni  Ni1340  1  0.79205967  0.66982467  0.37467171  1.0
  Ni  Ni1341  1  0.12539300  0.16982467  0.30324314  1.0
  Ni  Ni1342  1  0.12539300  0.50315800  0.30324314  1.0
  Ni  Ni1343  1  0.12539300  0.83649133  0.30324314  1.0
  Ni  Ni1344  1  0.45872633  0.16982467  0.30324314  1.0
  Ni  Ni1345  1  0.45872633  0.50315800  0.30324314  1.0
  Ni  Ni1346  1  0.45872633  0.83649133  0.30324314  1.0
  Ni  Ni1347  1  0.79205967  0.16982467  0.30324314  1.0
  Ni  Ni1348  1  0.79205967  0.50315800  0.30324314  1.0
  Ni  Ni1349  1  0.79205967  0.83649133  0.30324314  1.0
  Ni  Ni1350  1  0.29140867  0.11155533  0.32579257  1.0
  Ni  Ni1351  1  0.29140867  0.44488867  0.32579257  1.0
  Ni  Ni1352  1  0.29140867  0.77822200  0.32579257  1.0
  Ni  Ni1353  1  0.62474200  0.11155533  0.32579257  1.0
  Ni  Ni1354  1  0.62474200  0.44488867  0.32579257  1.0
  Ni  Ni1355  1  0.62474200  0.77822200  0.32579257  1.0
  Ni  Ni1356  1  0.95807533  0.11155533  0.32579257  1.0
  Ni  Ni1357  1  0.95807533  0.44488867  0.32579257  1.0
  Ni  Ni1358  1  0.95807533  0.77822200  0.32579257  1.0
  Ni  Ni1359  1  0.29140867  0.27822200  0.39722114  1.0
  Ni  Ni1360  1  0.29140867  0.61155533  0.39722114  1.0
  Ni  Ni1361  1  0.29140867  0.94488867  0.39722114  1.0
  Ni  Ni1362  1  0.62474200  0.27822200  0.39722114  1.0
  Ni  Ni1363  1  0.62474200  0.61155533  0.39722114  1.0
  Ni  Ni1364  1  0.62474200  0.94488867  0.39722114  1.0
  Ni  Ni1365  1  0.95807533  0.27822200  0.39722114  1.0
  Ni  Ni1366  1  0.95807533  0.61155533  0.39722114  1.0
  Ni  Ni1367  1  0.95807533  0.94488867  0.39722114  1.0
  Ni  Ni1368  1  0.04192467  0.16626800  0.30234429  1.0
  Ni  Ni1369  1  0.04192467  0.49960133  0.30234429  1.0
  Ni  Ni1370  1  0.04192467  0.83293467  0.30234429  1.0
  Ni  Ni1371  1  0.37525800  0.16626800  0.30234429  1.0
  Ni  Ni1372  1  0.37525800  0.49960133  0.30234429  1.0
  Ni  Ni1373  1  0.37525800  0.83293467  0.30234429  1.0
  Ni  Ni1374  1  0.70859133  0.16626800  0.30234429  1.0
  Ni  Ni1375  1  0.70859133  0.49960133  0.30234429  1.0
  Ni  Ni1376  1  0.70859133  0.83293467  0.30234429  1.0
  Ni  Ni1377  1  0.04192467  0.33293467  0.37377286  1.0
  Ni  Ni1378  1  0.04192467  0.66626800  0.37377286  1.0
  Ni  Ni1379  1  0.04192467  0.99960133  0.37377286  1.0
  Ni  Ni1380  1  0.37525800  0.33293467  0.37377286  1.0
  Ni  Ni1381  1  0.37525800  0.66626800  0.37377286  1.0
  Ni  Ni1382  1  0.37525800  0.99960133  0.37377286  1.0
  Ni  Ni1383  1  0.70859133  0.33293467  0.37377286  1.0
  Ni  Ni1384  1  0.70859133  0.66626800  0.37377286  1.0
  Ni  Ni1385  1  0.70859133  0.99960133  0.37377286  1.0
  Ni  Ni1386  1  0.04194900  0.05664567  0.35279000  1.0
  Ni  Ni1387  1  0.04194900  0.38997900  0.35279000  1.0
  Ni  Ni1388  1  0.04194900  0.72331233  0.35279000  1.0
  Ni  Ni1389  1  0.37528233  0.05664567  0.35279000  1.0
  Ni  Ni1390  1  0.37528233  0.38997900  0.35279000  1.0
  Ni  Ni1391  1  0.37528233  0.72331233  0.35279000  1.0
  Ni  Ni1392  1  0.70861567  0.05664567  0.35279000  1.0
  Ni  Ni1393  1  0.70861567  0.38997900  0.35279000  1.0
  Ni  Ni1394  1  0.70861567  0.72331233  0.35279000  1.0
  Ni  Ni1395  1  0.04194900  0.22331233  0.42421857  1.0
  Ni  Ni1396  1  0.04194900  0.55664567  0.42421857  1.0
  Ni  Ni1397  1  0.04194900  0.88997900  0.42421857  1.0
  Ni  Ni1398  1  0.37528233  0.22331233  0.42421857  1.0
  Ni  Ni1399  1  0.37528233  0.55664567  0.42421857  1.0
  Ni  Ni1400  1  0.37528233  0.88997900  0.42421857  1.0
  Ni  Ni1401  1  0.70861567  0.22331233  0.42421857  1.0
  Ni  Ni1402  1  0.70861567  0.55664567  0.42421857  1.0
  Ni  Ni1403  1  0.70861567  0.88997900  0.42421857  1.0
  Ni  Ni1404  1  0.29138433  0.05855317  0.35197250  1.0
  Ni  Ni1405  1  0.29138433  0.39188650  0.35197250  1.0
  Ni  Ni1406  1  0.29138433  0.72521983  0.35197250  1.0
  Ni  Ni1407  1  0.62471767  0.05855317  0.35197250  1.0
  Ni  Ni1408  1  0.62471767  0.39188650  0.35197250  1.0
  Ni  Ni1409  1  0.62471767  0.72521983  0.35197250  1.0
  Ni  Ni1410  1  0.95805100  0.05855317  0.35197250  1.0
  Ni  Ni1411  1  0.95805100  0.39188650  0.35197250  1.0
  Ni  Ni1412  1  0.95805100  0.72521983  0.35197250  1.0
  Ni  Ni1413  1  0.29138433  0.22521983  0.42340107  1.0
  Ni  Ni1414  1  0.29138433  0.55855317  0.42340107  1.0
  Ni  Ni1415  1  0.29138433  0.89188650  0.42340107  1.0
  Ni  Ni1416  1  0.62471767  0.22521983  0.42340107  1.0
  Ni  Ni1417  1  0.62471767  0.55855317  0.42340107  1.0
  Ni  Ni1418  1  0.62471767  0.89188650  0.42340107  1.0
  Ni  Ni1419  1  0.95805100  0.22521983  0.42340107  1.0
  Ni  Ni1420  1  0.95805100  0.55855317  0.42340107  1.0
  Ni  Ni1421  1  0.95805100  0.89188650  0.42340107  1.0
  Ni  Ni1422  1  0.12575167  0.05387850  0.35091321  1.0
  Ni  Ni1423  1  0.12575167  0.38721183  0.35091321  1.0
  Ni  Ni1424  1  0.12575167  0.72054517  0.35091321  1.0
  Ni  Ni1425  1  0.45908500  0.05387850  0.35091321  1.0
  Ni  Ni1426  1  0.45908500  0.38721183  0.35091321  1.0
  Ni  Ni1427  1  0.45908500  0.72054517  0.35091321  1.0
  Ni  Ni1428  1  0.79241833  0.05387850  0.35091321  1.0
  Ni  Ni1429  1  0.79241833  0.38721183  0.35091321  1.0
  Ni  Ni1430  1  0.79241833  0.72054517  0.35091321  1.0
  Ni  Ni1431  1  0.12575167  0.22054517  0.42234179  1.0
  Ni  Ni1432  1  0.12575167  0.55387850  0.42234179  1.0
  Ni  Ni1433  1  0.12575167  0.88721183  0.42234179  1.0
  Ni  Ni1434  1  0.45908500  0.22054517  0.42234179  1.0
  Ni  Ni1435  1  0.45908500  0.55387850  0.42234179  1.0
  Ni  Ni1436  1  0.45908500  0.88721183  0.42234179  1.0
  Ni  Ni1437  1  0.79241833  0.22054517  0.42234179  1.0
  Ni  Ni1438  1  0.79241833  0.55387850  0.42234179  1.0
  Ni  Ni1439  1  0.79241833  0.88721183  0.42234179  1.0
  Ni  Ni1440  1  0.20758167  0.05774717  0.34925521  1.0
  Ni  Ni1441  1  0.20758167  0.39108050  0.34925521  1.0
  Ni  Ni1442  1  0.20758167  0.72441383  0.34925521  1.0
  Ni  Ni1443  1  0.54091500  0.05774717  0.34925521  1.0
  Ni  Ni1444  1  0.54091500  0.39108050  0.34925521  1.0
  Ni  Ni1445  1  0.54091500  0.72441383  0.34925521  1.0
  Ni  Ni1446  1  0.87424833  0.05774717  0.34925521  1.0
  Ni  Ni1447  1  0.87424833  0.39108050  0.34925521  1.0
  Ni  Ni1448  1  0.87424833  0.72441383  0.34925521  1.0
  Ni  Ni1449  1  0.20758167  0.22441383  0.42068379  1.0
  Ni  Ni1450  1  0.20758167  0.55774717  0.42068379  1.0
  Ni  Ni1451  1  0.20758167  0.89108050  0.42068379  1.0
  Ni  Ni1452  1  0.54091500  0.22441383  0.42068379  1.0
  Ni  Ni1453  1  0.54091500  0.55774717  0.42068379  1.0
  Ni  Ni1454  1  0.54091500  0.89108050  0.42068379  1.0
  Ni  Ni1455  1  0.87424833  0.22441383  0.42068379  1.0
  Ni  Ni1456  1  0.87424833  0.55774717  0.42068379  1.0
  Ni  Ni1457  1  0.87424833  0.89108050  0.42068379  1.0
  Ge  Ge1458  1  0.00000000  0.16237950  0.34424136  1.0
  Ge  Ge1459  1  0.00000000  0.49571283  0.34424136  1.0
  Ge  Ge1460  1  0.00000000  0.82904617  0.34424136  1.0
  Ge  Ge1461  1  0.33333333  0.16237950  0.34424136  1.0
  Ge  Ge1462  1  0.33333333  0.49571283  0.34424136  1.0
  Ge  Ge1463  1  0.33333333  0.82904617  0.34424136  1.0
  Ge  Ge1464  1  0.66666667  0.16237950  0.34424136  1.0
  Ge  Ge1465  1  0.66666667  0.49571283  0.34424136  1.0
  Ge  Ge1466  1  0.66666667  0.82904617  0.34424136  1.0
  Ge  Ge1467  1  0.00000000  0.32904617  0.41566993  1.0
  Ge  Ge1468  1  0.00000000  0.66237950  0.41566993  1.0
  Ge  Ge1469  1  0.00000000  0.99571283  0.41566993  1.0
  Ge  Ge1470  1  0.33333333  0.32904617  0.41566993  1.0
  Ge  Ge1471  1  0.33333333  0.66237950  0.41566993  1.0
  Ge  Ge1472  1  0.33333333  0.99571283  0.41566993  1.0
  Ge  Ge1473  1  0.66666667  0.32904617  0.41566993  1.0
  Ge  Ge1474  1  0.66666667  0.66237950  0.41566993  1.0
  Ge  Ge1475  1  0.66666667  0.99571283  0.41566993  1.0
  Ge  Ge1476  1  0.16666667  0.00379350  0.42605936  1.0
  Ge  Ge1477  1  0.16666667  0.33712683  0.42605936  1.0
  Ge  Ge1478  1  0.16666667  0.67046017  0.42605936  1.0
  Ge  Ge1479  1  0.50000000  0.00379350  0.42605936  1.0
  Ge  Ge1480  1  0.50000000  0.33712683  0.42605936  1.0
  Ge  Ge1481  1  0.50000000  0.67046017  0.42605936  1.0
  Ge  Ge1482  1  0.83333333  0.00379350  0.42605936  1.0
  Ge  Ge1483  1  0.83333333  0.33712683  0.42605936  1.0
  Ge  Ge1484  1  0.83333333  0.67046017  0.42605936  1.0
  Ge  Ge1485  1  0.16666667  0.17046017  0.35463079  1.0
  Ge  Ge1486  1  0.16666667  0.50379350  0.35463079  1.0
  Ge  Ge1487  1  0.16666667  0.83712683  0.35463079  1.0
  Ge  Ge1488  1  0.50000000  0.17046017  0.35463079  1.0
  Ge  Ge1489  1  0.50000000  0.50379350  0.35463079  1.0
  Ge  Ge1490  1  0.50000000  0.83712683  0.35463079  1.0
  Ge  Ge1491  1  0.83333333  0.17046017  0.35463079  1.0
  Ge  Ge1492  1  0.83333333  0.50379350  0.35463079  1.0
  Ge  Ge1493  1  0.83333333  0.83712683  0.35463079  1.0
  Ge  Ge1494  1  0.08416467  0.10623317  0.41930921  1.0
  Ge  Ge1495  1  0.08416467  0.43956650  0.41930921  1.0
  Ge  Ge1496  1  0.08416467  0.77289983  0.41930921  1.0
  Ge  Ge1497  1  0.41749800  0.10623317  0.41930921  1.0
  Ge  Ge1498  1  0.41749800  0.43956650  0.41930921  1.0
  Ge  Ge1499  1  0.41749800  0.77289983  0.41930921  1.0
  Ge  Ge1500  1  0.75083133  0.10623317  0.41930921  1.0
  Ge  Ge1501  1  0.75083133  0.43956650  0.41930921  1.0
  Ge  Ge1502  1  0.75083133  0.77289983  0.41930921  1.0
  Ge  Ge1503  1  0.08416467  0.27289983  0.34788064  1.0
  Ge  Ge1504  1  0.08416467  0.60623317  0.34788064  1.0
  Ge  Ge1505  1  0.08416467  0.93956650  0.34788064  1.0
  Ge  Ge1506  1  0.41749800  0.27289983  0.34788064  1.0
  Ge  Ge1507  1  0.41749800  0.60623317  0.34788064  1.0
  Ge  Ge1508  1  0.41749800  0.93956650  0.34788064  1.0
  Ge  Ge1509  1  0.75083133  0.27289983  0.34788064  1.0
  Ge  Ge1510  1  0.75083133  0.60623317  0.34788064  1.0
  Ge  Ge1511  1  0.75083133  0.93956650  0.34788064  1.0
  Ge  Ge1512  1  0.24916867  0.11136517  0.41710979  1.0
  Ge  Ge1513  1  0.24916867  0.44469850  0.41710979  1.0
  Ge  Ge1514  1  0.24916867  0.77803183  0.41710979  1.0
  Ge  Ge1515  1  0.58250200  0.11136517  0.41710979  1.0
  Ge  Ge1516  1  0.58250200  0.44469850  0.41710979  1.0
  Ge  Ge1517  1  0.58250200  0.77803183  0.41710979  1.0
  Ge  Ge1518  1  0.91583533  0.11136517  0.41710979  1.0
  Ge  Ge1519  1  0.91583533  0.44469850  0.41710979  1.0
  Ge  Ge1520  1  0.91583533  0.77803183  0.41710979  1.0
  Ge  Ge1521  1  0.24916867  0.27803183  0.34568121  1.0
  Ge  Ge1522  1  0.24916867  0.61136517  0.34568121  1.0
  Ge  Ge1523  1  0.24916867  0.94469850  0.34568121  1.0
  Ge  Ge1524  1  0.58250200  0.27803183  0.34568121  1.0
  Ge  Ge1525  1  0.58250200  0.61136517  0.34568121  1.0
  Ge  Ge1526  1  0.58250200  0.94469850  0.34568121  1.0
  Ge  Ge1527  1  0.91583533  0.27803183  0.34568121  1.0
  Ge  Ge1528  1  0.91583533  0.61136517  0.34568121  1.0
  Ge  Ge1529  1  0.91583533  0.94469850  0.34568121  1.0
  Ge  Ge1530  1  0.00076067  0.11142983  0.37873836  1.0
  Ge  Ge1531  1  0.00076067  0.44476317  0.37873836  1.0
  Ge  Ge1532  1  0.00076067  0.77809650  0.37873836  1.0
  Ge  Ge1533  1  0.33409400  0.11142983  0.37873836  1.0
  Ge  Ge1534  1  0.33409400  0.44476317  0.37873836  1.0
  Ge  Ge1535  1  0.33409400  0.77809650  0.37873836  1.0
  Ge  Ge1536  1  0.66742733  0.11142983  0.37873836  1.0
  Ge  Ge1537  1  0.66742733  0.44476317  0.37873836  1.0
  Ge  Ge1538  1  0.66742733  0.77809650  0.37873836  1.0
  Ge  Ge1539  1  0.00076067  0.27809650  0.30730979  1.0
  Ge  Ge1540  1  0.00076067  0.61142983  0.30730979  1.0
  Ge  Ge1541  1  0.00076067  0.94476317  0.30730979  1.0
  Ge  Ge1542  1  0.33409400  0.27809650  0.30730979  1.0
  Ge  Ge1543  1  0.33409400  0.61142983  0.30730979  1.0
  Ge  Ge1544  1  0.33409400  0.94476317  0.30730979  1.0
  Ge  Ge1545  1  0.66742733  0.27809650  0.30730979  1.0
  Ge  Ge1546  1  0.66742733  0.61142983  0.30730979  1.0
  Ge  Ge1547  1  0.66742733  0.94476317  0.30730979  1.0
  Ge  Ge1548  1  0.33257267  0.06143417  0.40016507  1.0
  Ge  Ge1549  1  0.33257267  0.39476750  0.40016507  1.0
  Ge  Ge1550  1  0.33257267  0.72810083  0.40016507  1.0
  Ge  Ge1551  1  0.66590600  0.06143417  0.40016507  1.0
  Ge  Ge1552  1  0.66590600  0.39476750  0.40016507  1.0
  Ge  Ge1553  1  0.66590600  0.72810083  0.40016507  1.0
  Ge  Ge1554  1  0.99923933  0.06143417  0.40016507  1.0
  Ge  Ge1555  1  0.99923933  0.39476750  0.40016507  1.0
  Ge  Ge1556  1  0.99923933  0.72810083  0.40016507  1.0
  Ge  Ge1557  1  0.33257267  0.22810083  0.32873650  1.0
  Ge  Ge1558  1  0.33257267  0.56143417  0.32873650  1.0
  Ge  Ge1559  1  0.33257267  0.89476750  0.32873650  1.0
  Ge  Ge1560  1  0.66590600  0.22810083  0.32873650  1.0
  Ge  Ge1561  1  0.66590600  0.56143417  0.32873650  1.0
  Ge  Ge1562  1  0.66590600  0.89476750  0.32873650  1.0
  Ge  Ge1563  1  0.99923933  0.22810083  0.32873650  1.0
  Ge  Ge1564  1  0.99923933  0.56143417  0.32873650  1.0
  Ge  Ge1565  1  0.99923933  0.89476750  0.32873650  1.0
  Ge  Ge1566  1  0.16598933  0.11188000  0.37195057  1.0
  Ge  Ge1567  1  0.16598933  0.44521333  0.37195057  1.0
  Ge  Ge1568  1  0.16598933  0.77854667  0.37195057  1.0
  Ge  Ge1569  1  0.49932267  0.11188000  0.37195057  1.0
  Ge  Ge1570  1  0.49932267  0.44521333  0.37195057  1.0
  Ge  Ge1571  1  0.49932267  0.77854667  0.37195057  1.0
  Ge  Ge1572  1  0.83265600  0.11188000  0.37195057  1.0
  Ge  Ge1573  1  0.83265600  0.44521333  0.37195057  1.0
  Ge  Ge1574  1  0.83265600  0.77854667  0.37195057  1.0
  Ge  Ge1575  1  0.16598933  0.27854667  0.30052200  1.0
  Ge  Ge1576  1  0.16598933  0.61188000  0.30052200  1.0
  Ge  Ge1577  1  0.16598933  0.94521333  0.30052200  1.0
  Ge  Ge1578  1  0.49932267  0.27854667  0.30052200  1.0
  Ge  Ge1579  1  0.49932267  0.61188000  0.30052200  1.0
  Ge  Ge1580  1  0.49932267  0.94521333  0.30052200  1.0
  Ge  Ge1581  1  0.83265600  0.27854667  0.30052200  1.0
  Ge  Ge1582  1  0.83265600  0.61188000  0.30052200  1.0
  Ge  Ge1583  1  0.83265600  0.94521333  0.30052200  1.0
  Ge  Ge1584  1  0.16734400  0.05329000  0.39706057  1.0
  Ge  Ge1585  1  0.16734400  0.38662333  0.39706057  1.0
  Ge  Ge1586  1  0.16734400  0.71995667  0.39706057  1.0
  Ge  Ge1587  1  0.50067733  0.05329000  0.39706057  1.0
  Ge  Ge1588  1  0.50067733  0.38662333  0.39706057  1.0
  Ge  Ge1589  1  0.50067733  0.71995667  0.39706057  1.0
  Ge  Ge1590  1  0.83401067  0.05329000  0.39706057  1.0
  Ge  Ge1591  1  0.83401067  0.38662333  0.39706057  1.0
  Ge  Ge1592  1  0.83401067  0.71995667  0.39706057  1.0
  Ge  Ge1593  1  0.16734400  0.21995667  0.32563200  1.0
  Ge  Ge1594  1  0.16734400  0.55329000  0.32563200  1.0
  Ge  Ge1595  1  0.16734400  0.88662333  0.32563200  1.0
  Ge  Ge1596  1  0.50067733  0.21995667  0.32563200  1.0
  Ge  Ge1597  1  0.50067733  0.55329000  0.32563200  1.0
  Ge  Ge1598  1  0.50067733  0.88662333  0.32563200  1.0
  Ge  Ge1599  1  0.83401067  0.21995667  0.32563200  1.0
  Ge  Ge1600  1  0.83401067  0.55329000  0.32563200  1.0
  Ge  Ge1601  1  0.83401067  0.88662333  0.32563200  1.0
  Ge  Ge1602  1  0.08408633  0.05595117  0.29717593  1.0
  Ge  Ge1603  1  0.08408633  0.38928450  0.29717593  1.0
  Ge  Ge1604  1  0.08408633  0.72261783  0.29717593  1.0
  Ge  Ge1605  1  0.41741967  0.05595117  0.29717593  1.0
  Ge  Ge1606  1  0.41741967  0.38928450  0.29717593  1.0
  Ge  Ge1607  1  0.41741967  0.72261783  0.29717593  1.0
  Ge  Ge1608  1  0.75075300  0.05595117  0.29717593  1.0
  Ge  Ge1609  1  0.75075300  0.38928450  0.29717593  1.0
  Ge  Ge1610  1  0.75075300  0.72261783  0.29717593  1.0
  Ge  Ge1611  1  0.08408633  0.22261783  0.36860450  1.0
  Ge  Ge1612  1  0.08408633  0.55595117  0.36860450  1.0
  Ge  Ge1613  1  0.08408633  0.88928450  0.36860450  1.0
  Ge  Ge1614  1  0.41741967  0.22261783  0.36860450  1.0
  Ge  Ge1615  1  0.41741967  0.55595117  0.36860450  1.0
  Ge  Ge1616  1  0.41741967  0.88928450  0.36860450  1.0
  Ge  Ge1617  1  0.75075300  0.22261783  0.36860450  1.0
  Ge  Ge1618  1  0.75075300  0.55595117  0.36860450  1.0
  Ge  Ge1619  1  0.75075300  0.88928450  0.36860450  1.0
  Ge  Ge1620  1  0.24924700  0.16068400  0.39514757  1.0
  Ge  Ge1621  1  0.24924700  0.49401733  0.39514757  1.0
  Ge  Ge1622  1  0.24924700  0.82735067  0.39514757  1.0
  Ge  Ge1623  1  0.58258033  0.16068400  0.39514757  1.0
  Ge  Ge1624  1  0.58258033  0.49401733  0.39514757  1.0
  Ge  Ge1625  1  0.58258033  0.82735067  0.39514757  1.0
  Ge  Ge1626  1  0.91591367  0.16068400  0.39514757  1.0
  Ge  Ge1627  1  0.91591367  0.49401733  0.39514757  1.0
  Ge  Ge1628  1  0.91591367  0.82735067  0.39514757  1.0
  Ge  Ge1629  1  0.24924700  0.32735067  0.32371900  1.0
  Ge  Ge1630  1  0.24924700  0.66068400  0.32371900  1.0
  Ge  Ge1631  1  0.24924700  0.99401733  0.32371900  1.0
  Ge  Ge1632  1  0.58258033  0.32735067  0.32371900  1.0
  Ge  Ge1633  1  0.58258033  0.66068400  0.32371900  1.0
  Ge  Ge1634  1  0.58258033  0.99401733  0.32371900  1.0
  Ge  Ge1635  1  0.91591367  0.32735067  0.32371900  1.0
  Ge  Ge1636  1  0.91591367  0.66068400  0.32371900  1.0
  Ge  Ge1637  1  0.91591367  0.99401733  0.32371900  1.0
  Ge  Ge1638  1  0.25067167  0.06060467  0.30836743  1.0
  Ge  Ge1639  1  0.25067167  0.39393800  0.30836743  1.0
  Ge  Ge1640  1  0.25067167  0.72727133  0.30836743  1.0
  Ge  Ge1641  1  0.58400500  0.06060467  0.30836743  1.0
  Ge  Ge1642  1  0.58400500  0.39393800  0.30836743  1.0
  Ge  Ge1643  1  0.58400500  0.72727133  0.30836743  1.0
  Ge  Ge1644  1  0.91733833  0.06060467  0.30836743  1.0
  Ge  Ge1645  1  0.91733833  0.39393800  0.30836743  1.0
  Ge  Ge1646  1  0.91733833  0.72727133  0.30836743  1.0
  Ge  Ge1647  1  0.25067167  0.22727133  0.37979600  1.0
  Ge  Ge1648  1  0.25067167  0.56060467  0.37979600  1.0
  Ge  Ge1649  1  0.25067167  0.89393800  0.37979600  1.0
  Ge  Ge1650  1  0.58400500  0.22727133  0.37979600  1.0
  Ge  Ge1651  1  0.58400500  0.56060467  0.37979600  1.0
  Ge  Ge1652  1  0.58400500  0.89393800  0.37979600  1.0
  Ge  Ge1653  1  0.91733833  0.22727133  0.37979600  1.0
  Ge  Ge1654  1  0.91733833  0.56060467  0.37979600  1.0
  Ge  Ge1655  1  0.91733833  0.89393800  0.37979600  1.0
  Ge  Ge1656  1  0.08266167  0.00474733  0.33230629  1.0
  Ge  Ge1657  1  0.08266167  0.33808067  0.33230629  1.0
  Ge  Ge1658  1  0.08266167  0.67141400  0.33230629  1.0
  Ge  Ge1659  1  0.41599500  0.00474733  0.33230629  1.0
  Ge  Ge1660  1  0.41599500  0.33808067  0.33230629  1.0
  Ge  Ge1661  1  0.41599500  0.67141400  0.33230629  1.0
  Ge  Ge1662  1  0.74932833  0.00474733  0.33230629  1.0
  Ge  Ge1663  1  0.74932833  0.33808067  0.33230629  1.0
  Ge  Ge1664  1  0.74932833  0.67141400  0.33230629  1.0
  Ge  Ge1665  1  0.08266167  0.17141400  0.40373486  1.0
  Ge  Ge1666  1  0.08266167  0.50474733  0.40373486  1.0
  Ge  Ge1667  1  0.08266167  0.83808067  0.40373486  1.0
  Ge  Ge1668  1  0.41599500  0.17141400  0.40373486  1.0
  Ge  Ge1669  1  0.41599500  0.50474733  0.40373486  1.0
  Ge  Ge1670  1  0.41599500  0.83808067  0.40373486  1.0
  Ge  Ge1671  1  0.74932833  0.17141400  0.40373486  1.0
  Ge  Ge1672  1  0.74932833  0.50474733  0.40373486  1.0
  Ge  Ge1673  1  0.74932833  0.83808067  0.40373486  1.0
