# generated using pymatgen
data_Ni19Ge12
_symmetry_space_group_name_H-M   'P 1'
_cell_length_a   36.28991920
_cell_length_b   46.21119302
_cell_length_c   30.75913132
_cell_angle_alpha   81.75626872
_cell_angle_beta   79.54997974
_cell_angle_gamma   79.65334100
_symmetry_Int_Tables_number   1
_chemical_formula_structural   Ni19Ge12
_chemical_formula_sum   'Ni1026 Ge648'
_cell_volume   49574.19445389
_cell_formula_units_Z   54
loop_
 _symmetry_equiv_pos_site_id
 _symmetry_equiv_pos_as_xyz
  1  'x, y, z'
loop_
 _atom_site_type_symbol
 _atom_site_label
 _atom_site_symmetry_multiplicity
 _atom_site_fract_x
 _atom_site_fract_y
 _atom_site_fract_z
 _atom_site_occupancy
  Ge  Ge0  1  0.33097221  0.00236112  0.99711093  1.0
  Ge  Ge1  1  0.33097221  0.33569445  0.99711093  1.0
  Ge  Ge2  1  0.33097221  0.66902779  0.99711093  1.0
  Ge  Ge3  1  0.66430555  0.00236112  0.99711093  1.0
  Ge  Ge4  1  0.66430555  0.33569445  0.99711093  1.0
  Ge  Ge5  1  0.66430555  0.66902779  0.99711093  1.0
  Ge  Ge6  1  0.99763888  0.00236112  0.99711093  1.0
  Ge  Ge7  1  0.99763888  0.33569445  0.99711093  1.0
  Ge  Ge8  1  0.99763888  0.66902779  0.99711093  1.0
  Ge  Ge9  1  0.21192460  0.12140874  0.92568236  1.0
  Ge  Ge10  1  0.21192460  0.45474207  0.92568236  1.0
  Ge  Ge11  1  0.21192460  0.78807540  0.92568236  1.0
  Ge  Ge12  1  0.54525793  0.12140874  0.92568236  1.0
  Ge  Ge13  1  0.54525793  0.45474207  0.92568236  1.0
  Ge  Ge14  1  0.54525793  0.78807540  0.92568236  1.0
  Ge  Ge15  1  0.87859126  0.12140874  0.92568236  1.0
  Ge  Ge16  1  0.87859126  0.45474207  0.92568236  1.0
  Ge  Ge17  1  0.87859126  0.78807540  0.92568236  1.0
  Ge  Ge18  1  0.32022183  0.17977817  0.90035750  1.0
  Ge  Ge19  1  0.32022183  0.51311150  0.90035750  1.0
  Ge  Ge20  1  0.32022183  0.84644483  0.90035750  1.0
  Ge  Ge21  1  0.65355517  0.17977817  0.90035750  1.0
  Ge  Ge22  1  0.65355517  0.51311150  0.90035750  1.0
  Ge  Ge23  1  0.65355517  0.84644483  0.90035750  1.0
  Ge  Ge24  1  0.98688850  0.17977817  0.90035750  1.0
  Ge  Ge25  1  0.98688850  0.51311150  0.90035750  1.0
  Ge  Ge26  1  0.98688850  0.84644483  0.90035750  1.0
  Ge  Ge27  1  0.10593612  0.06073055  0.97178607  1.0
  Ge  Ge28  1  0.10593612  0.39406388  0.97178607  1.0
  Ge  Ge29  1  0.10593612  0.72739721  0.97178607  1.0
  Ge  Ge30  1  0.43926945  0.06073055  0.97178607  1.0
  Ge  Ge31  1  0.43926945  0.39406388  0.97178607  1.0
  Ge  Ge32  1  0.43926945  0.72739721  0.97178607  1.0
  Ge  Ge33  1  0.77260279  0.06073055  0.97178607  1.0
  Ge  Ge34  1  0.77260279  0.39406388  0.97178607  1.0
  Ge  Ge35  1  0.77260279  0.72739721  0.97178607  1.0
  Ge  Ge36  1  0.14686526  0.10230340  0.87592836  1.0
  Ge  Ge37  1  0.14686526  0.43563674  0.87592836  1.0
  Ge  Ge38  1  0.14686526  0.76897007  0.87592836  1.0
  Ge  Ge39  1  0.48019860  0.10230340  0.87592836  1.0
  Ge  Ge40  1  0.48019860  0.43563674  0.87592836  1.0
  Ge  Ge41  1  0.48019860  0.76897007  0.87592836  1.0
  Ge  Ge42  1  0.81353193  0.10230340  0.87592836  1.0
  Ge  Ge43  1  0.81353193  0.43563674  0.87592836  1.0
  Ge  Ge44  1  0.81353193  0.76897007  0.87592836  1.0
  Ge  Ge45  1  0.26591288  0.31658912  0.94735693  1.0
  Ge  Ge46  1  0.26591288  0.64992245  0.94735693  1.0
  Ge  Ge47  1  0.26591288  0.98325579  0.94735693  1.0
  Ge  Ge48  1  0.59924621  0.31658912  0.94735693  1.0
  Ge  Ge49  1  0.59924621  0.64992245  0.94735693  1.0
  Ge  Ge50  1  0.59924621  0.98325579  0.94735693  1.0
  Ge  Ge51  1  0.93257955  0.31658912  0.94735693  1.0
  Ge  Ge52  1  0.93257955  0.64992245  0.94735693  1.0
  Ge  Ge53  1  0.93257955  0.98325579  0.94735693  1.0
  Ge  Ge54  1  0.04738955  0.03677512  0.90908693  1.0
  Ge  Ge55  1  0.04738955  0.37010845  0.90908693  1.0
  Ge  Ge56  1  0.04738955  0.70344179  0.90908693  1.0
  Ge  Ge57  1  0.38072288  0.03677512  0.90908693  1.0
  Ge  Ge58  1  0.38072288  0.37010845  0.90908693  1.0
  Ge  Ge59  1  0.38072288  0.70344179  0.90908693  1.0
  Ge  Ge60  1  0.71405621  0.03677512  0.90908693  1.0
  Ge  Ge61  1  0.71405621  0.37010845  0.90908693  1.0
  Ge  Ge62  1  0.71405621  0.70344179  0.90908693  1.0
  Ge  Ge63  1  0.16643717  0.25106083  0.98051550  1.0
  Ge  Ge64  1  0.16643717  0.58439417  0.98051550  1.0
  Ge  Ge65  1  0.16643717  0.91772750  0.98051550  1.0
  Ge  Ge66  1  0.49977050  0.25106083  0.98051550  1.0
  Ge  Ge67  1  0.49977050  0.58439417  0.98051550  1.0
  Ge  Ge68  1  0.49977050  0.91772750  0.98051550  1.0
  Ge  Ge69  1  0.83310383  0.25106083  0.98051550  1.0
  Ge  Ge70  1  0.83310383  0.58439417  0.98051550  1.0
  Ge  Ge71  1  0.83310383  0.91772750  0.98051550  1.0
  Ge  Ge72  1  0.13748793  0.19508474  0.96034236  1.0
  Ge  Ge73  1  0.13748793  0.52841807  0.96034236  1.0
  Ge  Ge74  1  0.13748793  0.86175140  0.96034236  1.0
  Ge  Ge75  1  0.47082126  0.19508474  0.96034236  1.0
  Ge  Ge76  1  0.47082126  0.52841807  0.96034236  1.0
  Ge  Ge77  1  0.47082126  0.86175140  0.96034236  1.0
  Ge  Ge78  1  0.80415460  0.19508474  0.96034236  1.0
  Ge  Ge79  1  0.80415460  0.52841807  0.96034236  1.0
  Ge  Ge80  1  0.80415460  0.86175140  0.96034236  1.0
  Ge  Ge81  1  0.01844031  0.31413236  0.88891379  1.0
  Ge  Ge82  1  0.01844031  0.64746569  0.88891379  1.0
  Ge  Ge83  1  0.01844031  0.98079902  0.88891379  1.0
  Ge  Ge84  1  0.35177364  0.31413236  0.88891379  1.0
  Ge  Ge85  1  0.35177364  0.64746569  0.88891379  1.0
  Ge  Ge86  1  0.35177364  0.98079902  0.88891379  1.0
  Ge  Ge87  1  0.68510698  0.31413236  0.88891379  1.0
  Ge  Ge88  1  0.68510698  0.64746569  0.88891379  1.0
  Ge  Ge89  1  0.68510698  0.98079902  0.88891379  1.0
  Ge  Ge90  1  0.28847150  0.04562250  0.91001450  1.0
  Ge  Ge91  1  0.28847150  0.37895583  0.91001450  1.0
  Ge  Ge92  1  0.28847150  0.71228917  0.91001450  1.0
  Ge  Ge93  1  0.62180483  0.04562250  0.91001450  1.0
  Ge  Ge94  1  0.62180483  0.37895583  0.91001450  1.0
  Ge  Ge95  1  0.62180483  0.71228917  0.91001450  1.0
  Ge  Ge96  1  0.95513817  0.04562250  0.91001450  1.0
  Ge  Ge97  1  0.95513817  0.37895583  0.91001450  1.0
  Ge  Ge98  1  0.95513817  0.71228917  0.91001450  1.0
  Ge  Ge99  1  0.07418579  0.25990821  0.98144307  1.0
  Ge  Ge100  1  0.07418579  0.59324155  0.98144307  1.0
  Ge  Ge101  1  0.07418579  0.92657488  0.98144307  1.0
  Ge  Ge102  1  0.40751912  0.25990821  0.98144307  1.0
  Ge  Ge103  1  0.40751912  0.59324155  0.98144307  1.0
  Ge  Ge104  1  0.40751912  0.92657488  0.98144307  1.0
  Ge  Ge105  1  0.74085245  0.25990821  0.98144307  1.0
  Ge  Ge106  1  0.74085245  0.59324155  0.98144307  1.0
  Ge  Ge107  1  0.74085245  0.92657488  0.98144307  1.0
  Ge  Ge108  1  0.03624486  0.13109914  0.98896071  1.0
  Ge  Ge109  1  0.03624486  0.46443248  0.98896071  1.0
  Ge  Ge110  1  0.03624486  0.79776581  0.98896071  1.0
  Ge  Ge111  1  0.36957819  0.13109914  0.98896071  1.0
  Ge  Ge112  1  0.36957819  0.46443248  0.98896071  1.0
  Ge  Ge113  1  0.36957819  0.79776581  0.98896071  1.0
  Ge  Ge114  1  0.70291152  0.13109914  0.98896071  1.0
  Ge  Ge115  1  0.70291152  0.46443248  0.98896071  1.0
  Ge  Ge116  1  0.70291152  0.79776581  0.98896071  1.0
  Ge  Ge117  1  0.25053057  0.25014676  0.91753214  1.0
  Ge  Ge118  1  0.25053057  0.58348010  0.91753214  1.0
  Ge  Ge119  1  0.25053057  0.91681343  0.91753214  1.0
  Ge  Ge120  1  0.58386390  0.25014676  0.91753214  1.0
  Ge  Ge121  1  0.58386390  0.58348010  0.91753214  1.0
  Ge  Ge122  1  0.58386390  0.91681343  0.91753214  1.0
  Ge  Ge123  1  0.91719724  0.25014676  0.91753214  1.0
  Ge  Ge124  1  0.91719724  0.58348010  0.91753214  1.0
  Ge  Ge125  1  0.91719724  0.91681343  0.91753214  1.0
  Ge  Ge126  1  0.05528210  0.11070724  0.87150386  1.0
  Ge  Ge127  1  0.05528210  0.44404057  0.87150386  1.0
  Ge  Ge128  1  0.05528210  0.77737390  0.87150386  1.0
  Ge  Ge129  1  0.38861543  0.11070724  0.87150386  1.0
  Ge  Ge130  1  0.38861543  0.44404057  0.87150386  1.0
  Ge  Ge131  1  0.38861543  0.77737390  0.87150386  1.0
  Ge  Ge132  1  0.72194876  0.11070724  0.87150386  1.0
  Ge  Ge133  1  0.72194876  0.44404057  0.87150386  1.0
  Ge  Ge134  1  0.72194876  0.77737390  0.87150386  1.0
  Ge  Ge135  1  0.17432971  0.32499295  0.94293243  1.0
  Ge  Ge136  1  0.17432971  0.65832629  0.94293243  1.0
  Ge  Ge137  1  0.17432971  0.99165962  0.94293243  1.0
  Ge  Ge138  1  0.50766305  0.32499295  0.94293243  1.0
  Ge  Ge139  1  0.50766305  0.65832629  0.94293243  1.0
  Ge  Ge140  1  0.50766305  0.99165962  0.94293243  1.0
  Ge  Ge141  1  0.84099638  0.32499295  0.94293243  1.0
  Ge  Ge142  1  0.84099638  0.65832629  0.94293243  1.0
  Ge  Ge143  1  0.84099638  0.99165962  0.94293243  1.0
  Ge  Ge144  1  0.08281771  0.16642929  0.89663543  1.0
  Ge  Ge145  1  0.08281771  0.49976262  0.89663543  1.0
  Ge  Ge146  1  0.08281771  0.83309595  0.89663543  1.0
  Ge  Ge147  1  0.41615105  0.16642929  0.89663543  1.0
  Ge  Ge148  1  0.41615105  0.49976262  0.89663543  1.0
  Ge  Ge149  1  0.41615105  0.83309595  0.89663543  1.0
  Ge  Ge150  1  0.74948438  0.16642929  0.89663543  1.0
  Ge  Ge151  1  0.74948438  0.49976262  0.89663543  1.0
  Ge  Ge152  1  0.74948438  0.83309595  0.89663543  1.0
  Ge  Ge153  1  0.20186533  0.04738167  0.96806400  1.0
  Ge  Ge154  1  0.20186533  0.38071500  0.96806400  1.0
  Ge  Ge155  1  0.20186533  0.71404833  0.96806400  1.0
  Ge  Ge156  1  0.53519867  0.04738167  0.96806400  1.0
  Ge  Ge157  1  0.53519867  0.38071500  0.96806400  1.0
  Ge  Ge158  1  0.53519867  0.71404833  0.96806400  1.0
  Ge  Ge159  1  0.86853200  0.04738167  0.96806400  1.0
  Ge  Ge160  1  0.86853200  0.38071500  0.96806400  1.0
  Ge  Ge161  1  0.86853200  0.71404833  0.96806400  1.0
  Ge  Ge162  1  0.11129950  0.30612017  0.88714150  1.0
  Ge  Ge163  1  0.11129950  0.63945350  0.88714150  1.0
  Ge  Ge164  1  0.11129950  0.97278683  0.88714150  1.0
  Ge  Ge165  1  0.44463283  0.30612017  0.88714150  1.0
  Ge  Ge166  1  0.44463283  0.63945350  0.88714150  1.0
  Ge  Ge167  1  0.44463283  0.97278683  0.88714150  1.0
  Ge  Ge168  1  0.77796617  0.30612017  0.88714150  1.0
  Ge  Ge169  1  0.77796617  0.63945350  0.88714150  1.0
  Ge  Ge170  1  0.77796617  0.97278683  0.88714150  1.0
  Ge  Ge171  1  0.23034712  0.18707255  0.95857007  1.0
  Ge  Ge172  1  0.23034712  0.52040588  0.95857007  1.0
  Ge  Ge173  1  0.23034712  0.85373921  0.95857007  1.0
  Ge  Ge174  1  0.56368045  0.18707255  0.95857007  1.0
  Ge  Ge175  1  0.56368045  0.52040588  0.95857007  1.0
  Ge  Ge176  1  0.56368045  0.85373921  0.95857007  1.0
  Ge  Ge177  1  0.89701379  0.18707255  0.95857007  1.0
  Ge  Ge178  1  0.89701379  0.52040588  0.95857007  1.0
  Ge  Ge179  1  0.89701379  0.85373921  0.95857007  1.0
  Ge  Ge180  1  0.30625298  0.10974202  0.94352379  1.0
  Ge  Ge181  1  0.30625298  0.44307536  0.94352379  1.0
  Ge  Ge182  1  0.30625298  0.77640869  0.94352379  1.0
  Ge  Ge183  1  0.63958631  0.10974202  0.94352379  1.0
  Ge  Ge184  1  0.63958631  0.44307536  0.94352379  1.0
  Ge  Ge185  1  0.63958631  0.77640869  0.94352379  1.0
  Ge  Ge186  1  0.97291964  0.10974202  0.94352379  1.0
  Ge  Ge187  1  0.97291964  0.44307536  0.94352379  1.0
  Ge  Ge188  1  0.97291964  0.77640869  0.94352379  1.0
  Ge  Ge189  1  0.18720536  0.22878964  0.87209521  1.0
  Ge  Ge190  1  0.18720536  0.56212298  0.87209521  1.0
  Ge  Ge191  1  0.18720536  0.89545631  0.87209521  1.0
  Ge  Ge192  1  0.52053869  0.22878964  0.87209521  1.0
  Ge  Ge193  1  0.52053869  0.56212298  0.87209521  1.0
  Ge  Ge194  1  0.52053869  0.89545631  0.87209521  1.0
  Ge  Ge195  1  0.85387202  0.22878964  0.87209521  1.0
  Ge  Ge196  1  0.85387202  0.56212298  0.87209521  1.0
  Ge  Ge197  1  0.85387202  0.89545631  0.87209521  1.0
  Ge  Ge198  1  0.00910950  0.24156217  0.93146050  1.0
  Ge  Ge199  1  0.00910950  0.57489550  0.93146050  1.0
  Ge  Ge200  1  0.00910950  0.90822883  0.93146050  1.0
  Ge  Ge201  1  0.34244283  0.24156217  0.93146050  1.0
  Ge  Ge202  1  0.34244283  0.57489550  0.93146050  1.0
  Ge  Ge203  1  0.34244283  0.90822883  0.93146050  1.0
  Ge  Ge204  1  0.67577617  0.24156217  0.93146050  1.0
  Ge  Ge205  1  0.67577617  0.57489550  0.93146050  1.0
  Ge  Ge206  1  0.67577617  0.90822883  0.93146050  1.0
  Ge  Ge207  1  0.22339521  0.02727645  0.86003193  1.0
  Ge  Ge208  1  0.22339521  0.36060979  0.86003193  1.0
  Ge  Ge209  1  0.22339521  0.69394312  0.86003193  1.0
  Ge  Ge210  1  0.55672855  0.02727645  0.86003193  1.0
  Ge  Ge211  1  0.55672855  0.36060979  0.86003193  1.0
  Ge  Ge212  1  0.55672855  0.69394312  0.86003193  1.0
  Ge  Ge213  1  0.89006188  0.02727645  0.86003193  1.0
  Ge  Ge214  1  0.89006188  0.36060979  0.86003193  1.0
  Ge  Ge215  1  0.89006188  0.69394312  0.86003193  1.0
  Ge  Ge216  1  0.09287698  0.24045636  0.85425379  1.0
  Ge  Ge217  1  0.09287698  0.57378969  0.85425379  1.0
  Ge  Ge218  1  0.09287698  0.90712302  0.85425379  1.0
  Ge  Ge219  1  0.42621031  0.24045636  0.85425379  1.0
  Ge  Ge220  1  0.42621031  0.57378969  0.85425379  1.0
  Ge  Ge221  1  0.42621031  0.90712302  0.85425379  1.0
  Ge  Ge222  1  0.75954364  0.24045636  0.85425379  1.0
  Ge  Ge223  1  0.75954364  0.57378969  0.85425379  1.0
  Ge  Ge224  1  0.75954364  0.90712302  0.85425379  1.0
  Ge  Ge225  1  0.30716269  0.02617064  0.78282521  1.0
  Ge  Ge226  1  0.30716269  0.35950398  0.78282521  1.0
  Ge  Ge227  1  0.30716269  0.69283731  0.78282521  1.0
  Ge  Ge228  1  0.64049602  0.02617064  0.78282521  1.0
  Ge  Ge229  1  0.64049602  0.35950398  0.78282521  1.0
  Ge  Ge230  1  0.64049602  0.69283731  0.78282521  1.0
  Ge  Ge231  1  0.97382936  0.02617064  0.78282521  1.0
  Ge  Ge232  1  0.97382936  0.35950398  0.78282521  1.0
  Ge  Ge233  1  0.97382936  0.69283731  0.78282521  1.0
  Ge  Ge234  1  0.08212660  0.08454007  0.75750036  1.0
  Ge  Ge235  1  0.08212660  0.41787340  0.75750036  1.0
  Ge  Ge236  1  0.08212660  0.75120674  0.75750036  1.0
  Ge  Ge237  1  0.41545993  0.08454007  0.75750036  1.0
  Ge  Ge238  1  0.41545993  0.41787340  0.75750036  1.0
  Ge  Ge239  1  0.41545993  0.75120674  0.75750036  1.0
  Ge  Ge240  1  0.74879326  0.08454007  0.75750036  1.0
  Ge  Ge241  1  0.74879326  0.41787340  0.75750036  1.0
  Ge  Ge242  1  0.74879326  0.75120674  0.75750036  1.0
  Ge  Ge243  1  0.20117421  0.29882579  0.82892893  1.0
  Ge  Ge244  1  0.20117421  0.63215912  0.82892893  1.0
  Ge  Ge245  1  0.20117421  0.96549245  0.82892893  1.0
  Ge  Ge246  1  0.53450755  0.29882579  0.82892893  1.0
  Ge  Ge247  1  0.53450755  0.63215912  0.82892893  1.0
  Ge  Ge248  1  0.53450755  0.96549245  0.82892893  1.0
  Ge  Ge249  1  0.86784088  0.29882579  0.82892893  1.0
  Ge  Ge250  1  0.86784088  0.63215912  0.82892893  1.0
  Ge  Ge251  1  0.86784088  0.96549245  0.82892893  1.0
  Ge  Ge252  1  0.24210336  0.00706531  0.73307121  1.0
  Ge  Ge253  1  0.24210336  0.34039864  0.73307121  1.0
  Ge  Ge254  1  0.24210336  0.67373198  0.73307121  1.0
  Ge  Ge255  1  0.57543669  0.00706531  0.73307121  1.0
  Ge  Ge256  1  0.57543669  0.34039864  0.73307121  1.0
  Ge  Ge257  1  0.57543669  0.67373198  0.73307121  1.0
  Ge  Ge258  1  0.90877002  0.00706531  0.73307121  1.0
  Ge  Ge259  1  0.90877002  0.34039864  0.73307121  1.0
  Ge  Ge260  1  0.90877002  0.67373198  0.73307121  1.0
  Ge  Ge261  1  0.02781764  0.22135102  0.80449979  1.0
  Ge  Ge262  1  0.02781764  0.55468436  0.80449979  1.0
  Ge  Ge263  1  0.02781764  0.88801769  0.80449979  1.0
  Ge  Ge264  1  0.36115098  0.22135102  0.80449979  1.0
  Ge  Ge265  1  0.36115098  0.55468436  0.80449979  1.0
  Ge  Ge266  1  0.36115098  0.88801769  0.80449979  1.0
  Ge  Ge267  1  0.69448431  0.22135102  0.80449979  1.0
  Ge  Ge268  1  0.69448431  0.55468436  0.80449979  1.0
  Ge  Ge269  1  0.69448431  0.88801769  0.80449979  1.0
  Ge  Ge270  1  0.14262764  0.27487036  0.76622979  1.0
  Ge  Ge271  1  0.14262764  0.60820369  0.76622979  1.0
  Ge  Ge272  1  0.14262764  0.94153702  0.76622979  1.0
  Ge  Ge273  1  0.47596098  0.27487036  0.76622979  1.0
  Ge  Ge274  1  0.47596098  0.60820369  0.76622979  1.0
  Ge  Ge275  1  0.47596098  0.94153702  0.76622979  1.0
  Ge  Ge276  1  0.80929431  0.27487036  0.76622979  1.0
  Ge  Ge277  1  0.80929431  0.60820369  0.76622979  1.0
  Ge  Ge278  1  0.80929431  0.94153702  0.76622979  1.0
  Ge  Ge279  1  0.26167526  0.15582274  0.83765836  1.0
  Ge  Ge280  1  0.26167526  0.48915607  0.83765836  1.0
  Ge  Ge281  1  0.26167526  0.82248940  0.83765836  1.0
  Ge  Ge282  1  0.59500860  0.15582274  0.83765836  1.0
  Ge  Ge283  1  0.59500860  0.48915607  0.83765836  1.0
  Ge  Ge284  1  0.59500860  0.82248940  0.83765836  1.0
  Ge  Ge285  1  0.92834193  0.15582274  0.83765836  1.0
  Ge  Ge286  1  0.92834193  0.48915607  0.83765836  1.0
  Ge  Ge287  1  0.92834193  0.82248940  0.83765836  1.0
  Ge  Ge288  1  0.23272602  0.09984664  0.81748521  1.0
  Ge  Ge289  1  0.23272602  0.43317998  0.81748521  1.0
  Ge  Ge290  1  0.23272602  0.76651331  0.81748521  1.0
  Ge  Ge291  1  0.56605936  0.09984664  0.81748521  1.0
  Ge  Ge292  1  0.56605936  0.43317998  0.81748521  1.0
  Ge  Ge293  1  0.56605936  0.76651331  0.81748521  1.0
  Ge  Ge294  1  0.89939269  0.09984664  0.81748521  1.0
  Ge  Ge295  1  0.89939269  0.43317998  0.81748521  1.0
  Ge  Ge296  1  0.89939269  0.76651331  0.81748521  1.0
  Ge  Ge297  1  0.11367840  0.21889426  0.74605664  1.0
  Ge  Ge298  1  0.11367840  0.55222760  0.74605664  1.0
  Ge  Ge299  1  0.11367840  0.88556093  0.74605664  1.0
  Ge  Ge300  1  0.44701174  0.21889426  0.74605664  1.0
  Ge  Ge301  1  0.44701174  0.55222760  0.74605664  1.0
  Ge  Ge302  1  0.44701174  0.88556093  0.74605664  1.0
  Ge  Ge303  1  0.78034507  0.21889426  0.74605664  1.0
  Ge  Ge304  1  0.78034507  0.55222760  0.74605664  1.0
  Ge  Ge305  1  0.78034507  0.88556093  0.74605664  1.0
  Ge  Ge306  1  0.05037626  0.28371774  0.76715736  1.0
  Ge  Ge307  1  0.05037626  0.61705107  0.76715736  1.0
  Ge  Ge308  1  0.05037626  0.95038440  0.76715736  1.0
  Ge  Ge309  1  0.38370960  0.28371774  0.76715736  1.0
  Ge  Ge310  1  0.38370960  0.61705107  0.76715736  1.0
  Ge  Ge311  1  0.38370960  0.95038440  0.76715736  1.0
  Ge  Ge312  1  0.71704293  0.28371774  0.76715736  1.0
  Ge  Ge313  1  0.71704293  0.61705107  0.76715736  1.0
  Ge  Ge314  1  0.71704293  0.95038440  0.76715736  1.0
  Ge  Ge315  1  0.16942388  0.16467012  0.83858593  1.0
  Ge  Ge316  1  0.16942388  0.49800345  0.83858593  1.0
  Ge  Ge317  1  0.16942388  0.83133679  0.83858593  1.0
  Ge  Ge318  1  0.50275721  0.16467012  0.83858593  1.0
  Ge  Ge319  1  0.50275721  0.49800345  0.83858593  1.0
  Ge  Ge320  1  0.50275721  0.83133679  0.83858593  1.0
  Ge  Ge321  1  0.83609055  0.16467012  0.83858593  1.0
  Ge  Ge322  1  0.83609055  0.49800345  0.83858593  1.0
  Ge  Ge323  1  0.83609055  0.83133679  0.83858593  1.0
  Ge  Ge324  1  0.13148295  0.03586105  0.84610357  1.0
  Ge  Ge325  1  0.13148295  0.36919438  0.84610357  1.0
  Ge  Ge326  1  0.13148295  0.70252771  0.84610357  1.0
  Ge  Ge327  1  0.46481629  0.03586105  0.84610357  1.0
  Ge  Ge328  1  0.46481629  0.36919438  0.84610357  1.0
  Ge  Ge329  1  0.46481629  0.70252771  0.84610357  1.0
  Ge  Ge330  1  0.79814962  0.03586105  0.84610357  1.0
  Ge  Ge331  1  0.79814962  0.36919438  0.84610357  1.0
  Ge  Ge332  1  0.79814962  0.70252771  0.84610357  1.0
  Ge  Ge333  1  0.01243533  0.15490867  0.77467500  1.0
  Ge  Ge334  1  0.01243533  0.48824200  0.77467500  1.0
  Ge  Ge335  1  0.01243533  0.82157533  0.77467500  1.0
  Ge  Ge336  1  0.34576867  0.15490867  0.77467500  1.0
  Ge  Ge337  1  0.34576867  0.48824200  0.77467500  1.0
  Ge  Ge338  1  0.34576867  0.82157533  0.77467500  1.0
  Ge  Ge339  1  0.67910200  0.15490867  0.77467500  1.0
  Ge  Ge340  1  0.67910200  0.48824200  0.77467500  1.0
  Ge  Ge341  1  0.67910200  0.82157533  0.77467500  1.0
  Ge  Ge342  1  0.15052019  0.01546914  0.72864671  1.0
  Ge  Ge343  1  0.15052019  0.34880248  0.72864671  1.0
  Ge  Ge344  1  0.15052019  0.68213581  0.72864671  1.0
  Ge  Ge345  1  0.48385352  0.01546914  0.72864671  1.0
  Ge  Ge346  1  0.48385352  0.34880248  0.72864671  1.0
  Ge  Ge347  1  0.48385352  0.68213581  0.72864671  1.0
  Ge  Ge348  1  0.81718686  0.01546914  0.72864671  1.0
  Ge  Ge349  1  0.81718686  0.34880248  0.72864671  1.0
  Ge  Ge350  1  0.81718686  0.68213581  0.72864671  1.0
  Ge  Ge351  1  0.26956781  0.22975486  0.80007529  1.0
  Ge  Ge352  1  0.26956781  0.56308819  0.80007529  1.0
  Ge  Ge353  1  0.26956781  0.89642152  0.80007529  1.0
  Ge  Ge354  1  0.60290114  0.22975486  0.80007529  1.0
  Ge  Ge355  1  0.60290114  0.56308819  0.80007529  1.0
  Ge  Ge356  1  0.60290114  0.89642152  0.80007529  1.0
  Ge  Ge357  1  0.93623448  0.22975486  0.80007529  1.0
  Ge  Ge358  1  0.93623448  0.56308819  0.80007529  1.0
  Ge  Ge359  1  0.93623448  0.89642152  0.80007529  1.0
  Ge  Ge360  1  0.17805581  0.07119119  0.75377829  1.0
  Ge  Ge361  1  0.17805581  0.40452452  0.75377829  1.0
  Ge  Ge362  1  0.17805581  0.73785786  0.75377829  1.0
  Ge  Ge363  1  0.51138914  0.07119119  0.75377829  1.0
  Ge  Ge364  1  0.51138914  0.40452452  0.75377829  1.0
  Ge  Ge365  1  0.51138914  0.73785786  0.75377829  1.0
  Ge  Ge366  1  0.84472248  0.07119119  0.75377829  1.0
  Ge  Ge367  1  0.84472248  0.40452452  0.75377829  1.0
  Ge  Ge368  1  0.84472248  0.73785786  0.75377829  1.0
  Ge  Ge369  1  0.29710343  0.28547690  0.82520686  1.0
  Ge  Ge370  1  0.29710343  0.61881024  0.82520686  1.0
  Ge  Ge371  1  0.29710343  0.95214357  0.82520686  1.0
  Ge  Ge372  1  0.63043676  0.28547690  0.82520686  1.0
  Ge  Ge373  1  0.63043676  0.61881024  0.82520686  1.0
  Ge  Ge374  1  0.63043676  0.95214357  0.82520686  1.0
  Ge  Ge375  1  0.96377010  0.28547690  0.82520686  1.0
  Ge  Ge376  1  0.96377010  0.61881024  0.82520686  1.0
  Ge  Ge377  1  0.96377010  0.95214357  0.82520686  1.0
  Ge  Ge378  1  0.20653760  0.21088207  0.74428436  1.0
  Ge  Ge379  1  0.20653760  0.54421540  0.74428436  1.0
  Ge  Ge380  1  0.20653760  0.87754874  0.74428436  1.0
  Ge  Ge381  1  0.53987093  0.21088207  0.74428436  1.0
  Ge  Ge382  1  0.53987093  0.54421540  0.74428436  1.0
  Ge  Ge383  1  0.53987093  0.87754874  0.74428436  1.0
  Ge  Ge384  1  0.87320426  0.21088207  0.74428436  1.0
  Ge  Ge385  1  0.87320426  0.54421540  0.74428436  1.0
  Ge  Ge386  1  0.87320426  0.87754874  0.74428436  1.0
  Ge  Ge387  1  0.32558521  0.09183445  0.81571293  1.0
  Ge  Ge388  1  0.32558521  0.42516779  0.81571293  1.0
  Ge  Ge389  1  0.32558521  0.75850112  0.81571293  1.0
  Ge  Ge390  1  0.65891855  0.09183445  0.81571293  1.0
  Ge  Ge391  1  0.65891855  0.42516779  0.81571293  1.0
  Ge  Ge392  1  0.65891855  0.75850112  0.81571293  1.0
  Ge  Ge393  1  0.99225188  0.09183445  0.81571293  1.0
  Ge  Ge394  1  0.99225188  0.42516779  0.81571293  1.0
  Ge  Ge395  1  0.99225188  0.75850112  0.81571293  1.0
  Ge  Ge396  1  0.06815774  0.01450393  0.80066664  1.0
  Ge  Ge397  1  0.06815774  0.34783726  0.80066664  1.0
  Ge  Ge398  1  0.06815774  0.68117060  0.80066664  1.0
  Ge  Ge399  1  0.40149107  0.01450393  0.80066664  1.0
  Ge  Ge400  1  0.40149107  0.34783726  0.80066664  1.0
  Ge  Ge401  1  0.40149107  0.68117060  0.80066664  1.0
  Ge  Ge402  1  0.73482440  0.01450393  0.80066664  1.0
  Ge  Ge403  1  0.73482440  0.34783726  0.80066664  1.0
  Ge  Ge404  1  0.73482440  0.68117060  0.80066664  1.0
  Ge  Ge405  1  0.28244345  0.13355155  0.72923807  1.0
  Ge  Ge406  1  0.28244345  0.46688488  0.72923807  1.0
  Ge  Ge407  1  0.28244345  0.80021821  0.72923807  1.0
  Ge  Ge408  1  0.61577679  0.13355155  0.72923807  1.0
  Ge  Ge409  1  0.61577679  0.46688488  0.72923807  1.0
  Ge  Ge410  1  0.61577679  0.80021821  0.72923807  1.0
  Ge  Ge411  1  0.94911012  0.13355155  0.72923807  1.0
  Ge  Ge412  1  0.94911012  0.46688488  0.72923807  1.0
  Ge  Ge413  1  0.94911012  0.80021821  0.72923807  1.0
  Ge  Ge414  1  0.10434760  0.14632407  0.78860336  1.0
  Ge  Ge415  1  0.10434760  0.47965740  0.78860336  1.0
  Ge  Ge416  1  0.10434760  0.81299074  0.78860336  1.0
  Ge  Ge417  1  0.43768093  0.14632407  0.78860336  1.0
  Ge  Ge418  1  0.43768093  0.47965740  0.78860336  1.0
  Ge  Ge419  1  0.43768093  0.81299074  0.78860336  1.0
  Ge  Ge420  1  0.77101426  0.14632407  0.78860336  1.0
  Ge  Ge421  1  0.77101426  0.47965740  0.78860336  1.0
  Ge  Ge422  1  0.77101426  0.81299074  0.78860336  1.0
  Ge  Ge423  1  0.31863331  0.26537169  0.71717479  1.0
  Ge  Ge424  1  0.31863331  0.59870502  0.71717479  1.0
  Ge  Ge425  1  0.31863331  0.93203836  0.71717479  1.0
  Ge  Ge426  1  0.65196664  0.26537169  0.71717479  1.0
  Ge  Ge427  1  0.65196664  0.59870502  0.71717479  1.0
  Ge  Ge428  1  0.65196664  0.93203836  0.71717479  1.0
  Ge  Ge429  1  0.98529998  0.26537169  0.71717479  1.0
  Ge  Ge430  1  0.98529998  0.59870502  0.71717479  1.0
  Ge  Ge431  1  0.98529998  0.93203836  0.71717479  1.0
  Ge  Ge432  1  0.18811507  0.14521826  0.71139664  1.0
  Ge  Ge433  1  0.18811507  0.47855160  0.71139664  1.0
  Ge  Ge434  1  0.18811507  0.81188493  0.71139664  1.0
  Ge  Ge435  1  0.52144840  0.14521826  0.71139664  1.0
  Ge  Ge436  1  0.52144840  0.47855160  0.71139664  1.0
  Ge  Ge437  1  0.52144840  0.81188493  0.71139664  1.0
  Ge  Ge438  1  0.85478174  0.14521826  0.71139664  1.0
  Ge  Ge439  1  0.85478174  0.47855160  0.71139664  1.0
  Ge  Ge440  1  0.85478174  0.81188493  0.71139664  1.0
  Ge  Ge441  1  0.06906745  0.26426588  0.63996807  1.0
  Ge  Ge442  1  0.06906745  0.59759921  0.63996807  1.0
  Ge  Ge443  1  0.06906745  0.93093255  0.63996807  1.0
  Ge  Ge444  1  0.40240079  0.26426588  0.63996807  1.0
  Ge  Ge445  1  0.40240079  0.59759921  0.63996807  1.0
  Ge  Ge446  1  0.40240079  0.93093255  0.63996807  1.0
  Ge  Ge447  1  0.73573412  0.26426588  0.63996807  1.0
  Ge  Ge448  1  0.73573412  0.59759921  0.63996807  1.0
  Ge  Ge449  1  0.73573412  0.93093255  0.63996807  1.0
  Ge  Ge450  1  0.17736469  0.32263531  0.61464321  1.0
  Ge  Ge451  1  0.17736469  0.65596864  0.61464321  1.0
  Ge  Ge452  1  0.17736469  0.98930198  0.61464321  1.0
  Ge  Ge453  1  0.51069802  0.32263531  0.61464321  1.0
  Ge  Ge454  1  0.51069802  0.65596864  0.61464321  1.0
  Ge  Ge455  1  0.51069802  0.98930198  0.61464321  1.0
  Ge  Ge456  1  0.84403136  0.32263531  0.61464321  1.0
  Ge  Ge457  1  0.84403136  0.65596864  0.61464321  1.0
  Ge  Ge458  1  0.84403136  0.98930198  0.61464321  1.0
  Ge  Ge459  1  0.29641231  0.20358769  0.68607179  1.0
  Ge  Ge460  1  0.29641231  0.53692102  0.68607179  1.0
  Ge  Ge461  1  0.29641231  0.87025436  0.68607179  1.0
  Ge  Ge462  1  0.62974564  0.20358769  0.68607179  1.0
  Ge  Ge463  1  0.62974564  0.53692102  0.68607179  1.0
  Ge  Ge464  1  0.62974564  0.87025436  0.68607179  1.0
  Ge  Ge465  1  0.96307898  0.20358769  0.68607179  1.0
  Ge  Ge466  1  0.96307898  0.53692102  0.68607179  1.0
  Ge  Ge467  1  0.96307898  0.87025436  0.68607179  1.0
  Ge  Ge468  1  0.00400812  0.24516055  0.59021407  1.0
  Ge  Ge469  1  0.00400812  0.57849388  0.59021407  1.0
  Ge  Ge470  1  0.00400812  0.91182721  0.59021407  1.0
  Ge  Ge471  1  0.33734145  0.24516055  0.59021407  1.0
  Ge  Ge472  1  0.33734145  0.57849388  0.59021407  1.0
  Ge  Ge473  1  0.33734145  0.91182721  0.59021407  1.0
  Ge  Ge474  1  0.67067479  0.24516055  0.59021407  1.0
  Ge  Ge475  1  0.67067479  0.57849388  0.59021407  1.0
  Ge  Ge476  1  0.67067479  0.91182721  0.59021407  1.0
  Ge  Ge477  1  0.12305574  0.12611293  0.66164264  1.0
  Ge  Ge478  1  0.12305574  0.45944626  0.66164264  1.0
  Ge  Ge479  1  0.12305574  0.79277960  0.66164264  1.0
  Ge  Ge480  1  0.45638907  0.12611293  0.66164264  1.0
  Ge  Ge481  1  0.45638907  0.45944626  0.66164264  1.0
  Ge  Ge482  1  0.45638907  0.79277960  0.66164264  1.0
  Ge  Ge483  1  0.78972240  0.12611293  0.66164264  1.0
  Ge  Ge484  1  0.78972240  0.45944626  0.66164264  1.0
  Ge  Ge485  1  0.78972240  0.79277960  0.66164264  1.0
  Ge  Ge486  1  0.23786574  0.17963226  0.62337264  1.0
  Ge  Ge487  1  0.23786574  0.51296560  0.62337264  1.0
  Ge  Ge488  1  0.23786574  0.84629893  0.62337264  1.0
  Ge  Ge489  1  0.57119907  0.17963226  0.62337264  1.0
  Ge  Ge490  1  0.57119907  0.51296560  0.62337264  1.0
  Ge  Ge491  1  0.57119907  0.84629893  0.62337264  1.0
  Ge  Ge492  1  0.90453240  0.17963226  0.62337264  1.0
  Ge  Ge493  1  0.90453240  0.51296560  0.62337264  1.0
  Ge  Ge494  1  0.90453240  0.84629893  0.62337264  1.0
  Ge  Ge495  1  0.02358002  0.06058464  0.69480121  1.0
  Ge  Ge496  1  0.02358002  0.39391798  0.69480121  1.0
  Ge  Ge497  1  0.02358002  0.72725131  0.69480121  1.0
  Ge  Ge498  1  0.35691336  0.06058464  0.69480121  1.0
  Ge  Ge499  1  0.35691336  0.39391798  0.69480121  1.0
  Ge  Ge500  1  0.35691336  0.72725131  0.69480121  1.0
  Ge  Ge501  1  0.69024669  0.06058464  0.69480121  1.0
  Ge  Ge502  1  0.69024669  0.39391798  0.69480121  1.0
  Ge  Ge503  1  0.69024669  0.72725131  0.69480121  1.0
  Ge  Ge504  1  0.32796412  0.00460855  0.67462807  1.0
  Ge  Ge505  1  0.32796412  0.33794188  0.67462807  1.0
  Ge  Ge506  1  0.32796412  0.67127521  0.67462807  1.0
  Ge  Ge507  1  0.66129745  0.00460855  0.67462807  1.0
  Ge  Ge508  1  0.66129745  0.33794188  0.67462807  1.0
  Ge  Ge509  1  0.66129745  0.67127521  0.67462807  1.0
  Ge  Ge510  1  0.99463079  0.00460855  0.67462807  1.0
  Ge  Ge511  1  0.99463079  0.33794188  0.67462807  1.0
  Ge  Ge512  1  0.99463079  0.67127521  0.67462807  1.0
  Ge  Ge513  1  0.20891650  0.12365617  0.60319950  1.0
  Ge  Ge514  1  0.20891650  0.45698950  0.60319950  1.0
  Ge  Ge515  1  0.20891650  0.79032283  0.60319950  1.0
  Ge  Ge516  1  0.54224983  0.12365617  0.60319950  1.0
  Ge  Ge517  1  0.54224983  0.45698950  0.60319950  1.0
  Ge  Ge518  1  0.54224983  0.79032283  0.60319950  1.0
  Ge  Ge519  1  0.87558317  0.12365617  0.60319950  1.0
  Ge  Ge520  1  0.87558317  0.45698950  0.60319950  1.0
  Ge  Ge521  1  0.87558317  0.79032283  0.60319950  1.0
  Ge  Ge522  1  0.14561436  0.18847964  0.62430021  1.0
  Ge  Ge523  1  0.14561436  0.52181298  0.62430021  1.0
  Ge  Ge524  1  0.14561436  0.85514631  0.62430021  1.0
  Ge  Ge525  1  0.47894769  0.18847964  0.62430021  1.0
  Ge  Ge526  1  0.47894769  0.52181298  0.62430021  1.0
  Ge  Ge527  1  0.47894769  0.85514631  0.62430021  1.0
  Ge  Ge528  1  0.81228102  0.18847964  0.62430021  1.0
  Ge  Ge529  1  0.81228102  0.52181298  0.62430021  1.0
  Ge  Ge530  1  0.81228102  0.85514631  0.62430021  1.0
  Ge  Ge531  1  0.26466198  0.06943202  0.69572879  1.0
  Ge  Ge532  1  0.26466198  0.40276536  0.69572879  1.0
  Ge  Ge533  1  0.26466198  0.73609869  0.69572879  1.0
  Ge  Ge534  1  0.59799531  0.06943202  0.69572879  1.0
  Ge  Ge535  1  0.59799531  0.40276536  0.69572879  1.0
  Ge  Ge536  1  0.59799531  0.73609869  0.69572879  1.0
  Ge  Ge537  1  0.93132864  0.06943202  0.69572879  1.0
  Ge  Ge538  1  0.93132864  0.40276536  0.69572879  1.0
  Ge  Ge539  1  0.93132864  0.73609869  0.69572879  1.0
  Ge  Ge540  1  0.22672105  0.27395629  0.70324643  1.0
  Ge  Ge541  1  0.22672105  0.60728962  0.70324643  1.0
  Ge  Ge542  1  0.22672105  0.94062295  0.70324643  1.0
  Ge  Ge543  1  0.56005438  0.27395629  0.70324643  1.0
  Ge  Ge544  1  0.56005438  0.60728962  0.70324643  1.0
  Ge  Ge545  1  0.56005438  0.94062295  0.70324643  1.0
  Ge  Ge546  1  0.89338771  0.27395629  0.70324643  1.0
  Ge  Ge547  1  0.89338771  0.60728962  0.70324643  1.0
  Ge  Ge548  1  0.89338771  0.94062295  0.70324643  1.0
  Ge  Ge549  1  0.10767343  0.05967057  0.63181786  1.0
  Ge  Ge550  1  0.10767343  0.39300390  0.63181786  1.0
  Ge  Ge551  1  0.10767343  0.72633724  0.63181786  1.0
  Ge  Ge552  1  0.44100676  0.05967057  0.63181786  1.0
  Ge  Ge553  1  0.44100676  0.39300390  0.63181786  1.0
  Ge  Ge554  1  0.44100676  0.72633724  0.63181786  1.0
  Ge  Ge555  1  0.77434010  0.05967057  0.63181786  1.0
  Ge  Ge556  1  0.77434010  0.39300390  0.63181786  1.0
  Ge  Ge557  1  0.77434010  0.72633724  0.63181786  1.0
  Ge  Ge558  1  0.24575829  0.25356438  0.58578957  1.0
  Ge  Ge559  1  0.24575829  0.58689771  0.58578957  1.0
  Ge  Ge560  1  0.24575829  0.92023105  0.58578957  1.0
  Ge  Ge561  1  0.57909162  0.25356438  0.58578957  1.0
  Ge  Ge562  1  0.57909162  0.58689771  0.58578957  1.0
  Ge  Ge563  1  0.57909162  0.92023105  0.58578957  1.0
  Ge  Ge564  1  0.91242495  0.25356438  0.58578957  1.0
  Ge  Ge565  1  0.91242495  0.58689771  0.58578957  1.0
  Ge  Ge566  1  0.91242495  0.92023105  0.58578957  1.0
  Ge  Ge567  1  0.03147257  0.13451676  0.65721814  1.0
  Ge  Ge568  1  0.03147257  0.46785010  0.65721814  1.0
  Ge  Ge569  1  0.03147257  0.80118343  0.65721814  1.0
  Ge  Ge570  1  0.36480590  0.13451676  0.65721814  1.0
  Ge  Ge571  1  0.36480590  0.46785010  0.65721814  1.0
  Ge  Ge572  1  0.36480590  0.80118343  0.65721814  1.0
  Ge  Ge573  1  0.69813924  0.13451676  0.65721814  1.0
  Ge  Ge574  1  0.69813924  0.46785010  0.65721814  1.0
  Ge  Ge575  1  0.69813924  0.80118343  0.65721814  1.0
  Ge  Ge576  1  0.27329390  0.30928643  0.61092114  1.0
  Ge  Ge577  1  0.27329390  0.64261976  0.61092114  1.0
  Ge  Ge578  1  0.27329390  0.97595310  0.61092114  1.0
  Ge  Ge579  1  0.60662724  0.30928643  0.61092114  1.0
  Ge  Ge580  1  0.60662724  0.64261976  0.61092114  1.0
  Ge  Ge581  1  0.60662724  0.97595310  0.61092114  1.0
  Ge  Ge582  1  0.93996057  0.30928643  0.61092114  1.0
  Ge  Ge583  1  0.93996057  0.64261976  0.61092114  1.0
  Ge  Ge584  1  0.93996057  0.97595310  0.61092114  1.0
  Ge  Ge585  1  0.05900819  0.19023881  0.68234971  1.0
  Ge  Ge586  1  0.05900819  0.52357214  0.68234971  1.0
  Ge  Ge587  1  0.05900819  0.85690548  0.68234971  1.0
  Ge  Ge588  1  0.39234152  0.19023881  0.68234971  1.0
  Ge  Ge589  1  0.39234152  0.52357214  0.68234971  1.0
  Ge  Ge590  1  0.39234152  0.85690548  0.68234971  1.0
  Ge  Ge591  1  0.72567486  0.19023881  0.68234971  1.0
  Ge  Ge592  1  0.72567486  0.52357214  0.68234971  1.0
  Ge  Ge593  1  0.72567486  0.85690548  0.68234971  1.0
  Ge  Ge594  1  0.30177569  0.11564398  0.60142721  1.0
  Ge  Ge595  1  0.30177569  0.44897731  0.60142721  1.0
  Ge  Ge596  1  0.30177569  0.78231064  0.60142721  1.0
  Ge  Ge597  1  0.63510902  0.11564398  0.60142721  1.0
  Ge  Ge598  1  0.63510902  0.44897731  0.60142721  1.0
  Ge  Ge599  1  0.63510902  0.78231064  0.60142721  1.0
  Ge  Ge600  1  0.96844236  0.11564398  0.60142721  1.0
  Ge  Ge601  1  0.96844236  0.44897731  0.60142721  1.0
  Ge  Ge602  1  0.96844236  0.78231064  0.60142721  1.0
  Ge  Ge603  1  0.08748998  0.32992969  0.67285579  1.0
  Ge  Ge604  1  0.08748998  0.66326302  0.67285579  1.0
  Ge  Ge605  1  0.08748998  0.99659636  0.67285579  1.0
  Ge  Ge606  1  0.42082331  0.32992969  0.67285579  1.0
  Ge  Ge607  1  0.42082331  0.66326302  0.67285579  1.0
  Ge  Ge608  1  0.42082331  0.99659636  0.67285579  1.0
  Ge  Ge609  1  0.75415664  0.32992969  0.67285579  1.0
  Ge  Ge610  1  0.75415664  0.66326302  0.67285579  1.0
  Ge  Ge611  1  0.75415664  0.99659636  0.67285579  1.0
  Ge  Ge612  1  0.16339583  0.25259917  0.65780950  1.0
  Ge  Ge613  1  0.16339583  0.58593250  0.65780950  1.0
  Ge  Ge614  1  0.16339583  0.91926583  0.65780950  1.0
  Ge  Ge615  1  0.49672917  0.25259917  0.65780950  1.0
  Ge  Ge616  1  0.49672917  0.58593250  0.65780950  1.0
  Ge  Ge617  1  0.49672917  0.91926583  0.65780950  1.0
  Ge  Ge618  1  0.83006250  0.25259917  0.65780950  1.0
  Ge  Ge619  1  0.83006250  0.58593250  0.65780950  1.0
  Ge  Ge620  1  0.83006250  0.91926583  0.65780950  1.0
  Ge  Ge621  1  0.04434821  0.03831345  0.58638093  1.0
  Ge  Ge622  1  0.04434821  0.37164679  0.58638093  1.0
  Ge  Ge623  1  0.04434821  0.70498012  0.58638093  1.0
  Ge  Ge624  1  0.37768155  0.03831345  0.58638093  1.0
  Ge  Ge625  1  0.37768155  0.37164679  0.58638093  1.0
  Ge  Ge626  1  0.37768155  0.70498012  0.58638093  1.0
  Ge  Ge627  1  0.71101488  0.03831345  0.58638093  1.0
  Ge  Ge628  1  0.71101488  0.37164679  0.58638093  1.0
  Ge  Ge629  1  0.71101488  0.70498012  0.58638093  1.0
  Ge  Ge630  1  0.19958569  0.05108598  0.64574621  1.0
  Ge  Ge631  1  0.19958569  0.38441931  0.64574621  1.0
  Ge  Ge632  1  0.19958569  0.71775264  0.64574621  1.0
  Ge  Ge633  1  0.53291902  0.05108598  0.64574621  1.0
  Ge  Ge634  1  0.53291902  0.38441931  0.64574621  1.0
  Ge  Ge635  1  0.53291902  0.71775264  0.64574621  1.0
  Ge  Ge636  1  0.86625236  0.05108598  0.64574621  1.0
  Ge  Ge637  1  0.86625236  0.38441931  0.64574621  1.0
  Ge  Ge638  1  0.86625236  0.71775264  0.64574621  1.0
  Ge  Ge639  1  0.08053807  0.17013360  0.57431764  1.0
  Ge  Ge640  1  0.08053807  0.50346693  0.57431764  1.0
  Ge  Ge641  1  0.08053807  0.83680026  0.57431764  1.0
  Ge  Ge642  1  0.41387140  0.17013360  0.57431764  1.0
  Ge  Ge643  1  0.41387140  0.50346693  0.57431764  1.0
  Ge  Ge644  1  0.41387140  0.83680026  0.57431764  1.0
  Ge  Ge645  1  0.74720474  0.17013360  0.57431764  1.0
  Ge  Ge646  1  0.74720474  0.50346693  0.57431764  1.0
  Ge  Ge647  1  0.74720474  0.83680026  0.57431764  1.0
  Ni  Ni648  1  0.09757021  0.06909645  0.89649293  1.0
  Ni  Ni649  1  0.09757021  0.40242979  0.89649293  1.0
  Ni  Ni650  1  0.09757021  0.73576312  0.89649293  1.0
  Ni  Ni651  1  0.43090355  0.06909645  0.89649293  1.0
  Ni  Ni652  1  0.43090355  0.40242979  0.89649293  1.0
  Ni  Ni653  1  0.43090355  0.73576312  0.89649293  1.0
  Ni  Ni654  1  0.76423688  0.06909645  0.89649293  1.0
  Ni  Ni655  1  0.76423688  0.40242979  0.89649293  1.0
  Ni  Ni656  1  0.76423688  0.73576312  0.89649293  1.0
  Ni  Ni657  1  0.21661783  0.28338217  0.96792150  1.0
  Ni  Ni658  1  0.21661783  0.61671550  0.96792150  1.0
  Ni  Ni659  1  0.21661783  0.95004883  0.96792150  1.0
  Ni  Ni660  1  0.54995117  0.28338217  0.96792150  1.0
  Ni  Ni661  1  0.54995117  0.61671550  0.96792150  1.0
  Ni  Ni662  1  0.54995117  0.95004883  0.96792150  1.0
  Ni  Ni663  1  0.88328450  0.28338217  0.96792150  1.0
  Ni  Ni664  1  0.88328450  0.61671550  0.96792150  1.0
  Ni  Ni665  1  0.88328450  0.95004883  0.96792150  1.0
  Ni  Ni666  1  0.03948488  0.20904679  0.87853593  1.0
  Ni  Ni667  1  0.03948488  0.54238012  0.87853593  1.0
  Ni  Ni668  1  0.03948488  0.87571345  0.87853593  1.0
  Ni  Ni669  1  0.37281821  0.20904679  0.87853593  1.0
  Ni  Ni670  1  0.37281821  0.54238012  0.87853593  1.0
  Ni  Ni671  1  0.37281821  0.87571345  0.87853593  1.0
  Ni  Ni672  1  0.70615155  0.20904679  0.87853593  1.0
  Ni  Ni673  1  0.70615155  0.54238012  0.87853593  1.0
  Ni  Ni674  1  0.70615155  0.87571345  0.87853593  1.0
  Ni  Ni675  1  0.15853250  0.08999917  0.94996450  1.0
  Ni  Ni676  1  0.15853250  0.42333250  0.94996450  1.0
  Ni  Ni677  1  0.15853250  0.75666583  0.94996450  1.0
  Ni  Ni678  1  0.49186583  0.08999917  0.94996450  1.0
  Ni  Ni679  1  0.49186583  0.42333250  0.94996450  1.0
  Ni  Ni680  1  0.49186583  0.75666583  0.94996450  1.0
  Ni  Ni681  1  0.82519917  0.08999917  0.94996450  1.0
  Ni  Ni682  1  0.82519917  0.42333250  0.94996450  1.0
  Ni  Ni683  1  0.82519917  0.75666583  0.94996450  1.0
  Ni  Ni684  1  0.26670629  0.15142871  0.91390657  1.0
  Ni  Ni685  1  0.26670629  0.48476205  0.91390657  1.0
  Ni  Ni686  1  0.26670629  0.81809538  0.91390657  1.0
  Ni  Ni687  1  0.60003962  0.15142871  0.91390657  1.0
  Ni  Ni688  1  0.60003962  0.48476205  0.91390657  1.0
  Ni  Ni689  1  0.60003962  0.81809538  0.91390657  1.0
  Ni  Ni690  1  0.93337295  0.15142871  0.91390657  1.0
  Ni  Ni691  1  0.93337295  0.48476205  0.91390657  1.0
  Ni  Ni692  1  0.93337295  0.81809538  0.91390657  1.0
  Ni  Ni693  1  0.05242057  0.03238110  0.98533514  1.0
  Ni  Ni694  1  0.05242057  0.36571443  0.98533514  1.0
  Ni  Ni695  1  0.05242057  0.69904776  0.98533514  1.0
  Ni  Ni696  1  0.38575390  0.03238110  0.98533514  1.0
  Ni  Ni697  1  0.38575390  0.36571443  0.98533514  1.0
  Ni  Ni698  1  0.38575390  0.69904776  0.98533514  1.0
  Ni  Ni699  1  0.71908724  0.03238110  0.98533514  1.0
  Ni  Ni700  1  0.71908724  0.36571443  0.98533514  1.0
  Ni  Ni701  1  0.71908724  0.69904776  0.98533514  1.0
  Ni  Ni702  1  0.08676755  0.16247612  0.97261093  1.0
  Ni  Ni703  1  0.08676755  0.49580945  0.97261093  1.0
  Ni  Ni704  1  0.08676755  0.82914279  0.97261093  1.0
  Ni  Ni705  1  0.42010088  0.16247612  0.97261093  1.0
  Ni  Ni706  1  0.42010088  0.49580945  0.97261093  1.0
  Ni  Ni707  1  0.42010088  0.82914279  0.97261093  1.0
  Ni  Ni708  1  0.75343421  0.16247612  0.97261093  1.0
  Ni  Ni709  1  0.75343421  0.49580945  0.97261093  1.0
  Ni  Ni710  1  0.75343421  0.82914279  0.97261093  1.0
  Ni  Ni711  1  0.30105326  0.28152374  0.90118236  1.0
  Ni  Ni712  1  0.30105326  0.61485707  0.90118236  1.0
  Ni  Ni713  1  0.30105326  0.94819040  0.90118236  1.0
  Ni  Ni714  1  0.63438660  0.28152374  0.90118236  1.0
  Ni  Ni715  1  0.63438660  0.61485707  0.90118236  1.0
  Ni  Ni716  1  0.63438660  0.94819040  0.90118236  1.0
  Ni  Ni717  1  0.96771993  0.28152374  0.90118236  1.0
  Ni  Ni718  1  0.96771993  0.61485707  0.90118236  1.0
  Ni  Ni719  1  0.96771993  0.94819040  0.90118236  1.0
  Ni  Ni720  1  0.00486464  0.07922502  0.88880079  1.0
  Ni  Ni721  1  0.00486464  0.41255836  0.88880079  1.0
  Ni  Ni722  1  0.00486464  0.74589169  0.88880079  1.0
  Ni  Ni723  1  0.33819798  0.07922502  0.88880079  1.0
  Ni  Ni724  1  0.33819798  0.41255836  0.88880079  1.0
  Ni  Ni725  1  0.33819798  0.74589169  0.88880079  1.0
  Ni  Ni726  1  0.67153131  0.07922502  0.88880079  1.0
  Ni  Ni727  1  0.67153131  0.41255836  0.88880079  1.0
  Ni  Ni728  1  0.67153131  0.74589169  0.88880079  1.0
  Ni  Ni729  1  0.12391226  0.29351074  0.96022936  1.0
  Ni  Ni730  1  0.12391226  0.62684407  0.96022936  1.0
  Ni  Ni731  1  0.12391226  0.96017740  0.96022936  1.0
  Ni  Ni732  1  0.45724560  0.29351074  0.96022936  1.0
  Ni  Ni733  1  0.45724560  0.62684407  0.96022936  1.0
  Ni  Ni734  1  0.45724560  0.96017740  0.96022936  1.0
  Ni  Ni735  1  0.79057893  0.29351074  0.96022936  1.0
  Ni  Ni736  1  0.79057893  0.62684407  0.96022936  1.0
  Ni  Ni737  1  0.79057893  0.96017740  0.96022936  1.0
  Ni  Ni738  1  0.13278476  0.19933924  0.88454786  1.0
  Ni  Ni739  1  0.13278476  0.53267257  0.88454786  1.0
  Ni  Ni740  1  0.13278476  0.86600590  0.88454786  1.0
  Ni  Ni741  1  0.46611810  0.19933924  0.88454786  1.0
  Ni  Ni742  1  0.46611810  0.53267257  0.88454786  1.0
  Ni  Ni743  1  0.46611810  0.86600590  0.88454786  1.0
  Ni  Ni744  1  0.79945143  0.19933924  0.88454786  1.0
  Ni  Ni745  1  0.79945143  0.53267257  0.88454786  1.0
  Ni  Ni746  1  0.79945143  0.86600590  0.88454786  1.0
  Ni  Ni747  1  0.25183238  0.08029162  0.95597643  1.0
  Ni  Ni748  1  0.25183238  0.41362495  0.95597643  1.0
  Ni  Ni749  1  0.25183238  0.74695829  0.95597643  1.0
  Ni  Ni750  1  0.58516571  0.08029162  0.95597643  1.0
  Ni  Ni751  1  0.58516571  0.41362495  0.95597643  1.0
  Ni  Ni752  1  0.58516571  0.74695829  0.95597643  1.0
  Ni  Ni753  1  0.91849905  0.08029162  0.95597643  1.0
  Ni  Ni754  1  0.91849905  0.41362495  0.95597643  1.0
  Ni  Ni755  1  0.91849905  0.74695829  0.95597643  1.0
  Ni  Ni756  1  0.18135895  0.15318371  0.97946757  1.0
  Ni  Ni757  1  0.18135895  0.48651705  0.97946757  1.0
  Ni  Ni758  1  0.18135895  0.81985038  0.97946757  1.0
  Ni  Ni759  1  0.51469229  0.15318371  0.97946757  1.0
  Ni  Ni760  1  0.51469229  0.48651705  0.97946757  1.0
  Ni  Ni761  1  0.51469229  0.81985038  0.97946757  1.0
  Ni  Ni762  1  0.84802562  0.15318371  0.97946757  1.0
  Ni  Ni763  1  0.84802562  0.48651705  0.97946757  1.0
  Ni  Ni764  1  0.84802562  0.81985038  0.97946757  1.0
  Ni  Ni765  1  0.06231133  0.27223133  0.90803900  1.0
  Ni  Ni766  1  0.06231133  0.60556467  0.90803900  1.0
  Ni  Ni767  1  0.06231133  0.93889800  0.90803900  1.0
  Ni  Ni768  1  0.39564467  0.27223133  0.90803900  1.0
  Ni  Ni769  1  0.39564467  0.60556467  0.90803900  1.0
  Ni  Ni770  1  0.39564467  0.93889800  0.90803900  1.0
  Ni  Ni771  1  0.72897800  0.27223133  0.90803900  1.0
  Ni  Ni772  1  0.72897800  0.60556467  0.90803900  1.0
  Ni  Ni773  1  0.72897800  0.93889800  0.90803900  1.0
  Ni  Ni774  1  0.14729279  0.14412221  0.91426007  1.0
  Ni  Ni775  1  0.14729279  0.47745555  0.91426007  1.0
  Ni  Ni776  1  0.14729279  0.81078888  0.91426007  1.0
  Ni  Ni777  1  0.48062612  0.14412221  0.91426007  1.0
  Ni  Ni778  1  0.48062612  0.47745555  0.91426007  1.0
  Ni  Ni779  1  0.48062612  0.81078888  0.91426007  1.0
  Ni  Ni780  1  0.81395945  0.14412221  0.91426007  1.0
  Ni  Ni781  1  0.81395945  0.47745555  0.91426007  1.0
  Ni  Ni782  1  0.81395945  0.81078888  0.91426007  1.0
  Ni  Ni783  1  0.26634040  0.02507460  0.98568864  1.0
  Ni  Ni784  1  0.26634040  0.35840793  0.98568864  1.0
  Ni  Ni785  1  0.26634040  0.69174126  0.98568864  1.0
  Ni  Ni786  1  0.59967374  0.02507460  0.98568864  1.0
  Ni  Ni787  1  0.59967374  0.35840793  0.98568864  1.0
  Ni  Ni788  1  0.59967374  0.69174126  0.98568864  1.0
  Ni  Ni789  1  0.93300707  0.02507460  0.98568864  1.0
  Ni  Ni790  1  0.93300707  0.35840793  0.98568864  1.0
  Ni  Ni791  1  0.93300707  0.69174126  0.98568864  1.0
  Ni  Ni792  1  0.05520650  0.32004517  0.94495550  1.0
  Ni  Ni793  1  0.05520650  0.65337850  0.94495550  1.0
  Ni  Ni794  1  0.05520650  0.98671183  0.94495550  1.0
  Ni  Ni795  1  0.38853983  0.32004517  0.94495550  1.0
  Ni  Ni796  1  0.38853983  0.65337850  0.94495550  1.0
  Ni  Ni797  1  0.38853983  0.98671183  0.94495550  1.0
  Ni  Ni798  1  0.72187317  0.32004517  0.94495550  1.0
  Ni  Ni799  1  0.72187317  0.65337850  0.94495550  1.0
  Ni  Ni800  1  0.72187317  0.98671183  0.94495550  1.0
  Ni  Ni801  1  0.26949221  0.10575945  0.87352693  1.0
  Ni  Ni802  1  0.26949221  0.43909279  0.87352693  1.0
  Ni  Ni803  1  0.26949221  0.77242612  0.87352693  1.0
  Ni  Ni804  1  0.60282555  0.10575945  0.87352693  1.0
  Ni  Ni805  1  0.60282555  0.43909279  0.87352693  1.0
  Ni  Ni806  1  0.60282555  0.77242612  0.87352693  1.0
  Ni  Ni807  1  0.93615888  0.10575945  0.87352693  1.0
  Ni  Ni808  1  0.93615888  0.43909279  0.87352693  1.0
  Ni  Ni809  1  0.93615888  0.77242612  0.87352693  1.0
  Ni  Ni810  1  0.09147288  0.11617912  0.93365193  1.0
  Ni  Ni811  1  0.09147288  0.44951245  0.93365193  1.0
  Ni  Ni812  1  0.09147288  0.78284579  0.93365193  1.0
  Ni  Ni813  1  0.42480621  0.11617912  0.93365193  1.0
  Ni  Ni814  1  0.42480621  0.44951245  0.93365193  1.0
  Ni  Ni815  1  0.42480621  0.78284579  0.93365193  1.0
  Ni  Ni816  1  0.75813955  0.11617912  0.93365193  1.0
  Ni  Ni817  1  0.75813955  0.44951245  0.93365193  1.0
  Ni  Ni818  1  0.75813955  0.78284579  0.93365193  1.0
  Ni  Ni819  1  0.30575860  0.23522674  0.86222336  1.0
  Ni  Ni820  1  0.30575860  0.56856007  0.86222336  1.0
  Ni  Ni821  1  0.30575860  0.90189340  0.86222336  1.0
  Ni  Ni822  1  0.63909193  0.23522674  0.86222336  1.0
  Ni  Ni823  1  0.63909193  0.56856007  0.86222336  1.0
  Ni  Ni824  1  0.63909193  0.90189340  0.86222336  1.0
  Ni  Ni825  1  0.97242526  0.23522674  0.86222336  1.0
  Ni  Ni826  1  0.97242526  0.56856007  0.86222336  1.0
  Ni  Ni827  1  0.97242526  0.90189340  0.86222336  1.0
  Ni  Ni828  1  0.11119467  0.01448667  0.92707800  1.0
  Ni  Ni829  1  0.11119467  0.34782000  0.92707800  1.0
  Ni  Ni830  1  0.11119467  0.68115333  0.92707800  1.0
  Ni  Ni831  1  0.44452800  0.01448667  0.92707800  1.0
  Ni  Ni832  1  0.44452800  0.34782000  0.92707800  1.0
  Ni  Ni833  1  0.44452800  0.68115333  0.92707800  1.0
  Ni  Ni834  1  0.77786133  0.01448667  0.92707800  1.0
  Ni  Ni835  1  0.77786133  0.34782000  0.92707800  1.0
  Ni  Ni836  1  0.77786133  0.68115333  0.92707800  1.0
  Ni  Ni837  1  0.23024229  0.22877238  0.99850657  1.0
  Ni  Ni838  1  0.23024229  0.56210571  0.99850657  1.0
  Ni  Ni839  1  0.23024229  0.89543905  0.99850657  1.0
  Ni  Ni840  1  0.56357562  0.22877238  0.99850657  1.0
  Ni  Ni841  1  0.56357562  0.56210571  0.99850657  1.0
  Ni  Ni842  1  0.56357562  0.89543905  0.99850657  1.0
  Ni  Ni843  1  0.89690895  0.22877238  0.99850657  1.0
  Ni  Ni844  1  0.89690895  0.56210571  0.99850657  1.0
  Ni  Ni845  1  0.89690895  0.89543905  0.99850657  1.0
  Ni  Ni846  1  0.03717012  0.08822288  0.95452807  1.0
  Ni  Ni847  1  0.03717012  0.42155621  0.95452807  1.0
  Ni  Ni848  1  0.03717012  0.75488955  0.95452807  1.0
  Ni  Ni849  1  0.37050345  0.08822288  0.95452807  1.0
  Ni  Ni850  1  0.37050345  0.42155621  0.95452807  1.0
  Ni  Ni851  1  0.37050345  0.75488955  0.95452807  1.0
  Ni  Ni852  1  0.70383679  0.08822288  0.95452807  1.0
  Ni  Ni853  1  0.70383679  0.42155621  0.95452807  1.0
  Ni  Ni854  1  0.70383679  0.75488955  0.95452807  1.0
  Ni  Ni855  1  0.25145583  0.20727050  0.88309950  1.0
  Ni  Ni856  1  0.25145583  0.54060383  0.88309950  1.0
  Ni  Ni857  1  0.25145583  0.87393717  0.88309950  1.0
  Ni  Ni858  1  0.58478917  0.20727050  0.88309950  1.0
  Ni  Ni859  1  0.58478917  0.54060383  0.88309950  1.0
  Ni  Ni860  1  0.58478917  0.87393717  0.88309950  1.0
  Ni  Ni861  1  0.91812250  0.20727050  0.88309950  1.0
  Ni  Ni862  1  0.91812250  0.54060383  0.88309950  1.0
  Ni  Ni863  1  0.91812250  0.87393717  0.88309950  1.0
  Ni  Ni864  1  0.28513974  0.25613393  0.98298264  1.0
  Ni  Ni865  1  0.28513974  0.58946726  0.98298264  1.0
  Ni  Ni866  1  0.28513974  0.92280060  0.98298264  1.0
  Ni  Ni867  1  0.61847307  0.25613393  0.98298264  1.0
  Ni  Ni868  1  0.61847307  0.58946726  0.98298264  1.0
  Ni  Ni869  1  0.61847307  0.92280060  0.98298264  1.0
  Ni  Ni870  1  0.95180640  0.25613393  0.98298264  1.0
  Ni  Ni871  1  0.95180640  0.58946726  0.98298264  1.0
  Ni  Ni872  1  0.95180640  0.92280060  0.98298264  1.0
  Ni  Ni873  1  0.16609212  0.04184821  0.91155407  1.0
  Ni  Ni874  1  0.16609212  0.37518155  0.91155407  1.0
  Ni  Ni875  1  0.16609212  0.70851488  0.91155407  1.0
  Ni  Ni876  1  0.49942545  0.04184821  0.91155407  1.0
  Ni  Ni877  1  0.49942545  0.37518155  0.91155407  1.0
  Ni  Ni878  1  0.49942545  0.70851488  0.91155407  1.0
  Ni  Ni879  1  0.83275879  0.04184821  0.91155407  1.0
  Ni  Ni880  1  0.83275879  0.37518155  0.91155407  1.0
  Ni  Ni881  1  0.83275879  0.70851488  0.91155407  1.0
  Ni  Ni882  1  0.31939881  0.05585919  0.96967829  1.0
  Ni  Ni883  1  0.31939881  0.38919252  0.96967829  1.0
  Ni  Ni884  1  0.31939881  0.72252586  0.96967829  1.0
  Ni  Ni885  1  0.65273214  0.05585919  0.96967829  1.0
  Ni  Ni886  1  0.65273214  0.38919252  0.96967829  1.0
  Ni  Ni887  1  0.65273214  0.72252586  0.96967829  1.0
  Ni  Ni888  1  0.98606548  0.05585919  0.96967829  1.0
  Ni  Ni889  1  0.98606548  0.38919252  0.96967829  1.0
  Ni  Ni890  1  0.98606548  0.72252586  0.96967829  1.0
  Ni  Ni891  1  0.20035119  0.17490681  0.89824971  1.0
  Ni  Ni892  1  0.20035119  0.50824014  0.89824971  1.0
  Ni  Ni893  1  0.20035119  0.84157348  0.89824971  1.0
  Ni  Ni894  1  0.53368452  0.17490681  0.89824971  1.0
  Ni  Ni895  1  0.53368452  0.50824014  0.89824971  1.0
  Ni  Ni896  1  0.53368452  0.84157348  0.89824971  1.0
  Ni  Ni897  1  0.86701786  0.17490681  0.89824971  1.0
  Ni  Ni898  1  0.86701786  0.50824014  0.89824971  1.0
  Ni  Ni899  1  0.86701786  0.84157348  0.89824971  1.0
  Ni  Ni900  1  0.21679290  0.07461576  0.89276914  1.0
  Ni  Ni901  1  0.21679290  0.40794910  0.89276914  1.0
  Ni  Ni902  1  0.21679290  0.74128243  0.89276914  1.0
  Ni  Ni903  1  0.55012624  0.07461576  0.89276914  1.0
  Ni  Ni904  1  0.55012624  0.40794910  0.89276914  1.0
  Ni  Ni905  1  0.55012624  0.74128243  0.89276914  1.0
  Ni  Ni906  1  0.88345957  0.07461576  0.89276914  1.0
  Ni  Ni907  1  0.88345957  0.40794910  0.89276914  1.0
  Ni  Ni908  1  0.88345957  0.74128243  0.89276914  1.0
  Ni  Ni909  1  0.00250719  0.28890148  0.96419771  1.0
  Ni  Ni910  1  0.00250719  0.62223481  0.96419771  1.0
  Ni  Ni911  1  0.00250719  0.95556814  0.96419771  1.0
  Ni  Ni912  1  0.33584052  0.28890148  0.96419771  1.0
  Ni  Ni913  1  0.33584052  0.62223481  0.96419771  1.0
  Ni  Ni914  1  0.33584052  0.95556814  0.96419771  1.0
  Ni  Ni915  1  0.66917386  0.28890148  0.96419771  1.0
  Ni  Ni916  1  0.66917386  0.62223481  0.96419771  1.0
  Ni  Ni917  1  0.66917386  0.95556814  0.96419771  1.0
  Ni  Ni918  1  0.07352445  0.21785988  0.94322007  1.0
  Ni  Ni919  1  0.07352445  0.55119321  0.94322007  1.0
  Ni  Ni920  1  0.07352445  0.88452655  0.94322007  1.0
  Ni  Ni921  1  0.40685779  0.21785988  0.94322007  1.0
  Ni  Ni922  1  0.40685779  0.55119321  0.94322007  1.0
  Ni  Ni923  1  0.40685779  0.88452655  0.94322007  1.0
  Ni  Ni924  1  0.74019112  0.21785988  0.94322007  1.0
  Ni  Ni925  1  0.74019112  0.55119321  0.94322007  1.0
  Ni  Ni926  1  0.74019112  0.88452655  0.94322007  1.0
  Ni  Ni927  1  0.28781017  0.00357417  0.87179150  1.0
  Ni  Ni928  1  0.28781017  0.33690750  0.87179150  1.0
  Ni  Ni929  1  0.28781017  0.67024083  0.87179150  1.0
  Ni  Ni930  1  0.62114350  0.00357417  0.87179150  1.0
  Ni  Ni931  1  0.62114350  0.33690750  0.87179150  1.0
  Ni  Ni932  1  0.62114350  0.67024083  0.87179150  1.0
  Ni  Ni933  1  0.95447683  0.00357417  0.87179150  1.0
  Ni  Ni934  1  0.95447683  0.33690750  0.87179150  1.0
  Ni  Ni935  1  0.95447683  0.67024083  0.87179150  1.0
  Ni  Ni936  1  0.24895900  0.12632333  0.99585300  1.0
  Ni  Ni937  1  0.24895900  0.45965667  0.99585300  1.0
  Ni  Ni938  1  0.24895900  0.79299000  0.99585300  1.0
  Ni  Ni939  1  0.58229233  0.12632333  0.99585300  1.0
  Ni  Ni940  1  0.58229233  0.45965667  0.99585300  1.0
  Ni  Ni941  1  0.58229233  0.79299000  0.99585300  1.0
  Ni  Ni942  1  0.91562567  0.12632333  0.99585300  1.0
  Ni  Ni943  1  0.91562567  0.45965667  0.99585300  1.0
  Ni  Ni944  1  0.91562567  0.79299000  0.99585300  1.0
  Ni  Ni945  1  0.12991138  0.24537095  0.92442443  1.0
  Ni  Ni946  1  0.12991138  0.57870429  0.92442443  1.0
  Ni  Ni947  1  0.12991138  0.91203762  0.92442443  1.0
  Ni  Ni948  1  0.46324471  0.24537095  0.92442443  1.0
  Ni  Ni949  1  0.46324471  0.57870429  0.92442443  1.0
  Ni  Ni950  1  0.46324471  0.91203762  0.92442443  1.0
  Ni  Ni951  1  0.79657805  0.24537095  0.92442443  1.0
  Ni  Ni952  1  0.79657805  0.57870429  0.92442443  1.0
  Ni  Ni953  1  0.79657805  0.91203762  0.92442443  1.0
  Ni  Ni954  1  0.01813533  0.18944633  0.95930100  1.0
  Ni  Ni955  1  0.01813533  0.52277967  0.95930100  1.0
  Ni  Ni956  1  0.01813533  0.85611300  0.95930100  1.0
  Ni  Ni957  1  0.35146867  0.18944633  0.95930100  1.0
  Ni  Ni958  1  0.35146867  0.52277967  0.95930100  1.0
  Ni  Ni959  1  0.35146867  0.85611300  0.95930100  1.0
  Ni  Ni960  1  0.68480200  0.18944633  0.95930100  1.0
  Ni  Ni961  1  0.68480200  0.52277967  0.95930100  1.0
  Ni  Ni962  1  0.68480200  0.85611300  0.95930100  1.0
  Ni  Ni963  1  0.23242105  0.30849395  0.88787243  1.0
  Ni  Ni964  1  0.23242105  0.64182729  0.88787243  1.0
  Ni  Ni965  1  0.23242105  0.97516062  0.88787243  1.0
  Ni  Ni966  1  0.56575438  0.30849395  0.88787243  1.0
  Ni  Ni967  1  0.56575438  0.64182729  0.88787243  1.0
  Ni  Ni968  1  0.56575438  0.97516062  0.88787243  1.0
  Ni  Ni969  1  0.89908771  0.30849395  0.88787243  1.0
  Ni  Ni970  1  0.89908771  0.64182729  0.88787243  1.0
  Ni  Ni971  1  0.89908771  0.97516062  0.88787243  1.0
  Ni  Ni972  1  0.30383767  0.15524733  0.97517800  1.0
  Ni  Ni973  1  0.30383767  0.48858067  0.97517800  1.0
  Ni  Ni974  1  0.30383767  0.82191400  0.97517800  1.0
  Ni  Ni975  1  0.63717100  0.15524733  0.97517800  1.0
  Ni  Ni976  1  0.63717100  0.48858067  0.97517800  1.0
  Ni  Ni977  1  0.63717100  0.82191400  0.97517800  1.0
  Ni  Ni978  1  0.97050433  0.15524733  0.97517800  1.0
  Ni  Ni979  1  0.97050433  0.48858067  0.97517800  1.0
  Ni  Ni980  1  0.97050433  0.82191400  0.97517800  1.0
  Ni  Ni981  1  0.18479005  0.27429495  0.90374943  1.0
  Ni  Ni982  1  0.18479005  0.60762829  0.90374943  1.0
  Ni  Ni983  1  0.18479005  0.94096162  0.90374943  1.0
  Ni  Ni984  1  0.51812338  0.27429495  0.90374943  1.0
  Ni  Ni985  1  0.51812338  0.60762829  0.90374943  1.0
  Ni  Ni986  1  0.51812338  0.94096162  0.90374943  1.0
  Ni  Ni987  1  0.85145671  0.27429495  0.90374943  1.0
  Ni  Ni988  1  0.85145671  0.60762829  0.90374943  1.0
  Ni  Ni989  1  0.85145671  0.94096162  0.90374943  1.0
  Ni  Ni990  1  0.19280831  0.30719169  0.75363579  1.0
  Ni  Ni991  1  0.19280831  0.64052502  0.75363579  1.0
  Ni  Ni992  1  0.19280831  0.97385836  0.75363579  1.0
  Ni  Ni993  1  0.52614164  0.30719169  0.75363579  1.0
  Ni  Ni994  1  0.52614164  0.64052502  0.75363579  1.0
  Ni  Ni995  1  0.52614164  0.97385836  0.75363579  1.0
  Ni  Ni996  1  0.85947498  0.30719169  0.75363579  1.0
  Ni  Ni997  1  0.85947498  0.64052502  0.75363579  1.0
  Ni  Ni998  1  0.85947498  0.97385836  0.75363579  1.0
  Ni  Ni999  1  0.31185593  0.18814407  0.82506436  1.0
  Ni  Ni1000  1  0.31185593  0.52147740  0.82506436  1.0
  Ni  Ni1001  1  0.31185593  0.85481074  0.82506436  1.0
  Ni  Ni1002  1  0.64518926  0.18814407  0.82506436  1.0
  Ni  Ni1003  1  0.64518926  0.52147740  0.82506436  1.0
  Ni  Ni1004  1  0.64518926  0.85481074  0.82506436  1.0
  Ni  Ni1005  1  0.97852260  0.18814407  0.82506436  1.0
  Ni  Ni1006  1  0.97852260  0.52147740  0.82506436  1.0
  Ni  Ni1007  1  0.97852260  0.85481074  0.82506436  1.0
  Ni  Ni1008  1  0.13472298  0.11380869  0.73567879  1.0
  Ni  Ni1009  1  0.13472298  0.44714202  0.73567879  1.0
  Ni  Ni1010  1  0.13472298  0.78047536  0.73567879  1.0
  Ni  Ni1011  1  0.46805631  0.11380869  0.73567879  1.0
  Ni  Ni1012  1  0.46805631  0.44714202  0.73567879  1.0
  Ni  Ni1013  1  0.46805631  0.78047536  0.73567879  1.0
  Ni  Ni1014  1  0.80138964  0.11380869  0.73567879  1.0
  Ni  Ni1015  1  0.80138964  0.44714202  0.73567879  1.0
  Ni  Ni1016  1  0.80138964  0.78047536  0.73567879  1.0
  Ni  Ni1017  1  0.25377060  0.32809440  0.80710736  1.0
  Ni  Ni1018  1  0.25377060  0.66142774  0.80710736  1.0
  Ni  Ni1019  1  0.25377060  0.99476107  0.80710736  1.0
  Ni  Ni1020  1  0.58710393  0.32809440  0.80710736  1.0
  Ni  Ni1021  1  0.58710393  0.66142774  0.80710736  1.0
  Ni  Ni1022  1  0.58710393  0.99476107  0.80710736  1.0
  Ni  Ni1023  1  0.92043726  0.32809440  0.80710736  1.0
  Ni  Ni1024  1  0.92043726  0.66142774  0.80710736  1.0
  Ni  Ni1025  1  0.92043726  0.99476107  0.80710736  1.0
  Ni  Ni1026  1  0.02861105  0.05619062  0.77104943  1.0
  Ni  Ni1027  1  0.02861105  0.38952395  0.77104943  1.0
  Ni  Ni1028  1  0.02861105  0.72285729  0.77104943  1.0
  Ni  Ni1029  1  0.36194438  0.05619062  0.77104943  1.0
  Ni  Ni1030  1  0.36194438  0.38952395  0.77104943  1.0
  Ni  Ni1031  1  0.36194438  0.72285729  0.77104943  1.0
  Ni  Ni1032  1  0.69527771  0.05619062  0.77104943  1.0
  Ni  Ni1033  1  0.69527771  0.38952395  0.77104943  1.0
  Ni  Ni1034  1  0.69527771  0.72285729  0.77104943  1.0
  Ni  Ni1035  1  0.14765867  0.27047633  0.84247800  1.0
  Ni  Ni1036  1  0.14765867  0.60380967  0.84247800  1.0
  Ni  Ni1037  1  0.14765867  0.93714300  0.84247800  1.0
  Ni  Ni1038  1  0.48099200  0.27047633  0.84247800  1.0
  Ni  Ni1039  1  0.48099200  0.60380967  0.84247800  1.0
  Ni  Ni1040  1  0.48099200  0.93714300  0.84247800  1.0
  Ni  Ni1041  1  0.81432533  0.27047633  0.84247800  1.0
  Ni  Ni1042  1  0.81432533  0.60380967  0.84247800  1.0
  Ni  Ni1043  1  0.81432533  0.93714300  0.84247800  1.0
  Ni  Ni1044  1  0.18200564  0.06723802  0.82975379  1.0
  Ni  Ni1045  1  0.18200564  0.40057136  0.82975379  1.0
  Ni  Ni1046  1  0.18200564  0.73390469  0.82975379  1.0
  Ni  Ni1047  1  0.51533898  0.06723802  0.82975379  1.0
  Ni  Ni1048  1  0.51533898  0.40057136  0.82975379  1.0
  Ni  Ni1049  1  0.51533898  0.73390469  0.82975379  1.0
  Ni  Ni1050  1  0.84867231  0.06723802  0.82975379  1.0
  Ni  Ni1051  1  0.84867231  0.40057136  0.82975379  1.0
  Ni  Ni1052  1  0.84867231  0.73390469  0.82975379  1.0
  Ni  Ni1053  1  0.06295802  0.18628564  0.75832521  1.0
  Ni  Ni1054  1  0.06295802  0.51961898  0.75832521  1.0
  Ni  Ni1055  1  0.06295802  0.85295231  0.75832521  1.0
  Ni  Ni1056  1  0.39629136  0.18628564  0.75832521  1.0
  Ni  Ni1057  1  0.39629136  0.51961898  0.75832521  1.0
  Ni  Ni1058  1  0.39629136  0.85295231  0.75832521  1.0
  Ni  Ni1059  1  0.72962469  0.18628564  0.75832521  1.0
  Ni  Ni1060  1  0.72962469  0.51961898  0.75832521  1.0
  Ni  Ni1061  1  0.72962469  0.85295231  0.75832521  1.0
  Ni  Ni1062  1  0.10010274  0.31732026  0.74594364  1.0
  Ni  Ni1063  1  0.10010274  0.65065360  0.74594364  1.0
  Ni  Ni1064  1  0.10010274  0.98398693  0.74594364  1.0
  Ni  Ni1065  1  0.43343607  0.31732026  0.74594364  1.0
  Ni  Ni1066  1  0.43343607  0.65065360  0.74594364  1.0
  Ni  Ni1067  1  0.43343607  0.98398693  0.74594364  1.0
  Ni  Ni1068  1  0.76676940  0.31732026  0.74594364  1.0
  Ni  Ni1069  1  0.76676940  0.65065360  0.74594364  1.0
  Ni  Ni1070  1  0.76676940  0.98398693  0.74594364  1.0
  Ni  Ni1071  1  0.21915036  0.19827264  0.81737221  1.0
  Ni  Ni1072  1  0.21915036  0.53160598  0.81737221  1.0
  Ni  Ni1073  1  0.21915036  0.86493931  0.81737221  1.0
  Ni  Ni1074  1  0.55248369  0.19827264  0.81737221  1.0
  Ni  Ni1075  1  0.55248369  0.53160598  0.81737221  1.0
  Ni  Ni1076  1  0.55248369  0.86493931  0.81737221  1.0
  Ni  Ni1077  1  0.88581702  0.19827264  0.81737221  1.0
  Ni  Ni1078  1  0.88581702  0.53160598  0.81737221  1.0
  Ni  Ni1079  1  0.88581702  0.86493931  0.81737221  1.0
  Ni  Ni1080  1  0.22802286  0.10410114  0.74169071  1.0
  Ni  Ni1081  1  0.22802286  0.43743448  0.74169071  1.0
  Ni  Ni1082  1  0.22802286  0.77076781  0.74169071  1.0
  Ni  Ni1083  1  0.56135619  0.10410114  0.74169071  1.0
  Ni  Ni1084  1  0.56135619  0.43743448  0.74169071  1.0
  Ni  Ni1085  1  0.56135619  0.77076781  0.74169071  1.0
  Ni  Ni1086  1  0.89468952  0.10410114  0.74169071  1.0
  Ni  Ni1087  1  0.89468952  0.43743448  0.74169071  1.0
  Ni  Ni1088  1  0.89468952  0.77076781  0.74169071  1.0
  Ni  Ni1089  1  0.01373714  0.31838686  0.81311929  1.0
  Ni  Ni1090  1  0.01373714  0.65172019  0.81311929  1.0
  Ni  Ni1091  1  0.01373714  0.98505352  0.81311929  1.0
  Ni  Ni1092  1  0.34707048  0.31838686  0.81311929  1.0
  Ni  Ni1093  1  0.34707048  0.65172019  0.81311929  1.0
  Ni  Ni1094  1  0.34707048  0.98505352  0.81311929  1.0
  Ni  Ni1095  1  0.68040381  0.31838686  0.81311929  1.0
  Ni  Ni1096  1  0.68040381  0.65172019  0.81311929  1.0
  Ni  Ni1097  1  0.68040381  0.98505352  0.81311929  1.0
  Ni  Ni1098  1  0.27659705  0.05794562  0.83661043  1.0
  Ni  Ni1099  1  0.27659705  0.39127895  0.83661043  1.0
  Ni  Ni1100  1  0.27659705  0.72461229  0.83661043  1.0
  Ni  Ni1101  1  0.60993038  0.05794562  0.83661043  1.0
  Ni  Ni1102  1  0.60993038  0.39127895  0.83661043  1.0
  Ni  Ni1103  1  0.60993038  0.72461229  0.83661043  1.0
  Ni  Ni1104  1  0.94326371  0.05794562  0.83661043  1.0
  Ni  Ni1105  1  0.94326371  0.39127895  0.83661043  1.0
  Ni  Ni1106  1  0.94326371  0.72461229  0.83661043  1.0
  Ni  Ni1107  1  0.15754943  0.17699324  0.76518186  1.0
  Ni  Ni1108  1  0.15754943  0.51032657  0.76518186  1.0
  Ni  Ni1109  1  0.15754943  0.84365990  0.76518186  1.0
  Ni  Ni1110  1  0.49088276  0.17699324  0.76518186  1.0
  Ni  Ni1111  1  0.49088276  0.51032657  0.76518186  1.0
  Ni  Ni1112  1  0.49088276  0.84365990  0.76518186  1.0
  Ni  Ni1113  1  0.82421610  0.17699324  0.76518186  1.0
  Ni  Ni1114  1  0.82421610  0.51032657  0.76518186  1.0
  Ni  Ni1115  1  0.82421610  0.84365990  0.76518186  1.0
  Ni  Ni1116  1  0.24253088  0.04888412  0.77140293  1.0
  Ni  Ni1117  1  0.24253088  0.38221745  0.77140293  1.0
  Ni  Ni1118  1  0.24253088  0.71555079  0.77140293  1.0
  Ni  Ni1119  1  0.57586421  0.04888412  0.77140293  1.0
  Ni  Ni1120  1  0.57586421  0.38221745  0.77140293  1.0
  Ni  Ni1121  1  0.57586421  0.71555079  0.77140293  1.0
  Ni  Ni1122  1  0.90919755  0.04888412  0.77140293  1.0
  Ni  Ni1123  1  0.90919755  0.38221745  0.77140293  1.0
  Ni  Ni1124  1  0.90919755  0.71555079  0.77140293  1.0
  Ni  Ni1125  1  0.02824517  0.26316983  0.84283150  1.0
  Ni  Ni1126  1  0.02824517  0.59650317  0.84283150  1.0
  Ni  Ni1127  1  0.02824517  0.92983650  0.84283150  1.0
  Ni  Ni1128  1  0.36157850  0.26316983  0.84283150  1.0
  Ni  Ni1129  1  0.36157850  0.59650317  0.84283150  1.0
  Ni  Ni1130  1  0.36157850  0.92983650  0.84283150  1.0
  Ni  Ni1131  1  0.69491183  0.26316983  0.84283150  1.0
  Ni  Ni1132  1  0.69491183  0.59650317  0.84283150  1.0
  Ni  Ni1133  1  0.69491183  0.92983650  0.84283150  1.0
  Ni  Ni1134  1  0.15044460  0.22480707  0.80209836  1.0
  Ni  Ni1135  1  0.15044460  0.55814040  0.80209836  1.0
  Ni  Ni1136  1  0.15044460  0.89147374  0.80209836  1.0
  Ni  Ni1137  1  0.48377793  0.22480707  0.80209836  1.0
  Ni  Ni1138  1  0.48377793  0.55814040  0.80209836  1.0
  Ni  Ni1139  1  0.48377793  0.89147374  0.80209836  1.0
  Ni  Ni1140  1  0.81711126  0.22480707  0.80209836  1.0
  Ni  Ni1141  1  0.81711126  0.55814040  0.80209836  1.0
  Ni  Ni1142  1  0.81711126  0.89147374  0.80209836  1.0
  Ni  Ni1143  1  0.03139698  0.01052136  0.73066979  1.0
  Ni  Ni1144  1  0.03139698  0.34385469  0.73066979  1.0
  Ni  Ni1145  1  0.03139698  0.67718802  0.73066979  1.0
  Ni  Ni1146  1  0.36473031  0.01052136  0.73066979  1.0
  Ni  Ni1147  1  0.36473031  0.34385469  0.73066979  1.0
  Ni  Ni1148  1  0.36473031  0.67718802  0.73066979  1.0
  Ni  Ni1149  1  0.69806364  0.01052136  0.73066979  1.0
  Ni  Ni1150  1  0.69806364  0.34385469  0.73066979  1.0
  Ni  Ni1151  1  0.69806364  0.67718802  0.73066979  1.0
  Ni  Ni1152  1  0.18671098  0.02094102  0.79079479  1.0
  Ni  Ni1153  1  0.18671098  0.35427436  0.79079479  1.0
  Ni  Ni1154  1  0.18671098  0.68760769  0.79079479  1.0
  Ni  Ni1155  1  0.52004431  0.02094102  0.79079479  1.0
  Ni  Ni1156  1  0.52004431  0.35427436  0.79079479  1.0
  Ni  Ni1157  1  0.52004431  0.68760769  0.79079479  1.0
  Ni  Ni1158  1  0.85337764  0.02094102  0.79079479  1.0
  Ni  Ni1159  1  0.85337764  0.35427436  0.79079479  1.0
  Ni  Ni1160  1  0.85337764  0.68760769  0.79079479  1.0
  Ni  Ni1161  1  0.06766336  0.13998864  0.71936621  1.0
  Ni  Ni1162  1  0.06766336  0.47332198  0.71936621  1.0
  Ni  Ni1163  1  0.06766336  0.80665531  0.71936621  1.0
  Ni  Ni1164  1  0.40099669  0.13998864  0.71936621  1.0
  Ni  Ni1165  1  0.40099669  0.47332198  0.71936621  1.0
  Ni  Ni1166  1  0.40099669  0.80665531  0.71936621  1.0
  Ni  Ni1167  1  0.73433002  0.13998864  0.71936621  1.0
  Ni  Ni1168  1  0.73433002  0.47332198  0.71936621  1.0
  Ni  Ni1169  1  0.73433002  0.80665531  0.71936621  1.0
  Ni  Ni1170  1  0.20643276  0.25258190  0.78422086  1.0
  Ni  Ni1171  1  0.20643276  0.58591524  0.78422086  1.0
  Ni  Ni1172  1  0.20643276  0.91924857  0.78422086  1.0
  Ni  Ni1173  1  0.53976610  0.25258190  0.78422086  1.0
  Ni  Ni1174  1  0.53976610  0.58591524  0.78422086  1.0
  Ni  Ni1175  1  0.53976610  0.91924857  0.78422086  1.0
  Ni  Ni1176  1  0.87309943  0.25258190  0.78422086  1.0
  Ni  Ni1177  1  0.87309943  0.58591524  0.78422086  1.0
  Ni  Ni1178  1  0.87309943  0.91924857  0.78422086  1.0
  Ni  Ni1179  1  0.32548038  0.13353429  0.85564943  1.0
  Ni  Ni1180  1  0.32548038  0.46686762  0.85564943  1.0
  Ni  Ni1181  1  0.32548038  0.80020095  0.85564943  1.0
  Ni  Ni1182  1  0.65881371  0.13353429  0.85564943  1.0
  Ni  Ni1183  1  0.65881371  0.46686762  0.85564943  1.0
  Ni  Ni1184  1  0.65881371  0.80020095  0.85564943  1.0
  Ni  Ni1185  1  0.99214705  0.13353429  0.85564943  1.0
  Ni  Ni1186  1  0.99214705  0.46686762  0.85564943  1.0
  Ni  Ni1187  1  0.99214705  0.80020095  0.85564943  1.0
  Ni  Ni1188  1  0.13240821  0.32631812  0.81167093  1.0
  Ni  Ni1189  1  0.13240821  0.65965145  0.81167093  1.0
  Ni  Ni1190  1  0.13240821  0.99298479  0.81167093  1.0
  Ni  Ni1191  1  0.46574155  0.32631812  0.81167093  1.0
  Ni  Ni1192  1  0.46574155  0.65965145  0.81167093  1.0
  Ni  Ni1193  1  0.46574155  0.99298479  0.81167093  1.0
  Ni  Ni1194  1  0.79907488  0.32631812  0.81167093  1.0
  Ni  Ni1195  1  0.79907488  0.65965145  0.81167093  1.0
  Ni  Ni1196  1  0.79907488  0.99298479  0.81167093  1.0
  Ni  Ni1197  1  0.01336060  0.11203240  0.74024236  1.0
  Ni  Ni1198  1  0.01336060  0.44536574  0.74024236  1.0
  Ni  Ni1199  1  0.01336060  0.77869907  0.74024236  1.0
  Ni  Ni1200  1  0.34669393  0.11203240  0.74024236  1.0
  Ni  Ni1201  1  0.34669393  0.44536574  0.74024236  1.0
  Ni  Ni1202  1  0.34669393  0.77869907  0.74024236  1.0
  Ni  Ni1203  1  0.68002726  0.11203240  0.74024236  1.0
  Ni  Ni1204  1  0.68002726  0.44536574  0.74024236  1.0
  Ni  Ni1205  1  0.68002726  0.77869907  0.74024236  1.0
  Ni  Ni1206  1  0.04704450  0.16089583  0.84012550  1.0
  Ni  Ni1207  1  0.04704450  0.49422917  0.84012550  1.0
  Ni  Ni1208  1  0.04704450  0.82756250  0.84012550  1.0
  Ni  Ni1209  1  0.38037783  0.16089583  0.84012550  1.0
  Ni  Ni1210  1  0.38037783  0.49422917  0.84012550  1.0
  Ni  Ni1211  1  0.38037783  0.82756250  0.84012550  1.0
  Ni  Ni1212  1  0.71371117  0.16089583  0.84012550  1.0
  Ni  Ni1213  1  0.71371117  0.49422917  0.84012550  1.0
  Ni  Ni1214  1  0.71371117  0.82756250  0.84012550  1.0
  Ni  Ni1215  1  0.26133021  0.27994345  0.76869693  1.0
  Ni  Ni1216  1  0.26133021  0.61327679  0.76869693  1.0
  Ni  Ni1217  1  0.26133021  0.94661012  0.76869693  1.0
  Ni  Ni1218  1  0.59466355  0.27994345  0.76869693  1.0
  Ni  Ni1219  1  0.59466355  0.61327679  0.76869693  1.0
  Ni  Ni1220  1  0.59466355  0.94661012  0.76869693  1.0
  Ni  Ni1221  1  0.92799688  0.27994345  0.76869693  1.0
  Ni  Ni1222  1  0.92799688  0.61327679  0.76869693  1.0
  Ni  Ni1223  1  0.92799688  0.94661012  0.76869693  1.0
  Ni  Ni1224  1  0.08130357  0.29395443  0.82682114  1.0
  Ni  Ni1225  1  0.08130357  0.62728776  0.82682114  1.0
  Ni  Ni1226  1  0.08130357  0.96062110  0.82682114  1.0
  Ni  Ni1227  1  0.41463690  0.29395443  0.82682114  1.0
  Ni  Ni1228  1  0.41463690  0.62728776  0.82682114  1.0
  Ni  Ni1229  1  0.41463690  0.96062110  0.82682114  1.0
  Ni  Ni1230  1  0.74797024  0.29395443  0.82682114  1.0
  Ni  Ni1231  1  0.74797024  0.62728776  0.82682114  1.0
  Ni  Ni1232  1  0.74797024  0.96062110  0.82682114  1.0
  Ni  Ni1233  1  0.29558929  0.07966871  0.75539257  1.0
  Ni  Ni1234  1  0.29558929  0.41300205  0.75539257  1.0
  Ni  Ni1235  1  0.29558929  0.74633538  0.75539257  1.0
  Ni  Ni1236  1  0.62892262  0.07966871  0.75539257  1.0
  Ni  Ni1237  1  0.62892262  0.41300205  0.75539257  1.0
  Ni  Ni1238  1  0.62892262  0.74633538  0.75539257  1.0
  Ni  Ni1239  1  0.96225595  0.07966871  0.75539257  1.0
  Ni  Ni1240  1  0.96225595  0.41300205  0.75539257  1.0
  Ni  Ni1241  1  0.96225595  0.74633538  0.75539257  1.0
  Ni  Ni1242  1  0.31203100  0.31271100  0.74991200  1.0
  Ni  Ni1243  1  0.31203100  0.64604433  0.74991200  1.0
  Ni  Ni1244  1  0.31203100  0.97937767  0.74991200  1.0
  Ni  Ni1245  1  0.64536433  0.31271100  0.74991200  1.0
  Ni  Ni1246  1  0.64536433  0.64604433  0.74991200  1.0
  Ni  Ni1247  1  0.64536433  0.97937767  0.74991200  1.0
  Ni  Ni1248  1  0.97869767  0.31271100  0.74991200  1.0
  Ni  Ni1249  1  0.97869767  0.64604433  0.74991200  1.0
  Ni  Ni1250  1  0.97869767  0.97937767  0.74991200  1.0
  Ni  Ni1251  1  0.09774529  0.19366338  0.82134057  1.0
  Ni  Ni1252  1  0.09774529  0.52699671  0.82134057  1.0
  Ni  Ni1253  1  0.09774529  0.86033005  0.82134057  1.0
  Ni  Ni1254  1  0.43107862  0.19366338  0.82134057  1.0
  Ni  Ni1255  1  0.43107862  0.52699671  0.82134057  1.0
  Ni  Ni1256  1  0.43107862  0.86033005  0.82134057  1.0
  Ni  Ni1257  1  0.76441195  0.19366338  0.82134057  1.0
  Ni  Ni1258  1  0.76441195  0.52699671  0.82134057  1.0
  Ni  Ni1259  1  0.76441195  0.86033005  0.82134057  1.0
  Ni  Ni1260  1  0.16876255  0.12262179  0.80036293  1.0
  Ni  Ni1261  1  0.16876255  0.45595512  0.80036293  1.0
  Ni  Ni1262  1  0.16876255  0.78928845  0.80036293  1.0
  Ni  Ni1263  1  0.50209588  0.12262179  0.80036293  1.0
  Ni  Ni1264  1  0.50209588  0.45595512  0.80036293  1.0
  Ni  Ni1265  1  0.50209588  0.78928845  0.80036293  1.0
  Ni  Ni1266  1  0.83542921  0.12262179  0.80036293  1.0
  Ni  Ni1267  1  0.83542921  0.45595512  0.80036293  1.0
  Ni  Ni1268  1  0.83542921  0.78928845  0.80036293  1.0
  Ni  Ni1269  1  0.04971493  0.24166940  0.72893436  1.0
  Ni  Ni1270  1  0.04971493  0.57500274  0.72893436  1.0
  Ni  Ni1271  1  0.04971493  0.90833607  0.72893436  1.0
  Ni  Ni1272  1  0.38304826  0.24166940  0.72893436  1.0
  Ni  Ni1273  1  0.38304826  0.57500274  0.72893436  1.0
  Ni  Ni1274  1  0.38304826  0.90833607  0.72893436  1.0
  Ni  Ni1275  1  0.71638160  0.24166940  0.72893436  1.0
  Ni  Ni1276  1  0.71638160  0.57500274  0.72893436  1.0
  Ni  Ni1277  1  0.71638160  0.90833607  0.72893436  1.0
  Ni  Ni1278  1  0.01086376  0.03108524  0.85299586  1.0
  Ni  Ni1279  1  0.01086376  0.36441857  0.85299586  1.0
  Ni  Ni1280  1  0.01086376  0.69775190  0.85299586  1.0
  Ni  Ni1281  1  0.34419710  0.03108524  0.85299586  1.0
  Ni  Ni1282  1  0.34419710  0.36441857  0.85299586  1.0
  Ni  Ni1283  1  0.34419710  0.69775190  0.85299586  1.0
  Ni  Ni1284  1  0.67753043  0.03108524  0.85299586  1.0
  Ni  Ni1285  1  0.67753043  0.36441857  0.85299586  1.0
  Ni  Ni1286  1  0.67753043  0.69775190  0.85299586  1.0
  Ni  Ni1287  1  0.22514948  0.15013286  0.78156729  1.0
  Ni  Ni1288  1  0.22514948  0.48346619  0.78156729  1.0
  Ni  Ni1289  1  0.22514948  0.81679952  0.78156729  1.0
  Ni  Ni1290  1  0.55848281  0.15013286  0.78156729  1.0
  Ni  Ni1291  1  0.55848281  0.48346619  0.78156729  1.0
  Ni  Ni1292  1  0.55848281  0.81679952  0.78156729  1.0
  Ni  Ni1293  1  0.89181614  0.15013286  0.78156729  1.0
  Ni  Ni1294  1  0.89181614  0.48346619  0.78156729  1.0
  Ni  Ni1295  1  0.89181614  0.81679952  0.78156729  1.0
  Ni  Ni1296  1  0.11337343  0.09420824  0.81644386  1.0
  Ni  Ni1297  1  0.11337343  0.42754157  0.81644386  1.0
  Ni  Ni1298  1  0.11337343  0.76087490  0.81644386  1.0
  Ni  Ni1299  1  0.44670676  0.09420824  0.81644386  1.0
  Ni  Ni1300  1  0.44670676  0.42754157  0.81644386  1.0
  Ni  Ni1301  1  0.44670676  0.76087490  0.81644386  1.0
  Ni  Ni1302  1  0.78004010  0.09420824  0.81644386  1.0
  Ni  Ni1303  1  0.78004010  0.42754157  0.81644386  1.0
  Ni  Ni1304  1  0.78004010  0.76087490  0.81644386  1.0
  Ni  Ni1305  1  0.32765914  0.21325586  0.74501529  1.0
  Ni  Ni1306  1  0.32765914  0.54658919  0.74501529  1.0
  Ni  Ni1307  1  0.32765914  0.87992252  0.74501529  1.0
  Ni  Ni1308  1  0.66099248  0.21325586  0.74501529  1.0
  Ni  Ni1309  1  0.66099248  0.54658919  0.74501529  1.0
  Ni  Ni1310  1  0.66099248  0.87992252  0.74501529  1.0
  Ni  Ni1311  1  0.99432581  0.21325586  0.74501529  1.0
  Ni  Ni1312  1  0.99432581  0.54658919  0.74501529  1.0
  Ni  Ni1313  1  0.99432581  0.87992252  0.74501529  1.0
  Ni  Ni1314  1  0.06574243  0.06000924  0.83232086  1.0
  Ni  Ni1315  1  0.06574243  0.39334257  0.83232086  1.0
  Ni  Ni1316  1  0.06574243  0.72667590  0.83232086  1.0
  Ni  Ni1317  1  0.39907576  0.06000924  0.83232086  1.0
  Ni  Ni1318  1  0.39907576  0.39334257  0.83232086  1.0
  Ni  Ni1319  1  0.39907576  0.72667590  0.83232086  1.0
  Ni  Ni1320  1  0.73240910  0.06000924  0.83232086  1.0
  Ni  Ni1321  1  0.73240910  0.39334257  0.83232086  1.0
  Ni  Ni1322  1  0.73240910  0.72667590  0.83232086  1.0
  Ni  Ni1323  1  0.28002814  0.17905686  0.76089229  1.0
  Ni  Ni1324  1  0.28002814  0.51239019  0.76089229  1.0
  Ni  Ni1325  1  0.28002814  0.84572352  0.76089229  1.0
  Ni  Ni1326  1  0.61336148  0.17905686  0.76089229  1.0
  Ni  Ni1327  1  0.61336148  0.51239019  0.76089229  1.0
  Ni  Ni1328  1  0.61336148  0.84572352  0.76089229  1.0
  Ni  Ni1329  1  0.94669481  0.17905686  0.76089229  1.0
  Ni  Ni1330  1  0.94669481  0.51239019  0.76089229  1.0
  Ni  Ni1331  1  0.94669481  0.84572352  0.76089229  1.0
  Ni  Ni1332  1  0.28804640  0.21195360  0.61077864  1.0
  Ni  Ni1333  1  0.28804640  0.54528693  0.61077864  1.0
  Ni  Ni1334  1  0.28804640  0.87862026  0.61077864  1.0
  Ni  Ni1335  1  0.62137974  0.21195360  0.61077864  1.0
  Ni  Ni1336  1  0.62137974  0.54528693  0.61077864  1.0
  Ni  Ni1337  1  0.62137974  0.87862026  0.61077864  1.0
  Ni  Ni1338  1  0.95471307  0.21195360  0.61077864  1.0
  Ni  Ni1339  1  0.95471307  0.54528693  0.61077864  1.0
  Ni  Ni1340  1  0.95471307  0.87862026  0.61077864  1.0
  Ni  Ni1341  1  0.07376069  0.09290598  0.68220721  1.0
  Ni  Ni1342  1  0.07376069  0.42623931  0.68220721  1.0
  Ni  Ni1343  1  0.07376069  0.75957264  0.68220721  1.0
  Ni  Ni1344  1  0.40709402  0.09290598  0.68220721  1.0
  Ni  Ni1345  1  0.40709402  0.42623931  0.68220721  1.0
  Ni  Ni1346  1  0.40709402  0.75957264  0.68220721  1.0
  Ni  Ni1347  1  0.74042736  0.09290598  0.68220721  1.0
  Ni  Ni1348  1  0.74042736  0.42623931  0.68220721  1.0
  Ni  Ni1349  1  0.74042736  0.75957264  0.68220721  1.0
  Ni  Ni1350  1  0.22996107  0.01857060  0.59282164  1.0
  Ni  Ni1351  1  0.22996107  0.35190393  0.59282164  1.0
  Ni  Ni1352  1  0.22996107  0.68523726  0.59282164  1.0
  Ni  Ni1353  1  0.56329440  0.01857060  0.59282164  1.0
  Ni  Ni1354  1  0.56329440  0.35190393  0.59282164  1.0
  Ni  Ni1355  1  0.56329440  0.68523726  0.59282164  1.0
  Ni  Ni1356  1  0.89662774  0.01857060  0.59282164  1.0
  Ni  Ni1357  1  0.89662774  0.35190393  0.59282164  1.0
  Ni  Ni1358  1  0.89662774  0.68523726  0.59282164  1.0
  Ni  Ni1359  1  0.01567536  0.23285631  0.66425021  1.0
  Ni  Ni1360  1  0.01567536  0.56618964  0.66425021  1.0
  Ni  Ni1361  1  0.01567536  0.89952298  0.66425021  1.0
  Ni  Ni1362  1  0.34900869  0.23285631  0.66425021  1.0
  Ni  Ni1363  1  0.34900869  0.56618964  0.66425021  1.0
  Ni  Ni1364  1  0.34900869  0.89952298  0.66425021  1.0
  Ni  Ni1365  1  0.68234202  0.23285631  0.66425021  1.0
  Ni  Ni1366  1  0.68234202  0.56618964  0.66425021  1.0
  Ni  Ni1367  1  0.68234202  0.89952298  0.66425021  1.0
  Ni  Ni1368  1  0.12384914  0.29428586  0.62819229  1.0
  Ni  Ni1369  1  0.12384914  0.62761919  0.62819229  1.0
  Ni  Ni1370  1  0.12384914  0.96095252  0.62819229  1.0
  Ni  Ni1371  1  0.45718248  0.29428586  0.62819229  1.0
  Ni  Ni1372  1  0.45718248  0.62761919  0.62819229  1.0
  Ni  Ni1373  1  0.45718248  0.96095252  0.62819229  1.0
  Ni  Ni1374  1  0.79051581  0.29428586  0.62819229  1.0
  Ni  Ni1375  1  0.79051581  0.62761919  0.62819229  1.0
  Ni  Ni1376  1  0.79051581  0.96095252  0.62819229  1.0
  Ni  Ni1377  1  0.24289676  0.17523824  0.69962086  1.0
  Ni  Ni1378  1  0.24289676  0.50857157  0.69962086  1.0
  Ni  Ni1379  1  0.24289676  0.84190490  0.69962086  1.0
  Ni  Ni1380  1  0.57623010  0.17523824  0.69962086  1.0
  Ni  Ni1381  1  0.57623010  0.50857157  0.69962086  1.0
  Ni  Ni1382  1  0.57623010  0.84190490  0.69962086  1.0
  Ni  Ni1383  1  0.90956343  0.17523824  0.69962086  1.0
  Ni  Ni1384  1  0.90956343  0.50857157  0.69962086  1.0
  Ni  Ni1385  1  0.90956343  0.84190490  0.69962086  1.0
  Ni  Ni1386  1  0.27724374  0.30533326  0.68689664  1.0
  Ni  Ni1387  1  0.27724374  0.63866660  0.68689664  1.0
  Ni  Ni1388  1  0.27724374  0.97199993  0.68689664  1.0
  Ni  Ni1389  1  0.61057707  0.30533326  0.68689664  1.0
  Ni  Ni1390  1  0.61057707  0.63866660  0.68689664  1.0
  Ni  Ni1391  1  0.61057707  0.97199993  0.68689664  1.0
  Ni  Ni1392  1  0.94391040  0.30533326  0.68689664  1.0
  Ni  Ni1393  1  0.94391040  0.63866660  0.68689664  1.0
  Ni  Ni1394  1  0.94391040  0.97199993  0.68689664  1.0
  Ni  Ni1395  1  0.15819612  0.09104755  0.61546807  1.0
  Ni  Ni1396  1  0.15819612  0.42438088  0.61546807  1.0
  Ni  Ni1397  1  0.15819612  0.75771421  0.61546807  1.0
  Ni  Ni1398  1  0.49152945  0.09104755  0.61546807  1.0
  Ni  Ni1399  1  0.49152945  0.42438088  0.61546807  1.0
  Ni  Ni1400  1  0.49152945  0.75771421  0.61546807  1.0
  Ni  Ni1401  1  0.82486279  0.09104755  0.61546807  1.0
  Ni  Ni1402  1  0.82486279  0.42438088  0.61546807  1.0
  Ni  Ni1403  1  0.82486279  0.75771421  0.61546807  1.0
  Ni  Ni1404  1  0.19534083  0.22208217  0.60308650  1.0
  Ni  Ni1405  1  0.19534083  0.55541550  0.60308650  1.0
  Ni  Ni1406  1  0.19534083  0.88874883  0.60308650  1.0
  Ni  Ni1407  1  0.52867417  0.22208217  0.60308650  1.0
  Ni  Ni1408  1  0.52867417  0.55541550  0.60308650  1.0
  Ni  Ni1409  1  0.52867417  0.88874883  0.60308650  1.0
  Ni  Ni1410  1  0.86200750  0.22208217  0.60308650  1.0
  Ni  Ni1411  1  0.86200750  0.55541550  0.60308650  1.0
  Ni  Ni1412  1  0.86200750  0.88874883  0.60308650  1.0
  Ni  Ni1413  1  0.31438845  0.10303455  0.67451507  1.0
  Ni  Ni1414  1  0.31438845  0.43636788  0.67451507  1.0
  Ni  Ni1415  1  0.31438845  0.76970121  0.67451507  1.0
  Ni  Ni1416  1  0.64772179  0.10303455  0.67451507  1.0
  Ni  Ni1417  1  0.64772179  0.43636788  0.67451507  1.0
  Ni  Ni1418  1  0.64772179  0.76970121  0.67451507  1.0
  Ni  Ni1419  1  0.98105512  0.10303455  0.67451507  1.0
  Ni  Ni1420  1  0.98105512  0.43636788  0.67451507  1.0
  Ni  Ni1421  1  0.98105512  0.76970121  0.67451507  1.0
  Ni  Ni1422  1  0.32326095  0.00886305  0.59883357  1.0
  Ni  Ni1423  1  0.32326095  0.34219638  0.59883357  1.0
  Ni  Ni1424  1  0.32326095  0.67552971  0.59883357  1.0
  Ni  Ni1425  1  0.65659429  0.00886305  0.59883357  1.0
  Ni  Ni1426  1  0.65659429  0.34219638  0.59883357  1.0
  Ni  Ni1427  1  0.65659429  0.67552971  0.59883357  1.0
  Ni  Ni1428  1  0.98992762  0.00886305  0.59883357  1.0
  Ni  Ni1429  1  0.98992762  0.34219638  0.59883357  1.0
  Ni  Ni1430  1  0.98992762  0.67552971  0.59883357  1.0
  Ni  Ni1431  1  0.10897524  0.22314876  0.67026214  1.0
  Ni  Ni1432  1  0.10897524  0.55648210  0.67026214  1.0
  Ni  Ni1433  1  0.10897524  0.88981543  0.67026214  1.0
  Ni  Ni1434  1  0.44230857  0.22314876  0.67026214  1.0
  Ni  Ni1435  1  0.44230857  0.55648210  0.67026214  1.0
  Ni  Ni1436  1  0.44230857  0.88981543  0.67026214  1.0
  Ni  Ni1437  1  0.77564190  0.22314876  0.67026214  1.0
  Ni  Ni1438  1  0.77564190  0.55648210  0.67026214  1.0
  Ni  Ni1439  1  0.77564190  0.88981543  0.67026214  1.0
  Ni  Ni1440  1  0.03850181  0.29604086  0.69375329  1.0
  Ni  Ni1441  1  0.03850181  0.62937419  0.69375329  1.0
  Ni  Ni1442  1  0.03850181  0.96270752  0.69375329  1.0
  Ni  Ni1443  1  0.37183514  0.29604086  0.69375329  1.0
  Ni  Ni1444  1  0.37183514  0.62937419  0.69375329  1.0
  Ni  Ni1445  1  0.37183514  0.96270752  0.69375329  1.0
  Ni  Ni1446  1  0.70516848  0.29604086  0.69375329  1.0
  Ni  Ni1447  1  0.70516848  0.62937419  0.69375329  1.0
  Ni  Ni1448  1  0.70516848  0.96270752  0.69375329  1.0
  Ni  Ni1449  1  0.25278752  0.08175514  0.62232471  1.0
  Ni  Ni1450  1  0.25278752  0.41508848  0.62232471  1.0
  Ni  Ni1451  1  0.25278752  0.74842181  0.62232471  1.0
  Ni  Ni1452  1  0.58612086  0.08175514  0.62232471  1.0
  Ni  Ni1453  1  0.58612086  0.41508848  0.62232471  1.0
  Ni  Ni1454  1  0.58612086  0.74842181  0.62232471  1.0
  Ni  Ni1455  1  0.91945419  0.08175514  0.62232471  1.0
  Ni  Ni1456  1  0.91945419  0.41508848  0.62232471  1.0
  Ni  Ni1457  1  0.91945419  0.74842181  0.62232471  1.0
  Ni  Ni1458  1  0.00443564  0.28697936  0.62854579  1.0
  Ni  Ni1459  1  0.00443564  0.62031269  0.62854579  1.0
  Ni  Ni1460  1  0.00443564  0.95364602  0.62854579  1.0
  Ni  Ni1461  1  0.33776898  0.28697936  0.62854579  1.0
  Ni  Ni1462  1  0.33776898  0.62031269  0.62854579  1.0
  Ni  Ni1463  1  0.33776898  0.95364602  0.62854579  1.0
  Ni  Ni1464  1  0.67110231  0.28697936  0.62854579  1.0
  Ni  Ni1465  1  0.67110231  0.62031269  0.62854579  1.0
  Ni  Ni1466  1  0.67110231  0.95364602  0.62854579  1.0
  Ni  Ni1467  1  0.12348326  0.16793174  0.69997436  1.0
  Ni  Ni1468  1  0.12348326  0.50126507  0.69997436  1.0
  Ni  Ni1469  1  0.12348326  0.83459840  0.69997436  1.0
  Ni  Ni1470  1  0.45681660  0.16793174  0.69997436  1.0
  Ni  Ni1471  1  0.45681660  0.50126507  0.69997436  1.0
  Ni  Ni1472  1  0.45681660  0.83459840  0.69997436  1.0
  Ni  Ni1473  1  0.79014993  0.16793174  0.69997436  1.0
  Ni  Ni1474  1  0.79014993  0.50126507  0.69997436  1.0
  Ni  Ni1475  1  0.79014993  0.83459840  0.69997436  1.0
  Ni  Ni1476  1  0.24568269  0.12956898  0.65924121  1.0
  Ni  Ni1477  1  0.24568269  0.46290231  0.65924121  1.0
  Ni  Ni1478  1  0.24568269  0.79623564  0.65924121  1.0
  Ni  Ni1479  1  0.57901602  0.12956898  0.65924121  1.0
  Ni  Ni1480  1  0.57901602  0.46290231  0.65924121  1.0
  Ni  Ni1481  1  0.57901602  0.79623564  0.65924121  1.0
  Ni  Ni1482  1  0.91234936  0.12956898  0.65924121  1.0
  Ni  Ni1483  1  0.91234936  0.46290231  0.65924121  1.0
  Ni  Ni1484  1  0.91234936  0.79623564  0.65924121  1.0
  Ni  Ni1485  1  0.12663507  0.24861660  0.58781264  1.0
  Ni  Ni1486  1  0.12663507  0.58194993  0.58781264  1.0
  Ni  Ni1487  1  0.12663507  0.91528326  0.58781264  1.0
  Ni  Ni1488  1  0.45996840  0.24861660  0.58781264  1.0
  Ni  Ni1489  1  0.45996840  0.58194993  0.58781264  1.0
  Ni  Ni1490  1  0.45996840  0.91528326  0.58781264  1.0
  Ni  Ni1491  1  0.79330174  0.24861660  0.58781264  1.0
  Ni  Ni1492  1  0.79330174  0.58194993  0.58781264  1.0
  Ni  Ni1493  1  0.79330174  0.91528326  0.58781264  1.0
  Ni  Ni1494  1  0.28194907  0.25903626  0.64793764  1.0
  Ni  Ni1495  1  0.28194907  0.59236960  0.64793764  1.0
  Ni  Ni1496  1  0.28194907  0.92570293  0.64793764  1.0
  Ni  Ni1497  1  0.61528240  0.25903626  0.64793764  1.0
  Ni  Ni1498  1  0.61528240  0.59236960  0.64793764  1.0
  Ni  Ni1499  1  0.61528240  0.92570293  0.64793764  1.0
  Ni  Ni1500  1  0.94861574  0.25903626  0.64793764  1.0
  Ni  Ni1501  1  0.94861574  0.59236960  0.64793764  1.0
  Ni  Ni1502  1  0.94861574  0.92570293  0.64793764  1.0
  Ni  Ni1503  1  0.16290145  0.04475055  0.57650907  1.0
  Ni  Ni1504  1  0.16290145  0.37808388  0.57650907  1.0
  Ni  Ni1505  1  0.16290145  0.71141721  0.57650907  1.0
  Ni  Ni1506  1  0.49623479  0.04475055  0.57650907  1.0
  Ni  Ni1507  1  0.49623479  0.37808388  0.57650907  1.0
  Ni  Ni1508  1  0.49623479  0.71141721  0.57650907  1.0
  Ni  Ni1509  1  0.82956812  0.04475055  0.57650907  1.0
  Ni  Ni1510  1  0.82956812  0.37808388  0.57650907  1.0
  Ni  Ni1511  1  0.82956812  0.71141721  0.57650907  1.0
  Ni  Ni1512  1  0.30167086  0.15734381  0.64136371  1.0
  Ni  Ni1513  1  0.30167086  0.49067714  0.64136371  1.0
  Ni  Ni1514  1  0.30167086  0.82401048  0.64136371  1.0
  Ni  Ni1515  1  0.63500419  0.15734381  0.64136371  1.0
  Ni  Ni1516  1  0.63500419  0.49067714  0.64136371  1.0
  Ni  Ni1517  1  0.63500419  0.82401048  0.64136371  1.0
  Ni  Ni1518  1  0.96833752  0.15734381  0.64136371  1.0
  Ni  Ni1519  1  0.96833752  0.49067714  0.64136371  1.0
  Ni  Ni1520  1  0.96833752  0.82401048  0.64136371  1.0
  Ni  Ni1521  1  0.08738514  0.03829619  0.71279229  1.0
  Ni  Ni1522  1  0.08738514  0.37162952  0.71279229  1.0
  Ni  Ni1523  1  0.08738514  0.70496286  0.71279229  1.0
  Ni  Ni1524  1  0.42071848  0.03829619  0.71279229  1.0
  Ni  Ni1525  1  0.42071848  0.37162952  0.71279229  1.0
  Ni  Ni1526  1  0.42071848  0.70496286  0.71279229  1.0
  Ni  Ni1527  1  0.75405181  0.03829619  0.71279229  1.0
  Ni  Ni1528  1  0.75405181  0.37162952  0.71279229  1.0
  Ni  Ni1529  1  0.75405181  0.70496286  0.71279229  1.0
  Ni  Ni1530  1  0.22764631  0.23108002  0.66881379  1.0
  Ni  Ni1531  1  0.22764631  0.56441336  0.66881379  1.0
  Ni  Ni1532  1  0.22764631  0.89774669  0.66881379  1.0
  Ni  Ni1533  1  0.56097964  0.23108002  0.66881379  1.0
  Ni  Ni1534  1  0.56097964  0.56441336  0.66881379  1.0
  Ni  Ni1535  1  0.56097964  0.89774669  0.66881379  1.0
  Ni  Ni1536  1  0.89431298  0.23108002  0.66881379  1.0
  Ni  Ni1537  1  0.89431298  0.56441336  0.66881379  1.0
  Ni  Ni1538  1  0.89431298  0.89774669  0.66881379  1.0
  Ni  Ni1539  1  0.10859869  0.01679431  0.59738521  1.0
  Ni  Ni1540  1  0.10859869  0.35012764  0.59738521  1.0
  Ni  Ni1541  1  0.10859869  0.68346098  0.59738521  1.0
  Ni  Ni1542  1  0.44193202  0.01679431  0.59738521  1.0
  Ni  Ni1543  1  0.44193202  0.35012764  0.59738521  1.0
  Ni  Ni1544  1  0.44193202  0.68346098  0.59738521  1.0
  Ni  Ni1545  1  0.77526536  0.01679431  0.59738521  1.0
  Ni  Ni1546  1  0.77526536  0.35012764  0.59738521  1.0
  Ni  Ni1547  1  0.77526536  0.68346098  0.59738521  1.0
  Ni  Ni1548  1  0.14228260  0.06565774  0.69726836  1.0
  Ni  Ni1549  1  0.14228260  0.39899107  0.69726836  1.0
  Ni  Ni1550  1  0.14228260  0.73232440  0.69726836  1.0
  Ni  Ni1551  1  0.47561593  0.06565774  0.69726836  1.0
  Ni  Ni1552  1  0.47561593  0.39899107  0.69726836  1.0
  Ni  Ni1553  1  0.47561593  0.73232440  0.69726836  1.0
  Ni  Ni1554  1  0.80894926  0.06565774  0.69726836  1.0
  Ni  Ni1555  1  0.80894926  0.39899107  0.69726836  1.0
  Ni  Ni1556  1  0.80894926  0.73232440  0.69726836  1.0
  Ni  Ni1557  1  0.02323498  0.18470536  0.62583979  1.0
  Ni  Ni1558  1  0.02323498  0.51803869  0.62583979  1.0
  Ni  Ni1559  1  0.02323498  0.85137202  0.62583979  1.0
  Ni  Ni1560  1  0.35656831  0.18470536  0.62583979  1.0
  Ni  Ni1561  1  0.35656831  0.51803869  0.62583979  1.0
  Ni  Ni1562  1  0.35656831  0.85137202  0.62583979  1.0
  Ni  Ni1563  1  0.68990164  0.18470536  0.62583979  1.0
  Ni  Ni1564  1  0.68990164  0.51803869  0.62583979  1.0
  Ni  Ni1565  1  0.68990164  0.85137202  0.62583979  1.0
  Ni  Ni1566  1  0.17654167  0.19871633  0.68396400  1.0
  Ni  Ni1567  1  0.17654167  0.53204967  0.68396400  1.0
  Ni  Ni1568  1  0.17654167  0.86538300  0.68396400  1.0
  Ni  Ni1569  1  0.50987500  0.19871633  0.68396400  1.0
  Ni  Ni1570  1  0.50987500  0.53204967  0.68396400  1.0
  Ni  Ni1571  1  0.50987500  0.86538300  0.68396400  1.0
  Ni  Ni1572  1  0.84320833  0.19871633  0.68396400  1.0
  Ni  Ni1573  1  0.84320833  0.53204967  0.68396400  1.0
  Ni  Ni1574  1  0.84320833  0.86538300  0.68396400  1.0
  Ni  Ni1575  1  0.05749405  0.31776395  0.61253543  1.0
  Ni  Ni1576  1  0.05749405  0.65109729  0.61253543  1.0
  Ni  Ni1577  1  0.05749405  0.98443062  0.61253543  1.0
  Ni  Ni1578  1  0.39082738  0.31776395  0.61253543  1.0
  Ni  Ni1579  1  0.39082738  0.65109729  0.61253543  1.0
  Ni  Ni1580  1  0.39082738  0.98443062  0.61253543  1.0
  Ni  Ni1581  1  0.72416071  0.31776395  0.61253543  1.0
  Ni  Ni1582  1  0.72416071  0.65109729  0.61253543  1.0
  Ni  Ni1583  1  0.72416071  0.98443062  0.61253543  1.0
  Ni  Ni1584  1  0.07393576  0.21747290  0.60705486  1.0
  Ni  Ni1585  1  0.07393576  0.55080624  0.60705486  1.0
  Ni  Ni1586  1  0.07393576  0.88413957  0.60705486  1.0
  Ni  Ni1587  1  0.40726910  0.21747290  0.60705486  1.0
  Ni  Ni1588  1  0.40726910  0.55080624  0.60705486  1.0
  Ni  Ni1589  1  0.40726910  0.88413957  0.60705486  1.0
  Ni  Ni1590  1  0.74060243  0.21747290  0.60705486  1.0
  Ni  Ni1591  1  0.74060243  0.55080624  0.60705486  1.0
  Ni  Ni1592  1  0.74060243  0.88413957  0.60705486  1.0
  Ni  Ni1593  1  0.19298338  0.09842529  0.67848343  1.0
  Ni  Ni1594  1  0.19298338  0.43175862  0.67848343  1.0
  Ni  Ni1595  1  0.19298338  0.76509195  0.67848343  1.0
  Ni  Ni1596  1  0.52631671  0.09842529  0.67848343  1.0
  Ni  Ni1597  1  0.52631671  0.43175862  0.67848343  1.0
  Ni  Ni1598  1  0.52631671  0.76509195  0.67848343  1.0
  Ni  Ni1599  1  0.85965005  0.09842529  0.67848343  1.0
  Ni  Ni1600  1  0.85965005  0.43175862  0.67848343  1.0
  Ni  Ni1601  1  0.85965005  0.76509195  0.67848343  1.0
  Ni  Ni1602  1  0.26400064  0.02738369  0.65750579  1.0
  Ni  Ni1603  1  0.26400064  0.36071702  0.65750579  1.0
  Ni  Ni1604  1  0.26400064  0.69405036  0.65750579  1.0
  Ni  Ni1605  1  0.59733398  0.02738369  0.65750579  1.0
  Ni  Ni1606  1  0.59733398  0.36071702  0.65750579  1.0
  Ni  Ni1607  1  0.59733398  0.69405036  0.65750579  1.0
  Ni  Ni1608  1  0.93066731  0.02738369  0.65750579  1.0
  Ni  Ni1609  1  0.93066731  0.36071702  0.65750579  1.0
  Ni  Ni1610  1  0.93066731  0.69405036  0.65750579  1.0
  Ni  Ni1611  1  0.14495302  0.14643131  0.58607721  1.0
  Ni  Ni1612  1  0.14495302  0.47976464  0.58607721  1.0
  Ni  Ni1613  1  0.14495302  0.81309798  0.58607721  1.0
  Ni  Ni1614  1  0.47828636  0.14643131  0.58607721  1.0
  Ni  Ni1615  1  0.47828636  0.47976464  0.58607721  1.0
  Ni  Ni1616  1  0.47828636  0.81309798  0.58607721  1.0
  Ni  Ni1617  1  0.81161969  0.14643131  0.58607721  1.0
  Ni  Ni1618  1  0.81161969  0.47976464  0.58607721  1.0
  Ni  Ni1619  1  0.81161969  0.81309798  0.58607721  1.0
  Ni  Ni1620  1  0.10610186  0.26918048  0.71013871  1.0
  Ni  Ni1621  1  0.10610186  0.60251381  0.71013871  1.0
  Ni  Ni1622  1  0.10610186  0.93584714  0.71013871  1.0
  Ni  Ni1623  1  0.43943519  0.26918048  0.71013871  1.0
  Ni  Ni1624  1  0.43943519  0.60251381  0.71013871  1.0
  Ni  Ni1625  1  0.43943519  0.93584714  0.71013871  1.0
  Ni  Ni1626  1  0.77276852  0.26918048  0.71013871  1.0
  Ni  Ni1627  1  0.77276852  0.60251381  0.71013871  1.0
  Ni  Ni1628  1  0.77276852  0.93584714  0.71013871  1.0
  Ni  Ni1629  1  0.32038757  0.05489476  0.63871014  1.0
  Ni  Ni1630  1  0.32038757  0.38822810  0.63871014  1.0
  Ni  Ni1631  1  0.32038757  0.72156143  0.63871014  1.0
  Ni  Ni1632  1  0.65372090  0.05489476  0.63871014  1.0
  Ni  Ni1633  1  0.65372090  0.38822810  0.63871014  1.0
  Ni  Ni1634  1  0.65372090  0.72156143  0.63871014  1.0
  Ni  Ni1635  1  0.98705424  0.05489476  0.63871014  1.0
  Ni  Ni1636  1  0.98705424  0.38822810  0.63871014  1.0
  Ni  Ni1637  1  0.98705424  0.72156143  0.63871014  1.0
  Ni  Ni1638  1  0.20861152  0.33230348  0.67358671  1.0
  Ni  Ni1639  1  0.20861152  0.66563681  0.67358671  1.0
  Ni  Ni1640  1  0.20861152  0.99897014  0.67358671  1.0
  Ni  Ni1641  1  0.54194486  0.33230348  0.67358671  1.0
  Ni  Ni1642  1  0.54194486  0.66563681  0.67358671  1.0
  Ni  Ni1643  1  0.54194486  0.99897014  0.67358671  1.0
  Ni  Ni1644  1  0.87527819  0.33230348  0.67358671  1.0
  Ni  Ni1645  1  0.87527819  0.66563681  0.67358671  1.0
  Ni  Ni1646  1  0.87527819  0.99897014  0.67358671  1.0
  Ni  Ni1647  1  0.08956390  0.11801776  0.60215814  1.0
  Ni  Ni1648  1  0.08956390  0.45135110  0.60215814  1.0
  Ni  Ni1649  1  0.08956390  0.78468443  0.60215814  1.0
  Ni  Ni1650  1  0.42289724  0.11801776  0.60215814  1.0
  Ni  Ni1651  1  0.42289724  0.45135110  0.60215814  1.0
  Ni  Ni1652  1  0.42289724  0.78468443  0.60215814  1.0
  Ni  Ni1653  1  0.75623057  0.11801776  0.60215814  1.0
  Ni  Ni1654  1  0.75623057  0.45135110  0.60215814  1.0
  Ni  Ni1655  1  0.75623057  0.78468443  0.60215814  1.0
  Ni  Ni1656  1  0.16098052  0.29810448  0.68946371  1.0
  Ni  Ni1657  1  0.16098052  0.63143781  0.68946371  1.0
  Ni  Ni1658  1  0.16098052  0.96477114  0.68946371  1.0
  Ni  Ni1659  1  0.49431386  0.29810448  0.68946371  1.0
  Ni  Ni1660  1  0.49431386  0.63143781  0.68946371  1.0
  Ni  Ni1661  1  0.49431386  0.96477114  0.68946371  1.0
  Ni  Ni1662  1  0.82764719  0.29810448  0.68946371  1.0
  Ni  Ni1663  1  0.82764719  0.63143781  0.68946371  1.0
  Ni  Ni1664  1  0.82764719  0.96477114  0.68946371  1.0
  Ni  Ni1665  1  0.04193290  0.08381876  0.61803514  1.0
  Ni  Ni1666  1  0.04193290  0.41715210  0.61803514  1.0
  Ni  Ni1667  1  0.04193290  0.75048543  0.61803514  1.0
  Ni  Ni1668  1  0.37526624  0.08381876  0.61803514  1.0
  Ni  Ni1669  1  0.37526624  0.41715210  0.61803514  1.0
  Ni  Ni1670  1  0.37526624  0.75048543  0.61803514  1.0
  Ni  Ni1671  1  0.70859957  0.08381876  0.61803514  1.0
  Ni  Ni1672  1  0.70859957  0.41715210  0.61803514  1.0
  Ni  Ni1673  1  0.70859957  0.75048543  0.61803514  1.0
