# generated using pymatgen
data_Ni19Ge12
_symmetry_space_group_name_H-M   'P 1'
_cell_length_a   30.18952998
_cell_length_b   34.95195598
_cell_length_c   53.78239096
_cell_angle_alpha   150.05478421
_cell_angle_beta   90.05710560
_cell_angle_gamma   89.93409648
_symmetry_Int_Tables_number   1
_chemical_formula_structural   Ni19Ge12
_chemical_formula_sum   'Ni513 Ge324'
_cell_volume   28328.11111651
_cell_formula_units_Z   27
loop_
 _symmetry_equiv_pos_site_id
 _symmetry_equiv_pos_as_xyz
  1  'x, y, z'
loop_
 _atom_site_type_symbol
 _atom_site_label
 _atom_site_symmetry_multiplicity
 _atom_site_fract_x
 _atom_site_fract_y
 _atom_site_fract_z
 _atom_site_occupancy
  Ni  Ni0  1  0.16666667  0.22379767  0.04108550  1.0
  Ni  Ni1  1  0.16666667  0.55713100  0.04108550  1.0
  Ni  Ni2  1  0.16666667  0.89046433  0.04108550  1.0
  Ni  Ni3  1  0.50000000  0.22379767  0.04108550  1.0
  Ni  Ni4  1  0.50000000  0.55713100  0.04108550  1.0
  Ni  Ni5  1  0.50000000  0.89046433  0.04108550  1.0
  Ni  Ni6  1  0.83333333  0.22379767  0.04108550  1.0
  Ni  Ni7  1  0.83333333  0.55713100  0.04108550  1.0
  Ni  Ni8  1  0.83333333  0.89046433  0.04108550  1.0
  Ni  Ni9  1  0.08480167  0.00181933  0.12410188  1.0
  Ni  Ni10  1  0.08480167  0.33515267  0.12410188  1.0
  Ni  Ni11  1  0.08480167  0.66848600  0.12410188  1.0
  Ni  Ni12  1  0.41813500  0.00181933  0.12410188  1.0
  Ni  Ni13  1  0.41813500  0.33515267  0.12410188  1.0
  Ni  Ni14  1  0.41813500  0.66848600  0.12410188  1.0
  Ni  Ni15  1  0.75146833  0.00181933  0.12410188  1.0
  Ni  Ni16  1  0.75146833  0.33515267  0.12410188  1.0
  Ni  Ni17  1  0.75146833  0.66848600  0.12410188  1.0
  Ni  Ni18  1  0.24853167  0.00048633  0.12410187  1.0
  Ni  Ni19  1  0.24853167  0.33381967  0.12410187  1.0
  Ni  Ni20  1  0.24853167  0.66715300  0.12410187  1.0
  Ni  Ni21  1  0.58186500  0.00048633  0.12410187  1.0
  Ni  Ni22  1  0.58186500  0.33381967  0.12410187  1.0
  Ni  Ni23  1  0.58186500  0.66715300  0.12410187  1.0
  Ni  Ni24  1  0.91519833  0.00048633  0.12410188  1.0
  Ni  Ni25  1  0.91519833  0.33381967  0.12410188  1.0
  Ni  Ni26  1  0.91519833  0.66715300  0.12410188  1.0
  Ni  Ni27  1  0.08408967  0.22110600  0.12266725  1.0
  Ni  Ni28  1  0.08408967  0.55443933  0.12266725  1.0
  Ni  Ni29  1  0.08408967  0.88777267  0.12266725  1.0
  Ni  Ni30  1  0.41742300  0.22110600  0.12266725  1.0
  Ni  Ni31  1  0.41742300  0.55443933  0.12266725  1.0
  Ni  Ni32  1  0.41742300  0.88777267  0.12266725  1.0
  Ni  Ni33  1  0.75075633  0.22110600  0.12266725  1.0
  Ni  Ni34  1  0.75075633  0.55443933  0.12266725  1.0
  Ni  Ni35  1  0.75075633  0.88777267  0.12266725  1.0
  Ni  Ni36  1  0.24924367  0.11070733  0.12266725  1.0
  Ni  Ni37  1  0.24924367  0.44404067  0.12266725  1.0
  Ni  Ni38  1  0.24924367  0.77737400  0.12266725  1.0
  Ni  Ni39  1  0.58257700  0.11070733  0.12266725  1.0
  Ni  Ni40  1  0.58257700  0.44404067  0.12266725  1.0
  Ni  Ni41  1  0.58257700  0.77737400  0.12266725  1.0
  Ni  Ni42  1  0.91591033  0.11070733  0.12266725  1.0
  Ni  Ni43  1  0.91591033  0.44404067  0.12266725  1.0
  Ni  Ni44  1  0.91591033  0.77737400  0.12266725  1.0
  Ni  Ni45  1  0.00120933  0.11284267  0.04085275  1.0
  Ni  Ni46  1  0.00120933  0.44617600  0.04085275  1.0
  Ni  Ni47  1  0.00120933  0.77950933  0.04085275  1.0
  Ni  Ni48  1  0.33454267  0.11284267  0.04085275  1.0
  Ni  Ni49  1  0.33454267  0.44617600  0.04085275  1.0
  Ni  Ni50  1  0.33454267  0.77950933  0.04085275  1.0
  Ni  Ni51  1  0.66787600  0.11284267  0.04085275  1.0
  Ni  Ni52  1  0.66787600  0.44617600  0.04085275  1.0
  Ni  Ni53  1  0.66787600  0.77950933  0.04085275  1.0
  Ni  Ni54  1  0.33212400  0.00079867  0.04085275  1.0
  Ni  Ni55  1  0.33212400  0.33413200  0.04085275  1.0
  Ni  Ni56  1  0.33212400  0.66746533  0.04085275  1.0
  Ni  Ni57  1  0.66545733  0.00079867  0.04085275  1.0
  Ni  Ni58  1  0.66545733  0.33413200  0.04085275  1.0
  Ni  Ni59  1  0.66545733  0.66746533  0.04085275  1.0
  Ni  Ni60  1  0.99879067  0.00079867  0.04085275  1.0
  Ni  Ni61  1  0.99879067  0.33413200  0.04085275  1.0
  Ni  Ni62  1  0.99879067  0.66746533  0.04085275  1.0
  Ni  Ni63  1  0.04191833  0.22218400  0.07971950  1.0
  Ni  Ni64  1  0.04191833  0.55551733  0.07971950  1.0
  Ni  Ni65  1  0.04191833  0.88885067  0.07971950  1.0
  Ni  Ni66  1  0.37525167  0.22218400  0.07971950  1.0
  Ni  Ni67  1  0.37525167  0.55551733  0.07971950  1.0
  Ni  Ni68  1  0.37525167  0.88885067  0.07971950  1.0
  Ni  Ni69  1  0.70858500  0.22218400  0.07971950  1.0
  Ni  Ni70  1  0.70858500  0.55551733  0.07971950  1.0
  Ni  Ni71  1  0.70858500  0.88885067  0.07971950  1.0
  Ni  Ni72  1  0.29141500  0.32843533  0.07971950  1.0
  Ni  Ni73  1  0.29141500  0.66176867  0.07971950  1.0
  Ni  Ni74  1  0.29141500  0.99510200  0.07971950  1.0
  Ni  Ni75  1  0.62474833  0.32843533  0.07971950  1.0
  Ni  Ni76  1  0.62474833  0.66176867  0.07971950  1.0
  Ni  Ni77  1  0.62474833  0.99510200  0.07971950  1.0
  Ni  Ni78  1  0.95808167  0.32843533  0.07971950  1.0
  Ni  Ni79  1  0.95808167  0.66176867  0.07971950  1.0
  Ni  Ni80  1  0.95808167  0.99510200  0.07971950  1.0
  Ni  Ni81  1  0.12568133  0.22016300  0.08060288  1.0
  Ni  Ni82  1  0.12568133  0.55349633  0.08060287  1.0
  Ni  Ni83  1  0.12568133  0.88682967  0.08060287  1.0
  Ni  Ni84  1  0.45901467  0.22016300  0.08060288  1.0
  Ni  Ni85  1  0.45901467  0.55349633  0.08060287  1.0
  Ni  Ni86  1  0.45901467  0.88682967  0.08060287  1.0
  Ni  Ni87  1  0.79234800  0.22016300  0.08060288  1.0
  Ni  Ni88  1  0.79234800  0.55349633  0.08060287  1.0
  Ni  Ni89  1  0.79234800  0.88682967  0.08060287  1.0
  Ni  Ni90  1  0.20765200  0.33281200  0.08060287  1.0
  Ni  Ni91  1  0.20765200  0.66614533  0.08060288  1.0
  Ni  Ni92  1  0.20765200  0.99947867  0.08060288  1.0
  Ni  Ni93  1  0.54098533  0.33281200  0.08060287  1.0
  Ni  Ni94  1  0.54098533  0.66614533  0.08060287  1.0
  Ni  Ni95  1  0.54098533  0.99947867  0.08060287  1.0
  Ni  Ni96  1  0.87431867  0.33281200  0.08060287  1.0
  Ni  Ni97  1  0.87431867  0.66614533  0.08060287  1.0
  Ni  Ni98  1  0.87431867  0.99947867  0.08060288  1.0
  Ni  Ni99  1  0.20794033  0.22165133  0.08372500  1.0
  Ni  Ni100  1  0.20794033  0.55498467  0.08372500  1.0
  Ni  Ni101  1  0.20794033  0.88831800  0.08372500  1.0
  Ni  Ni102  1  0.54127367  0.22165133  0.08372500  1.0
  Ni  Ni103  1  0.54127367  0.55498467  0.08372500  1.0
  Ni  Ni104  1  0.54127367  0.88831800  0.08372500  1.0
  Ni  Ni105  1  0.87460700  0.22165133  0.08372500  1.0
  Ni  Ni106  1  0.87460700  0.55498467  0.08372500  1.0
  Ni  Ni107  1  0.87460700  0.88831800  0.08372500  1.0
  Ni  Ni108  1  0.12539300  0.00631600  0.08372500  1.0
  Ni  Ni109  1  0.12539300  0.33964933  0.08372500  1.0
  Ni  Ni110  1  0.12539300  0.67298267  0.08372500  1.0
  Ni  Ni111  1  0.45872633  0.00631600  0.08372500  1.0
  Ni  Ni112  1  0.45872633  0.33964933  0.08372500  1.0
  Ni  Ni113  1  0.45872633  0.67298267  0.08372500  1.0
  Ni  Ni114  1  0.79205967  0.00631600  0.08372500  1.0
  Ni  Ni115  1  0.79205967  0.33964933  0.08372500  1.0
  Ni  Ni116  1  0.79205967  0.67298267  0.08372500  1.0
  Ni  Ni117  1  0.29140867  0.22311067  0.08160475  1.0
  Ni  Ni118  1  0.29140867  0.55644400  0.08160475  1.0
  Ni  Ni119  1  0.29140867  0.88977733  0.08160475  1.0
  Ni  Ni120  1  0.62474200  0.22311067  0.08160475  1.0
  Ni  Ni121  1  0.62474200  0.55644400  0.08160475  1.0
  Ni  Ni122  1  0.62474200  0.88977733  0.08160475  1.0
  Ni  Ni123  1  0.95807533  0.22311067  0.08160475  1.0
  Ni  Ni124  1  0.95807533  0.55644400  0.08160475  1.0
  Ni  Ni125  1  0.95807533  0.88977733  0.08160475  1.0
  Ni  Ni126  1  0.04192467  0.33253600  0.08160475  1.0
  Ni  Ni127  1  0.04192467  0.66586933  0.08160475  1.0
  Ni  Ni128  1  0.04192467  0.99920267  0.08160475  1.0
  Ni  Ni129  1  0.37525800  0.33253600  0.08160475  1.0
  Ni  Ni130  1  0.37525800  0.66586933  0.08160475  1.0
  Ni  Ni131  1  0.37525800  0.99920267  0.08160475  1.0
  Ni  Ni132  1  0.70859133  0.33253600  0.08160475  1.0
  Ni  Ni133  1  0.70859133  0.66586933  0.08160475  1.0
  Ni  Ni134  1  0.70859133  0.99920267  0.08160475  1.0
  Ni  Ni135  1  0.04194900  0.11329133  0.08463638  1.0
  Ni  Ni136  1  0.04194900  0.44662467  0.08463638  1.0
  Ni  Ni137  1  0.04194900  0.77995800  0.08463637  1.0
  Ni  Ni138  1  0.37528233  0.11329133  0.08463638  1.0
  Ni  Ni139  1  0.37528233  0.44662467  0.08463638  1.0
  Ni  Ni140  1  0.37528233  0.77995800  0.08463637  1.0
  Ni  Ni141  1  0.70861567  0.11329133  0.08463638  1.0
  Ni  Ni142  1  0.70861567  0.44662467  0.08463638  1.0
  Ni  Ni143  1  0.70861567  0.77995800  0.08463637  1.0
  Ni  Ni144  1  0.29138433  0.11710633  0.08463638  1.0
  Ni  Ni145  1  0.29138433  0.45043967  0.08463637  1.0
  Ni  Ni146  1  0.29138433  0.78377300  0.08463638  1.0
  Ni  Ni147  1  0.62471767  0.11710633  0.08463638  1.0
  Ni  Ni148  1  0.62471767  0.45043967  0.08463637  1.0
  Ni  Ni149  1  0.62471767  0.78377300  0.08463637  1.0
  Ni  Ni150  1  0.95805100  0.11710633  0.08463638  1.0
  Ni  Ni151  1  0.95805100  0.45043967  0.08463638  1.0
  Ni  Ni152  1  0.95805100  0.78377300  0.08463637  1.0
  Ni  Ni153  1  0.12575167  0.10775700  0.08195650  1.0
  Ni  Ni154  1  0.12575167  0.44109033  0.08195650  1.0
  Ni  Ni155  1  0.12575167  0.77442367  0.08195650  1.0
  Ni  Ni156  1  0.45908500  0.10775700  0.08195650  1.0
  Ni  Ni157  1  0.45908500  0.44109033  0.08195650  1.0
  Ni  Ni158  1  0.45908500  0.77442367  0.08195650  1.0
  Ni  Ni159  1  0.79241833  0.10775700  0.08195650  1.0
  Ni  Ni160  1  0.79241833  0.44109033  0.08195650  1.0
  Ni  Ni161  1  0.79241833  0.77442367  0.08195650  1.0
  Ni  Ni162  1  0.20758167  0.11549433  0.08195650  1.0
  Ni  Ni163  1  0.20758167  0.44882767  0.08195650  1.0
  Ni  Ni164  1  0.20758167  0.78216100  0.08195650  1.0
  Ni  Ni165  1  0.54091500  0.11549433  0.08195650  1.0
  Ni  Ni166  1  0.54091500  0.44882767  0.08195650  1.0
  Ni  Ni167  1  0.54091500  0.78216100  0.08195650  1.0
  Ni  Ni168  1  0.87424833  0.11549433  0.08195650  1.0
  Ni  Ni169  1  0.87424833  0.44882767  0.08195650  1.0
  Ni  Ni170  1  0.87424833  0.78216100  0.08195650  1.0
  Ge  Ge171  1  0.00000000  0.32475900  0.11680650  1.0
  Ge  Ge172  1  0.00000000  0.65809233  0.11680650  1.0
  Ge  Ge173  1  0.00000000  0.99142567  0.11680650  1.0
  Ge  Ge174  1  0.33333333  0.32475900  0.11680650  1.0
  Ge  Ge175  1  0.33333333  0.65809233  0.11680650  1.0
  Ge  Ge176  1  0.33333333  0.99142567  0.11680650  1.0
  Ge  Ge177  1  0.66666667  0.32475900  0.11680650  1.0
  Ge  Ge178  1  0.66666667  0.65809233  0.11680650  1.0
  Ge  Ge179  1  0.66666667  0.99142567  0.11680650  1.0
  Ge  Ge180  1  0.16666667  0.00758700  0.00392750  1.0
  Ge  Ge181  1  0.16666667  0.34092033  0.00392750  1.0
  Ge  Ge182  1  0.16666667  0.67425367  0.00392750  1.0
  Ge  Ge183  1  0.50000000  0.00758700  0.00392750  1.0
  Ge  Ge184  1  0.50000000  0.34092033  0.00392750  1.0
  Ge  Ge185  1  0.50000000  0.67425367  0.00392750  1.0
  Ge  Ge186  1  0.83333333  0.00758700  0.00392750  1.0
  Ge  Ge187  1  0.83333333  0.34092033  0.00392750  1.0
  Ge  Ge188  1  0.83333333  0.67425367  0.00392750  1.0
  Ge  Ge189  1  0.08416467  0.21246633  0.03643600  1.0
  Ge  Ge190  1  0.08416467  0.54579967  0.03643600  1.0
  Ge  Ge191  1  0.08416467  0.87913300  0.03643600  1.0
  Ge  Ge192  1  0.41749800  0.21246633  0.03643600  1.0
  Ge  Ge193  1  0.41749800  0.54579967  0.03643600  1.0
  Ge  Ge194  1  0.41749800  0.87913300  0.03643600  1.0
  Ge  Ge195  1  0.75083133  0.21246633  0.03643600  1.0
  Ge  Ge196  1  0.75083133  0.54579967  0.03643600  1.0
  Ge  Ge197  1  0.75083133  0.87913300  0.03643600  1.0
  Ge  Ge198  1  0.24916867  0.22273033  0.03643600  1.0
  Ge  Ge199  1  0.24916867  0.55606367  0.03643600  1.0
  Ge  Ge200  1  0.24916867  0.88939700  0.03643600  1.0
  Ge  Ge201  1  0.58250200  0.22273033  0.03643600  1.0
  Ge  Ge202  1  0.58250200  0.55606367  0.03643600  1.0
  Ge  Ge203  1  0.58250200  0.88939700  0.03643600  1.0
  Ge  Ge204  1  0.91583533  0.22273033  0.03643600  1.0
  Ge  Ge205  1  0.91583533  0.55606367  0.03643600  1.0
  Ge  Ge206  1  0.91583533  0.88939700  0.03643600  1.0
  Ge  Ge207  1  0.00076067  0.22285967  0.00288525  1.0
  Ge  Ge208  1  0.00076067  0.55619300  0.00288525  1.0
  Ge  Ge209  1  0.00076067  0.88952633  0.00288525  1.0
  Ge  Ge210  1  0.33409400  0.22285967  0.00288525  1.0
  Ge  Ge211  1  0.33409400  0.55619300  0.00288525  1.0
  Ge  Ge212  1  0.33409400  0.88952633  0.00288525  1.0
  Ge  Ge213  1  0.66742733  0.22285967  0.00288525  1.0
  Ge  Ge214  1  0.66742733  0.55619300  0.00288525  1.0
  Ge  Ge215  1  0.66742733  0.88952633  0.00288525  1.0
  Ge  Ge216  1  0.33257267  0.12286833  0.00288525  1.0
  Ge  Ge217  1  0.33257267  0.45620167  0.00288525  1.0
  Ge  Ge218  1  0.33257267  0.78953500  0.00288525  1.0
  Ge  Ge219  1  0.66590600  0.12286833  0.00288525  1.0
  Ge  Ge220  1  0.66590600  0.45620167  0.00288525  1.0
  Ge  Ge221  1  0.66590600  0.78953500  0.00288525  1.0
  Ge  Ge222  1  0.99923933  0.12286833  0.00288525  1.0
  Ge  Ge223  1  0.99923933  0.45620167  0.00288525  1.0
  Ge  Ge224  1  0.99923933  0.78953500  0.00288525  1.0
  Ge  Ge225  1  0.16598933  0.22376000  0.12211475  1.0
  Ge  Ge226  1  0.16598933  0.55709333  0.12211475  1.0
  Ge  Ge227  1  0.16598933  0.89042667  0.12211475  1.0
  Ge  Ge228  1  0.49932267  0.22376000  0.12211475  1.0
  Ge  Ge229  1  0.49932267  0.55709333  0.12211475  1.0
  Ge  Ge230  1  0.49932267  0.89042667  0.12211475  1.0
  Ge  Ge231  1  0.83265600  0.22376000  0.12211475  1.0
  Ge  Ge232  1  0.83265600  0.55709333  0.12211475  1.0
  Ge  Ge233  1  0.83265600  0.89042667  0.12211475  1.0
  Ge  Ge234  1  0.16734400  0.10658000  0.12211475  1.0
  Ge  Ge235  1  0.16734400  0.43991333  0.12211475  1.0
  Ge  Ge236  1  0.16734400  0.77324667  0.12211475  1.0
  Ge  Ge237  1  0.50067733  0.10658000  0.12211475  1.0
  Ge  Ge238  1  0.50067733  0.43991333  0.12211475  1.0
  Ge  Ge239  1  0.50067733  0.77324667  0.12211475  1.0
  Ge  Ge240  1  0.83401067  0.10658000  0.12211475  1.0
  Ge  Ge241  1  0.83401067  0.43991333  0.12211475  1.0
  Ge  Ge242  1  0.83401067  0.77324667  0.12211475  1.0
  Ge  Ge243  1  0.08408633  0.11190233  0.03571363  1.0
  Ge  Ge244  1  0.08408633  0.44523567  0.03571363  1.0
  Ge  Ge245  1  0.08408633  0.77856900  0.03571363  1.0
  Ge  Ge246  1  0.41741967  0.11190233  0.03571363  1.0
  Ge  Ge247  1  0.41741967  0.44523567  0.03571363  1.0
  Ge  Ge248  1  0.41741967  0.77856900  0.03571363  1.0
  Ge  Ge249  1  0.75075300  0.11190233  0.03571363  1.0
  Ge  Ge250  1  0.75075300  0.44523567  0.03571363  1.0
  Ge  Ge251  1  0.75075300  0.77856900  0.03571362  1.0
  Ge  Ge252  1  0.24924700  0.32136800  0.03571362  1.0
  Ge  Ge253  1  0.24924700  0.65470133  0.03571362  1.0
  Ge  Ge254  1  0.24924700  0.98803467  0.03571362  1.0
  Ge  Ge255  1  0.58258033  0.32136800  0.03571362  1.0
  Ge  Ge256  1  0.58258033  0.65470133  0.03571362  1.0
  Ge  Ge257  1  0.58258033  0.98803467  0.03571363  1.0
  Ge  Ge258  1  0.91591367  0.32136800  0.03571363  1.0
  Ge  Ge259  1  0.91591367  0.65470133  0.03571362  1.0
  Ge  Ge260  1  0.91591367  0.98803467  0.03571362  1.0
  Ge  Ge261  1  0.25067167  0.12120933  0.04725125  1.0
  Ge  Ge262  1  0.25067167  0.45454267  0.04725125  1.0
  Ge  Ge263  1  0.25067167  0.78787600  0.04725125  1.0
  Ge  Ge264  1  0.58400500  0.12120933  0.04725125  1.0
  Ge  Ge265  1  0.58400500  0.45454267  0.04725125  1.0
  Ge  Ge266  1  0.58400500  0.78787600  0.04725125  1.0
  Ge  Ge267  1  0.91733833  0.12120933  0.04725125  1.0
  Ge  Ge268  1  0.91733833  0.45454267  0.04725125  1.0
  Ge  Ge269  1  0.91733833  0.78787600  0.04725125  1.0
  Ge  Ge270  1  0.08266167  0.00949467  0.04725125  1.0
  Ge  Ge271  1  0.08266167  0.34282800  0.04725125  1.0
  Ge  Ge272  1  0.08266167  0.67616133  0.04725125  1.0
  Ge  Ge273  1  0.41599500  0.00949467  0.04725125  1.0
  Ge  Ge274  1  0.41599500  0.34282800  0.04725125  1.0
  Ge  Ge275  1  0.41599500  0.67616133  0.04725125  1.0
  Ge  Ge276  1  0.74932833  0.00949467  0.04725125  1.0
  Ge  Ge277  1  0.74932833  0.34282800  0.04725125  1.0
  Ge  Ge278  1  0.74932833  0.67616133  0.04725125  1.0
  Ni  Ni279  1  0.16666667  0.22379767  0.16608550  1.0
  Ni  Ni280  1  0.16666667  0.55713100  0.16608550  1.0
  Ni  Ni281  1  0.16666667  0.89046433  0.16608550  1.0
  Ni  Ni282  1  0.50000000  0.22379767  0.16608550  1.0
  Ni  Ni283  1  0.50000000  0.55713100  0.16608550  1.0
  Ni  Ni284  1  0.50000000  0.89046433  0.16608550  1.0
  Ni  Ni285  1  0.83333333  0.22379767  0.16608550  1.0
  Ni  Ni286  1  0.83333333  0.55713100  0.16608550  1.0
  Ni  Ni287  1  0.83333333  0.89046433  0.16608550  1.0
  Ni  Ni288  1  0.08480167  0.00181933  0.24910188  1.0
  Ni  Ni289  1  0.08480167  0.33515267  0.24910188  1.0
  Ni  Ni290  1  0.08480167  0.66848600  0.24910188  1.0
  Ni  Ni291  1  0.41813500  0.00181933  0.24910188  1.0
  Ni  Ni292  1  0.41813500  0.33515267  0.24910188  1.0
  Ni  Ni293  1  0.41813500  0.66848600  0.24910188  1.0
  Ni  Ni294  1  0.75146833  0.00181933  0.24910188  1.0
  Ni  Ni295  1  0.75146833  0.33515267  0.24910188  1.0
  Ni  Ni296  1  0.75146833  0.66848600  0.24910188  1.0
  Ni  Ni297  1  0.24853167  0.00048633  0.24910188  1.0
  Ni  Ni298  1  0.24853167  0.33381967  0.24910187  1.0
  Ni  Ni299  1  0.24853167  0.66715300  0.24910187  1.0
  Ni  Ni300  1  0.58186500  0.00048633  0.24910187  1.0
  Ni  Ni301  1  0.58186500  0.33381967  0.24910187  1.0
  Ni  Ni302  1  0.58186500  0.66715300  0.24910188  1.0
  Ni  Ni303  1  0.91519833  0.00048633  0.24910187  1.0
  Ni  Ni304  1  0.91519833  0.33381967  0.24910188  1.0
  Ni  Ni305  1  0.91519833  0.66715300  0.24910188  1.0
  Ni  Ni306  1  0.08408967  0.22110600  0.24766725  1.0
  Ni  Ni307  1  0.08408967  0.55443933  0.24766725  1.0
  Ni  Ni308  1  0.08408967  0.88777267  0.24766725  1.0
  Ni  Ni309  1  0.41742300  0.22110600  0.24766725  1.0
  Ni  Ni310  1  0.41742300  0.55443933  0.24766725  1.0
  Ni  Ni311  1  0.41742300  0.88777267  0.24766725  1.0
  Ni  Ni312  1  0.75075633  0.22110600  0.24766725  1.0
  Ni  Ni313  1  0.75075633  0.55443933  0.24766725  1.0
  Ni  Ni314  1  0.75075633  0.88777267  0.24766725  1.0
  Ni  Ni315  1  0.24924367  0.11070733  0.24766725  1.0
  Ni  Ni316  1  0.24924367  0.44404067  0.24766725  1.0
  Ni  Ni317  1  0.24924367  0.77737400  0.24766725  1.0
  Ni  Ni318  1  0.58257700  0.11070733  0.24766725  1.0
  Ni  Ni319  1  0.58257700  0.44404067  0.24766725  1.0
  Ni  Ni320  1  0.58257700  0.77737400  0.24766725  1.0
  Ni  Ni321  1  0.91591033  0.11070733  0.24766725  1.0
  Ni  Ni322  1  0.91591033  0.44404067  0.24766725  1.0
  Ni  Ni323  1  0.91591033  0.77737400  0.24766725  1.0
  Ni  Ni324  1  0.00120933  0.11284267  0.16585275  1.0
  Ni  Ni325  1  0.00120933  0.44617600  0.16585275  1.0
  Ni  Ni326  1  0.00120933  0.77950933  0.16585275  1.0
  Ni  Ni327  1  0.33454267  0.11284267  0.16585275  1.0
  Ni  Ni328  1  0.33454267  0.44617600  0.16585275  1.0
  Ni  Ni329  1  0.33454267  0.77950933  0.16585275  1.0
  Ni  Ni330  1  0.66787600  0.11284267  0.16585275  1.0
  Ni  Ni331  1  0.66787600  0.44617600  0.16585275  1.0
  Ni  Ni332  1  0.66787600  0.77950933  0.16585275  1.0
  Ni  Ni333  1  0.33212400  0.00079867  0.16585275  1.0
  Ni  Ni334  1  0.33212400  0.33413200  0.16585275  1.0
  Ni  Ni335  1  0.33212400  0.66746533  0.16585275  1.0
  Ni  Ni336  1  0.66545733  0.00079867  0.16585275  1.0
  Ni  Ni337  1  0.66545733  0.33413200  0.16585275  1.0
  Ni  Ni338  1  0.66545733  0.66746533  0.16585275  1.0
  Ni  Ni339  1  0.99879067  0.00079867  0.16585275  1.0
  Ni  Ni340  1  0.99879067  0.33413200  0.16585275  1.0
  Ni  Ni341  1  0.99879067  0.66746533  0.16585275  1.0
  Ni  Ni342  1  0.04191833  0.22218400  0.20471950  1.0
  Ni  Ni343  1  0.04191833  0.55551733  0.20471950  1.0
  Ni  Ni344  1  0.04191833  0.88885067  0.20471950  1.0
  Ni  Ni345  1  0.37525167  0.22218400  0.20471950  1.0
  Ni  Ni346  1  0.37525167  0.55551733  0.20471950  1.0
  Ni  Ni347  1  0.37525167  0.88885067  0.20471950  1.0
  Ni  Ni348  1  0.70858500  0.22218400  0.20471950  1.0
  Ni  Ni349  1  0.70858500  0.55551733  0.20471950  1.0
  Ni  Ni350  1  0.70858500  0.88885067  0.20471950  1.0
  Ni  Ni351  1  0.29141500  0.32843533  0.20471950  1.0
  Ni  Ni352  1  0.29141500  0.66176867  0.20471950  1.0
  Ni  Ni353  1  0.29141500  0.99510200  0.20471950  1.0
  Ni  Ni354  1  0.62474833  0.32843533  0.20471950  1.0
  Ni  Ni355  1  0.62474833  0.66176867  0.20471950  1.0
  Ni  Ni356  1  0.62474833  0.99510200  0.20471950  1.0
  Ni  Ni357  1  0.95808167  0.32843533  0.20471950  1.0
  Ni  Ni358  1  0.95808167  0.66176867  0.20471950  1.0
  Ni  Ni359  1  0.95808167  0.99510200  0.20471950  1.0
  Ni  Ni360  1  0.12568133  0.22016300  0.20560288  1.0
  Ni  Ni361  1  0.12568133  0.55349633  0.20560287  1.0
  Ni  Ni362  1  0.12568133  0.88682967  0.20560288  1.0
  Ni  Ni363  1  0.45901467  0.22016300  0.20560288  1.0
  Ni  Ni364  1  0.45901467  0.55349633  0.20560287  1.0
  Ni  Ni365  1  0.45901467  0.88682967  0.20560288  1.0
  Ni  Ni366  1  0.79234800  0.22016300  0.20560288  1.0
  Ni  Ni367  1  0.79234800  0.55349633  0.20560287  1.0
  Ni  Ni368  1  0.79234800  0.88682967  0.20560287  1.0
  Ni  Ni369  1  0.20765200  0.33281200  0.20560287  1.0
  Ni  Ni370  1  0.20765200  0.66614533  0.20560287  1.0
  Ni  Ni371  1  0.20765200  0.99947867  0.20560287  1.0
  Ni  Ni372  1  0.54098533  0.33281200  0.20560287  1.0
  Ni  Ni373  1  0.54098533  0.66614533  0.20560287  1.0
  Ni  Ni374  1  0.54098533  0.99947867  0.20560287  1.0
  Ni  Ni375  1  0.87431867  0.33281200  0.20560287  1.0
  Ni  Ni376  1  0.87431867  0.66614533  0.20560287  1.0
  Ni  Ni377  1  0.87431867  0.99947867  0.20560287  1.0
  Ni  Ni378  1  0.20794033  0.22165133  0.20872500  1.0
  Ni  Ni379  1  0.20794033  0.55498467  0.20872500  1.0
  Ni  Ni380  1  0.20794033  0.88831800  0.20872500  1.0
  Ni  Ni381  1  0.54127367  0.22165133  0.20872500  1.0
  Ni  Ni382  1  0.54127367  0.55498467  0.20872500  1.0
  Ni  Ni383  1  0.54127367  0.88831800  0.20872500  1.0
  Ni  Ni384  1  0.87460700  0.22165133  0.20872500  1.0
  Ni  Ni385  1  0.87460700  0.55498467  0.20872500  1.0
  Ni  Ni386  1  0.87460700  0.88831800  0.20872500  1.0
  Ni  Ni387  1  0.12539300  0.00631600  0.20872500  1.0
  Ni  Ni388  1  0.12539300  0.33964933  0.20872500  1.0
  Ni  Ni389  1  0.12539300  0.67298267  0.20872500  1.0
  Ni  Ni390  1  0.45872633  0.00631600  0.20872500  1.0
  Ni  Ni391  1  0.45872633  0.33964933  0.20872500  1.0
  Ni  Ni392  1  0.45872633  0.67298267  0.20872500  1.0
  Ni  Ni393  1  0.79205967  0.00631600  0.20872500  1.0
  Ni  Ni394  1  0.79205967  0.33964933  0.20872500  1.0
  Ni  Ni395  1  0.79205967  0.67298267  0.20872500  1.0
  Ni  Ni396  1  0.29140867  0.22311067  0.20660475  1.0
  Ni  Ni397  1  0.29140867  0.55644400  0.20660475  1.0
  Ni  Ni398  1  0.29140867  0.88977733  0.20660475  1.0
  Ni  Ni399  1  0.62474200  0.22311067  0.20660475  1.0
  Ni  Ni400  1  0.62474200  0.55644400  0.20660475  1.0
  Ni  Ni401  1  0.62474200  0.88977733  0.20660475  1.0
  Ni  Ni402  1  0.95807533  0.22311067  0.20660475  1.0
  Ni  Ni403  1  0.95807533  0.55644400  0.20660475  1.0
  Ni  Ni404  1  0.95807533  0.88977733  0.20660475  1.0
  Ni  Ni405  1  0.04192467  0.33253600  0.20660475  1.0
  Ni  Ni406  1  0.04192467  0.66586933  0.20660475  1.0
  Ni  Ni407  1  0.04192467  0.99920267  0.20660475  1.0
  Ni  Ni408  1  0.37525800  0.33253600  0.20660475  1.0
  Ni  Ni409  1  0.37525800  0.66586933  0.20660475  1.0
  Ni  Ni410  1  0.37525800  0.99920267  0.20660475  1.0
  Ni  Ni411  1  0.70859133  0.33253600  0.20660475  1.0
  Ni  Ni412  1  0.70859133  0.66586933  0.20660475  1.0
  Ni  Ni413  1  0.70859133  0.99920267  0.20660475  1.0
  Ni  Ni414  1  0.04194900  0.11329133  0.20963638  1.0
  Ni  Ni415  1  0.04194900  0.44662467  0.20963638  1.0
  Ni  Ni416  1  0.04194900  0.77995800  0.20963637  1.0
  Ni  Ni417  1  0.37528233  0.11329133  0.20963638  1.0
  Ni  Ni418  1  0.37528233  0.44662467  0.20963638  1.0
  Ni  Ni419  1  0.37528233  0.77995800  0.20963637  1.0
  Ni  Ni420  1  0.70861567  0.11329133  0.20963638  1.0
  Ni  Ni421  1  0.70861567  0.44662467  0.20963638  1.0
  Ni  Ni422  1  0.70861567  0.77995800  0.20963637  1.0
  Ni  Ni423  1  0.29138433  0.11710633  0.20963638  1.0
  Ni  Ni424  1  0.29138433  0.45043967  0.20963637  1.0
  Ni  Ni425  1  0.29138433  0.78377300  0.20963638  1.0
  Ni  Ni426  1  0.62471767  0.11710633  0.20963638  1.0
  Ni  Ni427  1  0.62471767  0.45043967  0.20963637  1.0
  Ni  Ni428  1  0.62471767  0.78377300  0.20963637  1.0
  Ni  Ni429  1  0.95805100  0.11710633  0.20963638  1.0
  Ni  Ni430  1  0.95805100  0.45043967  0.20963638  1.0
  Ni  Ni431  1  0.95805100  0.78377300  0.20963638  1.0
  Ni  Ni432  1  0.12575167  0.10775700  0.20695650  1.0
  Ni  Ni433  1  0.12575167  0.44109033  0.20695650  1.0
  Ni  Ni434  1  0.12575167  0.77442367  0.20695650  1.0
  Ni  Ni435  1  0.45908500  0.10775700  0.20695650  1.0
  Ni  Ni436  1  0.45908500  0.44109033  0.20695650  1.0
  Ni  Ni437  1  0.45908500  0.77442367  0.20695650  1.0
  Ni  Ni438  1  0.79241833  0.10775700  0.20695650  1.0
  Ni  Ni439  1  0.79241833  0.44109033  0.20695650  1.0
  Ni  Ni440  1  0.79241833  0.77442367  0.20695650  1.0
  Ni  Ni441  1  0.20758167  0.11549433  0.20695650  1.0
  Ni  Ni442  1  0.20758167  0.44882767  0.20695650  1.0
  Ni  Ni443  1  0.20758167  0.78216100  0.20695650  1.0
  Ni  Ni444  1  0.54091500  0.11549433  0.20695650  1.0
  Ni  Ni445  1  0.54091500  0.44882767  0.20695650  1.0
  Ni  Ni446  1  0.54091500  0.78216100  0.20695650  1.0
  Ni  Ni447  1  0.87424833  0.11549433  0.20695650  1.0
  Ni  Ni448  1  0.87424833  0.44882767  0.20695650  1.0
  Ni  Ni449  1  0.87424833  0.78216100  0.20695650  1.0
  Ge  Ge450  1  0.00000000  0.32475900  0.24180650  1.0
  Ge  Ge451  1  0.00000000  0.65809233  0.24180650  1.0
  Ge  Ge452  1  0.00000000  0.99142567  0.24180650  1.0
  Ge  Ge453  1  0.33333333  0.32475900  0.24180650  1.0
  Ge  Ge454  1  0.33333333  0.65809233  0.24180650  1.0
  Ge  Ge455  1  0.33333333  0.99142567  0.24180650  1.0
  Ge  Ge456  1  0.66666667  0.32475900  0.24180650  1.0
  Ge  Ge457  1  0.66666667  0.65809233  0.24180650  1.0
  Ge  Ge458  1  0.66666667  0.99142567  0.24180650  1.0
  Ge  Ge459  1  0.16666667  0.00758700  0.12892750  1.0
  Ge  Ge460  1  0.16666667  0.34092033  0.12892750  1.0
  Ge  Ge461  1  0.16666667  0.67425367  0.12892750  1.0
  Ge  Ge462  1  0.50000000  0.00758700  0.12892750  1.0
  Ge  Ge463  1  0.50000000  0.34092033  0.12892750  1.0
  Ge  Ge464  1  0.50000000  0.67425367  0.12892750  1.0
  Ge  Ge465  1  0.83333333  0.00758700  0.12892750  1.0
  Ge  Ge466  1  0.83333333  0.34092033  0.12892750  1.0
  Ge  Ge467  1  0.83333333  0.67425367  0.12892750  1.0
  Ge  Ge468  1  0.08416467  0.21246633  0.16143600  1.0
  Ge  Ge469  1  0.08416467  0.54579967  0.16143600  1.0
  Ge  Ge470  1  0.08416467  0.87913300  0.16143600  1.0
  Ge  Ge471  1  0.41749800  0.21246633  0.16143600  1.0
  Ge  Ge472  1  0.41749800  0.54579967  0.16143600  1.0
  Ge  Ge473  1  0.41749800  0.87913300  0.16143600  1.0
  Ge  Ge474  1  0.75083133  0.21246633  0.16143600  1.0
  Ge  Ge475  1  0.75083133  0.54579967  0.16143600  1.0
  Ge  Ge476  1  0.75083133  0.87913300  0.16143600  1.0
  Ge  Ge477  1  0.24916867  0.22273033  0.16143600  1.0
  Ge  Ge478  1  0.24916867  0.55606367  0.16143600  1.0
  Ge  Ge479  1  0.24916867  0.88939700  0.16143600  1.0
  Ge  Ge480  1  0.58250200  0.22273033  0.16143600  1.0
  Ge  Ge481  1  0.58250200  0.55606367  0.16143600  1.0
  Ge  Ge482  1  0.58250200  0.88939700  0.16143600  1.0
  Ge  Ge483  1  0.91583533  0.22273033  0.16143600  1.0
  Ge  Ge484  1  0.91583533  0.55606367  0.16143600  1.0
  Ge  Ge485  1  0.91583533  0.88939700  0.16143600  1.0
  Ge  Ge486  1  0.00076067  0.22285967  0.12788525  1.0
  Ge  Ge487  1  0.00076067  0.55619300  0.12788525  1.0
  Ge  Ge488  1  0.00076067  0.88952633  0.12788525  1.0
  Ge  Ge489  1  0.33409400  0.22285967  0.12788525  1.0
  Ge  Ge490  1  0.33409400  0.55619300  0.12788525  1.0
  Ge  Ge491  1  0.33409400  0.88952633  0.12788525  1.0
  Ge  Ge492  1  0.66742733  0.22285967  0.12788525  1.0
  Ge  Ge493  1  0.66742733  0.55619300  0.12788525  1.0
  Ge  Ge494  1  0.66742733  0.88952633  0.12788525  1.0
  Ge  Ge495  1  0.33257267  0.12286833  0.12788525  1.0
  Ge  Ge496  1  0.33257267  0.45620167  0.12788525  1.0
  Ge  Ge497  1  0.33257267  0.78953500  0.12788525  1.0
  Ge  Ge498  1  0.66590600  0.12286833  0.12788525  1.0
  Ge  Ge499  1  0.66590600  0.45620167  0.12788525  1.0
  Ge  Ge500  1  0.66590600  0.78953500  0.12788525  1.0
  Ge  Ge501  1  0.99923933  0.12286833  0.12788525  1.0
  Ge  Ge502  1  0.99923933  0.45620167  0.12788525  1.0
  Ge  Ge503  1  0.99923933  0.78953500  0.12788525  1.0
  Ge  Ge504  1  0.16598933  0.22376000  0.24711475  1.0
  Ge  Ge505  1  0.16598933  0.55709333  0.24711475  1.0
  Ge  Ge506  1  0.16598933  0.89042667  0.24711475  1.0
  Ge  Ge507  1  0.49932267  0.22376000  0.24711475  1.0
  Ge  Ge508  1  0.49932267  0.55709333  0.24711475  1.0
  Ge  Ge509  1  0.49932267  0.89042667  0.24711475  1.0
  Ge  Ge510  1  0.83265600  0.22376000  0.24711475  1.0
  Ge  Ge511  1  0.83265600  0.55709333  0.24711475  1.0
  Ge  Ge512  1  0.83265600  0.89042667  0.24711475  1.0
  Ge  Ge513  1  0.16734400  0.10658000  0.24711475  1.0
  Ge  Ge514  1  0.16734400  0.43991333  0.24711475  1.0
  Ge  Ge515  1  0.16734400  0.77324667  0.24711475  1.0
  Ge  Ge516  1  0.50067733  0.10658000  0.24711475  1.0
  Ge  Ge517  1  0.50067733  0.43991333  0.24711475  1.0
  Ge  Ge518  1  0.50067733  0.77324667  0.24711475  1.0
  Ge  Ge519  1  0.83401067  0.10658000  0.24711475  1.0
  Ge  Ge520  1  0.83401067  0.43991333  0.24711475  1.0
  Ge  Ge521  1  0.83401067  0.77324667  0.24711475  1.0
  Ge  Ge522  1  0.08408633  0.11190233  0.16071363  1.0
  Ge  Ge523  1  0.08408633  0.44523567  0.16071363  1.0
  Ge  Ge524  1  0.08408633  0.77856900  0.16071363  1.0
  Ge  Ge525  1  0.41741967  0.11190233  0.16071363  1.0
  Ge  Ge526  1  0.41741967  0.44523567  0.16071363  1.0
  Ge  Ge527  1  0.41741967  0.77856900  0.16071363  1.0
  Ge  Ge528  1  0.75075300  0.11190233  0.16071363  1.0
  Ge  Ge529  1  0.75075300  0.44523567  0.16071363  1.0
  Ge  Ge530  1  0.75075300  0.77856900  0.16071362  1.0
  Ge  Ge531  1  0.24924700  0.32136800  0.16071362  1.0
  Ge  Ge532  1  0.24924700  0.65470133  0.16071362  1.0
  Ge  Ge533  1  0.24924700  0.98803467  0.16071363  1.0
  Ge  Ge534  1  0.58258033  0.32136800  0.16071362  1.0
  Ge  Ge535  1  0.58258033  0.65470133  0.16071362  1.0
  Ge  Ge536  1  0.58258033  0.98803467  0.16071363  1.0
  Ge  Ge537  1  0.91591367  0.32136800  0.16071362  1.0
  Ge  Ge538  1  0.91591367  0.65470133  0.16071362  1.0
  Ge  Ge539  1  0.91591367  0.98803467  0.16071363  1.0
  Ge  Ge540  1  0.25067167  0.12120933  0.17225125  1.0
  Ge  Ge541  1  0.25067167  0.45454267  0.17225125  1.0
  Ge  Ge542  1  0.25067167  0.78787600  0.17225125  1.0
  Ge  Ge543  1  0.58400500  0.12120933  0.17225125  1.0
  Ge  Ge544  1  0.58400500  0.45454267  0.17225125  1.0
  Ge  Ge545  1  0.58400500  0.78787600  0.17225125  1.0
  Ge  Ge546  1  0.91733833  0.12120933  0.17225125  1.0
  Ge  Ge547  1  0.91733833  0.45454267  0.17225125  1.0
  Ge  Ge548  1  0.91733833  0.78787600  0.17225125  1.0
  Ge  Ge549  1  0.08266167  0.00949467  0.17225125  1.0
  Ge  Ge550  1  0.08266167  0.34282800  0.17225125  1.0
  Ge  Ge551  1  0.08266167  0.67616133  0.17225125  1.0
  Ge  Ge552  1  0.41599500  0.00949467  0.17225125  1.0
  Ge  Ge553  1  0.41599500  0.34282800  0.17225125  1.0
  Ge  Ge554  1  0.41599500  0.67616133  0.17225125  1.0
  Ge  Ge555  1  0.74932833  0.00949467  0.17225125  1.0
  Ge  Ge556  1  0.74932833  0.34282800  0.17225125  1.0
  Ge  Ge557  1  0.74932833  0.67616133  0.17225125  1.0
  Ni  Ni558  1  0.16666667  0.22379767  0.29108550  1.0
  Ni  Ni559  1  0.16666667  0.55713100  0.29108550  1.0
  Ni  Ni560  1  0.16666667  0.89046433  0.29108550  1.0
  Ni  Ni561  1  0.50000000  0.22379767  0.29108550  1.0
  Ni  Ni562  1  0.50000000  0.55713100  0.29108550  1.0
  Ni  Ni563  1  0.50000000  0.89046433  0.29108550  1.0
  Ni  Ni564  1  0.83333333  0.22379767  0.29108550  1.0
  Ni  Ni565  1  0.83333333  0.55713100  0.29108550  1.0
  Ni  Ni566  1  0.83333333  0.89046433  0.29108550  1.0
  Ni  Ni567  1  0.08480167  0.00181933  0.37410188  1.0
  Ni  Ni568  1  0.08480167  0.33515267  0.37410188  1.0
  Ni  Ni569  1  0.08480167  0.66848600  0.37410188  1.0
  Ni  Ni570  1  0.41813500  0.00181933  0.37410187  1.0
  Ni  Ni571  1  0.41813500  0.33515267  0.37410188  1.0
  Ni  Ni572  1  0.41813500  0.66848600  0.37410188  1.0
  Ni  Ni573  1  0.75146833  0.00181933  0.37410188  1.0
  Ni  Ni574  1  0.75146833  0.33515267  0.37410188  1.0
  Ni  Ni575  1  0.75146833  0.66848600  0.37410188  1.0
  Ni  Ni576  1  0.24853167  0.00048633  0.37410187  1.0
  Ni  Ni577  1  0.24853167  0.33381967  0.37410188  1.0
  Ni  Ni578  1  0.24853167  0.66715300  0.37410188  1.0
  Ni  Ni579  1  0.58186500  0.00048633  0.37410187  1.0
  Ni  Ni580  1  0.58186500  0.33381967  0.37410187  1.0
  Ni  Ni581  1  0.58186500  0.66715300  0.37410188  1.0
  Ni  Ni582  1  0.91519833  0.00048633  0.37410188  1.0
  Ni  Ni583  1  0.91519833  0.33381967  0.37410188  1.0
  Ni  Ni584  1  0.91519833  0.66715300  0.37410188  1.0
  Ni  Ni585  1  0.08408967  0.22110600  0.37266725  1.0
  Ni  Ni586  1  0.08408967  0.55443933  0.37266725  1.0
  Ni  Ni587  1  0.08408967  0.88777267  0.37266725  1.0
  Ni  Ni588  1  0.41742300  0.22110600  0.37266725  1.0
  Ni  Ni589  1  0.41742300  0.55443933  0.37266725  1.0
  Ni  Ni590  1  0.41742300  0.88777267  0.37266725  1.0
  Ni  Ni591  1  0.75075633  0.22110600  0.37266725  1.0
  Ni  Ni592  1  0.75075633  0.55443933  0.37266725  1.0
  Ni  Ni593  1  0.75075633  0.88777267  0.37266725  1.0
  Ni  Ni594  1  0.24924367  0.11070733  0.37266725  1.0
  Ni  Ni595  1  0.24924367  0.44404067  0.37266725  1.0
  Ni  Ni596  1  0.24924367  0.77737400  0.37266725  1.0
  Ni  Ni597  1  0.58257700  0.11070733  0.37266725  1.0
  Ni  Ni598  1  0.58257700  0.44404067  0.37266725  1.0
  Ni  Ni599  1  0.58257700  0.77737400  0.37266725  1.0
  Ni  Ni600  1  0.91591033  0.11070733  0.37266725  1.0
  Ni  Ni601  1  0.91591033  0.44404067  0.37266725  1.0
  Ni  Ni602  1  0.91591033  0.77737400  0.37266725  1.0
  Ni  Ni603  1  0.00120933  0.11284267  0.29085275  1.0
  Ni  Ni604  1  0.00120933  0.44617600  0.29085275  1.0
  Ni  Ni605  1  0.00120933  0.77950933  0.29085275  1.0
  Ni  Ni606  1  0.33454267  0.11284267  0.29085275  1.0
  Ni  Ni607  1  0.33454267  0.44617600  0.29085275  1.0
  Ni  Ni608  1  0.33454267  0.77950933  0.29085275  1.0
  Ni  Ni609  1  0.66787600  0.11284267  0.29085275  1.0
  Ni  Ni610  1  0.66787600  0.44617600  0.29085275  1.0
  Ni  Ni611  1  0.66787600  0.77950933  0.29085275  1.0
  Ni  Ni612  1  0.33212400  0.00079867  0.29085275  1.0
  Ni  Ni613  1  0.33212400  0.33413200  0.29085275  1.0
  Ni  Ni614  1  0.33212400  0.66746533  0.29085275  1.0
  Ni  Ni615  1  0.66545733  0.00079867  0.29085275  1.0
  Ni  Ni616  1  0.66545733  0.33413200  0.29085275  1.0
  Ni  Ni617  1  0.66545733  0.66746533  0.29085275  1.0
  Ni  Ni618  1  0.99879067  0.00079867  0.29085275  1.0
  Ni  Ni619  1  0.99879067  0.33413200  0.29085275  1.0
  Ni  Ni620  1  0.99879067  0.66746533  0.29085275  1.0
  Ni  Ni621  1  0.04191833  0.22218400  0.32971950  1.0
  Ni  Ni622  1  0.04191833  0.55551733  0.32971950  1.0
  Ni  Ni623  1  0.04191833  0.88885067  0.32971950  1.0
  Ni  Ni624  1  0.37525167  0.22218400  0.32971950  1.0
  Ni  Ni625  1  0.37525167  0.55551733  0.32971950  1.0
  Ni  Ni626  1  0.37525167  0.88885067  0.32971950  1.0
  Ni  Ni627  1  0.70858500  0.22218400  0.32971950  1.0
  Ni  Ni628  1  0.70858500  0.55551733  0.32971950  1.0
  Ni  Ni629  1  0.70858500  0.88885067  0.32971950  1.0
  Ni  Ni630  1  0.29141500  0.32843533  0.32971950  1.0
  Ni  Ni631  1  0.29141500  0.66176867  0.32971950  1.0
  Ni  Ni632  1  0.29141500  0.99510200  0.32971950  1.0
  Ni  Ni633  1  0.62474833  0.32843533  0.32971950  1.0
  Ni  Ni634  1  0.62474833  0.66176867  0.32971950  1.0
  Ni  Ni635  1  0.62474833  0.99510200  0.32971950  1.0
  Ni  Ni636  1  0.95808167  0.32843533  0.32971950  1.0
  Ni  Ni637  1  0.95808167  0.66176867  0.32971950  1.0
  Ni  Ni638  1  0.95808167  0.99510200  0.32971950  1.0
  Ni  Ni639  1  0.12568133  0.22016300  0.33060287  1.0
  Ni  Ni640  1  0.12568133  0.55349633  0.33060287  1.0
  Ni  Ni641  1  0.12568133  0.88682967  0.33060287  1.0
  Ni  Ni642  1  0.45901467  0.22016300  0.33060287  1.0
  Ni  Ni643  1  0.45901467  0.55349633  0.33060287  1.0
  Ni  Ni644  1  0.45901467  0.88682967  0.33060287  1.0
  Ni  Ni645  1  0.79234800  0.22016300  0.33060287  1.0
  Ni  Ni646  1  0.79234800  0.55349633  0.33060287  1.0
  Ni  Ni647  1  0.79234800  0.88682967  0.33060287  1.0
  Ni  Ni648  1  0.20765200  0.33281200  0.33060287  1.0
  Ni  Ni649  1  0.20765200  0.66614533  0.33060287  1.0
  Ni  Ni650  1  0.20765200  0.99947867  0.33060287  1.0
  Ni  Ni651  1  0.54098533  0.33281200  0.33060287  1.0
  Ni  Ni652  1  0.54098533  0.66614533  0.33060287  1.0
  Ni  Ni653  1  0.54098533  0.99947867  0.33060287  1.0
  Ni  Ni654  1  0.87431867  0.33281200  0.33060287  1.0
  Ni  Ni655  1  0.87431867  0.66614533  0.33060287  1.0
  Ni  Ni656  1  0.87431867  0.99947867  0.33060288  1.0
  Ni  Ni657  1  0.20794033  0.22165133  0.33372500  1.0
  Ni  Ni658  1  0.20794033  0.55498467  0.33372500  1.0
  Ni  Ni659  1  0.20794033  0.88831800  0.33372500  1.0
  Ni  Ni660  1  0.54127367  0.22165133  0.33372500  1.0
  Ni  Ni661  1  0.54127367  0.55498467  0.33372500  1.0
  Ni  Ni662  1  0.54127367  0.88831800  0.33372500  1.0
  Ni  Ni663  1  0.87460700  0.22165133  0.33372500  1.0
  Ni  Ni664  1  0.87460700  0.55498467  0.33372500  1.0
  Ni  Ni665  1  0.87460700  0.88831800  0.33372500  1.0
  Ni  Ni666  1  0.12539300  0.00631600  0.33372500  1.0
  Ni  Ni667  1  0.12539300  0.33964933  0.33372500  1.0
  Ni  Ni668  1  0.12539300  0.67298267  0.33372500  1.0
  Ni  Ni669  1  0.45872633  0.00631600  0.33372500  1.0
  Ni  Ni670  1  0.45872633  0.33964933  0.33372500  1.0
  Ni  Ni671  1  0.45872633  0.67298267  0.33372500  1.0
  Ni  Ni672  1  0.79205967  0.00631600  0.33372500  1.0
  Ni  Ni673  1  0.79205967  0.33964933  0.33372500  1.0
  Ni  Ni674  1  0.79205967  0.67298267  0.33372500  1.0
  Ni  Ni675  1  0.29140867  0.22311067  0.33160475  1.0
  Ni  Ni676  1  0.29140867  0.55644400  0.33160475  1.0
  Ni  Ni677  1  0.29140867  0.88977733  0.33160475  1.0
  Ni  Ni678  1  0.62474200  0.22311067  0.33160475  1.0
  Ni  Ni679  1  0.62474200  0.55644400  0.33160475  1.0
  Ni  Ni680  1  0.62474200  0.88977733  0.33160475  1.0
  Ni  Ni681  1  0.95807533  0.22311067  0.33160475  1.0
  Ni  Ni682  1  0.95807533  0.55644400  0.33160475  1.0
  Ni  Ni683  1  0.95807533  0.88977733  0.33160475  1.0
  Ni  Ni684  1  0.04192467  0.33253600  0.33160475  1.0
  Ni  Ni685  1  0.04192467  0.66586933  0.33160475  1.0
  Ni  Ni686  1  0.04192467  0.99920267  0.33160475  1.0
  Ni  Ni687  1  0.37525800  0.33253600  0.33160475  1.0
  Ni  Ni688  1  0.37525800  0.66586933  0.33160475  1.0
  Ni  Ni689  1  0.37525800  0.99920267  0.33160475  1.0
  Ni  Ni690  1  0.70859133  0.33253600  0.33160475  1.0
  Ni  Ni691  1  0.70859133  0.66586933  0.33160475  1.0
  Ni  Ni692  1  0.70859133  0.99920267  0.33160475  1.0
  Ni  Ni693  1  0.04194900  0.11329133  0.33463637  1.0
  Ni  Ni694  1  0.04194900  0.44662467  0.33463637  1.0
  Ni  Ni695  1  0.04194900  0.77995800  0.33463637  1.0
  Ni  Ni696  1  0.37528233  0.11329133  0.33463637  1.0
  Ni  Ni697  1  0.37528233  0.44662467  0.33463637  1.0
  Ni  Ni698  1  0.37528233  0.77995800  0.33463637  1.0
  Ni  Ni699  1  0.70861567  0.11329133  0.33463637  1.0
  Ni  Ni700  1  0.70861567  0.44662467  0.33463637  1.0
  Ni  Ni701  1  0.70861567  0.77995800  0.33463637  1.0
  Ni  Ni702  1  0.29138433  0.11710633  0.33463637  1.0
  Ni  Ni703  1  0.29138433  0.45043967  0.33463637  1.0
  Ni  Ni704  1  0.29138433  0.78377300  0.33463637  1.0
  Ni  Ni705  1  0.62471767  0.11710633  0.33463637  1.0
  Ni  Ni706  1  0.62471767  0.45043967  0.33463637  1.0
  Ni  Ni707  1  0.62471767  0.78377300  0.33463637  1.0
  Ni  Ni708  1  0.95805100  0.11710633  0.33463637  1.0
  Ni  Ni709  1  0.95805100  0.45043967  0.33463637  1.0
  Ni  Ni710  1  0.95805100  0.78377300  0.33463637  1.0
  Ni  Ni711  1  0.12575167  0.10775700  0.33195650  1.0
  Ni  Ni712  1  0.12575167  0.44109033  0.33195650  1.0
  Ni  Ni713  1  0.12575167  0.77442367  0.33195650  1.0
  Ni  Ni714  1  0.45908500  0.10775700  0.33195650  1.0
  Ni  Ni715  1  0.45908500  0.44109033  0.33195650  1.0
  Ni  Ni716  1  0.45908500  0.77442367  0.33195650  1.0
  Ni  Ni717  1  0.79241833  0.10775700  0.33195650  1.0
  Ni  Ni718  1  0.79241833  0.44109033  0.33195650  1.0
  Ni  Ni719  1  0.79241833  0.77442367  0.33195650  1.0
  Ni  Ni720  1  0.20758167  0.11549433  0.33195650  1.0
  Ni  Ni721  1  0.20758167  0.44882767  0.33195650  1.0
  Ni  Ni722  1  0.20758167  0.78216100  0.33195650  1.0
  Ni  Ni723  1  0.54091500  0.11549433  0.33195650  1.0
  Ni  Ni724  1  0.54091500  0.44882767  0.33195650  1.0
  Ni  Ni725  1  0.54091500  0.78216100  0.33195650  1.0
  Ni  Ni726  1  0.87424833  0.11549433  0.33195650  1.0
  Ni  Ni727  1  0.87424833  0.44882767  0.33195650  1.0
  Ni  Ni728  1  0.87424833  0.78216100  0.33195650  1.0
  Ge  Ge729  1  0.00000000  0.32475900  0.36680650  1.0
  Ge  Ge730  1  0.00000000  0.65809233  0.36680650  1.0
  Ge  Ge731  1  0.00000000  0.99142567  0.36680650  1.0
  Ge  Ge732  1  0.33333333  0.32475900  0.36680650  1.0
  Ge  Ge733  1  0.33333333  0.65809233  0.36680650  1.0
  Ge  Ge734  1  0.33333333  0.99142567  0.36680650  1.0
  Ge  Ge735  1  0.66666667  0.32475900  0.36680650  1.0
  Ge  Ge736  1  0.66666667  0.65809233  0.36680650  1.0
  Ge  Ge737  1  0.66666667  0.99142567  0.36680650  1.0
  Ge  Ge738  1  0.16666667  0.00758700  0.25392750  1.0
  Ge  Ge739  1  0.16666667  0.34092033  0.25392750  1.0
  Ge  Ge740  1  0.16666667  0.67425367  0.25392750  1.0
  Ge  Ge741  1  0.50000000  0.00758700  0.25392750  1.0
  Ge  Ge742  1  0.50000000  0.34092033  0.25392750  1.0
  Ge  Ge743  1  0.50000000  0.67425367  0.25392750  1.0
  Ge  Ge744  1  0.83333333  0.00758700  0.25392750  1.0
  Ge  Ge745  1  0.83333333  0.34092033  0.25392750  1.0
  Ge  Ge746  1  0.83333333  0.67425367  0.25392750  1.0
  Ge  Ge747  1  0.08416467  0.21246633  0.28643600  1.0
  Ge  Ge748  1  0.08416467  0.54579967  0.28643600  1.0
  Ge  Ge749  1  0.08416467  0.87913300  0.28643600  1.0
  Ge  Ge750  1  0.41749800  0.21246633  0.28643600  1.0
  Ge  Ge751  1  0.41749800  0.54579967  0.28643600  1.0
  Ge  Ge752  1  0.41749800  0.87913300  0.28643600  1.0
  Ge  Ge753  1  0.75083133  0.21246633  0.28643600  1.0
  Ge  Ge754  1  0.75083133  0.54579967  0.28643600  1.0
  Ge  Ge755  1  0.75083133  0.87913300  0.28643600  1.0
  Ge  Ge756  1  0.24916867  0.22273033  0.28643600  1.0
  Ge  Ge757  1  0.24916867  0.55606367  0.28643600  1.0
  Ge  Ge758  1  0.24916867  0.88939700  0.28643600  1.0
  Ge  Ge759  1  0.58250200  0.22273033  0.28643600  1.0
  Ge  Ge760  1  0.58250200  0.55606367  0.28643600  1.0
  Ge  Ge761  1  0.58250200  0.88939700  0.28643600  1.0
  Ge  Ge762  1  0.91583533  0.22273033  0.28643600  1.0
  Ge  Ge763  1  0.91583533  0.55606367  0.28643600  1.0
  Ge  Ge764  1  0.91583533  0.88939700  0.28643600  1.0
  Ge  Ge765  1  0.00076067  0.22285967  0.25288525  1.0
  Ge  Ge766  1  0.00076067  0.55619300  0.25288525  1.0
  Ge  Ge767  1  0.00076067  0.88952633  0.25288525  1.0
  Ge  Ge768  1  0.33409400  0.22285967  0.25288525  1.0
  Ge  Ge769  1  0.33409400  0.55619300  0.25288525  1.0
  Ge  Ge770  1  0.33409400  0.88952633  0.25288525  1.0
  Ge  Ge771  1  0.66742733  0.22285967  0.25288525  1.0
  Ge  Ge772  1  0.66742733  0.55619300  0.25288525  1.0
  Ge  Ge773  1  0.66742733  0.88952633  0.25288525  1.0
  Ge  Ge774  1  0.33257267  0.12286833  0.25288525  1.0
  Ge  Ge775  1  0.33257267  0.45620167  0.25288525  1.0
  Ge  Ge776  1  0.33257267  0.78953500  0.25288525  1.0
  Ge  Ge777  1  0.66590600  0.12286833  0.25288525  1.0
  Ge  Ge778  1  0.66590600  0.45620167  0.25288525  1.0
  Ge  Ge779  1  0.66590600  0.78953500  0.25288525  1.0
  Ge  Ge780  1  0.99923933  0.12286833  0.25288525  1.0
  Ge  Ge781  1  0.99923933  0.45620167  0.25288525  1.0
  Ge  Ge782  1  0.99923933  0.78953500  0.25288525  1.0
  Ge  Ge783  1  0.16598933  0.22376000  0.37211475  1.0
  Ge  Ge784  1  0.16598933  0.55709333  0.37211475  1.0
  Ge  Ge785  1  0.16598933  0.89042667  0.37211475  1.0
  Ge  Ge786  1  0.49932267  0.22376000  0.37211475  1.0
  Ge  Ge787  1  0.49932267  0.55709333  0.37211475  1.0
  Ge  Ge788  1  0.49932267  0.89042667  0.37211475  1.0
  Ge  Ge789  1  0.83265600  0.22376000  0.37211475  1.0
  Ge  Ge790  1  0.83265600  0.55709333  0.37211475  1.0
  Ge  Ge791  1  0.83265600  0.89042667  0.37211475  1.0
  Ge  Ge792  1  0.16734400  0.10658000  0.37211475  1.0
  Ge  Ge793  1  0.16734400  0.43991333  0.37211475  1.0
  Ge  Ge794  1  0.16734400  0.77324667  0.37211475  1.0
  Ge  Ge795  1  0.50067733  0.10658000  0.37211475  1.0
  Ge  Ge796  1  0.50067733  0.43991333  0.37211475  1.0
  Ge  Ge797  1  0.50067733  0.77324667  0.37211475  1.0
  Ge  Ge798  1  0.83401067  0.10658000  0.37211475  1.0
  Ge  Ge799  1  0.83401067  0.43991333  0.37211475  1.0
  Ge  Ge800  1  0.83401067  0.77324667  0.37211475  1.0
  Ge  Ge801  1  0.08408633  0.11190233  0.28571363  1.0
  Ge  Ge802  1  0.08408633  0.44523567  0.28571363  1.0
  Ge  Ge803  1  0.08408633  0.77856900  0.28571363  1.0
  Ge  Ge804  1  0.41741967  0.11190233  0.28571362  1.0
  Ge  Ge805  1  0.41741967  0.44523567  0.28571363  1.0
  Ge  Ge806  1  0.41741967  0.77856900  0.28571363  1.0
  Ge  Ge807  1  0.75075300  0.11190233  0.28571363  1.0
  Ge  Ge808  1  0.75075300  0.44523567  0.28571363  1.0
  Ge  Ge809  1  0.75075300  0.77856900  0.28571362  1.0
  Ge  Ge810  1  0.24924700  0.32136800  0.28571362  1.0
  Ge  Ge811  1  0.24924700  0.65470133  0.28571362  1.0
  Ge  Ge812  1  0.24924700  0.98803467  0.28571362  1.0
  Ge  Ge813  1  0.58258033  0.32136800  0.28571362  1.0
  Ge  Ge814  1  0.58258033  0.65470133  0.28571362  1.0
  Ge  Ge815  1  0.58258033  0.98803467  0.28571363  1.0
  Ge  Ge816  1  0.91591367  0.32136800  0.28571362  1.0
  Ge  Ge817  1  0.91591367  0.65470133  0.28571362  1.0
  Ge  Ge818  1  0.91591367  0.98803467  0.28571362  1.0
  Ge  Ge819  1  0.25067167  0.12120933  0.29725125  1.0
  Ge  Ge820  1  0.25067167  0.45454267  0.29725125  1.0
  Ge  Ge821  1  0.25067167  0.78787600  0.29725125  1.0
  Ge  Ge822  1  0.58400500  0.12120933  0.29725125  1.0
  Ge  Ge823  1  0.58400500  0.45454267  0.29725125  1.0
  Ge  Ge824  1  0.58400500  0.78787600  0.29725125  1.0
  Ge  Ge825  1  0.91733833  0.12120933  0.29725125  1.0
  Ge  Ge826  1  0.91733833  0.45454267  0.29725125  1.0
  Ge  Ge827  1  0.91733833  0.78787600  0.29725125  1.0
  Ge  Ge828  1  0.08266167  0.00949467  0.29725125  1.0
  Ge  Ge829  1  0.08266167  0.34282800  0.29725125  1.0
  Ge  Ge830  1  0.08266167  0.67616133  0.29725125  1.0
  Ge  Ge831  1  0.41599500  0.00949467  0.29725125  1.0
  Ge  Ge832  1  0.41599500  0.34282800  0.29725125  1.0
  Ge  Ge833  1  0.41599500  0.67616133  0.29725125  1.0
  Ge  Ge834  1  0.74932833  0.00949467  0.29725125  1.0
  Ge  Ge835  1  0.74932833  0.34282800  0.29725125  1.0
  Ge  Ge836  1  0.74932833  0.67616133  0.29725125  1.0
