# generated using pymatgen
data_Ni3Sn2
_symmetry_space_group_name_H-M   'P 1'
_cell_length_a   24.62364600
_cell_length_b   45.53675911
_cell_length_c   36.52287100
_cell_angle_alpha   110.10470326
_cell_angle_beta   90.00000000
_cell_angle_gamma   90.00000000
_symmetry_Int_Tables_number   1
_chemical_formula_structural   Ni3Sn2
_chemical_formula_sum   'Ni648 Sn432'
_cell_volume   38457.01053271
_cell_formula_units_Z   216
loop_
 _symmetry_equiv_pos_site_id
 _symmetry_equiv_pos_as_xyz
  1  'x, y, z'
loop_
 _atom_site_type_symbol
 _atom_site_label
 _atom_site_symmetry_multiplicity
 _atom_site_fract_x
 _atom_site_fract_y
 _atom_site_fract_z
 _atom_site_occupancy
  Ni  Ni0  1  0.12484767  0.01484850  0.10224054  1.0
  Ni  Ni1  1  0.12484767  0.34818183  0.10224054  1.0
  Ni  Ni2  1  0.12484767  0.68151517  0.10224054  1.0
  Ni  Ni3  1  0.45818100  0.01484850  0.10224054  1.0
  Ni  Ni4  1  0.45818100  0.34818183  0.10224054  1.0
  Ni  Ni5  1  0.45818100  0.68151517  0.10224054  1.0
  Ni  Ni6  1  0.79151433  0.01484850  0.10224054  1.0
  Ni  Ni7  1  0.79151433  0.34818183  0.10224054  1.0
  Ni  Ni8  1  0.79151433  0.68151517  0.10224054  1.0
  Ni  Ni9  1  0.12484767  0.18151517  0.03081196  1.0
  Ni  Ni10  1  0.12484767  0.51484850  0.03081196  1.0
  Ni  Ni11  1  0.12484767  0.84818183  0.03081196  1.0
  Ni  Ni12  1  0.45818100  0.18151517  0.03081196  1.0
  Ni  Ni13  1  0.45818100  0.51484850  0.03081196  1.0
  Ni  Ni14  1  0.45818100  0.84818183  0.03081196  1.0
  Ni  Ni15  1  0.79151433  0.18151517  0.03081196  1.0
  Ni  Ni16  1  0.79151433  0.51484850  0.03081196  1.0
  Ni  Ni17  1  0.79151433  0.84818183  0.03081196  1.0
  Ni  Ni18  1  0.20848567  0.15181817  0.08951325  1.0
  Ni  Ni19  1  0.20848567  0.48515150  0.08951325  1.0
  Ni  Ni20  1  0.20848567  0.81848483  0.08951325  1.0
  Ni  Ni21  1  0.54181900  0.15181817  0.08951325  1.0
  Ni  Ni22  1  0.54181900  0.48515150  0.08951325  1.0
  Ni  Ni23  1  0.54181900  0.81848483  0.08951325  1.0
  Ni  Ni24  1  0.87515233  0.15181817  0.08951325  1.0
  Ni  Ni25  1  0.87515233  0.48515150  0.08951325  1.0
  Ni  Ni26  1  0.87515233  0.81848483  0.08951325  1.0
  Ni  Ni27  1  0.20848567  0.31848483  0.01808468  1.0
  Ni  Ni28  1  0.20848567  0.65181817  0.01808468  1.0
  Ni  Ni29  1  0.20848567  0.98515150  0.01808468  1.0
  Ni  Ni30  1  0.54181900  0.31848483  0.01808468  1.0
  Ni  Ni31  1  0.54181900  0.65181817  0.01808468  1.0
  Ni  Ni32  1  0.54181900  0.98515150  0.01808468  1.0
  Ni  Ni33  1  0.87515233  0.31848483  0.01808468  1.0
  Ni  Ni34  1  0.87515233  0.65181817  0.01808468  1.0
  Ni  Ni35  1  0.87515233  0.98515150  0.01808468  1.0
  Ni  Ni36  1  0.12546433  0.12723017  0.11534039  1.0
  Ni  Ni37  1  0.12546433  0.46056350  0.11534039  1.0
  Ni  Ni38  1  0.12546433  0.79389683  0.11534039  1.0
  Ni  Ni39  1  0.45879767  0.12723017  0.11534039  1.0
  Ni  Ni40  1  0.45879767  0.46056350  0.11534039  1.0
  Ni  Ni41  1  0.45879767  0.79389683  0.11534039  1.0
  Ni  Ni42  1  0.79213100  0.12723017  0.11534039  1.0
  Ni  Ni43  1  0.79213100  0.46056350  0.11534039  1.0
  Ni  Ni44  1  0.79213100  0.79389683  0.11534039  1.0
  Ni  Ni45  1  0.12546433  0.29389683  0.04391182  1.0
  Ni  Ni46  1  0.12546433  0.62723017  0.04391182  1.0
  Ni  Ni47  1  0.12546433  0.96056350  0.04391182  1.0
  Ni  Ni48  1  0.45879767  0.29389683  0.04391182  1.0
  Ni  Ni49  1  0.45879767  0.62723017  0.04391182  1.0
  Ni  Ni50  1  0.45879767  0.96056350  0.04391182  1.0
  Ni  Ni51  1  0.79213100  0.29389683  0.04391182  1.0
  Ni  Ni52  1  0.79213100  0.62723017  0.04391182  1.0
  Ni  Ni53  1  0.79213100  0.96056350  0.04391182  1.0
  Ni  Ni54  1  0.20786900  0.03943650  0.00628596  1.0
  Ni  Ni55  1  0.20786900  0.37276983  0.00628596  1.0
  Ni  Ni56  1  0.20786900  0.70610317  0.00628596  1.0
  Ni  Ni57  1  0.54120233  0.03943650  0.00628596  1.0
  Ni  Ni58  1  0.54120233  0.37276983  0.00628596  1.0
  Ni  Ni59  1  0.54120233  0.70610317  0.00628596  1.0
  Ni  Ni60  1  0.87453567  0.03943650  0.00628596  1.0
  Ni  Ni61  1  0.87453567  0.37276983  0.00628596  1.0
  Ni  Ni62  1  0.87453567  0.70610317  0.00628596  1.0
  Ni  Ni63  1  0.20786900  0.20610317  0.07771454  1.0
  Ni  Ni64  1  0.20786900  0.53943650  0.07771454  1.0
  Ni  Ni65  1  0.20786900  0.87276983  0.07771454  1.0
  Ni  Ni66  1  0.54120233  0.20610317  0.07771454  1.0
  Ni  Ni67  1  0.54120233  0.53943650  0.07771454  1.0
  Ni  Ni68  1  0.54120233  0.87276983  0.07771454  1.0
  Ni  Ni69  1  0.87453567  0.20610317  0.07771454  1.0
  Ni  Ni70  1  0.87453567  0.53943650  0.07771454  1.0
  Ni  Ni71  1  0.87453567  0.87276983  0.07771454  1.0
  Ni  Ni72  1  0.29213100  0.12276983  0.11212768  1.0
  Ni  Ni73  1  0.29213100  0.45610317  0.11212768  1.0
  Ni  Ni74  1  0.29213100  0.78943650  0.11212768  1.0
  Ni  Ni75  1  0.62546433  0.12276983  0.11212768  1.0
  Ni  Ni76  1  0.62546433  0.45610317  0.11212768  1.0
  Ni  Ni77  1  0.62546433  0.78943650  0.11212768  1.0
  Ni  Ni78  1  0.95879767  0.12276983  0.11212768  1.0
  Ni  Ni79  1  0.95879767  0.45610317  0.11212768  1.0
  Ni  Ni80  1  0.95879767  0.78943650  0.11212768  1.0
  Ni  Ni81  1  0.29213100  0.28943650  0.04069911  1.0
  Ni  Ni82  1  0.29213100  0.62276983  0.04069911  1.0
  Ni  Ni83  1  0.29213100  0.95610317  0.04069911  1.0
  Ni  Ni84  1  0.62546433  0.28943650  0.04069911  1.0
  Ni  Ni85  1  0.62546433  0.62276983  0.04069911  1.0
  Ni  Ni86  1  0.62546433  0.95610317  0.04069911  1.0
  Ni  Ni87  1  0.95879767  0.28943650  0.04069911  1.0
  Ni  Ni88  1  0.95879767  0.62276983  0.04069911  1.0
  Ni  Ni89  1  0.95879767  0.95610317  0.04069911  1.0
  Ni  Ni90  1  0.29213100  0.12276983  0.04200025  1.0
  Ni  Ni91  1  0.29213100  0.45610317  0.04200025  1.0
  Ni  Ni92  1  0.29213100  0.78943650  0.04200025  1.0
  Ni  Ni93  1  0.62546433  0.12276983  0.04200025  1.0
  Ni  Ni94  1  0.62546433  0.45610317  0.04200025  1.0
  Ni  Ni95  1  0.62546433  0.78943650  0.04200025  1.0
  Ni  Ni96  1  0.95879767  0.12276983  0.04200025  1.0
  Ni  Ni97  1  0.95879767  0.45610317  0.04200025  1.0
  Ni  Ni98  1  0.95879767  0.78943650  0.04200025  1.0
  Ni  Ni99  1  0.29213100  0.28943650  0.11342882  1.0
  Ni  Ni100  1  0.29213100  0.62276983  0.11342882  1.0
  Ni  Ni101  1  0.29213100  0.95610317  0.11342882  1.0
  Ni  Ni102  1  0.62546433  0.28943650  0.11342882  1.0
  Ni  Ni103  1  0.62546433  0.62276983  0.11342882  1.0
  Ni  Ni104  1  0.62546433  0.95610317  0.11342882  1.0
  Ni  Ni105  1  0.95879767  0.28943650  0.11342882  1.0
  Ni  Ni106  1  0.95879767  0.62276983  0.11342882  1.0
  Ni  Ni107  1  0.95879767  0.95610317  0.11342882  1.0
  Ni  Ni108  1  0.20786900  0.03943650  0.07641339  1.0
  Ni  Ni109  1  0.20786900  0.37276983  0.07641339  1.0
  Ni  Ni110  1  0.20786900  0.70610317  0.07641339  1.0
  Ni  Ni111  1  0.54120233  0.03943650  0.07641339  1.0
  Ni  Ni112  1  0.54120233  0.37276983  0.07641339  1.0
  Ni  Ni113  1  0.54120233  0.70610317  0.07641339  1.0
  Ni  Ni114  1  0.87453567  0.03943650  0.07641339  1.0
  Ni  Ni115  1  0.87453567  0.37276983  0.07641339  1.0
  Ni  Ni116  1  0.87453567  0.70610317  0.07641339  1.0
  Ni  Ni117  1  0.20786900  0.20610317  0.00498482  1.0
  Ni  Ni118  1  0.20786900  0.53943650  0.00498482  1.0
  Ni  Ni119  1  0.20786900  0.87276983  0.00498482  1.0
  Ni  Ni120  1  0.54120233  0.20610317  0.00498482  1.0
  Ni  Ni121  1  0.54120233  0.53943650  0.00498482  1.0
  Ni  Ni122  1  0.54120233  0.87276983  0.00498482  1.0
  Ni  Ni123  1  0.87453567  0.20610317  0.00498482  1.0
  Ni  Ni124  1  0.87453567  0.53943650  0.00498482  1.0
  Ni  Ni125  1  0.87453567  0.87276983  0.00498482  1.0
  Ni  Ni126  1  0.12546433  0.12723017  0.04261068  1.0
  Ni  Ni127  1  0.12546433  0.46056350  0.04261068  1.0
  Ni  Ni128  1  0.12546433  0.79389683  0.04261068  1.0
  Ni  Ni129  1  0.45879767  0.12723017  0.04261068  1.0
  Ni  Ni130  1  0.45879767  0.46056350  0.04261068  1.0
  Ni  Ni131  1  0.45879767  0.79389683  0.04261068  1.0
  Ni  Ni132  1  0.79213100  0.12723017  0.04261068  1.0
  Ni  Ni133  1  0.79213100  0.46056350  0.04261068  1.0
  Ni  Ni134  1  0.79213100  0.79389683  0.04261068  1.0
  Ni  Ni135  1  0.12546433  0.29389683  0.11403925  1.0
  Ni  Ni136  1  0.12546433  0.62723017  0.11403925  1.0
  Ni  Ni137  1  0.12546433  0.96056350  0.11403925  1.0
  Ni  Ni138  1  0.45879767  0.29389683  0.11403925  1.0
  Ni  Ni139  1  0.45879767  0.62723017  0.11403925  1.0
  Ni  Ni140  1  0.45879767  0.96056350  0.11403925  1.0
  Ni  Ni141  1  0.79213100  0.29389683  0.11403925  1.0
  Ni  Ni142  1  0.79213100  0.62723017  0.11403925  1.0
  Ni  Ni143  1  0.79213100  0.96056350  0.11403925  1.0
  Ni  Ni144  1  0.04120233  0.04389683  0.07962611  1.0
  Ni  Ni145  1  0.04120233  0.37723017  0.07962611  1.0
  Ni  Ni146  1  0.04120233  0.71056350  0.07962611  1.0
  Ni  Ni147  1  0.37453567  0.04389683  0.07962611  1.0
  Ni  Ni148  1  0.37453567  0.37723017  0.07962611  1.0
  Ni  Ni149  1  0.37453567  0.71056350  0.07962611  1.0
  Ni  Ni150  1  0.70786900  0.04389683  0.07962611  1.0
  Ni  Ni151  1  0.70786900  0.37723017  0.07962611  1.0
  Ni  Ni152  1  0.70786900  0.71056350  0.07962611  1.0
  Ni  Ni153  1  0.04120233  0.21056350  0.00819754  1.0
  Ni  Ni154  1  0.04120233  0.54389683  0.00819754  1.0
  Ni  Ni155  1  0.04120233  0.87723017  0.00819754  1.0
  Ni  Ni156  1  0.37453567  0.21056350  0.00819754  1.0
  Ni  Ni157  1  0.37453567  0.54389683  0.00819754  1.0
  Ni  Ni158  1  0.37453567  0.87723017  0.00819754  1.0
  Ni  Ni159  1  0.70786900  0.21056350  0.00819754  1.0
  Ni  Ni160  1  0.70786900  0.54389683  0.00819754  1.0
  Ni  Ni161  1  0.70786900  0.87723017  0.00819754  1.0
  Ni  Ni162  1  0.04181900  0.09818183  0.13795482  1.0
  Ni  Ni163  1  0.04181900  0.43151517  0.13795482  1.0
  Ni  Ni164  1  0.04181900  0.76484850  0.13795482  1.0
  Ni  Ni165  1  0.37515233  0.09818183  0.13795482  1.0
  Ni  Ni166  1  0.37515233  0.43151517  0.13795482  1.0
  Ni  Ni167  1  0.37515233  0.76484850  0.13795482  1.0
  Ni  Ni168  1  0.70848567  0.09818183  0.13795482  1.0
  Ni  Ni169  1  0.70848567  0.43151517  0.13795482  1.0
  Ni  Ni170  1  0.70848567  0.76484850  0.13795482  1.0
  Ni  Ni171  1  0.04181900  0.26484850  0.06652625  1.0
  Ni  Ni172  1  0.04181900  0.59818183  0.06652625  1.0
  Ni  Ni173  1  0.04181900  0.93151517  0.06652625  1.0
  Ni  Ni174  1  0.37515233  0.26484850  0.06652625  1.0
  Ni  Ni175  1  0.37515233  0.59818183  0.06652625  1.0
  Ni  Ni176  1  0.37515233  0.93151517  0.06652625  1.0
  Ni  Ni177  1  0.70848567  0.26484850  0.06652625  1.0
  Ni  Ni178  1  0.70848567  0.59818183  0.06652625  1.0
  Ni  Ni179  1  0.70848567  0.93151517  0.06652625  1.0
  Ni  Ni180  1  0.04120233  0.04389683  0.00689639  1.0
  Ni  Ni181  1  0.04120233  0.37723017  0.00689639  1.0
  Ni  Ni182  1  0.04120233  0.71056350  0.00689639  1.0
  Ni  Ni183  1  0.37453567  0.04389683  0.00689639  1.0
  Ni  Ni184  1  0.37453567  0.37723017  0.00689639  1.0
  Ni  Ni185  1  0.37453567  0.71056350  0.00689639  1.0
  Ni  Ni186  1  0.70786900  0.04389683  0.00689639  1.0
  Ni  Ni187  1  0.70786900  0.37723017  0.00689639  1.0
  Ni  Ni188  1  0.70786900  0.71056350  0.00689639  1.0
  Ni  Ni189  1  0.04120233  0.21056350  0.07832496  1.0
  Ni  Ni190  1  0.04120233  0.54389683  0.07832496  1.0
  Ni  Ni191  1  0.04120233  0.87723017  0.07832496  1.0
  Ni  Ni192  1  0.37453567  0.21056350  0.07832496  1.0
  Ni  Ni193  1  0.37453567  0.54389683  0.07832496  1.0
  Ni  Ni194  1  0.37453567  0.87723017  0.07832496  1.0
  Ni  Ni195  1  0.70786900  0.21056350  0.07832496  1.0
  Ni  Ni196  1  0.70786900  0.54389683  0.07832496  1.0
  Ni  Ni197  1  0.70786900  0.87723017  0.07832496  1.0
  Ni  Ni198  1  0.29151433  0.06848483  0.05379896  1.0
  Ni  Ni199  1  0.29151433  0.40181817  0.05379896  1.0
  Ni  Ni200  1  0.29151433  0.73515150  0.05379896  1.0
  Ni  Ni201  1  0.62484767  0.06848483  0.05379896  1.0
  Ni  Ni202  1  0.62484767  0.40181817  0.05379896  1.0
  Ni  Ni203  1  0.62484767  0.73515150  0.05379896  1.0
  Ni  Ni204  1  0.95818100  0.06848483  0.05379896  1.0
  Ni  Ni205  1  0.95818100  0.40181817  0.05379896  1.0
  Ni  Ni206  1  0.95818100  0.73515150  0.05379896  1.0
  Ni  Ni207  1  0.29151433  0.23515150  0.12522754  1.0
  Ni  Ni208  1  0.29151433  0.56848483  0.12522754  1.0
  Ni  Ni209  1  0.29151433  0.90181817  0.12522754  1.0
  Ni  Ni210  1  0.62484767  0.23515150  0.12522754  1.0
  Ni  Ni211  1  0.62484767  0.56848483  0.12522754  1.0
  Ni  Ni212  1  0.62484767  0.90181817  0.12522754  1.0
  Ni  Ni213  1  0.95818100  0.23515150  0.12522754  1.0
  Ni  Ni214  1  0.95818100  0.56848483  0.12522754  1.0
  Ni  Ni215  1  0.95818100  0.90181817  0.12522754  1.0
  Sn  Sn216  1  0.13431767  0.07313767  0.12722161  1.0
  Sn  Sn217  1  0.13431767  0.40647100  0.12722161  1.0
  Sn  Sn218  1  0.13431767  0.73980433  0.12722161  1.0
  Sn  Sn219  1  0.46765100  0.07313767  0.12722161  1.0
  Sn  Sn220  1  0.46765100  0.40647100  0.12722161  1.0
  Sn  Sn221  1  0.46765100  0.73980433  0.12722161  1.0
  Sn  Sn222  1  0.80098433  0.07313767  0.12722161  1.0
  Sn  Sn223  1  0.80098433  0.40647100  0.12722161  1.0
  Sn  Sn224  1  0.80098433  0.73980433  0.12722161  1.0
  Sn  Sn225  1  0.13431767  0.23980433  0.05579304  1.0
  Sn  Sn226  1  0.13431767  0.57313767  0.05579304  1.0
  Sn  Sn227  1  0.13431767  0.90647100  0.05579304  1.0
  Sn  Sn228  1  0.46765100  0.23980433  0.05579304  1.0
  Sn  Sn229  1  0.46765100  0.57313767  0.05579304  1.0
  Sn  Sn230  1  0.46765100  0.90647100  0.05579304  1.0
  Sn  Sn231  1  0.80098433  0.23980433  0.05579304  1.0
  Sn  Sn232  1  0.80098433  0.57313767  0.05579304  1.0
  Sn  Sn233  1  0.80098433  0.90647100  0.05579304  1.0
  Sn  Sn234  1  0.21420633  0.15027100  0.01742161  1.0
  Sn  Sn235  1  0.21420633  0.48360433  0.01742161  1.0
  Sn  Sn236  1  0.21420633  0.81693767  0.01742161  1.0
  Sn  Sn237  1  0.54753967  0.15027100  0.01742161  1.0
  Sn  Sn238  1  0.54753967  0.48360433  0.01742161  1.0
  Sn  Sn239  1  0.54753967  0.81693767  0.01742161  1.0
  Sn  Sn240  1  0.88087300  0.15027100  0.01742161  1.0
  Sn  Sn241  1  0.88087300  0.48360433  0.01742161  1.0
  Sn  Sn242  1  0.88087300  0.81693767  0.01742161  1.0
  Sn  Sn243  1  0.21420633  0.31693767  0.08885018  1.0
  Sn  Sn244  1  0.21420633  0.65027100  0.08885018  1.0
  Sn  Sn245  1  0.21420633  0.98360433  0.08885018  1.0
  Sn  Sn246  1  0.54753967  0.31693767  0.08885018  1.0
  Sn  Sn247  1  0.54753967  0.65027100  0.08885018  1.0
  Sn  Sn248  1  0.54753967  0.98360433  0.08885018  1.0
  Sn  Sn249  1  0.88087300  0.31693767  0.08885018  1.0
  Sn  Sn250  1  0.88087300  0.65027100  0.08885018  1.0
  Sn  Sn251  1  0.88087300  0.98360433  0.08885018  1.0
  Sn  Sn252  1  0.11912700  0.01639567  0.03147504  1.0
  Sn  Sn253  1  0.11912700  0.34972900  0.03147504  1.0
  Sn  Sn254  1  0.11912700  0.68306233  0.03147504  1.0
  Sn  Sn255  1  0.45246033  0.01639567  0.03147504  1.0
  Sn  Sn256  1  0.45246033  0.34972900  0.03147504  1.0
  Sn  Sn257  1  0.45246033  0.68306233  0.03147504  1.0
  Sn  Sn258  1  0.78579367  0.01639567  0.03147504  1.0
  Sn  Sn259  1  0.78579367  0.34972900  0.03147504  1.0
  Sn  Sn260  1  0.78579367  0.68306233  0.03147504  1.0
  Sn  Sn261  1  0.11912700  0.18306233  0.10290361  1.0
  Sn  Sn262  1  0.11912700  0.51639567  0.10290361  1.0
  Sn  Sn263  1  0.11912700  0.84972900  0.10290361  1.0
  Sn  Sn264  1  0.45246033  0.18306233  0.10290361  1.0
  Sn  Sn265  1  0.45246033  0.51639567  0.10290361  1.0
  Sn  Sn266  1  0.45246033  0.84972900  0.10290361  1.0
  Sn  Sn267  1  0.78579367  0.18306233  0.10290361  1.0
  Sn  Sn268  1  0.78579367  0.51639567  0.10290361  1.0
  Sn  Sn269  1  0.78579367  0.84972900  0.10290361  1.0
  Sn  Sn270  1  0.04753967  0.09972900  0.06718932  1.0
  Sn  Sn271  1  0.04753967  0.43306233  0.06718932  1.0
  Sn  Sn272  1  0.04753967  0.76639567  0.06718932  1.0
  Sn  Sn273  1  0.38087300  0.09972900  0.06718932  1.0
  Sn  Sn274  1  0.38087300  0.43306233  0.06718932  1.0
  Sn  Sn275  1  0.38087300  0.76639567  0.06718932  1.0
  Sn  Sn276  1  0.71420633  0.09972900  0.06718932  1.0
  Sn  Sn277  1  0.71420633  0.43306233  0.06718932  1.0
  Sn  Sn278  1  0.71420633  0.76639567  0.06718932  1.0
  Sn  Sn279  1  0.04753967  0.26639567  0.13861789  1.0
  Sn  Sn280  1  0.04753967  0.59972900  0.13861789  1.0
  Sn  Sn281  1  0.04753967  0.93306233  0.13861789  1.0
  Sn  Sn282  1  0.38087300  0.26639567  0.13861789  1.0
  Sn  Sn283  1  0.38087300  0.59972900  0.13861789  1.0
  Sn  Sn284  1  0.38087300  0.93306233  0.13861789  1.0
  Sn  Sn285  1  0.71420633  0.26639567  0.13861789  1.0
  Sn  Sn286  1  0.71420633  0.59972900  0.13861789  1.0
  Sn  Sn287  1  0.71420633  0.93306233  0.13861789  1.0
  Sn  Sn288  1  0.28579367  0.06693767  0.12456446  1.0
  Sn  Sn289  1  0.28579367  0.40027100  0.12456446  1.0
  Sn  Sn290  1  0.28579367  0.73360433  0.12456446  1.0
  Sn  Sn291  1  0.61912700  0.06693767  0.12456446  1.0
  Sn  Sn292  1  0.61912700  0.40027100  0.12456446  1.0
  Sn  Sn293  1  0.61912700  0.73360433  0.12456446  1.0
  Sn  Sn294  1  0.95246033  0.06693767  0.12456446  1.0
  Sn  Sn295  1  0.95246033  0.40027100  0.12456446  1.0
  Sn  Sn296  1  0.95246033  0.73360433  0.12456446  1.0
  Sn  Sn297  1  0.28579367  0.23360433  0.05313589  1.0
  Sn  Sn298  1  0.28579367  0.56693767  0.05313589  1.0
  Sn  Sn299  1  0.28579367  0.90027100  0.05313589  1.0
  Sn  Sn300  1  0.61912700  0.23360433  0.05313589  1.0
  Sn  Sn301  1  0.61912700  0.56693767  0.05313589  1.0
  Sn  Sn302  1  0.61912700  0.90027100  0.05313589  1.0
  Sn  Sn303  1  0.95246033  0.23360433  0.05313589  1.0
  Sn  Sn304  1  0.95246033  0.56693767  0.05313589  1.0
  Sn  Sn305  1  0.95246033  0.90027100  0.05313589  1.0
  Sn  Sn306  1  0.03234900  0.15647100  0.02007875  1.0
  Sn  Sn307  1  0.03234900  0.48980433  0.02007875  1.0
  Sn  Sn308  1  0.03234900  0.82313767  0.02007875  1.0
  Sn  Sn309  1  0.36568233  0.15647100  0.02007875  1.0
  Sn  Sn310  1  0.36568233  0.48980433  0.02007875  1.0
  Sn  Sn311  1  0.36568233  0.82313767  0.02007875  1.0
  Sn  Sn312  1  0.69901567  0.15647100  0.02007875  1.0
  Sn  Sn313  1  0.69901567  0.48980433  0.02007875  1.0
  Sn  Sn314  1  0.69901567  0.82313767  0.02007875  1.0
  Sn  Sn315  1  0.03234900  0.32313767  0.09150732  1.0
  Sn  Sn316  1  0.03234900  0.65647100  0.09150732  1.0
  Sn  Sn317  1  0.03234900  0.98980433  0.09150732  1.0
  Sn  Sn318  1  0.36568233  0.32313767  0.09150732  1.0
  Sn  Sn319  1  0.36568233  0.65647100  0.09150732  1.0
  Sn  Sn320  1  0.36568233  0.98980433  0.09150732  1.0
  Sn  Sn321  1  0.69901567  0.32313767  0.09150732  1.0
  Sn  Sn322  1  0.69901567  0.65647100  0.09150732  1.0
  Sn  Sn323  1  0.69901567  0.98980433  0.09150732  1.0
  Sn  Sn324  1  0.19901567  0.09352900  0.06453218  1.0
  Sn  Sn325  1  0.19901567  0.42686233  0.06453218  1.0
  Sn  Sn326  1  0.19901567  0.76019567  0.06453218  1.0
  Sn  Sn327  1  0.53234900  0.09352900  0.06453218  1.0
  Sn  Sn328  1  0.53234900  0.42686233  0.06453218  1.0
  Sn  Sn329  1  0.53234900  0.76019567  0.06453218  1.0
  Sn  Sn330  1  0.86568233  0.09352900  0.06453218  1.0
  Sn  Sn331  1  0.86568233  0.42686233  0.06453218  1.0
  Sn  Sn332  1  0.86568233  0.76019567  0.06453218  1.0
  Sn  Sn333  1  0.19901567  0.26019567  0.13596075  1.0
  Sn  Sn334  1  0.19901567  0.59352900  0.13596075  1.0
  Sn  Sn335  1  0.19901567  0.92686233  0.13596075  1.0
  Sn  Sn336  1  0.53234900  0.26019567  0.13596075  1.0
  Sn  Sn337  1  0.53234900  0.59352900  0.13596075  1.0
  Sn  Sn338  1  0.53234900  0.92686233  0.13596075  1.0
  Sn  Sn339  1  0.86568233  0.26019567  0.13596075  1.0
  Sn  Sn340  1  0.86568233  0.59352900  0.13596075  1.0
  Sn  Sn341  1  0.86568233  0.92686233  0.13596075  1.0
  Sn  Sn342  1  0.30098433  0.01019567  0.02881789  1.0
  Sn  Sn343  1  0.30098433  0.34352900  0.02881789  1.0
  Sn  Sn344  1  0.30098433  0.67686233  0.02881789  1.0
  Sn  Sn345  1  0.63431767  0.01019567  0.02881789  1.0
  Sn  Sn346  1  0.63431767  0.34352900  0.02881789  1.0
  Sn  Sn347  1  0.63431767  0.67686233  0.02881789  1.0
  Sn  Sn348  1  0.96765100  0.01019567  0.02881789  1.0
  Sn  Sn349  1  0.96765100  0.34352900  0.02881789  1.0
  Sn  Sn350  1  0.96765100  0.67686233  0.02881789  1.0
  Sn  Sn351  1  0.30098433  0.17686233  0.10024646  1.0
  Sn  Sn352  1  0.30098433  0.51019567  0.10024646  1.0
  Sn  Sn353  1  0.30098433  0.84352900  0.10024646  1.0
  Sn  Sn354  1  0.63431767  0.17686233  0.10024646  1.0
  Sn  Sn355  1  0.63431767  0.51019567  0.10024646  1.0
  Sn  Sn356  1  0.63431767  0.84352900  0.10024646  1.0
  Sn  Sn357  1  0.96765100  0.17686233  0.10024646  1.0
  Sn  Sn358  1  0.96765100  0.51019567  0.10024646  1.0
  Sn  Sn359  1  0.96765100  0.84352900  0.10024646  1.0
  Ni  Ni360  1  0.12484767  0.01484850  0.24509768  1.0
  Ni  Ni361  1  0.12484767  0.34818183  0.24509768  1.0
  Ni  Ni362  1  0.12484767  0.68151517  0.24509768  1.0
  Ni  Ni363  1  0.45818100  0.01484850  0.24509768  1.0
  Ni  Ni364  1  0.45818100  0.34818183  0.24509768  1.0
  Ni  Ni365  1  0.45818100  0.68151517  0.24509768  1.0
  Ni  Ni366  1  0.79151433  0.01484850  0.24509768  1.0
  Ni  Ni367  1  0.79151433  0.34818183  0.24509768  1.0
  Ni  Ni368  1  0.79151433  0.68151517  0.24509768  1.0
  Ni  Ni369  1  0.12484767  0.18151517  0.17366911  1.0
  Ni  Ni370  1  0.12484767  0.51484850  0.17366911  1.0
  Ni  Ni371  1  0.12484767  0.84818183  0.17366911  1.0
  Ni  Ni372  1  0.45818100  0.18151517  0.17366911  1.0
  Ni  Ni373  1  0.45818100  0.51484850  0.17366911  1.0
  Ni  Ni374  1  0.45818100  0.84818183  0.17366911  1.0
  Ni  Ni375  1  0.79151433  0.18151517  0.17366911  1.0
  Ni  Ni376  1  0.79151433  0.51484850  0.17366911  1.0
  Ni  Ni377  1  0.79151433  0.84818183  0.17366911  1.0
  Ni  Ni378  1  0.20848567  0.15181817  0.23237039  1.0
  Ni  Ni379  1  0.20848567  0.48515150  0.23237039  1.0
  Ni  Ni380  1  0.20848567  0.81848483  0.23237039  1.0
  Ni  Ni381  1  0.54181900  0.15181817  0.23237039  1.0
  Ni  Ni382  1  0.54181900  0.48515150  0.23237039  1.0
  Ni  Ni383  1  0.54181900  0.81848483  0.23237039  1.0
  Ni  Ni384  1  0.87515233  0.15181817  0.23237039  1.0
  Ni  Ni385  1  0.87515233  0.48515150  0.23237039  1.0
  Ni  Ni386  1  0.87515233  0.81848483  0.23237039  1.0
  Ni  Ni387  1  0.20848567  0.31848483  0.16094182  1.0
  Ni  Ni388  1  0.20848567  0.65181817  0.16094182  1.0
  Ni  Ni389  1  0.20848567  0.98515150  0.16094182  1.0
  Ni  Ni390  1  0.54181900  0.31848483  0.16094182  1.0
  Ni  Ni391  1  0.54181900  0.65181817  0.16094182  1.0
  Ni  Ni392  1  0.54181900  0.98515150  0.16094182  1.0
  Ni  Ni393  1  0.87515233  0.31848483  0.16094182  1.0
  Ni  Ni394  1  0.87515233  0.65181817  0.16094182  1.0
  Ni  Ni395  1  0.87515233  0.98515150  0.16094182  1.0
  Ni  Ni396  1  0.12546433  0.12723017  0.25819754  1.0
  Ni  Ni397  1  0.12546433  0.46056350  0.25819754  1.0
  Ni  Ni398  1  0.12546433  0.79389683  0.25819754  1.0
  Ni  Ni399  1  0.45879767  0.12723017  0.25819754  1.0
  Ni  Ni400  1  0.45879767  0.46056350  0.25819754  1.0
  Ni  Ni401  1  0.45879767  0.79389683  0.25819754  1.0
  Ni  Ni402  1  0.79213100  0.12723017  0.25819754  1.0
  Ni  Ni403  1  0.79213100  0.46056350  0.25819754  1.0
  Ni  Ni404  1  0.79213100  0.79389683  0.25819754  1.0
  Ni  Ni405  1  0.12546433  0.29389683  0.18676896  1.0
  Ni  Ni406  1  0.12546433  0.62723017  0.18676896  1.0
  Ni  Ni407  1  0.12546433  0.96056350  0.18676896  1.0
  Ni  Ni408  1  0.45879767  0.29389683  0.18676896  1.0
  Ni  Ni409  1  0.45879767  0.62723017  0.18676896  1.0
  Ni  Ni410  1  0.45879767  0.96056350  0.18676896  1.0
  Ni  Ni411  1  0.79213100  0.29389683  0.18676896  1.0
  Ni  Ni412  1  0.79213100  0.62723017  0.18676896  1.0
  Ni  Ni413  1  0.79213100  0.96056350  0.18676896  1.0
  Ni  Ni414  1  0.20786900  0.03943650  0.14914311  1.0
  Ni  Ni415  1  0.20786900  0.37276983  0.14914311  1.0
  Ni  Ni416  1  0.20786900  0.70610317  0.14914311  1.0
  Ni  Ni417  1  0.54120233  0.03943650  0.14914311  1.0
  Ni  Ni418  1  0.54120233  0.37276983  0.14914311  1.0
  Ni  Ni419  1  0.54120233  0.70610317  0.14914311  1.0
  Ni  Ni420  1  0.87453567  0.03943650  0.14914311  1.0
  Ni  Ni421  1  0.87453567  0.37276983  0.14914311  1.0
  Ni  Ni422  1  0.87453567  0.70610317  0.14914311  1.0
  Ni  Ni423  1  0.20786900  0.20610317  0.22057168  1.0
  Ni  Ni424  1  0.20786900  0.53943650  0.22057168  1.0
  Ni  Ni425  1  0.20786900  0.87276983  0.22057168  1.0
  Ni  Ni426  1  0.54120233  0.20610317  0.22057168  1.0
  Ni  Ni427  1  0.54120233  0.53943650  0.22057168  1.0
  Ni  Ni428  1  0.54120233  0.87276983  0.22057168  1.0
  Ni  Ni429  1  0.87453567  0.20610317  0.22057168  1.0
  Ni  Ni430  1  0.87453567  0.53943650  0.22057168  1.0
  Ni  Ni431  1  0.87453567  0.87276983  0.22057168  1.0
  Ni  Ni432  1  0.29213100  0.12276983  0.25498482  1.0
  Ni  Ni433  1  0.29213100  0.45610317  0.25498482  1.0
  Ni  Ni434  1  0.29213100  0.78943650  0.25498482  1.0
  Ni  Ni435  1  0.62546433  0.12276983  0.25498482  1.0
  Ni  Ni436  1  0.62546433  0.45610317  0.25498482  1.0
  Ni  Ni437  1  0.62546433  0.78943650  0.25498482  1.0
  Ni  Ni438  1  0.95879767  0.12276983  0.25498482  1.0
  Ni  Ni439  1  0.95879767  0.45610317  0.25498482  1.0
  Ni  Ni440  1  0.95879767  0.78943650  0.25498482  1.0
  Ni  Ni441  1  0.29213100  0.28943650  0.18355625  1.0
  Ni  Ni442  1  0.29213100  0.62276983  0.18355625  1.0
  Ni  Ni443  1  0.29213100  0.95610317  0.18355625  1.0
  Ni  Ni444  1  0.62546433  0.28943650  0.18355625  1.0
  Ni  Ni445  1  0.62546433  0.62276983  0.18355625  1.0
  Ni  Ni446  1  0.62546433  0.95610317  0.18355625  1.0
  Ni  Ni447  1  0.95879767  0.28943650  0.18355625  1.0
  Ni  Ni448  1  0.95879767  0.62276983  0.18355625  1.0
  Ni  Ni449  1  0.95879767  0.95610317  0.18355625  1.0
  Ni  Ni450  1  0.29213100  0.12276983  0.18485739  1.0
  Ni  Ni451  1  0.29213100  0.45610317  0.18485739  1.0
  Ni  Ni452  1  0.29213100  0.78943650  0.18485739  1.0
  Ni  Ni453  1  0.62546433  0.12276983  0.18485739  1.0
  Ni  Ni454  1  0.62546433  0.45610317  0.18485739  1.0
  Ni  Ni455  1  0.62546433  0.78943650  0.18485739  1.0
  Ni  Ni456  1  0.95879767  0.12276983  0.18485739  1.0
  Ni  Ni457  1  0.95879767  0.45610317  0.18485739  1.0
  Ni  Ni458  1  0.95879767  0.78943650  0.18485739  1.0
  Ni  Ni459  1  0.29213100  0.28943650  0.25628596  1.0
  Ni  Ni460  1  0.29213100  0.62276983  0.25628596  1.0
  Ni  Ni461  1  0.29213100  0.95610317  0.25628596  1.0
  Ni  Ni462  1  0.62546433  0.28943650  0.25628596  1.0
  Ni  Ni463  1  0.62546433  0.62276983  0.25628596  1.0
  Ni  Ni464  1  0.62546433  0.95610317  0.25628596  1.0
  Ni  Ni465  1  0.95879767  0.28943650  0.25628596  1.0
  Ni  Ni466  1  0.95879767  0.62276983  0.25628596  1.0
  Ni  Ni467  1  0.95879767  0.95610317  0.25628596  1.0
  Ni  Ni468  1  0.20786900  0.03943650  0.21927054  1.0
  Ni  Ni469  1  0.20786900  0.37276983  0.21927054  1.0
  Ni  Ni470  1  0.20786900  0.70610317  0.21927054  1.0
  Ni  Ni471  1  0.54120233  0.03943650  0.21927054  1.0
  Ni  Ni472  1  0.54120233  0.37276983  0.21927054  1.0
  Ni  Ni473  1  0.54120233  0.70610317  0.21927054  1.0
  Ni  Ni474  1  0.87453567  0.03943650  0.21927054  1.0
  Ni  Ni475  1  0.87453567  0.37276983  0.21927054  1.0
  Ni  Ni476  1  0.87453567  0.70610317  0.21927054  1.0
  Ni  Ni477  1  0.20786900  0.20610317  0.14784196  1.0
  Ni  Ni478  1  0.20786900  0.53943650  0.14784196  1.0
  Ni  Ni479  1  0.20786900  0.87276983  0.14784196  1.0
  Ni  Ni480  1  0.54120233  0.20610317  0.14784196  1.0
  Ni  Ni481  1  0.54120233  0.53943650  0.14784196  1.0
  Ni  Ni482  1  0.54120233  0.87276983  0.14784196  1.0
  Ni  Ni483  1  0.87453567  0.20610317  0.14784196  1.0
  Ni  Ni484  1  0.87453567  0.53943650  0.14784196  1.0
  Ni  Ni485  1  0.87453567  0.87276983  0.14784196  1.0
  Ni  Ni486  1  0.12546433  0.12723017  0.18546782  1.0
  Ni  Ni487  1  0.12546433  0.46056350  0.18546782  1.0
  Ni  Ni488  1  0.12546433  0.79389683  0.18546782  1.0
  Ni  Ni489  1  0.45879767  0.12723017  0.18546782  1.0
  Ni  Ni490  1  0.45879767  0.46056350  0.18546782  1.0
  Ni  Ni491  1  0.45879767  0.79389683  0.18546782  1.0
  Ni  Ni492  1  0.79213100  0.12723017  0.18546782  1.0
  Ni  Ni493  1  0.79213100  0.46056350  0.18546782  1.0
  Ni  Ni494  1  0.79213100  0.79389683  0.18546782  1.0
  Ni  Ni495  1  0.12546433  0.29389683  0.25689639  1.0
  Ni  Ni496  1  0.12546433  0.62723017  0.25689639  1.0
  Ni  Ni497  1  0.12546433  0.96056350  0.25689639  1.0
  Ni  Ni498  1  0.45879767  0.29389683  0.25689639  1.0
  Ni  Ni499  1  0.45879767  0.62723017  0.25689639  1.0
  Ni  Ni500  1  0.45879767  0.96056350  0.25689639  1.0
  Ni  Ni501  1  0.79213100  0.29389683  0.25689639  1.0
  Ni  Ni502  1  0.79213100  0.62723017  0.25689639  1.0
  Ni  Ni503  1  0.79213100  0.96056350  0.25689639  1.0
  Ni  Ni504  1  0.04120233  0.04389683  0.22248325  1.0
  Ni  Ni505  1  0.04120233  0.37723017  0.22248325  1.0
  Ni  Ni506  1  0.04120233  0.71056350  0.22248325  1.0
  Ni  Ni507  1  0.37453567  0.04389683  0.22248325  1.0
  Ni  Ni508  1  0.37453567  0.37723017  0.22248325  1.0
  Ni  Ni509  1  0.37453567  0.71056350  0.22248325  1.0
  Ni  Ni510  1  0.70786900  0.04389683  0.22248325  1.0
  Ni  Ni511  1  0.70786900  0.37723017  0.22248325  1.0
  Ni  Ni512  1  0.70786900  0.71056350  0.22248325  1.0
  Ni  Ni513  1  0.04120233  0.21056350  0.15105468  1.0
  Ni  Ni514  1  0.04120233  0.54389683  0.15105468  1.0
  Ni  Ni515  1  0.04120233  0.87723017  0.15105468  1.0
  Ni  Ni516  1  0.37453567  0.21056350  0.15105468  1.0
  Ni  Ni517  1  0.37453567  0.54389683  0.15105468  1.0
  Ni  Ni518  1  0.37453567  0.87723017  0.15105468  1.0
  Ni  Ni519  1  0.70786900  0.21056350  0.15105468  1.0
  Ni  Ni520  1  0.70786900  0.54389683  0.15105468  1.0
  Ni  Ni521  1  0.70786900  0.87723017  0.15105468  1.0
  Ni  Ni522  1  0.04181900  0.09818183  0.28081196  1.0
  Ni  Ni523  1  0.04181900  0.43151517  0.28081196  1.0
  Ni  Ni524  1  0.04181900  0.76484850  0.28081196  1.0
  Ni  Ni525  1  0.37515233  0.09818183  0.28081196  1.0
  Ni  Ni526  1  0.37515233  0.43151517  0.28081196  1.0
  Ni  Ni527  1  0.37515233  0.76484850  0.28081196  1.0
  Ni  Ni528  1  0.70848567  0.09818183  0.28081196  1.0
  Ni  Ni529  1  0.70848567  0.43151517  0.28081196  1.0
  Ni  Ni530  1  0.70848567  0.76484850  0.28081196  1.0
  Ni  Ni531  1  0.04181900  0.26484850  0.20938339  1.0
  Ni  Ni532  1  0.04181900  0.59818183  0.20938339  1.0
  Ni  Ni533  1  0.04181900  0.93151517  0.20938339  1.0
  Ni  Ni534  1  0.37515233  0.26484850  0.20938339  1.0
  Ni  Ni535  1  0.37515233  0.59818183  0.20938339  1.0
  Ni  Ni536  1  0.37515233  0.93151517  0.20938339  1.0
  Ni  Ni537  1  0.70848567  0.26484850  0.20938339  1.0
  Ni  Ni538  1  0.70848567  0.59818183  0.20938339  1.0
  Ni  Ni539  1  0.70848567  0.93151517  0.20938339  1.0
  Ni  Ni540  1  0.04120233  0.04389683  0.14975354  1.0
  Ni  Ni541  1  0.04120233  0.37723017  0.14975354  1.0
  Ni  Ni542  1  0.04120233  0.71056350  0.14975354  1.0
  Ni  Ni543  1  0.37453567  0.04389683  0.14975354  1.0
  Ni  Ni544  1  0.37453567  0.37723017  0.14975354  1.0
  Ni  Ni545  1  0.37453567  0.71056350  0.14975354  1.0
  Ni  Ni546  1  0.70786900  0.04389683  0.14975354  1.0
  Ni  Ni547  1  0.70786900  0.37723017  0.14975354  1.0
  Ni  Ni548  1  0.70786900  0.71056350  0.14975354  1.0
  Ni  Ni549  1  0.04120233  0.21056350  0.22118211  1.0
  Ni  Ni550  1  0.04120233  0.54389683  0.22118211  1.0
  Ni  Ni551  1  0.04120233  0.87723017  0.22118211  1.0
  Ni  Ni552  1  0.37453567  0.21056350  0.22118211  1.0
  Ni  Ni553  1  0.37453567  0.54389683  0.22118211  1.0
  Ni  Ni554  1  0.37453567  0.87723017  0.22118211  1.0
  Ni  Ni555  1  0.70786900  0.21056350  0.22118211  1.0
  Ni  Ni556  1  0.70786900  0.54389683  0.22118211  1.0
  Ni  Ni557  1  0.70786900  0.87723017  0.22118211  1.0
  Ni  Ni558  1  0.29151433  0.06848483  0.19665611  1.0
  Ni  Ni559  1  0.29151433  0.40181817  0.19665611  1.0
  Ni  Ni560  1  0.29151433  0.73515150  0.19665611  1.0
  Ni  Ni561  1  0.62484767  0.06848483  0.19665611  1.0
  Ni  Ni562  1  0.62484767  0.40181817  0.19665611  1.0
  Ni  Ni563  1  0.62484767  0.73515150  0.19665611  1.0
  Ni  Ni564  1  0.95818100  0.06848483  0.19665611  1.0
  Ni  Ni565  1  0.95818100  0.40181817  0.19665611  1.0
  Ni  Ni566  1  0.95818100  0.73515150  0.19665611  1.0
  Ni  Ni567  1  0.29151433  0.23515150  0.26808468  1.0
  Ni  Ni568  1  0.29151433  0.56848483  0.26808468  1.0
  Ni  Ni569  1  0.29151433  0.90181817  0.26808468  1.0
  Ni  Ni570  1  0.62484767  0.23515150  0.26808468  1.0
  Ni  Ni571  1  0.62484767  0.56848483  0.26808468  1.0
  Ni  Ni572  1  0.62484767  0.90181817  0.26808468  1.0
  Ni  Ni573  1  0.95818100  0.23515150  0.26808468  1.0
  Ni  Ni574  1  0.95818100  0.56848483  0.26808468  1.0
  Ni  Ni575  1  0.95818100  0.90181817  0.26808468  1.0
  Sn  Sn576  1  0.13431767  0.07313767  0.27007875  1.0
  Sn  Sn577  1  0.13431767  0.40647100  0.27007875  1.0
  Sn  Sn578  1  0.13431767  0.73980433  0.27007875  1.0
  Sn  Sn579  1  0.46765100  0.07313767  0.27007875  1.0
  Sn  Sn580  1  0.46765100  0.40647100  0.27007875  1.0
  Sn  Sn581  1  0.46765100  0.73980433  0.27007875  1.0
  Sn  Sn582  1  0.80098433  0.07313767  0.27007875  1.0
  Sn  Sn583  1  0.80098433  0.40647100  0.27007875  1.0
  Sn  Sn584  1  0.80098433  0.73980433  0.27007875  1.0
  Sn  Sn585  1  0.13431767  0.23980433  0.19865018  1.0
  Sn  Sn586  1  0.13431767  0.57313767  0.19865018  1.0
  Sn  Sn587  1  0.13431767  0.90647100  0.19865018  1.0
  Sn  Sn588  1  0.46765100  0.23980433  0.19865018  1.0
  Sn  Sn589  1  0.46765100  0.57313767  0.19865018  1.0
  Sn  Sn590  1  0.46765100  0.90647100  0.19865018  1.0
  Sn  Sn591  1  0.80098433  0.23980433  0.19865018  1.0
  Sn  Sn592  1  0.80098433  0.57313767  0.19865018  1.0
  Sn  Sn593  1  0.80098433  0.90647100  0.19865018  1.0
  Sn  Sn594  1  0.21420633  0.15027100  0.16027875  1.0
  Sn  Sn595  1  0.21420633  0.48360433  0.16027875  1.0
  Sn  Sn596  1  0.21420633  0.81693767  0.16027875  1.0
  Sn  Sn597  1  0.54753967  0.15027100  0.16027875  1.0
  Sn  Sn598  1  0.54753967  0.48360433  0.16027875  1.0
  Sn  Sn599  1  0.54753967  0.81693767  0.16027875  1.0
  Sn  Sn600  1  0.88087300  0.15027100  0.16027875  1.0
  Sn  Sn601  1  0.88087300  0.48360433  0.16027875  1.0
  Sn  Sn602  1  0.88087300  0.81693767  0.16027875  1.0
  Sn  Sn603  1  0.21420633  0.31693767  0.23170732  1.0
  Sn  Sn604  1  0.21420633  0.65027100  0.23170732  1.0
  Sn  Sn605  1  0.21420633  0.98360433  0.23170732  1.0
  Sn  Sn606  1  0.54753967  0.31693767  0.23170732  1.0
  Sn  Sn607  1  0.54753967  0.65027100  0.23170732  1.0
  Sn  Sn608  1  0.54753967  0.98360433  0.23170732  1.0
  Sn  Sn609  1  0.88087300  0.31693767  0.23170732  1.0
  Sn  Sn610  1  0.88087300  0.65027100  0.23170732  1.0
  Sn  Sn611  1  0.88087300  0.98360433  0.23170732  1.0
  Sn  Sn612  1  0.11912700  0.01639567  0.17433218  1.0
  Sn  Sn613  1  0.11912700  0.34972900  0.17433218  1.0
  Sn  Sn614  1  0.11912700  0.68306233  0.17433218  1.0
  Sn  Sn615  1  0.45246033  0.01639567  0.17433218  1.0
  Sn  Sn616  1  0.45246033  0.34972900  0.17433218  1.0
  Sn  Sn617  1  0.45246033  0.68306233  0.17433218  1.0
  Sn  Sn618  1  0.78579367  0.01639567  0.17433218  1.0
  Sn  Sn619  1  0.78579367  0.34972900  0.17433218  1.0
  Sn  Sn620  1  0.78579367  0.68306233  0.17433218  1.0
  Sn  Sn621  1  0.11912700  0.18306233  0.24576075  1.0
  Sn  Sn622  1  0.11912700  0.51639567  0.24576075  1.0
  Sn  Sn623  1  0.11912700  0.84972900  0.24576075  1.0
  Sn  Sn624  1  0.45246033  0.18306233  0.24576075  1.0
  Sn  Sn625  1  0.45246033  0.51639567  0.24576075  1.0
  Sn  Sn626  1  0.45246033  0.84972900  0.24576075  1.0
  Sn  Sn627  1  0.78579367  0.18306233  0.24576075  1.0
  Sn  Sn628  1  0.78579367  0.51639567  0.24576075  1.0
  Sn  Sn629  1  0.78579367  0.84972900  0.24576075  1.0
  Sn  Sn630  1  0.04753967  0.09972900  0.21004646  1.0
  Sn  Sn631  1  0.04753967  0.43306233  0.21004646  1.0
  Sn  Sn632  1  0.04753967  0.76639567  0.21004646  1.0
  Sn  Sn633  1  0.38087300  0.09972900  0.21004646  1.0
  Sn  Sn634  1  0.38087300  0.43306233  0.21004646  1.0
  Sn  Sn635  1  0.38087300  0.76639567  0.21004646  1.0
  Sn  Sn636  1  0.71420633  0.09972900  0.21004646  1.0
  Sn  Sn637  1  0.71420633  0.43306233  0.21004646  1.0
  Sn  Sn638  1  0.71420633  0.76639567  0.21004646  1.0
  Sn  Sn639  1  0.04753967  0.26639567  0.28147504  1.0
  Sn  Sn640  1  0.04753967  0.59972900  0.28147504  1.0
  Sn  Sn641  1  0.04753967  0.93306233  0.28147504  1.0
  Sn  Sn642  1  0.38087300  0.26639567  0.28147504  1.0
  Sn  Sn643  1  0.38087300  0.59972900  0.28147504  1.0
  Sn  Sn644  1  0.38087300  0.93306233  0.28147504  1.0
  Sn  Sn645  1  0.71420633  0.26639567  0.28147504  1.0
  Sn  Sn646  1  0.71420633  0.59972900  0.28147504  1.0
  Sn  Sn647  1  0.71420633  0.93306233  0.28147504  1.0
  Sn  Sn648  1  0.28579367  0.06693767  0.26742161  1.0
  Sn  Sn649  1  0.28579367  0.40027100  0.26742161  1.0
  Sn  Sn650  1  0.28579367  0.73360433  0.26742161  1.0
  Sn  Sn651  1  0.61912700  0.06693767  0.26742161  1.0
  Sn  Sn652  1  0.61912700  0.40027100  0.26742161  1.0
  Sn  Sn653  1  0.61912700  0.73360433  0.26742161  1.0
  Sn  Sn654  1  0.95246033  0.06693767  0.26742161  1.0
  Sn  Sn655  1  0.95246033  0.40027100  0.26742161  1.0
  Sn  Sn656  1  0.95246033  0.73360433  0.26742161  1.0
  Sn  Sn657  1  0.28579367  0.23360433  0.19599304  1.0
  Sn  Sn658  1  0.28579367  0.56693767  0.19599304  1.0
  Sn  Sn659  1  0.28579367  0.90027100  0.19599304  1.0
  Sn  Sn660  1  0.61912700  0.23360433  0.19599304  1.0
  Sn  Sn661  1  0.61912700  0.56693767  0.19599304  1.0
  Sn  Sn662  1  0.61912700  0.90027100  0.19599304  1.0
  Sn  Sn663  1  0.95246033  0.23360433  0.19599304  1.0
  Sn  Sn664  1  0.95246033  0.56693767  0.19599304  1.0
  Sn  Sn665  1  0.95246033  0.90027100  0.19599304  1.0
  Sn  Sn666  1  0.03234900  0.15647100  0.16293589  1.0
  Sn  Sn667  1  0.03234900  0.48980433  0.16293589  1.0
  Sn  Sn668  1  0.03234900  0.82313767  0.16293589  1.0
  Sn  Sn669  1  0.36568233  0.15647100  0.16293589  1.0
  Sn  Sn670  1  0.36568233  0.48980433  0.16293589  1.0
  Sn  Sn671  1  0.36568233  0.82313767  0.16293589  1.0
  Sn  Sn672  1  0.69901567  0.15647100  0.16293589  1.0
  Sn  Sn673  1  0.69901567  0.48980433  0.16293589  1.0
  Sn  Sn674  1  0.69901567  0.82313767  0.16293589  1.0
  Sn  Sn675  1  0.03234900  0.32313767  0.23436446  1.0
  Sn  Sn676  1  0.03234900  0.65647100  0.23436446  1.0
  Sn  Sn677  1  0.03234900  0.98980433  0.23436446  1.0
  Sn  Sn678  1  0.36568233  0.32313767  0.23436446  1.0
  Sn  Sn679  1  0.36568233  0.65647100  0.23436446  1.0
  Sn  Sn680  1  0.36568233  0.98980433  0.23436446  1.0
  Sn  Sn681  1  0.69901567  0.32313767  0.23436446  1.0
  Sn  Sn682  1  0.69901567  0.65647100  0.23436446  1.0
  Sn  Sn683  1  0.69901567  0.98980433  0.23436446  1.0
  Sn  Sn684  1  0.19901567  0.09352900  0.20738932  1.0
  Sn  Sn685  1  0.19901567  0.42686233  0.20738932  1.0
  Sn  Sn686  1  0.19901567  0.76019567  0.20738932  1.0
  Sn  Sn687  1  0.53234900  0.09352900  0.20738932  1.0
  Sn  Sn688  1  0.53234900  0.42686233  0.20738932  1.0
  Sn  Sn689  1  0.53234900  0.76019567  0.20738932  1.0
  Sn  Sn690  1  0.86568233  0.09352900  0.20738932  1.0
  Sn  Sn691  1  0.86568233  0.42686233  0.20738932  1.0
  Sn  Sn692  1  0.86568233  0.76019567  0.20738932  1.0
  Sn  Sn693  1  0.19901567  0.26019567  0.27881789  1.0
  Sn  Sn694  1  0.19901567  0.59352900  0.27881789  1.0
  Sn  Sn695  1  0.19901567  0.92686233  0.27881789  1.0
  Sn  Sn696  1  0.53234900  0.26019567  0.27881789  1.0
  Sn  Sn697  1  0.53234900  0.59352900  0.27881789  1.0
  Sn  Sn698  1  0.53234900  0.92686233  0.27881789  1.0
  Sn  Sn699  1  0.86568233  0.26019567  0.27881789  1.0
  Sn  Sn700  1  0.86568233  0.59352900  0.27881789  1.0
  Sn  Sn701  1  0.86568233  0.92686233  0.27881789  1.0
  Sn  Sn702  1  0.30098433  0.01019567  0.17167504  1.0
  Sn  Sn703  1  0.30098433  0.34352900  0.17167504  1.0
  Sn  Sn704  1  0.30098433  0.67686233  0.17167504  1.0
  Sn  Sn705  1  0.63431767  0.01019567  0.17167504  1.0
  Sn  Sn706  1  0.63431767  0.34352900  0.17167504  1.0
  Sn  Sn707  1  0.63431767  0.67686233  0.17167504  1.0
  Sn  Sn708  1  0.96765100  0.01019567  0.17167504  1.0
  Sn  Sn709  1  0.96765100  0.34352900  0.17167504  1.0
  Sn  Sn710  1  0.96765100  0.67686233  0.17167504  1.0
  Sn  Sn711  1  0.30098433  0.17686233  0.24310361  1.0
  Sn  Sn712  1  0.30098433  0.51019567  0.24310361  1.0
  Sn  Sn713  1  0.30098433  0.84352900  0.24310361  1.0
  Sn  Sn714  1  0.63431767  0.17686233  0.24310361  1.0
  Sn  Sn715  1  0.63431767  0.51019567  0.24310361  1.0
  Sn  Sn716  1  0.63431767  0.84352900  0.24310361  1.0
  Sn  Sn717  1  0.96765100  0.17686233  0.24310361  1.0
  Sn  Sn718  1  0.96765100  0.51019567  0.24310361  1.0
  Sn  Sn719  1  0.96765100  0.84352900  0.24310361  1.0
  Ni  Ni720  1  0.12484767  0.01484850  0.38795482  1.0
  Ni  Ni721  1  0.12484767  0.34818183  0.38795482  1.0
  Ni  Ni722  1  0.12484767  0.68151517  0.38795482  1.0
  Ni  Ni723  1  0.45818100  0.01484850  0.38795482  1.0
  Ni  Ni724  1  0.45818100  0.34818183  0.38795482  1.0
  Ni  Ni725  1  0.45818100  0.68151517  0.38795482  1.0
  Ni  Ni726  1  0.79151433  0.01484850  0.38795482  1.0
  Ni  Ni727  1  0.79151433  0.34818183  0.38795482  1.0
  Ni  Ni728  1  0.79151433  0.68151517  0.38795482  1.0
  Ni  Ni729  1  0.12484767  0.18151517  0.31652625  1.0
  Ni  Ni730  1  0.12484767  0.51484850  0.31652625  1.0
  Ni  Ni731  1  0.12484767  0.84818183  0.31652625  1.0
  Ni  Ni732  1  0.45818100  0.18151517  0.31652625  1.0
  Ni  Ni733  1  0.45818100  0.51484850  0.31652625  1.0
  Ni  Ni734  1  0.45818100  0.84818183  0.31652625  1.0
  Ni  Ni735  1  0.79151433  0.18151517  0.31652625  1.0
  Ni  Ni736  1  0.79151433  0.51484850  0.31652625  1.0
  Ni  Ni737  1  0.79151433  0.84818183  0.31652625  1.0
  Ni  Ni738  1  0.20848567  0.15181817  0.37522754  1.0
  Ni  Ni739  1  0.20848567  0.48515150  0.37522754  1.0
  Ni  Ni740  1  0.20848567  0.81848483  0.37522754  1.0
  Ni  Ni741  1  0.54181900  0.15181817  0.37522754  1.0
  Ni  Ni742  1  0.54181900  0.48515150  0.37522754  1.0
  Ni  Ni743  1  0.54181900  0.81848483  0.37522754  1.0
  Ni  Ni744  1  0.87515233  0.15181817  0.37522754  1.0
  Ni  Ni745  1  0.87515233  0.48515150  0.37522754  1.0
  Ni  Ni746  1  0.87515233  0.81848483  0.37522754  1.0
  Ni  Ni747  1  0.20848567  0.31848483  0.30379896  1.0
  Ni  Ni748  1  0.20848567  0.65181817  0.30379896  1.0
  Ni  Ni749  1  0.20848567  0.98515150  0.30379896  1.0
  Ni  Ni750  1  0.54181900  0.31848483  0.30379896  1.0
  Ni  Ni751  1  0.54181900  0.65181817  0.30379896  1.0
  Ni  Ni752  1  0.54181900  0.98515150  0.30379896  1.0
  Ni  Ni753  1  0.87515233  0.31848483  0.30379896  1.0
  Ni  Ni754  1  0.87515233  0.65181817  0.30379896  1.0
  Ni  Ni755  1  0.87515233  0.98515150  0.30379896  1.0
  Ni  Ni756  1  0.12546433  0.12723017  0.40105468  1.0
  Ni  Ni757  1  0.12546433  0.46056350  0.40105468  1.0
  Ni  Ni758  1  0.12546433  0.79389683  0.40105468  1.0
  Ni  Ni759  1  0.45879767  0.12723017  0.40105468  1.0
  Ni  Ni760  1  0.45879767  0.46056350  0.40105468  1.0
  Ni  Ni761  1  0.45879767  0.79389683  0.40105468  1.0
  Ni  Ni762  1  0.79213100  0.12723017  0.40105468  1.0
  Ni  Ni763  1  0.79213100  0.46056350  0.40105468  1.0
  Ni  Ni764  1  0.79213100  0.79389683  0.40105468  1.0
  Ni  Ni765  1  0.12546433  0.29389683  0.32962611  1.0
  Ni  Ni766  1  0.12546433  0.62723017  0.32962611  1.0
  Ni  Ni767  1  0.12546433  0.96056350  0.32962611  1.0
  Ni  Ni768  1  0.45879767  0.29389683  0.32962611  1.0
  Ni  Ni769  1  0.45879767  0.62723017  0.32962611  1.0
  Ni  Ni770  1  0.45879767  0.96056350  0.32962611  1.0
  Ni  Ni771  1  0.79213100  0.29389683  0.32962611  1.0
  Ni  Ni772  1  0.79213100  0.62723017  0.32962611  1.0
  Ni  Ni773  1  0.79213100  0.96056350  0.32962611  1.0
  Ni  Ni774  1  0.20786900  0.03943650  0.29200025  1.0
  Ni  Ni775  1  0.20786900  0.37276983  0.29200025  1.0
  Ni  Ni776  1  0.20786900  0.70610317  0.29200025  1.0
  Ni  Ni777  1  0.54120233  0.03943650  0.29200025  1.0
  Ni  Ni778  1  0.54120233  0.37276983  0.29200025  1.0
  Ni  Ni779  1  0.54120233  0.70610317  0.29200025  1.0
  Ni  Ni780  1  0.87453567  0.03943650  0.29200025  1.0
  Ni  Ni781  1  0.87453567  0.37276983  0.29200025  1.0
  Ni  Ni782  1  0.87453567  0.70610317  0.29200025  1.0
  Ni  Ni783  1  0.20786900  0.20610317  0.36342882  1.0
  Ni  Ni784  1  0.20786900  0.53943650  0.36342882  1.0
  Ni  Ni785  1  0.20786900  0.87276983  0.36342882  1.0
  Ni  Ni786  1  0.54120233  0.20610317  0.36342882  1.0
  Ni  Ni787  1  0.54120233  0.53943650  0.36342882  1.0
  Ni  Ni788  1  0.54120233  0.87276983  0.36342882  1.0
  Ni  Ni789  1  0.87453567  0.20610317  0.36342882  1.0
  Ni  Ni790  1  0.87453567  0.53943650  0.36342882  1.0
  Ni  Ni791  1  0.87453567  0.87276983  0.36342882  1.0
  Ni  Ni792  1  0.29213100  0.12276983  0.39784196  1.0
  Ni  Ni793  1  0.29213100  0.45610317  0.39784196  1.0
  Ni  Ni794  1  0.29213100  0.78943650  0.39784196  1.0
  Ni  Ni795  1  0.62546433  0.12276983  0.39784196  1.0
  Ni  Ni796  1  0.62546433  0.45610317  0.39784196  1.0
  Ni  Ni797  1  0.62546433  0.78943650  0.39784196  1.0
  Ni  Ni798  1  0.95879767  0.12276983  0.39784196  1.0
  Ni  Ni799  1  0.95879767  0.45610317  0.39784196  1.0
  Ni  Ni800  1  0.95879767  0.78943650  0.39784196  1.0
  Ni  Ni801  1  0.29213100  0.28943650  0.32641339  1.0
  Ni  Ni802  1  0.29213100  0.62276983  0.32641339  1.0
  Ni  Ni803  1  0.29213100  0.95610317  0.32641339  1.0
  Ni  Ni804  1  0.62546433  0.28943650  0.32641339  1.0
  Ni  Ni805  1  0.62546433  0.62276983  0.32641339  1.0
  Ni  Ni806  1  0.62546433  0.95610317  0.32641339  1.0
  Ni  Ni807  1  0.95879767  0.28943650  0.32641339  1.0
  Ni  Ni808  1  0.95879767  0.62276983  0.32641339  1.0
  Ni  Ni809  1  0.95879767  0.95610317  0.32641339  1.0
  Ni  Ni810  1  0.29213100  0.12276983  0.32771454  1.0
  Ni  Ni811  1  0.29213100  0.45610317  0.32771454  1.0
  Ni  Ni812  1  0.29213100  0.78943650  0.32771454  1.0
  Ni  Ni813  1  0.62546433  0.12276983  0.32771454  1.0
  Ni  Ni814  1  0.62546433  0.45610317  0.32771454  1.0
  Ni  Ni815  1  0.62546433  0.78943650  0.32771454  1.0
  Ni  Ni816  1  0.95879767  0.12276983  0.32771454  1.0
  Ni  Ni817  1  0.95879767  0.45610317  0.32771454  1.0
  Ni  Ni818  1  0.95879767  0.78943650  0.32771454  1.0
  Ni  Ni819  1  0.29213100  0.28943650  0.39914311  1.0
  Ni  Ni820  1  0.29213100  0.62276983  0.39914311  1.0
  Ni  Ni821  1  0.29213100  0.95610317  0.39914311  1.0
  Ni  Ni822  1  0.62546433  0.28943650  0.39914311  1.0
  Ni  Ni823  1  0.62546433  0.62276983  0.39914311  1.0
  Ni  Ni824  1  0.62546433  0.95610317  0.39914311  1.0
  Ni  Ni825  1  0.95879767  0.28943650  0.39914311  1.0
  Ni  Ni826  1  0.95879767  0.62276983  0.39914311  1.0
  Ni  Ni827  1  0.95879767  0.95610317  0.39914311  1.0
  Ni  Ni828  1  0.20786900  0.03943650  0.36212768  1.0
  Ni  Ni829  1  0.20786900  0.37276983  0.36212768  1.0
  Ni  Ni830  1  0.20786900  0.70610317  0.36212768  1.0
  Ni  Ni831  1  0.54120233  0.03943650  0.36212768  1.0
  Ni  Ni832  1  0.54120233  0.37276983  0.36212768  1.0
  Ni  Ni833  1  0.54120233  0.70610317  0.36212768  1.0
  Ni  Ni834  1  0.87453567  0.03943650  0.36212768  1.0
  Ni  Ni835  1  0.87453567  0.37276983  0.36212768  1.0
  Ni  Ni836  1  0.87453567  0.70610317  0.36212768  1.0
  Ni  Ni837  1  0.20786900  0.20610317  0.29069911  1.0
  Ni  Ni838  1  0.20786900  0.53943650  0.29069911  1.0
  Ni  Ni839  1  0.20786900  0.87276983  0.29069911  1.0
  Ni  Ni840  1  0.54120233  0.20610317  0.29069911  1.0
  Ni  Ni841  1  0.54120233  0.53943650  0.29069911  1.0
  Ni  Ni842  1  0.54120233  0.87276983  0.29069911  1.0
  Ni  Ni843  1  0.87453567  0.20610317  0.29069911  1.0
  Ni  Ni844  1  0.87453567  0.53943650  0.29069911  1.0
  Ni  Ni845  1  0.87453567  0.87276983  0.29069911  1.0
  Ni  Ni846  1  0.12546433  0.12723017  0.32832496  1.0
  Ni  Ni847  1  0.12546433  0.46056350  0.32832496  1.0
  Ni  Ni848  1  0.12546433  0.79389683  0.32832496  1.0
  Ni  Ni849  1  0.45879767  0.12723017  0.32832496  1.0
  Ni  Ni850  1  0.45879767  0.46056350  0.32832496  1.0
  Ni  Ni851  1  0.45879767  0.79389683  0.32832496  1.0
  Ni  Ni852  1  0.79213100  0.12723017  0.32832496  1.0
  Ni  Ni853  1  0.79213100  0.46056350  0.32832496  1.0
  Ni  Ni854  1  0.79213100  0.79389683  0.32832496  1.0
  Ni  Ni855  1  0.12546433  0.29389683  0.39975354  1.0
  Ni  Ni856  1  0.12546433  0.62723017  0.39975354  1.0
  Ni  Ni857  1  0.12546433  0.96056350  0.39975354  1.0
  Ni  Ni858  1  0.45879767  0.29389683  0.39975354  1.0
  Ni  Ni859  1  0.45879767  0.62723017  0.39975354  1.0
  Ni  Ni860  1  0.45879767  0.96056350  0.39975354  1.0
  Ni  Ni861  1  0.79213100  0.29389683  0.39975354  1.0
  Ni  Ni862  1  0.79213100  0.62723017  0.39975354  1.0
  Ni  Ni863  1  0.79213100  0.96056350  0.39975354  1.0
  Ni  Ni864  1  0.04120233  0.04389683  0.36534039  1.0
  Ni  Ni865  1  0.04120233  0.37723017  0.36534039  1.0
  Ni  Ni866  1  0.04120233  0.71056350  0.36534039  1.0
  Ni  Ni867  1  0.37453567  0.04389683  0.36534039  1.0
  Ni  Ni868  1  0.37453567  0.37723017  0.36534039  1.0
  Ni  Ni869  1  0.37453567  0.71056350  0.36534039  1.0
  Ni  Ni870  1  0.70786900  0.04389683  0.36534039  1.0
  Ni  Ni871  1  0.70786900  0.37723017  0.36534039  1.0
  Ni  Ni872  1  0.70786900  0.71056350  0.36534039  1.0
  Ni  Ni873  1  0.04120233  0.21056350  0.29391182  1.0
  Ni  Ni874  1  0.04120233  0.54389683  0.29391182  1.0
  Ni  Ni875  1  0.04120233  0.87723017  0.29391182  1.0
  Ni  Ni876  1  0.37453567  0.21056350  0.29391182  1.0
  Ni  Ni877  1  0.37453567  0.54389683  0.29391182  1.0
  Ni  Ni878  1  0.37453567  0.87723017  0.29391182  1.0
  Ni  Ni879  1  0.70786900  0.21056350  0.29391182  1.0
  Ni  Ni880  1  0.70786900  0.54389683  0.29391182  1.0
  Ni  Ni881  1  0.70786900  0.87723017  0.29391182  1.0
  Ni  Ni882  1  0.04181900  0.09818183  0.42366911  1.0
  Ni  Ni883  1  0.04181900  0.43151517  0.42366911  1.0
  Ni  Ni884  1  0.04181900  0.76484850  0.42366911  1.0
  Ni  Ni885  1  0.37515233  0.09818183  0.42366911  1.0
  Ni  Ni886  1  0.37515233  0.43151517  0.42366911  1.0
  Ni  Ni887  1  0.37515233  0.76484850  0.42366911  1.0
  Ni  Ni888  1  0.70848567  0.09818183  0.42366911  1.0
  Ni  Ni889  1  0.70848567  0.43151517  0.42366911  1.0
  Ni  Ni890  1  0.70848567  0.76484850  0.42366911  1.0
  Ni  Ni891  1  0.04181900  0.26484850  0.35224054  1.0
  Ni  Ni892  1  0.04181900  0.59818183  0.35224054  1.0
  Ni  Ni893  1  0.04181900  0.93151517  0.35224054  1.0
  Ni  Ni894  1  0.37515233  0.26484850  0.35224054  1.0
  Ni  Ni895  1  0.37515233  0.59818183  0.35224054  1.0
  Ni  Ni896  1  0.37515233  0.93151517  0.35224054  1.0
  Ni  Ni897  1  0.70848567  0.26484850  0.35224054  1.0
  Ni  Ni898  1  0.70848567  0.59818183  0.35224054  1.0
  Ni  Ni899  1  0.70848567  0.93151517  0.35224054  1.0
  Ni  Ni900  1  0.04120233  0.04389683  0.29261068  1.0
  Ni  Ni901  1  0.04120233  0.37723017  0.29261068  1.0
  Ni  Ni902  1  0.04120233  0.71056350  0.29261068  1.0
  Ni  Ni903  1  0.37453567  0.04389683  0.29261068  1.0
  Ni  Ni904  1  0.37453567  0.37723017  0.29261068  1.0
  Ni  Ni905  1  0.37453567  0.71056350  0.29261068  1.0
  Ni  Ni906  1  0.70786900  0.04389683  0.29261068  1.0
  Ni  Ni907  1  0.70786900  0.37723017  0.29261068  1.0
  Ni  Ni908  1  0.70786900  0.71056350  0.29261068  1.0
  Ni  Ni909  1  0.04120233  0.21056350  0.36403925  1.0
  Ni  Ni910  1  0.04120233  0.54389683  0.36403925  1.0
  Ni  Ni911  1  0.04120233  0.87723017  0.36403925  1.0
  Ni  Ni912  1  0.37453567  0.21056350  0.36403925  1.0
  Ni  Ni913  1  0.37453567  0.54389683  0.36403925  1.0
  Ni  Ni914  1  0.37453567  0.87723017  0.36403925  1.0
  Ni  Ni915  1  0.70786900  0.21056350  0.36403925  1.0
  Ni  Ni916  1  0.70786900  0.54389683  0.36403925  1.0
  Ni  Ni917  1  0.70786900  0.87723017  0.36403925  1.0
  Ni  Ni918  1  0.29151433  0.06848483  0.33951325  1.0
  Ni  Ni919  1  0.29151433  0.40181817  0.33951325  1.0
  Ni  Ni920  1  0.29151433  0.73515150  0.33951325  1.0
  Ni  Ni921  1  0.62484767  0.06848483  0.33951325  1.0
  Ni  Ni922  1  0.62484767  0.40181817  0.33951325  1.0
  Ni  Ni923  1  0.62484767  0.73515150  0.33951325  1.0
  Ni  Ni924  1  0.95818100  0.06848483  0.33951325  1.0
  Ni  Ni925  1  0.95818100  0.40181817  0.33951325  1.0
  Ni  Ni926  1  0.95818100  0.73515150  0.33951325  1.0
  Ni  Ni927  1  0.29151433  0.23515150  0.41094182  1.0
  Ni  Ni928  1  0.29151433  0.56848483  0.41094182  1.0
  Ni  Ni929  1  0.29151433  0.90181817  0.41094182  1.0
  Ni  Ni930  1  0.62484767  0.23515150  0.41094182  1.0
  Ni  Ni931  1  0.62484767  0.56848483  0.41094182  1.0
  Ni  Ni932  1  0.62484767  0.90181817  0.41094182  1.0
  Ni  Ni933  1  0.95818100  0.23515150  0.41094182  1.0
  Ni  Ni934  1  0.95818100  0.56848483  0.41094182  1.0
  Ni  Ni935  1  0.95818100  0.90181817  0.41094182  1.0
  Sn  Sn936  1  0.13431767  0.07313767  0.41293589  1.0
  Sn  Sn937  1  0.13431767  0.40647100  0.41293589  1.0
  Sn  Sn938  1  0.13431767  0.73980433  0.41293589  1.0
  Sn  Sn939  1  0.46765100  0.07313767  0.41293589  1.0
  Sn  Sn940  1  0.46765100  0.40647100  0.41293589  1.0
  Sn  Sn941  1  0.46765100  0.73980433  0.41293589  1.0
  Sn  Sn942  1  0.80098433  0.07313767  0.41293589  1.0
  Sn  Sn943  1  0.80098433  0.40647100  0.41293589  1.0
  Sn  Sn944  1  0.80098433  0.73980433  0.41293589  1.0
  Sn  Sn945  1  0.13431767  0.23980433  0.34150732  1.0
  Sn  Sn946  1  0.13431767  0.57313767  0.34150732  1.0
  Sn  Sn947  1  0.13431767  0.90647100  0.34150732  1.0
  Sn  Sn948  1  0.46765100  0.23980433  0.34150732  1.0
  Sn  Sn949  1  0.46765100  0.57313767  0.34150732  1.0
  Sn  Sn950  1  0.46765100  0.90647100  0.34150732  1.0
  Sn  Sn951  1  0.80098433  0.23980433  0.34150732  1.0
  Sn  Sn952  1  0.80098433  0.57313767  0.34150732  1.0
  Sn  Sn953  1  0.80098433  0.90647100  0.34150732  1.0
  Sn  Sn954  1  0.21420633  0.15027100  0.30313589  1.0
  Sn  Sn955  1  0.21420633  0.48360433  0.30313589  1.0
  Sn  Sn956  1  0.21420633  0.81693767  0.30313589  1.0
  Sn  Sn957  1  0.54753967  0.15027100  0.30313589  1.0
  Sn  Sn958  1  0.54753967  0.48360433  0.30313589  1.0
  Sn  Sn959  1  0.54753967  0.81693767  0.30313589  1.0
  Sn  Sn960  1  0.88087300  0.15027100  0.30313589  1.0
  Sn  Sn961  1  0.88087300  0.48360433  0.30313589  1.0
  Sn  Sn962  1  0.88087300  0.81693767  0.30313589  1.0
  Sn  Sn963  1  0.21420633  0.31693767  0.37456446  1.0
  Sn  Sn964  1  0.21420633  0.65027100  0.37456446  1.0
  Sn  Sn965  1  0.21420633  0.98360433  0.37456446  1.0
  Sn  Sn966  1  0.54753967  0.31693767  0.37456446  1.0
  Sn  Sn967  1  0.54753967  0.65027100  0.37456446  1.0
  Sn  Sn968  1  0.54753967  0.98360433  0.37456446  1.0
  Sn  Sn969  1  0.88087300  0.31693767  0.37456446  1.0
  Sn  Sn970  1  0.88087300  0.65027100  0.37456446  1.0
  Sn  Sn971  1  0.88087300  0.98360433  0.37456446  1.0
  Sn  Sn972  1  0.11912700  0.01639567  0.31718932  1.0
  Sn  Sn973  1  0.11912700  0.34972900  0.31718932  1.0
  Sn  Sn974  1  0.11912700  0.68306233  0.31718932  1.0
  Sn  Sn975  1  0.45246033  0.01639567  0.31718932  1.0
  Sn  Sn976  1  0.45246033  0.34972900  0.31718932  1.0
  Sn  Sn977  1  0.45246033  0.68306233  0.31718932  1.0
  Sn  Sn978  1  0.78579367  0.01639567  0.31718932  1.0
  Sn  Sn979  1  0.78579367  0.34972900  0.31718932  1.0
  Sn  Sn980  1  0.78579367  0.68306233  0.31718932  1.0
  Sn  Sn981  1  0.11912700  0.18306233  0.38861789  1.0
  Sn  Sn982  1  0.11912700  0.51639567  0.38861789  1.0
  Sn  Sn983  1  0.11912700  0.84972900  0.38861789  1.0
  Sn  Sn984  1  0.45246033  0.18306233  0.38861789  1.0
  Sn  Sn985  1  0.45246033  0.51639567  0.38861789  1.0
  Sn  Sn986  1  0.45246033  0.84972900  0.38861789  1.0
  Sn  Sn987  1  0.78579367  0.18306233  0.38861789  1.0
  Sn  Sn988  1  0.78579367  0.51639567  0.38861789  1.0
  Sn  Sn989  1  0.78579367  0.84972900  0.38861789  1.0
  Sn  Sn990  1  0.04753967  0.09972900  0.35290361  1.0
  Sn  Sn991  1  0.04753967  0.43306233  0.35290361  1.0
  Sn  Sn992  1  0.04753967  0.76639567  0.35290361  1.0
  Sn  Sn993  1  0.38087300  0.09972900  0.35290361  1.0
  Sn  Sn994  1  0.38087300  0.43306233  0.35290361  1.0
  Sn  Sn995  1  0.38087300  0.76639567  0.35290361  1.0
  Sn  Sn996  1  0.71420633  0.09972900  0.35290361  1.0
  Sn  Sn997  1  0.71420633  0.43306233  0.35290361  1.0
  Sn  Sn998  1  0.71420633  0.76639567  0.35290361  1.0
  Sn  Sn999  1  0.04753967  0.26639567  0.42433218  1.0
  Sn  Sn1000  1  0.04753967  0.59972900  0.42433218  1.0
  Sn  Sn1001  1  0.04753967  0.93306233  0.42433218  1.0
  Sn  Sn1002  1  0.38087300  0.26639567  0.42433218  1.0
  Sn  Sn1003  1  0.38087300  0.59972900  0.42433218  1.0
  Sn  Sn1004  1  0.38087300  0.93306233  0.42433218  1.0
  Sn  Sn1005  1  0.71420633  0.26639567  0.42433218  1.0
  Sn  Sn1006  1  0.71420633  0.59972900  0.42433218  1.0
  Sn  Sn1007  1  0.71420633  0.93306233  0.42433218  1.0
  Sn  Sn1008  1  0.28579367  0.06693767  0.41027875  1.0
  Sn  Sn1009  1  0.28579367  0.40027100  0.41027875  1.0
  Sn  Sn1010  1  0.28579367  0.73360433  0.41027875  1.0
  Sn  Sn1011  1  0.61912700  0.06693767  0.41027875  1.0
  Sn  Sn1012  1  0.61912700  0.40027100  0.41027875  1.0
  Sn  Sn1013  1  0.61912700  0.73360433  0.41027875  1.0
  Sn  Sn1014  1  0.95246033  0.06693767  0.41027875  1.0
  Sn  Sn1015  1  0.95246033  0.40027100  0.41027875  1.0
  Sn  Sn1016  1  0.95246033  0.73360433  0.41027875  1.0
  Sn  Sn1017  1  0.28579367  0.23360433  0.33885018  1.0
  Sn  Sn1018  1  0.28579367  0.56693767  0.33885018  1.0
  Sn  Sn1019  1  0.28579367  0.90027100  0.33885018  1.0
  Sn  Sn1020  1  0.61912700  0.23360433  0.33885018  1.0
  Sn  Sn1021  1  0.61912700  0.56693767  0.33885018  1.0
  Sn  Sn1022  1  0.61912700  0.90027100  0.33885018  1.0
  Sn  Sn1023  1  0.95246033  0.23360433  0.33885018  1.0
  Sn  Sn1024  1  0.95246033  0.56693767  0.33885018  1.0
  Sn  Sn1025  1  0.95246033  0.90027100  0.33885018  1.0
  Sn  Sn1026  1  0.03234900  0.15647100  0.30579304  1.0
  Sn  Sn1027  1  0.03234900  0.48980433  0.30579304  1.0
  Sn  Sn1028  1  0.03234900  0.82313767  0.30579304  1.0
  Sn  Sn1029  1  0.36568233  0.15647100  0.30579304  1.0
  Sn  Sn1030  1  0.36568233  0.48980433  0.30579304  1.0
  Sn  Sn1031  1  0.36568233  0.82313767  0.30579304  1.0
  Sn  Sn1032  1  0.69901567  0.15647100  0.30579304  1.0
  Sn  Sn1033  1  0.69901567  0.48980433  0.30579304  1.0
  Sn  Sn1034  1  0.69901567  0.82313767  0.30579304  1.0
  Sn  Sn1035  1  0.03234900  0.32313767  0.37722161  1.0
  Sn  Sn1036  1  0.03234900  0.65647100  0.37722161  1.0
  Sn  Sn1037  1  0.03234900  0.98980433  0.37722161  1.0
  Sn  Sn1038  1  0.36568233  0.32313767  0.37722161  1.0
  Sn  Sn1039  1  0.36568233  0.65647100  0.37722161  1.0
  Sn  Sn1040  1  0.36568233  0.98980433  0.37722161  1.0
  Sn  Sn1041  1  0.69901567  0.32313767  0.37722161  1.0
  Sn  Sn1042  1  0.69901567  0.65647100  0.37722161  1.0
  Sn  Sn1043  1  0.69901567  0.98980433  0.37722161  1.0
  Sn  Sn1044  1  0.19901567  0.09352900  0.35024646  1.0
  Sn  Sn1045  1  0.19901567  0.42686233  0.35024646  1.0
  Sn  Sn1046  1  0.19901567  0.76019567  0.35024646  1.0
  Sn  Sn1047  1  0.53234900  0.09352900  0.35024646  1.0
  Sn  Sn1048  1  0.53234900  0.42686233  0.35024646  1.0
  Sn  Sn1049  1  0.53234900  0.76019567  0.35024646  1.0
  Sn  Sn1050  1  0.86568233  0.09352900  0.35024646  1.0
  Sn  Sn1051  1  0.86568233  0.42686233  0.35024646  1.0
  Sn  Sn1052  1  0.86568233  0.76019567  0.35024646  1.0
  Sn  Sn1053  1  0.19901567  0.26019567  0.42167504  1.0
  Sn  Sn1054  1  0.19901567  0.59352900  0.42167504  1.0
  Sn  Sn1055  1  0.19901567  0.92686233  0.42167504  1.0
  Sn  Sn1056  1  0.53234900  0.26019567  0.42167504  1.0
  Sn  Sn1057  1  0.53234900  0.59352900  0.42167504  1.0
  Sn  Sn1058  1  0.53234900  0.92686233  0.42167504  1.0
  Sn  Sn1059  1  0.86568233  0.26019567  0.42167504  1.0
  Sn  Sn1060  1  0.86568233  0.59352900  0.42167504  1.0
  Sn  Sn1061  1  0.86568233  0.92686233  0.42167504  1.0
  Sn  Sn1062  1  0.30098433  0.01019567  0.31453218  1.0
  Sn  Sn1063  1  0.30098433  0.34352900  0.31453218  1.0
  Sn  Sn1064  1  0.30098433  0.67686233  0.31453218  1.0
  Sn  Sn1065  1  0.63431767  0.01019567  0.31453218  1.0
  Sn  Sn1066  1  0.63431767  0.34352900  0.31453218  1.0
  Sn  Sn1067  1  0.63431767  0.67686233  0.31453218  1.0
  Sn  Sn1068  1  0.96765100  0.01019567  0.31453218  1.0
  Sn  Sn1069  1  0.96765100  0.34352900  0.31453218  1.0
  Sn  Sn1070  1  0.96765100  0.67686233  0.31453218  1.0
  Sn  Sn1071  1  0.30098433  0.17686233  0.38596075  1.0
  Sn  Sn1072  1  0.30098433  0.51019567  0.38596075  1.0
  Sn  Sn1073  1  0.30098433  0.84352900  0.38596075  1.0
  Sn  Sn1074  1  0.63431767  0.17686233  0.38596075  1.0
  Sn  Sn1075  1  0.63431767  0.51019567  0.38596075  1.0
  Sn  Sn1076  1  0.63431767  0.84352900  0.38596075  1.0
  Sn  Sn1077  1  0.96765100  0.17686233  0.38596075  1.0
  Sn  Sn1078  1  0.96765100  0.51019567  0.38596075  1.0
  Sn  Sn1079  1  0.96765100  0.84352900  0.38596075  1.0
