# generated using pymatgen
data_Ni3Sn2
_symmetry_space_group_name_H-M   'P 1'
_cell_length_a   32.61091254
_cell_length_b   36.17288142
_cell_length_c   33.13889630
_cell_angle_alpha   96.49138481
_cell_angle_beta   92.63726329
_cell_angle_gamma   97.26508525
_symmetry_Int_Tables_number   1
_chemical_formula_structural   Ni3Sn2
_chemical_formula_sum   'Ni648 Sn432'
_cell_volume   38457.01053271
_cell_formula_units_Z   216
loop_
 _symmetry_equiv_pos_site_id
 _symmetry_equiv_pos_as_xyz
  1  'x, y, z'
loop_
 _atom_site_type_symbol
 _atom_site_label
 _atom_site_symmetry_multiplicity
 _atom_site_fract_x
 _atom_site_fract_y
 _atom_site_fract_z
 _atom_site_occupancy
  Ni  Ni0  1  0.04757533  0.25519514  0.00259757  1.0
  Ni  Ni1  1  0.04757533  0.58852848  0.00259757  1.0
  Ni  Ni2  1  0.04757533  0.92186181  0.00259757  1.0
  Ni  Ni3  1  0.38090867  0.25519514  0.00259757  1.0
  Ni  Ni4  1  0.38090867  0.58852848  0.00259757  1.0
  Ni  Ni5  1  0.38090867  0.92186181  0.00259757  1.0
  Ni  Ni6  1  0.71424200  0.25519514  0.00259757  1.0
  Ni  Ni7  1  0.71424200  0.58852848  0.00259757  1.0
  Ni  Ni8  1  0.71424200  0.92186181  0.00259757  1.0
  Ni  Ni9  1  0.21424200  0.06471895  0.07402614  1.0
  Ni  Ni10  1  0.21424200  0.39805229  0.07402614  1.0
  Ni  Ni11  1  0.21424200  0.73138562  0.07402614  1.0
  Ni  Ni12  1  0.54757533  0.06471895  0.07402614  1.0
  Ni  Ni13  1  0.54757533  0.39805229  0.07402614  1.0
  Ni  Ni14  1  0.54757533  0.73138562  0.07402614  1.0
  Ni  Ni15  1  0.88090867  0.06471895  0.07402614  1.0
  Ni  Ni16  1  0.88090867  0.39805229  0.07402614  1.0
  Ni  Ni17  1  0.88090867  0.73138562  0.07402614  1.0
  Ni  Ni18  1  0.28575800  0.03051914  0.14025957  1.0
  Ni  Ni19  1  0.28575800  0.36385248  0.14025957  1.0
  Ni  Ni20  1  0.28575800  0.69718581  0.14025957  1.0
  Ni  Ni21  1  0.61909133  0.03051914  0.14025957  1.0
  Ni  Ni22  1  0.61909133  0.36385248  0.14025957  1.0
  Ni  Ni23  1  0.61909133  0.69718581  0.14025957  1.0
  Ni  Ni24  1  0.95242467  0.03051914  0.14025957  1.0
  Ni  Ni25  1  0.95242467  0.36385248  0.14025957  1.0
  Ni  Ni26  1  0.95242467  0.69718581  0.14025957  1.0
  Ni  Ni27  1  0.11909133  0.22099533  0.06883100  1.0
  Ni  Ni28  1  0.11909133  0.55432867  0.06883100  1.0
  Ni  Ni29  1  0.11909133  0.88766200  0.06883100  1.0
  Ni  Ni30  1  0.45242467  0.22099533  0.06883100  1.0
  Ni  Ni31  1  0.45242467  0.55432867  0.06883100  1.0
  Ni  Ni32  1  0.45242467  0.88766200  0.06883100  1.0
  Ni  Ni33  1  0.78575800  0.22099533  0.06883100  1.0
  Ni  Ni34  1  0.78575800  0.55432867  0.06883100  1.0
  Ni  Ni35  1  0.78575800  0.88766200  0.06883100  1.0
  Ni  Ni36  1  0.26883533  0.09929676  0.13222271  1.0
  Ni  Ni37  1  0.26883533  0.43263010  0.13222271  1.0
  Ni  Ni38  1  0.26883533  0.76596343  0.13222271  1.0
  Ni  Ni39  1  0.60216867  0.09929676  0.13222271  1.0
  Ni  Ni40  1  0.60216867  0.43263010  0.13222271  1.0
  Ni  Ni41  1  0.60216867  0.76596343  0.13222271  1.0
  Ni  Ni42  1  0.93550200  0.09929676  0.13222271  1.0
  Ni  Ni43  1  0.93550200  0.43263010  0.13222271  1.0
  Ni  Ni44  1  0.93550200  0.76596343  0.13222271  1.0
  Ni  Ni45  1  0.10216867  0.28977295  0.06079414  1.0
  Ni  Ni46  1  0.10216867  0.62310629  0.06079414  1.0
  Ni  Ni47  1  0.10216867  0.95643962  0.06079414  1.0
  Ni  Ni48  1  0.43550200  0.28977295  0.06079414  1.0
  Ni  Ni49  1  0.43550200  0.62310629  0.06079414  1.0
  Ni  Ni50  1  0.43550200  0.95643962  0.06079414  1.0
  Ni  Ni51  1  0.76883533  0.28977295  0.06079414  1.0
  Ni  Ni52  1  0.76883533  0.62310629  0.06079414  1.0
  Ni  Ni53  1  0.76883533  0.95643962  0.06079414  1.0
  Ni  Ni54  1  0.06449800  0.16304171  0.08076186  1.0
  Ni  Ni55  1  0.06449800  0.49637505  0.08076186  1.0
  Ni  Ni56  1  0.06449800  0.82970838  0.08076186  1.0
  Ni  Ni57  1  0.39783133  0.16304171  0.08076186  1.0
  Ni  Ni58  1  0.39783133  0.49637505  0.08076186  1.0
  Ni  Ni59  1  0.39783133  0.82970838  0.08076186  1.0
  Ni  Ni60  1  0.73116467  0.16304171  0.08076186  1.0
  Ni  Ni61  1  0.73116467  0.49637505  0.08076186  1.0
  Ni  Ni62  1  0.73116467  0.82970838  0.08076186  1.0
  Ni  Ni63  1  0.23116467  0.02018457  0.00933329  1.0
  Ni  Ni64  1  0.23116467  0.35351790  0.00933329  1.0
  Ni  Ni65  1  0.23116467  0.68685124  0.00933329  1.0
  Ni  Ni66  1  0.56449800  0.02018457  0.00933329  1.0
  Ni  Ni67  1  0.56449800  0.35351790  0.00933329  1.0
  Ni  Ni68  1  0.56449800  0.68685124  0.00933329  1.0
  Ni  Ni69  1  0.89783133  0.02018457  0.00933329  1.0
  Ni  Ni70  1  0.89783133  0.35351790  0.00933329  1.0
  Ni  Ni71  1  0.89783133  0.68685124  0.00933329  1.0
  Ni  Ni72  1  0.02329567  0.03125762  0.09972114  1.0
  Ni  Ni73  1  0.02329567  0.36459095  0.09972114  1.0
  Ni  Ni74  1  0.02329567  0.69792429  0.09972114  1.0
  Ni  Ni75  1  0.35662900  0.03125762  0.09972114  1.0
  Ni  Ni76  1  0.35662900  0.36459095  0.09972114  1.0
  Ni  Ni77  1  0.35662900  0.69792429  0.09972114  1.0
  Ni  Ni78  1  0.68996233  0.03125762  0.09972114  1.0
  Ni  Ni79  1  0.68996233  0.36459095  0.09972114  1.0
  Ni  Ni80  1  0.68996233  0.69792429  0.09972114  1.0
  Ni  Ni81  1  0.18996233  0.22173381  0.02829257  1.0
  Ni  Ni82  1  0.18996233  0.55506714  0.02829257  1.0
  Ni  Ni83  1  0.18996233  0.88840048  0.02829257  1.0
  Ni  Ni84  1  0.52329567  0.22173381  0.02829257  1.0
  Ni  Ni85  1  0.52329567  0.55506714  0.02829257  1.0
  Ni  Ni86  1  0.52329567  0.88840048  0.02829257  1.0
  Ni  Ni87  1  0.85662900  0.22173381  0.02829257  1.0
  Ni  Ni88  1  0.85662900  0.55506714  0.02829257  1.0
  Ni  Ni89  1  0.85662900  0.88840048  0.02829257  1.0
  Ni  Ni90  1  0.02329567  0.05550086  0.02699143  1.0
  Ni  Ni91  1  0.02329567  0.38883419  0.02699143  1.0
  Ni  Ni92  1  0.02329567  0.72216752  0.02699143  1.0
  Ni  Ni93  1  0.35662900  0.05550086  0.02699143  1.0
  Ni  Ni94  1  0.35662900  0.38883419  0.02699143  1.0
  Ni  Ni95  1  0.35662900  0.72216752  0.02699143  1.0
  Ni  Ni96  1  0.68996233  0.05550086  0.02699143  1.0
  Ni  Ni97  1  0.68996233  0.38883419  0.02699143  1.0
  Ni  Ni98  1  0.68996233  0.72216752  0.02699143  1.0
  Ni  Ni99  1  0.18996233  0.19835800  0.09842000  1.0
  Ni  Ni100  1  0.18996233  0.53169133  0.09842000  1.0
  Ni  Ni101  1  0.18996233  0.86502467  0.09842000  1.0
  Ni  Ni102  1  0.52329567  0.19835800  0.09842000  1.0
  Ni  Ni103  1  0.52329567  0.53169133  0.09842000  1.0
  Ni  Ni104  1  0.52329567  0.86502467  0.09842000  1.0
  Ni  Ni105  1  0.85662900  0.19835800  0.09842000  1.0
  Ni  Ni106  1  0.85662900  0.53169133  0.09842000  1.0
  Ni  Ni107  1  0.85662900  0.86502467  0.09842000  1.0
  Ni  Ni108  1  0.06449800  0.18641752  0.01063443  1.0
  Ni  Ni109  1  0.06449800  0.51975086  0.01063443  1.0
  Ni  Ni110  1  0.06449800  0.85308419  0.01063443  1.0
  Ni  Ni111  1  0.39783133  0.18641752  0.01063443  1.0
  Ni  Ni112  1  0.39783133  0.51975086  0.01063443  1.0
  Ni  Ni113  1  0.39783133  0.85308419  0.01063443  1.0
  Ni  Ni114  1  0.73116467  0.18641752  0.01063443  1.0
  Ni  Ni115  1  0.73116467  0.51975086  0.01063443  1.0
  Ni  Ni116  1  0.73116467  0.85308419  0.01063443  1.0
  Ni  Ni117  1  0.23116467  0.32927467  0.08206300  1.0
  Ni  Ni118  1  0.23116467  0.66260800  0.08206300  1.0
  Ni  Ni119  1  0.23116467  0.99594133  0.08206300  1.0
  Ni  Ni120  1  0.56449800  0.32927467  0.08206300  1.0
  Ni  Ni121  1  0.56449800  0.66260800  0.08206300  1.0
  Ni  Ni122  1  0.56449800  0.99594133  0.08206300  1.0
  Ni  Ni123  1  0.89783133  0.32927467  0.08206300  1.0
  Ni  Ni124  1  0.89783133  0.66260800  0.08206300  1.0
  Ni  Ni125  1  0.89783133  0.99594133  0.08206300  1.0
  Ni  Ni126  1  0.26883533  0.12267257  0.06209529  1.0
  Ni  Ni127  1  0.26883533  0.45600590  0.06209529  1.0
  Ni  Ni128  1  0.26883533  0.78933924  0.06209529  1.0
  Ni  Ni129  1  0.60216867  0.12267257  0.06209529  1.0
  Ni  Ni130  1  0.60216867  0.45600590  0.06209529  1.0
  Ni  Ni131  1  0.60216867  0.78933924  0.06209529  1.0
  Ni  Ni132  1  0.93550200  0.12267257  0.06209529  1.0
  Ni  Ni133  1  0.93550200  0.45600590  0.06209529  1.0
  Ni  Ni134  1  0.93550200  0.78933924  0.06209529  1.0
  Ni  Ni135  1  0.10216867  0.26552971  0.13352386  1.0
  Ni  Ni136  1  0.10216867  0.59886305  0.13352386  1.0
  Ni  Ni137  1  0.10216867  0.93219638  0.13352386  1.0
  Ni  Ni138  1  0.43550200  0.26552971  0.13352386  1.0
  Ni  Ni139  1  0.43550200  0.59886305  0.13352386  1.0
  Ni  Ni140  1  0.43550200  0.93219638  0.13352386  1.0
  Ni  Ni141  1  0.76883533  0.26552971  0.13352386  1.0
  Ni  Ni142  1  0.76883533  0.59886305  0.13352386  1.0
  Ni  Ni143  1  0.76883533  0.93219638  0.13352386  1.0
  Ni  Ni144  1  0.31003767  0.25445667  0.04313600  1.0
  Ni  Ni145  1  0.31003767  0.58779000  0.04313600  1.0
  Ni  Ni146  1  0.31003767  0.92112333  0.04313600  1.0
  Ni  Ni147  1  0.64337100  0.25445667  0.04313600  1.0
  Ni  Ni148  1  0.64337100  0.58779000  0.04313600  1.0
  Ni  Ni149  1  0.64337100  0.92112333  0.04313600  1.0
  Ni  Ni150  1  0.97670433  0.25445667  0.04313600  1.0
  Ni  Ni151  1  0.97670433  0.58779000  0.04313600  1.0
  Ni  Ni152  1  0.97670433  0.92112333  0.04313600  1.0
  Ni  Ni153  1  0.14337100  0.06398048  0.11456457  1.0
  Ni  Ni154  1  0.14337100  0.39731381  0.11456457  1.0
  Ni  Ni155  1  0.14337100  0.73064714  0.11456457  1.0
  Ni  Ni156  1  0.47670433  0.06398048  0.11456457  1.0
  Ni  Ni157  1  0.47670433  0.39731381  0.11456457  1.0
  Ni  Ni158  1  0.47670433  0.73064714  0.11456457  1.0
  Ni  Ni159  1  0.81003767  0.06398048  0.11456457  1.0
  Ni  Ni160  1  0.81003767  0.39731381  0.11456457  1.0
  Ni  Ni161  1  0.81003767  0.73064714  0.11456457  1.0
  Ni  Ni162  1  0.25606100  0.17173124  0.12753229  1.0
  Ni  Ni163  1  0.25606100  0.50506457  0.12753229  1.0
  Ni  Ni164  1  0.25606100  0.83839790  0.12753229  1.0
  Ni  Ni165  1  0.58939433  0.17173124  0.12753229  1.0
  Ni  Ni166  1  0.58939433  0.50506457  0.12753229  1.0
  Ni  Ni167  1  0.58939433  0.83839790  0.12753229  1.0
  Ni  Ni168  1  0.92272767  0.17173124  0.12753229  1.0
  Ni  Ni169  1  0.92272767  0.50506457  0.12753229  1.0
  Ni  Ni170  1  0.92272767  0.83839790  0.12753229  1.0
  Ni  Ni171  1  0.08939433  0.02887410  0.05610371  1.0
  Ni  Ni172  1  0.08939433  0.36220743  0.05610371  1.0
  Ni  Ni173  1  0.08939433  0.69554076  0.05610371  1.0
  Ni  Ni174  1  0.42272767  0.02887410  0.05610371  1.0
  Ni  Ni175  1  0.42272767  0.36220743  0.05610371  1.0
  Ni  Ni176  1  0.42272767  0.69554076  0.05610371  1.0
  Ni  Ni177  1  0.75606100  0.02887410  0.05610371  1.0
  Ni  Ni178  1  0.75606100  0.36220743  0.05610371  1.0
  Ni  Ni179  1  0.75606100  0.69554076  0.05610371  1.0
  Ni  Ni180  1  0.31003767  0.23021343  0.11586571  1.0
  Ni  Ni181  1  0.31003767  0.56354676  0.11586571  1.0
  Ni  Ni182  1  0.31003767  0.89688010  0.11586571  1.0
  Ni  Ni183  1  0.64337100  0.23021343  0.11586571  1.0
  Ni  Ni184  1  0.64337100  0.56354676  0.11586571  1.0
  Ni  Ni185  1  0.64337100  0.89688010  0.11586571  1.0
  Ni  Ni186  1  0.97670433  0.23021343  0.11586571  1.0
  Ni  Ni187  1  0.97670433  0.56354676  0.11586571  1.0
  Ni  Ni188  1  0.97670433  0.89688010  0.11586571  1.0
  Ni  Ni189  1  0.14337100  0.08735629  0.04443714  1.0
  Ni  Ni190  1  0.14337100  0.42068962  0.04443714  1.0
  Ni  Ni191  1  0.14337100  0.75402295  0.04443714  1.0
  Ni  Ni192  1  0.47670433  0.08735629  0.04443714  1.0
  Ni  Ni193  1  0.47670433  0.42068962  0.04443714  1.0
  Ni  Ni194  1  0.47670433  0.75402295  0.04443714  1.0
  Ni  Ni195  1  0.81003767  0.08735629  0.04443714  1.0
  Ni  Ni196  1  0.81003767  0.42068962  0.04443714  1.0
  Ni  Ni197  1  0.81003767  0.75402295  0.04443714  1.0
  Ni  Ni198  1  0.07727233  0.11398305  0.01532486  1.0
  Ni  Ni199  1  0.07727233  0.44731638  0.01532486  1.0
  Ni  Ni200  1  0.07727233  0.78064971  0.01532486  1.0
  Ni  Ni201  1  0.41060567  0.11398305  0.01532486  1.0
  Ni  Ni202  1  0.41060567  0.44731638  0.01532486  1.0
  Ni  Ni203  1  0.41060567  0.78064971  0.01532486  1.0
  Ni  Ni204  1  0.74393900  0.11398305  0.01532486  1.0
  Ni  Ni205  1  0.74393900  0.44731638  0.01532486  1.0
  Ni  Ni206  1  0.74393900  0.78064971  0.01532486  1.0
  Ni  Ni207  1  0.24393900  0.25684019  0.08675343  1.0
  Ni  Ni208  1  0.24393900  0.59017352  0.08675343  1.0
  Ni  Ni209  1  0.24393900  0.92350686  0.08675343  1.0
  Ni  Ni210  1  0.57727233  0.25684019  0.08675343  1.0
  Ni  Ni211  1  0.57727233  0.59017352  0.08675343  1.0
  Ni  Ni212  1  0.57727233  0.92350686  0.08675343  1.0
  Ni  Ni213  1  0.91060567  0.25684019  0.08675343  1.0
  Ni  Ni214  1  0.91060567  0.59017352  0.08675343  1.0
  Ni  Ni215  1  0.91060567  0.92350686  0.08675343  1.0
  Ni  Ni216  1  0.04757533  0.20757610  0.14545471  1.0
  Ni  Ni217  1  0.04757533  0.54090943  0.14545471  1.0
  Ni  Ni218  1  0.04757533  0.87424276  0.14545471  1.0
  Ni  Ni219  1  0.38090867  0.20757610  0.14545471  1.0
  Ni  Ni220  1  0.38090867  0.54090943  0.14545471  1.0
  Ni  Ni221  1  0.38090867  0.87424276  0.14545471  1.0
  Ni  Ni222  1  0.71424200  0.20757610  0.14545471  1.0
  Ni  Ni223  1  0.71424200  0.54090943  0.14545471  1.0
  Ni  Ni224  1  0.71424200  0.87424276  0.14545471  1.0
  Ni  Ni225  1  0.21424200  0.01709990  0.21688329  1.0
  Ni  Ni226  1  0.21424200  0.35043324  0.21688329  1.0
  Ni  Ni227  1  0.21424200  0.68376657  0.21688329  1.0
  Ni  Ni228  1  0.54757533  0.01709990  0.21688329  1.0
  Ni  Ni229  1  0.54757533  0.35043324  0.21688329  1.0
  Ni  Ni230  1  0.54757533  0.68376657  0.21688329  1.0
  Ni  Ni231  1  0.88090867  0.01709990  0.21688329  1.0
  Ni  Ni232  1  0.88090867  0.35043324  0.21688329  1.0
  Ni  Ni233  1  0.88090867  0.68376657  0.21688329  1.0
  Ni  Ni234  1  0.28575800  0.31623343  0.28311671  1.0
  Ni  Ni235  1  0.28575800  0.64956676  0.28311671  1.0
  Ni  Ni236  1  0.28575800  0.98290010  0.28311671  1.0
  Ni  Ni237  1  0.61909133  0.31623343  0.28311671  1.0
  Ni  Ni238  1  0.61909133  0.64956676  0.28311671  1.0
  Ni  Ni239  1  0.61909133  0.98290010  0.28311671  1.0
  Ni  Ni240  1  0.95242467  0.31623343  0.28311671  1.0
  Ni  Ni241  1  0.95242467  0.64956676  0.28311671  1.0
  Ni  Ni242  1  0.95242467  0.98290010  0.28311671  1.0
  Ni  Ni243  1  0.11909133  0.17337629  0.21168814  1.0
  Ni  Ni244  1  0.11909133  0.50670962  0.21168814  1.0
  Ni  Ni245  1  0.11909133  0.84004295  0.21168814  1.0
  Ni  Ni246  1  0.45242467  0.17337629  0.21168814  1.0
  Ni  Ni247  1  0.45242467  0.50670962  0.21168814  1.0
  Ni  Ni248  1  0.45242467  0.84004295  0.21168814  1.0
  Ni  Ni249  1  0.78575800  0.17337629  0.21168814  1.0
  Ni  Ni250  1  0.78575800  0.50670962  0.21168814  1.0
  Ni  Ni251  1  0.78575800  0.84004295  0.21168814  1.0
  Ni  Ni252  1  0.26883533  0.05167771  0.27507986  1.0
  Ni  Ni253  1  0.26883533  0.38501105  0.27507986  1.0
  Ni  Ni254  1  0.26883533  0.71834438  0.27507986  1.0
  Ni  Ni255  1  0.60216867  0.05167771  0.27507986  1.0
  Ni  Ni256  1  0.60216867  0.38501105  0.27507986  1.0
  Ni  Ni257  1  0.60216867  0.71834438  0.27507986  1.0
  Ni  Ni258  1  0.93550200  0.05167771  0.27507986  1.0
  Ni  Ni259  1  0.93550200  0.38501105  0.27507986  1.0
  Ni  Ni260  1  0.93550200  0.71834438  0.27507986  1.0
  Ni  Ni261  1  0.10216867  0.24215390  0.20365129  1.0
  Ni  Ni262  1  0.10216867  0.57548724  0.20365129  1.0
  Ni  Ni263  1  0.10216867  0.90882057  0.20365129  1.0
  Ni  Ni264  1  0.43550200  0.24215390  0.20365129  1.0
  Ni  Ni265  1  0.43550200  0.57548724  0.20365129  1.0
  Ni  Ni266  1  0.43550200  0.90882057  0.20365129  1.0
  Ni  Ni267  1  0.76883533  0.24215390  0.20365129  1.0
  Ni  Ni268  1  0.76883533  0.57548724  0.20365129  1.0
  Ni  Ni269  1  0.76883533  0.90882057  0.20365129  1.0
  Ni  Ni270  1  0.06449800  0.11542267  0.22361900  1.0
  Ni  Ni271  1  0.06449800  0.44875600  0.22361900  1.0
  Ni  Ni272  1  0.06449800  0.78208933  0.22361900  1.0
  Ni  Ni273  1  0.39783133  0.11542267  0.22361900  1.0
  Ni  Ni274  1  0.39783133  0.44875600  0.22361900  1.0
  Ni  Ni275  1  0.39783133  0.78208933  0.22361900  1.0
  Ni  Ni276  1  0.73116467  0.11542267  0.22361900  1.0
  Ni  Ni277  1  0.73116467  0.44875600  0.22361900  1.0
  Ni  Ni278  1  0.73116467  0.78208933  0.22361900  1.0
  Ni  Ni279  1  0.23116467  0.30589886  0.15219043  1.0
  Ni  Ni280  1  0.23116467  0.63923219  0.15219043  1.0
  Ni  Ni281  1  0.23116467  0.97256552  0.15219043  1.0
  Ni  Ni282  1  0.56449800  0.30589886  0.15219043  1.0
  Ni  Ni283  1  0.56449800  0.63923219  0.15219043  1.0
  Ni  Ni284  1  0.56449800  0.97256552  0.15219043  1.0
  Ni  Ni285  1  0.89783133  0.30589886  0.15219043  1.0
  Ni  Ni286  1  0.89783133  0.63923219  0.15219043  1.0
  Ni  Ni287  1  0.89783133  0.97256552  0.15219043  1.0
  Ni  Ni288  1  0.02329567  0.31697190  0.24257829  1.0
  Ni  Ni289  1  0.02329567  0.65030524  0.24257829  1.0
  Ni  Ni290  1  0.02329567  0.98363857  0.24257829  1.0
  Ni  Ni291  1  0.35662900  0.31697190  0.24257829  1.0
  Ni  Ni292  1  0.35662900  0.65030524  0.24257829  1.0
  Ni  Ni293  1  0.35662900  0.98363857  0.24257829  1.0
  Ni  Ni294  1  0.68996233  0.31697190  0.24257829  1.0
  Ni  Ni295  1  0.68996233  0.65030524  0.24257829  1.0
  Ni  Ni296  1  0.68996233  0.98363857  0.24257829  1.0
  Ni  Ni297  1  0.18996233  0.17411476  0.17114971  1.0
  Ni  Ni298  1  0.18996233  0.50744810  0.17114971  1.0
  Ni  Ni299  1  0.18996233  0.84078143  0.17114971  1.0
  Ni  Ni300  1  0.52329567  0.17411476  0.17114971  1.0
  Ni  Ni301  1  0.52329567  0.50744810  0.17114971  1.0
  Ni  Ni302  1  0.52329567  0.84078143  0.17114971  1.0
  Ni  Ni303  1  0.85662900  0.17411476  0.17114971  1.0
  Ni  Ni304  1  0.85662900  0.50744810  0.17114971  1.0
  Ni  Ni305  1  0.85662900  0.84078143  0.17114971  1.0
  Ni  Ni306  1  0.02329567  0.00788181  0.16984857  1.0
  Ni  Ni307  1  0.02329567  0.34121514  0.16984857  1.0
  Ni  Ni308  1  0.02329567  0.67454848  0.16984857  1.0
  Ni  Ni309  1  0.35662900  0.00788181  0.16984857  1.0
  Ni  Ni310  1  0.35662900  0.34121514  0.16984857  1.0
  Ni  Ni311  1  0.35662900  0.67454848  0.16984857  1.0
  Ni  Ni312  1  0.68996233  0.00788181  0.16984857  1.0
  Ni  Ni313  1  0.68996233  0.34121514  0.16984857  1.0
  Ni  Ni314  1  0.68996233  0.67454848  0.16984857  1.0
  Ni  Ni315  1  0.18996233  0.15073895  0.24127714  1.0
  Ni  Ni316  1  0.18996233  0.48407229  0.24127714  1.0
  Ni  Ni317  1  0.18996233  0.81740562  0.24127714  1.0
  Ni  Ni318  1  0.52329567  0.15073895  0.24127714  1.0
  Ni  Ni319  1  0.52329567  0.48407229  0.24127714  1.0
  Ni  Ni320  1  0.52329567  0.81740562  0.24127714  1.0
  Ni  Ni321  1  0.85662900  0.15073895  0.24127714  1.0
  Ni  Ni322  1  0.85662900  0.48407229  0.24127714  1.0
  Ni  Ni323  1  0.85662900  0.81740562  0.24127714  1.0
  Ni  Ni324  1  0.06449800  0.13879848  0.15349157  1.0
  Ni  Ni325  1  0.06449800  0.47213181  0.15349157  1.0
  Ni  Ni326  1  0.06449800  0.80546514  0.15349157  1.0
  Ni  Ni327  1  0.39783133  0.13879848  0.15349157  1.0
  Ni  Ni328  1  0.39783133  0.47213181  0.15349157  1.0
  Ni  Ni329  1  0.39783133  0.80546514  0.15349157  1.0
  Ni  Ni330  1  0.73116467  0.13879848  0.15349157  1.0
  Ni  Ni331  1  0.73116467  0.47213181  0.15349157  1.0
  Ni  Ni332  1  0.73116467  0.80546514  0.15349157  1.0
  Ni  Ni333  1  0.23116467  0.28165562  0.22492014  1.0
  Ni  Ni334  1  0.23116467  0.61498895  0.22492014  1.0
  Ni  Ni335  1  0.23116467  0.94832229  0.22492014  1.0
  Ni  Ni336  1  0.56449800  0.28165562  0.22492014  1.0
  Ni  Ni337  1  0.56449800  0.61498895  0.22492014  1.0
  Ni  Ni338  1  0.56449800  0.94832229  0.22492014  1.0
  Ni  Ni339  1  0.89783133  0.28165562  0.22492014  1.0
  Ni  Ni340  1  0.89783133  0.61498895  0.22492014  1.0
  Ni  Ni341  1  0.89783133  0.94832229  0.22492014  1.0
  Ni  Ni342  1  0.26883533  0.07505352  0.20495243  1.0
  Ni  Ni343  1  0.26883533  0.40838686  0.20495243  1.0
  Ni  Ni344  1  0.26883533  0.74172019  0.20495243  1.0
  Ni  Ni345  1  0.60216867  0.07505352  0.20495243  1.0
  Ni  Ni346  1  0.60216867  0.40838686  0.20495243  1.0
  Ni  Ni347  1  0.60216867  0.74172019  0.20495243  1.0
  Ni  Ni348  1  0.93550200  0.07505352  0.20495243  1.0
  Ni  Ni349  1  0.93550200  0.40838686  0.20495243  1.0
  Ni  Ni350  1  0.93550200  0.74172019  0.20495243  1.0
  Ni  Ni351  1  0.10216867  0.21791067  0.27638100  1.0
  Ni  Ni352  1  0.10216867  0.55124400  0.27638100  1.0
  Ni  Ni353  1  0.10216867  0.88457733  0.27638100  1.0
  Ni  Ni354  1  0.43550200  0.21791067  0.27638100  1.0
  Ni  Ni355  1  0.43550200  0.55124400  0.27638100  1.0
  Ni  Ni356  1  0.43550200  0.88457733  0.27638100  1.0
  Ni  Ni357  1  0.76883533  0.21791067  0.27638100  1.0
  Ni  Ni358  1  0.76883533  0.55124400  0.27638100  1.0
  Ni  Ni359  1  0.76883533  0.88457733  0.27638100  1.0
  Ni  Ni360  1  0.31003767  0.20683762  0.18599314  1.0
  Ni  Ni361  1  0.31003767  0.54017095  0.18599314  1.0
  Ni  Ni362  1  0.31003767  0.87350429  0.18599314  1.0
  Ni  Ni363  1  0.64337100  0.20683762  0.18599314  1.0
  Ni  Ni364  1  0.64337100  0.54017095  0.18599314  1.0
  Ni  Ni365  1  0.64337100  0.87350429  0.18599314  1.0
  Ni  Ni366  1  0.97670433  0.20683762  0.18599314  1.0
  Ni  Ni367  1  0.97670433  0.54017095  0.18599314  1.0
  Ni  Ni368  1  0.97670433  0.87350429  0.18599314  1.0
  Ni  Ni369  1  0.14337100  0.01636143  0.25742171  1.0
  Ni  Ni370  1  0.14337100  0.34969476  0.25742171  1.0
  Ni  Ni371  1  0.14337100  0.68302810  0.25742171  1.0
  Ni  Ni372  1  0.47670433  0.01636143  0.25742171  1.0
  Ni  Ni373  1  0.47670433  0.34969476  0.25742171  1.0
  Ni  Ni374  1  0.47670433  0.68302810  0.25742171  1.0
  Ni  Ni375  1  0.81003767  0.01636143  0.25742171  1.0
  Ni  Ni376  1  0.81003767  0.34969476  0.25742171  1.0
  Ni  Ni377  1  0.81003767  0.68302810  0.25742171  1.0
  Ni  Ni378  1  0.25606100  0.12411219  0.27038943  1.0
  Ni  Ni379  1  0.25606100  0.45744552  0.27038943  1.0
  Ni  Ni380  1  0.25606100  0.79077886  0.27038943  1.0
  Ni  Ni381  1  0.58939433  0.12411219  0.27038943  1.0
  Ni  Ni382  1  0.58939433  0.45744552  0.27038943  1.0
  Ni  Ni383  1  0.58939433  0.79077886  0.27038943  1.0
  Ni  Ni384  1  0.92272767  0.12411219  0.27038943  1.0
  Ni  Ni385  1  0.92272767  0.45744552  0.27038943  1.0
  Ni  Ni386  1  0.92272767  0.79077886  0.27038943  1.0
  Ni  Ni387  1  0.08939433  0.31458838  0.19896086  1.0
  Ni  Ni388  1  0.08939433  0.64792171  0.19896086  1.0
  Ni  Ni389  1  0.08939433  0.98125505  0.19896086  1.0
  Ni  Ni390  1  0.42272767  0.31458838  0.19896086  1.0
  Ni  Ni391  1  0.42272767  0.64792171  0.19896086  1.0
  Ni  Ni392  1  0.42272767  0.98125505  0.19896086  1.0
  Ni  Ni393  1  0.75606100  0.31458838  0.19896086  1.0
  Ni  Ni394  1  0.75606100  0.64792171  0.19896086  1.0
  Ni  Ni395  1  0.75606100  0.98125505  0.19896086  1.0
  Ni  Ni396  1  0.31003767  0.18259438  0.25872286  1.0
  Ni  Ni397  1  0.31003767  0.51592771  0.25872286  1.0
  Ni  Ni398  1  0.31003767  0.84926105  0.25872286  1.0
  Ni  Ni399  1  0.64337100  0.18259438  0.25872286  1.0
  Ni  Ni400  1  0.64337100  0.51592771  0.25872286  1.0
  Ni  Ni401  1  0.64337100  0.84926105  0.25872286  1.0
  Ni  Ni402  1  0.97670433  0.18259438  0.25872286  1.0
  Ni  Ni403  1  0.97670433  0.51592771  0.25872286  1.0
  Ni  Ni404  1  0.97670433  0.84926105  0.25872286  1.0
  Ni  Ni405  1  0.14337100  0.03973724  0.18729429  1.0
  Ni  Ni406  1  0.14337100  0.37307057  0.18729429  1.0
  Ni  Ni407  1  0.14337100  0.70640390  0.18729429  1.0
  Ni  Ni408  1  0.47670433  0.03973724  0.18729429  1.0
  Ni  Ni409  1  0.47670433  0.37307057  0.18729429  1.0
  Ni  Ni410  1  0.47670433  0.70640390  0.18729429  1.0
  Ni  Ni411  1  0.81003767  0.03973724  0.18729429  1.0
  Ni  Ni412  1  0.81003767  0.37307057  0.18729429  1.0
  Ni  Ni413  1  0.81003767  0.70640390  0.18729429  1.0
  Ni  Ni414  1  0.07727233  0.06636400  0.15818200  1.0
  Ni  Ni415  1  0.07727233  0.39969733  0.15818200  1.0
  Ni  Ni416  1  0.07727233  0.73303067  0.15818200  1.0
  Ni  Ni417  1  0.41060567  0.06636400  0.15818200  1.0
  Ni  Ni418  1  0.41060567  0.39969733  0.15818200  1.0
  Ni  Ni419  1  0.41060567  0.73303067  0.15818200  1.0
  Ni  Ni420  1  0.74393900  0.06636400  0.15818200  1.0
  Ni  Ni421  1  0.74393900  0.39969733  0.15818200  1.0
  Ni  Ni422  1  0.74393900  0.73303067  0.15818200  1.0
  Ni  Ni423  1  0.24393900  0.20922114  0.22961057  1.0
  Ni  Ni424  1  0.24393900  0.54255448  0.22961057  1.0
  Ni  Ni425  1  0.24393900  0.87588781  0.22961057  1.0
  Ni  Ni426  1  0.57727233  0.20922114  0.22961057  1.0
  Ni  Ni427  1  0.57727233  0.54255448  0.22961057  1.0
  Ni  Ni428  1  0.57727233  0.87588781  0.22961057  1.0
  Ni  Ni429  1  0.91060567  0.20922114  0.22961057  1.0
  Ni  Ni430  1  0.91060567  0.54255448  0.22961057  1.0
  Ni  Ni431  1  0.91060567  0.87588781  0.22961057  1.0
  Ni  Ni432  1  0.04757533  0.15995705  0.28831186  1.0
  Ni  Ni433  1  0.04757533  0.49329038  0.28831186  1.0
  Ni  Ni434  1  0.04757533  0.82662371  0.28831186  1.0
  Ni  Ni435  1  0.38090867  0.15995705  0.28831186  1.0
  Ni  Ni436  1  0.38090867  0.49329038  0.28831186  1.0
  Ni  Ni437  1  0.38090867  0.82662371  0.28831186  1.0
  Ni  Ni438  1  0.71424200  0.15995705  0.28831186  1.0
  Ni  Ni439  1  0.71424200  0.49329038  0.28831186  1.0
  Ni  Ni440  1  0.71424200  0.82662371  0.28831186  1.0
  Ni  Ni441  1  0.21424200  0.30281419  0.35974043  1.0
  Ni  Ni442  1  0.21424200  0.63614752  0.35974043  1.0
  Ni  Ni443  1  0.21424200  0.96948086  0.35974043  1.0
  Ni  Ni444  1  0.54757533  0.30281419  0.35974043  1.0
  Ni  Ni445  1  0.54757533  0.63614752  0.35974043  1.0
  Ni  Ni446  1  0.54757533  0.96948086  0.35974043  1.0
  Ni  Ni447  1  0.88090867  0.30281419  0.35974043  1.0
  Ni  Ni448  1  0.88090867  0.63614752  0.35974043  1.0
  Ni  Ni449  1  0.88090867  0.96948086  0.35974043  1.0
  Ni  Ni450  1  0.28575800  0.26861438  0.42597386  1.0
  Ni  Ni451  1  0.28575800  0.60194771  0.42597386  1.0
  Ni  Ni452  1  0.28575800  0.93528105  0.42597386  1.0
  Ni  Ni453  1  0.61909133  0.26861438  0.42597386  1.0
  Ni  Ni454  1  0.61909133  0.60194771  0.42597386  1.0
  Ni  Ni455  1  0.61909133  0.93528105  0.42597386  1.0
  Ni  Ni456  1  0.95242467  0.26861438  0.42597386  1.0
  Ni  Ni457  1  0.95242467  0.60194771  0.42597386  1.0
  Ni  Ni458  1  0.95242467  0.93528105  0.42597386  1.0
  Ni  Ni459  1  0.11909133  0.12575724  0.35454529  1.0
  Ni  Ni460  1  0.11909133  0.45909057  0.35454529  1.0
  Ni  Ni461  1  0.11909133  0.79242390  0.35454529  1.0
  Ni  Ni462  1  0.45242467  0.12575724  0.35454529  1.0
  Ni  Ni463  1  0.45242467  0.45909057  0.35454529  1.0
  Ni  Ni464  1  0.45242467  0.79242390  0.35454529  1.0
  Ni  Ni465  1  0.78575800  0.12575724  0.35454529  1.0
  Ni  Ni466  1  0.78575800  0.45909057  0.35454529  1.0
  Ni  Ni467  1  0.78575800  0.79242390  0.35454529  1.0
  Ni  Ni468  1  0.26883533  0.00405867  0.41793700  1.0
  Ni  Ni469  1  0.26883533  0.33739200  0.41793700  1.0
  Ni  Ni470  1  0.26883533  0.67072533  0.41793700  1.0
  Ni  Ni471  1  0.60216867  0.00405867  0.41793700  1.0
  Ni  Ni472  1  0.60216867  0.33739200  0.41793700  1.0
  Ni  Ni473  1  0.60216867  0.67072533  0.41793700  1.0
  Ni  Ni474  1  0.93550200  0.00405867  0.41793700  1.0
  Ni  Ni475  1  0.93550200  0.33739200  0.41793700  1.0
  Ni  Ni476  1  0.93550200  0.67072533  0.41793700  1.0
  Ni  Ni477  1  0.10216867  0.19453486  0.34650843  1.0
  Ni  Ni478  1  0.10216867  0.52786819  0.34650843  1.0
  Ni  Ni479  1  0.10216867  0.86120152  0.34650843  1.0
  Ni  Ni480  1  0.43550200  0.19453486  0.34650843  1.0
  Ni  Ni481  1  0.43550200  0.52786819  0.34650843  1.0
  Ni  Ni482  1  0.43550200  0.86120152  0.34650843  1.0
  Ni  Ni483  1  0.76883533  0.19453486  0.34650843  1.0
  Ni  Ni484  1  0.76883533  0.52786819  0.34650843  1.0
  Ni  Ni485  1  0.76883533  0.86120152  0.34650843  1.0
  Ni  Ni486  1  0.06449800  0.06780362  0.36647614  1.0
  Ni  Ni487  1  0.06449800  0.40113695  0.36647614  1.0
  Ni  Ni488  1  0.06449800  0.73447029  0.36647614  1.0
  Ni  Ni489  1  0.39783133  0.06780362  0.36647614  1.0
  Ni  Ni490  1  0.39783133  0.40113695  0.36647614  1.0
  Ni  Ni491  1  0.39783133  0.73447029  0.36647614  1.0
  Ni  Ni492  1  0.73116467  0.06780362  0.36647614  1.0
  Ni  Ni493  1  0.73116467  0.40113695  0.36647614  1.0
  Ni  Ni494  1  0.73116467  0.73447029  0.36647614  1.0
  Ni  Ni495  1  0.23116467  0.25827981  0.29504757  1.0
  Ni  Ni496  1  0.23116467  0.59161314  0.29504757  1.0
  Ni  Ni497  1  0.23116467  0.92494648  0.29504757  1.0
  Ni  Ni498  1  0.56449800  0.25827981  0.29504757  1.0
  Ni  Ni499  1  0.56449800  0.59161314  0.29504757  1.0
  Ni  Ni500  1  0.56449800  0.92494648  0.29504757  1.0
  Ni  Ni501  1  0.89783133  0.25827981  0.29504757  1.0
  Ni  Ni502  1  0.89783133  0.59161314  0.29504757  1.0
  Ni  Ni503  1  0.89783133  0.92494648  0.29504757  1.0
  Ni  Ni504  1  0.02329567  0.26935286  0.38543543  1.0
  Ni  Ni505  1  0.02329567  0.60268619  0.38543543  1.0
  Ni  Ni506  1  0.02329567  0.93601952  0.38543543  1.0
  Ni  Ni507  1  0.35662900  0.26935286  0.38543543  1.0
  Ni  Ni508  1  0.35662900  0.60268619  0.38543543  1.0
  Ni  Ni509  1  0.35662900  0.93601952  0.38543543  1.0
  Ni  Ni510  1  0.68996233  0.26935286  0.38543543  1.0
  Ni  Ni511  1  0.68996233  0.60268619  0.38543543  1.0
  Ni  Ni512  1  0.68996233  0.93601952  0.38543543  1.0
  Ni  Ni513  1  0.18996233  0.12649571  0.31400686  1.0
  Ni  Ni514  1  0.18996233  0.45982905  0.31400686  1.0
  Ni  Ni515  1  0.18996233  0.79316238  0.31400686  1.0
  Ni  Ni516  1  0.52329567  0.12649571  0.31400686  1.0
  Ni  Ni517  1  0.52329567  0.45982905  0.31400686  1.0
  Ni  Ni518  1  0.52329567  0.79316238  0.31400686  1.0
  Ni  Ni519  1  0.85662900  0.12649571  0.31400686  1.0
  Ni  Ni520  1  0.85662900  0.45982905  0.31400686  1.0
  Ni  Ni521  1  0.85662900  0.79316238  0.31400686  1.0
  Ni  Ni522  1  0.02329567  0.29359610  0.31270571  1.0
  Ni  Ni523  1  0.02329567  0.62692943  0.31270571  1.0
  Ni  Ni524  1  0.02329567  0.96026276  0.31270571  1.0
  Ni  Ni525  1  0.35662900  0.29359610  0.31270571  1.0
  Ni  Ni526  1  0.35662900  0.62692943  0.31270571  1.0
  Ni  Ni527  1  0.35662900  0.96026276  0.31270571  1.0
  Ni  Ni528  1  0.68996233  0.29359610  0.31270571  1.0
  Ni  Ni529  1  0.68996233  0.62692943  0.31270571  1.0
  Ni  Ni530  1  0.68996233  0.96026276  0.31270571  1.0
  Ni  Ni531  1  0.18996233  0.10311990  0.38413429  1.0
  Ni  Ni532  1  0.18996233  0.43645324  0.38413429  1.0
  Ni  Ni533  1  0.18996233  0.76978657  0.38413429  1.0
  Ni  Ni534  1  0.52329567  0.10311990  0.38413429  1.0
  Ni  Ni535  1  0.52329567  0.43645324  0.38413429  1.0
  Ni  Ni536  1  0.52329567  0.76978657  0.38413429  1.0
  Ni  Ni537  1  0.85662900  0.10311990  0.38413429  1.0
  Ni  Ni538  1  0.85662900  0.43645324  0.38413429  1.0
  Ni  Ni539  1  0.85662900  0.76978657  0.38413429  1.0
  Ni  Ni540  1  0.06449800  0.09117943  0.29634871  1.0
  Ni  Ni541  1  0.06449800  0.42451276  0.29634871  1.0
  Ni  Ni542  1  0.06449800  0.75784610  0.29634871  1.0
  Ni  Ni543  1  0.39783133  0.09117943  0.29634871  1.0
  Ni  Ni544  1  0.39783133  0.42451276  0.29634871  1.0
  Ni  Ni545  1  0.39783133  0.75784610  0.29634871  1.0
  Ni  Ni546  1  0.73116467  0.09117943  0.29634871  1.0
  Ni  Ni547  1  0.73116467  0.42451276  0.29634871  1.0
  Ni  Ni548  1  0.73116467  0.75784610  0.29634871  1.0
  Ni  Ni549  1  0.23116467  0.23403657  0.36777729  1.0
  Ni  Ni550  1  0.23116467  0.56736990  0.36777729  1.0
  Ni  Ni551  1  0.23116467  0.90070324  0.36777729  1.0
  Ni  Ni552  1  0.56449800  0.23403657  0.36777729  1.0
  Ni  Ni553  1  0.56449800  0.56736990  0.36777729  1.0
  Ni  Ni554  1  0.56449800  0.90070324  0.36777729  1.0
  Ni  Ni555  1  0.89783133  0.23403657  0.36777729  1.0
  Ni  Ni556  1  0.89783133  0.56736990  0.36777729  1.0
  Ni  Ni557  1  0.89783133  0.90070324  0.36777729  1.0
  Ni  Ni558  1  0.26883533  0.02743448  0.34780957  1.0
  Ni  Ni559  1  0.26883533  0.36076781  0.34780957  1.0
  Ni  Ni560  1  0.26883533  0.69410114  0.34780957  1.0
  Ni  Ni561  1  0.60216867  0.02743448  0.34780957  1.0
  Ni  Ni562  1  0.60216867  0.36076781  0.34780957  1.0
  Ni  Ni563  1  0.60216867  0.69410114  0.34780957  1.0
  Ni  Ni564  1  0.93550200  0.02743448  0.34780957  1.0
  Ni  Ni565  1  0.93550200  0.36076781  0.34780957  1.0
  Ni  Ni566  1  0.93550200  0.69410114  0.34780957  1.0
  Ni  Ni567  1  0.10216867  0.17029162  0.41923814  1.0
  Ni  Ni568  1  0.10216867  0.50362495  0.41923814  1.0
  Ni  Ni569  1  0.10216867  0.83695829  0.41923814  1.0
  Ni  Ni570  1  0.43550200  0.17029162  0.41923814  1.0
  Ni  Ni571  1  0.43550200  0.50362495  0.41923814  1.0
  Ni  Ni572  1  0.43550200  0.83695829  0.41923814  1.0
  Ni  Ni573  1  0.76883533  0.17029162  0.41923814  1.0
  Ni  Ni574  1  0.76883533  0.50362495  0.41923814  1.0
  Ni  Ni575  1  0.76883533  0.83695829  0.41923814  1.0
  Ni  Ni576  1  0.31003767  0.15921857  0.32885029  1.0
  Ni  Ni577  1  0.31003767  0.49255190  0.32885029  1.0
  Ni  Ni578  1  0.31003767  0.82588524  0.32885029  1.0
  Ni  Ni579  1  0.64337100  0.15921857  0.32885029  1.0
  Ni  Ni580  1  0.64337100  0.49255190  0.32885029  1.0
  Ni  Ni581  1  0.64337100  0.82588524  0.32885029  1.0
  Ni  Ni582  1  0.97670433  0.15921857  0.32885029  1.0
  Ni  Ni583  1  0.97670433  0.49255190  0.32885029  1.0
  Ni  Ni584  1  0.97670433  0.82588524  0.32885029  1.0
  Ni  Ni585  1  0.14337100  0.30207571  0.40027886  1.0
  Ni  Ni586  1  0.14337100  0.63540905  0.40027886  1.0
  Ni  Ni587  1  0.14337100  0.96874238  0.40027886  1.0
  Ni  Ni588  1  0.47670433  0.30207571  0.40027886  1.0
  Ni  Ni589  1  0.47670433  0.63540905  0.40027886  1.0
  Ni  Ni590  1  0.47670433  0.96874238  0.40027886  1.0
  Ni  Ni591  1  0.81003767  0.30207571  0.40027886  1.0
  Ni  Ni592  1  0.81003767  0.63540905  0.40027886  1.0
  Ni  Ni593  1  0.81003767  0.96874238  0.40027886  1.0
  Ni  Ni594  1  0.25606100  0.07649314  0.41324657  1.0
  Ni  Ni595  1  0.25606100  0.40982648  0.41324657  1.0
  Ni  Ni596  1  0.25606100  0.74315981  0.41324657  1.0
  Ni  Ni597  1  0.58939433  0.07649314  0.41324657  1.0
  Ni  Ni598  1  0.58939433  0.40982648  0.41324657  1.0
  Ni  Ni599  1  0.58939433  0.74315981  0.41324657  1.0
  Ni  Ni600  1  0.92272767  0.07649314  0.41324657  1.0
  Ni  Ni601  1  0.92272767  0.40982648  0.41324657  1.0
  Ni  Ni602  1  0.92272767  0.74315981  0.41324657  1.0
  Ni  Ni603  1  0.08939433  0.26696933  0.34181800  1.0
  Ni  Ni604  1  0.08939433  0.60030267  0.34181800  1.0
  Ni  Ni605  1  0.08939433  0.93363600  0.34181800  1.0
  Ni  Ni606  1  0.42272767  0.26696933  0.34181800  1.0
  Ni  Ni607  1  0.42272767  0.60030267  0.34181800  1.0
  Ni  Ni608  1  0.42272767  0.93363600  0.34181800  1.0
  Ni  Ni609  1  0.75606100  0.26696933  0.34181800  1.0
  Ni  Ni610  1  0.75606100  0.60030267  0.34181800  1.0
  Ni  Ni611  1  0.75606100  0.93363600  0.34181800  1.0
  Ni  Ni612  1  0.31003767  0.13497533  0.40158000  1.0
  Ni  Ni613  1  0.31003767  0.46830867  0.40158000  1.0
  Ni  Ni614  1  0.31003767  0.80164200  0.40158000  1.0
  Ni  Ni615  1  0.64337100  0.13497533  0.40158000  1.0
  Ni  Ni616  1  0.64337100  0.46830867  0.40158000  1.0
  Ni  Ni617  1  0.64337100  0.80164200  0.40158000  1.0
  Ni  Ni618  1  0.97670433  0.13497533  0.40158000  1.0
  Ni  Ni619  1  0.97670433  0.46830867  0.40158000  1.0
  Ni  Ni620  1  0.97670433  0.80164200  0.40158000  1.0
  Ni  Ni621  1  0.14337100  0.32545152  0.33015143  1.0
  Ni  Ni622  1  0.14337100  0.65878486  0.33015143  1.0
  Ni  Ni623  1  0.14337100  0.99211819  0.33015143  1.0
  Ni  Ni624  1  0.47670433  0.32545152  0.33015143  1.0
  Ni  Ni625  1  0.47670433  0.65878486  0.33015143  1.0
  Ni  Ni626  1  0.47670433  0.99211819  0.33015143  1.0
  Ni  Ni627  1  0.81003767  0.32545152  0.33015143  1.0
  Ni  Ni628  1  0.81003767  0.65878486  0.33015143  1.0
  Ni  Ni629  1  0.81003767  0.99211819  0.33015143  1.0
  Ni  Ni630  1  0.07727233  0.01874495  0.30103914  1.0
  Ni  Ni631  1  0.07727233  0.35207829  0.30103914  1.0
  Ni  Ni632  1  0.07727233  0.68541162  0.30103914  1.0
  Ni  Ni633  1  0.41060567  0.01874495  0.30103914  1.0
  Ni  Ni634  1  0.41060567  0.35207829  0.30103914  1.0
  Ni  Ni635  1  0.41060567  0.68541162  0.30103914  1.0
  Ni  Ni636  1  0.74393900  0.01874495  0.30103914  1.0
  Ni  Ni637  1  0.74393900  0.35207829  0.30103914  1.0
  Ni  Ni638  1  0.74393900  0.68541162  0.30103914  1.0
  Ni  Ni639  1  0.24393900  0.16160210  0.37246771  1.0
  Ni  Ni640  1  0.24393900  0.49493543  0.37246771  1.0
  Ni  Ni641  1  0.24393900  0.82826876  0.37246771  1.0
  Ni  Ni642  1  0.57727233  0.16160210  0.37246771  1.0
  Ni  Ni643  1  0.57727233  0.49493543  0.37246771  1.0
  Ni  Ni644  1  0.57727233  0.82826876  0.37246771  1.0
  Ni  Ni645  1  0.91060567  0.16160210  0.37246771  1.0
  Ni  Ni646  1  0.91060567  0.49493543  0.37246771  1.0
  Ni  Ni647  1  0.91060567  0.82826876  0.37246771  1.0
  Sn  Sn648  1  0.32735450  0.15355538  0.11844436  1.0
  Sn  Sn649  1  0.32735450  0.48688871  0.11844436  1.0
  Sn  Sn650  1  0.32735450  0.82022205  0.11844436  1.0
  Sn  Sn651  1  0.66068783  0.15355538  0.11844436  1.0
  Sn  Sn652  1  0.66068783  0.48688871  0.11844436  1.0
  Sn  Sn653  1  0.66068783  0.82022205  0.11844436  1.0
  Sn  Sn654  1  0.99402117  0.15355538  0.11844436  1.0
  Sn  Sn655  1  0.99402117  0.48688871  0.11844436  1.0
  Sn  Sn656  1  0.99402117  0.82022205  0.11844436  1.0
  Sn  Sn657  1  0.16068783  0.01069824  0.04701579  1.0
  Sn  Sn658  1  0.16068783  0.34403157  0.04701579  1.0
  Sn  Sn659  1  0.16068783  0.67736490  0.04701579  1.0
  Sn  Sn660  1  0.49402117  0.01069824  0.04701579  1.0
  Sn  Sn661  1  0.49402117  0.34403157  0.04701579  1.0
  Sn  Sn662  1  0.49402117  0.67736490  0.04701579  1.0
  Sn  Sn663  1  0.82735450  0.01069824  0.04701579  1.0
  Sn  Sn664  1  0.82735450  0.34403157  0.04701579  1.0
  Sn  Sn665  1  0.82735450  0.67736490  0.04701579  1.0
  Sn  Sn666  1  0.29016550  0.05320310  0.06826821  1.0
  Sn  Sn667  1  0.29016550  0.38653643  0.06826821  1.0
  Sn  Sn668  1  0.29016550  0.71986976  0.06826821  1.0
  Sn  Sn669  1  0.62349883  0.05320310  0.06826821  1.0
  Sn  Sn670  1  0.62349883  0.38653643  0.06826821  1.0
  Sn  Sn671  1  0.62349883  0.71986976  0.06826821  1.0
  Sn  Sn672  1  0.95683217  0.05320310  0.06826821  1.0
  Sn  Sn673  1  0.95683217  0.38653643  0.06826821  1.0
  Sn  Sn674  1  0.95683217  0.71986976  0.06826821  1.0
  Sn  Sn675  1  0.12349883  0.19606024  0.13969679  1.0
  Sn  Sn676  1  0.12349883  0.52939357  0.13969679  1.0
  Sn  Sn677  1  0.12349883  0.86272690  0.13969679  1.0
  Sn  Sn678  1  0.45683217  0.19606024  0.13969679  1.0
  Sn  Sn679  1  0.45683217  0.52939357  0.13969679  1.0
  Sn  Sn680  1  0.45683217  0.86272690  0.13969679  1.0
  Sn  Sn681  1  0.79016550  0.19606024  0.13969679  1.0
  Sn  Sn682  1  0.79016550  0.52939357  0.13969679  1.0
  Sn  Sn683  1  0.79016550  0.86272690  0.13969679  1.0
  Sn  Sn684  1  0.04316783  0.23251119  0.07458893  1.0
  Sn  Sn685  1  0.04316783  0.56584452  0.07458893  1.0
  Sn  Sn686  1  0.04316783  0.89917786  0.07458893  1.0
  Sn  Sn687  1  0.37650117  0.23251119  0.07458893  1.0
  Sn  Sn688  1  0.37650117  0.56584452  0.07458893  1.0
  Sn  Sn689  1  0.37650117  0.89917786  0.07458893  1.0
  Sn  Sn690  1  0.70983450  0.23251119  0.07458893  1.0
  Sn  Sn691  1  0.70983450  0.56584452  0.07458893  1.0
  Sn  Sn692  1  0.70983450  0.89917786  0.07458893  1.0
  Sn  Sn693  1  0.20983450  0.08965405  0.00316036  1.0
  Sn  Sn694  1  0.20983450  0.42298738  0.00316036  1.0
  Sn  Sn695  1  0.20983450  0.75632071  0.00316036  1.0
  Sn  Sn696  1  0.54316783  0.08965405  0.00316036  1.0
  Sn  Sn697  1  0.54316783  0.42298738  0.00316036  1.0
  Sn  Sn698  1  0.54316783  0.75632071  0.00316036  1.0
  Sn  Sn699  1  0.87650117  0.08965405  0.00316036  1.0
  Sn  Sn700  1  0.87650117  0.42298738  0.00316036  1.0
  Sn  Sn701  1  0.87650117  0.75632071  0.00316036  1.0
  Sn  Sn702  1  0.25737417  0.19176290  0.05421479  1.0
  Sn  Sn703  1  0.25737417  0.52509624  0.05421479  1.0
  Sn  Sn704  1  0.25737417  0.85842957  0.05421479  1.0
  Sn  Sn705  1  0.59070750  0.19176290  0.05421479  1.0
  Sn  Sn706  1  0.59070750  0.52509624  0.05421479  1.0
  Sn  Sn707  1  0.59070750  0.85842957  0.05421479  1.0
  Sn  Sn708  1  0.92404083  0.19176290  0.05421479  1.0
  Sn  Sn709  1  0.92404083  0.52509624  0.05421479  1.0
  Sn  Sn710  1  0.92404083  0.85842957  0.05421479  1.0
  Sn  Sn711  1  0.09070750  0.00128671  0.12564336  1.0
  Sn  Sn712  1  0.09070750  0.33462005  0.12564336  1.0
  Sn  Sn713  1  0.09070750  0.66795338  0.12564336  1.0
  Sn  Sn714  1  0.42404083  0.00128671  0.12564336  1.0
  Sn  Sn715  1  0.42404083  0.33462005  0.12564336  1.0
  Sn  Sn716  1  0.42404083  0.66795338  0.12564336  1.0
  Sn  Sn717  1  0.75737417  0.00128671  0.12564336  1.0
  Sn  Sn718  1  0.75737417  0.33462005  0.12564336  1.0
  Sn  Sn719  1  0.75737417  0.66795338  0.12564336  1.0
  Sn  Sn720  1  0.07595917  0.09395138  0.08864236  1.0
  Sn  Sn721  1  0.07595917  0.42728471  0.08864236  1.0
  Sn  Sn722  1  0.07595917  0.76061805  0.08864236  1.0
  Sn  Sn723  1  0.40929250  0.09395138  0.08864236  1.0
  Sn  Sn724  1  0.40929250  0.42728471  0.08864236  1.0
  Sn  Sn725  1  0.40929250  0.76061805  0.08864236  1.0
  Sn  Sn726  1  0.74262583  0.09395138  0.08864236  1.0
  Sn  Sn727  1  0.74262583  0.42728471  0.08864236  1.0
  Sn  Sn728  1  0.74262583  0.76061805  0.08864236  1.0
  Sn  Sn729  1  0.24262583  0.28442757  0.01721379  1.0
  Sn  Sn730  1  0.24262583  0.61776090  0.01721379  1.0
  Sn  Sn731  1  0.24262583  0.95109424  0.01721379  1.0
  Sn  Sn732  1  0.57595917  0.28442757  0.01721379  1.0
  Sn  Sn733  1  0.57595917  0.61776090  0.01721379  1.0
  Sn  Sn734  1  0.57595917  0.95109424  0.01721379  1.0
  Sn  Sn735  1  0.90929250  0.28442757  0.01721379  1.0
  Sn  Sn736  1  0.90929250  0.61776090  0.01721379  1.0
  Sn  Sn737  1  0.90929250  0.95109424  0.01721379  1.0
  Sn  Sn738  1  0.19303683  0.12582767  0.10458050  1.0
  Sn  Sn739  1  0.19303683  0.45916100  0.10458050  1.0
  Sn  Sn740  1  0.19303683  0.79249433  0.10458050  1.0
  Sn  Sn741  1  0.52637017  0.12582767  0.10458050  1.0
  Sn  Sn742  1  0.52637017  0.45916100  0.10458050  1.0
  Sn  Sn743  1  0.52637017  0.79249433  0.10458050  1.0
  Sn  Sn744  1  0.85970350  0.12582767  0.10458050  1.0
  Sn  Sn745  1  0.85970350  0.45916100  0.10458050  1.0
  Sn  Sn746  1  0.85970350  0.79249433  0.10458050  1.0
  Sn  Sn747  1  0.02637017  0.31630386  0.03315193  1.0
  Sn  Sn748  1  0.02637017  0.64963719  0.03315193  1.0
  Sn  Sn749  1  0.02637017  0.98297052  0.03315193  1.0
  Sn  Sn750  1  0.35970350  0.31630386  0.03315193  1.0
  Sn  Sn751  1  0.35970350  0.64963719  0.03315193  1.0
  Sn  Sn752  1  0.35970350  0.98297052  0.03315193  1.0
  Sn  Sn753  1  0.69303683  0.31630386  0.03315193  1.0
  Sn  Sn754  1  0.69303683  0.64963719  0.03315193  1.0
  Sn  Sn755  1  0.69303683  0.98297052  0.03315193  1.0
  Sn  Sn756  1  0.00597883  0.13215890  0.02441279  1.0
  Sn  Sn757  1  0.00597883  0.46549224  0.02441279  1.0
  Sn  Sn758  1  0.00597883  0.79882557  0.02441279  1.0
  Sn  Sn759  1  0.33931217  0.13215890  0.02441279  1.0
  Sn  Sn760  1  0.33931217  0.46549224  0.02441279  1.0
  Sn  Sn761  1  0.33931217  0.79882557  0.02441279  1.0
  Sn  Sn762  1  0.67264550  0.13215890  0.02441279  1.0
  Sn  Sn763  1  0.67264550  0.46549224  0.02441279  1.0
  Sn  Sn764  1  0.67264550  0.79882557  0.02441279  1.0
  Sn  Sn765  1  0.17264550  0.27501605  0.09584136  1.0
  Sn  Sn766  1  0.17264550  0.60834938  0.09584136  1.0
  Sn  Sn767  1  0.17264550  0.94168271  0.09584136  1.0
  Sn  Sn768  1  0.50597883  0.27501605  0.09584136  1.0
  Sn  Sn769  1  0.50597883  0.60834938  0.09584136  1.0
  Sn  Sn770  1  0.50597883  0.94168271  0.09584136  1.0
  Sn  Sn771  1  0.83931217  0.27501605  0.09584136  1.0
  Sn  Sn772  1  0.83931217  0.60834938  0.09584136  1.0
  Sn  Sn773  1  0.83931217  0.94168271  0.09584136  1.0
  Sn  Sn774  1  0.14029650  0.15988662  0.03827664  1.0
  Sn  Sn775  1  0.14029650  0.49321995  0.03827664  1.0
  Sn  Sn776  1  0.14029650  0.82655329  0.03827664  1.0
  Sn  Sn777  1  0.47362983  0.15988662  0.03827664  1.0
  Sn  Sn778  1  0.47362983  0.49321995  0.03827664  1.0
  Sn  Sn779  1  0.47362983  0.82655329  0.03827664  1.0
  Sn  Sn780  1  0.80696317  0.15988662  0.03827664  1.0
  Sn  Sn781  1  0.80696317  0.49321995  0.03827664  1.0
  Sn  Sn782  1  0.80696317  0.82655329  0.03827664  1.0
  Sn  Sn783  1  0.30696317  0.30274376  0.10970521  1.0
  Sn  Sn784  1  0.30696317  0.63607710  0.10970521  1.0
  Sn  Sn785  1  0.30696317  0.96941043  0.10970521  1.0
  Sn  Sn786  1  0.64029650  0.30274376  0.10970521  1.0
  Sn  Sn787  1  0.64029650  0.63607710  0.10970521  1.0
  Sn  Sn788  1  0.64029650  0.96941043  0.10970521  1.0
  Sn  Sn789  1  0.97362983  0.30274376  0.10970521  1.0
  Sn  Sn790  1  0.97362983  0.63607710  0.10970521  1.0
  Sn  Sn791  1  0.97362983  0.96941043  0.10970521  1.0
  Sn  Sn792  1  0.32735450  0.10593633  0.26130150  1.0
  Sn  Sn793  1  0.32735450  0.43926967  0.26130150  1.0
  Sn  Sn794  1  0.32735450  0.77260300  0.26130150  1.0
  Sn  Sn795  1  0.66068783  0.10593633  0.26130150  1.0
  Sn  Sn796  1  0.66068783  0.43926967  0.26130150  1.0
  Sn  Sn797  1  0.66068783  0.77260300  0.26130150  1.0
  Sn  Sn798  1  0.99402117  0.10593633  0.26130150  1.0
  Sn  Sn799  1  0.99402117  0.43926967  0.26130150  1.0
  Sn  Sn800  1  0.99402117  0.77260300  0.26130150  1.0
  Sn  Sn801  1  0.16068783  0.29641252  0.18987293  1.0
  Sn  Sn802  1  0.16068783  0.62974586  0.18987293  1.0
  Sn  Sn803  1  0.16068783  0.96307919  0.18987293  1.0
  Sn  Sn804  1  0.49402117  0.29641252  0.18987293  1.0
  Sn  Sn805  1  0.49402117  0.62974586  0.18987293  1.0
  Sn  Sn806  1  0.49402117  0.96307919  0.18987293  1.0
  Sn  Sn807  1  0.82735450  0.29641252  0.18987293  1.0
  Sn  Sn808  1  0.82735450  0.62974586  0.18987293  1.0
  Sn  Sn809  1  0.82735450  0.96307919  0.18987293  1.0
  Sn  Sn810  1  0.29016550  0.00558405  0.21112536  1.0
  Sn  Sn811  1  0.29016550  0.33891738  0.21112536  1.0
  Sn  Sn812  1  0.29016550  0.67225071  0.21112536  1.0
  Sn  Sn813  1  0.62349883  0.00558405  0.21112536  1.0
  Sn  Sn814  1  0.62349883  0.33891738  0.21112536  1.0
  Sn  Sn815  1  0.62349883  0.67225071  0.21112536  1.0
  Sn  Sn816  1  0.95683217  0.00558405  0.21112536  1.0
  Sn  Sn817  1  0.95683217  0.33891738  0.21112536  1.0
  Sn  Sn818  1  0.95683217  0.67225071  0.21112536  1.0
  Sn  Sn819  1  0.12349883  0.14844119  0.28255393  1.0
  Sn  Sn820  1  0.12349883  0.48177452  0.28255393  1.0
  Sn  Sn821  1  0.12349883  0.81510786  0.28255393  1.0
  Sn  Sn822  1  0.45683217  0.14844119  0.28255393  1.0
  Sn  Sn823  1  0.45683217  0.48177452  0.28255393  1.0
  Sn  Sn824  1  0.45683217  0.81510786  0.28255393  1.0
  Sn  Sn825  1  0.79016550  0.14844119  0.28255393  1.0
  Sn  Sn826  1  0.79016550  0.48177452  0.28255393  1.0
  Sn  Sn827  1  0.79016550  0.81510786  0.28255393  1.0
  Sn  Sn828  1  0.04316783  0.18489214  0.21744607  1.0
  Sn  Sn829  1  0.04316783  0.51822548  0.21744607  1.0
  Sn  Sn830  1  0.04316783  0.85155881  0.21744607  1.0
  Sn  Sn831  1  0.37650117  0.18489214  0.21744607  1.0
  Sn  Sn832  1  0.37650117  0.51822548  0.21744607  1.0
  Sn  Sn833  1  0.37650117  0.85155881  0.21744607  1.0
  Sn  Sn834  1  0.70983450  0.18489214  0.21744607  1.0
  Sn  Sn835  1  0.70983450  0.51822548  0.21744607  1.0
  Sn  Sn836  1  0.70983450  0.85155881  0.21744607  1.0
  Sn  Sn837  1  0.20983450  0.04203500  0.14601750  1.0
  Sn  Sn838  1  0.20983450  0.37536833  0.14601750  1.0
  Sn  Sn839  1  0.20983450  0.70870167  0.14601750  1.0
  Sn  Sn840  1  0.54316783  0.04203500  0.14601750  1.0
  Sn  Sn841  1  0.54316783  0.37536833  0.14601750  1.0
  Sn  Sn842  1  0.54316783  0.70870167  0.14601750  1.0
  Sn  Sn843  1  0.87650117  0.04203500  0.14601750  1.0
  Sn  Sn844  1  0.87650117  0.37536833  0.14601750  1.0
  Sn  Sn845  1  0.87650117  0.70870167  0.14601750  1.0
  Sn  Sn846  1  0.25737417  0.14414386  0.19707193  1.0
  Sn  Sn847  1  0.25737417  0.47747719  0.19707193  1.0
  Sn  Sn848  1  0.25737417  0.81081052  0.19707193  1.0
  Sn  Sn849  1  0.59070750  0.14414386  0.19707193  1.0
  Sn  Sn850  1  0.59070750  0.47747719  0.19707193  1.0
  Sn  Sn851  1  0.59070750  0.81081052  0.19707193  1.0
  Sn  Sn852  1  0.92404083  0.14414386  0.19707193  1.0
  Sn  Sn853  1  0.92404083  0.47747719  0.19707193  1.0
  Sn  Sn854  1  0.92404083  0.81081052  0.19707193  1.0
  Sn  Sn855  1  0.09070750  0.28700100  0.26850050  1.0
  Sn  Sn856  1  0.09070750  0.62033433  0.26850050  1.0
  Sn  Sn857  1  0.09070750  0.95366767  0.26850050  1.0
  Sn  Sn858  1  0.42404083  0.28700100  0.26850050  1.0
  Sn  Sn859  1  0.42404083  0.62033433  0.26850050  1.0
  Sn  Sn860  1  0.42404083  0.95366767  0.26850050  1.0
  Sn  Sn861  1  0.75737417  0.28700100  0.26850050  1.0
  Sn  Sn862  1  0.75737417  0.62033433  0.26850050  1.0
  Sn  Sn863  1  0.75737417  0.95366767  0.26850050  1.0
  Sn  Sn864  1  0.07595917  0.04633233  0.23149950  1.0
  Sn  Sn865  1  0.07595917  0.37966567  0.23149950  1.0
  Sn  Sn866  1  0.07595917  0.71299900  0.23149950  1.0
  Sn  Sn867  1  0.40929250  0.04633233  0.23149950  1.0
  Sn  Sn868  1  0.40929250  0.37966567  0.23149950  1.0
  Sn  Sn869  1  0.40929250  0.71299900  0.23149950  1.0
  Sn  Sn870  1  0.74262583  0.04633233  0.23149950  1.0
  Sn  Sn871  1  0.74262583  0.37966567  0.23149950  1.0
  Sn  Sn872  1  0.74262583  0.71299900  0.23149950  1.0
  Sn  Sn873  1  0.24262583  0.23680852  0.16007093  1.0
  Sn  Sn874  1  0.24262583  0.57014186  0.16007093  1.0
  Sn  Sn875  1  0.24262583  0.90347519  0.16007093  1.0
  Sn  Sn876  1  0.57595917  0.23680852  0.16007093  1.0
  Sn  Sn877  1  0.57595917  0.57014186  0.16007093  1.0
  Sn  Sn878  1  0.57595917  0.90347519  0.16007093  1.0
  Sn  Sn879  1  0.90929250  0.23680852  0.16007093  1.0
  Sn  Sn880  1  0.90929250  0.57014186  0.16007093  1.0
  Sn  Sn881  1  0.90929250  0.90347519  0.16007093  1.0
  Sn  Sn882  1  0.19303683  0.07820862  0.24743764  1.0
  Sn  Sn883  1  0.19303683  0.41154195  0.24743764  1.0
  Sn  Sn884  1  0.19303683  0.74487529  0.24743764  1.0
  Sn  Sn885  1  0.52637017  0.07820862  0.24743764  1.0
  Sn  Sn886  1  0.52637017  0.41154195  0.24743764  1.0
  Sn  Sn887  1  0.52637017  0.74487529  0.24743764  1.0
  Sn  Sn888  1  0.85970350  0.07820862  0.24743764  1.0
  Sn  Sn889  1  0.85970350  0.41154195  0.24743764  1.0
  Sn  Sn890  1  0.85970350  0.74487529  0.24743764  1.0
  Sn  Sn891  1  0.02637017  0.26868481  0.17600907  1.0
  Sn  Sn892  1  0.02637017  0.60201814  0.17600907  1.0
  Sn  Sn893  1  0.02637017  0.93535148  0.17600907  1.0
  Sn  Sn894  1  0.35970350  0.26868481  0.17600907  1.0
  Sn  Sn895  1  0.35970350  0.60201814  0.17600907  1.0
  Sn  Sn896  1  0.35970350  0.93535148  0.17600907  1.0
  Sn  Sn897  1  0.69303683  0.26868481  0.17600907  1.0
  Sn  Sn898  1  0.69303683  0.60201814  0.17600907  1.0
  Sn  Sn899  1  0.69303683  0.93535148  0.17600907  1.0
  Sn  Sn900  1  0.00597883  0.08453986  0.16726993  1.0
  Sn  Sn901  1  0.00597883  0.41787319  0.16726993  1.0
  Sn  Sn902  1  0.00597883  0.75120652  0.16726993  1.0
  Sn  Sn903  1  0.33931217  0.08453986  0.16726993  1.0
  Sn  Sn904  1  0.33931217  0.41787319  0.16726993  1.0
  Sn  Sn905  1  0.33931217  0.75120652  0.16726993  1.0
  Sn  Sn906  1  0.67264550  0.08453986  0.16726993  1.0
  Sn  Sn907  1  0.67264550  0.41787319  0.16726993  1.0
  Sn  Sn908  1  0.67264550  0.75120652  0.16726993  1.0
  Sn  Sn909  1  0.17264550  0.22739700  0.23869850  1.0
  Sn  Sn910  1  0.17264550  0.56073033  0.23869850  1.0
  Sn  Sn911  1  0.17264550  0.89406367  0.23869850  1.0
  Sn  Sn912  1  0.50597883  0.22739700  0.23869850  1.0
  Sn  Sn913  1  0.50597883  0.56073033  0.23869850  1.0
  Sn  Sn914  1  0.50597883  0.89406367  0.23869850  1.0
  Sn  Sn915  1  0.83931217  0.22739700  0.23869850  1.0
  Sn  Sn916  1  0.83931217  0.56073033  0.23869850  1.0
  Sn  Sn917  1  0.83931217  0.89406367  0.23869850  1.0
  Sn  Sn918  1  0.14029650  0.11226757  0.18113379  1.0
  Sn  Sn919  1  0.14029650  0.44560090  0.18113379  1.0
  Sn  Sn920  1  0.14029650  0.77893424  0.18113379  1.0
  Sn  Sn921  1  0.47362983  0.11226757  0.18113379  1.0
  Sn  Sn922  1  0.47362983  0.44560090  0.18113379  1.0
  Sn  Sn923  1  0.47362983  0.77893424  0.18113379  1.0
  Sn  Sn924  1  0.80696317  0.11226757  0.18113379  1.0
  Sn  Sn925  1  0.80696317  0.44560090  0.18113379  1.0
  Sn  Sn926  1  0.80696317  0.77893424  0.18113379  1.0
  Sn  Sn927  1  0.30696317  0.25512471  0.25256236  1.0
  Sn  Sn928  1  0.30696317  0.58845805  0.25256236  1.0
  Sn  Sn929  1  0.30696317  0.92179138  0.25256236  1.0
  Sn  Sn930  1  0.64029650  0.25512471  0.25256236  1.0
  Sn  Sn931  1  0.64029650  0.58845805  0.25256236  1.0
  Sn  Sn932  1  0.64029650  0.92179138  0.25256236  1.0
  Sn  Sn933  1  0.97362983  0.25512471  0.25256236  1.0
  Sn  Sn934  1  0.97362983  0.58845805  0.25256236  1.0
  Sn  Sn935  1  0.97362983  0.92179138  0.25256236  1.0
  Sn  Sn936  1  0.32735450  0.05831729  0.40415864  1.0
  Sn  Sn937  1  0.32735450  0.39165062  0.40415864  1.0
  Sn  Sn938  1  0.32735450  0.72498395  0.40415864  1.0
  Sn  Sn939  1  0.66068783  0.05831729  0.40415864  1.0
  Sn  Sn940  1  0.66068783  0.39165062  0.40415864  1.0
  Sn  Sn941  1  0.66068783  0.72498395  0.40415864  1.0
  Sn  Sn942  1  0.99402117  0.05831729  0.40415864  1.0
  Sn  Sn943  1  0.99402117  0.39165062  0.40415864  1.0
  Sn  Sn944  1  0.99402117  0.72498395  0.40415864  1.0
  Sn  Sn945  1  0.16068783  0.24879348  0.33273007  1.0
  Sn  Sn946  1  0.16068783  0.58212681  0.33273007  1.0
  Sn  Sn947  1  0.16068783  0.91546014  0.33273007  1.0
  Sn  Sn948  1  0.49402117  0.24879348  0.33273007  1.0
  Sn  Sn949  1  0.49402117  0.58212681  0.33273007  1.0
  Sn  Sn950  1  0.49402117  0.91546014  0.33273007  1.0
  Sn  Sn951  1  0.82735450  0.24879348  0.33273007  1.0
  Sn  Sn952  1  0.82735450  0.58212681  0.33273007  1.0
  Sn  Sn953  1  0.82735450  0.91546014  0.33273007  1.0
  Sn  Sn954  1  0.29016550  0.29129833  0.35398250  1.0
  Sn  Sn955  1  0.29016550  0.62463167  0.35398250  1.0
  Sn  Sn956  1  0.29016550  0.95796500  0.35398250  1.0
  Sn  Sn957  1  0.62349883  0.29129833  0.35398250  1.0
  Sn  Sn958  1  0.62349883  0.62463167  0.35398250  1.0
  Sn  Sn959  1  0.62349883  0.95796500  0.35398250  1.0
  Sn  Sn960  1  0.95683217  0.29129833  0.35398250  1.0
  Sn  Sn961  1  0.95683217  0.62463167  0.35398250  1.0
  Sn  Sn962  1  0.95683217  0.95796500  0.35398250  1.0
  Sn  Sn963  1  0.12349883  0.10082214  0.42541107  1.0
  Sn  Sn964  1  0.12349883  0.43415548  0.42541107  1.0
  Sn  Sn965  1  0.12349883  0.76748881  0.42541107  1.0
  Sn  Sn966  1  0.45683217  0.10082214  0.42541107  1.0
  Sn  Sn967  1  0.45683217  0.43415548  0.42541107  1.0
  Sn  Sn968  1  0.45683217  0.76748881  0.42541107  1.0
  Sn  Sn969  1  0.79016550  0.10082214  0.42541107  1.0
  Sn  Sn970  1  0.79016550  0.43415548  0.42541107  1.0
  Sn  Sn971  1  0.79016550  0.76748881  0.42541107  1.0
  Sn  Sn972  1  0.04316783  0.13727310  0.36030321  1.0
  Sn  Sn973  1  0.04316783  0.47060643  0.36030321  1.0
  Sn  Sn974  1  0.04316783  0.80393976  0.36030321  1.0
  Sn  Sn975  1  0.37650117  0.13727310  0.36030321  1.0
  Sn  Sn976  1  0.37650117  0.47060643  0.36030321  1.0
  Sn  Sn977  1  0.37650117  0.80393976  0.36030321  1.0
  Sn  Sn978  1  0.70983450  0.13727310  0.36030321  1.0
  Sn  Sn979  1  0.70983450  0.47060643  0.36030321  1.0
  Sn  Sn980  1  0.70983450  0.80393976  0.36030321  1.0
  Sn  Sn981  1  0.20983450  0.32774929  0.28887464  1.0
  Sn  Sn982  1  0.20983450  0.66108262  0.28887464  1.0
  Sn  Sn983  1  0.20983450  0.99441595  0.28887464  1.0
  Sn  Sn984  1  0.54316783  0.32774929  0.28887464  1.0
  Sn  Sn985  1  0.54316783  0.66108262  0.28887464  1.0
  Sn  Sn986  1  0.54316783  0.99441595  0.28887464  1.0
  Sn  Sn987  1  0.87650117  0.32774929  0.28887464  1.0
  Sn  Sn988  1  0.87650117  0.66108262  0.28887464  1.0
  Sn  Sn989  1  0.87650117  0.99441595  0.28887464  1.0
  Sn  Sn990  1  0.25737417  0.09652481  0.33992907  1.0
  Sn  Sn991  1  0.25737417  0.42985814  0.33992907  1.0
  Sn  Sn992  1  0.25737417  0.76319148  0.33992907  1.0
  Sn  Sn993  1  0.59070750  0.09652481  0.33992907  1.0
  Sn  Sn994  1  0.59070750  0.42985814  0.33992907  1.0
  Sn  Sn995  1  0.59070750  0.76319148  0.33992907  1.0
  Sn  Sn996  1  0.92404083  0.09652481  0.33992907  1.0
  Sn  Sn997  1  0.92404083  0.42985814  0.33992907  1.0
  Sn  Sn998  1  0.92404083  0.76319148  0.33992907  1.0
  Sn  Sn999  1  0.09070750  0.23938195  0.41135764  1.0
  Sn  Sn1000  1  0.09070750  0.57271529  0.41135764  1.0
  Sn  Sn1001  1  0.09070750  0.90604862  0.41135764  1.0
  Sn  Sn1002  1  0.42404083  0.23938195  0.41135764  1.0
  Sn  Sn1003  1  0.42404083  0.57271529  0.41135764  1.0
  Sn  Sn1004  1  0.42404083  0.90604862  0.41135764  1.0
  Sn  Sn1005  1  0.75737417  0.23938195  0.41135764  1.0
  Sn  Sn1006  1  0.75737417  0.57271529  0.41135764  1.0
  Sn  Sn1007  1  0.75737417  0.90604862  0.41135764  1.0
  Sn  Sn1008  1  0.07595917  0.33204662  0.37435664  1.0
  Sn  Sn1009  1  0.07595917  0.66537995  0.37435664  1.0
  Sn  Sn1010  1  0.07595917  0.99871329  0.37435664  1.0
  Sn  Sn1011  1  0.40929250  0.33204662  0.37435664  1.0
  Sn  Sn1012  1  0.40929250  0.66537995  0.37435664  1.0
  Sn  Sn1013  1  0.40929250  0.99871329  0.37435664  1.0
  Sn  Sn1014  1  0.74262583  0.33204662  0.37435664  1.0
  Sn  Sn1015  1  0.74262583  0.66537995  0.37435664  1.0
  Sn  Sn1016  1  0.74262583  0.99871329  0.37435664  1.0
  Sn  Sn1017  1  0.24262583  0.18918948  0.30292807  1.0
  Sn  Sn1018  1  0.24262583  0.52252281  0.30292807  1.0
  Sn  Sn1019  1  0.24262583  0.85585614  0.30292807  1.0
  Sn  Sn1020  1  0.57595917  0.18918948  0.30292807  1.0
  Sn  Sn1021  1  0.57595917  0.52252281  0.30292807  1.0
  Sn  Sn1022  1  0.57595917  0.85585614  0.30292807  1.0
  Sn  Sn1023  1  0.90929250  0.18918948  0.30292807  1.0
  Sn  Sn1024  1  0.90929250  0.52252281  0.30292807  1.0
  Sn  Sn1025  1  0.90929250  0.85585614  0.30292807  1.0
  Sn  Sn1026  1  0.19303683  0.03058957  0.39029479  1.0
  Sn  Sn1027  1  0.19303683  0.36392290  0.39029479  1.0
  Sn  Sn1028  1  0.19303683  0.69725624  0.39029479  1.0
  Sn  Sn1029  1  0.52637017  0.03058957  0.39029479  1.0
  Sn  Sn1030  1  0.52637017  0.36392290  0.39029479  1.0
  Sn  Sn1031  1  0.52637017  0.69725624  0.39029479  1.0
  Sn  Sn1032  1  0.85970350  0.03058957  0.39029479  1.0
  Sn  Sn1033  1  0.85970350  0.36392290  0.39029479  1.0
  Sn  Sn1034  1  0.85970350  0.69725624  0.39029479  1.0
  Sn  Sn1035  1  0.02637017  0.22106576  0.31886621  1.0
  Sn  Sn1036  1  0.02637017  0.55439910  0.31886621  1.0
  Sn  Sn1037  1  0.02637017  0.88773243  0.31886621  1.0
  Sn  Sn1038  1  0.35970350  0.22106576  0.31886621  1.0
  Sn  Sn1039  1  0.35970350  0.55439910  0.31886621  1.0
  Sn  Sn1040  1  0.35970350  0.88773243  0.31886621  1.0
  Sn  Sn1041  1  0.69303683  0.22106576  0.31886621  1.0
  Sn  Sn1042  1  0.69303683  0.55439910  0.31886621  1.0
  Sn  Sn1043  1  0.69303683  0.88773243  0.31886621  1.0
  Sn  Sn1044  1  0.00597883  0.03692081  0.31012707  1.0
  Sn  Sn1045  1  0.00597883  0.37025414  0.31012707  1.0
  Sn  Sn1046  1  0.00597883  0.70358748  0.31012707  1.0
  Sn  Sn1047  1  0.33931217  0.03692081  0.31012707  1.0
  Sn  Sn1048  1  0.33931217  0.37025414  0.31012707  1.0
  Sn  Sn1049  1  0.33931217  0.70358748  0.31012707  1.0
  Sn  Sn1050  1  0.67264550  0.03692081  0.31012707  1.0
  Sn  Sn1051  1  0.67264550  0.37025414  0.31012707  1.0
  Sn  Sn1052  1  0.67264550  0.70358748  0.31012707  1.0
  Sn  Sn1053  1  0.17264550  0.17977795  0.38155564  1.0
  Sn  Sn1054  1  0.17264550  0.51311129  0.38155564  1.0
  Sn  Sn1055  1  0.17264550  0.84644462  0.38155564  1.0
  Sn  Sn1056  1  0.50597883  0.17977795  0.38155564  1.0
  Sn  Sn1057  1  0.50597883  0.51311129  0.38155564  1.0
  Sn  Sn1058  1  0.50597883  0.84644462  0.38155564  1.0
  Sn  Sn1059  1  0.83931217  0.17977795  0.38155564  1.0
  Sn  Sn1060  1  0.83931217  0.51311129  0.38155564  1.0
  Sn  Sn1061  1  0.83931217  0.84644462  0.38155564  1.0
  Sn  Sn1062  1  0.14029650  0.06464852  0.32399093  1.0
  Sn  Sn1063  1  0.14029650  0.39798186  0.32399093  1.0
  Sn  Sn1064  1  0.14029650  0.73131519  0.32399093  1.0
  Sn  Sn1065  1  0.47362983  0.06464852  0.32399093  1.0
  Sn  Sn1066  1  0.47362983  0.39798186  0.32399093  1.0
  Sn  Sn1067  1  0.47362983  0.73131519  0.32399093  1.0
  Sn  Sn1068  1  0.80696317  0.06464852  0.32399093  1.0
  Sn  Sn1069  1  0.80696317  0.39798186  0.32399093  1.0
  Sn  Sn1070  1  0.80696317  0.73131519  0.32399093  1.0
  Sn  Sn1071  1  0.30696317  0.20750567  0.39541950  1.0
  Sn  Sn1072  1  0.30696317  0.54083900  0.39541950  1.0
  Sn  Sn1073  1  0.30696317  0.87417233  0.39541950  1.0
  Sn  Sn1074  1  0.64029650  0.20750567  0.39541950  1.0
  Sn  Sn1075  1  0.64029650  0.54083900  0.39541950  1.0
  Sn  Sn1076  1  0.64029650  0.87417233  0.39541950  1.0
  Sn  Sn1077  1  0.97362983  0.20750567  0.39541950  1.0
  Sn  Sn1078  1  0.97362983  0.54083900  0.39541950  1.0
  Sn  Sn1079  1  0.97362983  0.87417233  0.39541950  1.0
