# generated using pymatgen
data_Ni3Sn2
_symmetry_space_group_name_H-M   'P 1'
_cell_length_a   37.91003309
_cell_length_b   39.82897033
_cell_length_c   49.88902800
_cell_angle_alpha   90.00000000
_cell_angle_beta   55.66757315
_cell_angle_gamma   49.52944074
_symmetry_Int_Tables_number   1
_chemical_formula_structural   Ni3Sn2
_chemical_formula_sum   'Ni648 Sn432'
_cell_volume   38457.01053271
_cell_formula_units_Z   216
loop_
 _symmetry_equiv_pos_site_id
 _symmetry_equiv_pos_as_xyz
  1  'x, y, z'
loop_
 _atom_site_type_symbol
 _atom_site_label
 _atom_site_symmetry_multiplicity
 _atom_site_fract_x
 _atom_site_fract_y
 _atom_site_fract_z
 _atom_site_occupancy
  Ni  Ni0  1  0.24984767  0.20848567  0.02305229  1.0
  Ni  Ni1  1  0.24984767  0.54181900  0.02305229  1.0
  Ni  Ni2  1  0.24984767  0.87515233  0.02305229  1.0
  Ni  Ni3  1  0.58318100  0.20848567  0.02305229  1.0
  Ni  Ni4  1  0.58318100  0.54181900  0.02305229  1.0
  Ni  Ni5  1  0.58318100  0.87515233  0.02305229  1.0
  Ni  Ni6  1  0.91651433  0.20848567  0.02305229  1.0
  Ni  Ni7  1  0.91651433  0.54181900  0.02305229  1.0
  Ni  Ni8  1  0.91651433  0.87515233  0.02305229  1.0
  Ni  Ni9  1  0.08318100  0.20848567  0.09448086  1.0
  Ni  Ni10  1  0.08318100  0.54181900  0.09448086  1.0
  Ni  Ni11  1  0.08318100  0.87515233  0.09448086  1.0
  Ni  Ni12  1  0.41651433  0.20848567  0.09448086  1.0
  Ni  Ni13  1  0.41651433  0.54181900  0.09448086  1.0
  Ni  Ni14  1  0.41651433  0.87515233  0.09448086  1.0
  Ni  Ni15  1  0.74984767  0.20848567  0.09448086  1.0
  Ni  Ni16  1  0.74984767  0.54181900  0.09448086  1.0
  Ni  Ni17  1  0.74984767  0.87515233  0.09448086  1.0
  Ni  Ni18  1  0.25015233  0.12484767  0.04837629  1.0
  Ni  Ni19  1  0.25015233  0.45818100  0.04837629  1.0
  Ni  Ni20  1  0.25015233  0.79151433  0.04837629  1.0
  Ni  Ni21  1  0.58348567  0.12484767  0.04837629  1.0
  Ni  Ni22  1  0.58348567  0.45818100  0.04837629  1.0
  Ni  Ni23  1  0.58348567  0.79151433  0.04837629  1.0
  Ni  Ni24  1  0.91681900  0.12484767  0.04837629  1.0
  Ni  Ni25  1  0.91681900  0.45818100  0.04837629  1.0
  Ni  Ni26  1  0.91681900  0.79151433  0.04837629  1.0
  Ni  Ni27  1  0.08348567  0.12484767  0.11980486  1.0
  Ni  Ni28  1  0.08348567  0.45818100  0.11980486  1.0
  Ni  Ni29  1  0.08348567  0.79151433  0.11980486  1.0
  Ni  Ni30  1  0.41681900  0.12484767  0.11980486  1.0
  Ni  Ni31  1  0.41681900  0.45818100  0.11980486  1.0
  Ni  Ni32  1  0.41681900  0.79151433  0.11980486  1.0
  Ni  Ni33  1  0.75015233  0.12484767  0.11980486  1.0
  Ni  Ni34  1  0.75015233  0.45818100  0.11980486  1.0
  Ni  Ni35  1  0.75015233  0.79151433  0.11980486  1.0
  Ni  Ni36  1  0.20955667  0.20786900  0.08684986  1.0
  Ni  Ni37  1  0.20955667  0.54120233  0.08684986  1.0
  Ni  Ni38  1  0.20955667  0.87453567  0.08684986  1.0
  Ni  Ni39  1  0.54289000  0.20786900  0.08684986  1.0
  Ni  Ni40  1  0.54289000  0.54120233  0.08684986  1.0
  Ni  Ni41  1  0.54289000  0.87453567  0.08684986  1.0
  Ni  Ni42  1  0.87622333  0.20786900  0.08684986  1.0
  Ni  Ni43  1  0.87622333  0.54120233  0.08684986  1.0
  Ni  Ni44  1  0.87622333  0.87453567  0.08684986  1.0
  Ni  Ni45  1  0.04289000  0.20786900  0.01542129  1.0
  Ni  Ni46  1  0.04289000  0.54120233  0.01542129  1.0
  Ni  Ni47  1  0.04289000  0.87453567  0.01542129  1.0
  Ni  Ni48  1  0.37622333  0.20786900  0.01542129  1.0
  Ni  Ni49  1  0.37622333  0.54120233  0.01542129  1.0
  Ni  Ni50  1  0.37622333  0.87453567  0.01542129  1.0
  Ni  Ni51  1  0.70955667  0.20786900  0.01542129  1.0
  Ni  Ni52  1  0.70955667  0.54120233  0.01542129  1.0
  Ni  Ni53  1  0.70955667  0.87453567  0.01542129  1.0
  Ni  Ni54  1  0.20862800  0.12546433  0.01964243  1.0
  Ni  Ni55  1  0.20862800  0.45879767  0.01964243  1.0
  Ni  Ni56  1  0.20862800  0.79213100  0.01964243  1.0
  Ni  Ni57  1  0.54196133  0.12546433  0.01964243  1.0
  Ni  Ni58  1  0.54196133  0.45879767  0.01964243  1.0
  Ni  Ni59  1  0.54196133  0.79213100  0.01964243  1.0
  Ni  Ni60  1  0.87529467  0.12546433  0.01964243  1.0
  Ni  Ni61  1  0.87529467  0.45879767  0.01964243  1.0
  Ni  Ni62  1  0.87529467  0.79213100  0.01964243  1.0
  Ni  Ni63  1  0.04196133  0.12546433  0.09107100  1.0
  Ni  Ni64  1  0.04196133  0.45879767  0.09107100  1.0
  Ni  Ni65  1  0.04196133  0.79213100  0.09107100  1.0
  Ni  Ni66  1  0.37529467  0.12546433  0.09107100  1.0
  Ni  Ni67  1  0.37529467  0.45879767  0.09107100  1.0
  Ni  Ni68  1  0.37529467  0.79213100  0.09107100  1.0
  Ni  Ni69  1  0.70862800  0.12546433  0.09107100  1.0
  Ni  Ni70  1  0.70862800  0.45879767  0.09107100  1.0
  Ni  Ni71  1  0.70862800  0.79213100  0.09107100  1.0
  Ni  Ni72  1  0.04137200  0.04120233  0.01989500  1.0
  Ni  Ni73  1  0.04137200  0.37453567  0.01989500  1.0
  Ni  Ni74  1  0.04137200  0.70786900  0.01989500  1.0
  Ni  Ni75  1  0.37470533  0.04120233  0.01989500  1.0
  Ni  Ni76  1  0.37470533  0.37453567  0.01989500  1.0
  Ni  Ni77  1  0.37470533  0.70786900  0.01989500  1.0
  Ni  Ni78  1  0.70803867  0.04120233  0.01989500  1.0
  Ni  Ni79  1  0.70803867  0.37453567  0.01989500  1.0
  Ni  Ni80  1  0.70803867  0.70786900  0.01989500  1.0
  Ni  Ni81  1  0.20803867  0.04120233  0.09132357  1.0
  Ni  Ni82  1  0.20803867  0.37453567  0.09132357  1.0
  Ni  Ni83  1  0.20803867  0.70786900  0.09132357  1.0
  Ni  Ni84  1  0.54137200  0.04120233  0.09132357  1.0
  Ni  Ni85  1  0.54137200  0.37453567  0.09132357  1.0
  Ni  Ni86  1  0.54137200  0.70786900  0.09132357  1.0
  Ni  Ni87  1  0.87470533  0.04120233  0.09132357  1.0
  Ni  Ni88  1  0.87470533  0.37453567  0.09132357  1.0
  Ni  Ni89  1  0.87470533  0.70786900  0.09132357  1.0
  Ni  Ni90  1  0.29289000  0.04120233  0.05495871  1.0
  Ni  Ni91  1  0.29289000  0.37453567  0.05495871  1.0
  Ni  Ni92  1  0.29289000  0.70786900  0.05495871  1.0
  Ni  Ni93  1  0.62622333  0.04120233  0.05495871  1.0
  Ni  Ni94  1  0.62622333  0.37453567  0.05495871  1.0
  Ni  Ni95  1  0.62622333  0.70786900  0.05495871  1.0
  Ni  Ni96  1  0.95955667  0.04120233  0.05495871  1.0
  Ni  Ni97  1  0.95955667  0.37453567  0.05495871  1.0
  Ni  Ni98  1  0.95955667  0.70786900  0.05495871  1.0
  Ni  Ni99  1  0.12622333  0.04120233  0.12638729  1.0
  Ni  Ni100  1  0.12622333  0.37453567  0.12638729  1.0
  Ni  Ni101  1  0.12622333  0.70786900  0.12638729  1.0
  Ni  Ni102  1  0.45955667  0.04120233  0.12638729  1.0
  Ni  Ni103  1  0.45955667  0.37453567  0.12638729  1.0
  Ni  Ni104  1  0.45955667  0.70786900  0.12638729  1.0
  Ni  Ni105  1  0.79289000  0.04120233  0.12638729  1.0
  Ni  Ni106  1  0.79289000  0.37453567  0.12638729  1.0
  Ni  Ni107  1  0.79289000  0.70786900  0.12638729  1.0
  Ni  Ni108  1  0.29044333  0.12546433  0.12743586  1.0
  Ni  Ni109  1  0.29044333  0.45879767  0.12743586  1.0
  Ni  Ni110  1  0.29044333  0.79213100  0.12743586  1.0
  Ni  Ni111  1  0.62377667  0.12546433  0.12743586  1.0
  Ni  Ni112  1  0.62377667  0.45879767  0.12743586  1.0
  Ni  Ni113  1  0.62377667  0.79213100  0.12743586  1.0
  Ni  Ni114  1  0.95711000  0.12546433  0.12743586  1.0
  Ni  Ni115  1  0.95711000  0.45879767  0.12743586  1.0
  Ni  Ni116  1  0.95711000  0.79213100  0.12743586  1.0
  Ni  Ni117  1  0.12377667  0.12546433  0.05600729  1.0
  Ni  Ni118  1  0.12377667  0.45879767  0.05600729  1.0
  Ni  Ni119  1  0.12377667  0.79213100  0.05600729  1.0
  Ni  Ni120  1  0.45711000  0.12546433  0.05600729  1.0
  Ni  Ni121  1  0.45711000  0.45879767  0.05600729  1.0
  Ni  Ni122  1  0.45711000  0.79213100  0.05600729  1.0
  Ni  Ni123  1  0.79044333  0.12546433  0.05600729  1.0
  Ni  Ni124  1  0.79044333  0.45879767  0.05600729  1.0
  Ni  Ni125  1  0.79044333  0.79213100  0.05600729  1.0
  Ni  Ni126  1  0.29137200  0.20786900  0.05178614  1.0
  Ni  Ni127  1  0.29137200  0.54120233  0.05178614  1.0
  Ni  Ni128  1  0.29137200  0.87453567  0.05178614  1.0
  Ni  Ni129  1  0.62470533  0.20786900  0.05178614  1.0
  Ni  Ni130  1  0.62470533  0.54120233  0.05178614  1.0
  Ni  Ni131  1  0.62470533  0.87453567  0.05178614  1.0
  Ni  Ni132  1  0.95803867  0.20786900  0.05178614  1.0
  Ni  Ni133  1  0.95803867  0.54120233  0.05178614  1.0
  Ni  Ni134  1  0.95803867  0.87453567  0.05178614  1.0
  Ni  Ni135  1  0.12470533  0.20786900  0.12321471  1.0
  Ni  Ni136  1  0.12470533  0.54120233  0.12321471  1.0
  Ni  Ni137  1  0.12470533  0.87453567  0.12321471  1.0
  Ni  Ni138  1  0.45803867  0.20786900  0.12321471  1.0
  Ni  Ni139  1  0.45803867  0.54120233  0.12321471  1.0
  Ni  Ni140  1  0.45803867  0.87453567  0.12321471  1.0
  Ni  Ni141  1  0.79137200  0.20786900  0.12321471  1.0
  Ni  Ni142  1  0.79137200  0.54120233  0.12321471  1.0
  Ni  Ni143  1  0.79137200  0.87453567  0.12321471  1.0
  Ni  Ni144  1  0.12529467  0.29213100  0.05153357  1.0
  Ni  Ni145  1  0.12529467  0.62546433  0.05153357  1.0
  Ni  Ni146  1  0.12529467  0.95879767  0.05153357  1.0
  Ni  Ni147  1  0.45862800  0.29213100  0.05153357  1.0
  Ni  Ni148  1  0.45862800  0.62546433  0.05153357  1.0
  Ni  Ni149  1  0.45862800  0.95879767  0.05153357  1.0
  Ni  Ni150  1  0.79196133  0.29213100  0.05153357  1.0
  Ni  Ni151  1  0.79196133  0.62546433  0.05153357  1.0
  Ni  Ni152  1  0.79196133  0.95879767  0.05153357  1.0
  Ni  Ni153  1  0.29196133  0.29213100  0.12296214  1.0
  Ni  Ni154  1  0.29196133  0.62546433  0.12296214  1.0
  Ni  Ni155  1  0.29196133  0.95879767  0.12296214  1.0
  Ni  Ni156  1  0.62529467  0.29213100  0.12296214  1.0
  Ni  Ni157  1  0.62529467  0.62546433  0.12296214  1.0
  Ni  Ni158  1  0.62529467  0.95879767  0.12296214  1.0
  Ni  Ni159  1  0.95862800  0.29213100  0.12296214  1.0
  Ni  Ni160  1  0.95862800  0.62546433  0.12296214  1.0
  Ni  Ni161  1  0.95862800  0.95879767  0.12296214  1.0
  Ni  Ni162  1  0.16681900  0.29151433  0.13006457  1.0
  Ni  Ni163  1  0.16681900  0.62484767  0.13006457  1.0
  Ni  Ni164  1  0.16681900  0.95818100  0.13006457  1.0
  Ni  Ni165  1  0.50015233  0.29151433  0.13006457  1.0
  Ni  Ni166  1  0.50015233  0.62484767  0.13006457  1.0
  Ni  Ni167  1  0.50015233  0.95818100  0.13006457  1.0
  Ni  Ni168  1  0.83348567  0.29151433  0.13006457  1.0
  Ni  Ni169  1  0.83348567  0.62484767  0.13006457  1.0
  Ni  Ni170  1  0.83348567  0.95818100  0.13006457  1.0
  Ni  Ni171  1  0.00015233  0.29151433  0.05863600  1.0
  Ni  Ni172  1  0.00015233  0.62484767  0.05863600  1.0
  Ni  Ni173  1  0.00015233  0.95818100  0.05863600  1.0
  Ni  Ni174  1  0.33348567  0.29151433  0.05863600  1.0
  Ni  Ni175  1  0.33348567  0.62484767  0.05863600  1.0
  Ni  Ni176  1  0.33348567  0.95818100  0.05863600  1.0
  Ni  Ni177  1  0.66681900  0.29151433  0.05863600  1.0
  Ni  Ni178  1  0.66681900  0.62484767  0.05863600  1.0
  Ni  Ni179  1  0.66681900  0.95818100  0.05863600  1.0
  Ni  Ni180  1  0.20711000  0.29213100  0.01646986  1.0
  Ni  Ni181  1  0.20711000  0.62546433  0.01646986  1.0
  Ni  Ni182  1  0.20711000  0.95879767  0.01646986  1.0
  Ni  Ni183  1  0.54044333  0.29213100  0.01646986  1.0
  Ni  Ni184  1  0.54044333  0.62546433  0.01646986  1.0
  Ni  Ni185  1  0.54044333  0.95879767  0.01646986  1.0
  Ni  Ni186  1  0.87377667  0.29213100  0.01646986  1.0
  Ni  Ni187  1  0.87377667  0.62546433  0.01646986  1.0
  Ni  Ni188  1  0.87377667  0.95879767  0.01646986  1.0
  Ni  Ni189  1  0.04044333  0.29213100  0.08789843  1.0
  Ni  Ni190  1  0.04044333  0.62546433  0.08789843  1.0
  Ni  Ni191  1  0.04044333  0.95879767  0.08789843  1.0
  Ni  Ni192  1  0.37377667  0.29213100  0.08789843  1.0
  Ni  Ni193  1  0.37377667  0.62546433  0.08789843  1.0
  Ni  Ni194  1  0.37377667  0.95879767  0.08789843  1.0
  Ni  Ni195  1  0.70711000  0.29213100  0.08789843  1.0
  Ni  Ni196  1  0.70711000  0.62546433  0.08789843  1.0
  Ni  Ni197  1  0.70711000  0.95879767  0.08789843  1.0
  Ni  Ni198  1  0.33318100  0.04181900  0.08422114  1.0
  Ni  Ni199  1  0.33318100  0.37515233  0.08422114  1.0
  Ni  Ni200  1  0.33318100  0.70848567  0.08422114  1.0
  Ni  Ni201  1  0.66651433  0.04181900  0.08422114  1.0
  Ni  Ni202  1  0.66651433  0.37515233  0.08422114  1.0
  Ni  Ni203  1  0.66651433  0.70848567  0.08422114  1.0
  Ni  Ni204  1  0.99984767  0.04181900  0.08422114  1.0
  Ni  Ni205  1  0.99984767  0.37515233  0.08422114  1.0
  Ni  Ni206  1  0.99984767  0.70848567  0.08422114  1.0
  Ni  Ni207  1  0.16651433  0.04181900  0.01279257  1.0
  Ni  Ni208  1  0.16651433  0.37515233  0.01279257  1.0
  Ni  Ni209  1  0.16651433  0.70848567  0.01279257  1.0
  Ni  Ni210  1  0.49984767  0.04181900  0.01279257  1.0
  Ni  Ni211  1  0.49984767  0.37515233  0.01279257  1.0
  Ni  Ni212  1  0.49984767  0.70848567  0.01279257  1.0
  Ni  Ni213  1  0.83318100  0.04181900  0.01279257  1.0
  Ni  Ni214  1  0.83318100  0.37515233  0.01279257  1.0
  Ni  Ni215  1  0.83318100  0.70848567  0.01279257  1.0
  Sn  Sn216  1  0.25931767  0.19901567  0.11188871  1.0
  Sn  Sn217  1  0.25931767  0.53234900  0.11188871  1.0
  Sn  Sn218  1  0.25931767  0.86568233  0.11188871  1.0
  Sn  Sn219  1  0.59265100  0.19901567  0.11188871  1.0
  Sn  Sn220  1  0.59265100  0.53234900  0.11188871  1.0
  Sn  Sn221  1  0.59265100  0.86568233  0.11188871  1.0
  Sn  Sn222  1  0.92598433  0.19901567  0.11188871  1.0
  Sn  Sn223  1  0.92598433  0.53234900  0.11188871  1.0
  Sn  Sn224  1  0.92598433  0.86568233  0.11188871  1.0
  Sn  Sn225  1  0.09265100  0.19901567  0.04046014  1.0
  Sn  Sn226  1  0.09265100  0.53234900  0.04046014  1.0
  Sn  Sn227  1  0.09265100  0.86568233  0.04046014  1.0
  Sn  Sn228  1  0.42598433  0.19901567  0.04046014  1.0
  Sn  Sn229  1  0.42598433  0.53234900  0.04046014  1.0
  Sn  Sn230  1  0.42598433  0.86568233  0.04046014  1.0
  Sn  Sn231  1  0.75931767  0.19901567  0.04046014  1.0
  Sn  Sn232  1  0.75931767  0.53234900  0.04046014  1.0
  Sn  Sn233  1  0.75931767  0.86568233  0.04046014  1.0
  Sn  Sn234  1  0.00587300  0.11912700  0.01153643  1.0
  Sn  Sn235  1  0.00587300  0.45246033  0.01153643  1.0
  Sn  Sn236  1  0.00587300  0.78579367  0.01153643  1.0
  Sn  Sn237  1  0.33920633  0.11912700  0.01153643  1.0
  Sn  Sn238  1  0.33920633  0.45246033  0.01153643  1.0
  Sn  Sn239  1  0.33920633  0.78579367  0.01153643  1.0
  Sn  Sn240  1  0.67253967  0.11912700  0.01153643  1.0
  Sn  Sn241  1  0.67253967  0.45246033  0.01153643  1.0
  Sn  Sn242  1  0.67253967  0.78579367  0.01153643  1.0
  Sn  Sn243  1  0.17253967  0.11912700  0.08296500  1.0
  Sn  Sn244  1  0.17253967  0.45246033  0.08296500  1.0
  Sn  Sn245  1  0.17253967  0.78579367  0.08296500  1.0
  Sn  Sn246  1  0.50587300  0.11912700  0.08296500  1.0
  Sn  Sn247  1  0.50587300  0.45246033  0.08296500  1.0
  Sn  Sn248  1  0.50587300  0.78579367  0.08296500  1.0
  Sn  Sn249  1  0.83920633  0.11912700  0.08296500  1.0
  Sn  Sn250  1  0.83920633  0.45246033  0.08296500  1.0
  Sn  Sn251  1  0.83920633  0.78579367  0.08296500  1.0
  Sn  Sn252  1  0.16079367  0.21420633  0.05989214  1.0
  Sn  Sn253  1  0.16079367  0.54753967  0.05989214  1.0
  Sn  Sn254  1  0.16079367  0.88087300  0.05989214  1.0
  Sn  Sn255  1  0.49412700  0.21420633  0.05989214  1.0
  Sn  Sn256  1  0.49412700  0.54753967  0.05989214  1.0
  Sn  Sn257  1  0.49412700  0.88087300  0.05989214  1.0
  Sn  Sn258  1  0.82746033  0.21420633  0.05989214  1.0
  Sn  Sn259  1  0.82746033  0.54753967  0.05989214  1.0
  Sn  Sn260  1  0.82746033  0.88087300  0.05989214  1.0
  Sn  Sn261  1  0.32746033  0.21420633  0.13132071  1.0
  Sn  Sn262  1  0.32746033  0.54753967  0.13132071  1.0
  Sn  Sn263  1  0.32746033  0.88087300  0.13132071  1.0
  Sn  Sn264  1  0.66079367  0.21420633  0.13132071  1.0
  Sn  Sn265  1  0.66079367  0.54753967  0.13132071  1.0
  Sn  Sn266  1  0.66079367  0.88087300  0.13132071  1.0
  Sn  Sn267  1  0.99412700  0.21420633  0.13132071  1.0
  Sn  Sn268  1  0.99412700  0.54753967  0.13132071  1.0
  Sn  Sn269  1  0.99412700  0.88087300  0.13132071  1.0
  Sn  Sn270  1  0.08920633  0.28579367  0.01914386  1.0
  Sn  Sn271  1  0.08920633  0.61912700  0.01914386  1.0
  Sn  Sn272  1  0.08920633  0.95246033  0.01914386  1.0
  Sn  Sn273  1  0.42253967  0.28579367  0.01914386  1.0
  Sn  Sn274  1  0.42253967  0.61912700  0.01914386  1.0
  Sn  Sn275  1  0.42253967  0.95246033  0.01914386  1.0
  Sn  Sn276  1  0.75587300  0.28579367  0.01914386  1.0
  Sn  Sn277  1  0.75587300  0.61912700  0.01914386  1.0
  Sn  Sn278  1  0.75587300  0.95246033  0.01914386  1.0
  Sn  Sn279  1  0.25587300  0.28579367  0.09057243  1.0
  Sn  Sn280  1  0.25587300  0.61912700  0.09057243  1.0
  Sn  Sn281  1  0.25587300  0.95246033  0.09057243  1.0
  Sn  Sn282  1  0.58920633  0.28579367  0.09057243  1.0
  Sn  Sn283  1  0.58920633  0.61912700  0.09057243  1.0
  Sn  Sn284  1  0.58920633  0.95246033  0.09057243  1.0
  Sn  Sn285  1  0.92253967  0.28579367  0.09057243  1.0
  Sn  Sn286  1  0.92253967  0.61912700  0.09057243  1.0
  Sn  Sn287  1  0.92253967  0.95246033  0.09057243  1.0
  Sn  Sn288  1  0.07746033  0.04753967  0.05228471  1.0
  Sn  Sn289  1  0.07746033  0.38087300  0.05228471  1.0
  Sn  Sn290  1  0.07746033  0.71420633  0.05228471  1.0
  Sn  Sn291  1  0.41079367  0.04753967  0.05228471  1.0
  Sn  Sn292  1  0.41079367  0.38087300  0.05228471  1.0
  Sn  Sn293  1  0.41079367  0.71420633  0.05228471  1.0
  Sn  Sn294  1  0.74412700  0.04753967  0.05228471  1.0
  Sn  Sn295  1  0.74412700  0.38087300  0.05228471  1.0
  Sn  Sn296  1  0.74412700  0.71420633  0.05228471  1.0
  Sn  Sn297  1  0.24412700  0.04753967  0.12371329  1.0
  Sn  Sn298  1  0.24412700  0.38087300  0.12371329  1.0
  Sn  Sn299  1  0.24412700  0.71420633  0.12371329  1.0
  Sn  Sn300  1  0.57746033  0.04753967  0.12371329  1.0
  Sn  Sn301  1  0.57746033  0.38087300  0.12371329  1.0
  Sn  Sn302  1  0.57746033  0.71420633  0.12371329  1.0
  Sn  Sn303  1  0.91079367  0.04753967  0.12371329  1.0
  Sn  Sn304  1  0.91079367  0.38087300  0.12371329  1.0
  Sn  Sn305  1  0.91079367  0.71420633  0.12371329  1.0
  Sn  Sn306  1  0.15734900  0.30098433  0.08416100  1.0
  Sn  Sn307  1  0.15734900  0.63431767  0.08416100  1.0
  Sn  Sn308  1  0.15734900  0.96765100  0.08416100  1.0
  Sn  Sn309  1  0.49068233  0.30098433  0.08416100  1.0
  Sn  Sn310  1  0.49068233  0.63431767  0.08416100  1.0
  Sn  Sn311  1  0.49068233  0.96765100  0.08416100  1.0
  Sn  Sn312  1  0.82401567  0.30098433  0.08416100  1.0
  Sn  Sn313  1  0.82401567  0.63431767  0.08416100  1.0
  Sn  Sn314  1  0.82401567  0.96765100  0.08416100  1.0
  Sn  Sn315  1  0.32401567  0.30098433  0.01273243  1.0
  Sn  Sn316  1  0.32401567  0.63431767  0.01273243  1.0
  Sn  Sn317  1  0.32401567  0.96765100  0.01273243  1.0
  Sn  Sn318  1  0.65734900  0.30098433  0.01273243  1.0
  Sn  Sn319  1  0.65734900  0.63431767  0.01273243  1.0
  Sn  Sn320  1  0.65734900  0.96765100  0.01273243  1.0
  Sn  Sn321  1  0.99068233  0.30098433  0.01273243  1.0
  Sn  Sn322  1  0.99068233  0.63431767  0.01273243  1.0
  Sn  Sn323  1  0.99068233  0.96765100  0.01273243  1.0
  Sn  Sn324  1  0.24068233  0.13431767  0.10239700  1.0
  Sn  Sn325  1  0.24068233  0.46765100  0.10239700  1.0
  Sn  Sn326  1  0.24068233  0.80098433  0.10239700  1.0
  Sn  Sn327  1  0.57401567  0.13431767  0.10239700  1.0
  Sn  Sn328  1  0.57401567  0.46765100  0.10239700  1.0
  Sn  Sn329  1  0.57401567  0.80098433  0.10239700  1.0
  Sn  Sn330  1  0.90734900  0.13431767  0.10239700  1.0
  Sn  Sn331  1  0.90734900  0.46765100  0.10239700  1.0
  Sn  Sn332  1  0.90734900  0.80098433  0.10239700  1.0
  Sn  Sn333  1  0.07401567  0.13431767  0.03096843  1.0
  Sn  Sn334  1  0.07401567  0.46765100  0.03096843  1.0
  Sn  Sn335  1  0.07401567  0.80098433  0.03096843  1.0
  Sn  Sn336  1  0.40734900  0.13431767  0.03096843  1.0
  Sn  Sn337  1  0.40734900  0.46765100  0.03096843  1.0
  Sn  Sn338  1  0.40734900  0.80098433  0.03096843  1.0
  Sn  Sn339  1  0.74068233  0.13431767  0.03096843  1.0
  Sn  Sn340  1  0.74068233  0.46765100  0.03096843  1.0
  Sn  Sn341  1  0.74068233  0.80098433  0.03096843  1.0
  Sn  Sn342  1  0.00931767  0.03234900  0.13012471  1.0
  Sn  Sn343  1  0.00931767  0.36568233  0.13012471  1.0
  Sn  Sn344  1  0.00931767  0.69901567  0.13012471  1.0
  Sn  Sn345  1  0.34265100  0.03234900  0.13012471  1.0
  Sn  Sn346  1  0.34265100  0.36568233  0.13012471  1.0
  Sn  Sn347  1  0.34265100  0.69901567  0.13012471  1.0
  Sn  Sn348  1  0.67598433  0.03234900  0.13012471  1.0
  Sn  Sn349  1  0.67598433  0.36568233  0.13012471  1.0
  Sn  Sn350  1  0.67598433  0.69901567  0.13012471  1.0
  Sn  Sn351  1  0.17598433  0.03234900  0.05869614  1.0
  Sn  Sn352  1  0.17598433  0.36568233  0.05869614  1.0
  Sn  Sn353  1  0.17598433  0.69901567  0.05869614  1.0
  Sn  Sn354  1  0.50931767  0.03234900  0.05869614  1.0
  Sn  Sn355  1  0.50931767  0.36568233  0.05869614  1.0
  Sn  Sn356  1  0.50931767  0.69901567  0.05869614  1.0
  Sn  Sn357  1  0.84265100  0.03234900  0.05869614  1.0
  Sn  Sn358  1  0.84265100  0.36568233  0.05869614  1.0
  Sn  Sn359  1  0.84265100  0.69901567  0.05869614  1.0
  Ni  Ni360  1  0.24984767  0.20848567  0.16590943  1.0
  Ni  Ni361  1  0.24984767  0.54181900  0.16590943  1.0
  Ni  Ni362  1  0.24984767  0.87515233  0.16590943  1.0
  Ni  Ni363  1  0.58318100  0.20848567  0.16590943  1.0
  Ni  Ni364  1  0.58318100  0.54181900  0.16590943  1.0
  Ni  Ni365  1  0.58318100  0.87515233  0.16590943  1.0
  Ni  Ni366  1  0.91651433  0.20848567  0.16590943  1.0
  Ni  Ni367  1  0.91651433  0.54181900  0.16590943  1.0
  Ni  Ni368  1  0.91651433  0.87515233  0.16590943  1.0
  Ni  Ni369  1  0.08318100  0.20848567  0.23733800  1.0
  Ni  Ni370  1  0.08318100  0.54181900  0.23733800  1.0
  Ni  Ni371  1  0.08318100  0.87515233  0.23733800  1.0
  Ni  Ni372  1  0.41651433  0.20848567  0.23733800  1.0
  Ni  Ni373  1  0.41651433  0.54181900  0.23733800  1.0
  Ni  Ni374  1  0.41651433  0.87515233  0.23733800  1.0
  Ni  Ni375  1  0.74984767  0.20848567  0.23733800  1.0
  Ni  Ni376  1  0.74984767  0.54181900  0.23733800  1.0
  Ni  Ni377  1  0.74984767  0.87515233  0.23733800  1.0
  Ni  Ni378  1  0.25015233  0.12484767  0.19123343  1.0
  Ni  Ni379  1  0.25015233  0.45818100  0.19123343  1.0
  Ni  Ni380  1  0.25015233  0.79151433  0.19123343  1.0
  Ni  Ni381  1  0.58348567  0.12484767  0.19123343  1.0
  Ni  Ni382  1  0.58348567  0.45818100  0.19123343  1.0
  Ni  Ni383  1  0.58348567  0.79151433  0.19123343  1.0
  Ni  Ni384  1  0.91681900  0.12484767  0.19123343  1.0
  Ni  Ni385  1  0.91681900  0.45818100  0.19123343  1.0
  Ni  Ni386  1  0.91681900  0.79151433  0.19123343  1.0
  Ni  Ni387  1  0.08348567  0.12484767  0.26266200  1.0
  Ni  Ni388  1  0.08348567  0.45818100  0.26266200  1.0
  Ni  Ni389  1  0.08348567  0.79151433  0.26266200  1.0
  Ni  Ni390  1  0.41681900  0.12484767  0.26266200  1.0
  Ni  Ni391  1  0.41681900  0.45818100  0.26266200  1.0
  Ni  Ni392  1  0.41681900  0.79151433  0.26266200  1.0
  Ni  Ni393  1  0.75015233  0.12484767  0.26266200  1.0
  Ni  Ni394  1  0.75015233  0.45818100  0.26266200  1.0
  Ni  Ni395  1  0.75015233  0.79151433  0.26266200  1.0
  Ni  Ni396  1  0.20955667  0.20786900  0.22970700  1.0
  Ni  Ni397  1  0.20955667  0.54120233  0.22970700  1.0
  Ni  Ni398  1  0.20955667  0.87453567  0.22970700  1.0
  Ni  Ni399  1  0.54289000  0.20786900  0.22970700  1.0
  Ni  Ni400  1  0.54289000  0.54120233  0.22970700  1.0
  Ni  Ni401  1  0.54289000  0.87453567  0.22970700  1.0
  Ni  Ni402  1  0.87622333  0.20786900  0.22970700  1.0
  Ni  Ni403  1  0.87622333  0.54120233  0.22970700  1.0
  Ni  Ni404  1  0.87622333  0.87453567  0.22970700  1.0
  Ni  Ni405  1  0.04289000  0.20786900  0.15827843  1.0
  Ni  Ni406  1  0.04289000  0.54120233  0.15827843  1.0
  Ni  Ni407  1  0.04289000  0.87453567  0.15827843  1.0
  Ni  Ni408  1  0.37622333  0.20786900  0.15827843  1.0
  Ni  Ni409  1  0.37622333  0.54120233  0.15827843  1.0
  Ni  Ni410  1  0.37622333  0.87453567  0.15827843  1.0
  Ni  Ni411  1  0.70955667  0.20786900  0.15827843  1.0
  Ni  Ni412  1  0.70955667  0.54120233  0.15827843  1.0
  Ni  Ni413  1  0.70955667  0.87453567  0.15827843  1.0
  Ni  Ni414  1  0.20862800  0.12546433  0.16249957  1.0
  Ni  Ni415  1  0.20862800  0.45879767  0.16249957  1.0
  Ni  Ni416  1  0.20862800  0.79213100  0.16249957  1.0
  Ni  Ni417  1  0.54196133  0.12546433  0.16249957  1.0
  Ni  Ni418  1  0.54196133  0.45879767  0.16249957  1.0
  Ni  Ni419  1  0.54196133  0.79213100  0.16249957  1.0
  Ni  Ni420  1  0.87529467  0.12546433  0.16249957  1.0
  Ni  Ni421  1  0.87529467  0.45879767  0.16249957  1.0
  Ni  Ni422  1  0.87529467  0.79213100  0.16249957  1.0
  Ni  Ni423  1  0.04196133  0.12546433  0.23392814  1.0
  Ni  Ni424  1  0.04196133  0.45879767  0.23392814  1.0
  Ni  Ni425  1  0.04196133  0.79213100  0.23392814  1.0
  Ni  Ni426  1  0.37529467  0.12546433  0.23392814  1.0
  Ni  Ni427  1  0.37529467  0.45879767  0.23392814  1.0
  Ni  Ni428  1  0.37529467  0.79213100  0.23392814  1.0
  Ni  Ni429  1  0.70862800  0.12546433  0.23392814  1.0
  Ni  Ni430  1  0.70862800  0.45879767  0.23392814  1.0
  Ni  Ni431  1  0.70862800  0.79213100  0.23392814  1.0
  Ni  Ni432  1  0.04137200  0.04120233  0.16275214  1.0
  Ni  Ni433  1  0.04137200  0.37453567  0.16275214  1.0
  Ni  Ni434  1  0.04137200  0.70786900  0.16275214  1.0
  Ni  Ni435  1  0.37470533  0.04120233  0.16275214  1.0
  Ni  Ni436  1  0.37470533  0.37453567  0.16275214  1.0
  Ni  Ni437  1  0.37470533  0.70786900  0.16275214  1.0
  Ni  Ni438  1  0.70803867  0.04120233  0.16275214  1.0
  Ni  Ni439  1  0.70803867  0.37453567  0.16275214  1.0
  Ni  Ni440  1  0.70803867  0.70786900  0.16275214  1.0
  Ni  Ni441  1  0.20803867  0.04120233  0.23418071  1.0
  Ni  Ni442  1  0.20803867  0.37453567  0.23418071  1.0
  Ni  Ni443  1  0.20803867  0.70786900  0.23418071  1.0
  Ni  Ni444  1  0.54137200  0.04120233  0.23418071  1.0
  Ni  Ni445  1  0.54137200  0.37453567  0.23418071  1.0
  Ni  Ni446  1  0.54137200  0.70786900  0.23418071  1.0
  Ni  Ni447  1  0.87470533  0.04120233  0.23418071  1.0
  Ni  Ni448  1  0.87470533  0.37453567  0.23418071  1.0
  Ni  Ni449  1  0.87470533  0.70786900  0.23418071  1.0
  Ni  Ni450  1  0.29289000  0.04120233  0.19781586  1.0
  Ni  Ni451  1  0.29289000  0.37453567  0.19781586  1.0
  Ni  Ni452  1  0.29289000  0.70786900  0.19781586  1.0
  Ni  Ni453  1  0.62622333  0.04120233  0.19781586  1.0
  Ni  Ni454  1  0.62622333  0.37453567  0.19781586  1.0
  Ni  Ni455  1  0.62622333  0.70786900  0.19781586  1.0
  Ni  Ni456  1  0.95955667  0.04120233  0.19781586  1.0
  Ni  Ni457  1  0.95955667  0.37453567  0.19781586  1.0
  Ni  Ni458  1  0.95955667  0.70786900  0.19781586  1.0
  Ni  Ni459  1  0.12622333  0.04120233  0.26924443  1.0
  Ni  Ni460  1  0.12622333  0.37453567  0.26924443  1.0
  Ni  Ni461  1  0.12622333  0.70786900  0.26924443  1.0
  Ni  Ni462  1  0.45955667  0.04120233  0.26924443  1.0
  Ni  Ni463  1  0.45955667  0.37453567  0.26924443  1.0
  Ni  Ni464  1  0.45955667  0.70786900  0.26924443  1.0
  Ni  Ni465  1  0.79289000  0.04120233  0.26924443  1.0
  Ni  Ni466  1  0.79289000  0.37453567  0.26924443  1.0
  Ni  Ni467  1  0.79289000  0.70786900  0.26924443  1.0
  Ni  Ni468  1  0.29044333  0.12546433  0.27029300  1.0
  Ni  Ni469  1  0.29044333  0.45879767  0.27029300  1.0
  Ni  Ni470  1  0.29044333  0.79213100  0.27029300  1.0
  Ni  Ni471  1  0.62377667  0.12546433  0.27029300  1.0
  Ni  Ni472  1  0.62377667  0.45879767  0.27029300  1.0
  Ni  Ni473  1  0.62377667  0.79213100  0.27029300  1.0
  Ni  Ni474  1  0.95711000  0.12546433  0.27029300  1.0
  Ni  Ni475  1  0.95711000  0.45879767  0.27029300  1.0
  Ni  Ni476  1  0.95711000  0.79213100  0.27029300  1.0
  Ni  Ni477  1  0.12377667  0.12546433  0.19886443  1.0
  Ni  Ni478  1  0.12377667  0.45879767  0.19886443  1.0
  Ni  Ni479  1  0.12377667  0.79213100  0.19886443  1.0
  Ni  Ni480  1  0.45711000  0.12546433  0.19886443  1.0
  Ni  Ni481  1  0.45711000  0.45879767  0.19886443  1.0
  Ni  Ni482  1  0.45711000  0.79213100  0.19886443  1.0
  Ni  Ni483  1  0.79044333  0.12546433  0.19886443  1.0
  Ni  Ni484  1  0.79044333  0.45879767  0.19886443  1.0
  Ni  Ni485  1  0.79044333  0.79213100  0.19886443  1.0
  Ni  Ni486  1  0.29137200  0.20786900  0.19464329  1.0
  Ni  Ni487  1  0.29137200  0.54120233  0.19464329  1.0
  Ni  Ni488  1  0.29137200  0.87453567  0.19464329  1.0
  Ni  Ni489  1  0.62470533  0.20786900  0.19464329  1.0
  Ni  Ni490  1  0.62470533  0.54120233  0.19464329  1.0
  Ni  Ni491  1  0.62470533  0.87453567  0.19464329  1.0
  Ni  Ni492  1  0.95803867  0.20786900  0.19464329  1.0
  Ni  Ni493  1  0.95803867  0.54120233  0.19464329  1.0
  Ni  Ni494  1  0.95803867  0.87453567  0.19464329  1.0
  Ni  Ni495  1  0.12470533  0.20786900  0.26607186  1.0
  Ni  Ni496  1  0.12470533  0.54120233  0.26607186  1.0
  Ni  Ni497  1  0.12470533  0.87453567  0.26607186  1.0
  Ni  Ni498  1  0.45803867  0.20786900  0.26607186  1.0
  Ni  Ni499  1  0.45803867  0.54120233  0.26607186  1.0
  Ni  Ni500  1  0.45803867  0.87453567  0.26607186  1.0
  Ni  Ni501  1  0.79137200  0.20786900  0.26607186  1.0
  Ni  Ni502  1  0.79137200  0.54120233  0.26607186  1.0
  Ni  Ni503  1  0.79137200  0.87453567  0.26607186  1.0
  Ni  Ni504  1  0.12529467  0.29213100  0.19439071  1.0
  Ni  Ni505  1  0.12529467  0.62546433  0.19439071  1.0
  Ni  Ni506  1  0.12529467  0.95879767  0.19439071  1.0
  Ni  Ni507  1  0.45862800  0.29213100  0.19439071  1.0
  Ni  Ni508  1  0.45862800  0.62546433  0.19439071  1.0
  Ni  Ni509  1  0.45862800  0.95879767  0.19439071  1.0
  Ni  Ni510  1  0.79196133  0.29213100  0.19439071  1.0
  Ni  Ni511  1  0.79196133  0.62546433  0.19439071  1.0
  Ni  Ni512  1  0.79196133  0.95879767  0.19439071  1.0
  Ni  Ni513  1  0.29196133  0.29213100  0.26581929  1.0
  Ni  Ni514  1  0.29196133  0.62546433  0.26581929  1.0
  Ni  Ni515  1  0.29196133  0.95879767  0.26581929  1.0
  Ni  Ni516  1  0.62529467  0.29213100  0.26581929  1.0
  Ni  Ni517  1  0.62529467  0.62546433  0.26581929  1.0
  Ni  Ni518  1  0.62529467  0.95879767  0.26581929  1.0
  Ni  Ni519  1  0.95862800  0.29213100  0.26581929  1.0
  Ni  Ni520  1  0.95862800  0.62546433  0.26581929  1.0
  Ni  Ni521  1  0.95862800  0.95879767  0.26581929  1.0
  Ni  Ni522  1  0.16681900  0.29151433  0.27292171  1.0
  Ni  Ni523  1  0.16681900  0.62484767  0.27292171  1.0
  Ni  Ni524  1  0.16681900  0.95818100  0.27292171  1.0
  Ni  Ni525  1  0.50015233  0.29151433  0.27292171  1.0
  Ni  Ni526  1  0.50015233  0.62484767  0.27292171  1.0
  Ni  Ni527  1  0.50015233  0.95818100  0.27292171  1.0
  Ni  Ni528  1  0.83348567  0.29151433  0.27292171  1.0
  Ni  Ni529  1  0.83348567  0.62484767  0.27292171  1.0
  Ni  Ni530  1  0.83348567  0.95818100  0.27292171  1.0
  Ni  Ni531  1  0.00015233  0.29151433  0.20149314  1.0
  Ni  Ni532  1  0.00015233  0.62484767  0.20149314  1.0
  Ni  Ni533  1  0.00015233  0.95818100  0.20149314  1.0
  Ni  Ni534  1  0.33348567  0.29151433  0.20149314  1.0
  Ni  Ni535  1  0.33348567  0.62484767  0.20149314  1.0
  Ni  Ni536  1  0.33348567  0.95818100  0.20149314  1.0
  Ni  Ni537  1  0.66681900  0.29151433  0.20149314  1.0
  Ni  Ni538  1  0.66681900  0.62484767  0.20149314  1.0
  Ni  Ni539  1  0.66681900  0.95818100  0.20149314  1.0
  Ni  Ni540  1  0.20711000  0.29213100  0.15932700  1.0
  Ni  Ni541  1  0.20711000  0.62546433  0.15932700  1.0
  Ni  Ni542  1  0.20711000  0.95879767  0.15932700  1.0
  Ni  Ni543  1  0.54044333  0.29213100  0.15932700  1.0
  Ni  Ni544  1  0.54044333  0.62546433  0.15932700  1.0
  Ni  Ni545  1  0.54044333  0.95879767  0.15932700  1.0
  Ni  Ni546  1  0.87377667  0.29213100  0.15932700  1.0
  Ni  Ni547  1  0.87377667  0.62546433  0.15932700  1.0
  Ni  Ni548  1  0.87377667  0.95879767  0.15932700  1.0
  Ni  Ni549  1  0.04044333  0.29213100  0.23075557  1.0
  Ni  Ni550  1  0.04044333  0.62546433  0.23075557  1.0
  Ni  Ni551  1  0.04044333  0.95879767  0.23075557  1.0
  Ni  Ni552  1  0.37377667  0.29213100  0.23075557  1.0
  Ni  Ni553  1  0.37377667  0.62546433  0.23075557  1.0
  Ni  Ni554  1  0.37377667  0.95879767  0.23075557  1.0
  Ni  Ni555  1  0.70711000  0.29213100  0.23075557  1.0
  Ni  Ni556  1  0.70711000  0.62546433  0.23075557  1.0
  Ni  Ni557  1  0.70711000  0.95879767  0.23075557  1.0
  Ni  Ni558  1  0.33318100  0.04181900  0.22707829  1.0
  Ni  Ni559  1  0.33318100  0.37515233  0.22707829  1.0
  Ni  Ni560  1  0.33318100  0.70848567  0.22707829  1.0
  Ni  Ni561  1  0.66651433  0.04181900  0.22707829  1.0
  Ni  Ni562  1  0.66651433  0.37515233  0.22707829  1.0
  Ni  Ni563  1  0.66651433  0.70848567  0.22707829  1.0
  Ni  Ni564  1  0.99984767  0.04181900  0.22707829  1.0
  Ni  Ni565  1  0.99984767  0.37515233  0.22707829  1.0
  Ni  Ni566  1  0.99984767  0.70848567  0.22707829  1.0
  Ni  Ni567  1  0.16651433  0.04181900  0.15564971  1.0
  Ni  Ni568  1  0.16651433  0.37515233  0.15564971  1.0
  Ni  Ni569  1  0.16651433  0.70848567  0.15564971  1.0
  Ni  Ni570  1  0.49984767  0.04181900  0.15564971  1.0
  Ni  Ni571  1  0.49984767  0.37515233  0.15564971  1.0
  Ni  Ni572  1  0.49984767  0.70848567  0.15564971  1.0
  Ni  Ni573  1  0.83318100  0.04181900  0.15564971  1.0
  Ni  Ni574  1  0.83318100  0.37515233  0.15564971  1.0
  Ni  Ni575  1  0.83318100  0.70848567  0.15564971  1.0
  Sn  Sn576  1  0.25931767  0.19901567  0.25474586  1.0
  Sn  Sn577  1  0.25931767  0.53234900  0.25474586  1.0
  Sn  Sn578  1  0.25931767  0.86568233  0.25474586  1.0
  Sn  Sn579  1  0.59265100  0.19901567  0.25474586  1.0
  Sn  Sn580  1  0.59265100  0.53234900  0.25474586  1.0
  Sn  Sn581  1  0.59265100  0.86568233  0.25474586  1.0
  Sn  Sn582  1  0.92598433  0.19901567  0.25474586  1.0
  Sn  Sn583  1  0.92598433  0.53234900  0.25474586  1.0
  Sn  Sn584  1  0.92598433  0.86568233  0.25474586  1.0
  Sn  Sn585  1  0.09265100  0.19901567  0.18331729  1.0
  Sn  Sn586  1  0.09265100  0.53234900  0.18331729  1.0
  Sn  Sn587  1  0.09265100  0.86568233  0.18331729  1.0
  Sn  Sn588  1  0.42598433  0.19901567  0.18331729  1.0
  Sn  Sn589  1  0.42598433  0.53234900  0.18331729  1.0
  Sn  Sn590  1  0.42598433  0.86568233  0.18331729  1.0
  Sn  Sn591  1  0.75931767  0.19901567  0.18331729  1.0
  Sn  Sn592  1  0.75931767  0.53234900  0.18331729  1.0
  Sn  Sn593  1  0.75931767  0.86568233  0.18331729  1.0
  Sn  Sn594  1  0.00587300  0.11912700  0.15439357  1.0
  Sn  Sn595  1  0.00587300  0.45246033  0.15439357  1.0
  Sn  Sn596  1  0.00587300  0.78579367  0.15439357  1.0
  Sn  Sn597  1  0.33920633  0.11912700  0.15439357  1.0
  Sn  Sn598  1  0.33920633  0.45246033  0.15439357  1.0
  Sn  Sn599  1  0.33920633  0.78579367  0.15439357  1.0
  Sn  Sn600  1  0.67253967  0.11912700  0.15439357  1.0
  Sn  Sn601  1  0.67253967  0.45246033  0.15439357  1.0
  Sn  Sn602  1  0.67253967  0.78579367  0.15439357  1.0
  Sn  Sn603  1  0.17253967  0.11912700  0.22582214  1.0
  Sn  Sn604  1  0.17253967  0.45246033  0.22582214  1.0
  Sn  Sn605  1  0.17253967  0.78579367  0.22582214  1.0
  Sn  Sn606  1  0.50587300  0.11912700  0.22582214  1.0
  Sn  Sn607  1  0.50587300  0.45246033  0.22582214  1.0
  Sn  Sn608  1  0.50587300  0.78579367  0.22582214  1.0
  Sn  Sn609  1  0.83920633  0.11912700  0.22582214  1.0
  Sn  Sn610  1  0.83920633  0.45246033  0.22582214  1.0
  Sn  Sn611  1  0.83920633  0.78579367  0.22582214  1.0
  Sn  Sn612  1  0.16079367  0.21420633  0.20274929  1.0
  Sn  Sn613  1  0.16079367  0.54753967  0.20274929  1.0
  Sn  Sn614  1  0.16079367  0.88087300  0.20274929  1.0
  Sn  Sn615  1  0.49412700  0.21420633  0.20274929  1.0
  Sn  Sn616  1  0.49412700  0.54753967  0.20274929  1.0
  Sn  Sn617  1  0.49412700  0.88087300  0.20274929  1.0
  Sn  Sn618  1  0.82746033  0.21420633  0.20274929  1.0
  Sn  Sn619  1  0.82746033  0.54753967  0.20274929  1.0
  Sn  Sn620  1  0.82746033  0.88087300  0.20274929  1.0
  Sn  Sn621  1  0.32746033  0.21420633  0.27417786  1.0
  Sn  Sn622  1  0.32746033  0.54753967  0.27417786  1.0
  Sn  Sn623  1  0.32746033  0.88087300  0.27417786  1.0
  Sn  Sn624  1  0.66079367  0.21420633  0.27417786  1.0
  Sn  Sn625  1  0.66079367  0.54753967  0.27417786  1.0
  Sn  Sn626  1  0.66079367  0.88087300  0.27417786  1.0
  Sn  Sn627  1  0.99412700  0.21420633  0.27417786  1.0
  Sn  Sn628  1  0.99412700  0.54753967  0.27417786  1.0
  Sn  Sn629  1  0.99412700  0.88087300  0.27417786  1.0
  Sn  Sn630  1  0.08920633  0.28579367  0.16200100  1.0
  Sn  Sn631  1  0.08920633  0.61912700  0.16200100  1.0
  Sn  Sn632  1  0.08920633  0.95246033  0.16200100  1.0
  Sn  Sn633  1  0.42253967  0.28579367  0.16200100  1.0
  Sn  Sn634  1  0.42253967  0.61912700  0.16200100  1.0
  Sn  Sn635  1  0.42253967  0.95246033  0.16200100  1.0
  Sn  Sn636  1  0.75587300  0.28579367  0.16200100  1.0
  Sn  Sn637  1  0.75587300  0.61912700  0.16200100  1.0
  Sn  Sn638  1  0.75587300  0.95246033  0.16200100  1.0
  Sn  Sn639  1  0.25587300  0.28579367  0.23342957  1.0
  Sn  Sn640  1  0.25587300  0.61912700  0.23342957  1.0
  Sn  Sn641  1  0.25587300  0.95246033  0.23342957  1.0
  Sn  Sn642  1  0.58920633  0.28579367  0.23342957  1.0
  Sn  Sn643  1  0.58920633  0.61912700  0.23342957  1.0
  Sn  Sn644  1  0.58920633  0.95246033  0.23342957  1.0
  Sn  Sn645  1  0.92253967  0.28579367  0.23342957  1.0
  Sn  Sn646  1  0.92253967  0.61912700  0.23342957  1.0
  Sn  Sn647  1  0.92253967  0.95246033  0.23342957  1.0
  Sn  Sn648  1  0.07746033  0.04753967  0.19514186  1.0
  Sn  Sn649  1  0.07746033  0.38087300  0.19514186  1.0
  Sn  Sn650  1  0.07746033  0.71420633  0.19514186  1.0
  Sn  Sn651  1  0.41079367  0.04753967  0.19514186  1.0
  Sn  Sn652  1  0.41079367  0.38087300  0.19514186  1.0
  Sn  Sn653  1  0.41079367  0.71420633  0.19514186  1.0
  Sn  Sn654  1  0.74412700  0.04753967  0.19514186  1.0
  Sn  Sn655  1  0.74412700  0.38087300  0.19514186  1.0
  Sn  Sn656  1  0.74412700  0.71420633  0.19514186  1.0
  Sn  Sn657  1  0.24412700  0.04753967  0.26657043  1.0
  Sn  Sn658  1  0.24412700  0.38087300  0.26657043  1.0
  Sn  Sn659  1  0.24412700  0.71420633  0.26657043  1.0
  Sn  Sn660  1  0.57746033  0.04753967  0.26657043  1.0
  Sn  Sn661  1  0.57746033  0.38087300  0.26657043  1.0
  Sn  Sn662  1  0.57746033  0.71420633  0.26657043  1.0
  Sn  Sn663  1  0.91079367  0.04753967  0.26657043  1.0
  Sn  Sn664  1  0.91079367  0.38087300  0.26657043  1.0
  Sn  Sn665  1  0.91079367  0.71420633  0.26657043  1.0
  Sn  Sn666  1  0.15734900  0.30098433  0.22701814  1.0
  Sn  Sn667  1  0.15734900  0.63431767  0.22701814  1.0
  Sn  Sn668  1  0.15734900  0.96765100  0.22701814  1.0
  Sn  Sn669  1  0.49068233  0.30098433  0.22701814  1.0
  Sn  Sn670  1  0.49068233  0.63431767  0.22701814  1.0
  Sn  Sn671  1  0.49068233  0.96765100  0.22701814  1.0
  Sn  Sn672  1  0.82401567  0.30098433  0.22701814  1.0
  Sn  Sn673  1  0.82401567  0.63431767  0.22701814  1.0
  Sn  Sn674  1  0.82401567  0.96765100  0.22701814  1.0
  Sn  Sn675  1  0.32401567  0.30098433  0.15558957  1.0
  Sn  Sn676  1  0.32401567  0.63431767  0.15558957  1.0
  Sn  Sn677  1  0.32401567  0.96765100  0.15558957  1.0
  Sn  Sn678  1  0.65734900  0.30098433  0.15558957  1.0
  Sn  Sn679  1  0.65734900  0.63431767  0.15558957  1.0
  Sn  Sn680  1  0.65734900  0.96765100  0.15558957  1.0
  Sn  Sn681  1  0.99068233  0.30098433  0.15558957  1.0
  Sn  Sn682  1  0.99068233  0.63431767  0.15558957  1.0
  Sn  Sn683  1  0.99068233  0.96765100  0.15558957  1.0
  Sn  Sn684  1  0.24068233  0.13431767  0.24525414  1.0
  Sn  Sn685  1  0.24068233  0.46765100  0.24525414  1.0
  Sn  Sn686  1  0.24068233  0.80098433  0.24525414  1.0
  Sn  Sn687  1  0.57401567  0.13431767  0.24525414  1.0
  Sn  Sn688  1  0.57401567  0.46765100  0.24525414  1.0
  Sn  Sn689  1  0.57401567  0.80098433  0.24525414  1.0
  Sn  Sn690  1  0.90734900  0.13431767  0.24525414  1.0
  Sn  Sn691  1  0.90734900  0.46765100  0.24525414  1.0
  Sn  Sn692  1  0.90734900  0.80098433  0.24525414  1.0
  Sn  Sn693  1  0.07401567  0.13431767  0.17382557  1.0
  Sn  Sn694  1  0.07401567  0.46765100  0.17382557  1.0
  Sn  Sn695  1  0.07401567  0.80098433  0.17382557  1.0
  Sn  Sn696  1  0.40734900  0.13431767  0.17382557  1.0
  Sn  Sn697  1  0.40734900  0.46765100  0.17382557  1.0
  Sn  Sn698  1  0.40734900  0.80098433  0.17382557  1.0
  Sn  Sn699  1  0.74068233  0.13431767  0.17382557  1.0
  Sn  Sn700  1  0.74068233  0.46765100  0.17382557  1.0
  Sn  Sn701  1  0.74068233  0.80098433  0.17382557  1.0
  Sn  Sn702  1  0.00931767  0.03234900  0.27298186  1.0
  Sn  Sn703  1  0.00931767  0.36568233  0.27298186  1.0
  Sn  Sn704  1  0.00931767  0.69901567  0.27298186  1.0
  Sn  Sn705  1  0.34265100  0.03234900  0.27298186  1.0
  Sn  Sn706  1  0.34265100  0.36568233  0.27298186  1.0
  Sn  Sn707  1  0.34265100  0.69901567  0.27298186  1.0
  Sn  Sn708  1  0.67598433  0.03234900  0.27298186  1.0
  Sn  Sn709  1  0.67598433  0.36568233  0.27298186  1.0
  Sn  Sn710  1  0.67598433  0.69901567  0.27298186  1.0
  Sn  Sn711  1  0.17598433  0.03234900  0.20155329  1.0
  Sn  Sn712  1  0.17598433  0.36568233  0.20155329  1.0
  Sn  Sn713  1  0.17598433  0.69901567  0.20155329  1.0
  Sn  Sn714  1  0.50931767  0.03234900  0.20155329  1.0
  Sn  Sn715  1  0.50931767  0.36568233  0.20155329  1.0
  Sn  Sn716  1  0.50931767  0.69901567  0.20155329  1.0
  Sn  Sn717  1  0.84265100  0.03234900  0.20155329  1.0
  Sn  Sn718  1  0.84265100  0.36568233  0.20155329  1.0
  Sn  Sn719  1  0.84265100  0.69901567  0.20155329  1.0
  Ni  Ni720  1  0.24984767  0.20848567  0.30876657  1.0
  Ni  Ni721  1  0.24984767  0.54181900  0.30876657  1.0
  Ni  Ni722  1  0.24984767  0.87515233  0.30876657  1.0
  Ni  Ni723  1  0.58318100  0.20848567  0.30876657  1.0
  Ni  Ni724  1  0.58318100  0.54181900  0.30876657  1.0
  Ni  Ni725  1  0.58318100  0.87515233  0.30876657  1.0
  Ni  Ni726  1  0.91651433  0.20848567  0.30876657  1.0
  Ni  Ni727  1  0.91651433  0.54181900  0.30876657  1.0
  Ni  Ni728  1  0.91651433  0.87515233  0.30876657  1.0
  Ni  Ni729  1  0.08318100  0.20848567  0.38019514  1.0
  Ni  Ni730  1  0.08318100  0.54181900  0.38019514  1.0
  Ni  Ni731  1  0.08318100  0.87515233  0.38019514  1.0
  Ni  Ni732  1  0.41651433  0.20848567  0.38019514  1.0
  Ni  Ni733  1  0.41651433  0.54181900  0.38019514  1.0
  Ni  Ni734  1  0.41651433  0.87515233  0.38019514  1.0
  Ni  Ni735  1  0.74984767  0.20848567  0.38019514  1.0
  Ni  Ni736  1  0.74984767  0.54181900  0.38019514  1.0
  Ni  Ni737  1  0.74984767  0.87515233  0.38019514  1.0
  Ni  Ni738  1  0.25015233  0.12484767  0.33409057  1.0
  Ni  Ni739  1  0.25015233  0.45818100  0.33409057  1.0
  Ni  Ni740  1  0.25015233  0.79151433  0.33409057  1.0
  Ni  Ni741  1  0.58348567  0.12484767  0.33409057  1.0
  Ni  Ni742  1  0.58348567  0.45818100  0.33409057  1.0
  Ni  Ni743  1  0.58348567  0.79151433  0.33409057  1.0
  Ni  Ni744  1  0.91681900  0.12484767  0.33409057  1.0
  Ni  Ni745  1  0.91681900  0.45818100  0.33409057  1.0
  Ni  Ni746  1  0.91681900  0.79151433  0.33409057  1.0
  Ni  Ni747  1  0.08348567  0.12484767  0.40551914  1.0
  Ni  Ni748  1  0.08348567  0.45818100  0.40551914  1.0
  Ni  Ni749  1  0.08348567  0.79151433  0.40551914  1.0
  Ni  Ni750  1  0.41681900  0.12484767  0.40551914  1.0
  Ni  Ni751  1  0.41681900  0.45818100  0.40551914  1.0
  Ni  Ni752  1  0.41681900  0.79151433  0.40551914  1.0
  Ni  Ni753  1  0.75015233  0.12484767  0.40551914  1.0
  Ni  Ni754  1  0.75015233  0.45818100  0.40551914  1.0
  Ni  Ni755  1  0.75015233  0.79151433  0.40551914  1.0
  Ni  Ni756  1  0.20955667  0.20786900  0.37256414  1.0
  Ni  Ni757  1  0.20955667  0.54120233  0.37256414  1.0
  Ni  Ni758  1  0.20955667  0.87453567  0.37256414  1.0
  Ni  Ni759  1  0.54289000  0.20786900  0.37256414  1.0
  Ni  Ni760  1  0.54289000  0.54120233  0.37256414  1.0
  Ni  Ni761  1  0.54289000  0.87453567  0.37256414  1.0
  Ni  Ni762  1  0.87622333  0.20786900  0.37256414  1.0
  Ni  Ni763  1  0.87622333  0.54120233  0.37256414  1.0
  Ni  Ni764  1  0.87622333  0.87453567  0.37256414  1.0
  Ni  Ni765  1  0.04289000  0.20786900  0.30113557  1.0
  Ni  Ni766  1  0.04289000  0.54120233  0.30113557  1.0
  Ni  Ni767  1  0.04289000  0.87453567  0.30113557  1.0
  Ni  Ni768  1  0.37622333  0.20786900  0.30113557  1.0
  Ni  Ni769  1  0.37622333  0.54120233  0.30113557  1.0
  Ni  Ni770  1  0.37622333  0.87453567  0.30113557  1.0
  Ni  Ni771  1  0.70955667  0.20786900  0.30113557  1.0
  Ni  Ni772  1  0.70955667  0.54120233  0.30113557  1.0
  Ni  Ni773  1  0.70955667  0.87453567  0.30113557  1.0
  Ni  Ni774  1  0.20862800  0.12546433  0.30535671  1.0
  Ni  Ni775  1  0.20862800  0.45879767  0.30535671  1.0
  Ni  Ni776  1  0.20862800  0.79213100  0.30535671  1.0
  Ni  Ni777  1  0.54196133  0.12546433  0.30535671  1.0
  Ni  Ni778  1  0.54196133  0.45879767  0.30535671  1.0
  Ni  Ni779  1  0.54196133  0.79213100  0.30535671  1.0
  Ni  Ni780  1  0.87529467  0.12546433  0.30535671  1.0
  Ni  Ni781  1  0.87529467  0.45879767  0.30535671  1.0
  Ni  Ni782  1  0.87529467  0.79213100  0.30535671  1.0
  Ni  Ni783  1  0.04196133  0.12546433  0.37678529  1.0
  Ni  Ni784  1  0.04196133  0.45879767  0.37678529  1.0
  Ni  Ni785  1  0.04196133  0.79213100  0.37678529  1.0
  Ni  Ni786  1  0.37529467  0.12546433  0.37678529  1.0
  Ni  Ni787  1  0.37529467  0.45879767  0.37678529  1.0
  Ni  Ni788  1  0.37529467  0.79213100  0.37678529  1.0
  Ni  Ni789  1  0.70862800  0.12546433  0.37678529  1.0
  Ni  Ni790  1  0.70862800  0.45879767  0.37678529  1.0
  Ni  Ni791  1  0.70862800  0.79213100  0.37678529  1.0
  Ni  Ni792  1  0.04137200  0.04120233  0.30560929  1.0
  Ni  Ni793  1  0.04137200  0.37453567  0.30560929  1.0
  Ni  Ni794  1  0.04137200  0.70786900  0.30560929  1.0
  Ni  Ni795  1  0.37470533  0.04120233  0.30560929  1.0
  Ni  Ni796  1  0.37470533  0.37453567  0.30560929  1.0
  Ni  Ni797  1  0.37470533  0.70786900  0.30560929  1.0
  Ni  Ni798  1  0.70803867  0.04120233  0.30560929  1.0
  Ni  Ni799  1  0.70803867  0.37453567  0.30560929  1.0
  Ni  Ni800  1  0.70803867  0.70786900  0.30560929  1.0
  Ni  Ni801  1  0.20803867  0.04120233  0.37703786  1.0
  Ni  Ni802  1  0.20803867  0.37453567  0.37703786  1.0
  Ni  Ni803  1  0.20803867  0.70786900  0.37703786  1.0
  Ni  Ni804  1  0.54137200  0.04120233  0.37703786  1.0
  Ni  Ni805  1  0.54137200  0.37453567  0.37703786  1.0
  Ni  Ni806  1  0.54137200  0.70786900  0.37703786  1.0
  Ni  Ni807  1  0.87470533  0.04120233  0.37703786  1.0
  Ni  Ni808  1  0.87470533  0.37453567  0.37703786  1.0
  Ni  Ni809  1  0.87470533  0.70786900  0.37703786  1.0
  Ni  Ni810  1  0.29289000  0.04120233  0.34067300  1.0
  Ni  Ni811  1  0.29289000  0.37453567  0.34067300  1.0
  Ni  Ni812  1  0.29289000  0.70786900  0.34067300  1.0
  Ni  Ni813  1  0.62622333  0.04120233  0.34067300  1.0
  Ni  Ni814  1  0.62622333  0.37453567  0.34067300  1.0
  Ni  Ni815  1  0.62622333  0.70786900  0.34067300  1.0
  Ni  Ni816  1  0.95955667  0.04120233  0.34067300  1.0
  Ni  Ni817  1  0.95955667  0.37453567  0.34067300  1.0
  Ni  Ni818  1  0.95955667  0.70786900  0.34067300  1.0
  Ni  Ni819  1  0.12622333  0.04120233  0.41210157  1.0
  Ni  Ni820  1  0.12622333  0.37453567  0.41210157  1.0
  Ni  Ni821  1  0.12622333  0.70786900  0.41210157  1.0
  Ni  Ni822  1  0.45955667  0.04120233  0.41210157  1.0
  Ni  Ni823  1  0.45955667  0.37453567  0.41210157  1.0
  Ni  Ni824  1  0.45955667  0.70786900  0.41210157  1.0
  Ni  Ni825  1  0.79289000  0.04120233  0.41210157  1.0
  Ni  Ni826  1  0.79289000  0.37453567  0.41210157  1.0
  Ni  Ni827  1  0.79289000  0.70786900  0.41210157  1.0
  Ni  Ni828  1  0.29044333  0.12546433  0.41315014  1.0
  Ni  Ni829  1  0.29044333  0.45879767  0.41315014  1.0
  Ni  Ni830  1  0.29044333  0.79213100  0.41315014  1.0
  Ni  Ni831  1  0.62377667  0.12546433  0.41315014  1.0
  Ni  Ni832  1  0.62377667  0.45879767  0.41315014  1.0
  Ni  Ni833  1  0.62377667  0.79213100  0.41315014  1.0
  Ni  Ni834  1  0.95711000  0.12546433  0.41315014  1.0
  Ni  Ni835  1  0.95711000  0.45879767  0.41315014  1.0
  Ni  Ni836  1  0.95711000  0.79213100  0.41315014  1.0
  Ni  Ni837  1  0.12377667  0.12546433  0.34172157  1.0
  Ni  Ni838  1  0.12377667  0.45879767  0.34172157  1.0
  Ni  Ni839  1  0.12377667  0.79213100  0.34172157  1.0
  Ni  Ni840  1  0.45711000  0.12546433  0.34172157  1.0
  Ni  Ni841  1  0.45711000  0.45879767  0.34172157  1.0
  Ni  Ni842  1  0.45711000  0.79213100  0.34172157  1.0
  Ni  Ni843  1  0.79044333  0.12546433  0.34172157  1.0
  Ni  Ni844  1  0.79044333  0.45879767  0.34172157  1.0
  Ni  Ni845  1  0.79044333  0.79213100  0.34172157  1.0
  Ni  Ni846  1  0.29137200  0.20786900  0.33750043  1.0
  Ni  Ni847  1  0.29137200  0.54120233  0.33750043  1.0
  Ni  Ni848  1  0.29137200  0.87453567  0.33750043  1.0
  Ni  Ni849  1  0.62470533  0.20786900  0.33750043  1.0
  Ni  Ni850  1  0.62470533  0.54120233  0.33750043  1.0
  Ni  Ni851  1  0.62470533  0.87453567  0.33750043  1.0
  Ni  Ni852  1  0.95803867  0.20786900  0.33750043  1.0
  Ni  Ni853  1  0.95803867  0.54120233  0.33750043  1.0
  Ni  Ni854  1  0.95803867  0.87453567  0.33750043  1.0
  Ni  Ni855  1  0.12470533  0.20786900  0.40892900  1.0
  Ni  Ni856  1  0.12470533  0.54120233  0.40892900  1.0
  Ni  Ni857  1  0.12470533  0.87453567  0.40892900  1.0
  Ni  Ni858  1  0.45803867  0.20786900  0.40892900  1.0
  Ni  Ni859  1  0.45803867  0.54120233  0.40892900  1.0
  Ni  Ni860  1  0.45803867  0.87453567  0.40892900  1.0
  Ni  Ni861  1  0.79137200  0.20786900  0.40892900  1.0
  Ni  Ni862  1  0.79137200  0.54120233  0.40892900  1.0
  Ni  Ni863  1  0.79137200  0.87453567  0.40892900  1.0
  Ni  Ni864  1  0.12529467  0.29213100  0.33724786  1.0
  Ni  Ni865  1  0.12529467  0.62546433  0.33724786  1.0
  Ni  Ni866  1  0.12529467  0.95879767  0.33724786  1.0
  Ni  Ni867  1  0.45862800  0.29213100  0.33724786  1.0
  Ni  Ni868  1  0.45862800  0.62546433  0.33724786  1.0
  Ni  Ni869  1  0.45862800  0.95879767  0.33724786  1.0
  Ni  Ni870  1  0.79196133  0.29213100  0.33724786  1.0
  Ni  Ni871  1  0.79196133  0.62546433  0.33724786  1.0
  Ni  Ni872  1  0.79196133  0.95879767  0.33724786  1.0
  Ni  Ni873  1  0.29196133  0.29213100  0.40867643  1.0
  Ni  Ni874  1  0.29196133  0.62546433  0.40867643  1.0
  Ni  Ni875  1  0.29196133  0.95879767  0.40867643  1.0
  Ni  Ni876  1  0.62529467  0.29213100  0.40867643  1.0
  Ni  Ni877  1  0.62529467  0.62546433  0.40867643  1.0
  Ni  Ni878  1  0.62529467  0.95879767  0.40867643  1.0
  Ni  Ni879  1  0.95862800  0.29213100  0.40867643  1.0
  Ni  Ni880  1  0.95862800  0.62546433  0.40867643  1.0
  Ni  Ni881  1  0.95862800  0.95879767  0.40867643  1.0
  Ni  Ni882  1  0.16681900  0.29151433  0.41577886  1.0
  Ni  Ni883  1  0.16681900  0.62484767  0.41577886  1.0
  Ni  Ni884  1  0.16681900  0.95818100  0.41577886  1.0
  Ni  Ni885  1  0.50015233  0.29151433  0.41577886  1.0
  Ni  Ni886  1  0.50015233  0.62484767  0.41577886  1.0
  Ni  Ni887  1  0.50015233  0.95818100  0.41577886  1.0
  Ni  Ni888  1  0.83348567  0.29151433  0.41577886  1.0
  Ni  Ni889  1  0.83348567  0.62484767  0.41577886  1.0
  Ni  Ni890  1  0.83348567  0.95818100  0.41577886  1.0
  Ni  Ni891  1  0.00015233  0.29151433  0.34435029  1.0
  Ni  Ni892  1  0.00015233  0.62484767  0.34435029  1.0
  Ni  Ni893  1  0.00015233  0.95818100  0.34435029  1.0
  Ni  Ni894  1  0.33348567  0.29151433  0.34435029  1.0
  Ni  Ni895  1  0.33348567  0.62484767  0.34435029  1.0
  Ni  Ni896  1  0.33348567  0.95818100  0.34435029  1.0
  Ni  Ni897  1  0.66681900  0.29151433  0.34435029  1.0
  Ni  Ni898  1  0.66681900  0.62484767  0.34435029  1.0
  Ni  Ni899  1  0.66681900  0.95818100  0.34435029  1.0
  Ni  Ni900  1  0.20711000  0.29213100  0.30218414  1.0
  Ni  Ni901  1  0.20711000  0.62546433  0.30218414  1.0
  Ni  Ni902  1  0.20711000  0.95879767  0.30218414  1.0
  Ni  Ni903  1  0.54044333  0.29213100  0.30218414  1.0
  Ni  Ni904  1  0.54044333  0.62546433  0.30218414  1.0
  Ni  Ni905  1  0.54044333  0.95879767  0.30218414  1.0
  Ni  Ni906  1  0.87377667  0.29213100  0.30218414  1.0
  Ni  Ni907  1  0.87377667  0.62546433  0.30218414  1.0
  Ni  Ni908  1  0.87377667  0.95879767  0.30218414  1.0
  Ni  Ni909  1  0.04044333  0.29213100  0.37361271  1.0
  Ni  Ni910  1  0.04044333  0.62546433  0.37361271  1.0
  Ni  Ni911  1  0.04044333  0.95879767  0.37361271  1.0
  Ni  Ni912  1  0.37377667  0.29213100  0.37361271  1.0
  Ni  Ni913  1  0.37377667  0.62546433  0.37361271  1.0
  Ni  Ni914  1  0.37377667  0.95879767  0.37361271  1.0
  Ni  Ni915  1  0.70711000  0.29213100  0.37361271  1.0
  Ni  Ni916  1  0.70711000  0.62546433  0.37361271  1.0
  Ni  Ni917  1  0.70711000  0.95879767  0.37361271  1.0
  Ni  Ni918  1  0.33318100  0.04181900  0.36993543  1.0
  Ni  Ni919  1  0.33318100  0.37515233  0.36993543  1.0
  Ni  Ni920  1  0.33318100  0.70848567  0.36993543  1.0
  Ni  Ni921  1  0.66651433  0.04181900  0.36993543  1.0
  Ni  Ni922  1  0.66651433  0.37515233  0.36993543  1.0
  Ni  Ni923  1  0.66651433  0.70848567  0.36993543  1.0
  Ni  Ni924  1  0.99984767  0.04181900  0.36993543  1.0
  Ni  Ni925  1  0.99984767  0.37515233  0.36993543  1.0
  Ni  Ni926  1  0.99984767  0.70848567  0.36993543  1.0
  Ni  Ni927  1  0.16651433  0.04181900  0.29850686  1.0
  Ni  Ni928  1  0.16651433  0.37515233  0.29850686  1.0
  Ni  Ni929  1  0.16651433  0.70848567  0.29850686  1.0
  Ni  Ni930  1  0.49984767  0.04181900  0.29850686  1.0
  Ni  Ni931  1  0.49984767  0.37515233  0.29850686  1.0
  Ni  Ni932  1  0.49984767  0.70848567  0.29850686  1.0
  Ni  Ni933  1  0.83318100  0.04181900  0.29850686  1.0
  Ni  Ni934  1  0.83318100  0.37515233  0.29850686  1.0
  Ni  Ni935  1  0.83318100  0.70848567  0.29850686  1.0
  Sn  Sn936  1  0.25931767  0.19901567  0.39760300  1.0
  Sn  Sn937  1  0.25931767  0.53234900  0.39760300  1.0
  Sn  Sn938  1  0.25931767  0.86568233  0.39760300  1.0
  Sn  Sn939  1  0.59265100  0.19901567  0.39760300  1.0
  Sn  Sn940  1  0.59265100  0.53234900  0.39760300  1.0
  Sn  Sn941  1  0.59265100  0.86568233  0.39760300  1.0
  Sn  Sn942  1  0.92598433  0.19901567  0.39760300  1.0
  Sn  Sn943  1  0.92598433  0.53234900  0.39760300  1.0
  Sn  Sn944  1  0.92598433  0.86568233  0.39760300  1.0
  Sn  Sn945  1  0.09265100  0.19901567  0.32617443  1.0
  Sn  Sn946  1  0.09265100  0.53234900  0.32617443  1.0
  Sn  Sn947  1  0.09265100  0.86568233  0.32617443  1.0
  Sn  Sn948  1  0.42598433  0.19901567  0.32617443  1.0
  Sn  Sn949  1  0.42598433  0.53234900  0.32617443  1.0
  Sn  Sn950  1  0.42598433  0.86568233  0.32617443  1.0
  Sn  Sn951  1  0.75931767  0.19901567  0.32617443  1.0
  Sn  Sn952  1  0.75931767  0.53234900  0.32617443  1.0
  Sn  Sn953  1  0.75931767  0.86568233  0.32617443  1.0
  Sn  Sn954  1  0.00587300  0.11912700  0.29725071  1.0
  Sn  Sn955  1  0.00587300  0.45246033  0.29725071  1.0
  Sn  Sn956  1  0.00587300  0.78579367  0.29725071  1.0
  Sn  Sn957  1  0.33920633  0.11912700  0.29725071  1.0
  Sn  Sn958  1  0.33920633  0.45246033  0.29725071  1.0
  Sn  Sn959  1  0.33920633  0.78579367  0.29725071  1.0
  Sn  Sn960  1  0.67253967  0.11912700  0.29725071  1.0
  Sn  Sn961  1  0.67253967  0.45246033  0.29725071  1.0
  Sn  Sn962  1  0.67253967  0.78579367  0.29725071  1.0
  Sn  Sn963  1  0.17253967  0.11912700  0.36867929  1.0
  Sn  Sn964  1  0.17253967  0.45246033  0.36867929  1.0
  Sn  Sn965  1  0.17253967  0.78579367  0.36867929  1.0
  Sn  Sn966  1  0.50587300  0.11912700  0.36867929  1.0
  Sn  Sn967  1  0.50587300  0.45246033  0.36867929  1.0
  Sn  Sn968  1  0.50587300  0.78579367  0.36867929  1.0
  Sn  Sn969  1  0.83920633  0.11912700  0.36867929  1.0
  Sn  Sn970  1  0.83920633  0.45246033  0.36867929  1.0
  Sn  Sn971  1  0.83920633  0.78579367  0.36867929  1.0
  Sn  Sn972  1  0.16079367  0.21420633  0.34560643  1.0
  Sn  Sn973  1  0.16079367  0.54753967  0.34560643  1.0
  Sn  Sn974  1  0.16079367  0.88087300  0.34560643  1.0
  Sn  Sn975  1  0.49412700  0.21420633  0.34560643  1.0
  Sn  Sn976  1  0.49412700  0.54753967  0.34560643  1.0
  Sn  Sn977  1  0.49412700  0.88087300  0.34560643  1.0
  Sn  Sn978  1  0.82746033  0.21420633  0.34560643  1.0
  Sn  Sn979  1  0.82746033  0.54753967  0.34560643  1.0
  Sn  Sn980  1  0.82746033  0.88087300  0.34560643  1.0
  Sn  Sn981  1  0.32746033  0.21420633  0.41703500  1.0
  Sn  Sn982  1  0.32746033  0.54753967  0.41703500  1.0
  Sn  Sn983  1  0.32746033  0.88087300  0.41703500  1.0
  Sn  Sn984  1  0.66079367  0.21420633  0.41703500  1.0
  Sn  Sn985  1  0.66079367  0.54753967  0.41703500  1.0
  Sn  Sn986  1  0.66079367  0.88087300  0.41703500  1.0
  Sn  Sn987  1  0.99412700  0.21420633  0.41703500  1.0
  Sn  Sn988  1  0.99412700  0.54753967  0.41703500  1.0
  Sn  Sn989  1  0.99412700  0.88087300  0.41703500  1.0
  Sn  Sn990  1  0.08920633  0.28579367  0.30485814  1.0
  Sn  Sn991  1  0.08920633  0.61912700  0.30485814  1.0
  Sn  Sn992  1  0.08920633  0.95246033  0.30485814  1.0
  Sn  Sn993  1  0.42253967  0.28579367  0.30485814  1.0
  Sn  Sn994  1  0.42253967  0.61912700  0.30485814  1.0
  Sn  Sn995  1  0.42253967  0.95246033  0.30485814  1.0
  Sn  Sn996  1  0.75587300  0.28579367  0.30485814  1.0
  Sn  Sn997  1  0.75587300  0.61912700  0.30485814  1.0
  Sn  Sn998  1  0.75587300  0.95246033  0.30485814  1.0
  Sn  Sn999  1  0.25587300  0.28579367  0.37628671  1.0
  Sn  Sn1000  1  0.25587300  0.61912700  0.37628671  1.0
  Sn  Sn1001  1  0.25587300  0.95246033  0.37628671  1.0
  Sn  Sn1002  1  0.58920633  0.28579367  0.37628671  1.0
  Sn  Sn1003  1  0.58920633  0.61912700  0.37628671  1.0
  Sn  Sn1004  1  0.58920633  0.95246033  0.37628671  1.0
  Sn  Sn1005  1  0.92253967  0.28579367  0.37628671  1.0
  Sn  Sn1006  1  0.92253967  0.61912700  0.37628671  1.0
  Sn  Sn1007  1  0.92253967  0.95246033  0.37628671  1.0
  Sn  Sn1008  1  0.07746033  0.04753967  0.33799900  1.0
  Sn  Sn1009  1  0.07746033  0.38087300  0.33799900  1.0
  Sn  Sn1010  1  0.07746033  0.71420633  0.33799900  1.0
  Sn  Sn1011  1  0.41079367  0.04753967  0.33799900  1.0
  Sn  Sn1012  1  0.41079367  0.38087300  0.33799900  1.0
  Sn  Sn1013  1  0.41079367  0.71420633  0.33799900  1.0
  Sn  Sn1014  1  0.74412700  0.04753967  0.33799900  1.0
  Sn  Sn1015  1  0.74412700  0.38087300  0.33799900  1.0
  Sn  Sn1016  1  0.74412700  0.71420633  0.33799900  1.0
  Sn  Sn1017  1  0.24412700  0.04753967  0.40942757  1.0
  Sn  Sn1018  1  0.24412700  0.38087300  0.40942757  1.0
  Sn  Sn1019  1  0.24412700  0.71420633  0.40942757  1.0
  Sn  Sn1020  1  0.57746033  0.04753967  0.40942757  1.0
  Sn  Sn1021  1  0.57746033  0.38087300  0.40942757  1.0
  Sn  Sn1022  1  0.57746033  0.71420633  0.40942757  1.0
  Sn  Sn1023  1  0.91079367  0.04753967  0.40942757  1.0
  Sn  Sn1024  1  0.91079367  0.38087300  0.40942757  1.0
  Sn  Sn1025  1  0.91079367  0.71420633  0.40942757  1.0
  Sn  Sn1026  1  0.15734900  0.30098433  0.36987529  1.0
  Sn  Sn1027  1  0.15734900  0.63431767  0.36987529  1.0
  Sn  Sn1028  1  0.15734900  0.96765100  0.36987529  1.0
  Sn  Sn1029  1  0.49068233  0.30098433  0.36987529  1.0
  Sn  Sn1030  1  0.49068233  0.63431767  0.36987529  1.0
  Sn  Sn1031  1  0.49068233  0.96765100  0.36987529  1.0
  Sn  Sn1032  1  0.82401567  0.30098433  0.36987529  1.0
  Sn  Sn1033  1  0.82401567  0.63431767  0.36987529  1.0
  Sn  Sn1034  1  0.82401567  0.96765100  0.36987529  1.0
  Sn  Sn1035  1  0.32401567  0.30098433  0.29844671  1.0
  Sn  Sn1036  1  0.32401567  0.63431767  0.29844671  1.0
  Sn  Sn1037  1  0.32401567  0.96765100  0.29844671  1.0
  Sn  Sn1038  1  0.65734900  0.30098433  0.29844671  1.0
  Sn  Sn1039  1  0.65734900  0.63431767  0.29844671  1.0
  Sn  Sn1040  1  0.65734900  0.96765100  0.29844671  1.0
  Sn  Sn1041  1  0.99068233  0.30098433  0.29844671  1.0
  Sn  Sn1042  1  0.99068233  0.63431767  0.29844671  1.0
  Sn  Sn1043  1  0.99068233  0.96765100  0.29844671  1.0
  Sn  Sn1044  1  0.24068233  0.13431767  0.38811129  1.0
  Sn  Sn1045  1  0.24068233  0.46765100  0.38811129  1.0
  Sn  Sn1046  1  0.24068233  0.80098433  0.38811129  1.0
  Sn  Sn1047  1  0.57401567  0.13431767  0.38811129  1.0
  Sn  Sn1048  1  0.57401567  0.46765100  0.38811129  1.0
  Sn  Sn1049  1  0.57401567  0.80098433  0.38811129  1.0
  Sn  Sn1050  1  0.90734900  0.13431767  0.38811129  1.0
  Sn  Sn1051  1  0.90734900  0.46765100  0.38811129  1.0
  Sn  Sn1052  1  0.90734900  0.80098433  0.38811129  1.0
  Sn  Sn1053  1  0.07401567  0.13431767  0.31668271  1.0
  Sn  Sn1054  1  0.07401567  0.46765100  0.31668271  1.0
  Sn  Sn1055  1  0.07401567  0.80098433  0.31668271  1.0
  Sn  Sn1056  1  0.40734900  0.13431767  0.31668271  1.0
  Sn  Sn1057  1  0.40734900  0.46765100  0.31668271  1.0
  Sn  Sn1058  1  0.40734900  0.80098433  0.31668271  1.0
  Sn  Sn1059  1  0.74068233  0.13431767  0.31668271  1.0
  Sn  Sn1060  1  0.74068233  0.46765100  0.31668271  1.0
  Sn  Sn1061  1  0.74068233  0.80098433  0.31668271  1.0
  Sn  Sn1062  1  0.00931767  0.03234900  0.41583900  1.0
  Sn  Sn1063  1  0.00931767  0.36568233  0.41583900  1.0
  Sn  Sn1064  1  0.00931767  0.69901567  0.41583900  1.0
  Sn  Sn1065  1  0.34265100  0.03234900  0.41583900  1.0
  Sn  Sn1066  1  0.34265100  0.36568233  0.41583900  1.0
  Sn  Sn1067  1  0.34265100  0.69901567  0.41583900  1.0
  Sn  Sn1068  1  0.67598433  0.03234900  0.41583900  1.0
  Sn  Sn1069  1  0.67598433  0.36568233  0.41583900  1.0
  Sn  Sn1070  1  0.67598433  0.69901567  0.41583900  1.0
  Sn  Sn1071  1  0.17598433  0.03234900  0.34441043  1.0
  Sn  Sn1072  1  0.17598433  0.36568233  0.34441043  1.0
  Sn  Sn1073  1  0.17598433  0.69901567  0.34441043  1.0
  Sn  Sn1074  1  0.50931767  0.03234900  0.34441043  1.0
  Sn  Sn1075  1  0.50931767  0.36568233  0.34441043  1.0
  Sn  Sn1076  1  0.50931767  0.69901567  0.34441043  1.0
  Sn  Sn1077  1  0.84265100  0.03234900  0.34441043  1.0
  Sn  Sn1078  1  0.84265100  0.36568233  0.34441043  1.0
  Sn  Sn1079  1  0.84265100  0.69901567  0.34441043  1.0
