# generated using pymatgen
data_Ni3Sn2
_symmetry_space_group_name_H-M   'P 1'
_cell_length_a   26.49817745
_cell_length_b   39.82897033
_cell_length_c   41.03941000
_cell_angle_alpha   51.81267290
_cell_angle_beta   90.00000000
_cell_angle_gamma   62.33559163
_symmetry_Int_Tables_number   1
_chemical_formula_structural   Ni3Sn2
_chemical_formula_sum   'Ni432 Sn288'
_cell_volume   27469.29323765
_cell_formula_units_Z   144
loop_
 _symmetry_equiv_pos_site_id
 _symmetry_equiv_pos_as_xyz
  1  'x, y, z'
loop_
 _atom_site_type_symbol
 _atom_site_label
 _atom_site_symmetry_multiplicity
 _atom_site_fract_x
 _atom_site_fract_y
 _atom_site_fract_z
 _atom_site_occupancy
  Ni  Ni0  1  0.30363633  0.30651517  0.13828890  1.0
  Ni  Ni1  1  0.30363633  0.63984850  0.13828890  1.0
  Ni  Ni2  1  0.30363633  0.97318183  0.13828890  1.0
  Ni  Ni3  1  0.63696967  0.30651517  0.13828890  1.0
  Ni  Ni4  1  0.63696967  0.63984850  0.13828890  1.0
  Ni  Ni5  1  0.63696967  0.97318183  0.13828890  1.0
  Ni  Ni6  1  0.97030300  0.30651517  0.13828890  1.0
  Ni  Ni7  1  0.97030300  0.63984850  0.13828890  1.0
  Ni  Ni8  1  0.97030300  0.97318183  0.13828890  1.0
  Ni  Ni9  1  0.30363633  0.13984850  0.03828890  1.0
  Ni  Ni10  1  0.30363633  0.47318183  0.03828890  1.0
  Ni  Ni11  1  0.30363633  0.80651517  0.03828890  1.0
  Ni  Ni12  1  0.63696967  0.13984850  0.03828890  1.0
  Ni  Ni13  1  0.63696967  0.47318183  0.03828890  1.0
  Ni  Ni14  1  0.63696967  0.80651517  0.03828890  1.0
  Ni  Ni15  1  0.97030300  0.13984850  0.03828890  1.0
  Ni  Ni16  1  0.97030300  0.47318183  0.03828890  1.0
  Ni  Ni17  1  0.97030300  0.80651517  0.03828890  1.0
  Ni  Ni18  1  0.02969700  0.02681817  0.05592430  1.0
  Ni  Ni19  1  0.02969700  0.36015150  0.05592430  1.0
  Ni  Ni20  1  0.02969700  0.69348483  0.05592430  1.0
  Ni  Ni21  1  0.36303033  0.02681817  0.05592430  1.0
  Ni  Ni22  1  0.36303033  0.36015150  0.05592430  1.0
  Ni  Ni23  1  0.36303033  0.69348483  0.05592430  1.0
  Ni  Ni24  1  0.69636367  0.02681817  0.05592430  1.0
  Ni  Ni25  1  0.69636367  0.36015150  0.05592430  1.0
  Ni  Ni26  1  0.69636367  0.69348483  0.05592430  1.0
  Ni  Ni27  1  0.02969700  0.19348483  0.15592430  1.0
  Ni  Ni28  1  0.02969700  0.52681817  0.15592430  1.0
  Ni  Ni29  1  0.02969700  0.86015150  0.15592430  1.0
  Ni  Ni30  1  0.36303033  0.19348483  0.15592430  1.0
  Ni  Ni31  1  0.36303033  0.52681817  0.15592430  1.0
  Ni  Ni32  1  0.36303033  0.86015150  0.15592430  1.0
  Ni  Ni33  1  0.69636367  0.19348483  0.15592430  1.0
  Ni  Ni34  1  0.69636367  0.52681817  0.15592430  1.0
  Ni  Ni35  1  0.69636367  0.86015150  0.15592430  1.0
  Ni  Ni36  1  0.07887300  0.04465583  0.09503450  1.0
  Ni  Ni37  1  0.07887300  0.37798917  0.09503450  1.0
  Ni  Ni38  1  0.07887300  0.71132250  0.09503450  1.0
  Ni  Ni39  1  0.41220633  0.04465583  0.09503450  1.0
  Ni  Ni40  1  0.41220633  0.37798917  0.09503450  1.0
  Ni  Ni41  1  0.41220633  0.71132250  0.09503450  1.0
  Ni  Ni42  1  0.74553967  0.04465583  0.09503450  1.0
  Ni  Ni43  1  0.74553967  0.37798917  0.09503450  1.0
  Ni  Ni44  1  0.74553967  0.71132250  0.09503450  1.0
  Ni  Ni45  1  0.07887300  0.21132250  0.19503450  1.0
  Ni  Ni46  1  0.07887300  0.54465583  0.19503450  1.0
  Ni  Ni47  1  0.07887300  0.87798917  0.19503450  1.0
  Ni  Ni48  1  0.41220633  0.21132250  0.19503450  1.0
  Ni  Ni49  1  0.41220633  0.54465583  0.19503450  1.0
  Ni  Ni50  1  0.41220633  0.87798917  0.19503450  1.0
  Ni  Ni51  1  0.74553967  0.21132250  0.19503450  1.0
  Ni  Ni52  1  0.74553967  0.54465583  0.19503450  1.0
  Ni  Ni53  1  0.74553967  0.87798917  0.19503450  1.0
  Ni  Ni54  1  0.25446033  0.20686217  0.14826790  1.0
  Ni  Ni55  1  0.25446033  0.54019550  0.14826790  1.0
  Ni  Ni56  1  0.25446033  0.87352883  0.14826790  1.0
  Ni  Ni57  1  0.58779367  0.20686217  0.14826790  1.0
  Ni  Ni58  1  0.58779367  0.54019550  0.14826790  1.0
  Ni  Ni59  1  0.58779367  0.87352883  0.14826790  1.0
  Ni  Ni60  1  0.92112700  0.20686217  0.14826790  1.0
  Ni  Ni61  1  0.92112700  0.54019550  0.14826790  1.0
  Ni  Ni62  1  0.92112700  0.87352883  0.14826790  1.0
  Ni  Ni63  1  0.25446033  0.04019550  0.04826790  1.0
  Ni  Ni64  1  0.25446033  0.37352883  0.04826790  1.0
  Ni  Ni65  1  0.25446033  0.70686217  0.04826790  1.0
  Ni  Ni66  1  0.58779367  0.04019550  0.04826790  1.0
  Ni  Ni67  1  0.58779367  0.37352883  0.04826790  1.0
  Ni  Ni68  1  0.58779367  0.70686217  0.04826790  1.0
  Ni  Ni69  1  0.92112700  0.04019550  0.04826790  1.0
  Ni  Ni70  1  0.92112700  0.37352883  0.04826790  1.0
  Ni  Ni71  1  0.92112700  0.70686217  0.04826790  1.0
  Ni  Ni72  1  0.08779367  0.03867750  0.19862150  1.0
  Ni  Ni73  1  0.08779367  0.37201083  0.19862150  1.0
  Ni  Ni74  1  0.08779367  0.70534417  0.19862150  1.0
  Ni  Ni75  1  0.42112700  0.03867750  0.19862150  1.0
  Ni  Ni76  1  0.42112700  0.37201083  0.19862150  1.0
  Ni  Ni77  1  0.42112700  0.70534417  0.19862150  1.0
  Ni  Ni78  1  0.75446033  0.03867750  0.19862150  1.0
  Ni  Ni79  1  0.75446033  0.37201083  0.19862150  1.0
  Ni  Ni80  1  0.75446033  0.70534417  0.19862150  1.0
  Ni  Ni81  1  0.08779367  0.20534417  0.09862150  1.0
  Ni  Ni82  1  0.08779367  0.53867750  0.09862150  1.0
  Ni  Ni83  1  0.08779367  0.87201083  0.09862150  1.0
  Ni  Ni84  1  0.42112700  0.20534417  0.09862150  1.0
  Ni  Ni85  1  0.42112700  0.53867750  0.09862150  1.0
  Ni  Ni86  1  0.42112700  0.87201083  0.09862150  1.0
  Ni  Ni87  1  0.75446033  0.20534417  0.09862150  1.0
  Ni  Ni88  1  0.75446033  0.53867750  0.09862150  1.0
  Ni  Ni89  1  0.75446033  0.87201083  0.09862150  1.0
  Ni  Ni90  1  0.08779367  0.29019550  0.04771070  1.0
  Ni  Ni91  1  0.08779367  0.62352883  0.04771070  1.0
  Ni  Ni92  1  0.08779367  0.95686217  0.04771070  1.0
  Ni  Ni93  1  0.42112700  0.29019550  0.04771070  1.0
  Ni  Ni94  1  0.42112700  0.62352883  0.04771070  1.0
  Ni  Ni95  1  0.42112700  0.95686217  0.04771070  1.0
  Ni  Ni96  1  0.75446033  0.29019550  0.04771070  1.0
  Ni  Ni97  1  0.75446033  0.62352883  0.04771070  1.0
  Ni  Ni98  1  0.75446033  0.95686217  0.04771070  1.0
  Ni  Ni99  1  0.08779367  0.12352883  0.14771070  1.0
  Ni  Ni100  1  0.08779367  0.45686217  0.14771070  1.0
  Ni  Ni101  1  0.08779367  0.79019550  0.14771070  1.0
  Ni  Ni102  1  0.42112700  0.12352883  0.14771070  1.0
  Ni  Ni103  1  0.42112700  0.45686217  0.14771070  1.0
  Ni  Ni104  1  0.42112700  0.79019550  0.14771070  1.0
  Ni  Ni105  1  0.75446033  0.12352883  0.14771070  1.0
  Ni  Ni106  1  0.75446033  0.45686217  0.14771070  1.0
  Ni  Ni107  1  0.75446033  0.79019550  0.14771070  1.0
  Ni  Ni108  1  0.25446033  0.28867750  0.09917870  1.0
  Ni  Ni109  1  0.25446033  0.62201083  0.09917870  1.0
  Ni  Ni110  1  0.25446033  0.95534417  0.09917870  1.0
  Ni  Ni111  1  0.58779367  0.28867750  0.09917870  1.0
  Ni  Ni112  1  0.58779367  0.62201083  0.09917870  1.0
  Ni  Ni113  1  0.58779367  0.95534417  0.09917870  1.0
  Ni  Ni114  1  0.92112700  0.28867750  0.09917870  1.0
  Ni  Ni115  1  0.92112700  0.62201083  0.09917870  1.0
  Ni  Ni116  1  0.92112700  0.95534417  0.09917870  1.0
  Ni  Ni117  1  0.25446033  0.12201083  0.19917870  1.0
  Ni  Ni118  1  0.25446033  0.45534417  0.19917870  1.0
  Ni  Ni119  1  0.25446033  0.78867750  0.19917870  1.0
  Ni  Ni120  1  0.58779367  0.12201083  0.19917870  1.0
  Ni  Ni121  1  0.58779367  0.45534417  0.19917870  1.0
  Ni  Ni122  1  0.58779367  0.78867750  0.19917870  1.0
  Ni  Ni123  1  0.92112700  0.12201083  0.19917870  1.0
  Ni  Ni124  1  0.92112700  0.45534417  0.19917870  1.0
  Ni  Ni125  1  0.92112700  0.78867750  0.19917870  1.0
  Ni  Ni126  1  0.07887300  0.12647117  0.04594530  1.0
  Ni  Ni127  1  0.07887300  0.45980450  0.04594530  1.0
  Ni  Ni128  1  0.07887300  0.79313783  0.04594530  1.0
  Ni  Ni129  1  0.41220633  0.12647117  0.04594530  1.0
  Ni  Ni130  1  0.41220633  0.45980450  0.04594530  1.0
  Ni  Ni131  1  0.41220633  0.79313783  0.04594530  1.0
  Ni  Ni132  1  0.74553967  0.12647117  0.04594530  1.0
  Ni  Ni133  1  0.74553967  0.45980450  0.04594530  1.0
  Ni  Ni134  1  0.74553967  0.79313783  0.04594530  1.0
  Ni  Ni135  1  0.07887300  0.29313783  0.14594530  1.0
  Ni  Ni136  1  0.07887300  0.62647117  0.14594530  1.0
  Ni  Ni137  1  0.07887300  0.95980450  0.14594530  1.0
  Ni  Ni138  1  0.41220633  0.29313783  0.14594530  1.0
  Ni  Ni139  1  0.41220633  0.62647117  0.14594530  1.0
  Ni  Ni140  1  0.41220633  0.95980450  0.14594530  1.0
  Ni  Ni141  1  0.74553967  0.29313783  0.14594530  1.0
  Ni  Ni142  1  0.74553967  0.62647117  0.14594530  1.0
  Ni  Ni143  1  0.74553967  0.95980450  0.14594530  1.0
  Ni  Ni144  1  0.24553967  0.29465583  0.19559170  1.0
  Ni  Ni145  1  0.24553967  0.62798917  0.19559170  1.0
  Ni  Ni146  1  0.24553967  0.96132250  0.19559170  1.0
  Ni  Ni147  1  0.57887300  0.29465583  0.19559170  1.0
  Ni  Ni148  1  0.57887300  0.62798917  0.19559170  1.0
  Ni  Ni149  1  0.57887300  0.96132250  0.19559170  1.0
  Ni  Ni150  1  0.91220633  0.29465583  0.19559170  1.0
  Ni  Ni151  1  0.91220633  0.62798917  0.19559170  1.0
  Ni  Ni152  1  0.91220633  0.96132250  0.19559170  1.0
  Ni  Ni153  1  0.24553967  0.12798917  0.09559170  1.0
  Ni  Ni154  1  0.24553967  0.46132250  0.09559170  1.0
  Ni  Ni155  1  0.24553967  0.79465583  0.09559170  1.0
  Ni  Ni156  1  0.57887300  0.12798917  0.09559170  1.0
  Ni  Ni157  1  0.57887300  0.46132250  0.09559170  1.0
  Ni  Ni158  1  0.57887300  0.79465583  0.09559170  1.0
  Ni  Ni159  1  0.91220633  0.12798917  0.09559170  1.0
  Ni  Ni160  1  0.91220633  0.46132250  0.09559170  1.0
  Ni  Ni161  1  0.91220633  0.79465583  0.09559170  1.0
  Ni  Ni162  1  0.13696967  0.05651517  0.13810610  1.0
  Ni  Ni163  1  0.13696967  0.38984850  0.13810610  1.0
  Ni  Ni164  1  0.13696967  0.72318183  0.13810610  1.0
  Ni  Ni165  1  0.47030300  0.05651517  0.13810610  1.0
  Ni  Ni166  1  0.47030300  0.38984850  0.13810610  1.0
  Ni  Ni167  1  0.47030300  0.72318183  0.13810610  1.0
  Ni  Ni168  1  0.80363633  0.05651517  0.13810610  1.0
  Ni  Ni169  1  0.80363633  0.38984850  0.13810610  1.0
  Ni  Ni170  1  0.80363633  0.72318183  0.13810610  1.0
  Ni  Ni171  1  0.13696967  0.22318183  0.03810610  1.0
  Ni  Ni172  1  0.13696967  0.55651517  0.03810610  1.0
  Ni  Ni173  1  0.13696967  0.88984850  0.03810610  1.0
  Ni  Ni174  1  0.47030300  0.22318183  0.03810610  1.0
  Ni  Ni175  1  0.47030300  0.55651517  0.03810610  1.0
  Ni  Ni176  1  0.47030300  0.88984850  0.03810610  1.0
  Ni  Ni177  1  0.80363633  0.22318183  0.03810610  1.0
  Ni  Ni178  1  0.80363633  0.55651517  0.03810610  1.0
  Ni  Ni179  1  0.80363633  0.88984850  0.03810610  1.0
  Ni  Ni180  1  0.24553967  0.04313783  0.14650250  1.0
  Ni  Ni181  1  0.24553967  0.37647117  0.14650250  1.0
  Ni  Ni182  1  0.24553967  0.70980450  0.14650250  1.0
  Ni  Ni183  1  0.57887300  0.04313783  0.14650250  1.0
  Ni  Ni184  1  0.57887300  0.37647117  0.14650250  1.0
  Ni  Ni185  1  0.57887300  0.70980450  0.14650250  1.0
  Ni  Ni186  1  0.91220633  0.04313783  0.14650250  1.0
  Ni  Ni187  1  0.91220633  0.37647117  0.14650250  1.0
  Ni  Ni188  1  0.91220633  0.70980450  0.14650250  1.0
  Ni  Ni189  1  0.24553967  0.20980450  0.04650250  1.0
  Ni  Ni190  1  0.24553967  0.54313783  0.04650250  1.0
  Ni  Ni191  1  0.24553967  0.87647117  0.04650250  1.0
  Ni  Ni192  1  0.57887300  0.20980450  0.04650250  1.0
  Ni  Ni193  1  0.57887300  0.54313783  0.04650250  1.0
  Ni  Ni194  1  0.57887300  0.87647117  0.04650250  1.0
  Ni  Ni195  1  0.91220633  0.20980450  0.04650250  1.0
  Ni  Ni196  1  0.91220633  0.54313783  0.04650250  1.0
  Ni  Ni197  1  0.91220633  0.87647117  0.04650250  1.0
  Ni  Ni198  1  0.19636367  0.27681817  0.05610710  1.0
  Ni  Ni199  1  0.19636367  0.61015150  0.05610710  1.0
  Ni  Ni200  1  0.19636367  0.94348483  0.05610710  1.0
  Ni  Ni201  1  0.52969700  0.27681817  0.05610710  1.0
  Ni  Ni202  1  0.52969700  0.61015150  0.05610710  1.0
  Ni  Ni203  1  0.52969700  0.94348483  0.05610710  1.0
  Ni  Ni204  1  0.86303033  0.27681817  0.05610710  1.0
  Ni  Ni205  1  0.86303033  0.61015150  0.05610710  1.0
  Ni  Ni206  1  0.86303033  0.94348483  0.05610710  1.0
  Ni  Ni207  1  0.19636367  0.11015150  0.15610710  1.0
  Ni  Ni208  1  0.19636367  0.44348483  0.15610710  1.0
  Ni  Ni209  1  0.19636367  0.77681817  0.15610710  1.0
  Ni  Ni210  1  0.52969700  0.11015150  0.15610710  1.0
  Ni  Ni211  1  0.52969700  0.44348483  0.15610710  1.0
  Ni  Ni212  1  0.52969700  0.77681817  0.15610710  1.0
  Ni  Ni213  1  0.86303033  0.11015150  0.15610710  1.0
  Ni  Ni214  1  0.86303033  0.44348483  0.15610710  1.0
  Ni  Ni215  1  0.86303033  0.77681817  0.15610710  1.0
  Sn  Sn216  1  0.18705800  0.03147100  0.09763340  1.0
  Sn  Sn217  1  0.18705800  0.36480433  0.09763340  1.0
  Sn  Sn218  1  0.18705800  0.69813767  0.09763340  1.0
  Sn  Sn219  1  0.52039133  0.03147100  0.09763340  1.0
  Sn  Sn220  1  0.52039133  0.36480433  0.09763340  1.0
  Sn  Sn221  1  0.52039133  0.69813767  0.09763340  1.0
  Sn  Sn222  1  0.85372467  0.03147100  0.09763340  1.0
  Sn  Sn223  1  0.85372467  0.36480433  0.09763340  1.0
  Sn  Sn224  1  0.85372467  0.69813767  0.09763340  1.0
  Sn  Sn225  1  0.18705800  0.19813767  0.19763340  1.0
  Sn  Sn226  1  0.18705800  0.53147100  0.19763340  1.0
  Sn  Sn227  1  0.18705800  0.86480433  0.19763340  1.0
  Sn  Sn228  1  0.52039133  0.19813767  0.19763340  1.0
  Sn  Sn229  1  0.52039133  0.53147100  0.19763340  1.0
  Sn  Sn230  1  0.52039133  0.86480433  0.19763340  1.0
  Sn  Sn231  1  0.85372467  0.19813767  0.19763340  1.0
  Sn  Sn232  1  0.85372467  0.53147100  0.19763340  1.0
  Sn  Sn233  1  0.85372467  0.86480433  0.19763340  1.0
  Sn  Sn234  1  0.03279133  0.10860433  0.00342020  1.0
  Sn  Sn235  1  0.03279133  0.44193767  0.00342020  1.0
  Sn  Sn236  1  0.03279133  0.77527100  0.00342020  1.0
  Sn  Sn237  1  0.36612467  0.10860433  0.00342020  1.0
  Sn  Sn238  1  0.36612467  0.44193767  0.00342020  1.0
  Sn  Sn239  1  0.36612467  0.77527100  0.00342020  1.0
  Sn  Sn240  1  0.69945800  0.10860433  0.00342020  1.0
  Sn  Sn241  1  0.69945800  0.44193767  0.00342020  1.0
  Sn  Sn242  1  0.69945800  0.77527100  0.00342020  1.0
  Sn  Sn243  1  0.03279133  0.27527100  0.10342020  1.0
  Sn  Sn244  1  0.03279133  0.60860433  0.10342020  1.0
  Sn  Sn245  1  0.03279133  0.94193767  0.10342020  1.0
  Sn  Sn246  1  0.36612467  0.27527100  0.10342020  1.0
  Sn  Sn247  1  0.36612467  0.60860433  0.10342020  1.0
  Sn  Sn248  1  0.36612467  0.94193767  0.10342020  1.0
  Sn  Sn249  1  0.69945800  0.27527100  0.10342020  1.0
  Sn  Sn250  1  0.69945800  0.60860433  0.10342020  1.0
  Sn  Sn251  1  0.69945800  0.94193767  0.10342020  1.0
  Sn  Sn252  1  0.30054200  0.22472900  0.19079300  1.0
  Sn  Sn253  1  0.30054200  0.55806233  0.19079300  1.0
  Sn  Sn254  1  0.30054200  0.89139567  0.19079300  1.0
  Sn  Sn255  1  0.63387533  0.22472900  0.19079300  1.0
  Sn  Sn256  1  0.63387533  0.55806233  0.19079300  1.0
  Sn  Sn257  1  0.63387533  0.89139567  0.19079300  1.0
  Sn  Sn258  1  0.96720867  0.22472900  0.19079300  1.0
  Sn  Sn259  1  0.96720867  0.55806233  0.19079300  1.0
  Sn  Sn260  1  0.96720867  0.89139567  0.19079300  1.0
  Sn  Sn261  1  0.30054200  0.05806233  0.09079300  1.0
  Sn  Sn262  1  0.30054200  0.39139567  0.09079300  1.0
  Sn  Sn263  1  0.30054200  0.72472900  0.09079300  1.0
  Sn  Sn264  1  0.63387533  0.05806233  0.09079300  1.0
  Sn  Sn265  1  0.63387533  0.39139567  0.09079300  1.0
  Sn  Sn266  1  0.63387533  0.72472900  0.09079300  1.0
  Sn  Sn267  1  0.96720867  0.05806233  0.09079300  1.0
  Sn  Sn268  1  0.96720867  0.39139567  0.09079300  1.0
  Sn  Sn269  1  0.96720867  0.72472900  0.09079300  1.0
  Sn  Sn270  1  0.13387533  0.30806233  0.18374540  1.0
  Sn  Sn271  1  0.13387533  0.64139567  0.18374540  1.0
  Sn  Sn272  1  0.13387533  0.97472900  0.18374540  1.0
  Sn  Sn273  1  0.46720867  0.30806233  0.18374540  1.0
  Sn  Sn274  1  0.46720867  0.64139567  0.18374540  1.0
  Sn  Sn275  1  0.46720867  0.97472900  0.18374540  1.0
  Sn  Sn276  1  0.80054200  0.30806233  0.18374540  1.0
  Sn  Sn277  1  0.80054200  0.64139567  0.18374540  1.0
  Sn  Sn278  1  0.80054200  0.97472900  0.18374540  1.0
  Sn  Sn279  1  0.13387533  0.14139567  0.08374540  1.0
  Sn  Sn280  1  0.13387533  0.47472900  0.08374540  1.0
  Sn  Sn281  1  0.13387533  0.80806233  0.08374540  1.0
  Sn  Sn282  1  0.46720867  0.14139567  0.08374540  1.0
  Sn  Sn283  1  0.46720867  0.47472900  0.08374540  1.0
  Sn  Sn284  1  0.46720867  0.80806233  0.08374540  1.0
  Sn  Sn285  1  0.80054200  0.14139567  0.08374540  1.0
  Sn  Sn286  1  0.80054200  0.47472900  0.08374540  1.0
  Sn  Sn287  1  0.80054200  0.80806233  0.08374540  1.0
  Sn  Sn288  1  0.19945800  0.02527100  0.01046780  1.0
  Sn  Sn289  1  0.19945800  0.35860433  0.01046780  1.0
  Sn  Sn290  1  0.19945800  0.69193767  0.01046780  1.0
  Sn  Sn291  1  0.53279133  0.02527100  0.01046780  1.0
  Sn  Sn292  1  0.53279133  0.35860433  0.01046780  1.0
  Sn  Sn293  1  0.53279133  0.69193767  0.01046780  1.0
  Sn  Sn294  1  0.86612467  0.02527100  0.01046780  1.0
  Sn  Sn295  1  0.86612467  0.35860433  0.01046780  1.0
  Sn  Sn296  1  0.86612467  0.69193767  0.01046780  1.0
  Sn  Sn297  1  0.19945800  0.19193767  0.11046780  1.0
  Sn  Sn298  1  0.19945800  0.52527100  0.11046780  1.0
  Sn  Sn299  1  0.19945800  0.85860433  0.11046780  1.0
  Sn  Sn300  1  0.53279133  0.19193767  0.11046780  1.0
  Sn  Sn301  1  0.53279133  0.52527100  0.11046780  1.0
  Sn  Sn302  1  0.53279133  0.85860433  0.11046780  1.0
  Sn  Sn303  1  0.86612467  0.19193767  0.11046780  1.0
  Sn  Sn304  1  0.86612467  0.52527100  0.11046780  1.0
  Sn  Sn305  1  0.86612467  0.85860433  0.11046780  1.0
  Sn  Sn306  1  0.02039133  0.11480433  0.10881460  1.0
  Sn  Sn307  1  0.02039133  0.44813767  0.10881460  1.0
  Sn  Sn308  1  0.02039133  0.78147100  0.10881460  1.0
  Sn  Sn309  1  0.35372467  0.11480433  0.10881460  1.0
  Sn  Sn310  1  0.35372467  0.44813767  0.10881460  1.0
  Sn  Sn311  1  0.35372467  0.78147100  0.10881460  1.0
  Sn  Sn312  1  0.68705800  0.11480433  0.10881460  1.0
  Sn  Sn313  1  0.68705800  0.44813767  0.10881460  1.0
  Sn  Sn314  1  0.68705800  0.78147100  0.10881460  1.0
  Sn  Sn315  1  0.02039133  0.28147100  0.00881460  1.0
  Sn  Sn316  1  0.02039133  0.61480433  0.00881460  1.0
  Sn  Sn317  1  0.02039133  0.94813767  0.00881460  1.0
  Sn  Sn318  1  0.35372467  0.28147100  0.00881460  1.0
  Sn  Sn319  1  0.35372467  0.61480433  0.00881460  1.0
  Sn  Sn320  1  0.35372467  0.94813767  0.00881460  1.0
  Sn  Sn321  1  0.68705800  0.28147100  0.00881460  1.0
  Sn  Sn322  1  0.68705800  0.61480433  0.00881460  1.0
  Sn  Sn323  1  0.68705800  0.94813767  0.00881460  1.0
  Sn  Sn324  1  0.14627533  0.30186233  0.09657980  1.0
  Sn  Sn325  1  0.14627533  0.63519567  0.09657980  1.0
  Sn  Sn326  1  0.14627533  0.96852900  0.09657980  1.0
  Sn  Sn327  1  0.47960867  0.30186233  0.09657980  1.0
  Sn  Sn328  1  0.47960867  0.63519567  0.09657980  1.0
  Sn  Sn329  1  0.47960867  0.96852900  0.09657980  1.0
  Sn  Sn330  1  0.81294200  0.30186233  0.09657980  1.0
  Sn  Sn331  1  0.81294200  0.63519567  0.09657980  1.0
  Sn  Sn332  1  0.81294200  0.96852900  0.09657980  1.0
  Sn  Sn333  1  0.14627533  0.13519567  0.19657980  1.0
  Sn  Sn334  1  0.14627533  0.46852900  0.19657980  1.0
  Sn  Sn335  1  0.14627533  0.80186233  0.19657980  1.0
  Sn  Sn336  1  0.47960867  0.13519567  0.19657980  1.0
  Sn  Sn337  1  0.47960867  0.46852900  0.19657980  1.0
  Sn  Sn338  1  0.47960867  0.80186233  0.19657980  1.0
  Sn  Sn339  1  0.81294200  0.13519567  0.19657980  1.0
  Sn  Sn340  1  0.81294200  0.46852900  0.19657980  1.0
  Sn  Sn341  1  0.81294200  0.80186233  0.19657980  1.0
  Sn  Sn342  1  0.31294200  0.21852900  0.08539860  1.0
  Sn  Sn343  1  0.31294200  0.55186233  0.08539860  1.0
  Sn  Sn344  1  0.31294200  0.88519567  0.08539860  1.0
  Sn  Sn345  1  0.64627533  0.21852900  0.08539860  1.0
  Sn  Sn346  1  0.64627533  0.55186233  0.08539860  1.0
  Sn  Sn347  1  0.64627533  0.88519567  0.08539860  1.0
  Sn  Sn348  1  0.97960867  0.21852900  0.08539860  1.0
  Sn  Sn349  1  0.97960867  0.55186233  0.08539860  1.0
  Sn  Sn350  1  0.97960867  0.88519567  0.08539860  1.0
  Sn  Sn351  1  0.31294200  0.05186233  0.18539860  1.0
  Sn  Sn352  1  0.31294200  0.38519567  0.18539860  1.0
  Sn  Sn353  1  0.31294200  0.71852900  0.18539860  1.0
  Sn  Sn354  1  0.64627533  0.05186233  0.18539860  1.0
  Sn  Sn355  1  0.64627533  0.38519567  0.18539860  1.0
  Sn  Sn356  1  0.64627533  0.71852900  0.18539860  1.0
  Sn  Sn357  1  0.97960867  0.05186233  0.18539860  1.0
  Sn  Sn358  1  0.97960867  0.38519567  0.18539860  1.0
  Sn  Sn359  1  0.97960867  0.71852900  0.18539860  1.0
  Ni  Ni360  1  0.30363633  0.30651517  0.33828890  1.0
  Ni  Ni361  1  0.30363633  0.63984850  0.33828890  1.0
  Ni  Ni362  1  0.30363633  0.97318183  0.33828890  1.0
  Ni  Ni363  1  0.63696967  0.30651517  0.33828890  1.0
  Ni  Ni364  1  0.63696967  0.63984850  0.33828890  1.0
  Ni  Ni365  1  0.63696967  0.97318183  0.33828890  1.0
  Ni  Ni366  1  0.97030300  0.30651517  0.33828890  1.0
  Ni  Ni367  1  0.97030300  0.63984850  0.33828890  1.0
  Ni  Ni368  1  0.97030300  0.97318183  0.33828890  1.0
  Ni  Ni369  1  0.30363633  0.13984850  0.23828890  1.0
  Ni  Ni370  1  0.30363633  0.47318183  0.23828890  1.0
  Ni  Ni371  1  0.30363633  0.80651517  0.23828890  1.0
  Ni  Ni372  1  0.63696967  0.13984850  0.23828890  1.0
  Ni  Ni373  1  0.63696967  0.47318183  0.23828890  1.0
  Ni  Ni374  1  0.63696967  0.80651517  0.23828890  1.0
  Ni  Ni375  1  0.97030300  0.13984850  0.23828890  1.0
  Ni  Ni376  1  0.97030300  0.47318183  0.23828890  1.0
  Ni  Ni377  1  0.97030300  0.80651517  0.23828890  1.0
  Ni  Ni378  1  0.02969700  0.02681817  0.25592430  1.0
  Ni  Ni379  1  0.02969700  0.36015150  0.25592430  1.0
  Ni  Ni380  1  0.02969700  0.69348483  0.25592430  1.0
  Ni  Ni381  1  0.36303033  0.02681817  0.25592430  1.0
  Ni  Ni382  1  0.36303033  0.36015150  0.25592430  1.0
  Ni  Ni383  1  0.36303033  0.69348483  0.25592430  1.0
  Ni  Ni384  1  0.69636367  0.02681817  0.25592430  1.0
  Ni  Ni385  1  0.69636367  0.36015150  0.25592430  1.0
  Ni  Ni386  1  0.69636367  0.69348483  0.25592430  1.0
  Ni  Ni387  1  0.02969700  0.19348483  0.35592430  1.0
  Ni  Ni388  1  0.02969700  0.52681817  0.35592430  1.0
  Ni  Ni389  1  0.02969700  0.86015150  0.35592430  1.0
  Ni  Ni390  1  0.36303033  0.19348483  0.35592430  1.0
  Ni  Ni391  1  0.36303033  0.52681817  0.35592430  1.0
  Ni  Ni392  1  0.36303033  0.86015150  0.35592430  1.0
  Ni  Ni393  1  0.69636367  0.19348483  0.35592430  1.0
  Ni  Ni394  1  0.69636367  0.52681817  0.35592430  1.0
  Ni  Ni395  1  0.69636367  0.86015150  0.35592430  1.0
  Ni  Ni396  1  0.07887300  0.04465583  0.29503450  1.0
  Ni  Ni397  1  0.07887300  0.37798917  0.29503450  1.0
  Ni  Ni398  1  0.07887300  0.71132250  0.29503450  1.0
  Ni  Ni399  1  0.41220633  0.04465583  0.29503450  1.0
  Ni  Ni400  1  0.41220633  0.37798917  0.29503450  1.0
  Ni  Ni401  1  0.41220633  0.71132250  0.29503450  1.0
  Ni  Ni402  1  0.74553967  0.04465583  0.29503450  1.0
  Ni  Ni403  1  0.74553967  0.37798917  0.29503450  1.0
  Ni  Ni404  1  0.74553967  0.71132250  0.29503450  1.0
  Ni  Ni405  1  0.07887300  0.21132250  0.39503450  1.0
  Ni  Ni406  1  0.07887300  0.54465583  0.39503450  1.0
  Ni  Ni407  1  0.07887300  0.87798917  0.39503450  1.0
  Ni  Ni408  1  0.41220633  0.21132250  0.39503450  1.0
  Ni  Ni409  1  0.41220633  0.54465583  0.39503450  1.0
  Ni  Ni410  1  0.41220633  0.87798917  0.39503450  1.0
  Ni  Ni411  1  0.74553967  0.21132250  0.39503450  1.0
  Ni  Ni412  1  0.74553967  0.54465583  0.39503450  1.0
  Ni  Ni413  1  0.74553967  0.87798917  0.39503450  1.0
  Ni  Ni414  1  0.25446033  0.20686217  0.34826790  1.0
  Ni  Ni415  1  0.25446033  0.54019550  0.34826790  1.0
  Ni  Ni416  1  0.25446033  0.87352883  0.34826790  1.0
  Ni  Ni417  1  0.58779367  0.20686217  0.34826790  1.0
  Ni  Ni418  1  0.58779367  0.54019550  0.34826790  1.0
  Ni  Ni419  1  0.58779367  0.87352883  0.34826790  1.0
  Ni  Ni420  1  0.92112700  0.20686217  0.34826790  1.0
  Ni  Ni421  1  0.92112700  0.54019550  0.34826790  1.0
  Ni  Ni422  1  0.92112700  0.87352883  0.34826790  1.0
  Ni  Ni423  1  0.25446033  0.04019550  0.24826790  1.0
  Ni  Ni424  1  0.25446033  0.37352883  0.24826790  1.0
  Ni  Ni425  1  0.25446033  0.70686217  0.24826790  1.0
  Ni  Ni426  1  0.58779367  0.04019550  0.24826790  1.0
  Ni  Ni427  1  0.58779367  0.37352883  0.24826790  1.0
  Ni  Ni428  1  0.58779367  0.70686217  0.24826790  1.0
  Ni  Ni429  1  0.92112700  0.04019550  0.24826790  1.0
  Ni  Ni430  1  0.92112700  0.37352883  0.24826790  1.0
  Ni  Ni431  1  0.92112700  0.70686217  0.24826790  1.0
  Ni  Ni432  1  0.08779367  0.03867750  0.39862150  1.0
  Ni  Ni433  1  0.08779367  0.37201083  0.39862150  1.0
  Ni  Ni434  1  0.08779367  0.70534417  0.39862150  1.0
  Ni  Ni435  1  0.42112700  0.03867750  0.39862150  1.0
  Ni  Ni436  1  0.42112700  0.37201083  0.39862150  1.0
  Ni  Ni437  1  0.42112700  0.70534417  0.39862150  1.0
  Ni  Ni438  1  0.75446033  0.03867750  0.39862150  1.0
  Ni  Ni439  1  0.75446033  0.37201083  0.39862150  1.0
  Ni  Ni440  1  0.75446033  0.70534417  0.39862150  1.0
  Ni  Ni441  1  0.08779367  0.20534417  0.29862150  1.0
  Ni  Ni442  1  0.08779367  0.53867750  0.29862150  1.0
  Ni  Ni443  1  0.08779367  0.87201083  0.29862150  1.0
  Ni  Ni444  1  0.42112700  0.20534417  0.29862150  1.0
  Ni  Ni445  1  0.42112700  0.53867750  0.29862150  1.0
  Ni  Ni446  1  0.42112700  0.87201083  0.29862150  1.0
  Ni  Ni447  1  0.75446033  0.20534417  0.29862150  1.0
  Ni  Ni448  1  0.75446033  0.53867750  0.29862150  1.0
  Ni  Ni449  1  0.75446033  0.87201083  0.29862150  1.0
  Ni  Ni450  1  0.08779367  0.29019550  0.24771070  1.0
  Ni  Ni451  1  0.08779367  0.62352883  0.24771070  1.0
  Ni  Ni452  1  0.08779367  0.95686217  0.24771070  1.0
  Ni  Ni453  1  0.42112700  0.29019550  0.24771070  1.0
  Ni  Ni454  1  0.42112700  0.62352883  0.24771070  1.0
  Ni  Ni455  1  0.42112700  0.95686217  0.24771070  1.0
  Ni  Ni456  1  0.75446033  0.29019550  0.24771070  1.0
  Ni  Ni457  1  0.75446033  0.62352883  0.24771070  1.0
  Ni  Ni458  1  0.75446033  0.95686217  0.24771070  1.0
  Ni  Ni459  1  0.08779367  0.12352883  0.34771070  1.0
  Ni  Ni460  1  0.08779367  0.45686217  0.34771070  1.0
  Ni  Ni461  1  0.08779367  0.79019550  0.34771070  1.0
  Ni  Ni462  1  0.42112700  0.12352883  0.34771070  1.0
  Ni  Ni463  1  0.42112700  0.45686217  0.34771070  1.0
  Ni  Ni464  1  0.42112700  0.79019550  0.34771070  1.0
  Ni  Ni465  1  0.75446033  0.12352883  0.34771070  1.0
  Ni  Ni466  1  0.75446033  0.45686217  0.34771070  1.0
  Ni  Ni467  1  0.75446033  0.79019550  0.34771070  1.0
  Ni  Ni468  1  0.25446033  0.28867750  0.29917870  1.0
  Ni  Ni469  1  0.25446033  0.62201083  0.29917870  1.0
  Ni  Ni470  1  0.25446033  0.95534417  0.29917870  1.0
  Ni  Ni471  1  0.58779367  0.28867750  0.29917870  1.0
  Ni  Ni472  1  0.58779367  0.62201083  0.29917870  1.0
  Ni  Ni473  1  0.58779367  0.95534417  0.29917870  1.0
  Ni  Ni474  1  0.92112700  0.28867750  0.29917870  1.0
  Ni  Ni475  1  0.92112700  0.62201083  0.29917870  1.0
  Ni  Ni476  1  0.92112700  0.95534417  0.29917870  1.0
  Ni  Ni477  1  0.25446033  0.12201083  0.39917870  1.0
  Ni  Ni478  1  0.25446033  0.45534417  0.39917870  1.0
  Ni  Ni479  1  0.25446033  0.78867750  0.39917870  1.0
  Ni  Ni480  1  0.58779367  0.12201083  0.39917870  1.0
  Ni  Ni481  1  0.58779367  0.45534417  0.39917870  1.0
  Ni  Ni482  1  0.58779367  0.78867750  0.39917870  1.0
  Ni  Ni483  1  0.92112700  0.12201083  0.39917870  1.0
  Ni  Ni484  1  0.92112700  0.45534417  0.39917870  1.0
  Ni  Ni485  1  0.92112700  0.78867750  0.39917870  1.0
  Ni  Ni486  1  0.07887300  0.12647117  0.24594530  1.0
  Ni  Ni487  1  0.07887300  0.45980450  0.24594530  1.0
  Ni  Ni488  1  0.07887300  0.79313783  0.24594530  1.0
  Ni  Ni489  1  0.41220633  0.12647117  0.24594530  1.0
  Ni  Ni490  1  0.41220633  0.45980450  0.24594530  1.0
  Ni  Ni491  1  0.41220633  0.79313783  0.24594530  1.0
  Ni  Ni492  1  0.74553967  0.12647117  0.24594530  1.0
  Ni  Ni493  1  0.74553967  0.45980450  0.24594530  1.0
  Ni  Ni494  1  0.74553967  0.79313783  0.24594530  1.0
  Ni  Ni495  1  0.07887300  0.29313783  0.34594530  1.0
  Ni  Ni496  1  0.07887300  0.62647117  0.34594530  1.0
  Ni  Ni497  1  0.07887300  0.95980450  0.34594530  1.0
  Ni  Ni498  1  0.41220633  0.29313783  0.34594530  1.0
  Ni  Ni499  1  0.41220633  0.62647117  0.34594530  1.0
  Ni  Ni500  1  0.41220633  0.95980450  0.34594530  1.0
  Ni  Ni501  1  0.74553967  0.29313783  0.34594530  1.0
  Ni  Ni502  1  0.74553967  0.62647117  0.34594530  1.0
  Ni  Ni503  1  0.74553967  0.95980450  0.34594530  1.0
  Ni  Ni504  1  0.24553967  0.29465583  0.39559170  1.0
  Ni  Ni505  1  0.24553967  0.62798917  0.39559170  1.0
  Ni  Ni506  1  0.24553967  0.96132250  0.39559170  1.0
  Ni  Ni507  1  0.57887300  0.29465583  0.39559170  1.0
  Ni  Ni508  1  0.57887300  0.62798917  0.39559170  1.0
  Ni  Ni509  1  0.57887300  0.96132250  0.39559170  1.0
  Ni  Ni510  1  0.91220633  0.29465583  0.39559170  1.0
  Ni  Ni511  1  0.91220633  0.62798917  0.39559170  1.0
  Ni  Ni512  1  0.91220633  0.96132250  0.39559170  1.0
  Ni  Ni513  1  0.24553967  0.12798917  0.29559170  1.0
  Ni  Ni514  1  0.24553967  0.46132250  0.29559170  1.0
  Ni  Ni515  1  0.24553967  0.79465583  0.29559170  1.0
  Ni  Ni516  1  0.57887300  0.12798917  0.29559170  1.0
  Ni  Ni517  1  0.57887300  0.46132250  0.29559170  1.0
  Ni  Ni518  1  0.57887300  0.79465583  0.29559170  1.0
  Ni  Ni519  1  0.91220633  0.12798917  0.29559170  1.0
  Ni  Ni520  1  0.91220633  0.46132250  0.29559170  1.0
  Ni  Ni521  1  0.91220633  0.79465583  0.29559170  1.0
  Ni  Ni522  1  0.13696967  0.05651517  0.33810610  1.0
  Ni  Ni523  1  0.13696967  0.38984850  0.33810610  1.0
  Ni  Ni524  1  0.13696967  0.72318183  0.33810610  1.0
  Ni  Ni525  1  0.47030300  0.05651517  0.33810610  1.0
  Ni  Ni526  1  0.47030300  0.38984850  0.33810610  1.0
  Ni  Ni527  1  0.47030300  0.72318183  0.33810610  1.0
  Ni  Ni528  1  0.80363633  0.05651517  0.33810610  1.0
  Ni  Ni529  1  0.80363633  0.38984850  0.33810610  1.0
  Ni  Ni530  1  0.80363633  0.72318183  0.33810610  1.0
  Ni  Ni531  1  0.13696967  0.22318183  0.23810610  1.0
  Ni  Ni532  1  0.13696967  0.55651517  0.23810610  1.0
  Ni  Ni533  1  0.13696967  0.88984850  0.23810610  1.0
  Ni  Ni534  1  0.47030300  0.22318183  0.23810610  1.0
  Ni  Ni535  1  0.47030300  0.55651517  0.23810610  1.0
  Ni  Ni536  1  0.47030300  0.88984850  0.23810610  1.0
  Ni  Ni537  1  0.80363633  0.22318183  0.23810610  1.0
  Ni  Ni538  1  0.80363633  0.55651517  0.23810610  1.0
  Ni  Ni539  1  0.80363633  0.88984850  0.23810610  1.0
  Ni  Ni540  1  0.24553967  0.04313783  0.34650250  1.0
  Ni  Ni541  1  0.24553967  0.37647117  0.34650250  1.0
  Ni  Ni542  1  0.24553967  0.70980450  0.34650250  1.0
  Ni  Ni543  1  0.57887300  0.04313783  0.34650250  1.0
  Ni  Ni544  1  0.57887300  0.37647117  0.34650250  1.0
  Ni  Ni545  1  0.57887300  0.70980450  0.34650250  1.0
  Ni  Ni546  1  0.91220633  0.04313783  0.34650250  1.0
  Ni  Ni547  1  0.91220633  0.37647117  0.34650250  1.0
  Ni  Ni548  1  0.91220633  0.70980450  0.34650250  1.0
  Ni  Ni549  1  0.24553967  0.20980450  0.24650250  1.0
  Ni  Ni550  1  0.24553967  0.54313783  0.24650250  1.0
  Ni  Ni551  1  0.24553967  0.87647117  0.24650250  1.0
  Ni  Ni552  1  0.57887300  0.20980450  0.24650250  1.0
  Ni  Ni553  1  0.57887300  0.54313783  0.24650250  1.0
  Ni  Ni554  1  0.57887300  0.87647117  0.24650250  1.0
  Ni  Ni555  1  0.91220633  0.20980450  0.24650250  1.0
  Ni  Ni556  1  0.91220633  0.54313783  0.24650250  1.0
  Ni  Ni557  1  0.91220633  0.87647117  0.24650250  1.0
  Ni  Ni558  1  0.19636367  0.27681817  0.25610710  1.0
  Ni  Ni559  1  0.19636367  0.61015150  0.25610710  1.0
  Ni  Ni560  1  0.19636367  0.94348483  0.25610710  1.0
  Ni  Ni561  1  0.52969700  0.27681817  0.25610710  1.0
  Ni  Ni562  1  0.52969700  0.61015150  0.25610710  1.0
  Ni  Ni563  1  0.52969700  0.94348483  0.25610710  1.0
  Ni  Ni564  1  0.86303033  0.27681817  0.25610710  1.0
  Ni  Ni565  1  0.86303033  0.61015150  0.25610710  1.0
  Ni  Ni566  1  0.86303033  0.94348483  0.25610710  1.0
  Ni  Ni567  1  0.19636367  0.11015150  0.35610710  1.0
  Ni  Ni568  1  0.19636367  0.44348483  0.35610710  1.0
  Ni  Ni569  1  0.19636367  0.77681817  0.35610710  1.0
  Ni  Ni570  1  0.52969700  0.11015150  0.35610710  1.0
  Ni  Ni571  1  0.52969700  0.44348483  0.35610710  1.0
  Ni  Ni572  1  0.52969700  0.77681817  0.35610710  1.0
  Ni  Ni573  1  0.86303033  0.11015150  0.35610710  1.0
  Ni  Ni574  1  0.86303033  0.44348483  0.35610710  1.0
  Ni  Ni575  1  0.86303033  0.77681817  0.35610710  1.0
  Sn  Sn576  1  0.18705800  0.03147100  0.29763340  1.0
  Sn  Sn577  1  0.18705800  0.36480433  0.29763340  1.0
  Sn  Sn578  1  0.18705800  0.69813767  0.29763340  1.0
  Sn  Sn579  1  0.52039133  0.03147100  0.29763340  1.0
  Sn  Sn580  1  0.52039133  0.36480433  0.29763340  1.0
  Sn  Sn581  1  0.52039133  0.69813767  0.29763340  1.0
  Sn  Sn582  1  0.85372467  0.03147100  0.29763340  1.0
  Sn  Sn583  1  0.85372467  0.36480433  0.29763340  1.0
  Sn  Sn584  1  0.85372467  0.69813767  0.29763340  1.0
  Sn  Sn585  1  0.18705800  0.19813767  0.39763340  1.0
  Sn  Sn586  1  0.18705800  0.53147100  0.39763340  1.0
  Sn  Sn587  1  0.18705800  0.86480433  0.39763340  1.0
  Sn  Sn588  1  0.52039133  0.19813767  0.39763340  1.0
  Sn  Sn589  1  0.52039133  0.53147100  0.39763340  1.0
  Sn  Sn590  1  0.52039133  0.86480433  0.39763340  1.0
  Sn  Sn591  1  0.85372467  0.19813767  0.39763340  1.0
  Sn  Sn592  1  0.85372467  0.53147100  0.39763340  1.0
  Sn  Sn593  1  0.85372467  0.86480433  0.39763340  1.0
  Sn  Sn594  1  0.03279133  0.10860433  0.20342020  1.0
  Sn  Sn595  1  0.03279133  0.44193767  0.20342020  1.0
  Sn  Sn596  1  0.03279133  0.77527100  0.20342020  1.0
  Sn  Sn597  1  0.36612467  0.10860433  0.20342020  1.0
  Sn  Sn598  1  0.36612467  0.44193767  0.20342020  1.0
  Sn  Sn599  1  0.36612467  0.77527100  0.20342020  1.0
  Sn  Sn600  1  0.69945800  0.10860433  0.20342020  1.0
  Sn  Sn601  1  0.69945800  0.44193767  0.20342020  1.0
  Sn  Sn602  1  0.69945800  0.77527100  0.20342020  1.0
  Sn  Sn603  1  0.03279133  0.27527100  0.30342020  1.0
  Sn  Sn604  1  0.03279133  0.60860433  0.30342020  1.0
  Sn  Sn605  1  0.03279133  0.94193767  0.30342020  1.0
  Sn  Sn606  1  0.36612467  0.27527100  0.30342020  1.0
  Sn  Sn607  1  0.36612467  0.60860433  0.30342020  1.0
  Sn  Sn608  1  0.36612467  0.94193767  0.30342020  1.0
  Sn  Sn609  1  0.69945800  0.27527100  0.30342020  1.0
  Sn  Sn610  1  0.69945800  0.60860433  0.30342020  1.0
  Sn  Sn611  1  0.69945800  0.94193767  0.30342020  1.0
  Sn  Sn612  1  0.30054200  0.22472900  0.39079300  1.0
  Sn  Sn613  1  0.30054200  0.55806233  0.39079300  1.0
  Sn  Sn614  1  0.30054200  0.89139567  0.39079300  1.0
  Sn  Sn615  1  0.63387533  0.22472900  0.39079300  1.0
  Sn  Sn616  1  0.63387533  0.55806233  0.39079300  1.0
  Sn  Sn617  1  0.63387533  0.89139567  0.39079300  1.0
  Sn  Sn618  1  0.96720867  0.22472900  0.39079300  1.0
  Sn  Sn619  1  0.96720867  0.55806233  0.39079300  1.0
  Sn  Sn620  1  0.96720867  0.89139567  0.39079300  1.0
  Sn  Sn621  1  0.30054200  0.05806233  0.29079300  1.0
  Sn  Sn622  1  0.30054200  0.39139567  0.29079300  1.0
  Sn  Sn623  1  0.30054200  0.72472900  0.29079300  1.0
  Sn  Sn624  1  0.63387533  0.05806233  0.29079300  1.0
  Sn  Sn625  1  0.63387533  0.39139567  0.29079300  1.0
  Sn  Sn626  1  0.63387533  0.72472900  0.29079300  1.0
  Sn  Sn627  1  0.96720867  0.05806233  0.29079300  1.0
  Sn  Sn628  1  0.96720867  0.39139567  0.29079300  1.0
  Sn  Sn629  1  0.96720867  0.72472900  0.29079300  1.0
  Sn  Sn630  1  0.13387533  0.30806233  0.38374540  1.0
  Sn  Sn631  1  0.13387533  0.64139567  0.38374540  1.0
  Sn  Sn632  1  0.13387533  0.97472900  0.38374540  1.0
  Sn  Sn633  1  0.46720867  0.30806233  0.38374540  1.0
  Sn  Sn634  1  0.46720867  0.64139567  0.38374540  1.0
  Sn  Sn635  1  0.46720867  0.97472900  0.38374540  1.0
  Sn  Sn636  1  0.80054200  0.30806233  0.38374540  1.0
  Sn  Sn637  1  0.80054200  0.64139567  0.38374540  1.0
  Sn  Sn638  1  0.80054200  0.97472900  0.38374540  1.0
  Sn  Sn639  1  0.13387533  0.14139567  0.28374540  1.0
  Sn  Sn640  1  0.13387533  0.47472900  0.28374540  1.0
  Sn  Sn641  1  0.13387533  0.80806233  0.28374540  1.0
  Sn  Sn642  1  0.46720867  0.14139567  0.28374540  1.0
  Sn  Sn643  1  0.46720867  0.47472900  0.28374540  1.0
  Sn  Sn644  1  0.46720867  0.80806233  0.28374540  1.0
  Sn  Sn645  1  0.80054200  0.14139567  0.28374540  1.0
  Sn  Sn646  1  0.80054200  0.47472900  0.28374540  1.0
  Sn  Sn647  1  0.80054200  0.80806233  0.28374540  1.0
  Sn  Sn648  1  0.19945800  0.02527100  0.21046780  1.0
  Sn  Sn649  1  0.19945800  0.35860433  0.21046780  1.0
  Sn  Sn650  1  0.19945800  0.69193767  0.21046780  1.0
  Sn  Sn651  1  0.53279133  0.02527100  0.21046780  1.0
  Sn  Sn652  1  0.53279133  0.35860433  0.21046780  1.0
  Sn  Sn653  1  0.53279133  0.69193767  0.21046780  1.0
  Sn  Sn654  1  0.86612467  0.02527100  0.21046780  1.0
  Sn  Sn655  1  0.86612467  0.35860433  0.21046780  1.0
  Sn  Sn656  1  0.86612467  0.69193767  0.21046780  1.0
  Sn  Sn657  1  0.19945800  0.19193767  0.31046780  1.0
  Sn  Sn658  1  0.19945800  0.52527100  0.31046780  1.0
  Sn  Sn659  1  0.19945800  0.85860433  0.31046780  1.0
  Sn  Sn660  1  0.53279133  0.19193767  0.31046780  1.0
  Sn  Sn661  1  0.53279133  0.52527100  0.31046780  1.0
  Sn  Sn662  1  0.53279133  0.85860433  0.31046780  1.0
  Sn  Sn663  1  0.86612467  0.19193767  0.31046780  1.0
  Sn  Sn664  1  0.86612467  0.52527100  0.31046780  1.0
  Sn  Sn665  1  0.86612467  0.85860433  0.31046780  1.0
  Sn  Sn666  1  0.02039133  0.11480433  0.30881460  1.0
  Sn  Sn667  1  0.02039133  0.44813767  0.30881460  1.0
  Sn  Sn668  1  0.02039133  0.78147100  0.30881460  1.0
  Sn  Sn669  1  0.35372467  0.11480433  0.30881460  1.0
  Sn  Sn670  1  0.35372467  0.44813767  0.30881460  1.0
  Sn  Sn671  1  0.35372467  0.78147100  0.30881460  1.0
  Sn  Sn672  1  0.68705800  0.11480433  0.30881460  1.0
  Sn  Sn673  1  0.68705800  0.44813767  0.30881460  1.0
  Sn  Sn674  1  0.68705800  0.78147100  0.30881460  1.0
  Sn  Sn675  1  0.02039133  0.28147100  0.20881460  1.0
  Sn  Sn676  1  0.02039133  0.61480433  0.20881460  1.0
  Sn  Sn677  1  0.02039133  0.94813767  0.20881460  1.0
  Sn  Sn678  1  0.35372467  0.28147100  0.20881460  1.0
  Sn  Sn679  1  0.35372467  0.61480433  0.20881460  1.0
  Sn  Sn680  1  0.35372467  0.94813767  0.20881460  1.0
  Sn  Sn681  1  0.68705800  0.28147100  0.20881460  1.0
  Sn  Sn682  1  0.68705800  0.61480433  0.20881460  1.0
  Sn  Sn683  1  0.68705800  0.94813767  0.20881460  1.0
  Sn  Sn684  1  0.14627533  0.30186233  0.29657980  1.0
  Sn  Sn685  1  0.14627533  0.63519567  0.29657980  1.0
  Sn  Sn686  1  0.14627533  0.96852900  0.29657980  1.0
  Sn  Sn687  1  0.47960867  0.30186233  0.29657980  1.0
  Sn  Sn688  1  0.47960867  0.63519567  0.29657980  1.0
  Sn  Sn689  1  0.47960867  0.96852900  0.29657980  1.0
  Sn  Sn690  1  0.81294200  0.30186233  0.29657980  1.0
  Sn  Sn691  1  0.81294200  0.63519567  0.29657980  1.0
  Sn  Sn692  1  0.81294200  0.96852900  0.29657980  1.0
  Sn  Sn693  1  0.14627533  0.13519567  0.39657980  1.0
  Sn  Sn694  1  0.14627533  0.46852900  0.39657980  1.0
  Sn  Sn695  1  0.14627533  0.80186233  0.39657980  1.0
  Sn  Sn696  1  0.47960867  0.13519567  0.39657980  1.0
  Sn  Sn697  1  0.47960867  0.46852900  0.39657980  1.0
  Sn  Sn698  1  0.47960867  0.80186233  0.39657980  1.0
  Sn  Sn699  1  0.81294200  0.13519567  0.39657980  1.0
  Sn  Sn700  1  0.81294200  0.46852900  0.39657980  1.0
  Sn  Sn701  1  0.81294200  0.80186233  0.39657980  1.0
  Sn  Sn702  1  0.31294200  0.21852900  0.28539860  1.0
  Sn  Sn703  1  0.31294200  0.55186233  0.28539860  1.0
  Sn  Sn704  1  0.31294200  0.88519567  0.28539860  1.0
  Sn  Sn705  1  0.64627533  0.21852900  0.28539860  1.0
  Sn  Sn706  1  0.64627533  0.55186233  0.28539860  1.0
  Sn  Sn707  1  0.64627533  0.88519567  0.28539860  1.0
  Sn  Sn708  1  0.97960867  0.21852900  0.28539860  1.0
  Sn  Sn709  1  0.97960867  0.55186233  0.28539860  1.0
  Sn  Sn710  1  0.97960867  0.88519567  0.28539860  1.0
  Sn  Sn711  1  0.31294200  0.05186233  0.38539860  1.0
  Sn  Sn712  1  0.31294200  0.38519567  0.38539860  1.0
  Sn  Sn713  1  0.31294200  0.71852900  0.38539860  1.0
  Sn  Sn714  1  0.64627533  0.05186233  0.38539860  1.0
  Sn  Sn715  1  0.64627533  0.38519567  0.38539860  1.0
  Sn  Sn716  1  0.64627533  0.71852900  0.38539860  1.0
  Sn  Sn717  1  0.97960867  0.05186233  0.38539860  1.0
  Sn  Sn718  1  0.97960867  0.38519567  0.38539860  1.0
  Sn  Sn719  1  0.97960867  0.71852900  0.38539860  1.0
