# generated using pymatgen
data_Ni4Ge
_symmetry_space_group_name_H-M   'P 1'
_cell_length_a   31.48419712
_cell_length_b   58.32512840
_cell_length_c   196.19712780
_cell_angle_alpha   7.72385744
_cell_angle_beta   154.28618723
_cell_angle_gamma   153.14881477
_symmetry_Int_Tables_number   1
_chemical_formula_structural   Ni4Ge
_chemical_formula_sum   'Ni576 Ge144'
_cell_volume   21007.68165873
_cell_formula_units_Z   144
loop_
 _symmetry_equiv_pos_site_id
 _symmetry_equiv_pos_as_xyz
  1  'x, y, z'
loop_
 _atom_site_type_symbol
 _atom_site_label
 _atom_site_symmetry_multiplicity
 _atom_site_fract_x
 _atom_site_fract_y
 _atom_site_fract_z
 _atom_site_occupancy
  Ni  Ni0  1  0.26673967  0.19978100  0.03751561  1.0
  Ni  Ni1  1  0.26673967  0.53311433  0.03751561  1.0
  Ni  Ni2  1  0.26673967  0.86644767  0.03751561  1.0
  Ni  Ni3  1  0.60007300  0.19978100  0.03751561  1.0
  Ni  Ni4  1  0.60007300  0.53311433  0.03751561  1.0
  Ni  Ni5  1  0.60007300  0.86644767  0.03751561  1.0
  Ni  Ni6  1  0.93340633  0.19978100  0.03751561  1.0
  Ni  Ni7  1  0.93340633  0.53311433  0.03751561  1.0
  Ni  Ni8  1  0.93340633  0.86644767  0.03751561  1.0
  Ni  Ni9  1  0.10007300  0.03311433  0.01251561  1.0
  Ni  Ni10  1  0.10007300  0.36644767  0.01251561  1.0
  Ni  Ni11  1  0.10007300  0.69978100  0.01251561  1.0
  Ni  Ni12  1  0.43340633  0.03311433  0.01251561  1.0
  Ni  Ni13  1  0.43340633  0.36644767  0.01251561  1.0
  Ni  Ni14  1  0.43340633  0.69978100  0.01251561  1.0
  Ni  Ni15  1  0.76673967  0.03311433  0.01251561  1.0
  Ni  Ni16  1  0.76673967  0.36644767  0.01251561  1.0
  Ni  Ni17  1  0.76673967  0.69978100  0.01251561  1.0
  Ni  Ni18  1  0.19993783  0.06685317  0.02749534  1.0
  Ni  Ni19  1  0.19993783  0.40018650  0.02749534  1.0
  Ni  Ni20  1  0.19993783  0.73351983  0.02749534  1.0
  Ni  Ni21  1  0.53327117  0.06685317  0.02749534  1.0
  Ni  Ni22  1  0.53327117  0.40018650  0.02749534  1.0
  Ni  Ni23  1  0.53327117  0.73351983  0.02749534  1.0
  Ni  Ni24  1  0.86660450  0.06685317  0.02749534  1.0
  Ni  Ni25  1  0.86660450  0.40018650  0.02749534  1.0
  Ni  Ni26  1  0.86660450  0.73351983  0.02749534  1.0
  Ni  Ni27  1  0.03327117  0.23351983  0.00249534  1.0
  Ni  Ni28  1  0.03327117  0.56685317  0.00249534  1.0
  Ni  Ni29  1  0.03327117  0.90018650  0.00249534  1.0
  Ni  Ni30  1  0.36660450  0.23351983  0.00249534  1.0
  Ni  Ni31  1  0.36660450  0.56685317  0.00249534  1.0
  Ni  Ni32  1  0.36660450  0.90018650  0.00249534  1.0
  Ni  Ni33  1  0.69993783  0.23351983  0.00249534  1.0
  Ni  Ni34  1  0.69993783  0.56685317  0.00249534  1.0
  Ni  Ni35  1  0.69993783  0.90018650  0.00249534  1.0
  Ni  Ni36  1  0.30006217  0.09981350  0.04251399  1.0
  Ni  Ni37  1  0.30006217  0.43314683  0.04251399  1.0
  Ni  Ni38  1  0.30006217  0.76648017  0.04251399  1.0
  Ni  Ni39  1  0.63339550  0.09981350  0.04251399  1.0
  Ni  Ni40  1  0.63339550  0.43314683  0.04251399  1.0
  Ni  Ni41  1  0.63339550  0.76648017  0.04251399  1.0
  Ni  Ni42  1  0.96672883  0.09981350  0.04251399  1.0
  Ni  Ni43  1  0.96672883  0.43314683  0.04251399  1.0
  Ni  Ni44  1  0.96672883  0.76648017  0.04251399  1.0
  Ni  Ni45  1  0.13339550  0.26648017  0.01751399  1.0
  Ni  Ni46  1  0.13339550  0.59981350  0.01751399  1.0
  Ni  Ni47  1  0.13339550  0.93314683  0.01751399  1.0
  Ni  Ni48  1  0.46672883  0.26648017  0.01751399  1.0
  Ni  Ni49  1  0.46672883  0.59981350  0.01751399  1.0
  Ni  Ni50  1  0.46672883  0.93314683  0.01751399  1.0
  Ni  Ni51  1  0.80006217  0.26648017  0.01751399  1.0
  Ni  Ni52  1  0.80006217  0.59981350  0.01751399  1.0
  Ni  Ni53  1  0.80006217  0.93314683  0.01751399  1.0
  Ni  Ni54  1  0.23326033  0.30021900  0.03249371  1.0
  Ni  Ni55  1  0.23326033  0.63355233  0.03249371  1.0
  Ni  Ni56  1  0.23326033  0.96688567  0.03249371  1.0
  Ni  Ni57  1  0.56659367  0.30021900  0.03249371  1.0
  Ni  Ni58  1  0.56659367  0.63355233  0.03249371  1.0
  Ni  Ni59  1  0.56659367  0.96688567  0.03249371  1.0
  Ni  Ni60  1  0.89992700  0.30021900  0.03249371  1.0
  Ni  Ni61  1  0.89992700  0.63355233  0.03249371  1.0
  Ni  Ni62  1  0.89992700  0.96688567  0.03249371  1.0
  Ni  Ni63  1  0.06659367  0.13355233  0.00749371  1.0
  Ni  Ni64  1  0.06659367  0.46688567  0.00749371  1.0
  Ni  Ni65  1  0.06659367  0.80021900  0.00749371  1.0
  Ni  Ni66  1  0.39992700  0.13355233  0.00749371  1.0
  Ni  Ni67  1  0.39992700  0.46688567  0.00749371  1.0
  Ni  Ni68  1  0.39992700  0.80021900  0.00749371  1.0
  Ni  Ni69  1  0.73326033  0.13355233  0.00749371  1.0
  Ni  Ni70  1  0.73326033  0.46688567  0.00749371  1.0
  Ni  Ni71  1  0.73326033  0.80021900  0.00749371  1.0
  Ge  Ge72  1  0.00000000  0.00000000  0.04750466  1.0
  Ge  Ge73  1  0.00000000  0.33333333  0.04750466  1.0
  Ge  Ge74  1  0.00000000  0.66666667  0.04750466  1.0
  Ge  Ge75  1  0.33333333  0.00000000  0.04750466  1.0
  Ge  Ge76  1  0.33333333  0.33333333  0.04750466  1.0
  Ge  Ge77  1  0.33333333  0.66666667  0.04750466  1.0
  Ge  Ge78  1  0.66666667  0.00000000  0.04750466  1.0
  Ge  Ge79  1  0.66666667  0.33333333  0.04750466  1.0
  Ge  Ge80  1  0.66666667  0.66666667  0.04750466  1.0
  Ge  Ge81  1  0.16666667  0.16666667  0.02250466  1.0
  Ge  Ge82  1  0.16666667  0.50000000  0.02250466  1.0
  Ge  Ge83  1  0.16666667  0.83333333  0.02250466  1.0
  Ge  Ge84  1  0.50000000  0.16666667  0.02250466  1.0
  Ge  Ge85  1  0.50000000  0.50000000  0.02250466  1.0
  Ge  Ge86  1  0.50000000  0.83333333  0.02250466  1.0
  Ge  Ge87  1  0.83333333  0.16666667  0.02250466  1.0
  Ge  Ge88  1  0.83333333  0.50000000  0.02250466  1.0
  Ge  Ge89  1  0.83333333  0.83333333  0.02250466  1.0
  Ni  Ni90  1  0.26673967  0.19978100  0.08751561  1.0
  Ni  Ni91  1  0.26673967  0.53311433  0.08751561  1.0
  Ni  Ni92  1  0.26673967  0.86644767  0.08751561  1.0
  Ni  Ni93  1  0.60007300  0.19978100  0.08751561  1.0
  Ni  Ni94  1  0.60007300  0.53311433  0.08751561  1.0
  Ni  Ni95  1  0.60007300  0.86644767  0.08751561  1.0
  Ni  Ni96  1  0.93340633  0.19978100  0.08751561  1.0
  Ni  Ni97  1  0.93340633  0.53311433  0.08751561  1.0
  Ni  Ni98  1  0.93340633  0.86644767  0.08751561  1.0
  Ni  Ni99  1  0.10007300  0.03311433  0.06251561  1.0
  Ni  Ni100  1  0.10007300  0.36644767  0.06251561  1.0
  Ni  Ni101  1  0.10007300  0.69978100  0.06251561  1.0
  Ni  Ni102  1  0.43340633  0.03311433  0.06251561  1.0
  Ni  Ni103  1  0.43340633  0.36644767  0.06251561  1.0
  Ni  Ni104  1  0.43340633  0.69978100  0.06251561  1.0
  Ni  Ni105  1  0.76673967  0.03311433  0.06251561  1.0
  Ni  Ni106  1  0.76673967  0.36644767  0.06251561  1.0
  Ni  Ni107  1  0.76673967  0.69978100  0.06251561  1.0
  Ni  Ni108  1  0.19993783  0.06685317  0.07749534  1.0
  Ni  Ni109  1  0.19993783  0.40018650  0.07749534  1.0
  Ni  Ni110  1  0.19993783  0.73351983  0.07749534  1.0
  Ni  Ni111  1  0.53327117  0.06685317  0.07749534  1.0
  Ni  Ni112  1  0.53327117  0.40018650  0.07749534  1.0
  Ni  Ni113  1  0.53327117  0.73351983  0.07749534  1.0
  Ni  Ni114  1  0.86660450  0.06685317  0.07749534  1.0
  Ni  Ni115  1  0.86660450  0.40018650  0.07749534  1.0
  Ni  Ni116  1  0.86660450  0.73351983  0.07749534  1.0
  Ni  Ni117  1  0.03327117  0.23351983  0.05249534  1.0
  Ni  Ni118  1  0.03327117  0.56685317  0.05249534  1.0
  Ni  Ni119  1  0.03327117  0.90018650  0.05249534  1.0
  Ni  Ni120  1  0.36660450  0.23351983  0.05249534  1.0
  Ni  Ni121  1  0.36660450  0.56685317  0.05249534  1.0
  Ni  Ni122  1  0.36660450  0.90018650  0.05249534  1.0
  Ni  Ni123  1  0.69993783  0.23351983  0.05249534  1.0
  Ni  Ni124  1  0.69993783  0.56685317  0.05249534  1.0
  Ni  Ni125  1  0.69993783  0.90018650  0.05249534  1.0
  Ni  Ni126  1  0.30006217  0.09981350  0.09251399  1.0
  Ni  Ni127  1  0.30006217  0.43314683  0.09251399  1.0
  Ni  Ni128  1  0.30006217  0.76648017  0.09251399  1.0
  Ni  Ni129  1  0.63339550  0.09981350  0.09251399  1.0
  Ni  Ni130  1  0.63339550  0.43314683  0.09251399  1.0
  Ni  Ni131  1  0.63339550  0.76648017  0.09251399  1.0
  Ni  Ni132  1  0.96672883  0.09981350  0.09251399  1.0
  Ni  Ni133  1  0.96672883  0.43314683  0.09251399  1.0
  Ni  Ni134  1  0.96672883  0.76648017  0.09251399  1.0
  Ni  Ni135  1  0.13339550  0.26648017  0.06751399  1.0
  Ni  Ni136  1  0.13339550  0.59981350  0.06751399  1.0
  Ni  Ni137  1  0.13339550  0.93314683  0.06751399  1.0
  Ni  Ni138  1  0.46672883  0.26648017  0.06751399  1.0
  Ni  Ni139  1  0.46672883  0.59981350  0.06751399  1.0
  Ni  Ni140  1  0.46672883  0.93314683  0.06751399  1.0
  Ni  Ni141  1  0.80006217  0.26648017  0.06751399  1.0
  Ni  Ni142  1  0.80006217  0.59981350  0.06751399  1.0
  Ni  Ni143  1  0.80006217  0.93314683  0.06751399  1.0
  Ni  Ni144  1  0.23326033  0.30021900  0.08249371  1.0
  Ni  Ni145  1  0.23326033  0.63355233  0.08249371  1.0
  Ni  Ni146  1  0.23326033  0.96688567  0.08249371  1.0
  Ni  Ni147  1  0.56659367  0.30021900  0.08249371  1.0
  Ni  Ni148  1  0.56659367  0.63355233  0.08249371  1.0
  Ni  Ni149  1  0.56659367  0.96688567  0.08249371  1.0
  Ni  Ni150  1  0.89992700  0.30021900  0.08249371  1.0
  Ni  Ni151  1  0.89992700  0.63355233  0.08249371  1.0
  Ni  Ni152  1  0.89992700  0.96688567  0.08249371  1.0
  Ni  Ni153  1  0.06659367  0.13355233  0.05749371  1.0
  Ni  Ni154  1  0.06659367  0.46688567  0.05749371  1.0
  Ni  Ni155  1  0.06659367  0.80021900  0.05749371  1.0
  Ni  Ni156  1  0.39992700  0.13355233  0.05749371  1.0
  Ni  Ni157  1  0.39992700  0.46688567  0.05749371  1.0
  Ni  Ni158  1  0.39992700  0.80021900  0.05749371  1.0
  Ni  Ni159  1  0.73326033  0.13355233  0.05749371  1.0
  Ni  Ni160  1  0.73326033  0.46688567  0.05749371  1.0
  Ni  Ni161  1  0.73326033  0.80021900  0.05749371  1.0
  Ge  Ge162  1  0.00000000  0.00000000  0.09750466  1.0
  Ge  Ge163  1  0.00000000  0.33333333  0.09750466  1.0
  Ge  Ge164  1  0.00000000  0.66666667  0.09750466  1.0
  Ge  Ge165  1  0.33333333  0.00000000  0.09750466  1.0
  Ge  Ge166  1  0.33333333  0.33333333  0.09750466  1.0
  Ge  Ge167  1  0.33333333  0.66666667  0.09750466  1.0
  Ge  Ge168  1  0.66666667  0.00000000  0.09750466  1.0
  Ge  Ge169  1  0.66666667  0.33333333  0.09750466  1.0
  Ge  Ge170  1  0.66666667  0.66666667  0.09750466  1.0
  Ge  Ge171  1  0.16666667  0.16666667  0.07250466  1.0
  Ge  Ge172  1  0.16666667  0.50000000  0.07250466  1.0
  Ge  Ge173  1  0.16666667  0.83333333  0.07250466  1.0
  Ge  Ge174  1  0.50000000  0.16666667  0.07250466  1.0
  Ge  Ge175  1  0.50000000  0.50000000  0.07250466  1.0
  Ge  Ge176  1  0.50000000  0.83333333  0.07250466  1.0
  Ge  Ge177  1  0.83333333  0.16666667  0.07250466  1.0
  Ge  Ge178  1  0.83333333  0.50000000  0.07250466  1.0
  Ge  Ge179  1  0.83333333  0.83333333  0.07250466  1.0
  Ni  Ni180  1  0.26673967  0.19978100  0.13751561  1.0
  Ni  Ni181  1  0.26673967  0.53311433  0.13751561  1.0
  Ni  Ni182  1  0.26673967  0.86644767  0.13751561  1.0
  Ni  Ni183  1  0.60007300  0.19978100  0.13751561  1.0
  Ni  Ni184  1  0.60007300  0.53311433  0.13751561  1.0
  Ni  Ni185  1  0.60007300  0.86644767  0.13751561  1.0
  Ni  Ni186  1  0.93340633  0.19978100  0.13751561  1.0
  Ni  Ni187  1  0.93340633  0.53311433  0.13751561  1.0
  Ni  Ni188  1  0.93340633  0.86644767  0.13751561  1.0
  Ni  Ni189  1  0.10007300  0.03311433  0.11251561  1.0
  Ni  Ni190  1  0.10007300  0.36644767  0.11251561  1.0
  Ni  Ni191  1  0.10007300  0.69978100  0.11251561  1.0
  Ni  Ni192  1  0.43340633  0.03311433  0.11251561  1.0
  Ni  Ni193  1  0.43340633  0.36644767  0.11251561  1.0
  Ni  Ni194  1  0.43340633  0.69978100  0.11251561  1.0
  Ni  Ni195  1  0.76673967  0.03311433  0.11251561  1.0
  Ni  Ni196  1  0.76673967  0.36644767  0.11251561  1.0
  Ni  Ni197  1  0.76673967  0.69978100  0.11251561  1.0
  Ni  Ni198  1  0.19993783  0.06685317  0.12749534  1.0
  Ni  Ni199  1  0.19993783  0.40018650  0.12749534  1.0
  Ni  Ni200  1  0.19993783  0.73351983  0.12749534  1.0
  Ni  Ni201  1  0.53327117  0.06685317  0.12749534  1.0
  Ni  Ni202  1  0.53327117  0.40018650  0.12749534  1.0
  Ni  Ni203  1  0.53327117  0.73351983  0.12749534  1.0
  Ni  Ni204  1  0.86660450  0.06685317  0.12749534  1.0
  Ni  Ni205  1  0.86660450  0.40018650  0.12749534  1.0
  Ni  Ni206  1  0.86660450  0.73351983  0.12749534  1.0
  Ni  Ni207  1  0.03327117  0.23351983  0.10249534  1.0
  Ni  Ni208  1  0.03327117  0.56685317  0.10249534  1.0
  Ni  Ni209  1  0.03327117  0.90018650  0.10249534  1.0
  Ni  Ni210  1  0.36660450  0.23351983  0.10249534  1.0
  Ni  Ni211  1  0.36660450  0.56685317  0.10249534  1.0
  Ni  Ni212  1  0.36660450  0.90018650  0.10249534  1.0
  Ni  Ni213  1  0.69993783  0.23351983  0.10249534  1.0
  Ni  Ni214  1  0.69993783  0.56685317  0.10249534  1.0
  Ni  Ni215  1  0.69993783  0.90018650  0.10249534  1.0
  Ni  Ni216  1  0.30006217  0.09981350  0.14251399  1.0
  Ni  Ni217  1  0.30006217  0.43314683  0.14251399  1.0
  Ni  Ni218  1  0.30006217  0.76648017  0.14251399  1.0
  Ni  Ni219  1  0.63339550  0.09981350  0.14251399  1.0
  Ni  Ni220  1  0.63339550  0.43314683  0.14251399  1.0
  Ni  Ni221  1  0.63339550  0.76648017  0.14251399  1.0
  Ni  Ni222  1  0.96672883  0.09981350  0.14251399  1.0
  Ni  Ni223  1  0.96672883  0.43314683  0.14251399  1.0
  Ni  Ni224  1  0.96672883  0.76648017  0.14251399  1.0
  Ni  Ni225  1  0.13339550  0.26648017  0.11751399  1.0
  Ni  Ni226  1  0.13339550  0.59981350  0.11751399  1.0
  Ni  Ni227  1  0.13339550  0.93314683  0.11751399  1.0
  Ni  Ni228  1  0.46672883  0.26648017  0.11751399  1.0
  Ni  Ni229  1  0.46672883  0.59981350  0.11751399  1.0
  Ni  Ni230  1  0.46672883  0.93314683  0.11751399  1.0
  Ni  Ni231  1  0.80006217  0.26648017  0.11751399  1.0
  Ni  Ni232  1  0.80006217  0.59981350  0.11751399  1.0
  Ni  Ni233  1  0.80006217  0.93314683  0.11751399  1.0
  Ni  Ni234  1  0.23326033  0.30021900  0.13249371  1.0
  Ni  Ni235  1  0.23326033  0.63355233  0.13249371  1.0
  Ni  Ni236  1  0.23326033  0.96688567  0.13249371  1.0
  Ni  Ni237  1  0.56659367  0.30021900  0.13249371  1.0
  Ni  Ni238  1  0.56659367  0.63355233  0.13249371  1.0
  Ni  Ni239  1  0.56659367  0.96688567  0.13249371  1.0
  Ni  Ni240  1  0.89992700  0.30021900  0.13249371  1.0
  Ni  Ni241  1  0.89992700  0.63355233  0.13249371  1.0
  Ni  Ni242  1  0.89992700  0.96688567  0.13249371  1.0
  Ni  Ni243  1  0.06659367  0.13355233  0.10749371  1.0
  Ni  Ni244  1  0.06659367  0.46688567  0.10749371  1.0
  Ni  Ni245  1  0.06659367  0.80021900  0.10749371  1.0
  Ni  Ni246  1  0.39992700  0.13355233  0.10749371  1.0
  Ni  Ni247  1  0.39992700  0.46688567  0.10749371  1.0
  Ni  Ni248  1  0.39992700  0.80021900  0.10749371  1.0
  Ni  Ni249  1  0.73326033  0.13355233  0.10749371  1.0
  Ni  Ni250  1  0.73326033  0.46688567  0.10749371  1.0
  Ni  Ni251  1  0.73326033  0.80021900  0.10749371  1.0
  Ge  Ge252  1  0.00000000  0.00000000  0.14750466  1.0
  Ge  Ge253  1  0.00000000  0.33333333  0.14750466  1.0
  Ge  Ge254  1  0.00000000  0.66666667  0.14750466  1.0
  Ge  Ge255  1  0.33333333  0.00000000  0.14750466  1.0
  Ge  Ge256  1  0.33333333  0.33333333  0.14750466  1.0
  Ge  Ge257  1  0.33333333  0.66666667  0.14750466  1.0
  Ge  Ge258  1  0.66666667  0.00000000  0.14750466  1.0
  Ge  Ge259  1  0.66666667  0.33333333  0.14750466  1.0
  Ge  Ge260  1  0.66666667  0.66666667  0.14750466  1.0
  Ge  Ge261  1  0.16666667  0.16666667  0.12250466  1.0
  Ge  Ge262  1  0.16666667  0.50000000  0.12250466  1.0
  Ge  Ge263  1  0.16666667  0.83333333  0.12250466  1.0
  Ge  Ge264  1  0.50000000  0.16666667  0.12250466  1.0
  Ge  Ge265  1  0.50000000  0.50000000  0.12250466  1.0
  Ge  Ge266  1  0.50000000  0.83333333  0.12250466  1.0
  Ge  Ge267  1  0.83333333  0.16666667  0.12250466  1.0
  Ge  Ge268  1  0.83333333  0.50000000  0.12250466  1.0
  Ge  Ge269  1  0.83333333  0.83333333  0.12250466  1.0
  Ni  Ni270  1  0.26673967  0.19978100  0.18751561  1.0
  Ni  Ni271  1  0.26673967  0.53311433  0.18751561  1.0
  Ni  Ni272  1  0.26673967  0.86644767  0.18751561  1.0
  Ni  Ni273  1  0.60007300  0.19978100  0.18751561  1.0
  Ni  Ni274  1  0.60007300  0.53311433  0.18751561  1.0
  Ni  Ni275  1  0.60007300  0.86644767  0.18751561  1.0
  Ni  Ni276  1  0.93340633  0.19978100  0.18751561  1.0
  Ni  Ni277  1  0.93340633  0.53311433  0.18751561  1.0
  Ni  Ni278  1  0.93340633  0.86644767  0.18751561  1.0
  Ni  Ni279  1  0.10007300  0.03311433  0.16251561  1.0
  Ni  Ni280  1  0.10007300  0.36644767  0.16251561  1.0
  Ni  Ni281  1  0.10007300  0.69978100  0.16251561  1.0
  Ni  Ni282  1  0.43340633  0.03311433  0.16251561  1.0
  Ni  Ni283  1  0.43340633  0.36644767  0.16251561  1.0
  Ni  Ni284  1  0.43340633  0.69978100  0.16251561  1.0
  Ni  Ni285  1  0.76673967  0.03311433  0.16251561  1.0
  Ni  Ni286  1  0.76673967  0.36644767  0.16251561  1.0
  Ni  Ni287  1  0.76673967  0.69978100  0.16251561  1.0
  Ni  Ni288  1  0.19993783  0.06685317  0.17749534  1.0
  Ni  Ni289  1  0.19993783  0.40018650  0.17749534  1.0
  Ni  Ni290  1  0.19993783  0.73351983  0.17749534  1.0
  Ni  Ni291  1  0.53327117  0.06685317  0.17749534  1.0
  Ni  Ni292  1  0.53327117  0.40018650  0.17749534  1.0
  Ni  Ni293  1  0.53327117  0.73351983  0.17749534  1.0
  Ni  Ni294  1  0.86660450  0.06685317  0.17749534  1.0
  Ni  Ni295  1  0.86660450  0.40018650  0.17749534  1.0
  Ni  Ni296  1  0.86660450  0.73351983  0.17749534  1.0
  Ni  Ni297  1  0.03327117  0.23351983  0.15249534  1.0
  Ni  Ni298  1  0.03327117  0.56685317  0.15249534  1.0
  Ni  Ni299  1  0.03327117  0.90018650  0.15249534  1.0
  Ni  Ni300  1  0.36660450  0.23351983  0.15249534  1.0
  Ni  Ni301  1  0.36660450  0.56685317  0.15249534  1.0
  Ni  Ni302  1  0.36660450  0.90018650  0.15249534  1.0
  Ni  Ni303  1  0.69993783  0.23351983  0.15249534  1.0
  Ni  Ni304  1  0.69993783  0.56685317  0.15249534  1.0
  Ni  Ni305  1  0.69993783  0.90018650  0.15249534  1.0
  Ni  Ni306  1  0.30006217  0.09981350  0.19251399  1.0
  Ni  Ni307  1  0.30006217  0.43314683  0.19251399  1.0
  Ni  Ni308  1  0.30006217  0.76648017  0.19251399  1.0
  Ni  Ni309  1  0.63339550  0.09981350  0.19251399  1.0
  Ni  Ni310  1  0.63339550  0.43314683  0.19251399  1.0
  Ni  Ni311  1  0.63339550  0.76648017  0.19251399  1.0
  Ni  Ni312  1  0.96672883  0.09981350  0.19251399  1.0
  Ni  Ni313  1  0.96672883  0.43314683  0.19251399  1.0
  Ni  Ni314  1  0.96672883  0.76648017  0.19251399  1.0
  Ni  Ni315  1  0.13339550  0.26648017  0.16751399  1.0
  Ni  Ni316  1  0.13339550  0.59981350  0.16751399  1.0
  Ni  Ni317  1  0.13339550  0.93314683  0.16751399  1.0
  Ni  Ni318  1  0.46672883  0.26648017  0.16751399  1.0
  Ni  Ni319  1  0.46672883  0.59981350  0.16751399  1.0
  Ni  Ni320  1  0.46672883  0.93314683  0.16751399  1.0
  Ni  Ni321  1  0.80006217  0.26648017  0.16751399  1.0
  Ni  Ni322  1  0.80006217  0.59981350  0.16751399  1.0
  Ni  Ni323  1  0.80006217  0.93314683  0.16751399  1.0
  Ni  Ni324  1  0.23326033  0.30021900  0.18249371  1.0
  Ni  Ni325  1  0.23326033  0.63355233  0.18249371  1.0
  Ni  Ni326  1  0.23326033  0.96688567  0.18249371  1.0
  Ni  Ni327  1  0.56659367  0.30021900  0.18249371  1.0
  Ni  Ni328  1  0.56659367  0.63355233  0.18249371  1.0
  Ni  Ni329  1  0.56659367  0.96688567  0.18249371  1.0
  Ni  Ni330  1  0.89992700  0.30021900  0.18249371  1.0
  Ni  Ni331  1  0.89992700  0.63355233  0.18249371  1.0
  Ni  Ni332  1  0.89992700  0.96688567  0.18249371  1.0
  Ni  Ni333  1  0.06659367  0.13355233  0.15749371  1.0
  Ni  Ni334  1  0.06659367  0.46688567  0.15749371  1.0
  Ni  Ni335  1  0.06659367  0.80021900  0.15749371  1.0
  Ni  Ni336  1  0.39992700  0.13355233  0.15749371  1.0
  Ni  Ni337  1  0.39992700  0.46688567  0.15749371  1.0
  Ni  Ni338  1  0.39992700  0.80021900  0.15749371  1.0
  Ni  Ni339  1  0.73326033  0.13355233  0.15749371  1.0
  Ni  Ni340  1  0.73326033  0.46688567  0.15749371  1.0
  Ni  Ni341  1  0.73326033  0.80021900  0.15749371  1.0
  Ge  Ge342  1  0.00000000  0.00000000  0.19750466  1.0
  Ge  Ge343  1  0.00000000  0.33333333  0.19750466  1.0
  Ge  Ge344  1  0.00000000  0.66666667  0.19750466  1.0
  Ge  Ge345  1  0.33333333  0.00000000  0.19750466  1.0
  Ge  Ge346  1  0.33333333  0.33333333  0.19750466  1.0
  Ge  Ge347  1  0.33333333  0.66666667  0.19750466  1.0
  Ge  Ge348  1  0.66666667  0.00000000  0.19750466  1.0
  Ge  Ge349  1  0.66666667  0.33333333  0.19750466  1.0
  Ge  Ge350  1  0.66666667  0.66666667  0.19750466  1.0
  Ge  Ge351  1  0.16666667  0.16666667  0.17250466  1.0
  Ge  Ge352  1  0.16666667  0.50000000  0.17250466  1.0
  Ge  Ge353  1  0.16666667  0.83333333  0.17250466  1.0
  Ge  Ge354  1  0.50000000  0.16666667  0.17250466  1.0
  Ge  Ge355  1  0.50000000  0.50000000  0.17250466  1.0
  Ge  Ge356  1  0.50000000  0.83333333  0.17250466  1.0
  Ge  Ge357  1  0.83333333  0.16666667  0.17250466  1.0
  Ge  Ge358  1  0.83333333  0.50000000  0.17250466  1.0
  Ge  Ge359  1  0.83333333  0.83333333  0.17250466  1.0
  Ni  Ni360  1  0.26673967  0.19978100  0.23751561  1.0
  Ni  Ni361  1  0.26673967  0.53311433  0.23751561  1.0
  Ni  Ni362  1  0.26673967  0.86644767  0.23751561  1.0
  Ni  Ni363  1  0.60007300  0.19978100  0.23751561  1.0
  Ni  Ni364  1  0.60007300  0.53311433  0.23751561  1.0
  Ni  Ni365  1  0.60007300  0.86644767  0.23751561  1.0
  Ni  Ni366  1  0.93340633  0.19978100  0.23751561  1.0
  Ni  Ni367  1  0.93340633  0.53311433  0.23751561  1.0
  Ni  Ni368  1  0.93340633  0.86644767  0.23751561  1.0
  Ni  Ni369  1  0.10007300  0.03311433  0.21251561  1.0
  Ni  Ni370  1  0.10007300  0.36644767  0.21251561  1.0
  Ni  Ni371  1  0.10007300  0.69978100  0.21251561  1.0
  Ni  Ni372  1  0.43340633  0.03311433  0.21251561  1.0
  Ni  Ni373  1  0.43340633  0.36644767  0.21251561  1.0
  Ni  Ni374  1  0.43340633  0.69978100  0.21251561  1.0
  Ni  Ni375  1  0.76673967  0.03311433  0.21251561  1.0
  Ni  Ni376  1  0.76673967  0.36644767  0.21251561  1.0
  Ni  Ni377  1  0.76673967  0.69978100  0.21251561  1.0
  Ni  Ni378  1  0.19993783  0.06685317  0.22749534  1.0
  Ni  Ni379  1  0.19993783  0.40018650  0.22749534  1.0
  Ni  Ni380  1  0.19993783  0.73351983  0.22749534  1.0
  Ni  Ni381  1  0.53327117  0.06685317  0.22749534  1.0
  Ni  Ni382  1  0.53327117  0.40018650  0.22749534  1.0
  Ni  Ni383  1  0.53327117  0.73351983  0.22749534  1.0
  Ni  Ni384  1  0.86660450  0.06685317  0.22749534  1.0
  Ni  Ni385  1  0.86660450  0.40018650  0.22749534  1.0
  Ni  Ni386  1  0.86660450  0.73351983  0.22749534  1.0
  Ni  Ni387  1  0.03327117  0.23351983  0.20249534  1.0
  Ni  Ni388  1  0.03327117  0.56685317  0.20249534  1.0
  Ni  Ni389  1  0.03327117  0.90018650  0.20249534  1.0
  Ni  Ni390  1  0.36660450  0.23351983  0.20249534  1.0
  Ni  Ni391  1  0.36660450  0.56685317  0.20249534  1.0
  Ni  Ni392  1  0.36660450  0.90018650  0.20249534  1.0
  Ni  Ni393  1  0.69993783  0.23351983  0.20249534  1.0
  Ni  Ni394  1  0.69993783  0.56685317  0.20249534  1.0
  Ni  Ni395  1  0.69993783  0.90018650  0.20249534  1.0
  Ni  Ni396  1  0.30006217  0.09981350  0.24251399  1.0
  Ni  Ni397  1  0.30006217  0.43314683  0.24251399  1.0
  Ni  Ni398  1  0.30006217  0.76648017  0.24251399  1.0
  Ni  Ni399  1  0.63339550  0.09981350  0.24251399  1.0
  Ni  Ni400  1  0.63339550  0.43314683  0.24251399  1.0
  Ni  Ni401  1  0.63339550  0.76648017  0.24251399  1.0
  Ni  Ni402  1  0.96672883  0.09981350  0.24251399  1.0
  Ni  Ni403  1  0.96672883  0.43314683  0.24251399  1.0
  Ni  Ni404  1  0.96672883  0.76648017  0.24251399  1.0
  Ni  Ni405  1  0.13339550  0.26648017  0.21751399  1.0
  Ni  Ni406  1  0.13339550  0.59981350  0.21751399  1.0
  Ni  Ni407  1  0.13339550  0.93314683  0.21751399  1.0
  Ni  Ni408  1  0.46672883  0.26648017  0.21751399  1.0
  Ni  Ni409  1  0.46672883  0.59981350  0.21751399  1.0
  Ni  Ni410  1  0.46672883  0.93314683  0.21751399  1.0
  Ni  Ni411  1  0.80006217  0.26648017  0.21751399  1.0
  Ni  Ni412  1  0.80006217  0.59981350  0.21751399  1.0
  Ni  Ni413  1  0.80006217  0.93314683  0.21751399  1.0
  Ni  Ni414  1  0.23326033  0.30021900  0.23249371  1.0
  Ni  Ni415  1  0.23326033  0.63355233  0.23249371  1.0
  Ni  Ni416  1  0.23326033  0.96688567  0.23249371  1.0
  Ni  Ni417  1  0.56659367  0.30021900  0.23249371  1.0
  Ni  Ni418  1  0.56659367  0.63355233  0.23249371  1.0
  Ni  Ni419  1  0.56659367  0.96688567  0.23249371  1.0
  Ni  Ni420  1  0.89992700  0.30021900  0.23249371  1.0
  Ni  Ni421  1  0.89992700  0.63355233  0.23249371  1.0
  Ni  Ni422  1  0.89992700  0.96688567  0.23249371  1.0
  Ni  Ni423  1  0.06659367  0.13355233  0.20749371  1.0
  Ni  Ni424  1  0.06659367  0.46688567  0.20749371  1.0
  Ni  Ni425  1  0.06659367  0.80021900  0.20749371  1.0
  Ni  Ni426  1  0.39992700  0.13355233  0.20749371  1.0
  Ni  Ni427  1  0.39992700  0.46688567  0.20749371  1.0
  Ni  Ni428  1  0.39992700  0.80021900  0.20749371  1.0
  Ni  Ni429  1  0.73326033  0.13355233  0.20749371  1.0
  Ni  Ni430  1  0.73326033  0.46688567  0.20749371  1.0
  Ni  Ni431  1  0.73326033  0.80021900  0.20749371  1.0
  Ge  Ge432  1  0.00000000  0.00000000  0.24750466  1.0
  Ge  Ge433  1  0.00000000  0.33333333  0.24750466  1.0
  Ge  Ge434  1  0.00000000  0.66666667  0.24750466  1.0
  Ge  Ge435  1  0.33333333  0.00000000  0.24750466  1.0
  Ge  Ge436  1  0.33333333  0.33333333  0.24750466  1.0
  Ge  Ge437  1  0.33333333  0.66666667  0.24750466  1.0
  Ge  Ge438  1  0.66666667  0.00000000  0.24750466  1.0
  Ge  Ge439  1  0.66666667  0.33333333  0.24750466  1.0
  Ge  Ge440  1  0.66666667  0.66666667  0.24750466  1.0
  Ge  Ge441  1  0.16666667  0.16666667  0.22250466  1.0
  Ge  Ge442  1  0.16666667  0.50000000  0.22250466  1.0
  Ge  Ge443  1  0.16666667  0.83333333  0.22250466  1.0
  Ge  Ge444  1  0.50000000  0.16666667  0.22250466  1.0
  Ge  Ge445  1  0.50000000  0.50000000  0.22250466  1.0
  Ge  Ge446  1  0.50000000  0.83333333  0.22250466  1.0
  Ge  Ge447  1  0.83333333  0.16666667  0.22250466  1.0
  Ge  Ge448  1  0.83333333  0.50000000  0.22250466  1.0
  Ge  Ge449  1  0.83333333  0.83333333  0.22250466  1.0
  Ni  Ni450  1  0.26673967  0.19978100  0.28751561  1.0
  Ni  Ni451  1  0.26673967  0.53311433  0.28751561  1.0
  Ni  Ni452  1  0.26673967  0.86644767  0.28751561  1.0
  Ni  Ni453  1  0.60007300  0.19978100  0.28751561  1.0
  Ni  Ni454  1  0.60007300  0.53311433  0.28751561  1.0
  Ni  Ni455  1  0.60007300  0.86644767  0.28751561  1.0
  Ni  Ni456  1  0.93340633  0.19978100  0.28751561  1.0
  Ni  Ni457  1  0.93340633  0.53311433  0.28751561  1.0
  Ni  Ni458  1  0.93340633  0.86644767  0.28751561  1.0
  Ni  Ni459  1  0.10007300  0.03311433  0.26251561  1.0
  Ni  Ni460  1  0.10007300  0.36644767  0.26251561  1.0
  Ni  Ni461  1  0.10007300  0.69978100  0.26251561  1.0
  Ni  Ni462  1  0.43340633  0.03311433  0.26251561  1.0
  Ni  Ni463  1  0.43340633  0.36644767  0.26251561  1.0
  Ni  Ni464  1  0.43340633  0.69978100  0.26251561  1.0
  Ni  Ni465  1  0.76673967  0.03311433  0.26251561  1.0
  Ni  Ni466  1  0.76673967  0.36644767  0.26251561  1.0
  Ni  Ni467  1  0.76673967  0.69978100  0.26251561  1.0
  Ni  Ni468  1  0.19993783  0.06685317  0.27749534  1.0
  Ni  Ni469  1  0.19993783  0.40018650  0.27749534  1.0
  Ni  Ni470  1  0.19993783  0.73351983  0.27749534  1.0
  Ni  Ni471  1  0.53327117  0.06685317  0.27749534  1.0
  Ni  Ni472  1  0.53327117  0.40018650  0.27749534  1.0
  Ni  Ni473  1  0.53327117  0.73351983  0.27749534  1.0
  Ni  Ni474  1  0.86660450  0.06685317  0.27749534  1.0
  Ni  Ni475  1  0.86660450  0.40018650  0.27749534  1.0
  Ni  Ni476  1  0.86660450  0.73351983  0.27749534  1.0
  Ni  Ni477  1  0.03327117  0.23351983  0.25249534  1.0
  Ni  Ni478  1  0.03327117  0.56685317  0.25249534  1.0
  Ni  Ni479  1  0.03327117  0.90018650  0.25249534  1.0
  Ni  Ni480  1  0.36660450  0.23351983  0.25249534  1.0
  Ni  Ni481  1  0.36660450  0.56685317  0.25249534  1.0
  Ni  Ni482  1  0.36660450  0.90018650  0.25249534  1.0
  Ni  Ni483  1  0.69993783  0.23351983  0.25249534  1.0
  Ni  Ni484  1  0.69993783  0.56685317  0.25249534  1.0
  Ni  Ni485  1  0.69993783  0.90018650  0.25249534  1.0
  Ni  Ni486  1  0.30006217  0.09981350  0.29251399  1.0
  Ni  Ni487  1  0.30006217  0.43314683  0.29251399  1.0
  Ni  Ni488  1  0.30006217  0.76648017  0.29251399  1.0
  Ni  Ni489  1  0.63339550  0.09981350  0.29251399  1.0
  Ni  Ni490  1  0.63339550  0.43314683  0.29251399  1.0
  Ni  Ni491  1  0.63339550  0.76648017  0.29251399  1.0
  Ni  Ni492  1  0.96672883  0.09981350  0.29251399  1.0
  Ni  Ni493  1  0.96672883  0.43314683  0.29251399  1.0
  Ni  Ni494  1  0.96672883  0.76648017  0.29251399  1.0
  Ni  Ni495  1  0.13339550  0.26648017  0.26751399  1.0
  Ni  Ni496  1  0.13339550  0.59981350  0.26751399  1.0
  Ni  Ni497  1  0.13339550  0.93314683  0.26751399  1.0
  Ni  Ni498  1  0.46672883  0.26648017  0.26751399  1.0
  Ni  Ni499  1  0.46672883  0.59981350  0.26751399  1.0
  Ni  Ni500  1  0.46672883  0.93314683  0.26751399  1.0
  Ni  Ni501  1  0.80006217  0.26648017  0.26751399  1.0
  Ni  Ni502  1  0.80006217  0.59981350  0.26751399  1.0
  Ni  Ni503  1  0.80006217  0.93314683  0.26751399  1.0
  Ni  Ni504  1  0.23326033  0.30021900  0.28249371  1.0
  Ni  Ni505  1  0.23326033  0.63355233  0.28249371  1.0
  Ni  Ni506  1  0.23326033  0.96688567  0.28249371  1.0
  Ni  Ni507  1  0.56659367  0.30021900  0.28249371  1.0
  Ni  Ni508  1  0.56659367  0.63355233  0.28249371  1.0
  Ni  Ni509  1  0.56659367  0.96688567  0.28249371  1.0
  Ni  Ni510  1  0.89992700  0.30021900  0.28249371  1.0
  Ni  Ni511  1  0.89992700  0.63355233  0.28249371  1.0
  Ni  Ni512  1  0.89992700  0.96688567  0.28249371  1.0
  Ni  Ni513  1  0.06659367  0.13355233  0.25749371  1.0
  Ni  Ni514  1  0.06659367  0.46688567  0.25749371  1.0
  Ni  Ni515  1  0.06659367  0.80021900  0.25749371  1.0
  Ni  Ni516  1  0.39992700  0.13355233  0.25749371  1.0
  Ni  Ni517  1  0.39992700  0.46688567  0.25749371  1.0
  Ni  Ni518  1  0.39992700  0.80021900  0.25749371  1.0
  Ni  Ni519  1  0.73326033  0.13355233  0.25749371  1.0
  Ni  Ni520  1  0.73326033  0.46688567  0.25749371  1.0
  Ni  Ni521  1  0.73326033  0.80021900  0.25749371  1.0
  Ge  Ge522  1  0.00000000  0.00000000  0.29750466  1.0
  Ge  Ge523  1  0.00000000  0.33333333  0.29750466  1.0
  Ge  Ge524  1  0.00000000  0.66666667  0.29750466  1.0
  Ge  Ge525  1  0.33333333  0.00000000  0.29750466  1.0
  Ge  Ge526  1  0.33333333  0.33333333  0.29750466  1.0
  Ge  Ge527  1  0.33333333  0.66666667  0.29750466  1.0
  Ge  Ge528  1  0.66666667  0.00000000  0.29750466  1.0
  Ge  Ge529  1  0.66666667  0.33333333  0.29750466  1.0
  Ge  Ge530  1  0.66666667  0.66666667  0.29750466  1.0
  Ge  Ge531  1  0.16666667  0.16666667  0.27250466  1.0
  Ge  Ge532  1  0.16666667  0.50000000  0.27250466  1.0
  Ge  Ge533  1  0.16666667  0.83333333  0.27250466  1.0
  Ge  Ge534  1  0.50000000  0.16666667  0.27250466  1.0
  Ge  Ge535  1  0.50000000  0.50000000  0.27250466  1.0
  Ge  Ge536  1  0.50000000  0.83333333  0.27250466  1.0
  Ge  Ge537  1  0.83333333  0.16666667  0.27250466  1.0
  Ge  Ge538  1  0.83333333  0.50000000  0.27250466  1.0
  Ge  Ge539  1  0.83333333  0.83333333  0.27250466  1.0
  Ni  Ni540  1  0.26673967  0.19978100  0.33751561  1.0
  Ni  Ni541  1  0.26673967  0.53311433  0.33751561  1.0
  Ni  Ni542  1  0.26673967  0.86644767  0.33751561  1.0
  Ni  Ni543  1  0.60007300  0.19978100  0.33751561  1.0
  Ni  Ni544  1  0.60007300  0.53311433  0.33751561  1.0
  Ni  Ni545  1  0.60007300  0.86644767  0.33751561  1.0
  Ni  Ni546  1  0.93340633  0.19978100  0.33751561  1.0
  Ni  Ni547  1  0.93340633  0.53311433  0.33751561  1.0
  Ni  Ni548  1  0.93340633  0.86644767  0.33751561  1.0
  Ni  Ni549  1  0.10007300  0.03311433  0.31251561  1.0
  Ni  Ni550  1  0.10007300  0.36644767  0.31251561  1.0
  Ni  Ni551  1  0.10007300  0.69978100  0.31251561  1.0
  Ni  Ni552  1  0.43340633  0.03311433  0.31251561  1.0
  Ni  Ni553  1  0.43340633  0.36644767  0.31251561  1.0
  Ni  Ni554  1  0.43340633  0.69978100  0.31251561  1.0
  Ni  Ni555  1  0.76673967  0.03311433  0.31251561  1.0
  Ni  Ni556  1  0.76673967  0.36644767  0.31251561  1.0
  Ni  Ni557  1  0.76673967  0.69978100  0.31251561  1.0
  Ni  Ni558  1  0.19993783  0.06685317  0.32749534  1.0
  Ni  Ni559  1  0.19993783  0.40018650  0.32749534  1.0
  Ni  Ni560  1  0.19993783  0.73351983  0.32749534  1.0
  Ni  Ni561  1  0.53327117  0.06685317  0.32749534  1.0
  Ni  Ni562  1  0.53327117  0.40018650  0.32749534  1.0
  Ni  Ni563  1  0.53327117  0.73351983  0.32749534  1.0
  Ni  Ni564  1  0.86660450  0.06685317  0.32749534  1.0
  Ni  Ni565  1  0.86660450  0.40018650  0.32749534  1.0
  Ni  Ni566  1  0.86660450  0.73351983  0.32749534  1.0
  Ni  Ni567  1  0.03327117  0.23351983  0.30249534  1.0
  Ni  Ni568  1  0.03327117  0.56685317  0.30249534  1.0
  Ni  Ni569  1  0.03327117  0.90018650  0.30249534  1.0
  Ni  Ni570  1  0.36660450  0.23351983  0.30249534  1.0
  Ni  Ni571  1  0.36660450  0.56685317  0.30249534  1.0
  Ni  Ni572  1  0.36660450  0.90018650  0.30249534  1.0
  Ni  Ni573  1  0.69993783  0.23351983  0.30249534  1.0
  Ni  Ni574  1  0.69993783  0.56685317  0.30249534  1.0
  Ni  Ni575  1  0.69993783  0.90018650  0.30249534  1.0
  Ni  Ni576  1  0.30006217  0.09981350  0.34251399  1.0
  Ni  Ni577  1  0.30006217  0.43314683  0.34251399  1.0
  Ni  Ni578  1  0.30006217  0.76648017  0.34251399  1.0
  Ni  Ni579  1  0.63339550  0.09981350  0.34251399  1.0
  Ni  Ni580  1  0.63339550  0.43314683  0.34251399  1.0
  Ni  Ni581  1  0.63339550  0.76648017  0.34251399  1.0
  Ni  Ni582  1  0.96672883  0.09981350  0.34251399  1.0
  Ni  Ni583  1  0.96672883  0.43314683  0.34251399  1.0
  Ni  Ni584  1  0.96672883  0.76648017  0.34251399  1.0
  Ni  Ni585  1  0.13339550  0.26648017  0.31751399  1.0
  Ni  Ni586  1  0.13339550  0.59981350  0.31751399  1.0
  Ni  Ni587  1  0.13339550  0.93314683  0.31751399  1.0
  Ni  Ni588  1  0.46672883  0.26648017  0.31751399  1.0
  Ni  Ni589  1  0.46672883  0.59981350  0.31751399  1.0
  Ni  Ni590  1  0.46672883  0.93314683  0.31751399  1.0
  Ni  Ni591  1  0.80006217  0.26648017  0.31751399  1.0
  Ni  Ni592  1  0.80006217  0.59981350  0.31751399  1.0
  Ni  Ni593  1  0.80006217  0.93314683  0.31751399  1.0
  Ni  Ni594  1  0.23326033  0.30021900  0.33249371  1.0
  Ni  Ni595  1  0.23326033  0.63355233  0.33249371  1.0
  Ni  Ni596  1  0.23326033  0.96688567  0.33249371  1.0
  Ni  Ni597  1  0.56659367  0.30021900  0.33249371  1.0
  Ni  Ni598  1  0.56659367  0.63355233  0.33249371  1.0
  Ni  Ni599  1  0.56659367  0.96688567  0.33249371  1.0
  Ni  Ni600  1  0.89992700  0.30021900  0.33249371  1.0
  Ni  Ni601  1  0.89992700  0.63355233  0.33249371  1.0
  Ni  Ni602  1  0.89992700  0.96688567  0.33249371  1.0
  Ni  Ni603  1  0.06659367  0.13355233  0.30749371  1.0
  Ni  Ni604  1  0.06659367  0.46688567  0.30749371  1.0
  Ni  Ni605  1  0.06659367  0.80021900  0.30749371  1.0
  Ni  Ni606  1  0.39992700  0.13355233  0.30749371  1.0
  Ni  Ni607  1  0.39992700  0.46688567  0.30749371  1.0
  Ni  Ni608  1  0.39992700  0.80021900  0.30749371  1.0
  Ni  Ni609  1  0.73326033  0.13355233  0.30749371  1.0
  Ni  Ni610  1  0.73326033  0.46688567  0.30749371  1.0
  Ni  Ni611  1  0.73326033  0.80021900  0.30749371  1.0
  Ge  Ge612  1  0.00000000  0.00000000  0.34750466  1.0
  Ge  Ge613  1  0.00000000  0.33333333  0.34750466  1.0
  Ge  Ge614  1  0.00000000  0.66666667  0.34750466  1.0
  Ge  Ge615  1  0.33333333  0.00000000  0.34750466  1.0
  Ge  Ge616  1  0.33333333  0.33333333  0.34750466  1.0
  Ge  Ge617  1  0.33333333  0.66666667  0.34750466  1.0
  Ge  Ge618  1  0.66666667  0.00000000  0.34750466  1.0
  Ge  Ge619  1  0.66666667  0.33333333  0.34750466  1.0
  Ge  Ge620  1  0.66666667  0.66666667  0.34750466  1.0
  Ge  Ge621  1  0.16666667  0.16666667  0.32250466  1.0
  Ge  Ge622  1  0.16666667  0.50000000  0.32250466  1.0
  Ge  Ge623  1  0.16666667  0.83333333  0.32250466  1.0
  Ge  Ge624  1  0.50000000  0.16666667  0.32250466  1.0
  Ge  Ge625  1  0.50000000  0.50000000  0.32250466  1.0
  Ge  Ge626  1  0.50000000  0.83333333  0.32250466  1.0
  Ge  Ge627  1  0.83333333  0.16666667  0.32250466  1.0
  Ge  Ge628  1  0.83333333  0.50000000  0.32250466  1.0
  Ge  Ge629  1  0.83333333  0.83333333  0.32250466  1.0
  Ni  Ni630  1  0.26673967  0.19978100  0.38751561  1.0
  Ni  Ni631  1  0.26673967  0.53311433  0.38751561  1.0
  Ni  Ni632  1  0.26673967  0.86644767  0.38751561  1.0
  Ni  Ni633  1  0.60007300  0.19978100  0.38751561  1.0
  Ni  Ni634  1  0.60007300  0.53311433  0.38751561  1.0
  Ni  Ni635  1  0.60007300  0.86644767  0.38751561  1.0
  Ni  Ni636  1  0.93340633  0.19978100  0.38751561  1.0
  Ni  Ni637  1  0.93340633  0.53311433  0.38751561  1.0
  Ni  Ni638  1  0.93340633  0.86644767  0.38751561  1.0
  Ni  Ni639  1  0.10007300  0.03311433  0.36251561  1.0
  Ni  Ni640  1  0.10007300  0.36644767  0.36251561  1.0
  Ni  Ni641  1  0.10007300  0.69978100  0.36251561  1.0
  Ni  Ni642  1  0.43340633  0.03311433  0.36251561  1.0
  Ni  Ni643  1  0.43340633  0.36644767  0.36251561  1.0
  Ni  Ni644  1  0.43340633  0.69978100  0.36251561  1.0
  Ni  Ni645  1  0.76673967  0.03311433  0.36251561  1.0
  Ni  Ni646  1  0.76673967  0.36644767  0.36251561  1.0
  Ni  Ni647  1  0.76673967  0.69978100  0.36251561  1.0
  Ni  Ni648  1  0.19993783  0.06685317  0.37749534  1.0
  Ni  Ni649  1  0.19993783  0.40018650  0.37749534  1.0
  Ni  Ni650  1  0.19993783  0.73351983  0.37749534  1.0
  Ni  Ni651  1  0.53327117  0.06685317  0.37749534  1.0
  Ni  Ni652  1  0.53327117  0.40018650  0.37749534  1.0
  Ni  Ni653  1  0.53327117  0.73351983  0.37749534  1.0
  Ni  Ni654  1  0.86660450  0.06685317  0.37749534  1.0
  Ni  Ni655  1  0.86660450  0.40018650  0.37749534  1.0
  Ni  Ni656  1  0.86660450  0.73351983  0.37749534  1.0
  Ni  Ni657  1  0.03327117  0.23351983  0.35249534  1.0
  Ni  Ni658  1  0.03327117  0.56685317  0.35249534  1.0
  Ni  Ni659  1  0.03327117  0.90018650  0.35249534  1.0
  Ni  Ni660  1  0.36660450  0.23351983  0.35249534  1.0
  Ni  Ni661  1  0.36660450  0.56685317  0.35249534  1.0
  Ni  Ni662  1  0.36660450  0.90018650  0.35249534  1.0
  Ni  Ni663  1  0.69993783  0.23351983  0.35249534  1.0
  Ni  Ni664  1  0.69993783  0.56685317  0.35249534  1.0
  Ni  Ni665  1  0.69993783  0.90018650  0.35249534  1.0
  Ni  Ni666  1  0.30006217  0.09981350  0.39251399  1.0
  Ni  Ni667  1  0.30006217  0.43314683  0.39251399  1.0
  Ni  Ni668  1  0.30006217  0.76648017  0.39251399  1.0
  Ni  Ni669  1  0.63339550  0.09981350  0.39251399  1.0
  Ni  Ni670  1  0.63339550  0.43314683  0.39251399  1.0
  Ni  Ni671  1  0.63339550  0.76648017  0.39251399  1.0
  Ni  Ni672  1  0.96672883  0.09981350  0.39251399  1.0
  Ni  Ni673  1  0.96672883  0.43314683  0.39251399  1.0
  Ni  Ni674  1  0.96672883  0.76648017  0.39251399  1.0
  Ni  Ni675  1  0.13339550  0.26648017  0.36751399  1.0
  Ni  Ni676  1  0.13339550  0.59981350  0.36751399  1.0
  Ni  Ni677  1  0.13339550  0.93314683  0.36751399  1.0
  Ni  Ni678  1  0.46672883  0.26648017  0.36751399  1.0
  Ni  Ni679  1  0.46672883  0.59981350  0.36751399  1.0
  Ni  Ni680  1  0.46672883  0.93314683  0.36751399  1.0
  Ni  Ni681  1  0.80006217  0.26648017  0.36751399  1.0
  Ni  Ni682  1  0.80006217  0.59981350  0.36751399  1.0
  Ni  Ni683  1  0.80006217  0.93314683  0.36751399  1.0
  Ni  Ni684  1  0.23326033  0.30021900  0.38249371  1.0
  Ni  Ni685  1  0.23326033  0.63355233  0.38249371  1.0
  Ni  Ni686  1  0.23326033  0.96688567  0.38249371  1.0
  Ni  Ni687  1  0.56659367  0.30021900  0.38249371  1.0
  Ni  Ni688  1  0.56659367  0.63355233  0.38249371  1.0
  Ni  Ni689  1  0.56659367  0.96688567  0.38249371  1.0
  Ni  Ni690  1  0.89992700  0.30021900  0.38249371  1.0
  Ni  Ni691  1  0.89992700  0.63355233  0.38249371  1.0
  Ni  Ni692  1  0.89992700  0.96688567  0.38249371  1.0
  Ni  Ni693  1  0.06659367  0.13355233  0.35749371  1.0
  Ni  Ni694  1  0.06659367  0.46688567  0.35749371  1.0
  Ni  Ni695  1  0.06659367  0.80021900  0.35749371  1.0
  Ni  Ni696  1  0.39992700  0.13355233  0.35749371  1.0
  Ni  Ni697  1  0.39992700  0.46688567  0.35749371  1.0
  Ni  Ni698  1  0.39992700  0.80021900  0.35749371  1.0
  Ni  Ni699  1  0.73326033  0.13355233  0.35749371  1.0
  Ni  Ni700  1  0.73326033  0.46688567  0.35749371  1.0
  Ni  Ni701  1  0.73326033  0.80021900  0.35749371  1.0
  Ge  Ge702  1  0.00000000  0.00000000  0.39750466  1.0
  Ge  Ge703  1  0.00000000  0.33333333  0.39750466  1.0
  Ge  Ge704  1  0.00000000  0.66666667  0.39750466  1.0
  Ge  Ge705  1  0.33333333  0.00000000  0.39750466  1.0
  Ge  Ge706  1  0.33333333  0.33333333  0.39750466  1.0
  Ge  Ge707  1  0.33333333  0.66666667  0.39750466  1.0
  Ge  Ge708  1  0.66666667  0.00000000  0.39750466  1.0
  Ge  Ge709  1  0.66666667  0.33333333  0.39750466  1.0
  Ge  Ge710  1  0.66666667  0.66666667  0.39750466  1.0
  Ge  Ge711  1  0.16666667  0.16666667  0.37250466  1.0
  Ge  Ge712  1  0.16666667  0.50000000  0.37250466  1.0
  Ge  Ge713  1  0.16666667  0.83333333  0.37250466  1.0
  Ge  Ge714  1  0.50000000  0.16666667  0.37250466  1.0
  Ge  Ge715  1  0.50000000  0.50000000  0.37250466  1.0
  Ge  Ge716  1  0.50000000  0.83333333  0.37250466  1.0
  Ge  Ge717  1  0.83333333  0.16666667  0.37250466  1.0
  Ge  Ge718  1  0.83333333  0.50000000  0.37250466  1.0
  Ge  Ge719  1  0.83333333  0.83333333  0.37250466  1.0
