# generated using pymatgen
data_Ni4Sn3
_symmetry_space_group_name_H-M   'P 1'
_cell_length_a   26.34424922
_cell_length_b   85.11819578
_cell_length_c   36.49648100
_cell_angle_alpha   90.00000000
_cell_angle_beta   53.57791017
_cell_angle_gamma   66.29639284
_symmetry_Int_Tables_number   1
_chemical_formula_structural   Ni4Sn3
_chemical_formula_sum   'Ni864 Sn648'
_cell_volume   57045.65120735
_cell_formula_units_Z   216
loop_
 _symmetry_equiv_pos_site_id
 _symmetry_equiv_pos_as_xyz
  1  'x, y, z'
loop_
 _atom_site_type_symbol
 _atom_site_label
 _atom_site_symmetry_multiplicity
 _atom_site_fract_x
 _atom_site_fract_y
 _atom_site_fract_z
 _atom_site_occupancy
  Ni  Ni0  1  0.10858800  0.06943867  0.05424521  1.0
  Ni  Ni1  1  0.10858800  0.40277200  0.05424521  1.0
  Ni  Ni2  1  0.10858800  0.73610533  0.05424521  1.0
  Ni  Ni3  1  0.44192133  0.06943867  0.05424521  1.0
  Ni  Ni4  1  0.44192133  0.40277200  0.05424521  1.0
  Ni  Ni5  1  0.44192133  0.73610533  0.05424521  1.0
  Ni  Ni6  1  0.77525467  0.06943867  0.05424521  1.0
  Ni  Ni7  1  0.77525467  0.40277200  0.05424521  1.0
  Ni  Ni8  1  0.77525467  0.73610533  0.05424521  1.0
  Ni  Ni9  1  0.21868733  0.18044800  0.00738350  1.0
  Ni  Ni10  1  0.21868733  0.51378133  0.00738350  1.0
  Ni  Ni11  1  0.21868733  0.84711467  0.00738350  1.0
  Ni  Ni12  1  0.55202067  0.18044800  0.00738350  1.0
  Ni  Ni13  1  0.55202067  0.51378133  0.00738350  1.0
  Ni  Ni14  1  0.55202067  0.84711467  0.00738350  1.0
  Ni  Ni15  1  0.88535400  0.18044800  0.00738350  1.0
  Ni  Ni16  1  0.88535400  0.51378133  0.00738350  1.0
  Ni  Ni17  1  0.88535400  0.84711467  0.00738350  1.0
  Ni  Ni18  1  0.32999167  0.29162400  0.10249050  1.0
  Ni  Ni19  1  0.32999167  0.62495733  0.10249050  1.0
  Ni  Ni20  1  0.32999167  0.95829067  0.10249050  1.0
  Ni  Ni21  1  0.66332500  0.29162400  0.10249050  1.0
  Ni  Ni22  1  0.66332500  0.62495733  0.10249050  1.0
  Ni  Ni23  1  0.66332500  0.95829067  0.10249050  1.0
  Ni  Ni24  1  0.99665833  0.29162400  0.10249050  1.0
  Ni  Ni25  1  0.99665833  0.62495733  0.10249050  1.0
  Ni  Ni26  1  0.99665833  0.95829067  0.10249050  1.0
  Ni  Ni27  1  0.21955733  0.09731333  0.07751779  1.0
  Ni  Ni28  1  0.21955733  0.43064667  0.07751779  1.0
  Ni  Ni29  1  0.21955733  0.76398000  0.07751779  1.0
  Ni  Ni30  1  0.55289067  0.09731333  0.07751779  1.0
  Ni  Ni31  1  0.55289067  0.43064667  0.07751779  1.0
  Ni  Ni32  1  0.55289067  0.76398000  0.07751779  1.0
  Ni  Ni33  1  0.88622400  0.09731333  0.07751779  1.0
  Ni  Ni34  1  0.88622400  0.43064667  0.07751779  1.0
  Ni  Ni35  1  0.88622400  0.76398000  0.07751779  1.0
  Ni  Ni36  1  0.32769767  0.20841433  0.03109150  1.0
  Ni  Ni37  1  0.32769767  0.54174767  0.03109150  1.0
  Ni  Ni38  1  0.32769767  0.87508100  0.03109150  1.0
  Ni  Ni39  1  0.66103100  0.20841433  0.03109150  1.0
  Ni  Ni40  1  0.66103100  0.54174767  0.03109150  1.0
  Ni  Ni41  1  0.66103100  0.87508100  0.03109150  1.0
  Ni  Ni42  1  0.99436433  0.20841433  0.03109150  1.0
  Ni  Ni43  1  0.99436433  0.54174767  0.03109150  1.0
  Ni  Ni44  1  0.99436433  0.87508100  0.03109150  1.0
  Ni  Ni45  1  0.10491833  0.31971167  0.12650493  1.0
  Ni  Ni46  1  0.10491833  0.65304500  0.12650493  1.0
  Ni  Ni47  1  0.10491833  0.98637833  0.12650493  1.0
  Ni  Ni48  1  0.43825167  0.31971167  0.12650493  1.0
  Ni  Ni49  1  0.43825167  0.65304500  0.12650493  1.0
  Ni  Ni50  1  0.43825167  0.98637833  0.12650493  1.0
  Ni  Ni51  1  0.77158500  0.31971167  0.12650493  1.0
  Ni  Ni52  1  0.77158500  0.65304500  0.12650493  1.0
  Ni  Ni53  1  0.77158500  0.98637833  0.12650493  1.0
  Ni  Ni54  1  0.00261833  0.04219900  0.02846593  1.0
  Ni  Ni55  1  0.00261833  0.37553233  0.02846593  1.0
  Ni  Ni56  1  0.00261833  0.70886567  0.02846593  1.0
  Ni  Ni57  1  0.33595167  0.04219900  0.02846593  1.0
  Ni  Ni58  1  0.33595167  0.37553233  0.02846593  1.0
  Ni  Ni59  1  0.33595167  0.70886567  0.02846593  1.0
  Ni  Ni60  1  0.66928500  0.04219900  0.02846593  1.0
  Ni  Ni61  1  0.66928500  0.37553233  0.02846593  1.0
  Ni  Ni62  1  0.66928500  0.70886567  0.02846593  1.0
  Ni  Ni63  1  0.11612333  0.15207567  0.12287321  1.0
  Ni  Ni64  1  0.11612333  0.48540900  0.12287321  1.0
  Ni  Ni65  1  0.11612333  0.81874233  0.12287321  1.0
  Ni  Ni66  1  0.44945667  0.15207567  0.12287321  1.0
  Ni  Ni67  1  0.44945667  0.48540900  0.12287321  1.0
  Ni  Ni68  1  0.44945667  0.81874233  0.12287321  1.0
  Ni  Ni69  1  0.78279000  0.15207567  0.12287321  1.0
  Ni  Ni70  1  0.78279000  0.48540900  0.12287321  1.0
  Ni  Ni71  1  0.78279000  0.81874233  0.12287321  1.0
  Ni  Ni72  1  0.22728533  0.26381267  0.07539207  1.0
  Ni  Ni73  1  0.22728533  0.59714600  0.07539207  1.0
  Ni  Ni74  1  0.22728533  0.93047933  0.07539207  1.0
  Ni  Ni75  1  0.56061867  0.26381267  0.07539207  1.0
  Ni  Ni76  1  0.56061867  0.59714600  0.07539207  1.0
  Ni  Ni77  1  0.56061867  0.93047933  0.07539207  1.0
  Ni  Ni78  1  0.89395200  0.26381267  0.07539207  1.0
  Ni  Ni79  1  0.89395200  0.59714600  0.07539207  1.0
  Ni  Ni80  1  0.89395200  0.93047933  0.07539207  1.0
  Ni  Ni81  1  0.22505700  0.01386367  0.00367236  1.0
  Ni  Ni82  1  0.22505700  0.34719700  0.00367236  1.0
  Ni  Ni83  1  0.22505700  0.68053033  0.00367236  1.0
  Ni  Ni84  1  0.55839033  0.01386367  0.00367236  1.0
  Ni  Ni85  1  0.55839033  0.34719700  0.00367236  1.0
  Ni  Ni86  1  0.55839033  0.68053033  0.00367236  1.0
  Ni  Ni87  1  0.89172367  0.01386367  0.00367236  1.0
  Ni  Ni88  1  0.89172367  0.34719700  0.00367236  1.0
  Ni  Ni89  1  0.89172367  0.68053033  0.00367236  1.0
  Ni  Ni90  1  0.00303433  0.12504767  0.09867407  1.0
  Ni  Ni91  1  0.00303433  0.45838100  0.09867407  1.0
  Ni  Ni92  1  0.00303433  0.79171433  0.09867407  1.0
  Ni  Ni93  1  0.33636767  0.12504767  0.09867407  1.0
  Ni  Ni94  1  0.33636767  0.45838100  0.09867407  1.0
  Ni  Ni95  1  0.33636767  0.79171433  0.09867407  1.0
  Ni  Ni96  1  0.66970100  0.12504767  0.09867407  1.0
  Ni  Ni97  1  0.66970100  0.45838100  0.09867407  1.0
  Ni  Ni98  1  0.66970100  0.79171433  0.09867407  1.0
  Ni  Ni99  1  0.11436667  0.23608033  0.05103221  1.0
  Ni  Ni100  1  0.11436667  0.56941367  0.05103221  1.0
  Ni  Ni101  1  0.11436667  0.90274700  0.05103221  1.0
  Ni  Ni102  1  0.44770000  0.23608033  0.05103221  1.0
  Ni  Ni103  1  0.44770000  0.56941367  0.05103221  1.0
  Ni  Ni104  1  0.44770000  0.90274700  0.05103221  1.0
  Ni  Ni105  1  0.78103333  0.23608033  0.05103221  1.0
  Ni  Ni106  1  0.78103333  0.56941367  0.05103221  1.0
  Ni  Ni107  1  0.78103333  0.90274700  0.05103221  1.0
  Ni  Ni108  1  0.00261833  0.04219900  0.09867879  1.0
  Ni  Ni109  1  0.00261833  0.37553233  0.09867879  1.0
  Ni  Ni110  1  0.00261833  0.70886567  0.09867879  1.0
  Ni  Ni111  1  0.33595167  0.04219900  0.09867879  1.0
  Ni  Ni112  1  0.33595167  0.37553233  0.09867879  1.0
  Ni  Ni113  1  0.33595167  0.70886567  0.09867879  1.0
  Ni  Ni114  1  0.66928500  0.04219900  0.09867879  1.0
  Ni  Ni115  1  0.66928500  0.37553233  0.09867879  1.0
  Ni  Ni116  1  0.66928500  0.70886567  0.09867879  1.0
  Ni  Ni117  1  0.11612333  0.15207567  0.04983864  1.0
  Ni  Ni118  1  0.11612333  0.48540900  0.04983864  1.0
  Ni  Ni119  1  0.11612333  0.81874233  0.04983864  1.0
  Ni  Ni120  1  0.44945667  0.15207567  0.04983864  1.0
  Ni  Ni121  1  0.44945667  0.48540900  0.04983864  1.0
  Ni  Ni122  1  0.44945667  0.81874233  0.04983864  1.0
  Ni  Ni123  1  0.78279000  0.15207567  0.04983864  1.0
  Ni  Ni124  1  0.78279000  0.48540900  0.04983864  1.0
  Ni  Ni125  1  0.78279000  0.81874233  0.04983864  1.0
  Ni  Ni126  1  0.22728533  0.26381267  0.00203807  1.0
  Ni  Ni127  1  0.22728533  0.59714600  0.00203807  1.0
  Ni  Ni128  1  0.22728533  0.93047933  0.00203807  1.0
  Ni  Ni129  1  0.56061867  0.26381267  0.00203807  1.0
  Ni  Ni130  1  0.56061867  0.59714600  0.00203807  1.0
  Ni  Ni131  1  0.56061867  0.93047933  0.00203807  1.0
  Ni  Ni132  1  0.89395200  0.26381267  0.00203807  1.0
  Ni  Ni133  1  0.89395200  0.59714600  0.00203807  1.0
  Ni  Ni134  1  0.89395200  0.93047933  0.00203807  1.0
  Ni  Ni135  1  0.22505700  0.01386367  0.07566779  1.0
  Ni  Ni136  1  0.22505700  0.34719700  0.07566779  1.0
  Ni  Ni137  1  0.22505700  0.68053033  0.07566779  1.0
  Ni  Ni138  1  0.55839033  0.01386367  0.07566779  1.0
  Ni  Ni139  1  0.55839033  0.34719700  0.07566779  1.0
  Ni  Ni140  1  0.55839033  0.68053033  0.07566779  1.0
  Ni  Ni141  1  0.89172367  0.01386367  0.07566779  1.0
  Ni  Ni142  1  0.89172367  0.34719700  0.07566779  1.0
  Ni  Ni143  1  0.89172367  0.68053033  0.07566779  1.0
  Ni  Ni144  1  0.00303433  0.12504767  0.02811407  1.0
  Ni  Ni145  1  0.00303433  0.45838100  0.02811407  1.0
  Ni  Ni146  1  0.00303433  0.79171433  0.02811407  1.0
  Ni  Ni147  1  0.33636767  0.12504767  0.02811407  1.0
  Ni  Ni148  1  0.33636767  0.45838100  0.02811407  1.0
  Ni  Ni149  1  0.33636767  0.79171433  0.02811407  1.0
  Ni  Ni150  1  0.66970100  0.12504767  0.02811407  1.0
  Ni  Ni151  1  0.66970100  0.45838100  0.02811407  1.0
  Ni  Ni152  1  0.66970100  0.79171433  0.02811407  1.0
  Ni  Ni153  1  0.11436667  0.23608033  0.12318536  1.0
  Ni  Ni154  1  0.11436667  0.56941367  0.12318536  1.0
  Ni  Ni155  1  0.11436667  0.90274700  0.12318536  1.0
  Ni  Ni156  1  0.44770000  0.23608033  0.12318536  1.0
  Ni  Ni157  1  0.44770000  0.56941367  0.12318536  1.0
  Ni  Ni158  1  0.44770000  0.90274700  0.12318536  1.0
  Ni  Ni159  1  0.78103333  0.23608033  0.12318536  1.0
  Ni  Ni160  1  0.78103333  0.56941367  0.12318536  1.0
  Ni  Ni161  1  0.78103333  0.90274700  0.12318536  1.0
  Ni  Ni162  1  0.10858800  0.06943867  0.12492550  1.0
  Ni  Ni163  1  0.10858800  0.40277200  0.12492550  1.0
  Ni  Ni164  1  0.10858800  0.73610533  0.12492550  1.0
  Ni  Ni165  1  0.44192133  0.06943867  0.12492550  1.0
  Ni  Ni166  1  0.44192133  0.40277200  0.12492550  1.0
  Ni  Ni167  1  0.44192133  0.73610533  0.12492550  1.0
  Ni  Ni168  1  0.77525467  0.06943867  0.12492550  1.0
  Ni  Ni169  1  0.77525467  0.40277200  0.12492550  1.0
  Ni  Ni170  1  0.77525467  0.73610533  0.12492550  1.0
  Ni  Ni171  1  0.21868733  0.18044800  0.07741636  1.0
  Ni  Ni172  1  0.21868733  0.51378133  0.07741636  1.0
  Ni  Ni173  1  0.21868733  0.84711467  0.07741636  1.0
  Ni  Ni174  1  0.55202067  0.18044800  0.07741636  1.0
  Ni  Ni175  1  0.55202067  0.51378133  0.07741636  1.0
  Ni  Ni176  1  0.55202067  0.84711467  0.07741636  1.0
  Ni  Ni177  1  0.88535400  0.18044800  0.07741636  1.0
  Ni  Ni178  1  0.88535400  0.51378133  0.07741636  1.0
  Ni  Ni179  1  0.88535400  0.84711467  0.07741636  1.0
  Ni  Ni180  1  0.32999167  0.29162400  0.02976279  1.0
  Ni  Ni181  1  0.32999167  0.62495733  0.02976279  1.0
  Ni  Ni182  1  0.32999167  0.95829067  0.02976279  1.0
  Ni  Ni183  1  0.66332500  0.29162400  0.02976279  1.0
  Ni  Ni184  1  0.66332500  0.62495733  0.02976279  1.0
  Ni  Ni185  1  0.66332500  0.95829067  0.02976279  1.0
  Ni  Ni186  1  0.99665833  0.29162400  0.02976279  1.0
  Ni  Ni187  1  0.99665833  0.62495733  0.02976279  1.0
  Ni  Ni188  1  0.99665833  0.95829067  0.02976279  1.0
  Ni  Ni189  1  0.21955733  0.09731333  0.00653636  1.0
  Ni  Ni190  1  0.21955733  0.43064667  0.00653636  1.0
  Ni  Ni191  1  0.21955733  0.76398000  0.00653636  1.0
  Ni  Ni192  1  0.55289067  0.09731333  0.00653636  1.0
  Ni  Ni193  1  0.55289067  0.43064667  0.00653636  1.0
  Ni  Ni194  1  0.55289067  0.76398000  0.00653636  1.0
  Ni  Ni195  1  0.88622400  0.09731333  0.00653636  1.0
  Ni  Ni196  1  0.88622400  0.43064667  0.00653636  1.0
  Ni  Ni197  1  0.88622400  0.76398000  0.00653636  1.0
  Ni  Ni198  1  0.32769767  0.20841433  0.10312807  1.0
  Ni  Ni199  1  0.32769767  0.54174767  0.10312807  1.0
  Ni  Ni200  1  0.32769767  0.87508100  0.10312807  1.0
  Ni  Ni201  1  0.66103100  0.20841433  0.10312807  1.0
  Ni  Ni202  1  0.66103100  0.54174767  0.10312807  1.0
  Ni  Ni203  1  0.66103100  0.87508100  0.10312807  1.0
  Ni  Ni204  1  0.99436433  0.20841433  0.10312807  1.0
  Ni  Ni205  1  0.99436433  0.54174767  0.10312807  1.0
  Ni  Ni206  1  0.99436433  0.87508100  0.10312807  1.0
  Ni  Ni207  1  0.10491833  0.31971167  0.05581121  1.0
  Ni  Ni208  1  0.10491833  0.65304500  0.05581121  1.0
  Ni  Ni209  1  0.10491833  0.98637833  0.05581121  1.0
  Ni  Ni210  1  0.43825167  0.31971167  0.05581121  1.0
  Ni  Ni211  1  0.43825167  0.65304500  0.05581121  1.0
  Ni  Ni212  1  0.43825167  0.98637833  0.05581121  1.0
  Ni  Ni213  1  0.77158500  0.31971167  0.05581121  1.0
  Ni  Ni214  1  0.77158500  0.65304500  0.05581121  1.0
  Ni  Ni215  1  0.77158500  0.98637833  0.05581121  1.0
  Ni  Ni216  1  0.21952433  0.20767667  0.04204121  1.0
  Ni  Ni217  1  0.21952433  0.54101000  0.04204121  1.0
  Ni  Ni218  1  0.21952433  0.87434333  0.04204121  1.0
  Ni  Ni219  1  0.55285767  0.20767667  0.04204121  1.0
  Ni  Ni220  1  0.55285767  0.54101000  0.04204121  1.0
  Ni  Ni221  1  0.55285767  0.87434333  0.04204121  1.0
  Ni  Ni222  1  0.88619100  0.20767667  0.04204121  1.0
  Ni  Ni223  1  0.88619100  0.54101000  0.04204121  1.0
  Ni  Ni224  1  0.88619100  0.87434333  0.04204121  1.0
  Ni  Ni225  1  0.33010867  0.31900200  0.13750507  1.0
  Ni  Ni226  1  0.33010867  0.65233533  0.13750507  1.0
  Ni  Ni227  1  0.33010867  0.98566867  0.13750507  1.0
  Ni  Ni228  1  0.66344200  0.31900200  0.13750507  1.0
  Ni  Ni229  1  0.66344200  0.65233533  0.13750507  1.0
  Ni  Ni230  1  0.66344200  0.98566867  0.13750507  1.0
  Ni  Ni231  1  0.99677533  0.31900200  0.13750507  1.0
  Ni  Ni232  1  0.99677533  0.65233533  0.13750507  1.0
  Ni  Ni233  1  0.99677533  0.98566867  0.13750507  1.0
  Ni  Ni234  1  0.11376500  0.04125267  0.01593807  1.0
  Ni  Ni235  1  0.11376500  0.37458600  0.01593807  1.0
  Ni  Ni236  1  0.11376500  0.70791933  0.01593807  1.0
  Ni  Ni237  1  0.44709833  0.04125267  0.01593807  1.0
  Ni  Ni238  1  0.44709833  0.37458600  0.01593807  1.0
  Ni  Ni239  1  0.44709833  0.70791933  0.01593807  1.0
  Ni  Ni240  1  0.78043167  0.04125267  0.01593807  1.0
  Ni  Ni241  1  0.78043167  0.37458600  0.01593807  1.0
  Ni  Ni242  1  0.78043167  0.70791933  0.01593807  1.0
  Ni  Ni243  1  0.22283967  0.15313067  0.11204893  1.0
  Ni  Ni244  1  0.22283967  0.48646400  0.11204893  1.0
  Ni  Ni245  1  0.22283967  0.81979733  0.11204893  1.0
  Ni  Ni246  1  0.55617300  0.15313067  0.11204893  1.0
  Ni  Ni247  1  0.55617300  0.48646400  0.11204893  1.0
  Ni  Ni248  1  0.55617300  0.81979733  0.11204893  1.0
  Ni  Ni249  1  0.88950633  0.15313067  0.11204893  1.0
  Ni  Ni250  1  0.88950633  0.48646400  0.11204893  1.0
  Ni  Ni251  1  0.88950633  0.81979733  0.11204893  1.0
  Ni  Ni252  1  0.00257133  0.26378300  0.06359250  1.0
  Ni  Ni253  1  0.00257133  0.59711633  0.06359250  1.0
  Ni  Ni254  1  0.00257133  0.93044967  0.06359250  1.0
  Ni  Ni255  1  0.33590467  0.26378300  0.06359250  1.0
  Ni  Ni256  1  0.33590467  0.59711633  0.06359250  1.0
  Ni  Ni257  1  0.33590467  0.93044967  0.06359250  1.0
  Ni  Ni258  1  0.66923800  0.26378300  0.06359250  1.0
  Ni  Ni259  1  0.66923800  0.59711633  0.06359250  1.0
  Ni  Ni260  1  0.66923800  0.93044967  0.06359250  1.0
  Ni  Ni261  1  0.00038733  0.01427967  0.06452850  1.0
  Ni  Ni262  1  0.00038733  0.34761300  0.06452850  1.0
  Ni  Ni263  1  0.00038733  0.68094633  0.06452850  1.0
  Ni  Ni264  1  0.33372067  0.01427967  0.06452850  1.0
  Ni  Ni265  1  0.33372067  0.34761300  0.06452850  1.0
  Ni  Ni266  1  0.33372067  0.68094633  0.06452850  1.0
  Ni  Ni267  1  0.66705400  0.01427967  0.06452850  1.0
  Ni  Ni268  1  0.66705400  0.34761300  0.06452850  1.0
  Ni  Ni269  1  0.66705400  0.68094633  0.06452850  1.0
  Ni  Ni270  1  0.11269067  0.12475533  0.01639850  1.0
  Ni  Ni271  1  0.11269067  0.45808867  0.01639850  1.0
  Ni  Ni272  1  0.11269067  0.79142200  0.01639850  1.0
  Ni  Ni273  1  0.44602400  0.12475533  0.01639850  1.0
  Ni  Ni274  1  0.44602400  0.45808867  0.01639850  1.0
  Ni  Ni275  1  0.44602400  0.79142200  0.01639850  1.0
  Ni  Ni276  1  0.77935733  0.12475533  0.01639850  1.0
  Ni  Ni277  1  0.77935733  0.45808867  0.01639850  1.0
  Ni  Ni278  1  0.77935733  0.79142200  0.01639850  1.0
  Ni  Ni279  1  0.22311233  0.23624567  0.11193207  1.0
  Ni  Ni280  1  0.22311233  0.56957900  0.11193207  1.0
  Ni  Ni281  1  0.22311233  0.90291233  0.11193207  1.0
  Ni  Ni282  1  0.55644567  0.23624567  0.11193207  1.0
  Ni  Ni283  1  0.55644567  0.56957900  0.11193207  1.0
  Ni  Ni284  1  0.55644567  0.90291233  0.11193207  1.0
  Ni  Ni285  1  0.88977900  0.23624567  0.11193207  1.0
  Ni  Ni286  1  0.88977900  0.56957900  0.11193207  1.0
  Ni  Ni287  1  0.88977900  0.90291233  0.11193207  1.0
  Sn  Sn288  1  0.33108167  0.01638033  0.13708807  1.0
  Sn  Sn289  1  0.33108167  0.34971367  0.13708807  1.0
  Sn  Sn290  1  0.33108167  0.68304700  0.13708807  1.0
  Sn  Sn291  1  0.66441500  0.01638033  0.13708807  1.0
  Sn  Sn292  1  0.66441500  0.34971367  0.13708807  1.0
  Sn  Sn293  1  0.66441500  0.68304700  0.13708807  1.0
  Sn  Sn294  1  0.99774833  0.01638033  0.13708807  1.0
  Sn  Sn295  1  0.99774833  0.34971367  0.13708807  1.0
  Sn  Sn296  1  0.99774833  0.68304700  0.13708807  1.0
  Sn  Sn297  1  0.11077033  0.12512633  0.08865007  1.0
  Sn  Sn298  1  0.11077033  0.45845967  0.08865007  1.0
  Sn  Sn299  1  0.11077033  0.79179300  0.08865007  1.0
  Sn  Sn300  1  0.44410367  0.12512633  0.08865007  1.0
  Sn  Sn301  1  0.44410367  0.45845967  0.08865007  1.0
  Sn  Sn302  1  0.44410367  0.79179300  0.08865007  1.0
  Sn  Sn303  1  0.77743700  0.12512633  0.08865007  1.0
  Sn  Sn304  1  0.77743700  0.45845967  0.08865007  1.0
  Sn  Sn305  1  0.77743700  0.79179300  0.08865007  1.0
  Sn  Sn306  1  0.22093867  0.23819900  0.04143507  1.0
  Sn  Sn307  1  0.22093867  0.57153233  0.04143507  1.0
  Sn  Sn308  1  0.22093867  0.90486567  0.04143507  1.0
  Sn  Sn309  1  0.55427200  0.23819900  0.04143507  1.0
  Sn  Sn310  1  0.55427200  0.57153233  0.04143507  1.0
  Sn  Sn311  1  0.55427200  0.90486567  0.04143507  1.0
  Sn  Sn312  1  0.88760533  0.23819900  0.04143507  1.0
  Sn  Sn313  1  0.88760533  0.57153233  0.04143507  1.0
  Sn  Sn314  1  0.88760533  0.90486567  0.04143507  1.0
  Sn  Sn315  1  0.11231300  0.04132700  0.08798893  1.0
  Sn  Sn316  1  0.11231300  0.37466033  0.08798893  1.0
  Sn  Sn317  1  0.11231300  0.70799367  0.08798893  1.0
  Sn  Sn318  1  0.44564633  0.04132700  0.08798893  1.0
  Sn  Sn319  1  0.44564633  0.37466033  0.08798893  1.0
  Sn  Sn320  1  0.44564633  0.70799367  0.08798893  1.0
  Sn  Sn321  1  0.77897967  0.04132700  0.08798893  1.0
  Sn  Sn322  1  0.77897967  0.37466033  0.08798893  1.0
  Sn  Sn323  1  0.77897967  0.70799367  0.08798893  1.0
  Sn  Sn324  1  0.22439933  0.15208200  0.03995193  1.0
  Sn  Sn325  1  0.22439933  0.48541533  0.03995193  1.0
  Sn  Sn326  1  0.22439933  0.81874867  0.03995193  1.0
  Sn  Sn327  1  0.55773267  0.15208200  0.03995193  1.0
  Sn  Sn328  1  0.55773267  0.48541533  0.03995193  1.0
  Sn  Sn329  1  0.55773267  0.81874867  0.03995193  1.0
  Sn  Sn330  1  0.89106600  0.15208200  0.03995193  1.0
  Sn  Sn331  1  0.89106600  0.48541533  0.03995193  1.0
  Sn  Sn332  1  0.89106600  0.81874867  0.03995193  1.0
  Sn  Sn333  1  0.00289033  0.26328633  0.13488436  1.0
  Sn  Sn334  1  0.00289033  0.59661967  0.13488436  1.0
  Sn  Sn335  1  0.00289033  0.92995300  0.13488436  1.0
  Sn  Sn336  1  0.33622367  0.26328633  0.13488436  1.0
  Sn  Sn337  1  0.33622367  0.59661967  0.13488436  1.0
  Sn  Sn338  1  0.33622367  0.92995300  0.13488436  1.0
  Sn  Sn339  1  0.66955700  0.26328633  0.13488436  1.0
  Sn  Sn340  1  0.66955700  0.59661967  0.13488436  1.0
  Sn  Sn341  1  0.66955700  0.92995300  0.13488436  1.0
  Sn  Sn342  1  0.10963000  0.09547733  0.01771021  1.0
  Sn  Sn343  1  0.10963000  0.42881067  0.01771021  1.0
  Sn  Sn344  1  0.10963000  0.76214400  0.01771021  1.0
  Sn  Sn345  1  0.44296333  0.09547733  0.01771021  1.0
  Sn  Sn346  1  0.44296333  0.42881067  0.01771021  1.0
  Sn  Sn347  1  0.44296333  0.76214400  0.01771021  1.0
  Sn  Sn348  1  0.77629667  0.09547733  0.01771021  1.0
  Sn  Sn349  1  0.77629667  0.42881067  0.01771021  1.0
  Sn  Sn350  1  0.77629667  0.76214400  0.01771021  1.0
  Sn  Sn351  1  0.21977667  0.20651500  0.11336164  1.0
  Sn  Sn352  1  0.21977667  0.53984833  0.11336164  1.0
  Sn  Sn353  1  0.21977667  0.87318167  0.11336164  1.0
  Sn  Sn354  1  0.55311000  0.20651500  0.11336164  1.0
  Sn  Sn355  1  0.55311000  0.53984833  0.11336164  1.0
  Sn  Sn356  1  0.55311000  0.87318167  0.11336164  1.0
  Sn  Sn357  1  0.88644333  0.20651500  0.11336164  1.0
  Sn  Sn358  1  0.88644333  0.53984833  0.11336164  1.0
  Sn  Sn359  1  0.88644333  0.87318167  0.11336164  1.0
  Sn  Sn360  1  0.33047267  0.31784700  0.06592050  1.0
  Sn  Sn361  1  0.33047267  0.65118033  0.06592050  1.0
  Sn  Sn362  1  0.33047267  0.98451367  0.06592050  1.0
  Sn  Sn363  1  0.66380600  0.31784700  0.06592050  1.0
  Sn  Sn364  1  0.66380600  0.65118033  0.06592050  1.0
  Sn  Sn365  1  0.66380600  0.98451367  0.06592050  1.0
  Sn  Sn366  1  0.99713933  0.31784700  0.06592050  1.0
  Sn  Sn367  1  0.99713933  0.65118033  0.06592050  1.0
  Sn  Sn368  1  0.99713933  0.98451367  0.06592050  1.0
  Sn  Sn369  1  0.32631267  0.07119533  0.06770336  1.0
  Sn  Sn370  1  0.32631267  0.40452867  0.06770336  1.0
  Sn  Sn371  1  0.32631267  0.73786200  0.06770336  1.0
  Sn  Sn372  1  0.65964600  0.07119533  0.06770336  1.0
  Sn  Sn373  1  0.65964600  0.40452867  0.06770336  1.0
  Sn  Sn374  1  0.65964600  0.73786200  0.06770336  1.0
  Sn  Sn375  1  0.99297933  0.07119533  0.06770336  1.0
  Sn  Sn376  1  0.99297933  0.40452867  0.06770336  1.0
  Sn  Sn377  1  0.99297933  0.73786200  0.06770336  1.0
  Sn  Sn378  1  0.10183833  0.18223167  0.02104950  1.0
  Sn  Sn379  1  0.10183833  0.51556500  0.02104950  1.0
  Sn  Sn380  1  0.10183833  0.84889833  0.02104950  1.0
  Sn  Sn381  1  0.43517167  0.18223167  0.02104950  1.0
  Sn  Sn382  1  0.43517167  0.51556500  0.02104950  1.0
  Sn  Sn383  1  0.43517167  0.84889833  0.02104950  1.0
  Sn  Sn384  1  0.76850500  0.18223167  0.02104950  1.0
  Sn  Sn385  1  0.76850500  0.51556500  0.02104950  1.0
  Sn  Sn386  1  0.76850500  0.84889833  0.02104950  1.0
  Sn  Sn387  1  0.21363367  0.29347033  0.11599436  1.0
  Sn  Sn388  1  0.21363367  0.62680367  0.11599436  1.0
  Sn  Sn389  1  0.21363367  0.96013700  0.11599436  1.0
  Sn  Sn390  1  0.54696700  0.29347033  0.11599436  1.0
  Sn  Sn391  1  0.54696700  0.62680367  0.11599436  1.0
  Sn  Sn392  1  0.54696700  0.96013700  0.11599436  1.0
  Sn  Sn393  1  0.88030033  0.29347033  0.11599436  1.0
  Sn  Sn394  1  0.88030033  0.62680367  0.11599436  1.0
  Sn  Sn395  1  0.88030033  0.96013700  0.11599436  1.0
  Sn  Sn396  1  0.22252700  0.06958133  0.04075436  1.0
  Sn  Sn397  1  0.22252700  0.40291467  0.04075436  1.0
  Sn  Sn398  1  0.22252700  0.73624800  0.04075436  1.0
  Sn  Sn399  1  0.55586033  0.06958133  0.04075436  1.0
  Sn  Sn400  1  0.55586033  0.40291467  0.04075436  1.0
  Sn  Sn401  1  0.55586033  0.73624800  0.04075436  1.0
  Sn  Sn402  1  0.88919367  0.06958133  0.04075436  1.0
  Sn  Sn403  1  0.88919367  0.40291467  0.04075436  1.0
  Sn  Sn404  1  0.88919367  0.73624800  0.04075436  1.0
  Sn  Sn405  1  0.00888267  0.17837600  0.13231621  1.0
  Sn  Sn406  1  0.00888267  0.51170933  0.13231621  1.0
  Sn  Sn407  1  0.00888267  0.84504267  0.13231621  1.0
  Sn  Sn408  1  0.34221600  0.17837600  0.13231621  1.0
  Sn  Sn409  1  0.34221600  0.51170933  0.13231621  1.0
  Sn  Sn410  1  0.34221600  0.84504267  0.13231621  1.0
  Sn  Sn411  1  0.67554933  0.17837600  0.13231621  1.0
  Sn  Sn412  1  0.67554933  0.51170933  0.13231621  1.0
  Sn  Sn413  1  0.67554933  0.84504267  0.13231621  1.0
  Sn  Sn414  1  0.11951500  0.28984500  0.08490236  1.0
  Sn  Sn415  1  0.11951500  0.62317833  0.08490236  1.0
  Sn  Sn416  1  0.11951500  0.95651167  0.08490236  1.0
  Sn  Sn417  1  0.45284833  0.28984500  0.08490236  1.0
  Sn  Sn418  1  0.45284833  0.62317833  0.08490236  1.0
  Sn  Sn419  1  0.45284833  0.95651167  0.08490236  1.0
  Sn  Sn420  1  0.78618167  0.28984500  0.08490236  1.0
  Sn  Sn421  1  0.78618167  0.62317833  0.08490236  1.0
  Sn  Sn422  1  0.78618167  0.95651167  0.08490236  1.0
  Sn  Sn423  1  0.33287200  0.09751133  0.13632079  1.0
  Sn  Sn424  1  0.33287200  0.43084467  0.13632079  1.0
  Sn  Sn425  1  0.33287200  0.76417800  0.13632079  1.0
  Sn  Sn426  1  0.66620533  0.09751133  0.13632079  1.0
  Sn  Sn427  1  0.66620533  0.43084467  0.13632079  1.0
  Sn  Sn428  1  0.66620533  0.76417800  0.13632079  1.0
  Sn  Sn429  1  0.99953867  0.09751133  0.13632079  1.0
  Sn  Sn430  1  0.99953867  0.43084467  0.13632079  1.0
  Sn  Sn431  1  0.99953867  0.76417800  0.13632079  1.0
  Sn  Sn432  1  0.10025767  0.20860933  0.09315550  1.0
  Sn  Sn433  1  0.10025767  0.54194267  0.09315550  1.0
  Sn  Sn434  1  0.10025767  0.87527600  0.09315550  1.0
  Sn  Sn435  1  0.43359100  0.20860933  0.09315550  1.0
  Sn  Sn436  1  0.43359100  0.54194267  0.09315550  1.0
  Sn  Sn437  1  0.43359100  0.87527600  0.09315550  1.0
  Sn  Sn438  1  0.76692433  0.20860933  0.09315550  1.0
  Sn  Sn439  1  0.76692433  0.54194267  0.09315550  1.0
  Sn  Sn440  1  0.76692433  0.87527600  0.09315550  1.0
  Sn  Sn441  1  0.21127367  0.31964667  0.04557721  1.0
  Sn  Sn442  1  0.21127367  0.65298000  0.04557721  1.0
  Sn  Sn443  1  0.21127367  0.98631333  0.04557721  1.0
  Sn  Sn444  1  0.54460700  0.31964667  0.04557721  1.0
  Sn  Sn445  1  0.54460700  0.65298000  0.04557721  1.0
  Sn  Sn446  1  0.54460700  0.98631333  0.04557721  1.0
  Sn  Sn447  1  0.87794033  0.31964667  0.04557721  1.0
  Sn  Sn448  1  0.87794033  0.65298000  0.04557721  1.0
  Sn  Sn449  1  0.87794033  0.98631333  0.04557721  1.0
  Sn  Sn450  1  0.22259067  0.04551933  0.11215564  1.0
  Sn  Sn451  1  0.22259067  0.37885267  0.11215564  1.0
  Sn  Sn452  1  0.22259067  0.71218600  0.11215564  1.0
  Sn  Sn453  1  0.55592400  0.04551933  0.11215564  1.0
  Sn  Sn454  1  0.55592400  0.37885267  0.11215564  1.0
  Sn  Sn455  1  0.55592400  0.71218600  0.11215564  1.0
  Sn  Sn456  1  0.88925733  0.04551933  0.11215564  1.0
  Sn  Sn457  1  0.88925733  0.37885267  0.11215564  1.0
  Sn  Sn458  1  0.88925733  0.71218600  0.11215564  1.0
  Sn  Sn459  1  0.00129767  0.15611600  0.06413836  1.0
  Sn  Sn460  1  0.00129767  0.48944933  0.06413836  1.0
  Sn  Sn461  1  0.00129767  0.82278267  0.06413836  1.0
  Sn  Sn462  1  0.33463100  0.15611600  0.06413836  1.0
  Sn  Sn463  1  0.33463100  0.48944933  0.06413836  1.0
  Sn  Sn464  1  0.33463100  0.82278267  0.06413836  1.0
  Sn  Sn465  1  0.66796433  0.15611600  0.06413836  1.0
  Sn  Sn466  1  0.66796433  0.48944933  0.06413836  1.0
  Sn  Sn467  1  0.66796433  0.82278267  0.06413836  1.0
  Sn  Sn468  1  0.11219733  0.26767333  0.01660993  1.0
  Sn  Sn469  1  0.11219733  0.60100667  0.01660993  1.0
  Sn  Sn470  1  0.11219733  0.93434000  0.01660993  1.0
  Sn  Sn471  1  0.44553067  0.26767333  0.01660993  1.0
  Sn  Sn472  1  0.44553067  0.60100667  0.01660993  1.0
  Sn  Sn473  1  0.44553067  0.93434000  0.01660993  1.0
  Sn  Sn474  1  0.77886400  0.26767333  0.01660993  1.0
  Sn  Sn475  1  0.77886400  0.60100667  0.01660993  1.0
  Sn  Sn476  1  0.77886400  0.93434000  0.01660993  1.0
  Sn  Sn477  1  0.12517300  0.01031033  0.01104893  1.0
  Sn  Sn478  1  0.12517300  0.34364367  0.01104893  1.0
  Sn  Sn479  1  0.12517300  0.67697700  0.01104893  1.0
  Sn  Sn480  1  0.45850633  0.01031033  0.01104893  1.0
  Sn  Sn481  1  0.45850633  0.34364367  0.01104893  1.0
  Sn  Sn482  1  0.45850633  0.67697700  0.01104893  1.0
  Sn  Sn483  1  0.79183967  0.01031033  0.01104893  1.0
  Sn  Sn484  1  0.79183967  0.34364367  0.01104893  1.0
  Sn  Sn485  1  0.79183967  0.67697700  0.01104893  1.0
  Sn  Sn486  1  0.23751400  0.12155833  0.10575993  1.0
  Sn  Sn487  1  0.23751400  0.45489167  0.10575993  1.0
  Sn  Sn488  1  0.23751400  0.78822500  0.10575993  1.0
  Sn  Sn489  1  0.57084733  0.12155833  0.10575993  1.0
  Sn  Sn490  1  0.57084733  0.45489167  0.10575993  1.0
  Sn  Sn491  1  0.57084733  0.78822500  0.10575993  1.0
  Sn  Sn492  1  0.90418067  0.12155833  0.10575993  1.0
  Sn  Sn493  1  0.90418067  0.45489167  0.10575993  1.0
  Sn  Sn494  1  0.90418067  0.78822500  0.10575993  1.0
  Sn  Sn495  1  0.01432667  0.23259767  0.05855450  1.0
  Sn  Sn496  1  0.01432667  0.56593100  0.05855450  1.0
  Sn  Sn497  1  0.01432667  0.89926433  0.05855450  1.0
  Sn  Sn498  1  0.34766000  0.23259767  0.05855450  1.0
  Sn  Sn499  1  0.34766000  0.56593100  0.05855450  1.0
  Sn  Sn500  1  0.34766000  0.89926433  0.05855450  1.0
  Sn  Sn501  1  0.68099333  0.23259767  0.05855450  1.0
  Sn  Sn502  1  0.68099333  0.56593100  0.05855450  1.0
  Sn  Sn503  1  0.68099333  0.89926433  0.05855450  1.0
  Ni  Ni504  1  0.10858800  0.06943867  0.19710236  1.0
  Ni  Ni505  1  0.10858800  0.40277200  0.19710236  1.0
  Ni  Ni506  1  0.10858800  0.73610533  0.19710236  1.0
  Ni  Ni507  1  0.44192133  0.06943867  0.19710236  1.0
  Ni  Ni508  1  0.44192133  0.40277200  0.19710236  1.0
  Ni  Ni509  1  0.44192133  0.73610533  0.19710236  1.0
  Ni  Ni510  1  0.77525467  0.06943867  0.19710236  1.0
  Ni  Ni511  1  0.77525467  0.40277200  0.19710236  1.0
  Ni  Ni512  1  0.77525467  0.73610533  0.19710236  1.0
  Ni  Ni513  1  0.21868733  0.18044800  0.15024064  1.0
  Ni  Ni514  1  0.21868733  0.51378133  0.15024064  1.0
  Ni  Ni515  1  0.21868733  0.84711467  0.15024064  1.0
  Ni  Ni516  1  0.55202067  0.18044800  0.15024064  1.0
  Ni  Ni517  1  0.55202067  0.51378133  0.15024064  1.0
  Ni  Ni518  1  0.55202067  0.84711467  0.15024064  1.0
  Ni  Ni519  1  0.88535400  0.18044800  0.15024064  1.0
  Ni  Ni520  1  0.88535400  0.51378133  0.15024064  1.0
  Ni  Ni521  1  0.88535400  0.84711467  0.15024064  1.0
  Ni  Ni522  1  0.32999167  0.29162400  0.24534764  1.0
  Ni  Ni523  1  0.32999167  0.62495733  0.24534764  1.0
  Ni  Ni524  1  0.32999167  0.95829067  0.24534764  1.0
  Ni  Ni525  1  0.66332500  0.29162400  0.24534764  1.0
  Ni  Ni526  1  0.66332500  0.62495733  0.24534764  1.0
  Ni  Ni527  1  0.66332500  0.95829067  0.24534764  1.0
  Ni  Ni528  1  0.99665833  0.29162400  0.24534764  1.0
  Ni  Ni529  1  0.99665833  0.62495733  0.24534764  1.0
  Ni  Ni530  1  0.99665833  0.95829067  0.24534764  1.0
  Ni  Ni531  1  0.21955733  0.09731333  0.22037493  1.0
  Ni  Ni532  1  0.21955733  0.43064667  0.22037493  1.0
  Ni  Ni533  1  0.21955733  0.76398000  0.22037493  1.0
  Ni  Ni534  1  0.55289067  0.09731333  0.22037493  1.0
  Ni  Ni535  1  0.55289067  0.43064667  0.22037493  1.0
  Ni  Ni536  1  0.55289067  0.76398000  0.22037493  1.0
  Ni  Ni537  1  0.88622400  0.09731333  0.22037493  1.0
  Ni  Ni538  1  0.88622400  0.43064667  0.22037493  1.0
  Ni  Ni539  1  0.88622400  0.76398000  0.22037493  1.0
  Ni  Ni540  1  0.32769767  0.20841433  0.17394864  1.0
  Ni  Ni541  1  0.32769767  0.54174767  0.17394864  1.0
  Ni  Ni542  1  0.32769767  0.87508100  0.17394864  1.0
  Ni  Ni543  1  0.66103100  0.20841433  0.17394864  1.0
  Ni  Ni544  1  0.66103100  0.54174767  0.17394864  1.0
  Ni  Ni545  1  0.66103100  0.87508100  0.17394864  1.0
  Ni  Ni546  1  0.99436433  0.20841433  0.17394864  1.0
  Ni  Ni547  1  0.99436433  0.54174767  0.17394864  1.0
  Ni  Ni548  1  0.99436433  0.87508100  0.17394864  1.0
  Ni  Ni549  1  0.10491833  0.31971167  0.26936207  1.0
  Ni  Ni550  1  0.10491833  0.65304500  0.26936207  1.0
  Ni  Ni551  1  0.10491833  0.98637833  0.26936207  1.0
  Ni  Ni552  1  0.43825167  0.31971167  0.26936207  1.0
  Ni  Ni553  1  0.43825167  0.65304500  0.26936207  1.0
  Ni  Ni554  1  0.43825167  0.98637833  0.26936207  1.0
  Ni  Ni555  1  0.77158500  0.31971167  0.26936207  1.0
  Ni  Ni556  1  0.77158500  0.65304500  0.26936207  1.0
  Ni  Ni557  1  0.77158500  0.98637833  0.26936207  1.0
  Ni  Ni558  1  0.00261833  0.04219900  0.17132307  1.0
  Ni  Ni559  1  0.00261833  0.37553233  0.17132307  1.0
  Ni  Ni560  1  0.00261833  0.70886567  0.17132307  1.0
  Ni  Ni561  1  0.33595167  0.04219900  0.17132307  1.0
  Ni  Ni562  1  0.33595167  0.37553233  0.17132307  1.0
  Ni  Ni563  1  0.33595167  0.70886567  0.17132307  1.0
  Ni  Ni564  1  0.66928500  0.04219900  0.17132307  1.0
  Ni  Ni565  1  0.66928500  0.37553233  0.17132307  1.0
  Ni  Ni566  1  0.66928500  0.70886567  0.17132307  1.0
  Ni  Ni567  1  0.11612333  0.15207567  0.26573036  1.0
  Ni  Ni568  1  0.11612333  0.48540900  0.26573036  1.0
  Ni  Ni569  1  0.11612333  0.81874233  0.26573036  1.0
  Ni  Ni570  1  0.44945667  0.15207567  0.26573036  1.0
  Ni  Ni571  1  0.44945667  0.48540900  0.26573036  1.0
  Ni  Ni572  1  0.44945667  0.81874233  0.26573036  1.0
  Ni  Ni573  1  0.78279000  0.15207567  0.26573036  1.0
  Ni  Ni574  1  0.78279000  0.48540900  0.26573036  1.0
  Ni  Ni575  1  0.78279000  0.81874233  0.26573036  1.0
  Ni  Ni576  1  0.22728533  0.26381267  0.21824921  1.0
  Ni  Ni577  1  0.22728533  0.59714600  0.21824921  1.0
  Ni  Ni578  1  0.22728533  0.93047933  0.21824921  1.0
  Ni  Ni579  1  0.56061867  0.26381267  0.21824921  1.0
  Ni  Ni580  1  0.56061867  0.59714600  0.21824921  1.0
  Ni  Ni581  1  0.56061867  0.93047933  0.21824921  1.0
  Ni  Ni582  1  0.89395200  0.26381267  0.21824921  1.0
  Ni  Ni583  1  0.89395200  0.59714600  0.21824921  1.0
  Ni  Ni584  1  0.89395200  0.93047933  0.21824921  1.0
  Ni  Ni585  1  0.22505700  0.01386367  0.14652950  1.0
  Ni  Ni586  1  0.22505700  0.34719700  0.14652950  1.0
  Ni  Ni587  1  0.22505700  0.68053033  0.14652950  1.0
  Ni  Ni588  1  0.55839033  0.01386367  0.14652950  1.0
  Ni  Ni589  1  0.55839033  0.34719700  0.14652950  1.0
  Ni  Ni590  1  0.55839033  0.68053033  0.14652950  1.0
  Ni  Ni591  1  0.89172367  0.01386367  0.14652950  1.0
  Ni  Ni592  1  0.89172367  0.34719700  0.14652950  1.0
  Ni  Ni593  1  0.89172367  0.68053033  0.14652950  1.0
  Ni  Ni594  1  0.00303433  0.12504767  0.24153121  1.0
  Ni  Ni595  1  0.00303433  0.45838100  0.24153121  1.0
  Ni  Ni596  1  0.00303433  0.79171433  0.24153121  1.0
  Ni  Ni597  1  0.33636767  0.12504767  0.24153121  1.0
  Ni  Ni598  1  0.33636767  0.45838100  0.24153121  1.0
  Ni  Ni599  1  0.33636767  0.79171433  0.24153121  1.0
  Ni  Ni600  1  0.66970100  0.12504767  0.24153121  1.0
  Ni  Ni601  1  0.66970100  0.45838100  0.24153121  1.0
  Ni  Ni602  1  0.66970100  0.79171433  0.24153121  1.0
  Ni  Ni603  1  0.11436667  0.23608033  0.19388936  1.0
  Ni  Ni604  1  0.11436667  0.56941367  0.19388936  1.0
  Ni  Ni605  1  0.11436667  0.90274700  0.19388936  1.0
  Ni  Ni606  1  0.44770000  0.23608033  0.19388936  1.0
  Ni  Ni607  1  0.44770000  0.56941367  0.19388936  1.0
  Ni  Ni608  1  0.44770000  0.90274700  0.19388936  1.0
  Ni  Ni609  1  0.78103333  0.23608033  0.19388936  1.0
  Ni  Ni610  1  0.78103333  0.56941367  0.19388936  1.0
  Ni  Ni611  1  0.78103333  0.90274700  0.19388936  1.0
  Ni  Ni612  1  0.00261833  0.04219900  0.24153593  1.0
  Ni  Ni613  1  0.00261833  0.37553233  0.24153593  1.0
  Ni  Ni614  1  0.00261833  0.70886567  0.24153593  1.0
  Ni  Ni615  1  0.33595167  0.04219900  0.24153593  1.0
  Ni  Ni616  1  0.33595167  0.37553233  0.24153593  1.0
  Ni  Ni617  1  0.33595167  0.70886567  0.24153593  1.0
  Ni  Ni618  1  0.66928500  0.04219900  0.24153593  1.0
  Ni  Ni619  1  0.66928500  0.37553233  0.24153593  1.0
  Ni  Ni620  1  0.66928500  0.70886567  0.24153593  1.0
  Ni  Ni621  1  0.11612333  0.15207567  0.19269579  1.0
  Ni  Ni622  1  0.11612333  0.48540900  0.19269579  1.0
  Ni  Ni623  1  0.11612333  0.81874233  0.19269579  1.0
  Ni  Ni624  1  0.44945667  0.15207567  0.19269579  1.0
  Ni  Ni625  1  0.44945667  0.48540900  0.19269579  1.0
  Ni  Ni626  1  0.44945667  0.81874233  0.19269579  1.0
  Ni  Ni627  1  0.78279000  0.15207567  0.19269579  1.0
  Ni  Ni628  1  0.78279000  0.48540900  0.19269579  1.0
  Ni  Ni629  1  0.78279000  0.81874233  0.19269579  1.0
  Ni  Ni630  1  0.22728533  0.26381267  0.14489521  1.0
  Ni  Ni631  1  0.22728533  0.59714600  0.14489521  1.0
  Ni  Ni632  1  0.22728533  0.93047933  0.14489521  1.0
  Ni  Ni633  1  0.56061867  0.26381267  0.14489521  1.0
  Ni  Ni634  1  0.56061867  0.59714600  0.14489521  1.0
  Ni  Ni635  1  0.56061867  0.93047933  0.14489521  1.0
  Ni  Ni636  1  0.89395200  0.26381267  0.14489521  1.0
  Ni  Ni637  1  0.89395200  0.59714600  0.14489521  1.0
  Ni  Ni638  1  0.89395200  0.93047933  0.14489521  1.0
  Ni  Ni639  1  0.22505700  0.01386367  0.21852493  1.0
  Ni  Ni640  1  0.22505700  0.34719700  0.21852493  1.0
  Ni  Ni641  1  0.22505700  0.68053033  0.21852493  1.0
  Ni  Ni642  1  0.55839033  0.01386367  0.21852493  1.0
  Ni  Ni643  1  0.55839033  0.34719700  0.21852493  1.0
  Ni  Ni644  1  0.55839033  0.68053033  0.21852493  1.0
  Ni  Ni645  1  0.89172367  0.01386367  0.21852493  1.0
  Ni  Ni646  1  0.89172367  0.34719700  0.21852493  1.0
  Ni  Ni647  1  0.89172367  0.68053033  0.21852493  1.0
  Ni  Ni648  1  0.00303433  0.12504767  0.17097121  1.0
  Ni  Ni649  1  0.00303433  0.45838100  0.17097121  1.0
  Ni  Ni650  1  0.00303433  0.79171433  0.17097121  1.0
  Ni  Ni651  1  0.33636767  0.12504767  0.17097121  1.0
  Ni  Ni652  1  0.33636767  0.45838100  0.17097121  1.0
  Ni  Ni653  1  0.33636767  0.79171433  0.17097121  1.0
  Ni  Ni654  1  0.66970100  0.12504767  0.17097121  1.0
  Ni  Ni655  1  0.66970100  0.45838100  0.17097121  1.0
  Ni  Ni656  1  0.66970100  0.79171433  0.17097121  1.0
  Ni  Ni657  1  0.11436667  0.23608033  0.26604250  1.0
  Ni  Ni658  1  0.11436667  0.56941367  0.26604250  1.0
  Ni  Ni659  1  0.11436667  0.90274700  0.26604250  1.0
  Ni  Ni660  1  0.44770000  0.23608033  0.26604250  1.0
  Ni  Ni661  1  0.44770000  0.56941367  0.26604250  1.0
  Ni  Ni662  1  0.44770000  0.90274700  0.26604250  1.0
  Ni  Ni663  1  0.78103333  0.23608033  0.26604250  1.0
  Ni  Ni664  1  0.78103333  0.56941367  0.26604250  1.0
  Ni  Ni665  1  0.78103333  0.90274700  0.26604250  1.0
  Ni  Ni666  1  0.10858800  0.06943867  0.26778264  1.0
  Ni  Ni667  1  0.10858800  0.40277200  0.26778264  1.0
  Ni  Ni668  1  0.10858800  0.73610533  0.26778264  1.0
  Ni  Ni669  1  0.44192133  0.06943867  0.26778264  1.0
  Ni  Ni670  1  0.44192133  0.40277200  0.26778264  1.0
  Ni  Ni671  1  0.44192133  0.73610533  0.26778264  1.0
  Ni  Ni672  1  0.77525467  0.06943867  0.26778264  1.0
  Ni  Ni673  1  0.77525467  0.40277200  0.26778264  1.0
  Ni  Ni674  1  0.77525467  0.73610533  0.26778264  1.0
  Ni  Ni675  1  0.21868733  0.18044800  0.22027350  1.0
  Ni  Ni676  1  0.21868733  0.51378133  0.22027350  1.0
  Ni  Ni677  1  0.21868733  0.84711467  0.22027350  1.0
  Ni  Ni678  1  0.55202067  0.18044800  0.22027350  1.0
  Ni  Ni679  1  0.55202067  0.51378133  0.22027350  1.0
  Ni  Ni680  1  0.55202067  0.84711467  0.22027350  1.0
  Ni  Ni681  1  0.88535400  0.18044800  0.22027350  1.0
  Ni  Ni682  1  0.88535400  0.51378133  0.22027350  1.0
  Ni  Ni683  1  0.88535400  0.84711467  0.22027350  1.0
  Ni  Ni684  1  0.32999167  0.29162400  0.17261993  1.0
  Ni  Ni685  1  0.32999167  0.62495733  0.17261993  1.0
  Ni  Ni686  1  0.32999167  0.95829067  0.17261993  1.0
  Ni  Ni687  1  0.66332500  0.29162400  0.17261993  1.0
  Ni  Ni688  1  0.66332500  0.62495733  0.17261993  1.0
  Ni  Ni689  1  0.66332500  0.95829067  0.17261993  1.0
  Ni  Ni690  1  0.99665833  0.29162400  0.17261993  1.0
  Ni  Ni691  1  0.99665833  0.62495733  0.17261993  1.0
  Ni  Ni692  1  0.99665833  0.95829067  0.17261993  1.0
  Ni  Ni693  1  0.21955733  0.09731333  0.14939350  1.0
  Ni  Ni694  1  0.21955733  0.43064667  0.14939350  1.0
  Ni  Ni695  1  0.21955733  0.76398000  0.14939350  1.0
  Ni  Ni696  1  0.55289067  0.09731333  0.14939350  1.0
  Ni  Ni697  1  0.55289067  0.43064667  0.14939350  1.0
  Ni  Ni698  1  0.55289067  0.76398000  0.14939350  1.0
  Ni  Ni699  1  0.88622400  0.09731333  0.14939350  1.0
  Ni  Ni700  1  0.88622400  0.43064667  0.14939350  1.0
  Ni  Ni701  1  0.88622400  0.76398000  0.14939350  1.0
  Ni  Ni702  1  0.32769767  0.20841433  0.24598521  1.0
  Ni  Ni703  1  0.32769767  0.54174767  0.24598521  1.0
  Ni  Ni704  1  0.32769767  0.87508100  0.24598521  1.0
  Ni  Ni705  1  0.66103100  0.20841433  0.24598521  1.0
  Ni  Ni706  1  0.66103100  0.54174767  0.24598521  1.0
  Ni  Ni707  1  0.66103100  0.87508100  0.24598521  1.0
  Ni  Ni708  1  0.99436433  0.20841433  0.24598521  1.0
  Ni  Ni709  1  0.99436433  0.54174767  0.24598521  1.0
  Ni  Ni710  1  0.99436433  0.87508100  0.24598521  1.0
  Ni  Ni711  1  0.10491833  0.31971167  0.19866836  1.0
  Ni  Ni712  1  0.10491833  0.65304500  0.19866836  1.0
  Ni  Ni713  1  0.10491833  0.98637833  0.19866836  1.0
  Ni  Ni714  1  0.43825167  0.31971167  0.19866836  1.0
  Ni  Ni715  1  0.43825167  0.65304500  0.19866836  1.0
  Ni  Ni716  1  0.43825167  0.98637833  0.19866836  1.0
  Ni  Ni717  1  0.77158500  0.31971167  0.19866836  1.0
  Ni  Ni718  1  0.77158500  0.65304500  0.19866836  1.0
  Ni  Ni719  1  0.77158500  0.98637833  0.19866836  1.0
  Ni  Ni720  1  0.21952433  0.20767667  0.18489836  1.0
  Ni  Ni721  1  0.21952433  0.54101000  0.18489836  1.0
  Ni  Ni722  1  0.21952433  0.87434333  0.18489836  1.0
  Ni  Ni723  1  0.55285767  0.20767667  0.18489836  1.0
  Ni  Ni724  1  0.55285767  0.54101000  0.18489836  1.0
  Ni  Ni725  1  0.55285767  0.87434333  0.18489836  1.0
  Ni  Ni726  1  0.88619100  0.20767667  0.18489836  1.0
  Ni  Ni727  1  0.88619100  0.54101000  0.18489836  1.0
  Ni  Ni728  1  0.88619100  0.87434333  0.18489836  1.0
  Ni  Ni729  1  0.33010867  0.31900200  0.28036221  1.0
  Ni  Ni730  1  0.33010867  0.65233533  0.28036221  1.0
  Ni  Ni731  1  0.33010867  0.98566867  0.28036221  1.0
  Ni  Ni732  1  0.66344200  0.31900200  0.28036221  1.0
  Ni  Ni733  1  0.66344200  0.65233533  0.28036221  1.0
  Ni  Ni734  1  0.66344200  0.98566867  0.28036221  1.0
  Ni  Ni735  1  0.99677533  0.31900200  0.28036221  1.0
  Ni  Ni736  1  0.99677533  0.65233533  0.28036221  1.0
  Ni  Ni737  1  0.99677533  0.98566867  0.28036221  1.0
  Ni  Ni738  1  0.11376500  0.04125267  0.15879521  1.0
  Ni  Ni739  1  0.11376500  0.37458600  0.15879521  1.0
  Ni  Ni740  1  0.11376500  0.70791933  0.15879521  1.0
  Ni  Ni741  1  0.44709833  0.04125267  0.15879521  1.0
  Ni  Ni742  1  0.44709833  0.37458600  0.15879521  1.0
  Ni  Ni743  1  0.44709833  0.70791933  0.15879521  1.0
  Ni  Ni744  1  0.78043167  0.04125267  0.15879521  1.0
  Ni  Ni745  1  0.78043167  0.37458600  0.15879521  1.0
  Ni  Ni746  1  0.78043167  0.70791933  0.15879521  1.0
  Ni  Ni747  1  0.22283967  0.15313067  0.25490607  1.0
  Ni  Ni748  1  0.22283967  0.48646400  0.25490607  1.0
  Ni  Ni749  1  0.22283967  0.81979733  0.25490607  1.0
  Ni  Ni750  1  0.55617300  0.15313067  0.25490607  1.0
  Ni  Ni751  1  0.55617300  0.48646400  0.25490607  1.0
  Ni  Ni752  1  0.55617300  0.81979733  0.25490607  1.0
  Ni  Ni753  1  0.88950633  0.15313067  0.25490607  1.0
  Ni  Ni754  1  0.88950633  0.48646400  0.25490607  1.0
  Ni  Ni755  1  0.88950633  0.81979733  0.25490607  1.0
  Ni  Ni756  1  0.00257133  0.26378300  0.20644964  1.0
  Ni  Ni757  1  0.00257133  0.59711633  0.20644964  1.0
  Ni  Ni758  1  0.00257133  0.93044967  0.20644964  1.0
  Ni  Ni759  1  0.33590467  0.26378300  0.20644964  1.0
  Ni  Ni760  1  0.33590467  0.59711633  0.20644964  1.0
  Ni  Ni761  1  0.33590467  0.93044967  0.20644964  1.0
  Ni  Ni762  1  0.66923800  0.26378300  0.20644964  1.0
  Ni  Ni763  1  0.66923800  0.59711633  0.20644964  1.0
  Ni  Ni764  1  0.66923800  0.93044967  0.20644964  1.0
  Ni  Ni765  1  0.00038733  0.01427967  0.20738564  1.0
  Ni  Ni766  1  0.00038733  0.34761300  0.20738564  1.0
  Ni  Ni767  1  0.00038733  0.68094633  0.20738564  1.0
  Ni  Ni768  1  0.33372067  0.01427967  0.20738564  1.0
  Ni  Ni769  1  0.33372067  0.34761300  0.20738564  1.0
  Ni  Ni770  1  0.33372067  0.68094633  0.20738564  1.0
  Ni  Ni771  1  0.66705400  0.01427967  0.20738564  1.0
  Ni  Ni772  1  0.66705400  0.34761300  0.20738564  1.0
  Ni  Ni773  1  0.66705400  0.68094633  0.20738564  1.0
  Ni  Ni774  1  0.11269067  0.12475533  0.15925564  1.0
  Ni  Ni775  1  0.11269067  0.45808867  0.15925564  1.0
  Ni  Ni776  1  0.11269067  0.79142200  0.15925564  1.0
  Ni  Ni777  1  0.44602400  0.12475533  0.15925564  1.0
  Ni  Ni778  1  0.44602400  0.45808867  0.15925564  1.0
  Ni  Ni779  1  0.44602400  0.79142200  0.15925564  1.0
  Ni  Ni780  1  0.77935733  0.12475533  0.15925564  1.0
  Ni  Ni781  1  0.77935733  0.45808867  0.15925564  1.0
  Ni  Ni782  1  0.77935733  0.79142200  0.15925564  1.0
  Ni  Ni783  1  0.22311233  0.23624567  0.25478921  1.0
  Ni  Ni784  1  0.22311233  0.56957900  0.25478921  1.0
  Ni  Ni785  1  0.22311233  0.90291233  0.25478921  1.0
  Ni  Ni786  1  0.55644567  0.23624567  0.25478921  1.0
  Ni  Ni787  1  0.55644567  0.56957900  0.25478921  1.0
  Ni  Ni788  1  0.55644567  0.90291233  0.25478921  1.0
  Ni  Ni789  1  0.88977900  0.23624567  0.25478921  1.0
  Ni  Ni790  1  0.88977900  0.56957900  0.25478921  1.0
  Ni  Ni791  1  0.88977900  0.90291233  0.25478921  1.0
  Sn  Sn792  1  0.33108167  0.01638033  0.27994521  1.0
  Sn  Sn793  1  0.33108167  0.34971367  0.27994521  1.0
  Sn  Sn794  1  0.33108167  0.68304700  0.27994521  1.0
  Sn  Sn795  1  0.66441500  0.01638033  0.27994521  1.0
  Sn  Sn796  1  0.66441500  0.34971367  0.27994521  1.0
  Sn  Sn797  1  0.66441500  0.68304700  0.27994521  1.0
  Sn  Sn798  1  0.99774833  0.01638033  0.27994521  1.0
  Sn  Sn799  1  0.99774833  0.34971367  0.27994521  1.0
  Sn  Sn800  1  0.99774833  0.68304700  0.27994521  1.0
  Sn  Sn801  1  0.11077033  0.12512633  0.23150721  1.0
  Sn  Sn802  1  0.11077033  0.45845967  0.23150721  1.0
  Sn  Sn803  1  0.11077033  0.79179300  0.23150721  1.0
  Sn  Sn804  1  0.44410367  0.12512633  0.23150721  1.0
  Sn  Sn805  1  0.44410367  0.45845967  0.23150721  1.0
  Sn  Sn806  1  0.44410367  0.79179300  0.23150721  1.0
  Sn  Sn807  1  0.77743700  0.12512633  0.23150721  1.0
  Sn  Sn808  1  0.77743700  0.45845967  0.23150721  1.0
  Sn  Sn809  1  0.77743700  0.79179300  0.23150721  1.0
  Sn  Sn810  1  0.22093867  0.23819900  0.18429221  1.0
  Sn  Sn811  1  0.22093867  0.57153233  0.18429221  1.0
  Sn  Sn812  1  0.22093867  0.90486567  0.18429221  1.0
  Sn  Sn813  1  0.55427200  0.23819900  0.18429221  1.0
  Sn  Sn814  1  0.55427200  0.57153233  0.18429221  1.0
  Sn  Sn815  1  0.55427200  0.90486567  0.18429221  1.0
  Sn  Sn816  1  0.88760533  0.23819900  0.18429221  1.0
  Sn  Sn817  1  0.88760533  0.57153233  0.18429221  1.0
  Sn  Sn818  1  0.88760533  0.90486567  0.18429221  1.0
  Sn  Sn819  1  0.11231300  0.04132700  0.23084607  1.0
  Sn  Sn820  1  0.11231300  0.37466033  0.23084607  1.0
  Sn  Sn821  1  0.11231300  0.70799367  0.23084607  1.0
  Sn  Sn822  1  0.44564633  0.04132700  0.23084607  1.0
  Sn  Sn823  1  0.44564633  0.37466033  0.23084607  1.0
  Sn  Sn824  1  0.44564633  0.70799367  0.23084607  1.0
  Sn  Sn825  1  0.77897967  0.04132700  0.23084607  1.0
  Sn  Sn826  1  0.77897967  0.37466033  0.23084607  1.0
  Sn  Sn827  1  0.77897967  0.70799367  0.23084607  1.0
  Sn  Sn828  1  0.22439933  0.15208200  0.18280907  1.0
  Sn  Sn829  1  0.22439933  0.48541533  0.18280907  1.0
  Sn  Sn830  1  0.22439933  0.81874867  0.18280907  1.0
  Sn  Sn831  1  0.55773267  0.15208200  0.18280907  1.0
  Sn  Sn832  1  0.55773267  0.48541533  0.18280907  1.0
  Sn  Sn833  1  0.55773267  0.81874867  0.18280907  1.0
  Sn  Sn834  1  0.89106600  0.15208200  0.18280907  1.0
  Sn  Sn835  1  0.89106600  0.48541533  0.18280907  1.0
  Sn  Sn836  1  0.89106600  0.81874867  0.18280907  1.0
  Sn  Sn837  1  0.00289033  0.26328633  0.27774150  1.0
  Sn  Sn838  1  0.00289033  0.59661967  0.27774150  1.0
  Sn  Sn839  1  0.00289033  0.92995300  0.27774150  1.0
  Sn  Sn840  1  0.33622367  0.26328633  0.27774150  1.0
  Sn  Sn841  1  0.33622367  0.59661967  0.27774150  1.0
  Sn  Sn842  1  0.33622367  0.92995300  0.27774150  1.0
  Sn  Sn843  1  0.66955700  0.26328633  0.27774150  1.0
  Sn  Sn844  1  0.66955700  0.59661967  0.27774150  1.0
  Sn  Sn845  1  0.66955700  0.92995300  0.27774150  1.0
  Sn  Sn846  1  0.10963000  0.09547733  0.16056736  1.0
  Sn  Sn847  1  0.10963000  0.42881067  0.16056736  1.0
  Sn  Sn848  1  0.10963000  0.76214400  0.16056736  1.0
  Sn  Sn849  1  0.44296333  0.09547733  0.16056736  1.0
  Sn  Sn850  1  0.44296333  0.42881067  0.16056736  1.0
  Sn  Sn851  1  0.44296333  0.76214400  0.16056736  1.0
  Sn  Sn852  1  0.77629667  0.09547733  0.16056736  1.0
  Sn  Sn853  1  0.77629667  0.42881067  0.16056736  1.0
  Sn  Sn854  1  0.77629667  0.76214400  0.16056736  1.0
  Sn  Sn855  1  0.21977667  0.20651500  0.25621879  1.0
  Sn  Sn856  1  0.21977667  0.53984833  0.25621879  1.0
  Sn  Sn857  1  0.21977667  0.87318167  0.25621879  1.0
  Sn  Sn858  1  0.55311000  0.20651500  0.25621879  1.0
  Sn  Sn859  1  0.55311000  0.53984833  0.25621879  1.0
  Sn  Sn860  1  0.55311000  0.87318167  0.25621879  1.0
  Sn  Sn861  1  0.88644333  0.20651500  0.25621879  1.0
  Sn  Sn862  1  0.88644333  0.53984833  0.25621879  1.0
  Sn  Sn863  1  0.88644333  0.87318167  0.25621879  1.0
  Sn  Sn864  1  0.33047267  0.31784700  0.20877764  1.0
  Sn  Sn865  1  0.33047267  0.65118033  0.20877764  1.0
  Sn  Sn866  1  0.33047267  0.98451367  0.20877764  1.0
  Sn  Sn867  1  0.66380600  0.31784700  0.20877764  1.0
  Sn  Sn868  1  0.66380600  0.65118033  0.20877764  1.0
  Sn  Sn869  1  0.66380600  0.98451367  0.20877764  1.0
  Sn  Sn870  1  0.99713933  0.31784700  0.20877764  1.0
  Sn  Sn871  1  0.99713933  0.65118033  0.20877764  1.0
  Sn  Sn872  1  0.99713933  0.98451367  0.20877764  1.0
  Sn  Sn873  1  0.32631267  0.07119533  0.21056050  1.0
  Sn  Sn874  1  0.32631267  0.40452867  0.21056050  1.0
  Sn  Sn875  1  0.32631267  0.73786200  0.21056050  1.0
  Sn  Sn876  1  0.65964600  0.07119533  0.21056050  1.0
  Sn  Sn877  1  0.65964600  0.40452867  0.21056050  1.0
  Sn  Sn878  1  0.65964600  0.73786200  0.21056050  1.0
  Sn  Sn879  1  0.99297933  0.07119533  0.21056050  1.0
  Sn  Sn880  1  0.99297933  0.40452867  0.21056050  1.0
  Sn  Sn881  1  0.99297933  0.73786200  0.21056050  1.0
  Sn  Sn882  1  0.10183833  0.18223167  0.16390664  1.0
  Sn  Sn883  1  0.10183833  0.51556500  0.16390664  1.0
  Sn  Sn884  1  0.10183833  0.84889833  0.16390664  1.0
  Sn  Sn885  1  0.43517167  0.18223167  0.16390664  1.0
  Sn  Sn886  1  0.43517167  0.51556500  0.16390664  1.0
  Sn  Sn887  1  0.43517167  0.84889833  0.16390664  1.0
  Sn  Sn888  1  0.76850500  0.18223167  0.16390664  1.0
  Sn  Sn889  1  0.76850500  0.51556500  0.16390664  1.0
  Sn  Sn890  1  0.76850500  0.84889833  0.16390664  1.0
  Sn  Sn891  1  0.21363367  0.29347033  0.25885150  1.0
  Sn  Sn892  1  0.21363367  0.62680367  0.25885150  1.0
  Sn  Sn893  1  0.21363367  0.96013700  0.25885150  1.0
  Sn  Sn894  1  0.54696700  0.29347033  0.25885150  1.0
  Sn  Sn895  1  0.54696700  0.62680367  0.25885150  1.0
  Sn  Sn896  1  0.54696700  0.96013700  0.25885150  1.0
  Sn  Sn897  1  0.88030033  0.29347033  0.25885150  1.0
  Sn  Sn898  1  0.88030033  0.62680367  0.25885150  1.0
  Sn  Sn899  1  0.88030033  0.96013700  0.25885150  1.0
  Sn  Sn900  1  0.22252700  0.06958133  0.18361150  1.0
  Sn  Sn901  1  0.22252700  0.40291467  0.18361150  1.0
  Sn  Sn902  1  0.22252700  0.73624800  0.18361150  1.0
  Sn  Sn903  1  0.55586033  0.06958133  0.18361150  1.0
  Sn  Sn904  1  0.55586033  0.40291467  0.18361150  1.0
  Sn  Sn905  1  0.55586033  0.73624800  0.18361150  1.0
  Sn  Sn906  1  0.88919367  0.06958133  0.18361150  1.0
  Sn  Sn907  1  0.88919367  0.40291467  0.18361150  1.0
  Sn  Sn908  1  0.88919367  0.73624800  0.18361150  1.0
  Sn  Sn909  1  0.00888267  0.17837600  0.27517336  1.0
  Sn  Sn910  1  0.00888267  0.51170933  0.27517336  1.0
  Sn  Sn911  1  0.00888267  0.84504267  0.27517336  1.0
  Sn  Sn912  1  0.34221600  0.17837600  0.27517336  1.0
  Sn  Sn913  1  0.34221600  0.51170933  0.27517336  1.0
  Sn  Sn914  1  0.34221600  0.84504267  0.27517336  1.0
  Sn  Sn915  1  0.67554933  0.17837600  0.27517336  1.0
  Sn  Sn916  1  0.67554933  0.51170933  0.27517336  1.0
  Sn  Sn917  1  0.67554933  0.84504267  0.27517336  1.0
  Sn  Sn918  1  0.11951500  0.28984500  0.22775950  1.0
  Sn  Sn919  1  0.11951500  0.62317833  0.22775950  1.0
  Sn  Sn920  1  0.11951500  0.95651167  0.22775950  1.0
  Sn  Sn921  1  0.45284833  0.28984500  0.22775950  1.0
  Sn  Sn922  1  0.45284833  0.62317833  0.22775950  1.0
  Sn  Sn923  1  0.45284833  0.95651167  0.22775950  1.0
  Sn  Sn924  1  0.78618167  0.28984500  0.22775950  1.0
  Sn  Sn925  1  0.78618167  0.62317833  0.22775950  1.0
  Sn  Sn926  1  0.78618167  0.95651167  0.22775950  1.0
  Sn  Sn927  1  0.33287200  0.09751133  0.27917793  1.0
  Sn  Sn928  1  0.33287200  0.43084467  0.27917793  1.0
  Sn  Sn929  1  0.33287200  0.76417800  0.27917793  1.0
  Sn  Sn930  1  0.66620533  0.09751133  0.27917793  1.0
  Sn  Sn931  1  0.66620533  0.43084467  0.27917793  1.0
  Sn  Sn932  1  0.66620533  0.76417800  0.27917793  1.0
  Sn  Sn933  1  0.99953867  0.09751133  0.27917793  1.0
  Sn  Sn934  1  0.99953867  0.43084467  0.27917793  1.0
  Sn  Sn935  1  0.99953867  0.76417800  0.27917793  1.0
  Sn  Sn936  1  0.10025767  0.20860933  0.23601264  1.0
  Sn  Sn937  1  0.10025767  0.54194267  0.23601264  1.0
  Sn  Sn938  1  0.10025767  0.87527600  0.23601264  1.0
  Sn  Sn939  1  0.43359100  0.20860933  0.23601264  1.0
  Sn  Sn940  1  0.43359100  0.54194267  0.23601264  1.0
  Sn  Sn941  1  0.43359100  0.87527600  0.23601264  1.0
  Sn  Sn942  1  0.76692433  0.20860933  0.23601264  1.0
  Sn  Sn943  1  0.76692433  0.54194267  0.23601264  1.0
  Sn  Sn944  1  0.76692433  0.87527600  0.23601264  1.0
  Sn  Sn945  1  0.21127367  0.31964667  0.18843436  1.0
  Sn  Sn946  1  0.21127367  0.65298000  0.18843436  1.0
  Sn  Sn947  1  0.21127367  0.98631333  0.18843436  1.0
  Sn  Sn948  1  0.54460700  0.31964667  0.18843436  1.0
  Sn  Sn949  1  0.54460700  0.65298000  0.18843436  1.0
  Sn  Sn950  1  0.54460700  0.98631333  0.18843436  1.0
  Sn  Sn951  1  0.87794033  0.31964667  0.18843436  1.0
  Sn  Sn952  1  0.87794033  0.65298000  0.18843436  1.0
  Sn  Sn953  1  0.87794033  0.98631333  0.18843436  1.0
  Sn  Sn954  1  0.22259067  0.04551933  0.25501279  1.0
  Sn  Sn955  1  0.22259067  0.37885267  0.25501279  1.0
  Sn  Sn956  1  0.22259067  0.71218600  0.25501279  1.0
  Sn  Sn957  1  0.55592400  0.04551933  0.25501279  1.0
  Sn  Sn958  1  0.55592400  0.37885267  0.25501279  1.0
  Sn  Sn959  1  0.55592400  0.71218600  0.25501279  1.0
  Sn  Sn960  1  0.88925733  0.04551933  0.25501279  1.0
  Sn  Sn961  1  0.88925733  0.37885267  0.25501279  1.0
  Sn  Sn962  1  0.88925733  0.71218600  0.25501279  1.0
  Sn  Sn963  1  0.00129767  0.15611600  0.20699550  1.0
  Sn  Sn964  1  0.00129767  0.48944933  0.20699550  1.0
  Sn  Sn965  1  0.00129767  0.82278267  0.20699550  1.0
  Sn  Sn966  1  0.33463100  0.15611600  0.20699550  1.0
  Sn  Sn967  1  0.33463100  0.48944933  0.20699550  1.0
  Sn  Sn968  1  0.33463100  0.82278267  0.20699550  1.0
  Sn  Sn969  1  0.66796433  0.15611600  0.20699550  1.0
  Sn  Sn970  1  0.66796433  0.48944933  0.20699550  1.0
  Sn  Sn971  1  0.66796433  0.82278267  0.20699550  1.0
  Sn  Sn972  1  0.11219733  0.26767333  0.15946707  1.0
  Sn  Sn973  1  0.11219733  0.60100667  0.15946707  1.0
  Sn  Sn974  1  0.11219733  0.93434000  0.15946707  1.0
  Sn  Sn975  1  0.44553067  0.26767333  0.15946707  1.0
  Sn  Sn976  1  0.44553067  0.60100667  0.15946707  1.0
  Sn  Sn977  1  0.44553067  0.93434000  0.15946707  1.0
  Sn  Sn978  1  0.77886400  0.26767333  0.15946707  1.0
  Sn  Sn979  1  0.77886400  0.60100667  0.15946707  1.0
  Sn  Sn980  1  0.77886400  0.93434000  0.15946707  1.0
  Sn  Sn981  1  0.12517300  0.01031033  0.15390607  1.0
  Sn  Sn982  1  0.12517300  0.34364367  0.15390607  1.0
  Sn  Sn983  1  0.12517300  0.67697700  0.15390607  1.0
  Sn  Sn984  1  0.45850633  0.01031033  0.15390607  1.0
  Sn  Sn985  1  0.45850633  0.34364367  0.15390607  1.0
  Sn  Sn986  1  0.45850633  0.67697700  0.15390607  1.0
  Sn  Sn987  1  0.79183967  0.01031033  0.15390607  1.0
  Sn  Sn988  1  0.79183967  0.34364367  0.15390607  1.0
  Sn  Sn989  1  0.79183967  0.67697700  0.15390607  1.0
  Sn  Sn990  1  0.23751400  0.12155833  0.24861707  1.0
  Sn  Sn991  1  0.23751400  0.45489167  0.24861707  1.0
  Sn  Sn992  1  0.23751400  0.78822500  0.24861707  1.0
  Sn  Sn993  1  0.57084733  0.12155833  0.24861707  1.0
  Sn  Sn994  1  0.57084733  0.45489167  0.24861707  1.0
  Sn  Sn995  1  0.57084733  0.78822500  0.24861707  1.0
  Sn  Sn996  1  0.90418067  0.12155833  0.24861707  1.0
  Sn  Sn997  1  0.90418067  0.45489167  0.24861707  1.0
  Sn  Sn998  1  0.90418067  0.78822500  0.24861707  1.0
  Sn  Sn999  1  0.01432667  0.23259767  0.20141164  1.0
  Sn  Sn1000  1  0.01432667  0.56593100  0.20141164  1.0
  Sn  Sn1001  1  0.01432667  0.89926433  0.20141164  1.0
  Sn  Sn1002  1  0.34766000  0.23259767  0.20141164  1.0
  Sn  Sn1003  1  0.34766000  0.56593100  0.20141164  1.0
  Sn  Sn1004  1  0.34766000  0.89926433  0.20141164  1.0
  Sn  Sn1005  1  0.68099333  0.23259767  0.20141164  1.0
  Sn  Sn1006  1  0.68099333  0.56593100  0.20141164  1.0
  Sn  Sn1007  1  0.68099333  0.89926433  0.20141164  1.0
  Ni  Ni1008  1  0.10858800  0.06943867  0.33995950  1.0
  Ni  Ni1009  1  0.10858800  0.40277200  0.33995950  1.0
  Ni  Ni1010  1  0.10858800  0.73610533  0.33995950  1.0
  Ni  Ni1011  1  0.44192133  0.06943867  0.33995950  1.0
  Ni  Ni1012  1  0.44192133  0.40277200  0.33995950  1.0
  Ni  Ni1013  1  0.44192133  0.73610533  0.33995950  1.0
  Ni  Ni1014  1  0.77525467  0.06943867  0.33995950  1.0
  Ni  Ni1015  1  0.77525467  0.40277200  0.33995950  1.0
  Ni  Ni1016  1  0.77525467  0.73610533  0.33995950  1.0
  Ni  Ni1017  1  0.21868733  0.18044800  0.29309779  1.0
  Ni  Ni1018  1  0.21868733  0.51378133  0.29309779  1.0
  Ni  Ni1019  1  0.21868733  0.84711467  0.29309779  1.0
  Ni  Ni1020  1  0.55202067  0.18044800  0.29309779  1.0
  Ni  Ni1021  1  0.55202067  0.51378133  0.29309779  1.0
  Ni  Ni1022  1  0.55202067  0.84711467  0.29309779  1.0
  Ni  Ni1023  1  0.88535400  0.18044800  0.29309779  1.0
  Ni  Ni1024  1  0.88535400  0.51378133  0.29309779  1.0
  Ni  Ni1025  1  0.88535400  0.84711467  0.29309779  1.0
  Ni  Ni1026  1  0.32999167  0.29162400  0.38820479  1.0
  Ni  Ni1027  1  0.32999167  0.62495733  0.38820479  1.0
  Ni  Ni1028  1  0.32999167  0.95829067  0.38820479  1.0
  Ni  Ni1029  1  0.66332500  0.29162400  0.38820479  1.0
  Ni  Ni1030  1  0.66332500  0.62495733  0.38820479  1.0
  Ni  Ni1031  1  0.66332500  0.95829067  0.38820479  1.0
  Ni  Ni1032  1  0.99665833  0.29162400  0.38820479  1.0
  Ni  Ni1033  1  0.99665833  0.62495733  0.38820479  1.0
  Ni  Ni1034  1  0.99665833  0.95829067  0.38820479  1.0
  Ni  Ni1035  1  0.21955733  0.09731333  0.36323207  1.0
  Ni  Ni1036  1  0.21955733  0.43064667  0.36323207  1.0
  Ni  Ni1037  1  0.21955733  0.76398000  0.36323207  1.0
  Ni  Ni1038  1  0.55289067  0.09731333  0.36323207  1.0
  Ni  Ni1039  1  0.55289067  0.43064667  0.36323207  1.0
  Ni  Ni1040  1  0.55289067  0.76398000  0.36323207  1.0
  Ni  Ni1041  1  0.88622400  0.09731333  0.36323207  1.0
  Ni  Ni1042  1  0.88622400  0.43064667  0.36323207  1.0
  Ni  Ni1043  1  0.88622400  0.76398000  0.36323207  1.0
  Ni  Ni1044  1  0.32769767  0.20841433  0.31680579  1.0
  Ni  Ni1045  1  0.32769767  0.54174767  0.31680579  1.0
  Ni  Ni1046  1  0.32769767  0.87508100  0.31680579  1.0
  Ni  Ni1047  1  0.66103100  0.20841433  0.31680579  1.0
  Ni  Ni1048  1  0.66103100  0.54174767  0.31680579  1.0
  Ni  Ni1049  1  0.66103100  0.87508100  0.31680579  1.0
  Ni  Ni1050  1  0.99436433  0.20841433  0.31680579  1.0
  Ni  Ni1051  1  0.99436433  0.54174767  0.31680579  1.0
  Ni  Ni1052  1  0.99436433  0.87508100  0.31680579  1.0
  Ni  Ni1053  1  0.10491833  0.31971167  0.41221921  1.0
  Ni  Ni1054  1  0.10491833  0.65304500  0.41221921  1.0
  Ni  Ni1055  1  0.10491833  0.98637833  0.41221921  1.0
  Ni  Ni1056  1  0.43825167  0.31971167  0.41221921  1.0
  Ni  Ni1057  1  0.43825167  0.65304500  0.41221921  1.0
  Ni  Ni1058  1  0.43825167  0.98637833  0.41221921  1.0
  Ni  Ni1059  1  0.77158500  0.31971167  0.41221921  1.0
  Ni  Ni1060  1  0.77158500  0.65304500  0.41221921  1.0
  Ni  Ni1061  1  0.77158500  0.98637833  0.41221921  1.0
  Ni  Ni1062  1  0.00261833  0.04219900  0.31418021  1.0
  Ni  Ni1063  1  0.00261833  0.37553233  0.31418021  1.0
  Ni  Ni1064  1  0.00261833  0.70886567  0.31418021  1.0
  Ni  Ni1065  1  0.33595167  0.04219900  0.31418021  1.0
  Ni  Ni1066  1  0.33595167  0.37553233  0.31418021  1.0
  Ni  Ni1067  1  0.33595167  0.70886567  0.31418021  1.0
  Ni  Ni1068  1  0.66928500  0.04219900  0.31418021  1.0
  Ni  Ni1069  1  0.66928500  0.37553233  0.31418021  1.0
  Ni  Ni1070  1  0.66928500  0.70886567  0.31418021  1.0
  Ni  Ni1071  1  0.11612333  0.15207567  0.40858750  1.0
  Ni  Ni1072  1  0.11612333  0.48540900  0.40858750  1.0
  Ni  Ni1073  1  0.11612333  0.81874233  0.40858750  1.0
  Ni  Ni1074  1  0.44945667  0.15207567  0.40858750  1.0
  Ni  Ni1075  1  0.44945667  0.48540900  0.40858750  1.0
  Ni  Ni1076  1  0.44945667  0.81874233  0.40858750  1.0
  Ni  Ni1077  1  0.78279000  0.15207567  0.40858750  1.0
  Ni  Ni1078  1  0.78279000  0.48540900  0.40858750  1.0
  Ni  Ni1079  1  0.78279000  0.81874233  0.40858750  1.0
  Ni  Ni1080  1  0.22728533  0.26381267  0.36110636  1.0
  Ni  Ni1081  1  0.22728533  0.59714600  0.36110636  1.0
  Ni  Ni1082  1  0.22728533  0.93047933  0.36110636  1.0
  Ni  Ni1083  1  0.56061867  0.26381267  0.36110636  1.0
  Ni  Ni1084  1  0.56061867  0.59714600  0.36110636  1.0
  Ni  Ni1085  1  0.56061867  0.93047933  0.36110636  1.0
  Ni  Ni1086  1  0.89395200  0.26381267  0.36110636  1.0
  Ni  Ni1087  1  0.89395200  0.59714600  0.36110636  1.0
  Ni  Ni1088  1  0.89395200  0.93047933  0.36110636  1.0
  Ni  Ni1089  1  0.22505700  0.01386367  0.28938664  1.0
  Ni  Ni1090  1  0.22505700  0.34719700  0.28938664  1.0
  Ni  Ni1091  1  0.22505700  0.68053033  0.28938664  1.0
  Ni  Ni1092  1  0.55839033  0.01386367  0.28938664  1.0
  Ni  Ni1093  1  0.55839033  0.34719700  0.28938664  1.0
  Ni  Ni1094  1  0.55839033  0.68053033  0.28938664  1.0
  Ni  Ni1095  1  0.89172367  0.01386367  0.28938664  1.0
  Ni  Ni1096  1  0.89172367  0.34719700  0.28938664  1.0
  Ni  Ni1097  1  0.89172367  0.68053033  0.28938664  1.0
  Ni  Ni1098  1  0.00303433  0.12504767  0.38438836  1.0
  Ni  Ni1099  1  0.00303433  0.45838100  0.38438836  1.0
  Ni  Ni1100  1  0.00303433  0.79171433  0.38438836  1.0
  Ni  Ni1101  1  0.33636767  0.12504767  0.38438836  1.0
  Ni  Ni1102  1  0.33636767  0.45838100  0.38438836  1.0
  Ni  Ni1103  1  0.33636767  0.79171433  0.38438836  1.0
  Ni  Ni1104  1  0.66970100  0.12504767  0.38438836  1.0
  Ni  Ni1105  1  0.66970100  0.45838100  0.38438836  1.0
  Ni  Ni1106  1  0.66970100  0.79171433  0.38438836  1.0
  Ni  Ni1107  1  0.11436667  0.23608033  0.33674650  1.0
  Ni  Ni1108  1  0.11436667  0.56941367  0.33674650  1.0
  Ni  Ni1109  1  0.11436667  0.90274700  0.33674650  1.0
  Ni  Ni1110  1  0.44770000  0.23608033  0.33674650  1.0
  Ni  Ni1111  1  0.44770000  0.56941367  0.33674650  1.0
  Ni  Ni1112  1  0.44770000  0.90274700  0.33674650  1.0
  Ni  Ni1113  1  0.78103333  0.23608033  0.33674650  1.0
  Ni  Ni1114  1  0.78103333  0.56941367  0.33674650  1.0
  Ni  Ni1115  1  0.78103333  0.90274700  0.33674650  1.0
  Ni  Ni1116  1  0.00261833  0.04219900  0.38439307  1.0
  Ni  Ni1117  1  0.00261833  0.37553233  0.38439307  1.0
  Ni  Ni1118  1  0.00261833  0.70886567  0.38439307  1.0
  Ni  Ni1119  1  0.33595167  0.04219900  0.38439307  1.0
  Ni  Ni1120  1  0.33595167  0.37553233  0.38439307  1.0
  Ni  Ni1121  1  0.33595167  0.70886567  0.38439307  1.0
  Ni  Ni1122  1  0.66928500  0.04219900  0.38439307  1.0
  Ni  Ni1123  1  0.66928500  0.37553233  0.38439307  1.0
  Ni  Ni1124  1  0.66928500  0.70886567  0.38439307  1.0
  Ni  Ni1125  1  0.11612333  0.15207567  0.33555293  1.0
  Ni  Ni1126  1  0.11612333  0.48540900  0.33555293  1.0
  Ni  Ni1127  1  0.11612333  0.81874233  0.33555293  1.0
  Ni  Ni1128  1  0.44945667  0.15207567  0.33555293  1.0
  Ni  Ni1129  1  0.44945667  0.48540900  0.33555293  1.0
  Ni  Ni1130  1  0.44945667  0.81874233  0.33555293  1.0
  Ni  Ni1131  1  0.78279000  0.15207567  0.33555293  1.0
  Ni  Ni1132  1  0.78279000  0.48540900  0.33555293  1.0
  Ni  Ni1133  1  0.78279000  0.81874233  0.33555293  1.0
  Ni  Ni1134  1  0.22728533  0.26381267  0.28775236  1.0
  Ni  Ni1135  1  0.22728533  0.59714600  0.28775236  1.0
  Ni  Ni1136  1  0.22728533  0.93047933  0.28775236  1.0
  Ni  Ni1137  1  0.56061867  0.26381267  0.28775236  1.0
  Ni  Ni1138  1  0.56061867  0.59714600  0.28775236  1.0
  Ni  Ni1139  1  0.56061867  0.93047933  0.28775236  1.0
  Ni  Ni1140  1  0.89395200  0.26381267  0.28775236  1.0
  Ni  Ni1141  1  0.89395200  0.59714600  0.28775236  1.0
  Ni  Ni1142  1  0.89395200  0.93047933  0.28775236  1.0
  Ni  Ni1143  1  0.22505700  0.01386367  0.36138207  1.0
  Ni  Ni1144  1  0.22505700  0.34719700  0.36138207  1.0
  Ni  Ni1145  1  0.22505700  0.68053033  0.36138207  1.0
  Ni  Ni1146  1  0.55839033  0.01386367  0.36138207  1.0
  Ni  Ni1147  1  0.55839033  0.34719700  0.36138207  1.0
  Ni  Ni1148  1  0.55839033  0.68053033  0.36138207  1.0
  Ni  Ni1149  1  0.89172367  0.01386367  0.36138207  1.0
  Ni  Ni1150  1  0.89172367  0.34719700  0.36138207  1.0
  Ni  Ni1151  1  0.89172367  0.68053033  0.36138207  1.0
  Ni  Ni1152  1  0.00303433  0.12504767  0.31382836  1.0
  Ni  Ni1153  1  0.00303433  0.45838100  0.31382836  1.0
  Ni  Ni1154  1  0.00303433  0.79171433  0.31382836  1.0
  Ni  Ni1155  1  0.33636767  0.12504767  0.31382836  1.0
  Ni  Ni1156  1  0.33636767  0.45838100  0.31382836  1.0
  Ni  Ni1157  1  0.33636767  0.79171433  0.31382836  1.0
  Ni  Ni1158  1  0.66970100  0.12504767  0.31382836  1.0
  Ni  Ni1159  1  0.66970100  0.45838100  0.31382836  1.0
  Ni  Ni1160  1  0.66970100  0.79171433  0.31382836  1.0
  Ni  Ni1161  1  0.11436667  0.23608033  0.40889964  1.0
  Ni  Ni1162  1  0.11436667  0.56941367  0.40889964  1.0
  Ni  Ni1163  1  0.11436667  0.90274700  0.40889964  1.0
  Ni  Ni1164  1  0.44770000  0.23608033  0.40889964  1.0
  Ni  Ni1165  1  0.44770000  0.56941367  0.40889964  1.0
  Ni  Ni1166  1  0.44770000  0.90274700  0.40889964  1.0
  Ni  Ni1167  1  0.78103333  0.23608033  0.40889964  1.0
  Ni  Ni1168  1  0.78103333  0.56941367  0.40889964  1.0
  Ni  Ni1169  1  0.78103333  0.90274700  0.40889964  1.0
  Ni  Ni1170  1  0.10858800  0.06943867  0.41063979  1.0
  Ni  Ni1171  1  0.10858800  0.40277200  0.41063979  1.0
  Ni  Ni1172  1  0.10858800  0.73610533  0.41063979  1.0
  Ni  Ni1173  1  0.44192133  0.06943867  0.41063979  1.0
  Ni  Ni1174  1  0.44192133  0.40277200  0.41063979  1.0
  Ni  Ni1175  1  0.44192133  0.73610533  0.41063979  1.0
  Ni  Ni1176  1  0.77525467  0.06943867  0.41063979  1.0
  Ni  Ni1177  1  0.77525467  0.40277200  0.41063979  1.0
  Ni  Ni1178  1  0.77525467  0.73610533  0.41063979  1.0
  Ni  Ni1179  1  0.21868733  0.18044800  0.36313064  1.0
  Ni  Ni1180  1  0.21868733  0.51378133  0.36313064  1.0
  Ni  Ni1181  1  0.21868733  0.84711467  0.36313064  1.0
  Ni  Ni1182  1  0.55202067  0.18044800  0.36313064  1.0
  Ni  Ni1183  1  0.55202067  0.51378133  0.36313064  1.0
  Ni  Ni1184  1  0.55202067  0.84711467  0.36313064  1.0
  Ni  Ni1185  1  0.88535400  0.18044800  0.36313064  1.0
  Ni  Ni1186  1  0.88535400  0.51378133  0.36313064  1.0
  Ni  Ni1187  1  0.88535400  0.84711467  0.36313064  1.0
  Ni  Ni1188  1  0.32999167  0.29162400  0.31547707  1.0
  Ni  Ni1189  1  0.32999167  0.62495733  0.31547707  1.0
  Ni  Ni1190  1  0.32999167  0.95829067  0.31547707  1.0
  Ni  Ni1191  1  0.66332500  0.29162400  0.31547707  1.0
  Ni  Ni1192  1  0.66332500  0.62495733  0.31547707  1.0
  Ni  Ni1193  1  0.66332500  0.95829067  0.31547707  1.0
  Ni  Ni1194  1  0.99665833  0.29162400  0.31547707  1.0
  Ni  Ni1195  1  0.99665833  0.62495733  0.31547707  1.0
  Ni  Ni1196  1  0.99665833  0.95829067  0.31547707  1.0
  Ni  Ni1197  1  0.21955733  0.09731333  0.29225064  1.0
  Ni  Ni1198  1  0.21955733  0.43064667  0.29225064  1.0
  Ni  Ni1199  1  0.21955733  0.76398000  0.29225064  1.0
  Ni  Ni1200  1  0.55289067  0.09731333  0.29225064  1.0
  Ni  Ni1201  1  0.55289067  0.43064667  0.29225064  1.0
  Ni  Ni1202  1  0.55289067  0.76398000  0.29225064  1.0
  Ni  Ni1203  1  0.88622400  0.09731333  0.29225064  1.0
  Ni  Ni1204  1  0.88622400  0.43064667  0.29225064  1.0
  Ni  Ni1205  1  0.88622400  0.76398000  0.29225064  1.0
  Ni  Ni1206  1  0.32769767  0.20841433  0.38884236  1.0
  Ni  Ni1207  1  0.32769767  0.54174767  0.38884236  1.0
  Ni  Ni1208  1  0.32769767  0.87508100  0.38884236  1.0
  Ni  Ni1209  1  0.66103100  0.20841433  0.38884236  1.0
  Ni  Ni1210  1  0.66103100  0.54174767  0.38884236  1.0
  Ni  Ni1211  1  0.66103100  0.87508100  0.38884236  1.0
  Ni  Ni1212  1  0.99436433  0.20841433  0.38884236  1.0
  Ni  Ni1213  1  0.99436433  0.54174767  0.38884236  1.0
  Ni  Ni1214  1  0.99436433  0.87508100  0.38884236  1.0
  Ni  Ni1215  1  0.10491833  0.31971167  0.34152550  1.0
  Ni  Ni1216  1  0.10491833  0.65304500  0.34152550  1.0
  Ni  Ni1217  1  0.10491833  0.98637833  0.34152550  1.0
  Ni  Ni1218  1  0.43825167  0.31971167  0.34152550  1.0
  Ni  Ni1219  1  0.43825167  0.65304500  0.34152550  1.0
  Ni  Ni1220  1  0.43825167  0.98637833  0.34152550  1.0
  Ni  Ni1221  1  0.77158500  0.31971167  0.34152550  1.0
  Ni  Ni1222  1  0.77158500  0.65304500  0.34152550  1.0
  Ni  Ni1223  1  0.77158500  0.98637833  0.34152550  1.0
  Ni  Ni1224  1  0.21952433  0.20767667  0.32775550  1.0
  Ni  Ni1225  1  0.21952433  0.54101000  0.32775550  1.0
  Ni  Ni1226  1  0.21952433  0.87434333  0.32775550  1.0
  Ni  Ni1227  1  0.55285767  0.20767667  0.32775550  1.0
  Ni  Ni1228  1  0.55285767  0.54101000  0.32775550  1.0
  Ni  Ni1229  1  0.55285767  0.87434333  0.32775550  1.0
  Ni  Ni1230  1  0.88619100  0.20767667  0.32775550  1.0
  Ni  Ni1231  1  0.88619100  0.54101000  0.32775550  1.0
  Ni  Ni1232  1  0.88619100  0.87434333  0.32775550  1.0
  Ni  Ni1233  1  0.33010867  0.31900200  0.42321936  1.0
  Ni  Ni1234  1  0.33010867  0.65233533  0.42321936  1.0
  Ni  Ni1235  1  0.33010867  0.98566867  0.42321936  1.0
  Ni  Ni1236  1  0.66344200  0.31900200  0.42321936  1.0
  Ni  Ni1237  1  0.66344200  0.65233533  0.42321936  1.0
  Ni  Ni1238  1  0.66344200  0.98566867  0.42321936  1.0
  Ni  Ni1239  1  0.99677533  0.31900200  0.42321936  1.0
  Ni  Ni1240  1  0.99677533  0.65233533  0.42321936  1.0
  Ni  Ni1241  1  0.99677533  0.98566867  0.42321936  1.0
  Ni  Ni1242  1  0.11376500  0.04125267  0.30165236  1.0
  Ni  Ni1243  1  0.11376500  0.37458600  0.30165236  1.0
  Ni  Ni1244  1  0.11376500  0.70791933  0.30165236  1.0
  Ni  Ni1245  1  0.44709833  0.04125267  0.30165236  1.0
  Ni  Ni1246  1  0.44709833  0.37458600  0.30165236  1.0
  Ni  Ni1247  1  0.44709833  0.70791933  0.30165236  1.0
  Ni  Ni1248  1  0.78043167  0.04125267  0.30165236  1.0
  Ni  Ni1249  1  0.78043167  0.37458600  0.30165236  1.0
  Ni  Ni1250  1  0.78043167  0.70791933  0.30165236  1.0
  Ni  Ni1251  1  0.22283967  0.15313067  0.39776321  1.0
  Ni  Ni1252  1  0.22283967  0.48646400  0.39776321  1.0
  Ni  Ni1253  1  0.22283967  0.81979733  0.39776321  1.0
  Ni  Ni1254  1  0.55617300  0.15313067  0.39776321  1.0
  Ni  Ni1255  1  0.55617300  0.48646400  0.39776321  1.0
  Ni  Ni1256  1  0.55617300  0.81979733  0.39776321  1.0
  Ni  Ni1257  1  0.88950633  0.15313067  0.39776321  1.0
  Ni  Ni1258  1  0.88950633  0.48646400  0.39776321  1.0
  Ni  Ni1259  1  0.88950633  0.81979733  0.39776321  1.0
  Ni  Ni1260  1  0.00257133  0.26378300  0.34930679  1.0
  Ni  Ni1261  1  0.00257133  0.59711633  0.34930679  1.0
  Ni  Ni1262  1  0.00257133  0.93044967  0.34930679  1.0
  Ni  Ni1263  1  0.33590467  0.26378300  0.34930679  1.0
  Ni  Ni1264  1  0.33590467  0.59711633  0.34930679  1.0
  Ni  Ni1265  1  0.33590467  0.93044967  0.34930679  1.0
  Ni  Ni1266  1  0.66923800  0.26378300  0.34930679  1.0
  Ni  Ni1267  1  0.66923800  0.59711633  0.34930679  1.0
  Ni  Ni1268  1  0.66923800  0.93044967  0.34930679  1.0
  Ni  Ni1269  1  0.00038733  0.01427967  0.35024279  1.0
  Ni  Ni1270  1  0.00038733  0.34761300  0.35024279  1.0
  Ni  Ni1271  1  0.00038733  0.68094633  0.35024279  1.0
  Ni  Ni1272  1  0.33372067  0.01427967  0.35024279  1.0
  Ni  Ni1273  1  0.33372067  0.34761300  0.35024279  1.0
  Ni  Ni1274  1  0.33372067  0.68094633  0.35024279  1.0
  Ni  Ni1275  1  0.66705400  0.01427967  0.35024279  1.0
  Ni  Ni1276  1  0.66705400  0.34761300  0.35024279  1.0
  Ni  Ni1277  1  0.66705400  0.68094633  0.35024279  1.0
  Ni  Ni1278  1  0.11269067  0.12475533  0.30211279  1.0
  Ni  Ni1279  1  0.11269067  0.45808867  0.30211279  1.0
  Ni  Ni1280  1  0.11269067  0.79142200  0.30211279  1.0
  Ni  Ni1281  1  0.44602400  0.12475533  0.30211279  1.0
  Ni  Ni1282  1  0.44602400  0.45808867  0.30211279  1.0
  Ni  Ni1283  1  0.44602400  0.79142200  0.30211279  1.0
  Ni  Ni1284  1  0.77935733  0.12475533  0.30211279  1.0
  Ni  Ni1285  1  0.77935733  0.45808867  0.30211279  1.0
  Ni  Ni1286  1  0.77935733  0.79142200  0.30211279  1.0
  Ni  Ni1287  1  0.22311233  0.23624567  0.39764636  1.0
  Ni  Ni1288  1  0.22311233  0.56957900  0.39764636  1.0
  Ni  Ni1289  1  0.22311233  0.90291233  0.39764636  1.0
  Ni  Ni1290  1  0.55644567  0.23624567  0.39764636  1.0
  Ni  Ni1291  1  0.55644567  0.56957900  0.39764636  1.0
  Ni  Ni1292  1  0.55644567  0.90291233  0.39764636  1.0
  Ni  Ni1293  1  0.88977900  0.23624567  0.39764636  1.0
  Ni  Ni1294  1  0.88977900  0.56957900  0.39764636  1.0
  Ni  Ni1295  1  0.88977900  0.90291233  0.39764636  1.0
  Sn  Sn1296  1  0.33108167  0.01638033  0.42280236  1.0
  Sn  Sn1297  1  0.33108167  0.34971367  0.42280236  1.0
  Sn  Sn1298  1  0.33108167  0.68304700  0.42280236  1.0
  Sn  Sn1299  1  0.66441500  0.01638033  0.42280236  1.0
  Sn  Sn1300  1  0.66441500  0.34971367  0.42280236  1.0
  Sn  Sn1301  1  0.66441500  0.68304700  0.42280236  1.0
  Sn  Sn1302  1  0.99774833  0.01638033  0.42280236  1.0
  Sn  Sn1303  1  0.99774833  0.34971367  0.42280236  1.0
  Sn  Sn1304  1  0.99774833  0.68304700  0.42280236  1.0
  Sn  Sn1305  1  0.11077033  0.12512633  0.37436436  1.0
  Sn  Sn1306  1  0.11077033  0.45845967  0.37436436  1.0
  Sn  Sn1307  1  0.11077033  0.79179300  0.37436436  1.0
  Sn  Sn1308  1  0.44410367  0.12512633  0.37436436  1.0
  Sn  Sn1309  1  0.44410367  0.45845967  0.37436436  1.0
  Sn  Sn1310  1  0.44410367  0.79179300  0.37436436  1.0
  Sn  Sn1311  1  0.77743700  0.12512633  0.37436436  1.0
  Sn  Sn1312  1  0.77743700  0.45845967  0.37436436  1.0
  Sn  Sn1313  1  0.77743700  0.79179300  0.37436436  1.0
  Sn  Sn1314  1  0.22093867  0.23819900  0.32714936  1.0
  Sn  Sn1315  1  0.22093867  0.57153233  0.32714936  1.0
  Sn  Sn1316  1  0.22093867  0.90486567  0.32714936  1.0
  Sn  Sn1317  1  0.55427200  0.23819900  0.32714936  1.0
  Sn  Sn1318  1  0.55427200  0.57153233  0.32714936  1.0
  Sn  Sn1319  1  0.55427200  0.90486567  0.32714936  1.0
  Sn  Sn1320  1  0.88760533  0.23819900  0.32714936  1.0
  Sn  Sn1321  1  0.88760533  0.57153233  0.32714936  1.0
  Sn  Sn1322  1  0.88760533  0.90486567  0.32714936  1.0
  Sn  Sn1323  1  0.11231300  0.04132700  0.37370321  1.0
  Sn  Sn1324  1  0.11231300  0.37466033  0.37370321  1.0
  Sn  Sn1325  1  0.11231300  0.70799367  0.37370321  1.0
  Sn  Sn1326  1  0.44564633  0.04132700  0.37370321  1.0
  Sn  Sn1327  1  0.44564633  0.37466033  0.37370321  1.0
  Sn  Sn1328  1  0.44564633  0.70799367  0.37370321  1.0
  Sn  Sn1329  1  0.77897967  0.04132700  0.37370321  1.0
  Sn  Sn1330  1  0.77897967  0.37466033  0.37370321  1.0
  Sn  Sn1331  1  0.77897967  0.70799367  0.37370321  1.0
  Sn  Sn1332  1  0.22439933  0.15208200  0.32566621  1.0
  Sn  Sn1333  1  0.22439933  0.48541533  0.32566621  1.0
  Sn  Sn1334  1  0.22439933  0.81874867  0.32566621  1.0
  Sn  Sn1335  1  0.55773267  0.15208200  0.32566621  1.0
  Sn  Sn1336  1  0.55773267  0.48541533  0.32566621  1.0
  Sn  Sn1337  1  0.55773267  0.81874867  0.32566621  1.0
  Sn  Sn1338  1  0.89106600  0.15208200  0.32566621  1.0
  Sn  Sn1339  1  0.89106600  0.48541533  0.32566621  1.0
  Sn  Sn1340  1  0.89106600  0.81874867  0.32566621  1.0
  Sn  Sn1341  1  0.00289033  0.26328633  0.42059864  1.0
  Sn  Sn1342  1  0.00289033  0.59661967  0.42059864  1.0
  Sn  Sn1343  1  0.00289033  0.92995300  0.42059864  1.0
  Sn  Sn1344  1  0.33622367  0.26328633  0.42059864  1.0
  Sn  Sn1345  1  0.33622367  0.59661967  0.42059864  1.0
  Sn  Sn1346  1  0.33622367  0.92995300  0.42059864  1.0
  Sn  Sn1347  1  0.66955700  0.26328633  0.42059864  1.0
  Sn  Sn1348  1  0.66955700  0.59661967  0.42059864  1.0
  Sn  Sn1349  1  0.66955700  0.92995300  0.42059864  1.0
  Sn  Sn1350  1  0.10963000  0.09547733  0.30342450  1.0
  Sn  Sn1351  1  0.10963000  0.42881067  0.30342450  1.0
  Sn  Sn1352  1  0.10963000  0.76214400  0.30342450  1.0
  Sn  Sn1353  1  0.44296333  0.09547733  0.30342450  1.0
  Sn  Sn1354  1  0.44296333  0.42881067  0.30342450  1.0
  Sn  Sn1355  1  0.44296333  0.76214400  0.30342450  1.0
  Sn  Sn1356  1  0.77629667  0.09547733  0.30342450  1.0
  Sn  Sn1357  1  0.77629667  0.42881067  0.30342450  1.0
  Sn  Sn1358  1  0.77629667  0.76214400  0.30342450  1.0
  Sn  Sn1359  1  0.21977667  0.20651500  0.39907593  1.0
  Sn  Sn1360  1  0.21977667  0.53984833  0.39907593  1.0
  Sn  Sn1361  1  0.21977667  0.87318167  0.39907593  1.0
  Sn  Sn1362  1  0.55311000  0.20651500  0.39907593  1.0
  Sn  Sn1363  1  0.55311000  0.53984833  0.39907593  1.0
  Sn  Sn1364  1  0.55311000  0.87318167  0.39907593  1.0
  Sn  Sn1365  1  0.88644333  0.20651500  0.39907593  1.0
  Sn  Sn1366  1  0.88644333  0.53984833  0.39907593  1.0
  Sn  Sn1367  1  0.88644333  0.87318167  0.39907593  1.0
  Sn  Sn1368  1  0.33047267  0.31784700  0.35163479  1.0
  Sn  Sn1369  1  0.33047267  0.65118033  0.35163479  1.0
  Sn  Sn1370  1  0.33047267  0.98451367  0.35163479  1.0
  Sn  Sn1371  1  0.66380600  0.31784700  0.35163479  1.0
  Sn  Sn1372  1  0.66380600  0.65118033  0.35163479  1.0
  Sn  Sn1373  1  0.66380600  0.98451367  0.35163479  1.0
  Sn  Sn1374  1  0.99713933  0.31784700  0.35163479  1.0
  Sn  Sn1375  1  0.99713933  0.65118033  0.35163479  1.0
  Sn  Sn1376  1  0.99713933  0.98451367  0.35163479  1.0
  Sn  Sn1377  1  0.32631267  0.07119533  0.35341764  1.0
  Sn  Sn1378  1  0.32631267  0.40452867  0.35341764  1.0
  Sn  Sn1379  1  0.32631267  0.73786200  0.35341764  1.0
  Sn  Sn1380  1  0.65964600  0.07119533  0.35341764  1.0
  Sn  Sn1381  1  0.65964600  0.40452867  0.35341764  1.0
  Sn  Sn1382  1  0.65964600  0.73786200  0.35341764  1.0
  Sn  Sn1383  1  0.99297933  0.07119533  0.35341764  1.0
  Sn  Sn1384  1  0.99297933  0.40452867  0.35341764  1.0
  Sn  Sn1385  1  0.99297933  0.73786200  0.35341764  1.0
  Sn  Sn1386  1  0.10183833  0.18223167  0.30676379  1.0
  Sn  Sn1387  1  0.10183833  0.51556500  0.30676379  1.0
  Sn  Sn1388  1  0.10183833  0.84889833  0.30676379  1.0
  Sn  Sn1389  1  0.43517167  0.18223167  0.30676379  1.0
  Sn  Sn1390  1  0.43517167  0.51556500  0.30676379  1.0
  Sn  Sn1391  1  0.43517167  0.84889833  0.30676379  1.0
  Sn  Sn1392  1  0.76850500  0.18223167  0.30676379  1.0
  Sn  Sn1393  1  0.76850500  0.51556500  0.30676379  1.0
  Sn  Sn1394  1  0.76850500  0.84889833  0.30676379  1.0
  Sn  Sn1395  1  0.21363367  0.29347033  0.40170864  1.0
  Sn  Sn1396  1  0.21363367  0.62680367  0.40170864  1.0
  Sn  Sn1397  1  0.21363367  0.96013700  0.40170864  1.0
  Sn  Sn1398  1  0.54696700  0.29347033  0.40170864  1.0
  Sn  Sn1399  1  0.54696700  0.62680367  0.40170864  1.0
  Sn  Sn1400  1  0.54696700  0.96013700  0.40170864  1.0
  Sn  Sn1401  1  0.88030033  0.29347033  0.40170864  1.0
  Sn  Sn1402  1  0.88030033  0.62680367  0.40170864  1.0
  Sn  Sn1403  1  0.88030033  0.96013700  0.40170864  1.0
  Sn  Sn1404  1  0.22252700  0.06958133  0.32646864  1.0
  Sn  Sn1405  1  0.22252700  0.40291467  0.32646864  1.0
  Sn  Sn1406  1  0.22252700  0.73624800  0.32646864  1.0
  Sn  Sn1407  1  0.55586033  0.06958133  0.32646864  1.0
  Sn  Sn1408  1  0.55586033  0.40291467  0.32646864  1.0
  Sn  Sn1409  1  0.55586033  0.73624800  0.32646864  1.0
  Sn  Sn1410  1  0.88919367  0.06958133  0.32646864  1.0
  Sn  Sn1411  1  0.88919367  0.40291467  0.32646864  1.0
  Sn  Sn1412  1  0.88919367  0.73624800  0.32646864  1.0
  Sn  Sn1413  1  0.00888267  0.17837600  0.41803050  1.0
  Sn  Sn1414  1  0.00888267  0.51170933  0.41803050  1.0
  Sn  Sn1415  1  0.00888267  0.84504267  0.41803050  1.0
  Sn  Sn1416  1  0.34221600  0.17837600  0.41803050  1.0
  Sn  Sn1417  1  0.34221600  0.51170933  0.41803050  1.0
  Sn  Sn1418  1  0.34221600  0.84504267  0.41803050  1.0
  Sn  Sn1419  1  0.67554933  0.17837600  0.41803050  1.0
  Sn  Sn1420  1  0.67554933  0.51170933  0.41803050  1.0
  Sn  Sn1421  1  0.67554933  0.84504267  0.41803050  1.0
  Sn  Sn1422  1  0.11951500  0.28984500  0.37061664  1.0
  Sn  Sn1423  1  0.11951500  0.62317833  0.37061664  1.0
  Sn  Sn1424  1  0.11951500  0.95651167  0.37061664  1.0
  Sn  Sn1425  1  0.45284833  0.28984500  0.37061664  1.0
  Sn  Sn1426  1  0.45284833  0.62317833  0.37061664  1.0
  Sn  Sn1427  1  0.45284833  0.95651167  0.37061664  1.0
  Sn  Sn1428  1  0.78618167  0.28984500  0.37061664  1.0
  Sn  Sn1429  1  0.78618167  0.62317833  0.37061664  1.0
  Sn  Sn1430  1  0.78618167  0.95651167  0.37061664  1.0
  Sn  Sn1431  1  0.33287200  0.09751133  0.42203507  1.0
  Sn  Sn1432  1  0.33287200  0.43084467  0.42203507  1.0
  Sn  Sn1433  1  0.33287200  0.76417800  0.42203507  1.0
  Sn  Sn1434  1  0.66620533  0.09751133  0.42203507  1.0
  Sn  Sn1435  1  0.66620533  0.43084467  0.42203507  1.0
  Sn  Sn1436  1  0.66620533  0.76417800  0.42203507  1.0
  Sn  Sn1437  1  0.99953867  0.09751133  0.42203507  1.0
  Sn  Sn1438  1  0.99953867  0.43084467  0.42203507  1.0
  Sn  Sn1439  1  0.99953867  0.76417800  0.42203507  1.0
  Sn  Sn1440  1  0.10025767  0.20860933  0.37886979  1.0
  Sn  Sn1441  1  0.10025767  0.54194267  0.37886979  1.0
  Sn  Sn1442  1  0.10025767  0.87527600  0.37886979  1.0
  Sn  Sn1443  1  0.43359100  0.20860933  0.37886979  1.0
  Sn  Sn1444  1  0.43359100  0.54194267  0.37886979  1.0
  Sn  Sn1445  1  0.43359100  0.87527600  0.37886979  1.0
  Sn  Sn1446  1  0.76692433  0.20860933  0.37886979  1.0
  Sn  Sn1447  1  0.76692433  0.54194267  0.37886979  1.0
  Sn  Sn1448  1  0.76692433  0.87527600  0.37886979  1.0
  Sn  Sn1449  1  0.21127367  0.31964667  0.33129150  1.0
  Sn  Sn1450  1  0.21127367  0.65298000  0.33129150  1.0
  Sn  Sn1451  1  0.21127367  0.98631333  0.33129150  1.0
  Sn  Sn1452  1  0.54460700  0.31964667  0.33129150  1.0
  Sn  Sn1453  1  0.54460700  0.65298000  0.33129150  1.0
  Sn  Sn1454  1  0.54460700  0.98631333  0.33129150  1.0
  Sn  Sn1455  1  0.87794033  0.31964667  0.33129150  1.0
  Sn  Sn1456  1  0.87794033  0.65298000  0.33129150  1.0
  Sn  Sn1457  1  0.87794033  0.98631333  0.33129150  1.0
  Sn  Sn1458  1  0.22259067  0.04551933  0.39786993  1.0
  Sn  Sn1459  1  0.22259067  0.37885267  0.39786993  1.0
  Sn  Sn1460  1  0.22259067  0.71218600  0.39786993  1.0
  Sn  Sn1461  1  0.55592400  0.04551933  0.39786993  1.0
  Sn  Sn1462  1  0.55592400  0.37885267  0.39786993  1.0
  Sn  Sn1463  1  0.55592400  0.71218600  0.39786993  1.0
  Sn  Sn1464  1  0.88925733  0.04551933  0.39786993  1.0
  Sn  Sn1465  1  0.88925733  0.37885267  0.39786993  1.0
  Sn  Sn1466  1  0.88925733  0.71218600  0.39786993  1.0
  Sn  Sn1467  1  0.00129767  0.15611600  0.34985264  1.0
  Sn  Sn1468  1  0.00129767  0.48944933  0.34985264  1.0
  Sn  Sn1469  1  0.00129767  0.82278267  0.34985264  1.0
  Sn  Sn1470  1  0.33463100  0.15611600  0.34985264  1.0
  Sn  Sn1471  1  0.33463100  0.48944933  0.34985264  1.0
  Sn  Sn1472  1  0.33463100  0.82278267  0.34985264  1.0
  Sn  Sn1473  1  0.66796433  0.15611600  0.34985264  1.0
  Sn  Sn1474  1  0.66796433  0.48944933  0.34985264  1.0
  Sn  Sn1475  1  0.66796433  0.82278267  0.34985264  1.0
  Sn  Sn1476  1  0.11219733  0.26767333  0.30232421  1.0
  Sn  Sn1477  1  0.11219733  0.60100667  0.30232421  1.0
  Sn  Sn1478  1  0.11219733  0.93434000  0.30232421  1.0
  Sn  Sn1479  1  0.44553067  0.26767333  0.30232421  1.0
  Sn  Sn1480  1  0.44553067  0.60100667  0.30232421  1.0
  Sn  Sn1481  1  0.44553067  0.93434000  0.30232421  1.0
  Sn  Sn1482  1  0.77886400  0.26767333  0.30232421  1.0
  Sn  Sn1483  1  0.77886400  0.60100667  0.30232421  1.0
  Sn  Sn1484  1  0.77886400  0.93434000  0.30232421  1.0
  Sn  Sn1485  1  0.12517300  0.01031033  0.29676321  1.0
  Sn  Sn1486  1  0.12517300  0.34364367  0.29676321  1.0
  Sn  Sn1487  1  0.12517300  0.67697700  0.29676321  1.0
  Sn  Sn1488  1  0.45850633  0.01031033  0.29676321  1.0
  Sn  Sn1489  1  0.45850633  0.34364367  0.29676321  1.0
  Sn  Sn1490  1  0.45850633  0.67697700  0.29676321  1.0
  Sn  Sn1491  1  0.79183967  0.01031033  0.29676321  1.0
  Sn  Sn1492  1  0.79183967  0.34364367  0.29676321  1.0
  Sn  Sn1493  1  0.79183967  0.67697700  0.29676321  1.0
  Sn  Sn1494  1  0.23751400  0.12155833  0.39147421  1.0
  Sn  Sn1495  1  0.23751400  0.45489167  0.39147421  1.0
  Sn  Sn1496  1  0.23751400  0.78822500  0.39147421  1.0
  Sn  Sn1497  1  0.57084733  0.12155833  0.39147421  1.0
  Sn  Sn1498  1  0.57084733  0.45489167  0.39147421  1.0
  Sn  Sn1499  1  0.57084733  0.78822500  0.39147421  1.0
  Sn  Sn1500  1  0.90418067  0.12155833  0.39147421  1.0
  Sn  Sn1501  1  0.90418067  0.45489167  0.39147421  1.0
  Sn  Sn1502  1  0.90418067  0.78822500  0.39147421  1.0
  Sn  Sn1503  1  0.01432667  0.23259767  0.34426879  1.0
  Sn  Sn1504  1  0.01432667  0.56593100  0.34426879  1.0
  Sn  Sn1505  1  0.01432667  0.89926433  0.34426879  1.0
  Sn  Sn1506  1  0.34766000  0.23259767  0.34426879  1.0
  Sn  Sn1507  1  0.34766000  0.56593100  0.34426879  1.0
  Sn  Sn1508  1  0.34766000  0.89926433  0.34426879  1.0
  Sn  Sn1509  1  0.68099333  0.23259767  0.34426879  1.0
  Sn  Sn1510  1  0.68099333  0.56593100  0.34426879  1.0
  Sn  Sn1511  1  0.68099333  0.89926433  0.34426879  1.0
