# generated using pymatgen
data_Ni4Sn3
_symmetry_space_group_name_H-M   'P 1'
_cell_length_a   45.18984922
_cell_length_b   76.75663573
_cell_length_c   36.49648100
_cell_angle_alpha   90.00000000
_cell_angle_beta   69.74949811
_cell_angle_gamma   74.89029727
_symmetry_Int_Tables_number   1
_chemical_formula_structural   Ni4Sn3
_chemical_formula_sum   'Ni1728 Sn1296'
_cell_volume   114091.30241469
_cell_formula_units_Z   432
loop_
 _symmetry_equiv_pos_site_id
 _symmetry_equiv_pos_as_xyz
  1  'x, y, z'
loop_
 _atom_site_type_symbol
 _atom_site_label
 _atom_site_symmetry_multiplicity
 _atom_site_fract_x
 _atom_site_fract_y
 _atom_site_fract_z
 _atom_site_occupancy
  Ni  Ni0  1  0.08901333  0.06943867  0.05748893  1.0
  Ni  Ni1  1  0.08901333  0.40277200  0.05748893  1.0
  Ni  Ni2  1  0.08901333  0.73610533  0.05748893  1.0
  Ni  Ni3  1  0.42234667  0.06943867  0.05748893  1.0
  Ni  Ni4  1  0.42234667  0.40277200  0.05748893  1.0
  Ni  Ni5  1  0.42234667  0.73610533  0.05748893  1.0
  Ni  Ni6  1  0.75568000  0.06943867  0.05748893  1.0
  Ni  Ni7  1  0.75568000  0.40277200  0.05748893  1.0
  Ni  Ni8  1  0.75568000  0.73610533  0.05748893  1.0
  Ni  Ni9  1  0.25568000  0.06943867  0.12891750  1.0
  Ni  Ni10  1  0.25568000  0.40277200  0.12891750  1.0
  Ni  Ni11  1  0.25568000  0.73610533  0.12891750  1.0
  Ni  Ni12  1  0.58901333  0.06943867  0.12891750  1.0
  Ni  Ni13  1  0.58901333  0.40277200  0.12891750  1.0
  Ni  Ni14  1  0.58901333  0.73610533  0.12891750  1.0
  Ni  Ni15  1  0.92234667  0.06943867  0.12891750  1.0
  Ni  Ni16  1  0.92234667  0.40277200  0.12891750  1.0
  Ni  Ni17  1  0.92234667  0.73610533  0.12891750  1.0
  Ni  Ni18  1  0.03290100  0.18044800  0.08186079  1.0
  Ni  Ni19  1  0.03290100  0.51378133  0.08186079  1.0
  Ni  Ni20  1  0.03290100  0.84711467  0.08186079  1.0
  Ni  Ni21  1  0.36623433  0.18044800  0.08186079  1.0
  Ni  Ni22  1  0.36623433  0.51378133  0.08186079  1.0
  Ni  Ni23  1  0.36623433  0.84711467  0.08186079  1.0
  Ni  Ni24  1  0.69956767  0.18044800  0.08186079  1.0
  Ni  Ni25  1  0.69956767  0.51378133  0.08186079  1.0
  Ni  Ni26  1  0.69956767  0.84711467  0.08186079  1.0
  Ni  Ni27  1  0.19956767  0.18044800  0.01043221  1.0
  Ni  Ni28  1  0.19956767  0.51378133  0.01043221  1.0
  Ni  Ni29  1  0.19956767  0.84711467  0.01043221  1.0
  Ni  Ni30  1  0.53290100  0.18044800  0.01043221  1.0
  Ni  Ni31  1  0.53290100  0.51378133  0.01043221  1.0
  Ni  Ni32  1  0.53290100  0.84711467  0.01043221  1.0
  Ni  Ni33  1  0.86623433  0.18044800  0.01043221  1.0
  Ni  Ni34  1  0.86623433  0.51378133  0.01043221  1.0
  Ni  Ni35  1  0.86623433  0.84711467  0.01043221  1.0
  Ni  Ni36  1  0.31080783  0.29162400  0.10556671  1.0
  Ni  Ni37  1  0.31080783  0.62495733  0.10556671  1.0
  Ni  Ni38  1  0.31080783  0.95829067  0.10556671  1.0
  Ni  Ni39  1  0.64414117  0.29162400  0.10556671  1.0
  Ni  Ni40  1  0.64414117  0.62495733  0.10556671  1.0
  Ni  Ni41  1  0.64414117  0.95829067  0.10556671  1.0
  Ni  Ni42  1  0.97747450  0.29162400  0.10556671  1.0
  Ni  Ni43  1  0.97747450  0.62495733  0.10556671  1.0
  Ni  Ni44  1  0.97747450  0.95829067  0.10556671  1.0
  Ni  Ni45  1  0.14414117  0.29162400  0.03413814  1.0
  Ni  Ni46  1  0.14414117  0.62495733  0.03413814  1.0
  Ni  Ni47  1  0.14414117  0.95829067  0.03413814  1.0
  Ni  Ni48  1  0.47747450  0.29162400  0.03413814  1.0
  Ni  Ni49  1  0.47747450  0.62495733  0.03413814  1.0
  Ni  Ni50  1  0.47747450  0.95829067  0.03413814  1.0
  Ni  Ni51  1  0.81080783  0.29162400  0.03413814  1.0
  Ni  Ni52  1  0.81080783  0.62495733  0.03413814  1.0
  Ni  Ni53  1  0.81080783  0.95829067  0.03413814  1.0
  Ni  Ni54  1  0.32510200  0.09731333  0.02713893  1.0
  Ni  Ni55  1  0.32510200  0.43064667  0.02713893  1.0
  Ni  Ni56  1  0.32510200  0.76398000  0.02713893  1.0
  Ni  Ni57  1  0.65843533  0.09731333  0.02713893  1.0
  Ni  Ni58  1  0.65843533  0.43064667  0.02713893  1.0
  Ni  Ni59  1  0.65843533  0.76398000  0.02713893  1.0
  Ni  Ni60  1  0.99176867  0.09731333  0.02713893  1.0
  Ni  Ni61  1  0.99176867  0.43064667  0.02713893  1.0
  Ni  Ni62  1  0.99176867  0.76398000  0.02713893  1.0
  Ni  Ni63  1  0.15843533  0.09731333  0.09856750  1.0
  Ni  Ni64  1  0.15843533  0.43064667  0.09856750  1.0
  Ni  Ni65  1  0.15843533  0.76398000  0.09856750  1.0
  Ni  Ni66  1  0.49176867  0.09731333  0.09856750  1.0
  Ni  Ni67  1  0.49176867  0.43064667  0.09856750  1.0
  Ni  Ni68  1  0.49176867  0.76398000  0.09856750  1.0
  Ni  Ni69  1  0.82510200  0.09731333  0.09856750  1.0
  Ni  Ni70  1  0.82510200  0.43064667  0.09856750  1.0
  Ni  Ni71  1  0.82510200  0.76398000  0.09856750  1.0
  Ni  Ni72  1  0.26805600  0.20841433  0.05150679  1.0
  Ni  Ni73  1  0.26805600  0.54174767  0.05150679  1.0
  Ni  Ni74  1  0.26805600  0.87508100  0.05150679  1.0
  Ni  Ni75  1  0.60138933  0.20841433  0.05150679  1.0
  Ni  Ni76  1  0.60138933  0.54174767  0.05150679  1.0
  Ni  Ni77  1  0.60138933  0.87508100  0.05150679  1.0
  Ni  Ni78  1  0.93472267  0.20841433  0.05150679  1.0
  Ni  Ni79  1  0.93472267  0.54174767  0.05150679  1.0
  Ni  Ni80  1  0.93472267  0.87508100  0.05150679  1.0
  Ni  Ni81  1  0.10138933  0.20841433  0.12293536  1.0
  Ni  Ni82  1  0.10138933  0.54174767  0.12293536  1.0
  Ni  Ni83  1  0.10138933  0.87508100  0.12293536  1.0
  Ni  Ni84  1  0.43472267  0.20841433  0.12293536  1.0
  Ni  Ni85  1  0.43472267  0.54174767  0.12293536  1.0
  Ni  Ni86  1  0.43472267  0.87508100  0.12293536  1.0
  Ni  Ni87  1  0.76805600  0.20841433  0.12293536  1.0
  Ni  Ni88  1  0.76805600  0.54174767  0.12293536  1.0
  Ni  Ni89  1  0.76805600  0.87508100  0.12293536  1.0
  Ni  Ni90  1  0.21231500  0.31971167  0.07533236  1.0
  Ni  Ni91  1  0.21231500  0.65304500  0.07533236  1.0
  Ni  Ni92  1  0.21231500  0.98637833  0.07533236  1.0
  Ni  Ni93  1  0.54564833  0.31971167  0.07533236  1.0
  Ni  Ni94  1  0.54564833  0.65304500  0.07533236  1.0
  Ni  Ni95  1  0.54564833  0.98637833  0.07533236  1.0
  Ni  Ni96  1  0.87898167  0.31971167  0.07533236  1.0
  Ni  Ni97  1  0.87898167  0.65304500  0.07533236  1.0
  Ni  Ni98  1  0.87898167  0.98637833  0.07533236  1.0
  Ni  Ni99  1  0.04564833  0.31971167  0.00390379  1.0
  Ni  Ni100  1  0.04564833  0.65304500  0.00390379  1.0
  Ni  Ni101  1  0.04564833  0.98637833  0.00390379  1.0
  Ni  Ni102  1  0.37898167  0.31971167  0.00390379  1.0
  Ni  Ni103  1  0.37898167  0.65304500  0.00390379  1.0
  Ni  Ni104  1  0.37898167  0.98637833  0.00390379  1.0
  Ni  Ni105  1  0.71231500  0.31971167  0.00390379  1.0
  Ni  Ni106  1  0.71231500  0.65304500  0.00390379  1.0
  Ni  Ni107  1  0.71231500  0.98637833  0.00390379  1.0
  Ni  Ni108  1  0.02240867  0.04219900  0.01483893  1.0
  Ni  Ni109  1  0.02240867  0.37553233  0.01483893  1.0
  Ni  Ni110  1  0.02240867  0.70886567  0.01483893  1.0
  Ni  Ni111  1  0.35574200  0.04219900  0.01483893  1.0
  Ni  Ni112  1  0.35574200  0.37553233  0.01483893  1.0
  Ni  Ni113  1  0.35574200  0.70886567  0.01483893  1.0
  Ni  Ni114  1  0.68907533  0.04219900  0.01483893  1.0
  Ni  Ni115  1  0.68907533  0.37553233  0.01483893  1.0
  Ni  Ni116  1  0.68907533  0.70886567  0.01483893  1.0
  Ni  Ni117  1  0.18907533  0.04219900  0.08626750  1.0
  Ni  Ni118  1  0.18907533  0.37553233  0.08626750  1.0
  Ni  Ni119  1  0.18907533  0.70886567  0.08626750  1.0
  Ni  Ni120  1  0.52240867  0.04219900  0.08626750  1.0
  Ni  Ni121  1  0.52240867  0.37553233  0.08626750  1.0
  Ni  Ni122  1  0.52240867  0.70886567  0.08626750  1.0
  Ni  Ni123  1  0.85574200  0.04219900  0.08626750  1.0
  Ni  Ni124  1  0.85574200  0.37553233  0.08626750  1.0
  Ni  Ni125  1  0.85574200  0.70886567  0.08626750  1.0
  Ni  Ni126  1  0.30076617  0.15207567  0.03859514  1.0
  Ni  Ni127  1  0.30076617  0.48540900  0.03859514  1.0
  Ni  Ni128  1  0.30076617  0.81874233  0.03859514  1.0
  Ni  Ni129  1  0.63409950  0.15207567  0.03859514  1.0
  Ni  Ni130  1  0.63409950  0.48540900  0.03859514  1.0
  Ni  Ni131  1  0.63409950  0.81874233  0.03859514  1.0
  Ni  Ni132  1  0.96743283  0.15207567  0.03859514  1.0
  Ni  Ni133  1  0.96743283  0.48540900  0.03859514  1.0
  Ni  Ni134  1  0.96743283  0.81874233  0.03859514  1.0
  Ni  Ni135  1  0.13409950  0.15207567  0.11002371  1.0
  Ni  Ni136  1  0.13409950  0.48540900  0.11002371  1.0
  Ni  Ni137  1  0.13409950  0.81874233  0.11002371  1.0
  Ni  Ni138  1  0.46743283  0.15207567  0.11002371  1.0
  Ni  Ni139  1  0.46743283  0.48540900  0.11002371  1.0
  Ni  Ni140  1  0.46743283  0.81874233  0.11002371  1.0
  Ni  Ni141  1  0.80076617  0.15207567  0.11002371  1.0
  Ni  Ni142  1  0.80076617  0.48540900  0.11002371  1.0
  Ni  Ni143  1  0.80076617  0.81874233  0.11002371  1.0
  Ni  Ni144  1  0.24554900  0.26381267  0.06241936  1.0
  Ni  Ni145  1  0.24554900  0.59714600  0.06241936  1.0
  Ni  Ni146  1  0.24554900  0.93047933  0.06241936  1.0
  Ni  Ni147  1  0.57888233  0.26381267  0.06241936  1.0
  Ni  Ni148  1  0.57888233  0.59714600  0.06241936  1.0
  Ni  Ni149  1  0.57888233  0.93047933  0.06241936  1.0
  Ni  Ni150  1  0.91221567  0.26381267  0.06241936  1.0
  Ni  Ni151  1  0.91221567  0.59714600  0.06241936  1.0
  Ni  Ni152  1  0.91221567  0.93047933  0.06241936  1.0
  Ni  Ni153  1  0.07888233  0.26381267  0.13384793  1.0
  Ni  Ni154  1  0.07888233  0.59714600  0.13384793  1.0
  Ni  Ni155  1  0.07888233  0.93047933  0.13384793  1.0
  Ni  Ni156  1  0.41221567  0.26381267  0.13384793  1.0
  Ni  Ni157  1  0.41221567  0.59714600  0.13384793  1.0
  Ni  Ni158  1  0.41221567  0.93047933  0.13384793  1.0
  Ni  Ni159  1  0.74554900  0.26381267  0.13384793  1.0
  Ni  Ni160  1  0.74554900  0.59714600  0.13384793  1.0
  Ni  Ni161  1  0.74554900  0.93047933  0.13384793  1.0
  Ni  Ni162  1  0.11946033  0.01386367  0.04378264  1.0
  Ni  Ni163  1  0.11946033  0.34719700  0.04378264  1.0
  Ni  Ni164  1  0.11946033  0.68053033  0.04378264  1.0
  Ni  Ni165  1  0.45279367  0.01386367  0.04378264  1.0
  Ni  Ni166  1  0.45279367  0.34719700  0.04378264  1.0
  Ni  Ni167  1  0.45279367  0.68053033  0.04378264  1.0
  Ni  Ni168  1  0.78612700  0.01386367  0.04378264  1.0
  Ni  Ni169  1  0.78612700  0.34719700  0.04378264  1.0
  Ni  Ni170  1  0.78612700  0.68053033  0.04378264  1.0
  Ni  Ni171  1  0.28612700  0.01386367  0.11521121  1.0
  Ni  Ni172  1  0.28612700  0.34719700  0.11521121  1.0
  Ni  Ni173  1  0.28612700  0.68053033  0.11521121  1.0
  Ni  Ni174  1  0.61946033  0.01386367  0.11521121  1.0
  Ni  Ni175  1  0.61946033  0.34719700  0.11521121  1.0
  Ni  Ni176  1  0.61946033  0.68053033  0.11521121  1.0
  Ni  Ni177  1  0.95279367  0.01386367  0.11521121  1.0
  Ni  Ni178  1  0.95279367  0.34719700  0.11521121  1.0
  Ni  Ni179  1  0.95279367  0.68053033  0.11521121  1.0
  Ni  Ni180  1  0.06404100  0.12504767  0.06738293  1.0
  Ni  Ni181  1  0.06404100  0.45838100  0.06738293  1.0
  Ni  Ni182  1  0.06404100  0.79171433  0.06738293  1.0
  Ni  Ni183  1  0.39737433  0.12504767  0.06738293  1.0
  Ni  Ni184  1  0.39737433  0.45838100  0.06738293  1.0
  Ni  Ni185  1  0.39737433  0.79171433  0.06738293  1.0
  Ni  Ni186  1  0.73070767  0.12504767  0.06738293  1.0
  Ni  Ni187  1  0.73070767  0.45838100  0.06738293  1.0
  Ni  Ni188  1  0.73070767  0.79171433  0.06738293  1.0
  Ni  Ni189  1  0.23070767  0.12504767  0.13881150  1.0
  Ni  Ni190  1  0.23070767  0.45838100  0.13881150  1.0
  Ni  Ni191  1  0.23070767  0.79171433  0.13881150  1.0
  Ni  Ni192  1  0.56404100  0.12504767  0.13881150  1.0
  Ni  Ni193  1  0.56404100  0.45838100  0.13881150  1.0
  Ni  Ni194  1  0.56404100  0.79171433  0.13881150  1.0
  Ni  Ni195  1  0.89737433  0.12504767  0.13881150  1.0
  Ni  Ni196  1  0.89737433  0.45838100  0.13881150  1.0
  Ni  Ni197  1  0.89737433  0.79171433  0.13881150  1.0
  Ni  Ni198  1  0.00855683  0.23608033  0.09123386  1.0
  Ni  Ni199  1  0.00855683  0.56941367  0.09123386  1.0
  Ni  Ni200  1  0.00855683  0.90274700  0.09123386  1.0
  Ni  Ni201  1  0.34189017  0.23608033  0.09123386  1.0
  Ni  Ni202  1  0.34189017  0.56941367  0.09123386  1.0
  Ni  Ni203  1  0.34189017  0.90274700  0.09123386  1.0
  Ni  Ni204  1  0.67522350  0.23608033  0.09123386  1.0
  Ni  Ni205  1  0.67522350  0.56941367  0.09123386  1.0
  Ni  Ni206  1  0.67522350  0.90274700  0.09123386  1.0
  Ni  Ni207  1  0.17522350  0.23608033  0.01980529  1.0
  Ni  Ni208  1  0.17522350  0.56941367  0.01980529  1.0
  Ni  Ni209  1  0.17522350  0.90274700  0.01980529  1.0
  Ni  Ni210  1  0.50855683  0.23608033  0.01980529  1.0
  Ni  Ni211  1  0.50855683  0.56941367  0.01980529  1.0
  Ni  Ni212  1  0.50855683  0.90274700  0.01980529  1.0
  Ni  Ni213  1  0.84189017  0.23608033  0.01980529  1.0
  Ni  Ni214  1  0.84189017  0.56941367  0.01980529  1.0
  Ni  Ni215  1  0.84189017  0.90274700  0.01980529  1.0
  Ni  Ni216  1  0.02240867  0.04219900  0.08505179  1.0
  Ni  Ni217  1  0.02240867  0.37553233  0.08505179  1.0
  Ni  Ni218  1  0.02240867  0.70886567  0.08505179  1.0
  Ni  Ni219  1  0.35574200  0.04219900  0.08505179  1.0
  Ni  Ni220  1  0.35574200  0.37553233  0.08505179  1.0
  Ni  Ni221  1  0.35574200  0.70886567  0.08505179  1.0
  Ni  Ni222  1  0.68907533  0.04219900  0.08505179  1.0
  Ni  Ni223  1  0.68907533  0.37553233  0.08505179  1.0
  Ni  Ni224  1  0.68907533  0.70886567  0.08505179  1.0
  Ni  Ni225  1  0.18907533  0.04219900  0.01362321  1.0
  Ni  Ni226  1  0.18907533  0.37553233  0.01362321  1.0
  Ni  Ni227  1  0.18907533  0.70886567  0.01362321  1.0
  Ni  Ni228  1  0.52240867  0.04219900  0.01362321  1.0
  Ni  Ni229  1  0.52240867  0.37553233  0.01362321  1.0
  Ni  Ni230  1  0.52240867  0.70886567  0.01362321  1.0
  Ni  Ni231  1  0.85574200  0.04219900  0.01362321  1.0
  Ni  Ni232  1  0.85574200  0.37553233  0.01362321  1.0
  Ni  Ni233  1  0.85574200  0.70886567  0.01362321  1.0
  Ni  Ni234  1  0.30076617  0.15207567  0.10841771  1.0
  Ni  Ni235  1  0.30076617  0.48540900  0.10841771  1.0
  Ni  Ni236  1  0.30076617  0.81874233  0.10841771  1.0
  Ni  Ni237  1  0.63409950  0.15207567  0.10841771  1.0
  Ni  Ni238  1  0.63409950  0.48540900  0.10841771  1.0
  Ni  Ni239  1  0.63409950  0.81874233  0.10841771  1.0
  Ni  Ni240  1  0.96743283  0.15207567  0.10841771  1.0
  Ni  Ni241  1  0.96743283  0.48540900  0.10841771  1.0
  Ni  Ni242  1  0.96743283  0.81874233  0.10841771  1.0
  Ni  Ni243  1  0.13409950  0.15207567  0.03698914  1.0
  Ni  Ni244  1  0.13409950  0.48540900  0.03698914  1.0
  Ni  Ni245  1  0.13409950  0.81874233  0.03698914  1.0
  Ni  Ni246  1  0.46743283  0.15207567  0.03698914  1.0
  Ni  Ni247  1  0.46743283  0.48540900  0.03698914  1.0
  Ni  Ni248  1  0.46743283  0.81874233  0.03698914  1.0
  Ni  Ni249  1  0.80076617  0.15207567  0.03698914  1.0
  Ni  Ni250  1  0.80076617  0.48540900  0.03698914  1.0
  Ni  Ni251  1  0.80076617  0.81874233  0.03698914  1.0
  Ni  Ni252  1  0.24554900  0.26381267  0.13192250  1.0
  Ni  Ni253  1  0.24554900  0.59714600  0.13192250  1.0
  Ni  Ni254  1  0.24554900  0.93047933  0.13192250  1.0
  Ni  Ni255  1  0.57888233  0.26381267  0.13192250  1.0
  Ni  Ni256  1  0.57888233  0.59714600  0.13192250  1.0
  Ni  Ni257  1  0.57888233  0.93047933  0.13192250  1.0
  Ni  Ni258  1  0.91221567  0.26381267  0.13192250  1.0
  Ni  Ni259  1  0.91221567  0.59714600  0.13192250  1.0
  Ni  Ni260  1  0.91221567  0.93047933  0.13192250  1.0
  Ni  Ni261  1  0.07888233  0.26381267  0.06049393  1.0
  Ni  Ni262  1  0.07888233  0.59714600  0.06049393  1.0
  Ni  Ni263  1  0.07888233  0.93047933  0.06049393  1.0
  Ni  Ni264  1  0.41221567  0.26381267  0.06049393  1.0
  Ni  Ni265  1  0.41221567  0.59714600  0.06049393  1.0
  Ni  Ni266  1  0.41221567  0.93047933  0.06049393  1.0
  Ni  Ni267  1  0.74554900  0.26381267  0.06049393  1.0
  Ni  Ni268  1  0.74554900  0.59714600  0.06049393  1.0
  Ni  Ni269  1  0.74554900  0.93047933  0.06049393  1.0
  Ni  Ni270  1  0.11946033  0.01386367  0.11577807  1.0
  Ni  Ni271  1  0.11946033  0.34719700  0.11577807  1.0
  Ni  Ni272  1  0.11946033  0.68053033  0.11577807  1.0
  Ni  Ni273  1  0.45279367  0.01386367  0.11577807  1.0
  Ni  Ni274  1  0.45279367  0.34719700  0.11577807  1.0
  Ni  Ni275  1  0.45279367  0.68053033  0.11577807  1.0
  Ni  Ni276  1  0.78612700  0.01386367  0.11577807  1.0
  Ni  Ni277  1  0.78612700  0.34719700  0.11577807  1.0
  Ni  Ni278  1  0.78612700  0.68053033  0.11577807  1.0
  Ni  Ni279  1  0.28612700  0.01386367  0.04434950  1.0
  Ni  Ni280  1  0.28612700  0.34719700  0.04434950  1.0
  Ni  Ni281  1  0.28612700  0.68053033  0.04434950  1.0
  Ni  Ni282  1  0.61946033  0.01386367  0.04434950  1.0
  Ni  Ni283  1  0.61946033  0.34719700  0.04434950  1.0
  Ni  Ni284  1  0.61946033  0.68053033  0.04434950  1.0
  Ni  Ni285  1  0.95279367  0.01386367  0.04434950  1.0
  Ni  Ni286  1  0.95279367  0.34719700  0.04434950  1.0
  Ni  Ni287  1  0.95279367  0.68053033  0.04434950  1.0
  Ni  Ni288  1  0.06404100  0.12504767  0.13968007  1.0
  Ni  Ni289  1  0.06404100  0.45838100  0.13968007  1.0
  Ni  Ni290  1  0.06404100  0.79171433  0.13968007  1.0
  Ni  Ni291  1  0.39737433  0.12504767  0.13968007  1.0
  Ni  Ni292  1  0.39737433  0.45838100  0.13968007  1.0
  Ni  Ni293  1  0.39737433  0.79171433  0.13968007  1.0
  Ni  Ni294  1  0.73070767  0.12504767  0.13968007  1.0
  Ni  Ni295  1  0.73070767  0.45838100  0.13968007  1.0
  Ni  Ni296  1  0.73070767  0.79171433  0.13968007  1.0
  Ni  Ni297  1  0.23070767  0.12504767  0.06825150  1.0
  Ni  Ni298  1  0.23070767  0.45838100  0.06825150  1.0
  Ni  Ni299  1  0.23070767  0.79171433  0.06825150  1.0
  Ni  Ni300  1  0.56404100  0.12504767  0.06825150  1.0
  Ni  Ni301  1  0.56404100  0.45838100  0.06825150  1.0
  Ni  Ni302  1  0.56404100  0.79171433  0.06825150  1.0
  Ni  Ni303  1  0.89737433  0.12504767  0.06825150  1.0
  Ni  Ni304  1  0.89737433  0.45838100  0.06825150  1.0
  Ni  Ni305  1  0.89737433  0.79171433  0.06825150  1.0
  Ni  Ni306  1  0.00855683  0.23608033  0.02052986  1.0
  Ni  Ni307  1  0.00855683  0.56941367  0.02052986  1.0
  Ni  Ni308  1  0.00855683  0.90274700  0.02052986  1.0
  Ni  Ni309  1  0.34189017  0.23608033  0.02052986  1.0
  Ni  Ni310  1  0.34189017  0.56941367  0.02052986  1.0
  Ni  Ni311  1  0.34189017  0.90274700  0.02052986  1.0
  Ni  Ni312  1  0.67522350  0.23608033  0.02052986  1.0
  Ni  Ni313  1  0.67522350  0.56941367  0.02052986  1.0
  Ni  Ni314  1  0.67522350  0.90274700  0.02052986  1.0
  Ni  Ni315  1  0.17522350  0.23608033  0.09195843  1.0
  Ni  Ni316  1  0.17522350  0.56941367  0.09195843  1.0
  Ni  Ni317  1  0.17522350  0.90274700  0.09195843  1.0
  Ni  Ni318  1  0.50855683  0.23608033  0.09195843  1.0
  Ni  Ni319  1  0.50855683  0.56941367  0.09195843  1.0
  Ni  Ni320  1  0.50855683  0.90274700  0.09195843  1.0
  Ni  Ni321  1  0.84189017  0.23608033  0.09195843  1.0
  Ni  Ni322  1  0.84189017  0.56941367  0.09195843  1.0
  Ni  Ni323  1  0.84189017  0.90274700  0.09195843  1.0
  Ni  Ni324  1  0.08901333  0.06943867  0.12816921  1.0
  Ni  Ni325  1  0.08901333  0.40277200  0.12816921  1.0
  Ni  Ni326  1  0.08901333  0.73610533  0.12816921  1.0
  Ni  Ni327  1  0.42234667  0.06943867  0.12816921  1.0
  Ni  Ni328  1  0.42234667  0.40277200  0.12816921  1.0
  Ni  Ni329  1  0.42234667  0.73610533  0.12816921  1.0
  Ni  Ni330  1  0.75568000  0.06943867  0.12816921  1.0
  Ni  Ni331  1  0.75568000  0.40277200  0.12816921  1.0
  Ni  Ni332  1  0.75568000  0.73610533  0.12816921  1.0
  Ni  Ni333  1  0.25568000  0.06943867  0.05674064  1.0
  Ni  Ni334  1  0.25568000  0.40277200  0.05674064  1.0
  Ni  Ni335  1  0.25568000  0.73610533  0.05674064  1.0
  Ni  Ni336  1  0.58901333  0.06943867  0.05674064  1.0
  Ni  Ni337  1  0.58901333  0.40277200  0.05674064  1.0
  Ni  Ni338  1  0.58901333  0.73610533  0.05674064  1.0
  Ni  Ni339  1  0.92234667  0.06943867  0.05674064  1.0
  Ni  Ni340  1  0.92234667  0.40277200  0.05674064  1.0
  Ni  Ni341  1  0.92234667  0.73610533  0.05674064  1.0
  Ni  Ni342  1  0.03290100  0.18044800  0.00903650  1.0
  Ni  Ni343  1  0.03290100  0.51378133  0.00903650  1.0
  Ni  Ni344  1  0.03290100  0.84711467  0.00903650  1.0
  Ni  Ni345  1  0.36623433  0.18044800  0.00903650  1.0
  Ni  Ni346  1  0.36623433  0.51378133  0.00903650  1.0
  Ni  Ni347  1  0.36623433  0.84711467  0.00903650  1.0
  Ni  Ni348  1  0.69956767  0.18044800  0.00903650  1.0
  Ni  Ni349  1  0.69956767  0.51378133  0.00903650  1.0
  Ni  Ni350  1  0.69956767  0.84711467  0.00903650  1.0
  Ni  Ni351  1  0.19956767  0.18044800  0.08046507  1.0
  Ni  Ni352  1  0.19956767  0.51378133  0.08046507  1.0
  Ni  Ni353  1  0.19956767  0.84711467  0.08046507  1.0
  Ni  Ni354  1  0.53290100  0.18044800  0.08046507  1.0
  Ni  Ni355  1  0.53290100  0.51378133  0.08046507  1.0
  Ni  Ni356  1  0.53290100  0.84711467  0.08046507  1.0
  Ni  Ni357  1  0.86623433  0.18044800  0.08046507  1.0
  Ni  Ni358  1  0.86623433  0.51378133  0.08046507  1.0
  Ni  Ni359  1  0.86623433  0.84711467  0.08046507  1.0
  Ni  Ni360  1  0.31080783  0.29162400  0.03283900  1.0
  Ni  Ni361  1  0.31080783  0.62495733  0.03283900  1.0
  Ni  Ni362  1  0.31080783  0.95829067  0.03283900  1.0
  Ni  Ni363  1  0.64414117  0.29162400  0.03283900  1.0
  Ni  Ni364  1  0.64414117  0.62495733  0.03283900  1.0
  Ni  Ni365  1  0.64414117  0.95829067  0.03283900  1.0
  Ni  Ni366  1  0.97747450  0.29162400  0.03283900  1.0
  Ni  Ni367  1  0.97747450  0.62495733  0.03283900  1.0
  Ni  Ni368  1  0.97747450  0.95829067  0.03283900  1.0
  Ni  Ni369  1  0.14414117  0.29162400  0.10426757  1.0
  Ni  Ni370  1  0.14414117  0.62495733  0.10426757  1.0
  Ni  Ni371  1  0.14414117  0.95829067  0.10426757  1.0
  Ni  Ni372  1  0.47747450  0.29162400  0.10426757  1.0
  Ni  Ni373  1  0.47747450  0.62495733  0.10426757  1.0
  Ni  Ni374  1  0.47747450  0.95829067  0.10426757  1.0
  Ni  Ni375  1  0.81080783  0.29162400  0.10426757  1.0
  Ni  Ni376  1  0.81080783  0.62495733  0.10426757  1.0
  Ni  Ni377  1  0.81080783  0.95829067  0.10426757  1.0
  Ni  Ni378  1  0.32510200  0.09731333  0.09901464  1.0
  Ni  Ni379  1  0.32510200  0.43064667  0.09901464  1.0
  Ni  Ni380  1  0.32510200  0.76398000  0.09901464  1.0
  Ni  Ni381  1  0.65843533  0.09731333  0.09901464  1.0
  Ni  Ni382  1  0.65843533  0.43064667  0.09901464  1.0
  Ni  Ni383  1  0.65843533  0.76398000  0.09901464  1.0
  Ni  Ni384  1  0.99176867  0.09731333  0.09901464  1.0
  Ni  Ni385  1  0.99176867  0.43064667  0.09901464  1.0
  Ni  Ni386  1  0.99176867  0.76398000  0.09901464  1.0
  Ni  Ni387  1  0.15843533  0.09731333  0.02758607  1.0
  Ni  Ni388  1  0.15843533  0.43064667  0.02758607  1.0
  Ni  Ni389  1  0.15843533  0.76398000  0.02758607  1.0
  Ni  Ni390  1  0.49176867  0.09731333  0.02758607  1.0
  Ni  Ni391  1  0.49176867  0.43064667  0.02758607  1.0
  Ni  Ni392  1  0.49176867  0.76398000  0.02758607  1.0
  Ni  Ni393  1  0.82510200  0.09731333  0.02758607  1.0
  Ni  Ni394  1  0.82510200  0.43064667  0.02758607  1.0
  Ni  Ni395  1  0.82510200  0.76398000  0.02758607  1.0
  Ni  Ni396  1  0.26805600  0.20841433  0.12354336  1.0
  Ni  Ni397  1  0.26805600  0.54174767  0.12354336  1.0
  Ni  Ni398  1  0.26805600  0.87508100  0.12354336  1.0
  Ni  Ni399  1  0.60138933  0.20841433  0.12354336  1.0
  Ni  Ni400  1  0.60138933  0.54174767  0.12354336  1.0
  Ni  Ni401  1  0.60138933  0.87508100  0.12354336  1.0
  Ni  Ni402  1  0.93472267  0.20841433  0.12354336  1.0
  Ni  Ni403  1  0.93472267  0.54174767  0.12354336  1.0
  Ni  Ni404  1  0.93472267  0.87508100  0.12354336  1.0
  Ni  Ni405  1  0.10138933  0.20841433  0.05211479  1.0
  Ni  Ni406  1  0.10138933  0.54174767  0.05211479  1.0
  Ni  Ni407  1  0.10138933  0.87508100  0.05211479  1.0
  Ni  Ni408  1  0.43472267  0.20841433  0.05211479  1.0
  Ni  Ni409  1  0.43472267  0.54174767  0.05211479  1.0
  Ni  Ni410  1  0.43472267  0.87508100  0.05211479  1.0
  Ni  Ni411  1  0.76805600  0.20841433  0.05211479  1.0
  Ni  Ni412  1  0.76805600  0.54174767  0.05211479  1.0
  Ni  Ni413  1  0.76805600  0.87508100  0.05211479  1.0
  Ni  Ni414  1  0.21231500  0.31971167  0.00463864  1.0
  Ni  Ni415  1  0.21231500  0.65304500  0.00463864  1.0
  Ni  Ni416  1  0.21231500  0.98637833  0.00463864  1.0
  Ni  Ni417  1  0.54564833  0.31971167  0.00463864  1.0
  Ni  Ni418  1  0.54564833  0.65304500  0.00463864  1.0
  Ni  Ni419  1  0.54564833  0.98637833  0.00463864  1.0
  Ni  Ni420  1  0.87898167  0.31971167  0.00463864  1.0
  Ni  Ni421  1  0.87898167  0.65304500  0.00463864  1.0
  Ni  Ni422  1  0.87898167  0.98637833  0.00463864  1.0
  Ni  Ni423  1  0.04564833  0.31971167  0.07606721  1.0
  Ni  Ni424  1  0.04564833  0.65304500  0.07606721  1.0
  Ni  Ni425  1  0.04564833  0.98637833  0.07606721  1.0
  Ni  Ni426  1  0.37898167  0.31971167  0.07606721  1.0
  Ni  Ni427  1  0.37898167  0.65304500  0.07606721  1.0
  Ni  Ni428  1  0.37898167  0.98637833  0.07606721  1.0
  Ni  Ni429  1  0.71231500  0.31971167  0.07606721  1.0
  Ni  Ni430  1  0.71231500  0.65304500  0.07606721  1.0
  Ni  Ni431  1  0.71231500  0.98637833  0.07606721  1.0
  Ni  Ni432  1  0.04693383  0.20767667  0.11086314  1.0
  Ni  Ni433  1  0.04693383  0.54101000  0.11086314  1.0
  Ni  Ni434  1  0.04693383  0.87434333  0.11086314  1.0
  Ni  Ni435  1  0.38026717  0.20767667  0.11086314  1.0
  Ni  Ni436  1  0.38026717  0.54101000  0.11086314  1.0
  Ni  Ni437  1  0.38026717  0.87434333  0.11086314  1.0
  Ni  Ni438  1  0.71360050  0.20767667  0.11086314  1.0
  Ni  Ni439  1  0.71360050  0.54101000  0.11086314  1.0
  Ni  Ni440  1  0.71360050  0.87434333  0.11086314  1.0
  Ni  Ni441  1  0.21360050  0.20767667  0.03943457  1.0
  Ni  Ni442  1  0.21360050  0.54101000  0.03943457  1.0
  Ni  Ni443  1  0.21360050  0.87434333  0.03943457  1.0
  Ni  Ni444  1  0.54693383  0.20767667  0.03943457  1.0
  Ni  Ni445  1  0.54693383  0.54101000  0.03943457  1.0
  Ni  Ni446  1  0.54693383  0.87434333  0.03943457  1.0
  Ni  Ni447  1  0.88026717  0.20767667  0.03943457  1.0
  Ni  Ni448  1  0.88026717  0.54101000  0.03943457  1.0
  Ni  Ni449  1  0.88026717  0.87434333  0.03943457  1.0
  Ni  Ni450  1  0.32455533  0.31900200  0.13473964  1.0
  Ni  Ni451  1  0.32455533  0.65233533  0.13473964  1.0
  Ni  Ni452  1  0.32455533  0.98566867  0.13473964  1.0
  Ni  Ni453  1  0.65788867  0.31900200  0.13473964  1.0
  Ni  Ni454  1  0.65788867  0.65233533  0.13473964  1.0
  Ni  Ni455  1  0.65788867  0.98566867  0.13473964  1.0
  Ni  Ni456  1  0.99122200  0.31900200  0.13473964  1.0
  Ni  Ni457  1  0.99122200  0.65233533  0.13473964  1.0
  Ni  Ni458  1  0.99122200  0.98566867  0.13473964  1.0
  Ni  Ni459  1  0.15788867  0.31900200  0.06331107  1.0
  Ni  Ni460  1  0.15788867  0.65233533  0.06331107  1.0
  Ni  Ni461  1  0.15788867  0.98566867  0.06331107  1.0
  Ni  Ni462  1  0.49122200  0.31900200  0.06331107  1.0
  Ni  Ni463  1  0.49122200  0.65233533  0.06331107  1.0
  Ni  Ni464  1  0.49122200  0.98566867  0.06331107  1.0
  Ni  Ni465  1  0.82455533  0.31900200  0.06331107  1.0
  Ni  Ni466  1  0.82455533  0.65233533  0.06331107  1.0
  Ni  Ni467  1  0.82455533  0.98566867  0.06331107  1.0
  Ni  Ni468  1  0.07750883  0.04125267  0.02633100  1.0
  Ni  Ni469  1  0.07750883  0.37458600  0.02633100  1.0
  Ni  Ni470  1  0.07750883  0.70791933  0.02633100  1.0
  Ni  Ni471  1  0.41084217  0.04125267  0.02633100  1.0
  Ni  Ni472  1  0.41084217  0.37458600  0.02633100  1.0
  Ni  Ni473  1  0.41084217  0.70791933  0.02633100  1.0
  Ni  Ni474  1  0.74417550  0.04125267  0.02633100  1.0
  Ni  Ni475  1  0.74417550  0.37458600  0.02633100  1.0
  Ni  Ni476  1  0.74417550  0.70791933  0.02633100  1.0
  Ni  Ni477  1  0.24417550  0.04125267  0.09775957  1.0
  Ni  Ni478  1  0.24417550  0.37458600  0.09775957  1.0
  Ni  Ni479  1  0.24417550  0.70791933  0.09775957  1.0
  Ni  Ni480  1  0.57750883  0.04125267  0.09775957  1.0
  Ni  Ni481  1  0.57750883  0.37458600  0.09775957  1.0
  Ni  Ni482  1  0.57750883  0.70791933  0.09775957  1.0
  Ni  Ni483  1  0.91084217  0.04125267  0.09775957  1.0
  Ni  Ni484  1  0.91084217  0.37458600  0.09775957  1.0
  Ni  Ni485  1  0.91084217  0.70791933  0.09775957  1.0
  Ni  Ni486  1  0.02131850  0.15313067  0.05041257  1.0
  Ni  Ni487  1  0.02131850  0.48646400  0.05041257  1.0
  Ni  Ni488  1  0.02131850  0.81979733  0.05041257  1.0
  Ni  Ni489  1  0.35465183  0.15313067  0.05041257  1.0
  Ni  Ni490  1  0.35465183  0.48646400  0.05041257  1.0
  Ni  Ni491  1  0.35465183  0.81979733  0.05041257  1.0
  Ni  Ni492  1  0.68798517  0.15313067  0.05041257  1.0
  Ni  Ni493  1  0.68798517  0.48646400  0.05041257  1.0
  Ni  Ni494  1  0.68798517  0.81979733  0.05041257  1.0
  Ni  Ni495  1  0.18798517  0.15313067  0.12184114  1.0
  Ni  Ni496  1  0.18798517  0.48646400  0.12184114  1.0
  Ni  Ni497  1  0.18798517  0.81979733  0.12184114  1.0
  Ni  Ni498  1  0.52131850  0.15313067  0.12184114  1.0
  Ni  Ni499  1  0.52131850  0.48646400  0.12184114  1.0
  Ni  Ni500  1  0.52131850  0.81979733  0.12184114  1.0
  Ni  Ni501  1  0.85465183  0.15313067  0.12184114  1.0
  Ni  Ni502  1  0.85465183  0.48646400  0.12184114  1.0
  Ni  Ni503  1  0.85465183  0.81979733  0.12184114  1.0
  Ni  Ni504  1  0.29984383  0.26378300  0.07390171  1.0
  Ni  Ni505  1  0.29984383  0.59711633  0.07390171  1.0
  Ni  Ni506  1  0.29984383  0.93044967  0.07390171  1.0
  Ni  Ni507  1  0.63317717  0.26378300  0.07390171  1.0
  Ni  Ni508  1  0.63317717  0.59711633  0.07390171  1.0
  Ni  Ni509  1  0.63317717  0.93044967  0.07390171  1.0
  Ni  Ni510  1  0.96651050  0.26378300  0.07390171  1.0
  Ni  Ni511  1  0.96651050  0.59711633  0.07390171  1.0
  Ni  Ni512  1  0.96651050  0.93044967  0.07390171  1.0
  Ni  Ni513  1  0.13317717  0.26378300  0.00247314  1.0
  Ni  Ni514  1  0.13317717  0.59711633  0.00247314  1.0
  Ni  Ni515  1  0.13317717  0.93044967  0.00247314  1.0
  Ni  Ni516  1  0.46651050  0.26378300  0.00247314  1.0
  Ni  Ni517  1  0.46651050  0.59711633  0.00247314  1.0
  Ni  Ni518  1  0.46651050  0.93044967  0.00247314  1.0
  Ni  Ni519  1  0.79984383  0.26378300  0.00247314  1.0
  Ni  Ni520  1  0.79984383  0.59711633  0.00247314  1.0
  Ni  Ni521  1  0.79984383  0.93044967  0.00247314  1.0
  Ni  Ni522  1  0.00733350  0.01427967  0.05640614  1.0
  Ni  Ni523  1  0.00733350  0.34761300  0.05640614  1.0
  Ni  Ni524  1  0.00733350  0.68094633  0.05640614  1.0
  Ni  Ni525  1  0.34066683  0.01427967  0.05640614  1.0
  Ni  Ni526  1  0.34066683  0.34761300  0.05640614  1.0
  Ni  Ni527  1  0.34066683  0.68094633  0.05640614  1.0
  Ni  Ni528  1  0.67400017  0.01427967  0.05640614  1.0
  Ni  Ni529  1  0.67400017  0.34761300  0.05640614  1.0
  Ni  Ni530  1  0.67400017  0.68094633  0.05640614  1.0
  Ni  Ni531  1  0.17400017  0.01427967  0.12783471  1.0
  Ni  Ni532  1  0.17400017  0.34761300  0.12783471  1.0
  Ni  Ni533  1  0.17400017  0.68094633  0.12783471  1.0
  Ni  Ni534  1  0.50733350  0.01427967  0.12783471  1.0
  Ni  Ni535  1  0.50733350  0.34761300  0.12783471  1.0
  Ni  Ni536  1  0.50733350  0.68094633  0.12783471  1.0
  Ni  Ni537  1  0.84066683  0.01427967  0.12783471  1.0
  Ni  Ni538  1  0.84066683  0.34761300  0.12783471  1.0
  Ni  Ni539  1  0.84066683  0.68094633  0.12783471  1.0
  Ni  Ni540  1  0.28538967  0.12475533  0.08009636  1.0
  Ni  Ni541  1  0.28538967  0.45808867  0.08009636  1.0
  Ni  Ni542  1  0.28538967  0.79142200  0.08009636  1.0
  Ni  Ni543  1  0.61872300  0.12475533  0.08009636  1.0
  Ni  Ni544  1  0.61872300  0.45808867  0.08009636  1.0
  Ni  Ni545  1  0.61872300  0.79142200  0.08009636  1.0
  Ni  Ni546  1  0.95205633  0.12475533  0.08009636  1.0
  Ni  Ni547  1  0.95205633  0.45808867  0.08009636  1.0
  Ni  Ni548  1  0.95205633  0.79142200  0.08009636  1.0
  Ni  Ni549  1  0.11872300  0.12475533  0.00866779  1.0
  Ni  Ni550  1  0.11872300  0.45808867  0.00866779  1.0
  Ni  Ni551  1  0.11872300  0.79142200  0.00866779  1.0
  Ni  Ni552  1  0.45205633  0.12475533  0.00866779  1.0
  Ni  Ni553  1  0.45205633  0.45808867  0.00866779  1.0
  Ni  Ni554  1  0.45205633  0.79142200  0.00866779  1.0
  Ni  Ni555  1  0.78538967  0.12475533  0.00866779  1.0
  Ni  Ni556  1  0.78538967  0.45808867  0.00866779  1.0
  Ni  Ni557  1  0.78538967  0.79142200  0.00866779  1.0
  Ni  Ni558  1  0.22967900  0.23624567  0.10397236  1.0
  Ni  Ni559  1  0.22967900  0.56957900  0.10397236  1.0
  Ni  Ni560  1  0.22967900  0.90291233  0.10397236  1.0
  Ni  Ni561  1  0.56301233  0.23624567  0.10397236  1.0
  Ni  Ni562  1  0.56301233  0.56957900  0.10397236  1.0
  Ni  Ni563  1  0.56301233  0.90291233  0.10397236  1.0
  Ni  Ni564  1  0.89634567  0.23624567  0.10397236  1.0
  Ni  Ni565  1  0.89634567  0.56957900  0.10397236  1.0
  Ni  Ni566  1  0.89634567  0.90291233  0.10397236  1.0
  Ni  Ni567  1  0.06301233  0.23624567  0.03254379  1.0
  Ni  Ni568  1  0.06301233  0.56957900  0.03254379  1.0
  Ni  Ni569  1  0.06301233  0.90291233  0.03254379  1.0
  Ni  Ni570  1  0.39634567  0.23624567  0.03254379  1.0
  Ni  Ni571  1  0.39634567  0.56957900  0.03254379  1.0
  Ni  Ni572  1  0.39634567  0.90291233  0.03254379  1.0
  Ni  Ni573  1  0.72967900  0.23624567  0.03254379  1.0
  Ni  Ni574  1  0.72967900  0.56957900  0.03254379  1.0
  Ni  Ni575  1  0.72967900  0.90291233  0.03254379  1.0
  Sn  Sn576  1  0.00706433  0.01638033  0.12795007  1.0
  Sn  Sn577  1  0.00706433  0.34971367  0.12795007  1.0
  Sn  Sn578  1  0.00706433  0.68304700  0.12795007  1.0
  Sn  Sn579  1  0.34039767  0.01638033  0.12795007  1.0
  Sn  Sn580  1  0.34039767  0.34971367  0.12795007  1.0
  Sn  Sn581  1  0.34039767  0.68304700  0.12795007  1.0
  Sn  Sn582  1  0.67373100  0.01638033  0.12795007  1.0
  Sn  Sn583  1  0.67373100  0.34971367  0.12795007  1.0
  Sn  Sn584  1  0.67373100  0.68304700  0.12795007  1.0
  Sn  Sn585  1  0.17373100  0.01638033  0.05652150  1.0
  Sn  Sn586  1  0.17373100  0.34971367  0.05652150  1.0
  Sn  Sn587  1  0.17373100  0.68304700  0.05652150  1.0
  Sn  Sn588  1  0.50706433  0.01638033  0.05652150  1.0
  Sn  Sn589  1  0.50706433  0.34971367  0.05652150  1.0
  Sn  Sn590  1  0.50706433  0.68304700  0.05652150  1.0
  Sn  Sn591  1  0.84039767  0.01638033  0.05652150  1.0
  Sn  Sn592  1  0.84039767  0.34971367  0.05652150  1.0
  Sn  Sn593  1  0.84039767  0.68304700  0.05652150  1.0
  Sn  Sn594  1  0.28461500  0.12512633  0.00899979  1.0
  Sn  Sn595  1  0.28461500  0.45845967  0.00899979  1.0
  Sn  Sn596  1  0.28461500  0.79179300  0.00899979  1.0
  Sn  Sn597  1  0.61794833  0.12512633  0.00899979  1.0
  Sn  Sn598  1  0.61794833  0.45845967  0.00899979  1.0
  Sn  Sn599  1  0.61794833  0.79179300  0.00899979  1.0
  Sn  Sn600  1  0.95128167  0.12512633  0.00899979  1.0
  Sn  Sn601  1  0.95128167  0.45845967  0.00899979  1.0
  Sn  Sn602  1  0.95128167  0.79179300  0.00899979  1.0
  Sn  Sn603  1  0.11794833  0.12512633  0.08042836  1.0
  Sn  Sn604  1  0.11794833  0.45845967  0.08042836  1.0
  Sn  Sn605  1  0.11794833  0.79179300  0.08042836  1.0
  Sn  Sn606  1  0.45128167  0.12512633  0.08042836  1.0
  Sn  Sn607  1  0.45128167  0.45845967  0.08042836  1.0
  Sn  Sn608  1  0.45128167  0.79179300  0.08042836  1.0
  Sn  Sn609  1  0.78461500  0.12512633  0.08042836  1.0
  Sn  Sn610  1  0.78461500  0.45845967  0.08042836  1.0
  Sn  Sn611  1  0.78461500  0.79179300  0.08042836  1.0
  Sn  Sn612  1  0.22956883  0.23819900  0.03259100  1.0
  Sn  Sn613  1  0.22956883  0.57153233  0.03259100  1.0
  Sn  Sn614  1  0.22956883  0.90486567  0.03259100  1.0
  Sn  Sn615  1  0.56290217  0.23819900  0.03259100  1.0
  Sn  Sn616  1  0.56290217  0.57153233  0.03259100  1.0
  Sn  Sn617  1  0.56290217  0.90486567  0.03259100  1.0
  Sn  Sn618  1  0.89623550  0.23819900  0.03259100  1.0
  Sn  Sn619  1  0.89623550  0.57153233  0.03259100  1.0
  Sn  Sn620  1  0.89623550  0.90486567  0.03259100  1.0
  Sn  Sn621  1  0.06290217  0.23819900  0.10401957  1.0
  Sn  Sn622  1  0.06290217  0.57153233  0.10401957  1.0
  Sn  Sn623  1  0.06290217  0.90486567  0.10401957  1.0
  Sn  Sn624  1  0.39623550  0.23819900  0.10401957  1.0
  Sn  Sn625  1  0.39623550  0.57153233  0.10401957  1.0
  Sn  Sn626  1  0.39623550  0.90486567  0.10401957  1.0
  Sn  Sn627  1  0.72956883  0.23819900  0.10401957  1.0
  Sn  Sn628  1  0.72956883  0.57153233  0.10401957  1.0
  Sn  Sn629  1  0.72956883  0.90486567  0.10401957  1.0
  Sn  Sn630  1  0.07682000  0.04132700  0.09805479  1.0
  Sn  Sn631  1  0.07682000  0.37466033  0.09805479  1.0
  Sn  Sn632  1  0.07682000  0.70799367  0.09805479  1.0
  Sn  Sn633  1  0.41015333  0.04132700  0.09805479  1.0
  Sn  Sn634  1  0.41015333  0.37466033  0.09805479  1.0
  Sn  Sn635  1  0.41015333  0.70799367  0.09805479  1.0
  Sn  Sn636  1  0.74348667  0.04132700  0.09805479  1.0
  Sn  Sn637  1  0.74348667  0.37466033  0.09805479  1.0
  Sn  Sn638  1  0.74348667  0.70799367  0.09805479  1.0
  Sn  Sn639  1  0.24348667  0.04132700  0.02662621  1.0
  Sn  Sn640  1  0.24348667  0.37466033  0.02662621  1.0
  Sn  Sn641  1  0.24348667  0.70799367  0.02662621  1.0
  Sn  Sn642  1  0.57682000  0.04132700  0.02662621  1.0
  Sn  Sn643  1  0.57682000  0.37466033  0.02662621  1.0
  Sn  Sn644  1  0.57682000  0.70799367  0.02662621  1.0
  Sn  Sn645  1  0.91015333  0.04132700  0.02662621  1.0
  Sn  Sn646  1  0.91015333  0.37466033  0.02662621  1.0
  Sn  Sn647  1  0.91015333  0.70799367  0.02662621  1.0
  Sn  Sn648  1  0.02157400  0.15208200  0.12173164  1.0
  Sn  Sn649  1  0.02157400  0.48541533  0.12173164  1.0
  Sn  Sn650  1  0.02157400  0.81874867  0.12173164  1.0
  Sn  Sn651  1  0.35490733  0.15208200  0.12173164  1.0
  Sn  Sn652  1  0.35490733  0.48541533  0.12173164  1.0
  Sn  Sn653  1  0.35490733  0.81874867  0.12173164  1.0
  Sn  Sn654  1  0.68824067  0.15208200  0.12173164  1.0
  Sn  Sn655  1  0.68824067  0.48541533  0.12173164  1.0
  Sn  Sn656  1  0.68824067  0.81874867  0.12173164  1.0
  Sn  Sn657  1  0.18824067  0.15208200  0.05030307  1.0
  Sn  Sn658  1  0.18824067  0.48541533  0.05030307  1.0
  Sn  Sn659  1  0.18824067  0.81874867  0.05030307  1.0
  Sn  Sn660  1  0.52157400  0.15208200  0.05030307  1.0
  Sn  Sn661  1  0.52157400  0.48541533  0.05030307  1.0
  Sn  Sn662  1  0.52157400  0.81874867  0.05030307  1.0
  Sn  Sn663  1  0.85490733  0.15208200  0.05030307  1.0
  Sn  Sn664  1  0.85490733  0.48541533  0.05030307  1.0
  Sn  Sn665  1  0.85490733  0.81874867  0.05030307  1.0
  Sn  Sn666  1  0.29975500  0.26328633  0.00251121  1.0
  Sn  Sn667  1  0.29975500  0.59661967  0.00251121  1.0
  Sn  Sn668  1  0.29975500  0.92995300  0.00251121  1.0
  Sn  Sn669  1  0.63308833  0.26328633  0.00251121  1.0
  Sn  Sn670  1  0.63308833  0.59661967  0.00251121  1.0
  Sn  Sn671  1  0.63308833  0.92995300  0.00251121  1.0
  Sn  Sn672  1  0.96642167  0.26328633  0.00251121  1.0
  Sn  Sn673  1  0.96642167  0.59661967  0.00251121  1.0
  Sn  Sn674  1  0.96642167  0.92995300  0.00251121  1.0
  Sn  Sn675  1  0.13308833  0.26328633  0.07393979  1.0
  Sn  Sn676  1  0.13308833  0.59661967  0.07393979  1.0
  Sn  Sn677  1  0.13308833  0.92995300  0.07393979  1.0
  Sn  Sn678  1  0.46642167  0.26328633  0.07393979  1.0
  Sn  Sn679  1  0.46642167  0.59661967  0.07393979  1.0
  Sn  Sn680  1  0.46642167  0.92995300  0.07393979  1.0
  Sn  Sn681  1  0.79975500  0.26328633  0.07393979  1.0
  Sn  Sn682  1  0.79975500  0.59661967  0.07393979  1.0
  Sn  Sn683  1  0.79975500  0.92995300  0.07393979  1.0
  Sn  Sn684  1  0.10255367  0.09547733  0.01559750  1.0
  Sn  Sn685  1  0.10255367  0.42881067  0.01559750  1.0
  Sn  Sn686  1  0.10255367  0.76214400  0.01559750  1.0
  Sn  Sn687  1  0.43588700  0.09547733  0.01559750  1.0
  Sn  Sn688  1  0.43588700  0.42881067  0.01559750  1.0
  Sn  Sn689  1  0.43588700  0.76214400  0.01559750  1.0
  Sn  Sn690  1  0.76922033  0.09547733  0.01559750  1.0
  Sn  Sn691  1  0.76922033  0.42881067  0.01559750  1.0
  Sn  Sn692  1  0.76922033  0.76214400  0.01559750  1.0
  Sn  Sn693  1  0.26922033  0.09547733  0.08702607  1.0
  Sn  Sn694  1  0.26922033  0.42881067  0.08702607  1.0
  Sn  Sn695  1  0.26922033  0.76214400  0.08702607  1.0
  Sn  Sn696  1  0.60255367  0.09547733  0.08702607  1.0
  Sn  Sn697  1  0.60255367  0.42881067  0.08702607  1.0
  Sn  Sn698  1  0.60255367  0.76214400  0.08702607  1.0
  Sn  Sn699  1  0.93588700  0.09547733  0.08702607  1.0
  Sn  Sn700  1  0.93588700  0.42881067  0.08702607  1.0
  Sn  Sn701  1  0.93588700  0.76214400  0.08702607  1.0
  Sn  Sn702  1  0.04647917  0.20651500  0.03962943  1.0
  Sn  Sn703  1  0.04647917  0.53984833  0.03962943  1.0
  Sn  Sn704  1  0.04647917  0.87318167  0.03962943  1.0
  Sn  Sn705  1  0.37981250  0.20651500  0.03962943  1.0
  Sn  Sn706  1  0.37981250  0.53984833  0.03962943  1.0
  Sn  Sn707  1  0.37981250  0.87318167  0.03962943  1.0
  Sn  Sn708  1  0.71314583  0.20651500  0.03962943  1.0
  Sn  Sn709  1  0.71314583  0.53984833  0.03962943  1.0
  Sn  Sn710  1  0.71314583  0.87318167  0.03962943  1.0
  Sn  Sn711  1  0.21314583  0.20651500  0.11105800  1.0
  Sn  Sn712  1  0.21314583  0.53984833  0.11105800  1.0
  Sn  Sn713  1  0.21314583  0.87318167  0.11105800  1.0
  Sn  Sn714  1  0.54647917  0.20651500  0.11105800  1.0
  Sn  Sn715  1  0.54647917  0.53984833  0.11105800  1.0
  Sn  Sn716  1  0.54647917  0.87318167  0.11105800  1.0
  Sn  Sn717  1  0.87981250  0.20651500  0.11105800  1.0
  Sn  Sn718  1  0.87981250  0.53984833  0.11105800  1.0
  Sn  Sn719  1  0.87981250  0.87318167  0.11105800  1.0
  Sn  Sn720  1  0.32415983  0.31784700  0.06348057  1.0
  Sn  Sn721  1  0.32415983  0.65118033  0.06348057  1.0
  Sn  Sn722  1  0.32415983  0.98451367  0.06348057  1.0
  Sn  Sn723  1  0.65749317  0.31784700  0.06348057  1.0
  Sn  Sn724  1  0.65749317  0.65118033  0.06348057  1.0
  Sn  Sn725  1  0.65749317  0.98451367  0.06348057  1.0
  Sn  Sn726  1  0.99082650  0.31784700  0.06348057  1.0
  Sn  Sn727  1  0.99082650  0.65118033  0.06348057  1.0
  Sn  Sn728  1  0.99082650  0.98451367  0.06348057  1.0
  Sn  Sn729  1  0.15749317  0.31784700  0.13490914  1.0
  Sn  Sn730  1  0.15749317  0.65118033  0.13490914  1.0
  Sn  Sn731  1  0.15749317  0.98451367  0.13490914  1.0
  Sn  Sn732  1  0.49082650  0.31784700  0.13490914  1.0
  Sn  Sn733  1  0.49082650  0.65118033  0.13490914  1.0
  Sn  Sn734  1  0.49082650  0.98451367  0.13490914  1.0
  Sn  Sn735  1  0.82415983  0.31784700  0.13490914  1.0
  Sn  Sn736  1  0.82415983  0.65118033  0.13490914  1.0
  Sn  Sn737  1  0.82415983  0.98451367  0.13490914  1.0
  Sn  Sn738  1  0.03208733  0.07119533  0.04579736  1.0
  Sn  Sn739  1  0.03208733  0.40452867  0.04579736  1.0
  Sn  Sn740  1  0.03208733  0.73786200  0.04579736  1.0
  Sn  Sn741  1  0.36542067  0.07119533  0.04579736  1.0
  Sn  Sn742  1  0.36542067  0.40452867  0.04579736  1.0
  Sn  Sn743  1  0.36542067  0.73786200  0.04579736  1.0
  Sn  Sn744  1  0.69875400  0.07119533  0.04579736  1.0
  Sn  Sn745  1  0.69875400  0.40452867  0.04579736  1.0
  Sn  Sn746  1  0.69875400  0.73786200  0.04579736  1.0
  Sn  Sn747  1  0.19875400  0.07119533  0.11722593  1.0
  Sn  Sn748  1  0.19875400  0.40452867  0.11722593  1.0
  Sn  Sn749  1  0.19875400  0.73786200  0.11722593  1.0
  Sn  Sn750  1  0.53208733  0.07119533  0.11722593  1.0
  Sn  Sn751  1  0.53208733  0.40452867  0.11722593  1.0
  Sn  Sn752  1  0.53208733  0.73786200  0.11722593  1.0
  Sn  Sn753  1  0.86542067  0.07119533  0.11722593  1.0
  Sn  Sn754  1  0.86542067  0.40452867  0.11722593  1.0
  Sn  Sn755  1  0.86542067  0.73786200  0.11722593  1.0
  Sn  Sn756  1  0.30870167  0.18223167  0.07010550  1.0
  Sn  Sn757  1  0.30870167  0.51556500  0.07010550  1.0
  Sn  Sn758  1  0.30870167  0.84889833  0.07010550  1.0
  Sn  Sn759  1  0.64203500  0.18223167  0.07010550  1.0
  Sn  Sn760  1  0.64203500  0.51556500  0.07010550  1.0
  Sn  Sn761  1  0.64203500  0.84889833  0.07010550  1.0
  Sn  Sn762  1  0.97536833  0.18223167  0.07010550  1.0
  Sn  Sn763  1  0.97536833  0.51556500  0.07010550  1.0
  Sn  Sn764  1  0.97536833  0.84889833  0.07010550  1.0
  Sn  Sn765  1  0.14203500  0.18223167  0.14153407  1.0
  Sn  Sn766  1  0.14203500  0.51556500  0.14153407  1.0
  Sn  Sn767  1  0.14203500  0.84889833  0.14153407  1.0
  Sn  Sn768  1  0.47536833  0.18223167  0.14153407  1.0
  Sn  Sn769  1  0.47536833  0.51556500  0.14153407  1.0
  Sn  Sn770  1  0.47536833  0.84889833  0.14153407  1.0
  Sn  Sn771  1  0.80870167  0.18223167  0.14153407  1.0
  Sn  Sn772  1  0.80870167  0.51556500  0.14153407  1.0
  Sn  Sn773  1  0.80870167  0.84889833  0.14153407  1.0
  Sn  Sn774  1  0.25355200  0.29347033  0.09374107  1.0
  Sn  Sn775  1  0.25355200  0.62680367  0.09374107  1.0
  Sn  Sn776  1  0.25355200  0.96013700  0.09374107  1.0
  Sn  Sn777  1  0.58688533  0.29347033  0.09374107  1.0
  Sn  Sn778  1  0.58688533  0.62680367  0.09374107  1.0
  Sn  Sn779  1  0.58688533  0.96013700  0.09374107  1.0
  Sn  Sn780  1  0.92021867  0.29347033  0.09374107  1.0
  Sn  Sn781  1  0.92021867  0.62680367  0.09374107  1.0
  Sn  Sn782  1  0.92021867  0.96013700  0.09374107  1.0
  Sn  Sn783  1  0.08688533  0.29347033  0.02231250  1.0
  Sn  Sn784  1  0.08688533  0.62680367  0.02231250  1.0
  Sn  Sn785  1  0.08688533  0.96013700  0.02231250  1.0
  Sn  Sn786  1  0.42021867  0.29347033  0.02231250  1.0
  Sn  Sn787  1  0.42021867  0.62680367  0.02231250  1.0
  Sn  Sn788  1  0.42021867  0.96013700  0.02231250  1.0
  Sn  Sn789  1  0.75355200  0.29347033  0.02231250  1.0
  Sn  Sn790  1  0.75355200  0.62680367  0.02231250  1.0
  Sn  Sn791  1  0.75355200  0.96013700  0.02231250  1.0
  Sn  Sn792  1  0.31272083  0.06958133  0.13981157  1.0
  Sn  Sn793  1  0.31272083  0.40291467  0.13981157  1.0
  Sn  Sn794  1  0.31272083  0.73624800  0.13981157  1.0
  Sn  Sn795  1  0.64605417  0.06958133  0.13981157  1.0
  Sn  Sn796  1  0.64605417  0.40291467  0.13981157  1.0
  Sn  Sn797  1  0.64605417  0.73624800  0.13981157  1.0
  Sn  Sn798  1  0.97938750  0.06958133  0.13981157  1.0
  Sn  Sn799  1  0.97938750  0.40291467  0.13981157  1.0
  Sn  Sn800  1  0.97938750  0.73624800  0.13981157  1.0
  Sn  Sn801  1  0.14605417  0.06958133  0.06838300  1.0
  Sn  Sn802  1  0.14605417  0.40291467  0.06838300  1.0
  Sn  Sn803  1  0.14605417  0.73624800  0.06838300  1.0
  Sn  Sn804  1  0.47938750  0.06958133  0.06838300  1.0
  Sn  Sn805  1  0.47938750  0.40291467  0.06838300  1.0
  Sn  Sn806  1  0.47938750  0.73624800  0.06838300  1.0
  Sn  Sn807  1  0.81272083  0.06958133  0.06838300  1.0
  Sn  Sn808  1  0.81272083  0.40291467  0.06838300  1.0
  Sn  Sn809  1  0.81272083  0.73624800  0.06838300  1.0
  Sn  Sn810  1  0.26029600  0.17837600  0.01942221  1.0
  Sn  Sn811  1  0.26029600  0.51170933  0.01942221  1.0
  Sn  Sn812  1  0.26029600  0.84504267  0.01942221  1.0
  Sn  Sn813  1  0.59362933  0.17837600  0.01942221  1.0
  Sn  Sn814  1  0.59362933  0.51170933  0.01942221  1.0
  Sn  Sn815  1  0.59362933  0.84504267  0.01942221  1.0
  Sn  Sn816  1  0.92696267  0.17837600  0.01942221  1.0
  Sn  Sn817  1  0.92696267  0.51170933  0.01942221  1.0
  Sn  Sn818  1  0.92696267  0.84504267  0.01942221  1.0
  Sn  Sn819  1  0.09362933  0.17837600  0.09085079  1.0
  Sn  Sn820  1  0.09362933  0.51170933  0.09085079  1.0
  Sn  Sn821  1  0.09362933  0.84504267  0.09085079  1.0
  Sn  Sn822  1  0.42696267  0.17837600  0.09085079  1.0
  Sn  Sn823  1  0.42696267  0.51170933  0.09085079  1.0
  Sn  Sn824  1  0.42696267  0.84504267  0.09085079  1.0
  Sn  Sn825  1  0.76029600  0.17837600  0.09085079  1.0
  Sn  Sn826  1  0.76029600  0.51170933  0.09085079  1.0
  Sn  Sn827  1  0.76029600  0.84504267  0.09085079  1.0
  Sn  Sn828  1  0.20468000  0.28984500  0.04325764  1.0
  Sn  Sn829  1  0.20468000  0.62317833  0.04325764  1.0
  Sn  Sn830  1  0.20468000  0.95651167  0.04325764  1.0
  Sn  Sn831  1  0.53801333  0.28984500  0.04325764  1.0
  Sn  Sn832  1  0.53801333  0.62317833  0.04325764  1.0
  Sn  Sn833  1  0.53801333  0.95651167  0.04325764  1.0
  Sn  Sn834  1  0.87134667  0.28984500  0.04325764  1.0
  Sn  Sn835  1  0.87134667  0.62317833  0.04325764  1.0
  Sn  Sn836  1  0.87134667  0.95651167  0.04325764  1.0
  Sn  Sn837  1  0.03801333  0.28984500  0.11468621  1.0
  Sn  Sn838  1  0.03801333  0.62317833  0.11468621  1.0
  Sn  Sn839  1  0.03801333  0.95651167  0.11468621  1.0
  Sn  Sn840  1  0.37134667  0.28984500  0.11468621  1.0
  Sn  Sn841  1  0.37134667  0.62317833  0.11468621  1.0
  Sn  Sn842  1  0.37134667  0.95651167  0.11468621  1.0
  Sn  Sn843  1  0.70468000  0.28984500  0.11468621  1.0
  Sn  Sn844  1  0.70468000  0.62317833  0.11468621  1.0
  Sn  Sn845  1  0.70468000  0.95651167  0.11468621  1.0
  Sn  Sn846  1  0.04852500  0.09751133  0.11018121  1.0
  Sn  Sn847  1  0.04852500  0.43084467  0.11018121  1.0
  Sn  Sn848  1  0.04852500  0.76417800  0.11018121  1.0
  Sn  Sn849  1  0.38185833  0.09751133  0.11018121  1.0
  Sn  Sn850  1  0.38185833  0.43084467  0.11018121  1.0
  Sn  Sn851  1  0.38185833  0.76417800  0.11018121  1.0
  Sn  Sn852  1  0.71519167  0.09751133  0.11018121  1.0
  Sn  Sn853  1  0.71519167  0.43084467  0.11018121  1.0
  Sn  Sn854  1  0.71519167  0.76417800  0.11018121  1.0
  Sn  Sn855  1  0.21519167  0.09751133  0.03875264  1.0
  Sn  Sn856  1  0.21519167  0.43084467  0.03875264  1.0
  Sn  Sn857  1  0.21519167  0.76417800  0.03875264  1.0
  Sn  Sn858  1  0.54852500  0.09751133  0.03875264  1.0
  Sn  Sn859  1  0.54852500  0.43084467  0.03875264  1.0
  Sn  Sn860  1  0.54852500  0.76417800  0.03875264  1.0
  Sn  Sn861  1  0.88185833  0.09751133  0.03875264  1.0
  Sn  Sn862  1  0.88185833  0.43084467  0.03875264  1.0
  Sn  Sn863  1  0.88185833  0.76417800  0.03875264  1.0
  Sn  Sn864  1  0.32110017  0.20860933  0.13622043  1.0
  Sn  Sn865  1  0.32110017  0.54194267  0.13622043  1.0
  Sn  Sn866  1  0.32110017  0.87527600  0.13622043  1.0
  Sn  Sn867  1  0.65443350  0.20860933  0.13622043  1.0
  Sn  Sn868  1  0.65443350  0.54194267  0.13622043  1.0
  Sn  Sn869  1  0.65443350  0.87527600  0.13622043  1.0
  Sn  Sn870  1  0.98776683  0.20860933  0.13622043  1.0
  Sn  Sn871  1  0.98776683  0.54194267  0.13622043  1.0
  Sn  Sn872  1  0.98776683  0.87527600  0.13622043  1.0
  Sn  Sn873  1  0.15443350  0.20860933  0.06479186  1.0
  Sn  Sn874  1  0.15443350  0.54194267  0.06479186  1.0
  Sn  Sn875  1  0.15443350  0.87527600  0.06479186  1.0
  Sn  Sn876  1  0.48776683  0.20860933  0.06479186  1.0
  Sn  Sn877  1  0.48776683  0.54194267  0.06479186  1.0
  Sn  Sn878  1  0.48776683  0.87527600  0.06479186  1.0
  Sn  Sn879  1  0.82110017  0.20860933  0.06479186  1.0
  Sn  Sn880  1  0.82110017  0.54194267  0.06479186  1.0
  Sn  Sn881  1  0.82110017  0.87527600  0.06479186  1.0
  Sn  Sn882  1  0.26546017  0.31964667  0.01720900  1.0
  Sn  Sn883  1  0.26546017  0.65298000  0.01720900  1.0
  Sn  Sn884  1  0.26546017  0.98631333  0.01720900  1.0
  Sn  Sn885  1  0.59879350  0.31964667  0.01720900  1.0
  Sn  Sn886  1  0.59879350  0.65298000  0.01720900  1.0
  Sn  Sn887  1  0.59879350  0.98631333  0.01720900  1.0
  Sn  Sn888  1  0.93212683  0.31964667  0.01720900  1.0
  Sn  Sn889  1  0.93212683  0.65298000  0.01720900  1.0
  Sn  Sn890  1  0.93212683  0.98631333  0.01720900  1.0
  Sn  Sn891  1  0.09879350  0.31964667  0.08863757  1.0
  Sn  Sn892  1  0.09879350  0.65298000  0.08863757  1.0
  Sn  Sn893  1  0.09879350  0.98631333  0.08863757  1.0
  Sn  Sn894  1  0.43212683  0.31964667  0.08863757  1.0
  Sn  Sn895  1  0.43212683  0.65298000  0.08863757  1.0
  Sn  Sn896  1  0.43212683  0.98631333  0.08863757  1.0
  Sn  Sn897  1  0.76546017  0.31964667  0.08863757  1.0
  Sn  Sn898  1  0.76546017  0.65298000  0.08863757  1.0
  Sn  Sn899  1  0.76546017  0.98631333  0.08863757  1.0
  Sn  Sn900  1  0.13405500  0.04551933  0.00209693  1.0
  Sn  Sn901  1  0.13405500  0.37885267  0.00209693  1.0
  Sn  Sn902  1  0.13405500  0.71218600  0.00209693  1.0
  Sn  Sn903  1  0.46738833  0.04551933  0.00209693  1.0
  Sn  Sn904  1  0.46738833  0.37885267  0.00209693  1.0
  Sn  Sn905  1  0.46738833  0.71218600  0.00209693  1.0
  Sn  Sn906  1  0.80072167  0.04551933  0.00209693  1.0
  Sn  Sn907  1  0.80072167  0.37885267  0.00209693  1.0
  Sn  Sn908  1  0.80072167  0.71218600  0.00209693  1.0
  Sn  Sn909  1  0.30072167  0.04551933  0.07352550  1.0
  Sn  Sn910  1  0.30072167  0.37885267  0.07352550  1.0
  Sn  Sn911  1  0.30072167  0.71218600  0.07352550  1.0
  Sn  Sn912  1  0.63405500  0.04551933  0.07352550  1.0
  Sn  Sn913  1  0.63405500  0.37885267  0.07352550  1.0
  Sn  Sn914  1  0.63405500  0.71218600  0.07352550  1.0
  Sn  Sn915  1  0.96738833  0.04551933  0.07352550  1.0
  Sn  Sn916  1  0.96738833  0.37885267  0.07352550  1.0
  Sn  Sn917  1  0.96738833  0.71218600  0.07352550  1.0
  Sn  Sn918  1  0.07870683  0.15611600  0.02581757  1.0
  Sn  Sn919  1  0.07870683  0.48944933  0.02581757  1.0
  Sn  Sn920  1  0.07870683  0.82278267  0.02581757  1.0
  Sn  Sn921  1  0.41204017  0.15611600  0.02581757  1.0
  Sn  Sn922  1  0.41204017  0.48944933  0.02581757  1.0
  Sn  Sn923  1  0.41204017  0.82278267  0.02581757  1.0
  Sn  Sn924  1  0.74537350  0.15611600  0.02581757  1.0
  Sn  Sn925  1  0.74537350  0.48944933  0.02581757  1.0
  Sn  Sn926  1  0.74537350  0.82278267  0.02581757  1.0
  Sn  Sn927  1  0.24537350  0.15611600  0.09724614  1.0
  Sn  Sn928  1  0.24537350  0.48944933  0.09724614  1.0
  Sn  Sn929  1  0.24537350  0.82278267  0.09724614  1.0
  Sn  Sn930  1  0.57870683  0.15611600  0.09724614  1.0
  Sn  Sn931  1  0.57870683  0.48944933  0.09724614  1.0
  Sn  Sn932  1  0.57870683  0.82278267  0.09724614  1.0
  Sn  Sn933  1  0.91204017  0.15611600  0.09724614  1.0
  Sn  Sn934  1  0.91204017  0.48944933  0.09724614  1.0
  Sn  Sn935  1  0.91204017  0.82278267  0.09724614  1.0
  Sn  Sn936  1  0.02326867  0.26767333  0.04957679  1.0
  Sn  Sn937  1  0.02326867  0.60100667  0.04957679  1.0
  Sn  Sn938  1  0.02326867  0.93434000  0.04957679  1.0
  Sn  Sn939  1  0.35660200  0.26767333  0.04957679  1.0
  Sn  Sn940  1  0.35660200  0.60100667  0.04957679  1.0
  Sn  Sn941  1  0.35660200  0.93434000  0.04957679  1.0
  Sn  Sn942  1  0.68993533  0.26767333  0.04957679  1.0
  Sn  Sn943  1  0.68993533  0.60100667  0.04957679  1.0
  Sn  Sn944  1  0.68993533  0.93434000  0.04957679  1.0
  Sn  Sn945  1  0.18993533  0.26767333  0.12100536  1.0
  Sn  Sn946  1  0.18993533  0.60100667  0.12100536  1.0
  Sn  Sn947  1  0.18993533  0.93434000  0.12100536  1.0
  Sn  Sn948  1  0.52326867  0.26767333  0.12100536  1.0
  Sn  Sn949  1  0.52326867  0.60100667  0.12100536  1.0
  Sn  Sn950  1  0.52326867  0.93434000  0.12100536  1.0
  Sn  Sn951  1  0.85660200  0.26767333  0.12100536  1.0
  Sn  Sn952  1  0.85660200  0.60100667  0.12100536  1.0
  Sn  Sn953  1  0.85660200  0.93434000  0.12100536  1.0
  Sn  Sn954  1  0.06774167  0.01031033  0.03051693  1.0
  Sn  Sn955  1  0.06774167  0.34364367  0.03051693  1.0
  Sn  Sn956  1  0.06774167  0.67697700  0.03051693  1.0
  Sn  Sn957  1  0.40107500  0.01031033  0.03051693  1.0
  Sn  Sn958  1  0.40107500  0.34364367  0.03051693  1.0
  Sn  Sn959  1  0.40107500  0.67697700  0.03051693  1.0
  Sn  Sn960  1  0.73440833  0.01031033  0.03051693  1.0
  Sn  Sn961  1  0.73440833  0.34364367  0.03051693  1.0
  Sn  Sn962  1  0.73440833  0.67697700  0.03051693  1.0
  Sn  Sn963  1  0.23440833  0.01031033  0.10194550  1.0
  Sn  Sn964  1  0.23440833  0.34364367  0.10194550  1.0
  Sn  Sn965  1  0.23440833  0.67697700  0.10194550  1.0
  Sn  Sn966  1  0.56774167  0.01031033  0.10194550  1.0
  Sn  Sn967  1  0.56774167  0.34364367  0.10194550  1.0
  Sn  Sn968  1  0.56774167  0.67697700  0.10194550  1.0
  Sn  Sn969  1  0.90107500  0.01031033  0.10194550  1.0
  Sn  Sn970  1  0.90107500  0.34364367  0.10194550  1.0
  Sn  Sn971  1  0.90107500  0.67697700  0.10194550  1.0
  Sn  Sn972  1  0.01286950  0.12155833  0.05403357  1.0
  Sn  Sn973  1  0.01286950  0.45489167  0.05403357  1.0
  Sn  Sn974  1  0.01286950  0.78822500  0.05403357  1.0
  Sn  Sn975  1  0.34620283  0.12155833  0.05403357  1.0
  Sn  Sn976  1  0.34620283  0.45489167  0.05403357  1.0
  Sn  Sn977  1  0.34620283  0.78822500  0.05403357  1.0
  Sn  Sn978  1  0.67953617  0.12155833  0.05403357  1.0
  Sn  Sn979  1  0.67953617  0.45489167  0.05403357  1.0
  Sn  Sn980  1  0.67953617  0.78822500  0.05403357  1.0
  Sn  Sn981  1  0.17953617  0.12155833  0.12546214  1.0
  Sn  Sn982  1  0.17953617  0.45489167  0.12546214  1.0
  Sn  Sn983  1  0.17953617  0.78822500  0.12546214  1.0
  Sn  Sn984  1  0.51286950  0.12155833  0.12546214  1.0
  Sn  Sn985  1  0.51286950  0.45489167  0.12546214  1.0
  Sn  Sn986  1  0.51286950  0.78822500  0.12546214  1.0
  Sn  Sn987  1  0.84620283  0.12155833  0.12546214  1.0
  Sn  Sn988  1  0.84620283  0.45489167  0.12546214  1.0
  Sn  Sn989  1  0.84620283  0.78822500  0.12546214  1.0
  Sn  Sn990  1  0.29012883  0.23259767  0.07806529  1.0
  Sn  Sn991  1  0.29012883  0.56593100  0.07806529  1.0
  Sn  Sn992  1  0.29012883  0.89926433  0.07806529  1.0
  Sn  Sn993  1  0.62346217  0.23259767  0.07806529  1.0
  Sn  Sn994  1  0.62346217  0.56593100  0.07806529  1.0
  Sn  Sn995  1  0.62346217  0.89926433  0.07806529  1.0
  Sn  Sn996  1  0.95679550  0.23259767  0.07806529  1.0
  Sn  Sn997  1  0.95679550  0.56593100  0.07806529  1.0
  Sn  Sn998  1  0.95679550  0.89926433  0.07806529  1.0
  Sn  Sn999  1  0.12346217  0.23259767  0.00663671  1.0
  Sn  Sn1000  1  0.12346217  0.56593100  0.00663671  1.0
  Sn  Sn1001  1  0.12346217  0.89926433  0.00663671  1.0
  Sn  Sn1002  1  0.45679550  0.23259767  0.00663671  1.0
  Sn  Sn1003  1  0.45679550  0.56593100  0.00663671  1.0
  Sn  Sn1004  1  0.45679550  0.89926433  0.00663671  1.0
  Sn  Sn1005  1  0.79012883  0.23259767  0.00663671  1.0
  Sn  Sn1006  1  0.79012883  0.56593100  0.00663671  1.0
  Sn  Sn1007  1  0.79012883  0.89926433  0.00663671  1.0
  Ni  Ni1008  1  0.08901333  0.06943867  0.20034607  1.0
  Ni  Ni1009  1  0.08901333  0.40277200  0.20034607  1.0
  Ni  Ni1010  1  0.08901333  0.73610533  0.20034607  1.0
  Ni  Ni1011  1  0.42234667  0.06943867  0.20034607  1.0
  Ni  Ni1012  1  0.42234667  0.40277200  0.20034607  1.0
  Ni  Ni1013  1  0.42234667  0.73610533  0.20034607  1.0
  Ni  Ni1014  1  0.75568000  0.06943867  0.20034607  1.0
  Ni  Ni1015  1  0.75568000  0.40277200  0.20034607  1.0
  Ni  Ni1016  1  0.75568000  0.73610533  0.20034607  1.0
  Ni  Ni1017  1  0.25568000  0.06943867  0.27177464  1.0
  Ni  Ni1018  1  0.25568000  0.40277200  0.27177464  1.0
  Ni  Ni1019  1  0.25568000  0.73610533  0.27177464  1.0
  Ni  Ni1020  1  0.58901333  0.06943867  0.27177464  1.0
  Ni  Ni1021  1  0.58901333  0.40277200  0.27177464  1.0
  Ni  Ni1022  1  0.58901333  0.73610533  0.27177464  1.0
  Ni  Ni1023  1  0.92234667  0.06943867  0.27177464  1.0
  Ni  Ni1024  1  0.92234667  0.40277200  0.27177464  1.0
  Ni  Ni1025  1  0.92234667  0.73610533  0.27177464  1.0
  Ni  Ni1026  1  0.03290100  0.18044800  0.22471793  1.0
  Ni  Ni1027  1  0.03290100  0.51378133  0.22471793  1.0
  Ni  Ni1028  1  0.03290100  0.84711467  0.22471793  1.0
  Ni  Ni1029  1  0.36623433  0.18044800  0.22471793  1.0
  Ni  Ni1030  1  0.36623433  0.51378133  0.22471793  1.0
  Ni  Ni1031  1  0.36623433  0.84711467  0.22471793  1.0
  Ni  Ni1032  1  0.69956767  0.18044800  0.22471793  1.0
  Ni  Ni1033  1  0.69956767  0.51378133  0.22471793  1.0
  Ni  Ni1034  1  0.69956767  0.84711467  0.22471793  1.0
  Ni  Ni1035  1  0.19956767  0.18044800  0.15328936  1.0
  Ni  Ni1036  1  0.19956767  0.51378133  0.15328936  1.0
  Ni  Ni1037  1  0.19956767  0.84711467  0.15328936  1.0
  Ni  Ni1038  1  0.53290100  0.18044800  0.15328936  1.0
  Ni  Ni1039  1  0.53290100  0.51378133  0.15328936  1.0
  Ni  Ni1040  1  0.53290100  0.84711467  0.15328936  1.0
  Ni  Ni1041  1  0.86623433  0.18044800  0.15328936  1.0
  Ni  Ni1042  1  0.86623433  0.51378133  0.15328936  1.0
  Ni  Ni1043  1  0.86623433  0.84711467  0.15328936  1.0
  Ni  Ni1044  1  0.31080783  0.29162400  0.24842386  1.0
  Ni  Ni1045  1  0.31080783  0.62495733  0.24842386  1.0
  Ni  Ni1046  1  0.31080783  0.95829067  0.24842386  1.0
  Ni  Ni1047  1  0.64414117  0.29162400  0.24842386  1.0
  Ni  Ni1048  1  0.64414117  0.62495733  0.24842386  1.0
  Ni  Ni1049  1  0.64414117  0.95829067  0.24842386  1.0
  Ni  Ni1050  1  0.97747450  0.29162400  0.24842386  1.0
  Ni  Ni1051  1  0.97747450  0.62495733  0.24842386  1.0
  Ni  Ni1052  1  0.97747450  0.95829067  0.24842386  1.0
  Ni  Ni1053  1  0.14414117  0.29162400  0.17699529  1.0
  Ni  Ni1054  1  0.14414117  0.62495733  0.17699529  1.0
  Ni  Ni1055  1  0.14414117  0.95829067  0.17699529  1.0
  Ni  Ni1056  1  0.47747450  0.29162400  0.17699529  1.0
  Ni  Ni1057  1  0.47747450  0.62495733  0.17699529  1.0
  Ni  Ni1058  1  0.47747450  0.95829067  0.17699529  1.0
  Ni  Ni1059  1  0.81080783  0.29162400  0.17699529  1.0
  Ni  Ni1060  1  0.81080783  0.62495733  0.17699529  1.0
  Ni  Ni1061  1  0.81080783  0.95829067  0.17699529  1.0
  Ni  Ni1062  1  0.32510200  0.09731333  0.16999607  1.0
  Ni  Ni1063  1  0.32510200  0.43064667  0.16999607  1.0
  Ni  Ni1064  1  0.32510200  0.76398000  0.16999607  1.0
  Ni  Ni1065  1  0.65843533  0.09731333  0.16999607  1.0
  Ni  Ni1066  1  0.65843533  0.43064667  0.16999607  1.0
  Ni  Ni1067  1  0.65843533  0.76398000  0.16999607  1.0
  Ni  Ni1068  1  0.99176867  0.09731333  0.16999607  1.0
  Ni  Ni1069  1  0.99176867  0.43064667  0.16999607  1.0
  Ni  Ni1070  1  0.99176867  0.76398000  0.16999607  1.0
  Ni  Ni1071  1  0.15843533  0.09731333  0.24142464  1.0
  Ni  Ni1072  1  0.15843533  0.43064667  0.24142464  1.0
  Ni  Ni1073  1  0.15843533  0.76398000  0.24142464  1.0
  Ni  Ni1074  1  0.49176867  0.09731333  0.24142464  1.0
  Ni  Ni1075  1  0.49176867  0.43064667  0.24142464  1.0
  Ni  Ni1076  1  0.49176867  0.76398000  0.24142464  1.0
  Ni  Ni1077  1  0.82510200  0.09731333  0.24142464  1.0
  Ni  Ni1078  1  0.82510200  0.43064667  0.24142464  1.0
  Ni  Ni1079  1  0.82510200  0.76398000  0.24142464  1.0
  Ni  Ni1080  1  0.26805600  0.20841433  0.19436393  1.0
  Ni  Ni1081  1  0.26805600  0.54174767  0.19436393  1.0
  Ni  Ni1082  1  0.26805600  0.87508100  0.19436393  1.0
  Ni  Ni1083  1  0.60138933  0.20841433  0.19436393  1.0
  Ni  Ni1084  1  0.60138933  0.54174767  0.19436393  1.0
  Ni  Ni1085  1  0.60138933  0.87508100  0.19436393  1.0
  Ni  Ni1086  1  0.93472267  0.20841433  0.19436393  1.0
  Ni  Ni1087  1  0.93472267  0.54174767  0.19436393  1.0
  Ni  Ni1088  1  0.93472267  0.87508100  0.19436393  1.0
  Ni  Ni1089  1  0.10138933  0.20841433  0.26579250  1.0
  Ni  Ni1090  1  0.10138933  0.54174767  0.26579250  1.0
  Ni  Ni1091  1  0.10138933  0.87508100  0.26579250  1.0
  Ni  Ni1092  1  0.43472267  0.20841433  0.26579250  1.0
  Ni  Ni1093  1  0.43472267  0.54174767  0.26579250  1.0
  Ni  Ni1094  1  0.43472267  0.87508100  0.26579250  1.0
  Ni  Ni1095  1  0.76805600  0.20841433  0.26579250  1.0
  Ni  Ni1096  1  0.76805600  0.54174767  0.26579250  1.0
  Ni  Ni1097  1  0.76805600  0.87508100  0.26579250  1.0
  Ni  Ni1098  1  0.21231500  0.31971167  0.21818950  1.0
  Ni  Ni1099  1  0.21231500  0.65304500  0.21818950  1.0
  Ni  Ni1100  1  0.21231500  0.98637833  0.21818950  1.0
  Ni  Ni1101  1  0.54564833  0.31971167  0.21818950  1.0
  Ni  Ni1102  1  0.54564833  0.65304500  0.21818950  1.0
  Ni  Ni1103  1  0.54564833  0.98637833  0.21818950  1.0
  Ni  Ni1104  1  0.87898167  0.31971167  0.21818950  1.0
  Ni  Ni1105  1  0.87898167  0.65304500  0.21818950  1.0
  Ni  Ni1106  1  0.87898167  0.98637833  0.21818950  1.0
  Ni  Ni1107  1  0.04564833  0.31971167  0.14676093  1.0
  Ni  Ni1108  1  0.04564833  0.65304500  0.14676093  1.0
  Ni  Ni1109  1  0.04564833  0.98637833  0.14676093  1.0
  Ni  Ni1110  1  0.37898167  0.31971167  0.14676093  1.0
  Ni  Ni1111  1  0.37898167  0.65304500  0.14676093  1.0
  Ni  Ni1112  1  0.37898167  0.98637833  0.14676093  1.0
  Ni  Ni1113  1  0.71231500  0.31971167  0.14676093  1.0
  Ni  Ni1114  1  0.71231500  0.65304500  0.14676093  1.0
  Ni  Ni1115  1  0.71231500  0.98637833  0.14676093  1.0
  Ni  Ni1116  1  0.02240867  0.04219900  0.15769607  1.0
  Ni  Ni1117  1  0.02240867  0.37553233  0.15769607  1.0
  Ni  Ni1118  1  0.02240867  0.70886567  0.15769607  1.0
  Ni  Ni1119  1  0.35574200  0.04219900  0.15769607  1.0
  Ni  Ni1120  1  0.35574200  0.37553233  0.15769607  1.0
  Ni  Ni1121  1  0.35574200  0.70886567  0.15769607  1.0
  Ni  Ni1122  1  0.68907533  0.04219900  0.15769607  1.0
  Ni  Ni1123  1  0.68907533  0.37553233  0.15769607  1.0
  Ni  Ni1124  1  0.68907533  0.70886567  0.15769607  1.0
  Ni  Ni1125  1  0.18907533  0.04219900  0.22912464  1.0
  Ni  Ni1126  1  0.18907533  0.37553233  0.22912464  1.0
  Ni  Ni1127  1  0.18907533  0.70886567  0.22912464  1.0
  Ni  Ni1128  1  0.52240867  0.04219900  0.22912464  1.0
  Ni  Ni1129  1  0.52240867  0.37553233  0.22912464  1.0
  Ni  Ni1130  1  0.52240867  0.70886567  0.22912464  1.0
  Ni  Ni1131  1  0.85574200  0.04219900  0.22912464  1.0
  Ni  Ni1132  1  0.85574200  0.37553233  0.22912464  1.0
  Ni  Ni1133  1  0.85574200  0.70886567  0.22912464  1.0
  Ni  Ni1134  1  0.30076617  0.15207567  0.18145229  1.0
  Ni  Ni1135  1  0.30076617  0.48540900  0.18145229  1.0
  Ni  Ni1136  1  0.30076617  0.81874233  0.18145229  1.0
  Ni  Ni1137  1  0.63409950  0.15207567  0.18145229  1.0
  Ni  Ni1138  1  0.63409950  0.48540900  0.18145229  1.0
  Ni  Ni1139  1  0.63409950  0.81874233  0.18145229  1.0
  Ni  Ni1140  1  0.96743283  0.15207567  0.18145229  1.0
  Ni  Ni1141  1  0.96743283  0.48540900  0.18145229  1.0
  Ni  Ni1142  1  0.96743283  0.81874233  0.18145229  1.0
  Ni  Ni1143  1  0.13409950  0.15207567  0.25288086  1.0
  Ni  Ni1144  1  0.13409950  0.48540900  0.25288086  1.0
  Ni  Ni1145  1  0.13409950  0.81874233  0.25288086  1.0
  Ni  Ni1146  1  0.46743283  0.15207567  0.25288086  1.0
  Ni  Ni1147  1  0.46743283  0.48540900  0.25288086  1.0
  Ni  Ni1148  1  0.46743283  0.81874233  0.25288086  1.0
  Ni  Ni1149  1  0.80076617  0.15207567  0.25288086  1.0
  Ni  Ni1150  1  0.80076617  0.48540900  0.25288086  1.0
  Ni  Ni1151  1  0.80076617  0.81874233  0.25288086  1.0
  Ni  Ni1152  1  0.24554900  0.26381267  0.20527650  1.0
  Ni  Ni1153  1  0.24554900  0.59714600  0.20527650  1.0
  Ni  Ni1154  1  0.24554900  0.93047933  0.20527650  1.0
  Ni  Ni1155  1  0.57888233  0.26381267  0.20527650  1.0
  Ni  Ni1156  1  0.57888233  0.59714600  0.20527650  1.0
  Ni  Ni1157  1  0.57888233  0.93047933  0.20527650  1.0
  Ni  Ni1158  1  0.91221567  0.26381267  0.20527650  1.0
  Ni  Ni1159  1  0.91221567  0.59714600  0.20527650  1.0
  Ni  Ni1160  1  0.91221567  0.93047933  0.20527650  1.0
  Ni  Ni1161  1  0.07888233  0.26381267  0.27670507  1.0
  Ni  Ni1162  1  0.07888233  0.59714600  0.27670507  1.0
  Ni  Ni1163  1  0.07888233  0.93047933  0.27670507  1.0
  Ni  Ni1164  1  0.41221567  0.26381267  0.27670507  1.0
  Ni  Ni1165  1  0.41221567  0.59714600  0.27670507  1.0
  Ni  Ni1166  1  0.41221567  0.93047933  0.27670507  1.0
  Ni  Ni1167  1  0.74554900  0.26381267  0.27670507  1.0
  Ni  Ni1168  1  0.74554900  0.59714600  0.27670507  1.0
  Ni  Ni1169  1  0.74554900  0.93047933  0.27670507  1.0
  Ni  Ni1170  1  0.11946033  0.01386367  0.18663979  1.0
  Ni  Ni1171  1  0.11946033  0.34719700  0.18663979  1.0
  Ni  Ni1172  1  0.11946033  0.68053033  0.18663979  1.0
  Ni  Ni1173  1  0.45279367  0.01386367  0.18663979  1.0
  Ni  Ni1174  1  0.45279367  0.34719700  0.18663979  1.0
  Ni  Ni1175  1  0.45279367  0.68053033  0.18663979  1.0
  Ni  Ni1176  1  0.78612700  0.01386367  0.18663979  1.0
  Ni  Ni1177  1  0.78612700  0.34719700  0.18663979  1.0
  Ni  Ni1178  1  0.78612700  0.68053033  0.18663979  1.0
  Ni  Ni1179  1  0.28612700  0.01386367  0.25806836  1.0
  Ni  Ni1180  1  0.28612700  0.34719700  0.25806836  1.0
  Ni  Ni1181  1  0.28612700  0.68053033  0.25806836  1.0
  Ni  Ni1182  1  0.61946033  0.01386367  0.25806836  1.0
  Ni  Ni1183  1  0.61946033  0.34719700  0.25806836  1.0
  Ni  Ni1184  1  0.61946033  0.68053033  0.25806836  1.0
  Ni  Ni1185  1  0.95279367  0.01386367  0.25806836  1.0
  Ni  Ni1186  1  0.95279367  0.34719700  0.25806836  1.0
  Ni  Ni1187  1  0.95279367  0.68053033  0.25806836  1.0
  Ni  Ni1188  1  0.06404100  0.12504767  0.21024007  1.0
  Ni  Ni1189  1  0.06404100  0.45838100  0.21024007  1.0
  Ni  Ni1190  1  0.06404100  0.79171433  0.21024007  1.0
  Ni  Ni1191  1  0.39737433  0.12504767  0.21024007  1.0
  Ni  Ni1192  1  0.39737433  0.45838100  0.21024007  1.0
  Ni  Ni1193  1  0.39737433  0.79171433  0.21024007  1.0
  Ni  Ni1194  1  0.73070767  0.12504767  0.21024007  1.0
  Ni  Ni1195  1  0.73070767  0.45838100  0.21024007  1.0
  Ni  Ni1196  1  0.73070767  0.79171433  0.21024007  1.0
  Ni  Ni1197  1  0.23070767  0.12504767  0.28166864  1.0
  Ni  Ni1198  1  0.23070767  0.45838100  0.28166864  1.0
  Ni  Ni1199  1  0.23070767  0.79171433  0.28166864  1.0
  Ni  Ni1200  1  0.56404100  0.12504767  0.28166864  1.0
  Ni  Ni1201  1  0.56404100  0.45838100  0.28166864  1.0
  Ni  Ni1202  1  0.56404100  0.79171433  0.28166864  1.0
  Ni  Ni1203  1  0.89737433  0.12504767  0.28166864  1.0
  Ni  Ni1204  1  0.89737433  0.45838100  0.28166864  1.0
  Ni  Ni1205  1  0.89737433  0.79171433  0.28166864  1.0
  Ni  Ni1206  1  0.00855683  0.23608033  0.23409100  1.0
  Ni  Ni1207  1  0.00855683  0.56941367  0.23409100  1.0
  Ni  Ni1208  1  0.00855683  0.90274700  0.23409100  1.0
  Ni  Ni1209  1  0.34189017  0.23608033  0.23409100  1.0
  Ni  Ni1210  1  0.34189017  0.56941367  0.23409100  1.0
  Ni  Ni1211  1  0.34189017  0.90274700  0.23409100  1.0
  Ni  Ni1212  1  0.67522350  0.23608033  0.23409100  1.0
  Ni  Ni1213  1  0.67522350  0.56941367  0.23409100  1.0
  Ni  Ni1214  1  0.67522350  0.90274700  0.23409100  1.0
  Ni  Ni1215  1  0.17522350  0.23608033  0.16266243  1.0
  Ni  Ni1216  1  0.17522350  0.56941367  0.16266243  1.0
  Ni  Ni1217  1  0.17522350  0.90274700  0.16266243  1.0
  Ni  Ni1218  1  0.50855683  0.23608033  0.16266243  1.0
  Ni  Ni1219  1  0.50855683  0.56941367  0.16266243  1.0
  Ni  Ni1220  1  0.50855683  0.90274700  0.16266243  1.0
  Ni  Ni1221  1  0.84189017  0.23608033  0.16266243  1.0
  Ni  Ni1222  1  0.84189017  0.56941367  0.16266243  1.0
  Ni  Ni1223  1  0.84189017  0.90274700  0.16266243  1.0
  Ni  Ni1224  1  0.02240867  0.04219900  0.22790893  1.0
  Ni  Ni1225  1  0.02240867  0.37553233  0.22790893  1.0
  Ni  Ni1226  1  0.02240867  0.70886567  0.22790893  1.0
  Ni  Ni1227  1  0.35574200  0.04219900  0.22790893  1.0
  Ni  Ni1228  1  0.35574200  0.37553233  0.22790893  1.0
  Ni  Ni1229  1  0.35574200  0.70886567  0.22790893  1.0
  Ni  Ni1230  1  0.68907533  0.04219900  0.22790893  1.0
  Ni  Ni1231  1  0.68907533  0.37553233  0.22790893  1.0
  Ni  Ni1232  1  0.68907533  0.70886567  0.22790893  1.0
  Ni  Ni1233  1  0.18907533  0.04219900  0.15648036  1.0
  Ni  Ni1234  1  0.18907533  0.37553233  0.15648036  1.0
  Ni  Ni1235  1  0.18907533  0.70886567  0.15648036  1.0
  Ni  Ni1236  1  0.52240867  0.04219900  0.15648036  1.0
  Ni  Ni1237  1  0.52240867  0.37553233  0.15648036  1.0
  Ni  Ni1238  1  0.52240867  0.70886567  0.15648036  1.0
  Ni  Ni1239  1  0.85574200  0.04219900  0.15648036  1.0
  Ni  Ni1240  1  0.85574200  0.37553233  0.15648036  1.0
  Ni  Ni1241  1  0.85574200  0.70886567  0.15648036  1.0
  Ni  Ni1242  1  0.30076617  0.15207567  0.25127486  1.0
  Ni  Ni1243  1  0.30076617  0.48540900  0.25127486  1.0
  Ni  Ni1244  1  0.30076617  0.81874233  0.25127486  1.0
  Ni  Ni1245  1  0.63409950  0.15207567  0.25127486  1.0
  Ni  Ni1246  1  0.63409950  0.48540900  0.25127486  1.0
  Ni  Ni1247  1  0.63409950  0.81874233  0.25127486  1.0
  Ni  Ni1248  1  0.96743283  0.15207567  0.25127486  1.0
  Ni  Ni1249  1  0.96743283  0.48540900  0.25127486  1.0
  Ni  Ni1250  1  0.96743283  0.81874233  0.25127486  1.0
  Ni  Ni1251  1  0.13409950  0.15207567  0.17984629  1.0
  Ni  Ni1252  1  0.13409950  0.48540900  0.17984629  1.0
  Ni  Ni1253  1  0.13409950  0.81874233  0.17984629  1.0
  Ni  Ni1254  1  0.46743283  0.15207567  0.17984629  1.0
  Ni  Ni1255  1  0.46743283  0.48540900  0.17984629  1.0
  Ni  Ni1256  1  0.46743283  0.81874233  0.17984629  1.0
  Ni  Ni1257  1  0.80076617  0.15207567  0.17984629  1.0
  Ni  Ni1258  1  0.80076617  0.48540900  0.17984629  1.0
  Ni  Ni1259  1  0.80076617  0.81874233  0.17984629  1.0
  Ni  Ni1260  1  0.24554900  0.26381267  0.27477964  1.0
  Ni  Ni1261  1  0.24554900  0.59714600  0.27477964  1.0
  Ni  Ni1262  1  0.24554900  0.93047933  0.27477964  1.0
  Ni  Ni1263  1  0.57888233  0.26381267  0.27477964  1.0
  Ni  Ni1264  1  0.57888233  0.59714600  0.27477964  1.0
  Ni  Ni1265  1  0.57888233  0.93047933  0.27477964  1.0
  Ni  Ni1266  1  0.91221567  0.26381267  0.27477964  1.0
  Ni  Ni1267  1  0.91221567  0.59714600  0.27477964  1.0
  Ni  Ni1268  1  0.91221567  0.93047933  0.27477964  1.0
  Ni  Ni1269  1  0.07888233  0.26381267  0.20335107  1.0
  Ni  Ni1270  1  0.07888233  0.59714600  0.20335107  1.0
  Ni  Ni1271  1  0.07888233  0.93047933  0.20335107  1.0
  Ni  Ni1272  1  0.41221567  0.26381267  0.20335107  1.0
  Ni  Ni1273  1  0.41221567  0.59714600  0.20335107  1.0
  Ni  Ni1274  1  0.41221567  0.93047933  0.20335107  1.0
  Ni  Ni1275  1  0.74554900  0.26381267  0.20335107  1.0
  Ni  Ni1276  1  0.74554900  0.59714600  0.20335107  1.0
  Ni  Ni1277  1  0.74554900  0.93047933  0.20335107  1.0
  Ni  Ni1278  1  0.11946033  0.01386367  0.25863521  1.0
  Ni  Ni1279  1  0.11946033  0.34719700  0.25863521  1.0
  Ni  Ni1280  1  0.11946033  0.68053033  0.25863521  1.0
  Ni  Ni1281  1  0.45279367  0.01386367  0.25863521  1.0
  Ni  Ni1282  1  0.45279367  0.34719700  0.25863521  1.0
  Ni  Ni1283  1  0.45279367  0.68053033  0.25863521  1.0
  Ni  Ni1284  1  0.78612700  0.01386367  0.25863521  1.0
  Ni  Ni1285  1  0.78612700  0.34719700  0.25863521  1.0
  Ni  Ni1286  1  0.78612700  0.68053033  0.25863521  1.0
  Ni  Ni1287  1  0.28612700  0.01386367  0.18720664  1.0
  Ni  Ni1288  1  0.28612700  0.34719700  0.18720664  1.0
  Ni  Ni1289  1  0.28612700  0.68053033  0.18720664  1.0
  Ni  Ni1290  1  0.61946033  0.01386367  0.18720664  1.0
  Ni  Ni1291  1  0.61946033  0.34719700  0.18720664  1.0
  Ni  Ni1292  1  0.61946033  0.68053033  0.18720664  1.0
  Ni  Ni1293  1  0.95279367  0.01386367  0.18720664  1.0
  Ni  Ni1294  1  0.95279367  0.34719700  0.18720664  1.0
  Ni  Ni1295  1  0.95279367  0.68053033  0.18720664  1.0
  Ni  Ni1296  1  0.06404100  0.12504767  0.28253721  1.0
  Ni  Ni1297  1  0.06404100  0.45838100  0.28253721  1.0
  Ni  Ni1298  1  0.06404100  0.79171433  0.28253721  1.0
  Ni  Ni1299  1  0.39737433  0.12504767  0.28253721  1.0
  Ni  Ni1300  1  0.39737433  0.45838100  0.28253721  1.0
  Ni  Ni1301  1  0.39737433  0.79171433  0.28253721  1.0
  Ni  Ni1302  1  0.73070767  0.12504767  0.28253721  1.0
  Ni  Ni1303  1  0.73070767  0.45838100  0.28253721  1.0
  Ni  Ni1304  1  0.73070767  0.79171433  0.28253721  1.0
  Ni  Ni1305  1  0.23070767  0.12504767  0.21110864  1.0
  Ni  Ni1306  1  0.23070767  0.45838100  0.21110864  1.0
  Ni  Ni1307  1  0.23070767  0.79171433  0.21110864  1.0
  Ni  Ni1308  1  0.56404100  0.12504767  0.21110864  1.0
  Ni  Ni1309  1  0.56404100  0.45838100  0.21110864  1.0
  Ni  Ni1310  1  0.56404100  0.79171433  0.21110864  1.0
  Ni  Ni1311  1  0.89737433  0.12504767  0.21110864  1.0
  Ni  Ni1312  1  0.89737433  0.45838100  0.21110864  1.0
  Ni  Ni1313  1  0.89737433  0.79171433  0.21110864  1.0
  Ni  Ni1314  1  0.00855683  0.23608033  0.16338700  1.0
  Ni  Ni1315  1  0.00855683  0.56941367  0.16338700  1.0
  Ni  Ni1316  1  0.00855683  0.90274700  0.16338700  1.0
  Ni  Ni1317  1  0.34189017  0.23608033  0.16338700  1.0
  Ni  Ni1318  1  0.34189017  0.56941367  0.16338700  1.0
  Ni  Ni1319  1  0.34189017  0.90274700  0.16338700  1.0
  Ni  Ni1320  1  0.67522350  0.23608033  0.16338700  1.0
  Ni  Ni1321  1  0.67522350  0.56941367  0.16338700  1.0
  Ni  Ni1322  1  0.67522350  0.90274700  0.16338700  1.0
  Ni  Ni1323  1  0.17522350  0.23608033  0.23481557  1.0
  Ni  Ni1324  1  0.17522350  0.56941367  0.23481557  1.0
  Ni  Ni1325  1  0.17522350  0.90274700  0.23481557  1.0
  Ni  Ni1326  1  0.50855683  0.23608033  0.23481557  1.0
  Ni  Ni1327  1  0.50855683  0.56941367  0.23481557  1.0
  Ni  Ni1328  1  0.50855683  0.90274700  0.23481557  1.0
  Ni  Ni1329  1  0.84189017  0.23608033  0.23481557  1.0
  Ni  Ni1330  1  0.84189017  0.56941367  0.23481557  1.0
  Ni  Ni1331  1  0.84189017  0.90274700  0.23481557  1.0
  Ni  Ni1332  1  0.08901333  0.06943867  0.27102636  1.0
  Ni  Ni1333  1  0.08901333  0.40277200  0.27102636  1.0
  Ni  Ni1334  1  0.08901333  0.73610533  0.27102636  1.0
  Ni  Ni1335  1  0.42234667  0.06943867  0.27102636  1.0
  Ni  Ni1336  1  0.42234667  0.40277200  0.27102636  1.0
  Ni  Ni1337  1  0.42234667  0.73610533  0.27102636  1.0
  Ni  Ni1338  1  0.75568000  0.06943867  0.27102636  1.0
  Ni  Ni1339  1  0.75568000  0.40277200  0.27102636  1.0
  Ni  Ni1340  1  0.75568000  0.73610533  0.27102636  1.0
  Ni  Ni1341  1  0.25568000  0.06943867  0.19959779  1.0
  Ni  Ni1342  1  0.25568000  0.40277200  0.19959779  1.0
  Ni  Ni1343  1  0.25568000  0.73610533  0.19959779  1.0
  Ni  Ni1344  1  0.58901333  0.06943867  0.19959779  1.0
  Ni  Ni1345  1  0.58901333  0.40277200  0.19959779  1.0
  Ni  Ni1346  1  0.58901333  0.73610533  0.19959779  1.0
  Ni  Ni1347  1  0.92234667  0.06943867  0.19959779  1.0
  Ni  Ni1348  1  0.92234667  0.40277200  0.19959779  1.0
  Ni  Ni1349  1  0.92234667  0.73610533  0.19959779  1.0
  Ni  Ni1350  1  0.03290100  0.18044800  0.15189364  1.0
  Ni  Ni1351  1  0.03290100  0.51378133  0.15189364  1.0
  Ni  Ni1352  1  0.03290100  0.84711467  0.15189364  1.0
  Ni  Ni1353  1  0.36623433  0.18044800  0.15189364  1.0
  Ni  Ni1354  1  0.36623433  0.51378133  0.15189364  1.0
  Ni  Ni1355  1  0.36623433  0.84711467  0.15189364  1.0
  Ni  Ni1356  1  0.69956767  0.18044800  0.15189364  1.0
  Ni  Ni1357  1  0.69956767  0.51378133  0.15189364  1.0
  Ni  Ni1358  1  0.69956767  0.84711467  0.15189364  1.0
  Ni  Ni1359  1  0.19956767  0.18044800  0.22332221  1.0
  Ni  Ni1360  1  0.19956767  0.51378133  0.22332221  1.0
  Ni  Ni1361  1  0.19956767  0.84711467  0.22332221  1.0
  Ni  Ni1362  1  0.53290100  0.18044800  0.22332221  1.0
  Ni  Ni1363  1  0.53290100  0.51378133  0.22332221  1.0
  Ni  Ni1364  1  0.53290100  0.84711467  0.22332221  1.0
  Ni  Ni1365  1  0.86623433  0.18044800  0.22332221  1.0
  Ni  Ni1366  1  0.86623433  0.51378133  0.22332221  1.0
  Ni  Ni1367  1  0.86623433  0.84711467  0.22332221  1.0
  Ni  Ni1368  1  0.31080783  0.29162400  0.17569614  1.0
  Ni  Ni1369  1  0.31080783  0.62495733  0.17569614  1.0
  Ni  Ni1370  1  0.31080783  0.95829067  0.17569614  1.0
  Ni  Ni1371  1  0.64414117  0.29162400  0.17569614  1.0
  Ni  Ni1372  1  0.64414117  0.62495733  0.17569614  1.0
  Ni  Ni1373  1  0.64414117  0.95829067  0.17569614  1.0
  Ni  Ni1374  1  0.97747450  0.29162400  0.17569614  1.0
  Ni  Ni1375  1  0.97747450  0.62495733  0.17569614  1.0
  Ni  Ni1376  1  0.97747450  0.95829067  0.17569614  1.0
  Ni  Ni1377  1  0.14414117  0.29162400  0.24712471  1.0
  Ni  Ni1378  1  0.14414117  0.62495733  0.24712471  1.0
  Ni  Ni1379  1  0.14414117  0.95829067  0.24712471  1.0
  Ni  Ni1380  1  0.47747450  0.29162400  0.24712471  1.0
  Ni  Ni1381  1  0.47747450  0.62495733  0.24712471  1.0
  Ni  Ni1382  1  0.47747450  0.95829067  0.24712471  1.0
  Ni  Ni1383  1  0.81080783  0.29162400  0.24712471  1.0
  Ni  Ni1384  1  0.81080783  0.62495733  0.24712471  1.0
  Ni  Ni1385  1  0.81080783  0.95829067  0.24712471  1.0
  Ni  Ni1386  1  0.32510200  0.09731333  0.24187179  1.0
  Ni  Ni1387  1  0.32510200  0.43064667  0.24187179  1.0
  Ni  Ni1388  1  0.32510200  0.76398000  0.24187179  1.0
  Ni  Ni1389  1  0.65843533  0.09731333  0.24187179  1.0
  Ni  Ni1390  1  0.65843533  0.43064667  0.24187179  1.0
  Ni  Ni1391  1  0.65843533  0.76398000  0.24187179  1.0
  Ni  Ni1392  1  0.99176867  0.09731333  0.24187179  1.0
  Ni  Ni1393  1  0.99176867  0.43064667  0.24187179  1.0
  Ni  Ni1394  1  0.99176867  0.76398000  0.24187179  1.0
  Ni  Ni1395  1  0.15843533  0.09731333  0.17044321  1.0
  Ni  Ni1396  1  0.15843533  0.43064667  0.17044321  1.0
  Ni  Ni1397  1  0.15843533  0.76398000  0.17044321  1.0
  Ni  Ni1398  1  0.49176867  0.09731333  0.17044321  1.0
  Ni  Ni1399  1  0.49176867  0.43064667  0.17044321  1.0
  Ni  Ni1400  1  0.49176867  0.76398000  0.17044321  1.0
  Ni  Ni1401  1  0.82510200  0.09731333  0.17044321  1.0
  Ni  Ni1402  1  0.82510200  0.43064667  0.17044321  1.0
  Ni  Ni1403  1  0.82510200  0.76398000  0.17044321  1.0
  Ni  Ni1404  1  0.26805600  0.20841433  0.26640050  1.0
  Ni  Ni1405  1  0.26805600  0.54174767  0.26640050  1.0
  Ni  Ni1406  1  0.26805600  0.87508100  0.26640050  1.0
  Ni  Ni1407  1  0.60138933  0.20841433  0.26640050  1.0
  Ni  Ni1408  1  0.60138933  0.54174767  0.26640050  1.0
  Ni  Ni1409  1  0.60138933  0.87508100  0.26640050  1.0
  Ni  Ni1410  1  0.93472267  0.20841433  0.26640050  1.0
  Ni  Ni1411  1  0.93472267  0.54174767  0.26640050  1.0
  Ni  Ni1412  1  0.93472267  0.87508100  0.26640050  1.0
  Ni  Ni1413  1  0.10138933  0.20841433  0.19497193  1.0
  Ni  Ni1414  1  0.10138933  0.54174767  0.19497193  1.0
  Ni  Ni1415  1  0.10138933  0.87508100  0.19497193  1.0
  Ni  Ni1416  1  0.43472267  0.20841433  0.19497193  1.0
  Ni  Ni1417  1  0.43472267  0.54174767  0.19497193  1.0
  Ni  Ni1418  1  0.43472267  0.87508100  0.19497193  1.0
  Ni  Ni1419  1  0.76805600  0.20841433  0.19497193  1.0
  Ni  Ni1420  1  0.76805600  0.54174767  0.19497193  1.0
  Ni  Ni1421  1  0.76805600  0.87508100  0.19497193  1.0
  Ni  Ni1422  1  0.21231500  0.31971167  0.14749579  1.0
  Ni  Ni1423  1  0.21231500  0.65304500  0.14749579  1.0
  Ni  Ni1424  1  0.21231500  0.98637833  0.14749579  1.0
  Ni  Ni1425  1  0.54564833  0.31971167  0.14749579  1.0
  Ni  Ni1426  1  0.54564833  0.65304500  0.14749579  1.0
  Ni  Ni1427  1  0.54564833  0.98637833  0.14749579  1.0
  Ni  Ni1428  1  0.87898167  0.31971167  0.14749579  1.0
  Ni  Ni1429  1  0.87898167  0.65304500  0.14749579  1.0
  Ni  Ni1430  1  0.87898167  0.98637833  0.14749579  1.0
  Ni  Ni1431  1  0.04564833  0.31971167  0.21892436  1.0
  Ni  Ni1432  1  0.04564833  0.65304500  0.21892436  1.0
  Ni  Ni1433  1  0.04564833  0.98637833  0.21892436  1.0
  Ni  Ni1434  1  0.37898167  0.31971167  0.21892436  1.0
  Ni  Ni1435  1  0.37898167  0.65304500  0.21892436  1.0
  Ni  Ni1436  1  0.37898167  0.98637833  0.21892436  1.0
  Ni  Ni1437  1  0.71231500  0.31971167  0.21892436  1.0
  Ni  Ni1438  1  0.71231500  0.65304500  0.21892436  1.0
  Ni  Ni1439  1  0.71231500  0.98637833  0.21892436  1.0
  Ni  Ni1440  1  0.04693383  0.20767667  0.25372029  1.0
  Ni  Ni1441  1  0.04693383  0.54101000  0.25372029  1.0
  Ni  Ni1442  1  0.04693383  0.87434333  0.25372029  1.0
  Ni  Ni1443  1  0.38026717  0.20767667  0.25372029  1.0
  Ni  Ni1444  1  0.38026717  0.54101000  0.25372029  1.0
  Ni  Ni1445  1  0.38026717  0.87434333  0.25372029  1.0
  Ni  Ni1446  1  0.71360050  0.20767667  0.25372029  1.0
  Ni  Ni1447  1  0.71360050  0.54101000  0.25372029  1.0
  Ni  Ni1448  1  0.71360050  0.87434333  0.25372029  1.0
  Ni  Ni1449  1  0.21360050  0.20767667  0.18229171  1.0
  Ni  Ni1450  1  0.21360050  0.54101000  0.18229171  1.0
  Ni  Ni1451  1  0.21360050  0.87434333  0.18229171  1.0
  Ni  Ni1452  1  0.54693383  0.20767667  0.18229171  1.0
  Ni  Ni1453  1  0.54693383  0.54101000  0.18229171  1.0
  Ni  Ni1454  1  0.54693383  0.87434333  0.18229171  1.0
  Ni  Ni1455  1  0.88026717  0.20767667  0.18229171  1.0
  Ni  Ni1456  1  0.88026717  0.54101000  0.18229171  1.0
  Ni  Ni1457  1  0.88026717  0.87434333  0.18229171  1.0
  Ni  Ni1458  1  0.32455533  0.31900200  0.27759679  1.0
  Ni  Ni1459  1  0.32455533  0.65233533  0.27759679  1.0
  Ni  Ni1460  1  0.32455533  0.98566867  0.27759679  1.0
  Ni  Ni1461  1  0.65788867  0.31900200  0.27759679  1.0
  Ni  Ni1462  1  0.65788867  0.65233533  0.27759679  1.0
  Ni  Ni1463  1  0.65788867  0.98566867  0.27759679  1.0
  Ni  Ni1464  1  0.99122200  0.31900200  0.27759679  1.0
  Ni  Ni1465  1  0.99122200  0.65233533  0.27759679  1.0
  Ni  Ni1466  1  0.99122200  0.98566867  0.27759679  1.0
  Ni  Ni1467  1  0.15788867  0.31900200  0.20616821  1.0
  Ni  Ni1468  1  0.15788867  0.65233533  0.20616821  1.0
  Ni  Ni1469  1  0.15788867  0.98566867  0.20616821  1.0
  Ni  Ni1470  1  0.49122200  0.31900200  0.20616821  1.0
  Ni  Ni1471  1  0.49122200  0.65233533  0.20616821  1.0
  Ni  Ni1472  1  0.49122200  0.98566867  0.20616821  1.0
  Ni  Ni1473  1  0.82455533  0.31900200  0.20616821  1.0
  Ni  Ni1474  1  0.82455533  0.65233533  0.20616821  1.0
  Ni  Ni1475  1  0.82455533  0.98566867  0.20616821  1.0
  Ni  Ni1476  1  0.07750883  0.04125267  0.16918814  1.0
  Ni  Ni1477  1  0.07750883  0.37458600  0.16918814  1.0
  Ni  Ni1478  1  0.07750883  0.70791933  0.16918814  1.0
  Ni  Ni1479  1  0.41084217  0.04125267  0.16918814  1.0
  Ni  Ni1480  1  0.41084217  0.37458600  0.16918814  1.0
  Ni  Ni1481  1  0.41084217  0.70791933  0.16918814  1.0
  Ni  Ni1482  1  0.74417550  0.04125267  0.16918814  1.0
  Ni  Ni1483  1  0.74417550  0.37458600  0.16918814  1.0
  Ni  Ni1484  1  0.74417550  0.70791933  0.16918814  1.0
  Ni  Ni1485  1  0.24417550  0.04125267  0.24061671  1.0
  Ni  Ni1486  1  0.24417550  0.37458600  0.24061671  1.0
  Ni  Ni1487  1  0.24417550  0.70791933  0.24061671  1.0
  Ni  Ni1488  1  0.57750883  0.04125267  0.24061671  1.0
  Ni  Ni1489  1  0.57750883  0.37458600  0.24061671  1.0
  Ni  Ni1490  1  0.57750883  0.70791933  0.24061671  1.0
  Ni  Ni1491  1  0.91084217  0.04125267  0.24061671  1.0
  Ni  Ni1492  1  0.91084217  0.37458600  0.24061671  1.0
  Ni  Ni1493  1  0.91084217  0.70791933  0.24061671  1.0
  Ni  Ni1494  1  0.02131850  0.15313067  0.19326971  1.0
  Ni  Ni1495  1  0.02131850  0.48646400  0.19326971  1.0
  Ni  Ni1496  1  0.02131850  0.81979733  0.19326971  1.0
  Ni  Ni1497  1  0.35465183  0.15313067  0.19326971  1.0
  Ni  Ni1498  1  0.35465183  0.48646400  0.19326971  1.0
  Ni  Ni1499  1  0.35465183  0.81979733  0.19326971  1.0
  Ni  Ni1500  1  0.68798517  0.15313067  0.19326971  1.0
  Ni  Ni1501  1  0.68798517  0.48646400  0.19326971  1.0
  Ni  Ni1502  1  0.68798517  0.81979733  0.19326971  1.0
  Ni  Ni1503  1  0.18798517  0.15313067  0.26469829  1.0
  Ni  Ni1504  1  0.18798517  0.48646400  0.26469829  1.0
  Ni  Ni1505  1  0.18798517  0.81979733  0.26469829  1.0
  Ni  Ni1506  1  0.52131850  0.15313067  0.26469829  1.0
  Ni  Ni1507  1  0.52131850  0.48646400  0.26469829  1.0
  Ni  Ni1508  1  0.52131850  0.81979733  0.26469829  1.0
  Ni  Ni1509  1  0.85465183  0.15313067  0.26469829  1.0
  Ni  Ni1510  1  0.85465183  0.48646400  0.26469829  1.0
  Ni  Ni1511  1  0.85465183  0.81979733  0.26469829  1.0
  Ni  Ni1512  1  0.29984383  0.26378300  0.21675886  1.0
  Ni  Ni1513  1  0.29984383  0.59711633  0.21675886  1.0
  Ni  Ni1514  1  0.29984383  0.93044967  0.21675886  1.0
  Ni  Ni1515  1  0.63317717  0.26378300  0.21675886  1.0
  Ni  Ni1516  1  0.63317717  0.59711633  0.21675886  1.0
  Ni  Ni1517  1  0.63317717  0.93044967  0.21675886  1.0
  Ni  Ni1518  1  0.96651050  0.26378300  0.21675886  1.0
  Ni  Ni1519  1  0.96651050  0.59711633  0.21675886  1.0
  Ni  Ni1520  1  0.96651050  0.93044967  0.21675886  1.0
  Ni  Ni1521  1  0.13317717  0.26378300  0.14533029  1.0
  Ni  Ni1522  1  0.13317717  0.59711633  0.14533029  1.0
  Ni  Ni1523  1  0.13317717  0.93044967  0.14533029  1.0
  Ni  Ni1524  1  0.46651050  0.26378300  0.14533029  1.0
  Ni  Ni1525  1  0.46651050  0.59711633  0.14533029  1.0
  Ni  Ni1526  1  0.46651050  0.93044967  0.14533029  1.0
  Ni  Ni1527  1  0.79984383  0.26378300  0.14533029  1.0
  Ni  Ni1528  1  0.79984383  0.59711633  0.14533029  1.0
  Ni  Ni1529  1  0.79984383  0.93044967  0.14533029  1.0
  Ni  Ni1530  1  0.00733350  0.01427967  0.19926329  1.0
  Ni  Ni1531  1  0.00733350  0.34761300  0.19926329  1.0
  Ni  Ni1532  1  0.00733350  0.68094633  0.19926329  1.0
  Ni  Ni1533  1  0.34066683  0.01427967  0.19926329  1.0
  Ni  Ni1534  1  0.34066683  0.34761300  0.19926329  1.0
  Ni  Ni1535  1  0.34066683  0.68094633  0.19926329  1.0
  Ni  Ni1536  1  0.67400017  0.01427967  0.19926329  1.0
  Ni  Ni1537  1  0.67400017  0.34761300  0.19926329  1.0
  Ni  Ni1538  1  0.67400017  0.68094633  0.19926329  1.0
  Ni  Ni1539  1  0.17400017  0.01427967  0.27069186  1.0
  Ni  Ni1540  1  0.17400017  0.34761300  0.27069186  1.0
  Ni  Ni1541  1  0.17400017  0.68094633  0.27069186  1.0
  Ni  Ni1542  1  0.50733350  0.01427967  0.27069186  1.0
  Ni  Ni1543  1  0.50733350  0.34761300  0.27069186  1.0
  Ni  Ni1544  1  0.50733350  0.68094633  0.27069186  1.0
  Ni  Ni1545  1  0.84066683  0.01427967  0.27069186  1.0
  Ni  Ni1546  1  0.84066683  0.34761300  0.27069186  1.0
  Ni  Ni1547  1  0.84066683  0.68094633  0.27069186  1.0
  Ni  Ni1548  1  0.28538967  0.12475533  0.22295350  1.0
  Ni  Ni1549  1  0.28538967  0.45808867  0.22295350  1.0
  Ni  Ni1550  1  0.28538967  0.79142200  0.22295350  1.0
  Ni  Ni1551  1  0.61872300  0.12475533  0.22295350  1.0
  Ni  Ni1552  1  0.61872300  0.45808867  0.22295350  1.0
  Ni  Ni1553  1  0.61872300  0.79142200  0.22295350  1.0
  Ni  Ni1554  1  0.95205633  0.12475533  0.22295350  1.0
  Ni  Ni1555  1  0.95205633  0.45808867  0.22295350  1.0
  Ni  Ni1556  1  0.95205633  0.79142200  0.22295350  1.0
  Ni  Ni1557  1  0.11872300  0.12475533  0.15152493  1.0
  Ni  Ni1558  1  0.11872300  0.45808867  0.15152493  1.0
  Ni  Ni1559  1  0.11872300  0.79142200  0.15152493  1.0
  Ni  Ni1560  1  0.45205633  0.12475533  0.15152493  1.0
  Ni  Ni1561  1  0.45205633  0.45808867  0.15152493  1.0
  Ni  Ni1562  1  0.45205633  0.79142200  0.15152493  1.0
  Ni  Ni1563  1  0.78538967  0.12475533  0.15152493  1.0
  Ni  Ni1564  1  0.78538967  0.45808867  0.15152493  1.0
  Ni  Ni1565  1  0.78538967  0.79142200  0.15152493  1.0
  Ni  Ni1566  1  0.22967900  0.23624567  0.24682950  1.0
  Ni  Ni1567  1  0.22967900  0.56957900  0.24682950  1.0
  Ni  Ni1568  1  0.22967900  0.90291233  0.24682950  1.0
  Ni  Ni1569  1  0.56301233  0.23624567  0.24682950  1.0
  Ni  Ni1570  1  0.56301233  0.56957900  0.24682950  1.0
  Ni  Ni1571  1  0.56301233  0.90291233  0.24682950  1.0
  Ni  Ni1572  1  0.89634567  0.23624567  0.24682950  1.0
  Ni  Ni1573  1  0.89634567  0.56957900  0.24682950  1.0
  Ni  Ni1574  1  0.89634567  0.90291233  0.24682950  1.0
  Ni  Ni1575  1  0.06301233  0.23624567  0.17540093  1.0
  Ni  Ni1576  1  0.06301233  0.56957900  0.17540093  1.0
  Ni  Ni1577  1  0.06301233  0.90291233  0.17540093  1.0
  Ni  Ni1578  1  0.39634567  0.23624567  0.17540093  1.0
  Ni  Ni1579  1  0.39634567  0.56957900  0.17540093  1.0
  Ni  Ni1580  1  0.39634567  0.90291233  0.17540093  1.0
  Ni  Ni1581  1  0.72967900  0.23624567  0.17540093  1.0
  Ni  Ni1582  1  0.72967900  0.56957900  0.17540093  1.0
  Ni  Ni1583  1  0.72967900  0.90291233  0.17540093  1.0
  Sn  Sn1584  1  0.00706433  0.01638033  0.27080721  1.0
  Sn  Sn1585  1  0.00706433  0.34971367  0.27080721  1.0
  Sn  Sn1586  1  0.00706433  0.68304700  0.27080721  1.0
  Sn  Sn1587  1  0.34039767  0.01638033  0.27080721  1.0
  Sn  Sn1588  1  0.34039767  0.34971367  0.27080721  1.0
  Sn  Sn1589  1  0.34039767  0.68304700  0.27080721  1.0
  Sn  Sn1590  1  0.67373100  0.01638033  0.27080721  1.0
  Sn  Sn1591  1  0.67373100  0.34971367  0.27080721  1.0
  Sn  Sn1592  1  0.67373100  0.68304700  0.27080721  1.0
  Sn  Sn1593  1  0.17373100  0.01638033  0.19937864  1.0
  Sn  Sn1594  1  0.17373100  0.34971367  0.19937864  1.0
  Sn  Sn1595  1  0.17373100  0.68304700  0.19937864  1.0
  Sn  Sn1596  1  0.50706433  0.01638033  0.19937864  1.0
  Sn  Sn1597  1  0.50706433  0.34971367  0.19937864  1.0
  Sn  Sn1598  1  0.50706433  0.68304700  0.19937864  1.0
  Sn  Sn1599  1  0.84039767  0.01638033  0.19937864  1.0
  Sn  Sn1600  1  0.84039767  0.34971367  0.19937864  1.0
  Sn  Sn1601  1  0.84039767  0.68304700  0.19937864  1.0
  Sn  Sn1602  1  0.28461500  0.12512633  0.15185693  1.0
  Sn  Sn1603  1  0.28461500  0.45845967  0.15185693  1.0
  Sn  Sn1604  1  0.28461500  0.79179300  0.15185693  1.0
  Sn  Sn1605  1  0.61794833  0.12512633  0.15185693  1.0
  Sn  Sn1606  1  0.61794833  0.45845967  0.15185693  1.0
  Sn  Sn1607  1  0.61794833  0.79179300  0.15185693  1.0
  Sn  Sn1608  1  0.95128167  0.12512633  0.15185693  1.0
  Sn  Sn1609  1  0.95128167  0.45845967  0.15185693  1.0
  Sn  Sn1610  1  0.95128167  0.79179300  0.15185693  1.0
  Sn  Sn1611  1  0.11794833  0.12512633  0.22328550  1.0
  Sn  Sn1612  1  0.11794833  0.45845967  0.22328550  1.0
  Sn  Sn1613  1  0.11794833  0.79179300  0.22328550  1.0
  Sn  Sn1614  1  0.45128167  0.12512633  0.22328550  1.0
  Sn  Sn1615  1  0.45128167  0.45845967  0.22328550  1.0
  Sn  Sn1616  1  0.45128167  0.79179300  0.22328550  1.0
  Sn  Sn1617  1  0.78461500  0.12512633  0.22328550  1.0
  Sn  Sn1618  1  0.78461500  0.45845967  0.22328550  1.0
  Sn  Sn1619  1  0.78461500  0.79179300  0.22328550  1.0
  Sn  Sn1620  1  0.22956883  0.23819900  0.17544814  1.0
  Sn  Sn1621  1  0.22956883  0.57153233  0.17544814  1.0
  Sn  Sn1622  1  0.22956883  0.90486567  0.17544814  1.0
  Sn  Sn1623  1  0.56290217  0.23819900  0.17544814  1.0
  Sn  Sn1624  1  0.56290217  0.57153233  0.17544814  1.0
  Sn  Sn1625  1  0.56290217  0.90486567  0.17544814  1.0
  Sn  Sn1626  1  0.89623550  0.23819900  0.17544814  1.0
  Sn  Sn1627  1  0.89623550  0.57153233  0.17544814  1.0
  Sn  Sn1628  1  0.89623550  0.90486567  0.17544814  1.0
  Sn  Sn1629  1  0.06290217  0.23819900  0.24687671  1.0
  Sn  Sn1630  1  0.06290217  0.57153233  0.24687671  1.0
  Sn  Sn1631  1  0.06290217  0.90486567  0.24687671  1.0
  Sn  Sn1632  1  0.39623550  0.23819900  0.24687671  1.0
  Sn  Sn1633  1  0.39623550  0.57153233  0.24687671  1.0
  Sn  Sn1634  1  0.39623550  0.90486567  0.24687671  1.0
  Sn  Sn1635  1  0.72956883  0.23819900  0.24687671  1.0
  Sn  Sn1636  1  0.72956883  0.57153233  0.24687671  1.0
  Sn  Sn1637  1  0.72956883  0.90486567  0.24687671  1.0
  Sn  Sn1638  1  0.07682000  0.04132700  0.24091193  1.0
  Sn  Sn1639  1  0.07682000  0.37466033  0.24091193  1.0
  Sn  Sn1640  1  0.07682000  0.70799367  0.24091193  1.0
  Sn  Sn1641  1  0.41015333  0.04132700  0.24091193  1.0
  Sn  Sn1642  1  0.41015333  0.37466033  0.24091193  1.0
  Sn  Sn1643  1  0.41015333  0.70799367  0.24091193  1.0
  Sn  Sn1644  1  0.74348667  0.04132700  0.24091193  1.0
  Sn  Sn1645  1  0.74348667  0.37466033  0.24091193  1.0
  Sn  Sn1646  1  0.74348667  0.70799367  0.24091193  1.0
  Sn  Sn1647  1  0.24348667  0.04132700  0.16948336  1.0
  Sn  Sn1648  1  0.24348667  0.37466033  0.16948336  1.0
  Sn  Sn1649  1  0.24348667  0.70799367  0.16948336  1.0
  Sn  Sn1650  1  0.57682000  0.04132700  0.16948336  1.0
  Sn  Sn1651  1  0.57682000  0.37466033  0.16948336  1.0
  Sn  Sn1652  1  0.57682000  0.70799367  0.16948336  1.0
  Sn  Sn1653  1  0.91015333  0.04132700  0.16948336  1.0
  Sn  Sn1654  1  0.91015333  0.37466033  0.16948336  1.0
  Sn  Sn1655  1  0.91015333  0.70799367  0.16948336  1.0
  Sn  Sn1656  1  0.02157400  0.15208200  0.26458879  1.0
  Sn  Sn1657  1  0.02157400  0.48541533  0.26458879  1.0
  Sn  Sn1658  1  0.02157400  0.81874867  0.26458879  1.0
  Sn  Sn1659  1  0.35490733  0.15208200  0.26458879  1.0
  Sn  Sn1660  1  0.35490733  0.48541533  0.26458879  1.0
  Sn  Sn1661  1  0.35490733  0.81874867  0.26458879  1.0
  Sn  Sn1662  1  0.68824067  0.15208200  0.26458879  1.0
  Sn  Sn1663  1  0.68824067  0.48541533  0.26458879  1.0
  Sn  Sn1664  1  0.68824067  0.81874867  0.26458879  1.0
  Sn  Sn1665  1  0.18824067  0.15208200  0.19316021  1.0
  Sn  Sn1666  1  0.18824067  0.48541533  0.19316021  1.0
  Sn  Sn1667  1  0.18824067  0.81874867  0.19316021  1.0
  Sn  Sn1668  1  0.52157400  0.15208200  0.19316021  1.0
  Sn  Sn1669  1  0.52157400  0.48541533  0.19316021  1.0
  Sn  Sn1670  1  0.52157400  0.81874867  0.19316021  1.0
  Sn  Sn1671  1  0.85490733  0.15208200  0.19316021  1.0
  Sn  Sn1672  1  0.85490733  0.48541533  0.19316021  1.0
  Sn  Sn1673  1  0.85490733  0.81874867  0.19316021  1.0
  Sn  Sn1674  1  0.29975500  0.26328633  0.14536836  1.0
  Sn  Sn1675  1  0.29975500  0.59661967  0.14536836  1.0
  Sn  Sn1676  1  0.29975500  0.92995300  0.14536836  1.0
  Sn  Sn1677  1  0.63308833  0.26328633  0.14536836  1.0
  Sn  Sn1678  1  0.63308833  0.59661967  0.14536836  1.0
  Sn  Sn1679  1  0.63308833  0.92995300  0.14536836  1.0
  Sn  Sn1680  1  0.96642167  0.26328633  0.14536836  1.0
  Sn  Sn1681  1  0.96642167  0.59661967  0.14536836  1.0
  Sn  Sn1682  1  0.96642167  0.92995300  0.14536836  1.0
  Sn  Sn1683  1  0.13308833  0.26328633  0.21679693  1.0
  Sn  Sn1684  1  0.13308833  0.59661967  0.21679693  1.0
  Sn  Sn1685  1  0.13308833  0.92995300  0.21679693  1.0
  Sn  Sn1686  1  0.46642167  0.26328633  0.21679693  1.0
  Sn  Sn1687  1  0.46642167  0.59661967  0.21679693  1.0
  Sn  Sn1688  1  0.46642167  0.92995300  0.21679693  1.0
  Sn  Sn1689  1  0.79975500  0.26328633  0.21679693  1.0
  Sn  Sn1690  1  0.79975500  0.59661967  0.21679693  1.0
  Sn  Sn1691  1  0.79975500  0.92995300  0.21679693  1.0
  Sn  Sn1692  1  0.10255367  0.09547733  0.15845464  1.0
  Sn  Sn1693  1  0.10255367  0.42881067  0.15845464  1.0
  Sn  Sn1694  1  0.10255367  0.76214400  0.15845464  1.0
  Sn  Sn1695  1  0.43588700  0.09547733  0.15845464  1.0
  Sn  Sn1696  1  0.43588700  0.42881067  0.15845464  1.0
  Sn  Sn1697  1  0.43588700  0.76214400  0.15845464  1.0
  Sn  Sn1698  1  0.76922033  0.09547733  0.15845464  1.0
  Sn  Sn1699  1  0.76922033  0.42881067  0.15845464  1.0
  Sn  Sn1700  1  0.76922033  0.76214400  0.15845464  1.0
  Sn  Sn1701  1  0.26922033  0.09547733  0.22988321  1.0
  Sn  Sn1702  1  0.26922033  0.42881067  0.22988321  1.0
  Sn  Sn1703  1  0.26922033  0.76214400  0.22988321  1.0
  Sn  Sn1704  1  0.60255367  0.09547733  0.22988321  1.0
  Sn  Sn1705  1  0.60255367  0.42881067  0.22988321  1.0
  Sn  Sn1706  1  0.60255367  0.76214400  0.22988321  1.0
  Sn  Sn1707  1  0.93588700  0.09547733  0.22988321  1.0
  Sn  Sn1708  1  0.93588700  0.42881067  0.22988321  1.0
  Sn  Sn1709  1  0.93588700  0.76214400  0.22988321  1.0
  Sn  Sn1710  1  0.04647917  0.20651500  0.18248657  1.0
  Sn  Sn1711  1  0.04647917  0.53984833  0.18248657  1.0
  Sn  Sn1712  1  0.04647917  0.87318167  0.18248657  1.0
  Sn  Sn1713  1  0.37981250  0.20651500  0.18248657  1.0
  Sn  Sn1714  1  0.37981250  0.53984833  0.18248657  1.0
  Sn  Sn1715  1  0.37981250  0.87318167  0.18248657  1.0
  Sn  Sn1716  1  0.71314583  0.20651500  0.18248657  1.0
  Sn  Sn1717  1  0.71314583  0.53984833  0.18248657  1.0
  Sn  Sn1718  1  0.71314583  0.87318167  0.18248657  1.0
  Sn  Sn1719  1  0.21314583  0.20651500  0.25391514  1.0
  Sn  Sn1720  1  0.21314583  0.53984833  0.25391514  1.0
  Sn  Sn1721  1  0.21314583  0.87318167  0.25391514  1.0
  Sn  Sn1722  1  0.54647917  0.20651500  0.25391514  1.0
  Sn  Sn1723  1  0.54647917  0.53984833  0.25391514  1.0
  Sn  Sn1724  1  0.54647917  0.87318167  0.25391514  1.0
  Sn  Sn1725  1  0.87981250  0.20651500  0.25391514  1.0
  Sn  Sn1726  1  0.87981250  0.53984833  0.25391514  1.0
  Sn  Sn1727  1  0.87981250  0.87318167  0.25391514  1.0
  Sn  Sn1728  1  0.32415983  0.31784700  0.20633771  1.0
  Sn  Sn1729  1  0.32415983  0.65118033  0.20633771  1.0
  Sn  Sn1730  1  0.32415983  0.98451367  0.20633771  1.0
  Sn  Sn1731  1  0.65749317  0.31784700  0.20633771  1.0
  Sn  Sn1732  1  0.65749317  0.65118033  0.20633771  1.0
  Sn  Sn1733  1  0.65749317  0.98451367  0.20633771  1.0
  Sn  Sn1734  1  0.99082650  0.31784700  0.20633771  1.0
  Sn  Sn1735  1  0.99082650  0.65118033  0.20633771  1.0
  Sn  Sn1736  1  0.99082650  0.98451367  0.20633771  1.0
  Sn  Sn1737  1  0.15749317  0.31784700  0.27776629  1.0
  Sn  Sn1738  1  0.15749317  0.65118033  0.27776629  1.0
  Sn  Sn1739  1  0.15749317  0.98451367  0.27776629  1.0
  Sn  Sn1740  1  0.49082650  0.31784700  0.27776629  1.0
  Sn  Sn1741  1  0.49082650  0.65118033  0.27776629  1.0
  Sn  Sn1742  1  0.49082650  0.98451367  0.27776629  1.0
  Sn  Sn1743  1  0.82415983  0.31784700  0.27776629  1.0
  Sn  Sn1744  1  0.82415983  0.65118033  0.27776629  1.0
  Sn  Sn1745  1  0.82415983  0.98451367  0.27776629  1.0
  Sn  Sn1746  1  0.03208733  0.07119533  0.18865450  1.0
  Sn  Sn1747  1  0.03208733  0.40452867  0.18865450  1.0
  Sn  Sn1748  1  0.03208733  0.73786200  0.18865450  1.0
  Sn  Sn1749  1  0.36542067  0.07119533  0.18865450  1.0
  Sn  Sn1750  1  0.36542067  0.40452867  0.18865450  1.0
  Sn  Sn1751  1  0.36542067  0.73786200  0.18865450  1.0
  Sn  Sn1752  1  0.69875400  0.07119533  0.18865450  1.0
  Sn  Sn1753  1  0.69875400  0.40452867  0.18865450  1.0
  Sn  Sn1754  1  0.69875400  0.73786200  0.18865450  1.0
  Sn  Sn1755  1  0.19875400  0.07119533  0.26008307  1.0
  Sn  Sn1756  1  0.19875400  0.40452867  0.26008307  1.0
  Sn  Sn1757  1  0.19875400  0.73786200  0.26008307  1.0
  Sn  Sn1758  1  0.53208733  0.07119533  0.26008307  1.0
  Sn  Sn1759  1  0.53208733  0.40452867  0.26008307  1.0
  Sn  Sn1760  1  0.53208733  0.73786200  0.26008307  1.0
  Sn  Sn1761  1  0.86542067  0.07119533  0.26008307  1.0
  Sn  Sn1762  1  0.86542067  0.40452867  0.26008307  1.0
  Sn  Sn1763  1  0.86542067  0.73786200  0.26008307  1.0
  Sn  Sn1764  1  0.30870167  0.18223167  0.21296264  1.0
  Sn  Sn1765  1  0.30870167  0.51556500  0.21296264  1.0
  Sn  Sn1766  1  0.30870167  0.84889833  0.21296264  1.0
  Sn  Sn1767  1  0.64203500  0.18223167  0.21296264  1.0
  Sn  Sn1768  1  0.64203500  0.51556500  0.21296264  1.0
  Sn  Sn1769  1  0.64203500  0.84889833  0.21296264  1.0
  Sn  Sn1770  1  0.97536833  0.18223167  0.21296264  1.0
  Sn  Sn1771  1  0.97536833  0.51556500  0.21296264  1.0
  Sn  Sn1772  1  0.97536833  0.84889833  0.21296264  1.0
  Sn  Sn1773  1  0.14203500  0.18223167  0.28439121  1.0
  Sn  Sn1774  1  0.14203500  0.51556500  0.28439121  1.0
  Sn  Sn1775  1  0.14203500  0.84889833  0.28439121  1.0
  Sn  Sn1776  1  0.47536833  0.18223167  0.28439121  1.0
  Sn  Sn1777  1  0.47536833  0.51556500  0.28439121  1.0
  Sn  Sn1778  1  0.47536833  0.84889833  0.28439121  1.0
  Sn  Sn1779  1  0.80870167  0.18223167  0.28439121  1.0
  Sn  Sn1780  1  0.80870167  0.51556500  0.28439121  1.0
  Sn  Sn1781  1  0.80870167  0.84889833  0.28439121  1.0
  Sn  Sn1782  1  0.25355200  0.29347033  0.23659821  1.0
  Sn  Sn1783  1  0.25355200  0.62680367  0.23659821  1.0
  Sn  Sn1784  1  0.25355200  0.96013700  0.23659821  1.0
  Sn  Sn1785  1  0.58688533  0.29347033  0.23659821  1.0
  Sn  Sn1786  1  0.58688533  0.62680367  0.23659821  1.0
  Sn  Sn1787  1  0.58688533  0.96013700  0.23659821  1.0
  Sn  Sn1788  1  0.92021867  0.29347033  0.23659821  1.0
  Sn  Sn1789  1  0.92021867  0.62680367  0.23659821  1.0
  Sn  Sn1790  1  0.92021867  0.96013700  0.23659821  1.0
  Sn  Sn1791  1  0.08688533  0.29347033  0.16516964  1.0
  Sn  Sn1792  1  0.08688533  0.62680367  0.16516964  1.0
  Sn  Sn1793  1  0.08688533  0.96013700  0.16516964  1.0
  Sn  Sn1794  1  0.42021867  0.29347033  0.16516964  1.0
  Sn  Sn1795  1  0.42021867  0.62680367  0.16516964  1.0
  Sn  Sn1796  1  0.42021867  0.96013700  0.16516964  1.0
  Sn  Sn1797  1  0.75355200  0.29347033  0.16516964  1.0
  Sn  Sn1798  1  0.75355200  0.62680367  0.16516964  1.0
  Sn  Sn1799  1  0.75355200  0.96013700  0.16516964  1.0
  Sn  Sn1800  1  0.31272083  0.06958133  0.28266871  1.0
  Sn  Sn1801  1  0.31272083  0.40291467  0.28266871  1.0
  Sn  Sn1802  1  0.31272083  0.73624800  0.28266871  1.0
  Sn  Sn1803  1  0.64605417  0.06958133  0.28266871  1.0
  Sn  Sn1804  1  0.64605417  0.40291467  0.28266871  1.0
  Sn  Sn1805  1  0.64605417  0.73624800  0.28266871  1.0
  Sn  Sn1806  1  0.97938750  0.06958133  0.28266871  1.0
  Sn  Sn1807  1  0.97938750  0.40291467  0.28266871  1.0
  Sn  Sn1808  1  0.97938750  0.73624800  0.28266871  1.0
  Sn  Sn1809  1  0.14605417  0.06958133  0.21124014  1.0
  Sn  Sn1810  1  0.14605417  0.40291467  0.21124014  1.0
  Sn  Sn1811  1  0.14605417  0.73624800  0.21124014  1.0
  Sn  Sn1812  1  0.47938750  0.06958133  0.21124014  1.0
  Sn  Sn1813  1  0.47938750  0.40291467  0.21124014  1.0
  Sn  Sn1814  1  0.47938750  0.73624800  0.21124014  1.0
  Sn  Sn1815  1  0.81272083  0.06958133  0.21124014  1.0
  Sn  Sn1816  1  0.81272083  0.40291467  0.21124014  1.0
  Sn  Sn1817  1  0.81272083  0.73624800  0.21124014  1.0
  Sn  Sn1818  1  0.26029600  0.17837600  0.16227936  1.0
  Sn  Sn1819  1  0.26029600  0.51170933  0.16227936  1.0
  Sn  Sn1820  1  0.26029600  0.84504267  0.16227936  1.0
  Sn  Sn1821  1  0.59362933  0.17837600  0.16227936  1.0
  Sn  Sn1822  1  0.59362933  0.51170933  0.16227936  1.0
  Sn  Sn1823  1  0.59362933  0.84504267  0.16227936  1.0
  Sn  Sn1824  1  0.92696267  0.17837600  0.16227936  1.0
  Sn  Sn1825  1  0.92696267  0.51170933  0.16227936  1.0
  Sn  Sn1826  1  0.92696267  0.84504267  0.16227936  1.0
  Sn  Sn1827  1  0.09362933  0.17837600  0.23370793  1.0
  Sn  Sn1828  1  0.09362933  0.51170933  0.23370793  1.0
  Sn  Sn1829  1  0.09362933  0.84504267  0.23370793  1.0
  Sn  Sn1830  1  0.42696267  0.17837600  0.23370793  1.0
  Sn  Sn1831  1  0.42696267  0.51170933  0.23370793  1.0
  Sn  Sn1832  1  0.42696267  0.84504267  0.23370793  1.0
  Sn  Sn1833  1  0.76029600  0.17837600  0.23370793  1.0
  Sn  Sn1834  1  0.76029600  0.51170933  0.23370793  1.0
  Sn  Sn1835  1  0.76029600  0.84504267  0.23370793  1.0
  Sn  Sn1836  1  0.20468000  0.28984500  0.18611479  1.0
  Sn  Sn1837  1  0.20468000  0.62317833  0.18611479  1.0
  Sn  Sn1838  1  0.20468000  0.95651167  0.18611479  1.0
  Sn  Sn1839  1  0.53801333  0.28984500  0.18611479  1.0
  Sn  Sn1840  1  0.53801333  0.62317833  0.18611479  1.0
  Sn  Sn1841  1  0.53801333  0.95651167  0.18611479  1.0
  Sn  Sn1842  1  0.87134667  0.28984500  0.18611479  1.0
  Sn  Sn1843  1  0.87134667  0.62317833  0.18611479  1.0
  Sn  Sn1844  1  0.87134667  0.95651167  0.18611479  1.0
  Sn  Sn1845  1  0.03801333  0.28984500  0.25754336  1.0
  Sn  Sn1846  1  0.03801333  0.62317833  0.25754336  1.0
  Sn  Sn1847  1  0.03801333  0.95651167  0.25754336  1.0
  Sn  Sn1848  1  0.37134667  0.28984500  0.25754336  1.0
  Sn  Sn1849  1  0.37134667  0.62317833  0.25754336  1.0
  Sn  Sn1850  1  0.37134667  0.95651167  0.25754336  1.0
  Sn  Sn1851  1  0.70468000  0.28984500  0.25754336  1.0
  Sn  Sn1852  1  0.70468000  0.62317833  0.25754336  1.0
  Sn  Sn1853  1  0.70468000  0.95651167  0.25754336  1.0
  Sn  Sn1854  1  0.04852500  0.09751133  0.25303836  1.0
  Sn  Sn1855  1  0.04852500  0.43084467  0.25303836  1.0
  Sn  Sn1856  1  0.04852500  0.76417800  0.25303836  1.0
  Sn  Sn1857  1  0.38185833  0.09751133  0.25303836  1.0
  Sn  Sn1858  1  0.38185833  0.43084467  0.25303836  1.0
  Sn  Sn1859  1  0.38185833  0.76417800  0.25303836  1.0
  Sn  Sn1860  1  0.71519167  0.09751133  0.25303836  1.0
  Sn  Sn1861  1  0.71519167  0.43084467  0.25303836  1.0
  Sn  Sn1862  1  0.71519167  0.76417800  0.25303836  1.0
  Sn  Sn1863  1  0.21519167  0.09751133  0.18160979  1.0
  Sn  Sn1864  1  0.21519167  0.43084467  0.18160979  1.0
  Sn  Sn1865  1  0.21519167  0.76417800  0.18160979  1.0
  Sn  Sn1866  1  0.54852500  0.09751133  0.18160979  1.0
  Sn  Sn1867  1  0.54852500  0.43084467  0.18160979  1.0
  Sn  Sn1868  1  0.54852500  0.76417800  0.18160979  1.0
  Sn  Sn1869  1  0.88185833  0.09751133  0.18160979  1.0
  Sn  Sn1870  1  0.88185833  0.43084467  0.18160979  1.0
  Sn  Sn1871  1  0.88185833  0.76417800  0.18160979  1.0
  Sn  Sn1872  1  0.32110017  0.20860933  0.27907757  1.0
  Sn  Sn1873  1  0.32110017  0.54194267  0.27907757  1.0
  Sn  Sn1874  1  0.32110017  0.87527600  0.27907757  1.0
  Sn  Sn1875  1  0.65443350  0.20860933  0.27907757  1.0
  Sn  Sn1876  1  0.65443350  0.54194267  0.27907757  1.0
  Sn  Sn1877  1  0.65443350  0.87527600  0.27907757  1.0
  Sn  Sn1878  1  0.98776683  0.20860933  0.27907757  1.0
  Sn  Sn1879  1  0.98776683  0.54194267  0.27907757  1.0
  Sn  Sn1880  1  0.98776683  0.87527600  0.27907757  1.0
  Sn  Sn1881  1  0.15443350  0.20860933  0.20764900  1.0
  Sn  Sn1882  1  0.15443350  0.54194267  0.20764900  1.0
  Sn  Sn1883  1  0.15443350  0.87527600  0.20764900  1.0
  Sn  Sn1884  1  0.48776683  0.20860933  0.20764900  1.0
  Sn  Sn1885  1  0.48776683  0.54194267  0.20764900  1.0
  Sn  Sn1886  1  0.48776683  0.87527600  0.20764900  1.0
  Sn  Sn1887  1  0.82110017  0.20860933  0.20764900  1.0
  Sn  Sn1888  1  0.82110017  0.54194267  0.20764900  1.0
  Sn  Sn1889  1  0.82110017  0.87527600  0.20764900  1.0
  Sn  Sn1890  1  0.26546017  0.31964667  0.16006614  1.0
  Sn  Sn1891  1  0.26546017  0.65298000  0.16006614  1.0
  Sn  Sn1892  1  0.26546017  0.98631333  0.16006614  1.0
  Sn  Sn1893  1  0.59879350  0.31964667  0.16006614  1.0
  Sn  Sn1894  1  0.59879350  0.65298000  0.16006614  1.0
  Sn  Sn1895  1  0.59879350  0.98631333  0.16006614  1.0
  Sn  Sn1896  1  0.93212683  0.31964667  0.16006614  1.0
  Sn  Sn1897  1  0.93212683  0.65298000  0.16006614  1.0
  Sn  Sn1898  1  0.93212683  0.98631333  0.16006614  1.0
  Sn  Sn1899  1  0.09879350  0.31964667  0.23149471  1.0
  Sn  Sn1900  1  0.09879350  0.65298000  0.23149471  1.0
  Sn  Sn1901  1  0.09879350  0.98631333  0.23149471  1.0
  Sn  Sn1902  1  0.43212683  0.31964667  0.23149471  1.0
  Sn  Sn1903  1  0.43212683  0.65298000  0.23149471  1.0
  Sn  Sn1904  1  0.43212683  0.98631333  0.23149471  1.0
  Sn  Sn1905  1  0.76546017  0.31964667  0.23149471  1.0
  Sn  Sn1906  1  0.76546017  0.65298000  0.23149471  1.0
  Sn  Sn1907  1  0.76546017  0.98631333  0.23149471  1.0
  Sn  Sn1908  1  0.13405500  0.04551933  0.14495407  1.0
  Sn  Sn1909  1  0.13405500  0.37885267  0.14495407  1.0
  Sn  Sn1910  1  0.13405500  0.71218600  0.14495407  1.0
  Sn  Sn1911  1  0.46738833  0.04551933  0.14495407  1.0
  Sn  Sn1912  1  0.46738833  0.37885267  0.14495407  1.0
  Sn  Sn1913  1  0.46738833  0.71218600  0.14495407  1.0
  Sn  Sn1914  1  0.80072167  0.04551933  0.14495407  1.0
  Sn  Sn1915  1  0.80072167  0.37885267  0.14495407  1.0
  Sn  Sn1916  1  0.80072167  0.71218600  0.14495407  1.0
  Sn  Sn1917  1  0.30072167  0.04551933  0.21638264  1.0
  Sn  Sn1918  1  0.30072167  0.37885267  0.21638264  1.0
  Sn  Sn1919  1  0.30072167  0.71218600  0.21638264  1.0
  Sn  Sn1920  1  0.63405500  0.04551933  0.21638264  1.0
  Sn  Sn1921  1  0.63405500  0.37885267  0.21638264  1.0
  Sn  Sn1922  1  0.63405500  0.71218600  0.21638264  1.0
  Sn  Sn1923  1  0.96738833  0.04551933  0.21638264  1.0
  Sn  Sn1924  1  0.96738833  0.37885267  0.21638264  1.0
  Sn  Sn1925  1  0.96738833  0.71218600  0.21638264  1.0
  Sn  Sn1926  1  0.07870683  0.15611600  0.16867471  1.0
  Sn  Sn1927  1  0.07870683  0.48944933  0.16867471  1.0
  Sn  Sn1928  1  0.07870683  0.82278267  0.16867471  1.0
  Sn  Sn1929  1  0.41204017  0.15611600  0.16867471  1.0
  Sn  Sn1930  1  0.41204017  0.48944933  0.16867471  1.0
  Sn  Sn1931  1  0.41204017  0.82278267  0.16867471  1.0
  Sn  Sn1932  1  0.74537350  0.15611600  0.16867471  1.0
  Sn  Sn1933  1  0.74537350  0.48944933  0.16867471  1.0
  Sn  Sn1934  1  0.74537350  0.82278267  0.16867471  1.0
  Sn  Sn1935  1  0.24537350  0.15611600  0.24010329  1.0
  Sn  Sn1936  1  0.24537350  0.48944933  0.24010329  1.0
  Sn  Sn1937  1  0.24537350  0.82278267  0.24010329  1.0
  Sn  Sn1938  1  0.57870683  0.15611600  0.24010329  1.0
  Sn  Sn1939  1  0.57870683  0.48944933  0.24010329  1.0
  Sn  Sn1940  1  0.57870683  0.82278267  0.24010329  1.0
  Sn  Sn1941  1  0.91204017  0.15611600  0.24010329  1.0
  Sn  Sn1942  1  0.91204017  0.48944933  0.24010329  1.0
  Sn  Sn1943  1  0.91204017  0.82278267  0.24010329  1.0
  Sn  Sn1944  1  0.02326867  0.26767333  0.19243393  1.0
  Sn  Sn1945  1  0.02326867  0.60100667  0.19243393  1.0
  Sn  Sn1946  1  0.02326867  0.93434000  0.19243393  1.0
  Sn  Sn1947  1  0.35660200  0.26767333  0.19243393  1.0
  Sn  Sn1948  1  0.35660200  0.60100667  0.19243393  1.0
  Sn  Sn1949  1  0.35660200  0.93434000  0.19243393  1.0
  Sn  Sn1950  1  0.68993533  0.26767333  0.19243393  1.0
  Sn  Sn1951  1  0.68993533  0.60100667  0.19243393  1.0
  Sn  Sn1952  1  0.68993533  0.93434000  0.19243393  1.0
  Sn  Sn1953  1  0.18993533  0.26767333  0.26386250  1.0
  Sn  Sn1954  1  0.18993533  0.60100667  0.26386250  1.0
  Sn  Sn1955  1  0.18993533  0.93434000  0.26386250  1.0
  Sn  Sn1956  1  0.52326867  0.26767333  0.26386250  1.0
  Sn  Sn1957  1  0.52326867  0.60100667  0.26386250  1.0
  Sn  Sn1958  1  0.52326867  0.93434000  0.26386250  1.0
  Sn  Sn1959  1  0.85660200  0.26767333  0.26386250  1.0
  Sn  Sn1960  1  0.85660200  0.60100667  0.26386250  1.0
  Sn  Sn1961  1  0.85660200  0.93434000  0.26386250  1.0
  Sn  Sn1962  1  0.06774167  0.01031033  0.17337407  1.0
  Sn  Sn1963  1  0.06774167  0.34364367  0.17337407  1.0
  Sn  Sn1964  1  0.06774167  0.67697700  0.17337407  1.0
  Sn  Sn1965  1  0.40107500  0.01031033  0.17337407  1.0
  Sn  Sn1966  1  0.40107500  0.34364367  0.17337407  1.0
  Sn  Sn1967  1  0.40107500  0.67697700  0.17337407  1.0
  Sn  Sn1968  1  0.73440833  0.01031033  0.17337407  1.0
  Sn  Sn1969  1  0.73440833  0.34364367  0.17337407  1.0
  Sn  Sn1970  1  0.73440833  0.67697700  0.17337407  1.0
  Sn  Sn1971  1  0.23440833  0.01031033  0.24480264  1.0
  Sn  Sn1972  1  0.23440833  0.34364367  0.24480264  1.0
  Sn  Sn1973  1  0.23440833  0.67697700  0.24480264  1.0
  Sn  Sn1974  1  0.56774167  0.01031033  0.24480264  1.0
  Sn  Sn1975  1  0.56774167  0.34364367  0.24480264  1.0
  Sn  Sn1976  1  0.56774167  0.67697700  0.24480264  1.0
  Sn  Sn1977  1  0.90107500  0.01031033  0.24480264  1.0
  Sn  Sn1978  1  0.90107500  0.34364367  0.24480264  1.0
  Sn  Sn1979  1  0.90107500  0.67697700  0.24480264  1.0
  Sn  Sn1980  1  0.01286950  0.12155833  0.19689071  1.0
  Sn  Sn1981  1  0.01286950  0.45489167  0.19689071  1.0
  Sn  Sn1982  1  0.01286950  0.78822500  0.19689071  1.0
  Sn  Sn1983  1  0.34620283  0.12155833  0.19689071  1.0
  Sn  Sn1984  1  0.34620283  0.45489167  0.19689071  1.0
  Sn  Sn1985  1  0.34620283  0.78822500  0.19689071  1.0
  Sn  Sn1986  1  0.67953617  0.12155833  0.19689071  1.0
  Sn  Sn1987  1  0.67953617  0.45489167  0.19689071  1.0
  Sn  Sn1988  1  0.67953617  0.78822500  0.19689071  1.0
  Sn  Sn1989  1  0.17953617  0.12155833  0.26831929  1.0
  Sn  Sn1990  1  0.17953617  0.45489167  0.26831929  1.0
  Sn  Sn1991  1  0.17953617  0.78822500  0.26831929  1.0
  Sn  Sn1992  1  0.51286950  0.12155833  0.26831929  1.0
  Sn  Sn1993  1  0.51286950  0.45489167  0.26831929  1.0
  Sn  Sn1994  1  0.51286950  0.78822500  0.26831929  1.0
  Sn  Sn1995  1  0.84620283  0.12155833  0.26831929  1.0
  Sn  Sn1996  1  0.84620283  0.45489167  0.26831929  1.0
  Sn  Sn1997  1  0.84620283  0.78822500  0.26831929  1.0
  Sn  Sn1998  1  0.29012883  0.23259767  0.22092243  1.0
  Sn  Sn1999  1  0.29012883  0.56593100  0.22092243  1.0
  Sn  Sn2000  1  0.29012883  0.89926433  0.22092243  1.0
  Sn  Sn2001  1  0.62346217  0.23259767  0.22092243  1.0
  Sn  Sn2002  1  0.62346217  0.56593100  0.22092243  1.0
  Sn  Sn2003  1  0.62346217  0.89926433  0.22092243  1.0
  Sn  Sn2004  1  0.95679550  0.23259767  0.22092243  1.0
  Sn  Sn2005  1  0.95679550  0.56593100  0.22092243  1.0
  Sn  Sn2006  1  0.95679550  0.89926433  0.22092243  1.0
  Sn  Sn2007  1  0.12346217  0.23259767  0.14949386  1.0
  Sn  Sn2008  1  0.12346217  0.56593100  0.14949386  1.0
  Sn  Sn2009  1  0.12346217  0.89926433  0.14949386  1.0
  Sn  Sn2010  1  0.45679550  0.23259767  0.14949386  1.0
  Sn  Sn2011  1  0.45679550  0.56593100  0.14949386  1.0
  Sn  Sn2012  1  0.45679550  0.89926433  0.14949386  1.0
  Sn  Sn2013  1  0.79012883  0.23259767  0.14949386  1.0
  Sn  Sn2014  1  0.79012883  0.56593100  0.14949386  1.0
  Sn  Sn2015  1  0.79012883  0.89926433  0.14949386  1.0
  Ni  Ni2016  1  0.08901333  0.06943867  0.34320321  1.0
  Ni  Ni2017  1  0.08901333  0.40277200  0.34320321  1.0
  Ni  Ni2018  1  0.08901333  0.73610533  0.34320321  1.0
  Ni  Ni2019  1  0.42234667  0.06943867  0.34320321  1.0
  Ni  Ni2020  1  0.42234667  0.40277200  0.34320321  1.0
  Ni  Ni2021  1  0.42234667  0.73610533  0.34320321  1.0
  Ni  Ni2022  1  0.75568000  0.06943867  0.34320321  1.0
  Ni  Ni2023  1  0.75568000  0.40277200  0.34320321  1.0
  Ni  Ni2024  1  0.75568000  0.73610533  0.34320321  1.0
  Ni  Ni2025  1  0.25568000  0.06943867  0.41463179  1.0
  Ni  Ni2026  1  0.25568000  0.40277200  0.41463179  1.0
  Ni  Ni2027  1  0.25568000  0.73610533  0.41463179  1.0
  Ni  Ni2028  1  0.58901333  0.06943867  0.41463179  1.0
  Ni  Ni2029  1  0.58901333  0.40277200  0.41463179  1.0
  Ni  Ni2030  1  0.58901333  0.73610533  0.41463179  1.0
  Ni  Ni2031  1  0.92234667  0.06943867  0.41463179  1.0
  Ni  Ni2032  1  0.92234667  0.40277200  0.41463179  1.0
  Ni  Ni2033  1  0.92234667  0.73610533  0.41463179  1.0
  Ni  Ni2034  1  0.03290100  0.18044800  0.36757507  1.0
  Ni  Ni2035  1  0.03290100  0.51378133  0.36757507  1.0
  Ni  Ni2036  1  0.03290100  0.84711467  0.36757507  1.0
  Ni  Ni2037  1  0.36623433  0.18044800  0.36757507  1.0
  Ni  Ni2038  1  0.36623433  0.51378133  0.36757507  1.0
  Ni  Ni2039  1  0.36623433  0.84711467  0.36757507  1.0
  Ni  Ni2040  1  0.69956767  0.18044800  0.36757507  1.0
  Ni  Ni2041  1  0.69956767  0.51378133  0.36757507  1.0
  Ni  Ni2042  1  0.69956767  0.84711467  0.36757507  1.0
  Ni  Ni2043  1  0.19956767  0.18044800  0.29614650  1.0
  Ni  Ni2044  1  0.19956767  0.51378133  0.29614650  1.0
  Ni  Ni2045  1  0.19956767  0.84711467  0.29614650  1.0
  Ni  Ni2046  1  0.53290100  0.18044800  0.29614650  1.0
  Ni  Ni2047  1  0.53290100  0.51378133  0.29614650  1.0
  Ni  Ni2048  1  0.53290100  0.84711467  0.29614650  1.0
  Ni  Ni2049  1  0.86623433  0.18044800  0.29614650  1.0
  Ni  Ni2050  1  0.86623433  0.51378133  0.29614650  1.0
  Ni  Ni2051  1  0.86623433  0.84711467  0.29614650  1.0
  Ni  Ni2052  1  0.31080783  0.29162400  0.39128100  1.0
  Ni  Ni2053  1  0.31080783  0.62495733  0.39128100  1.0
  Ni  Ni2054  1  0.31080783  0.95829067  0.39128100  1.0
  Ni  Ni2055  1  0.64414117  0.29162400  0.39128100  1.0
  Ni  Ni2056  1  0.64414117  0.62495733  0.39128100  1.0
  Ni  Ni2057  1  0.64414117  0.95829067  0.39128100  1.0
  Ni  Ni2058  1  0.97747450  0.29162400  0.39128100  1.0
  Ni  Ni2059  1  0.97747450  0.62495733  0.39128100  1.0
  Ni  Ni2060  1  0.97747450  0.95829067  0.39128100  1.0
  Ni  Ni2061  1  0.14414117  0.29162400  0.31985243  1.0
  Ni  Ni2062  1  0.14414117  0.62495733  0.31985243  1.0
  Ni  Ni2063  1  0.14414117  0.95829067  0.31985243  1.0
  Ni  Ni2064  1  0.47747450  0.29162400  0.31985243  1.0
  Ni  Ni2065  1  0.47747450  0.62495733  0.31985243  1.0
  Ni  Ni2066  1  0.47747450  0.95829067  0.31985243  1.0
  Ni  Ni2067  1  0.81080783  0.29162400  0.31985243  1.0
  Ni  Ni2068  1  0.81080783  0.62495733  0.31985243  1.0
  Ni  Ni2069  1  0.81080783  0.95829067  0.31985243  1.0
  Ni  Ni2070  1  0.32510200  0.09731333  0.31285321  1.0
  Ni  Ni2071  1  0.32510200  0.43064667  0.31285321  1.0
  Ni  Ni2072  1  0.32510200  0.76398000  0.31285321  1.0
  Ni  Ni2073  1  0.65843533  0.09731333  0.31285321  1.0
  Ni  Ni2074  1  0.65843533  0.43064667  0.31285321  1.0
  Ni  Ni2075  1  0.65843533  0.76398000  0.31285321  1.0
  Ni  Ni2076  1  0.99176867  0.09731333  0.31285321  1.0
  Ni  Ni2077  1  0.99176867  0.43064667  0.31285321  1.0
  Ni  Ni2078  1  0.99176867  0.76398000  0.31285321  1.0
  Ni  Ni2079  1  0.15843533  0.09731333  0.38428179  1.0
  Ni  Ni2080  1  0.15843533  0.43064667  0.38428179  1.0
  Ni  Ni2081  1  0.15843533  0.76398000  0.38428179  1.0
  Ni  Ni2082  1  0.49176867  0.09731333  0.38428179  1.0
  Ni  Ni2083  1  0.49176867  0.43064667  0.38428179  1.0
  Ni  Ni2084  1  0.49176867  0.76398000  0.38428179  1.0
  Ni  Ni2085  1  0.82510200  0.09731333  0.38428179  1.0
  Ni  Ni2086  1  0.82510200  0.43064667  0.38428179  1.0
  Ni  Ni2087  1  0.82510200  0.76398000  0.38428179  1.0
  Ni  Ni2088  1  0.26805600  0.20841433  0.33722107  1.0
  Ni  Ni2089  1  0.26805600  0.54174767  0.33722107  1.0
  Ni  Ni2090  1  0.26805600  0.87508100  0.33722107  1.0
  Ni  Ni2091  1  0.60138933  0.20841433  0.33722107  1.0
  Ni  Ni2092  1  0.60138933  0.54174767  0.33722107  1.0
  Ni  Ni2093  1  0.60138933  0.87508100  0.33722107  1.0
  Ni  Ni2094  1  0.93472267  0.20841433  0.33722107  1.0
  Ni  Ni2095  1  0.93472267  0.54174767  0.33722107  1.0
  Ni  Ni2096  1  0.93472267  0.87508100  0.33722107  1.0
  Ni  Ni2097  1  0.10138933  0.20841433  0.40864964  1.0
  Ni  Ni2098  1  0.10138933  0.54174767  0.40864964  1.0
  Ni  Ni2099  1  0.10138933  0.87508100  0.40864964  1.0
  Ni  Ni2100  1  0.43472267  0.20841433  0.40864964  1.0
  Ni  Ni2101  1  0.43472267  0.54174767  0.40864964  1.0
  Ni  Ni2102  1  0.43472267  0.87508100  0.40864964  1.0
  Ni  Ni2103  1  0.76805600  0.20841433  0.40864964  1.0
  Ni  Ni2104  1  0.76805600  0.54174767  0.40864964  1.0
  Ni  Ni2105  1  0.76805600  0.87508100  0.40864964  1.0
  Ni  Ni2106  1  0.21231500  0.31971167  0.36104664  1.0
  Ni  Ni2107  1  0.21231500  0.65304500  0.36104664  1.0
  Ni  Ni2108  1  0.21231500  0.98637833  0.36104664  1.0
  Ni  Ni2109  1  0.54564833  0.31971167  0.36104664  1.0
  Ni  Ni2110  1  0.54564833  0.65304500  0.36104664  1.0
  Ni  Ni2111  1  0.54564833  0.98637833  0.36104664  1.0
  Ni  Ni2112  1  0.87898167  0.31971167  0.36104664  1.0
  Ni  Ni2113  1  0.87898167  0.65304500  0.36104664  1.0
  Ni  Ni2114  1  0.87898167  0.98637833  0.36104664  1.0
  Ni  Ni2115  1  0.04564833  0.31971167  0.28961807  1.0
  Ni  Ni2116  1  0.04564833  0.65304500  0.28961807  1.0
  Ni  Ni2117  1  0.04564833  0.98637833  0.28961807  1.0
  Ni  Ni2118  1  0.37898167  0.31971167  0.28961807  1.0
  Ni  Ni2119  1  0.37898167  0.65304500  0.28961807  1.0
  Ni  Ni2120  1  0.37898167  0.98637833  0.28961807  1.0
  Ni  Ni2121  1  0.71231500  0.31971167  0.28961807  1.0
  Ni  Ni2122  1  0.71231500  0.65304500  0.28961807  1.0
  Ni  Ni2123  1  0.71231500  0.98637833  0.28961807  1.0
  Ni  Ni2124  1  0.02240867  0.04219900  0.30055321  1.0
  Ni  Ni2125  1  0.02240867  0.37553233  0.30055321  1.0
  Ni  Ni2126  1  0.02240867  0.70886567  0.30055321  1.0
  Ni  Ni2127  1  0.35574200  0.04219900  0.30055321  1.0
  Ni  Ni2128  1  0.35574200  0.37553233  0.30055321  1.0
  Ni  Ni2129  1  0.35574200  0.70886567  0.30055321  1.0
  Ni  Ni2130  1  0.68907533  0.04219900  0.30055321  1.0
  Ni  Ni2131  1  0.68907533  0.37553233  0.30055321  1.0
  Ni  Ni2132  1  0.68907533  0.70886567  0.30055321  1.0
  Ni  Ni2133  1  0.18907533  0.04219900  0.37198179  1.0
  Ni  Ni2134  1  0.18907533  0.37553233  0.37198179  1.0
  Ni  Ni2135  1  0.18907533  0.70886567  0.37198179  1.0
  Ni  Ni2136  1  0.52240867  0.04219900  0.37198179  1.0
  Ni  Ni2137  1  0.52240867  0.37553233  0.37198179  1.0
  Ni  Ni2138  1  0.52240867  0.70886567  0.37198179  1.0
  Ni  Ni2139  1  0.85574200  0.04219900  0.37198179  1.0
  Ni  Ni2140  1  0.85574200  0.37553233  0.37198179  1.0
  Ni  Ni2141  1  0.85574200  0.70886567  0.37198179  1.0
  Ni  Ni2142  1  0.30076617  0.15207567  0.32430943  1.0
  Ni  Ni2143  1  0.30076617  0.48540900  0.32430943  1.0
  Ni  Ni2144  1  0.30076617  0.81874233  0.32430943  1.0
  Ni  Ni2145  1  0.63409950  0.15207567  0.32430943  1.0
  Ni  Ni2146  1  0.63409950  0.48540900  0.32430943  1.0
  Ni  Ni2147  1  0.63409950  0.81874233  0.32430943  1.0
  Ni  Ni2148  1  0.96743283  0.15207567  0.32430943  1.0
  Ni  Ni2149  1  0.96743283  0.48540900  0.32430943  1.0
  Ni  Ni2150  1  0.96743283  0.81874233  0.32430943  1.0
  Ni  Ni2151  1  0.13409950  0.15207567  0.39573800  1.0
  Ni  Ni2152  1  0.13409950  0.48540900  0.39573800  1.0
  Ni  Ni2153  1  0.13409950  0.81874233  0.39573800  1.0
  Ni  Ni2154  1  0.46743283  0.15207567  0.39573800  1.0
  Ni  Ni2155  1  0.46743283  0.48540900  0.39573800  1.0
  Ni  Ni2156  1  0.46743283  0.81874233  0.39573800  1.0
  Ni  Ni2157  1  0.80076617  0.15207567  0.39573800  1.0
  Ni  Ni2158  1  0.80076617  0.48540900  0.39573800  1.0
  Ni  Ni2159  1  0.80076617  0.81874233  0.39573800  1.0
  Ni  Ni2160  1  0.24554900  0.26381267  0.34813364  1.0
  Ni  Ni2161  1  0.24554900  0.59714600  0.34813364  1.0
  Ni  Ni2162  1  0.24554900  0.93047933  0.34813364  1.0
  Ni  Ni2163  1  0.57888233  0.26381267  0.34813364  1.0
  Ni  Ni2164  1  0.57888233  0.59714600  0.34813364  1.0
  Ni  Ni2165  1  0.57888233  0.93047933  0.34813364  1.0
  Ni  Ni2166  1  0.91221567  0.26381267  0.34813364  1.0
  Ni  Ni2167  1  0.91221567  0.59714600  0.34813364  1.0
  Ni  Ni2168  1  0.91221567  0.93047933  0.34813364  1.0
  Ni  Ni2169  1  0.07888233  0.26381267  0.41956221  1.0
  Ni  Ni2170  1  0.07888233  0.59714600  0.41956221  1.0
  Ni  Ni2171  1  0.07888233  0.93047933  0.41956221  1.0
  Ni  Ni2172  1  0.41221567  0.26381267  0.41956221  1.0
  Ni  Ni2173  1  0.41221567  0.59714600  0.41956221  1.0
  Ni  Ni2174  1  0.41221567  0.93047933  0.41956221  1.0
  Ni  Ni2175  1  0.74554900  0.26381267  0.41956221  1.0
  Ni  Ni2176  1  0.74554900  0.59714600  0.41956221  1.0
  Ni  Ni2177  1  0.74554900  0.93047933  0.41956221  1.0
  Ni  Ni2178  1  0.11946033  0.01386367  0.32949693  1.0
  Ni  Ni2179  1  0.11946033  0.34719700  0.32949693  1.0
  Ni  Ni2180  1  0.11946033  0.68053033  0.32949693  1.0
  Ni  Ni2181  1  0.45279367  0.01386367  0.32949693  1.0
  Ni  Ni2182  1  0.45279367  0.34719700  0.32949693  1.0
  Ni  Ni2183  1  0.45279367  0.68053033  0.32949693  1.0
  Ni  Ni2184  1  0.78612700  0.01386367  0.32949693  1.0
  Ni  Ni2185  1  0.78612700  0.34719700  0.32949693  1.0
  Ni  Ni2186  1  0.78612700  0.68053033  0.32949693  1.0
  Ni  Ni2187  1  0.28612700  0.01386367  0.40092550  1.0
  Ni  Ni2188  1  0.28612700  0.34719700  0.40092550  1.0
  Ni  Ni2189  1  0.28612700  0.68053033  0.40092550  1.0
  Ni  Ni2190  1  0.61946033  0.01386367  0.40092550  1.0
  Ni  Ni2191  1  0.61946033  0.34719700  0.40092550  1.0
  Ni  Ni2192  1  0.61946033  0.68053033  0.40092550  1.0
  Ni  Ni2193  1  0.95279367  0.01386367  0.40092550  1.0
  Ni  Ni2194  1  0.95279367  0.34719700  0.40092550  1.0
  Ni  Ni2195  1  0.95279367  0.68053033  0.40092550  1.0
  Ni  Ni2196  1  0.06404100  0.12504767  0.35309721  1.0
  Ni  Ni2197  1  0.06404100  0.45838100  0.35309721  1.0
  Ni  Ni2198  1  0.06404100  0.79171433  0.35309721  1.0
  Ni  Ni2199  1  0.39737433  0.12504767  0.35309721  1.0
  Ni  Ni2200  1  0.39737433  0.45838100  0.35309721  1.0
  Ni  Ni2201  1  0.39737433  0.79171433  0.35309721  1.0
  Ni  Ni2202  1  0.73070767  0.12504767  0.35309721  1.0
  Ni  Ni2203  1  0.73070767  0.45838100  0.35309721  1.0
  Ni  Ni2204  1  0.73070767  0.79171433  0.35309721  1.0
  Ni  Ni2205  1  0.23070767  0.12504767  0.42452579  1.0
  Ni  Ni2206  1  0.23070767  0.45838100  0.42452579  1.0
  Ni  Ni2207  1  0.23070767  0.79171433  0.42452579  1.0
  Ni  Ni2208  1  0.56404100  0.12504767  0.42452579  1.0
  Ni  Ni2209  1  0.56404100  0.45838100  0.42452579  1.0
  Ni  Ni2210  1  0.56404100  0.79171433  0.42452579  1.0
  Ni  Ni2211  1  0.89737433  0.12504767  0.42452579  1.0
  Ni  Ni2212  1  0.89737433  0.45838100  0.42452579  1.0
  Ni  Ni2213  1  0.89737433  0.79171433  0.42452579  1.0
  Ni  Ni2214  1  0.00855683  0.23608033  0.37694814  1.0
  Ni  Ni2215  1  0.00855683  0.56941367  0.37694814  1.0
  Ni  Ni2216  1  0.00855683  0.90274700  0.37694814  1.0
  Ni  Ni2217  1  0.34189017  0.23608033  0.37694814  1.0
  Ni  Ni2218  1  0.34189017  0.56941367  0.37694814  1.0
  Ni  Ni2219  1  0.34189017  0.90274700  0.37694814  1.0
  Ni  Ni2220  1  0.67522350  0.23608033  0.37694814  1.0
  Ni  Ni2221  1  0.67522350  0.56941367  0.37694814  1.0
  Ni  Ni2222  1  0.67522350  0.90274700  0.37694814  1.0
  Ni  Ni2223  1  0.17522350  0.23608033  0.30551957  1.0
  Ni  Ni2224  1  0.17522350  0.56941367  0.30551957  1.0
  Ni  Ni2225  1  0.17522350  0.90274700  0.30551957  1.0
  Ni  Ni2226  1  0.50855683  0.23608033  0.30551957  1.0
  Ni  Ni2227  1  0.50855683  0.56941367  0.30551957  1.0
  Ni  Ni2228  1  0.50855683  0.90274700  0.30551957  1.0
  Ni  Ni2229  1  0.84189017  0.23608033  0.30551957  1.0
  Ni  Ni2230  1  0.84189017  0.56941367  0.30551957  1.0
  Ni  Ni2231  1  0.84189017  0.90274700  0.30551957  1.0
  Ni  Ni2232  1  0.02240867  0.04219900  0.37076607  1.0
  Ni  Ni2233  1  0.02240867  0.37553233  0.37076607  1.0
  Ni  Ni2234  1  0.02240867  0.70886567  0.37076607  1.0
  Ni  Ni2235  1  0.35574200  0.04219900  0.37076607  1.0
  Ni  Ni2236  1  0.35574200  0.37553233  0.37076607  1.0
  Ni  Ni2237  1  0.35574200  0.70886567  0.37076607  1.0
  Ni  Ni2238  1  0.68907533  0.04219900  0.37076607  1.0
  Ni  Ni2239  1  0.68907533  0.37553233  0.37076607  1.0
  Ni  Ni2240  1  0.68907533  0.70886567  0.37076607  1.0
  Ni  Ni2241  1  0.18907533  0.04219900  0.29933750  1.0
  Ni  Ni2242  1  0.18907533  0.37553233  0.29933750  1.0
  Ni  Ni2243  1  0.18907533  0.70886567  0.29933750  1.0
  Ni  Ni2244  1  0.52240867  0.04219900  0.29933750  1.0
  Ni  Ni2245  1  0.52240867  0.37553233  0.29933750  1.0
  Ni  Ni2246  1  0.52240867  0.70886567  0.29933750  1.0
  Ni  Ni2247  1  0.85574200  0.04219900  0.29933750  1.0
  Ni  Ni2248  1  0.85574200  0.37553233  0.29933750  1.0
  Ni  Ni2249  1  0.85574200  0.70886567  0.29933750  1.0
  Ni  Ni2250  1  0.30076617  0.15207567  0.39413200  1.0
  Ni  Ni2251  1  0.30076617  0.48540900  0.39413200  1.0
  Ni  Ni2252  1  0.30076617  0.81874233  0.39413200  1.0
  Ni  Ni2253  1  0.63409950  0.15207567  0.39413200  1.0
  Ni  Ni2254  1  0.63409950  0.48540900  0.39413200  1.0
  Ni  Ni2255  1  0.63409950  0.81874233  0.39413200  1.0
  Ni  Ni2256  1  0.96743283  0.15207567  0.39413200  1.0
  Ni  Ni2257  1  0.96743283  0.48540900  0.39413200  1.0
  Ni  Ni2258  1  0.96743283  0.81874233  0.39413200  1.0
  Ni  Ni2259  1  0.13409950  0.15207567  0.32270343  1.0
  Ni  Ni2260  1  0.13409950  0.48540900  0.32270343  1.0
  Ni  Ni2261  1  0.13409950  0.81874233  0.32270343  1.0
  Ni  Ni2262  1  0.46743283  0.15207567  0.32270343  1.0
  Ni  Ni2263  1  0.46743283  0.48540900  0.32270343  1.0
  Ni  Ni2264  1  0.46743283  0.81874233  0.32270343  1.0
  Ni  Ni2265  1  0.80076617  0.15207567  0.32270343  1.0
  Ni  Ni2266  1  0.80076617  0.48540900  0.32270343  1.0
  Ni  Ni2267  1  0.80076617  0.81874233  0.32270343  1.0
  Ni  Ni2268  1  0.24554900  0.26381267  0.41763679  1.0
  Ni  Ni2269  1  0.24554900  0.59714600  0.41763679  1.0
  Ni  Ni2270  1  0.24554900  0.93047933  0.41763679  1.0
  Ni  Ni2271  1  0.57888233  0.26381267  0.41763679  1.0
  Ni  Ni2272  1  0.57888233  0.59714600  0.41763679  1.0
  Ni  Ni2273  1  0.57888233  0.93047933  0.41763679  1.0
  Ni  Ni2274  1  0.91221567  0.26381267  0.41763679  1.0
  Ni  Ni2275  1  0.91221567  0.59714600  0.41763679  1.0
  Ni  Ni2276  1  0.91221567  0.93047933  0.41763679  1.0
  Ni  Ni2277  1  0.07888233  0.26381267  0.34620821  1.0
  Ni  Ni2278  1  0.07888233  0.59714600  0.34620821  1.0
  Ni  Ni2279  1  0.07888233  0.93047933  0.34620821  1.0
  Ni  Ni2280  1  0.41221567  0.26381267  0.34620821  1.0
  Ni  Ni2281  1  0.41221567  0.59714600  0.34620821  1.0
  Ni  Ni2282  1  0.41221567  0.93047933  0.34620821  1.0
  Ni  Ni2283  1  0.74554900  0.26381267  0.34620821  1.0
  Ni  Ni2284  1  0.74554900  0.59714600  0.34620821  1.0
  Ni  Ni2285  1  0.74554900  0.93047933  0.34620821  1.0
  Ni  Ni2286  1  0.11946033  0.01386367  0.40149236  1.0
  Ni  Ni2287  1  0.11946033  0.34719700  0.40149236  1.0
  Ni  Ni2288  1  0.11946033  0.68053033  0.40149236  1.0
  Ni  Ni2289  1  0.45279367  0.01386367  0.40149236  1.0
  Ni  Ni2290  1  0.45279367  0.34719700  0.40149236  1.0
  Ni  Ni2291  1  0.45279367  0.68053033  0.40149236  1.0
  Ni  Ni2292  1  0.78612700  0.01386367  0.40149236  1.0
  Ni  Ni2293  1  0.78612700  0.34719700  0.40149236  1.0
  Ni  Ni2294  1  0.78612700  0.68053033  0.40149236  1.0
  Ni  Ni2295  1  0.28612700  0.01386367  0.33006379  1.0
  Ni  Ni2296  1  0.28612700  0.34719700  0.33006379  1.0
  Ni  Ni2297  1  0.28612700  0.68053033  0.33006379  1.0
  Ni  Ni2298  1  0.61946033  0.01386367  0.33006379  1.0
  Ni  Ni2299  1  0.61946033  0.34719700  0.33006379  1.0
  Ni  Ni2300  1  0.61946033  0.68053033  0.33006379  1.0
  Ni  Ni2301  1  0.95279367  0.01386367  0.33006379  1.0
  Ni  Ni2302  1  0.95279367  0.34719700  0.33006379  1.0
  Ni  Ni2303  1  0.95279367  0.68053033  0.33006379  1.0
  Ni  Ni2304  1  0.06404100  0.12504767  0.42539436  1.0
  Ni  Ni2305  1  0.06404100  0.45838100  0.42539436  1.0
  Ni  Ni2306  1  0.06404100  0.79171433  0.42539436  1.0
  Ni  Ni2307  1  0.39737433  0.12504767  0.42539436  1.0
  Ni  Ni2308  1  0.39737433  0.45838100  0.42539436  1.0
  Ni  Ni2309  1  0.39737433  0.79171433  0.42539436  1.0
  Ni  Ni2310  1  0.73070767  0.12504767  0.42539436  1.0
  Ni  Ni2311  1  0.73070767  0.45838100  0.42539436  1.0
  Ni  Ni2312  1  0.73070767  0.79171433  0.42539436  1.0
  Ni  Ni2313  1  0.23070767  0.12504767  0.35396579  1.0
  Ni  Ni2314  1  0.23070767  0.45838100  0.35396579  1.0
  Ni  Ni2315  1  0.23070767  0.79171433  0.35396579  1.0
  Ni  Ni2316  1  0.56404100  0.12504767  0.35396579  1.0
  Ni  Ni2317  1  0.56404100  0.45838100  0.35396579  1.0
  Ni  Ni2318  1  0.56404100  0.79171433  0.35396579  1.0
  Ni  Ni2319  1  0.89737433  0.12504767  0.35396579  1.0
  Ni  Ni2320  1  0.89737433  0.45838100  0.35396579  1.0
  Ni  Ni2321  1  0.89737433  0.79171433  0.35396579  1.0
  Ni  Ni2322  1  0.00855683  0.23608033  0.30624414  1.0
  Ni  Ni2323  1  0.00855683  0.56941367  0.30624414  1.0
  Ni  Ni2324  1  0.00855683  0.90274700  0.30624414  1.0
  Ni  Ni2325  1  0.34189017  0.23608033  0.30624414  1.0
  Ni  Ni2326  1  0.34189017  0.56941367  0.30624414  1.0
  Ni  Ni2327  1  0.34189017  0.90274700  0.30624414  1.0
  Ni  Ni2328  1  0.67522350  0.23608033  0.30624414  1.0
  Ni  Ni2329  1  0.67522350  0.56941367  0.30624414  1.0
  Ni  Ni2330  1  0.67522350  0.90274700  0.30624414  1.0
  Ni  Ni2331  1  0.17522350  0.23608033  0.37767271  1.0
  Ni  Ni2332  1  0.17522350  0.56941367  0.37767271  1.0
  Ni  Ni2333  1  0.17522350  0.90274700  0.37767271  1.0
  Ni  Ni2334  1  0.50855683  0.23608033  0.37767271  1.0
  Ni  Ni2335  1  0.50855683  0.56941367  0.37767271  1.0
  Ni  Ni2336  1  0.50855683  0.90274700  0.37767271  1.0
  Ni  Ni2337  1  0.84189017  0.23608033  0.37767271  1.0
  Ni  Ni2338  1  0.84189017  0.56941367  0.37767271  1.0
  Ni  Ni2339  1  0.84189017  0.90274700  0.37767271  1.0
  Ni  Ni2340  1  0.08901333  0.06943867  0.41388350  1.0
  Ni  Ni2341  1  0.08901333  0.40277200  0.41388350  1.0
  Ni  Ni2342  1  0.08901333  0.73610533  0.41388350  1.0
  Ni  Ni2343  1  0.42234667  0.06943867  0.41388350  1.0
  Ni  Ni2344  1  0.42234667  0.40277200  0.41388350  1.0
  Ni  Ni2345  1  0.42234667  0.73610533  0.41388350  1.0
  Ni  Ni2346  1  0.75568000  0.06943867  0.41388350  1.0
  Ni  Ni2347  1  0.75568000  0.40277200  0.41388350  1.0
  Ni  Ni2348  1  0.75568000  0.73610533  0.41388350  1.0
  Ni  Ni2349  1  0.25568000  0.06943867  0.34245493  1.0
  Ni  Ni2350  1  0.25568000  0.40277200  0.34245493  1.0
  Ni  Ni2351  1  0.25568000  0.73610533  0.34245493  1.0
  Ni  Ni2352  1  0.58901333  0.06943867  0.34245493  1.0
  Ni  Ni2353  1  0.58901333  0.40277200  0.34245493  1.0
  Ni  Ni2354  1  0.58901333  0.73610533  0.34245493  1.0
  Ni  Ni2355  1  0.92234667  0.06943867  0.34245493  1.0
  Ni  Ni2356  1  0.92234667  0.40277200  0.34245493  1.0
  Ni  Ni2357  1  0.92234667  0.73610533  0.34245493  1.0
  Ni  Ni2358  1  0.03290100  0.18044800  0.29475079  1.0
  Ni  Ni2359  1  0.03290100  0.51378133  0.29475079  1.0
  Ni  Ni2360  1  0.03290100  0.84711467  0.29475079  1.0
  Ni  Ni2361  1  0.36623433  0.18044800  0.29475079  1.0
  Ni  Ni2362  1  0.36623433  0.51378133  0.29475079  1.0
  Ni  Ni2363  1  0.36623433  0.84711467  0.29475079  1.0
  Ni  Ni2364  1  0.69956767  0.18044800  0.29475079  1.0
  Ni  Ni2365  1  0.69956767  0.51378133  0.29475079  1.0
  Ni  Ni2366  1  0.69956767  0.84711467  0.29475079  1.0
  Ni  Ni2367  1  0.19956767  0.18044800  0.36617936  1.0
  Ni  Ni2368  1  0.19956767  0.51378133  0.36617936  1.0
  Ni  Ni2369  1  0.19956767  0.84711467  0.36617936  1.0
  Ni  Ni2370  1  0.53290100  0.18044800  0.36617936  1.0
  Ni  Ni2371  1  0.53290100  0.51378133  0.36617936  1.0
  Ni  Ni2372  1  0.53290100  0.84711467  0.36617936  1.0
  Ni  Ni2373  1  0.86623433  0.18044800  0.36617936  1.0
  Ni  Ni2374  1  0.86623433  0.51378133  0.36617936  1.0
  Ni  Ni2375  1  0.86623433  0.84711467  0.36617936  1.0
  Ni  Ni2376  1  0.31080783  0.29162400  0.31855329  1.0
  Ni  Ni2377  1  0.31080783  0.62495733  0.31855329  1.0
  Ni  Ni2378  1  0.31080783  0.95829067  0.31855329  1.0
  Ni  Ni2379  1  0.64414117  0.29162400  0.31855329  1.0
  Ni  Ni2380  1  0.64414117  0.62495733  0.31855329  1.0
  Ni  Ni2381  1  0.64414117  0.95829067  0.31855329  1.0
  Ni  Ni2382  1  0.97747450  0.29162400  0.31855329  1.0
  Ni  Ni2383  1  0.97747450  0.62495733  0.31855329  1.0
  Ni  Ni2384  1  0.97747450  0.95829067  0.31855329  1.0
  Ni  Ni2385  1  0.14414117  0.29162400  0.38998186  1.0
  Ni  Ni2386  1  0.14414117  0.62495733  0.38998186  1.0
  Ni  Ni2387  1  0.14414117  0.95829067  0.38998186  1.0
  Ni  Ni2388  1  0.47747450  0.29162400  0.38998186  1.0
  Ni  Ni2389  1  0.47747450  0.62495733  0.38998186  1.0
  Ni  Ni2390  1  0.47747450  0.95829067  0.38998186  1.0
  Ni  Ni2391  1  0.81080783  0.29162400  0.38998186  1.0
  Ni  Ni2392  1  0.81080783  0.62495733  0.38998186  1.0
  Ni  Ni2393  1  0.81080783  0.95829067  0.38998186  1.0
  Ni  Ni2394  1  0.32510200  0.09731333  0.38472893  1.0
  Ni  Ni2395  1  0.32510200  0.43064667  0.38472893  1.0
  Ni  Ni2396  1  0.32510200  0.76398000  0.38472893  1.0
  Ni  Ni2397  1  0.65843533  0.09731333  0.38472893  1.0
  Ni  Ni2398  1  0.65843533  0.43064667  0.38472893  1.0
  Ni  Ni2399  1  0.65843533  0.76398000  0.38472893  1.0
  Ni  Ni2400  1  0.99176867  0.09731333  0.38472893  1.0
  Ni  Ni2401  1  0.99176867  0.43064667  0.38472893  1.0
  Ni  Ni2402  1  0.99176867  0.76398000  0.38472893  1.0
  Ni  Ni2403  1  0.15843533  0.09731333  0.31330036  1.0
  Ni  Ni2404  1  0.15843533  0.43064667  0.31330036  1.0
  Ni  Ni2405  1  0.15843533  0.76398000  0.31330036  1.0
  Ni  Ni2406  1  0.49176867  0.09731333  0.31330036  1.0
  Ni  Ni2407  1  0.49176867  0.43064667  0.31330036  1.0
  Ni  Ni2408  1  0.49176867  0.76398000  0.31330036  1.0
  Ni  Ni2409  1  0.82510200  0.09731333  0.31330036  1.0
  Ni  Ni2410  1  0.82510200  0.43064667  0.31330036  1.0
  Ni  Ni2411  1  0.82510200  0.76398000  0.31330036  1.0
  Ni  Ni2412  1  0.26805600  0.20841433  0.40925764  1.0
  Ni  Ni2413  1  0.26805600  0.54174767  0.40925764  1.0
  Ni  Ni2414  1  0.26805600  0.87508100  0.40925764  1.0
  Ni  Ni2415  1  0.60138933  0.20841433  0.40925764  1.0
  Ni  Ni2416  1  0.60138933  0.54174767  0.40925764  1.0
  Ni  Ni2417  1  0.60138933  0.87508100  0.40925764  1.0
  Ni  Ni2418  1  0.93472267  0.20841433  0.40925764  1.0
  Ni  Ni2419  1  0.93472267  0.54174767  0.40925764  1.0
  Ni  Ni2420  1  0.93472267  0.87508100  0.40925764  1.0
  Ni  Ni2421  1  0.10138933  0.20841433  0.33782907  1.0
  Ni  Ni2422  1  0.10138933  0.54174767  0.33782907  1.0
  Ni  Ni2423  1  0.10138933  0.87508100  0.33782907  1.0
  Ni  Ni2424  1  0.43472267  0.20841433  0.33782907  1.0
  Ni  Ni2425  1  0.43472267  0.54174767  0.33782907  1.0
  Ni  Ni2426  1  0.43472267  0.87508100  0.33782907  1.0
  Ni  Ni2427  1  0.76805600  0.20841433  0.33782907  1.0
  Ni  Ni2428  1  0.76805600  0.54174767  0.33782907  1.0
  Ni  Ni2429  1  0.76805600  0.87508100  0.33782907  1.0
  Ni  Ni2430  1  0.21231500  0.31971167  0.29035293  1.0
  Ni  Ni2431  1  0.21231500  0.65304500  0.29035293  1.0
  Ni  Ni2432  1  0.21231500  0.98637833  0.29035293  1.0
  Ni  Ni2433  1  0.54564833  0.31971167  0.29035293  1.0
  Ni  Ni2434  1  0.54564833  0.65304500  0.29035293  1.0
  Ni  Ni2435  1  0.54564833  0.98637833  0.29035293  1.0
  Ni  Ni2436  1  0.87898167  0.31971167  0.29035293  1.0
  Ni  Ni2437  1  0.87898167  0.65304500  0.29035293  1.0
  Ni  Ni2438  1  0.87898167  0.98637833  0.29035293  1.0
  Ni  Ni2439  1  0.04564833  0.31971167  0.36178150  1.0
  Ni  Ni2440  1  0.04564833  0.65304500  0.36178150  1.0
  Ni  Ni2441  1  0.04564833  0.98637833  0.36178150  1.0
  Ni  Ni2442  1  0.37898167  0.31971167  0.36178150  1.0
  Ni  Ni2443  1  0.37898167  0.65304500  0.36178150  1.0
  Ni  Ni2444  1  0.37898167  0.98637833  0.36178150  1.0
  Ni  Ni2445  1  0.71231500  0.31971167  0.36178150  1.0
  Ni  Ni2446  1  0.71231500  0.65304500  0.36178150  1.0
  Ni  Ni2447  1  0.71231500  0.98637833  0.36178150  1.0
  Ni  Ni2448  1  0.04693383  0.20767667  0.39657743  1.0
  Ni  Ni2449  1  0.04693383  0.54101000  0.39657743  1.0
  Ni  Ni2450  1  0.04693383  0.87434333  0.39657743  1.0
  Ni  Ni2451  1  0.38026717  0.20767667  0.39657743  1.0
  Ni  Ni2452  1  0.38026717  0.54101000  0.39657743  1.0
  Ni  Ni2453  1  0.38026717  0.87434333  0.39657743  1.0
  Ni  Ni2454  1  0.71360050  0.20767667  0.39657743  1.0
  Ni  Ni2455  1  0.71360050  0.54101000  0.39657743  1.0
  Ni  Ni2456  1  0.71360050  0.87434333  0.39657743  1.0
  Ni  Ni2457  1  0.21360050  0.20767667  0.32514886  1.0
  Ni  Ni2458  1  0.21360050  0.54101000  0.32514886  1.0
  Ni  Ni2459  1  0.21360050  0.87434333  0.32514886  1.0
  Ni  Ni2460  1  0.54693383  0.20767667  0.32514886  1.0
  Ni  Ni2461  1  0.54693383  0.54101000  0.32514886  1.0
  Ni  Ni2462  1  0.54693383  0.87434333  0.32514886  1.0
  Ni  Ni2463  1  0.88026717  0.20767667  0.32514886  1.0
  Ni  Ni2464  1  0.88026717  0.54101000  0.32514886  1.0
  Ni  Ni2465  1  0.88026717  0.87434333  0.32514886  1.0
  Ni  Ni2466  1  0.32455533  0.31900200  0.42045393  1.0
  Ni  Ni2467  1  0.32455533  0.65233533  0.42045393  1.0
  Ni  Ni2468  1  0.32455533  0.98566867  0.42045393  1.0
  Ni  Ni2469  1  0.65788867  0.31900200  0.42045393  1.0
  Ni  Ni2470  1  0.65788867  0.65233533  0.42045393  1.0
  Ni  Ni2471  1  0.65788867  0.98566867  0.42045393  1.0
  Ni  Ni2472  1  0.99122200  0.31900200  0.42045393  1.0
  Ni  Ni2473  1  0.99122200  0.65233533  0.42045393  1.0
  Ni  Ni2474  1  0.99122200  0.98566867  0.42045393  1.0
  Ni  Ni2475  1  0.15788867  0.31900200  0.34902536  1.0
  Ni  Ni2476  1  0.15788867  0.65233533  0.34902536  1.0
  Ni  Ni2477  1  0.15788867  0.98566867  0.34902536  1.0
  Ni  Ni2478  1  0.49122200  0.31900200  0.34902536  1.0
  Ni  Ni2479  1  0.49122200  0.65233533  0.34902536  1.0
  Ni  Ni2480  1  0.49122200  0.98566867  0.34902536  1.0
  Ni  Ni2481  1  0.82455533  0.31900200  0.34902536  1.0
  Ni  Ni2482  1  0.82455533  0.65233533  0.34902536  1.0
  Ni  Ni2483  1  0.82455533  0.98566867  0.34902536  1.0
  Ni  Ni2484  1  0.07750883  0.04125267  0.31204529  1.0
  Ni  Ni2485  1  0.07750883  0.37458600  0.31204529  1.0
  Ni  Ni2486  1  0.07750883  0.70791933  0.31204529  1.0
  Ni  Ni2487  1  0.41084217  0.04125267  0.31204529  1.0
  Ni  Ni2488  1  0.41084217  0.37458600  0.31204529  1.0
  Ni  Ni2489  1  0.41084217  0.70791933  0.31204529  1.0
  Ni  Ni2490  1  0.74417550  0.04125267  0.31204529  1.0
  Ni  Ni2491  1  0.74417550  0.37458600  0.31204529  1.0
  Ni  Ni2492  1  0.74417550  0.70791933  0.31204529  1.0
  Ni  Ni2493  1  0.24417550  0.04125267  0.38347386  1.0
  Ni  Ni2494  1  0.24417550  0.37458600  0.38347386  1.0
  Ni  Ni2495  1  0.24417550  0.70791933  0.38347386  1.0
  Ni  Ni2496  1  0.57750883  0.04125267  0.38347386  1.0
  Ni  Ni2497  1  0.57750883  0.37458600  0.38347386  1.0
  Ni  Ni2498  1  0.57750883  0.70791933  0.38347386  1.0
  Ni  Ni2499  1  0.91084217  0.04125267  0.38347386  1.0
  Ni  Ni2500  1  0.91084217  0.37458600  0.38347386  1.0
  Ni  Ni2501  1  0.91084217  0.70791933  0.38347386  1.0
  Ni  Ni2502  1  0.02131850  0.15313067  0.33612686  1.0
  Ni  Ni2503  1  0.02131850  0.48646400  0.33612686  1.0
  Ni  Ni2504  1  0.02131850  0.81979733  0.33612686  1.0
  Ni  Ni2505  1  0.35465183  0.15313067  0.33612686  1.0
  Ni  Ni2506  1  0.35465183  0.48646400  0.33612686  1.0
  Ni  Ni2507  1  0.35465183  0.81979733  0.33612686  1.0
  Ni  Ni2508  1  0.68798517  0.15313067  0.33612686  1.0
  Ni  Ni2509  1  0.68798517  0.48646400  0.33612686  1.0
  Ni  Ni2510  1  0.68798517  0.81979733  0.33612686  1.0
  Ni  Ni2511  1  0.18798517  0.15313067  0.40755543  1.0
  Ni  Ni2512  1  0.18798517  0.48646400  0.40755543  1.0
  Ni  Ni2513  1  0.18798517  0.81979733  0.40755543  1.0
  Ni  Ni2514  1  0.52131850  0.15313067  0.40755543  1.0
  Ni  Ni2515  1  0.52131850  0.48646400  0.40755543  1.0
  Ni  Ni2516  1  0.52131850  0.81979733  0.40755543  1.0
  Ni  Ni2517  1  0.85465183  0.15313067  0.40755543  1.0
  Ni  Ni2518  1  0.85465183  0.48646400  0.40755543  1.0
  Ni  Ni2519  1  0.85465183  0.81979733  0.40755543  1.0
  Ni  Ni2520  1  0.29984383  0.26378300  0.35961600  1.0
  Ni  Ni2521  1  0.29984383  0.59711633  0.35961600  1.0
  Ni  Ni2522  1  0.29984383  0.93044967  0.35961600  1.0
  Ni  Ni2523  1  0.63317717  0.26378300  0.35961600  1.0
  Ni  Ni2524  1  0.63317717  0.59711633  0.35961600  1.0
  Ni  Ni2525  1  0.63317717  0.93044967  0.35961600  1.0
  Ni  Ni2526  1  0.96651050  0.26378300  0.35961600  1.0
  Ni  Ni2527  1  0.96651050  0.59711633  0.35961600  1.0
  Ni  Ni2528  1  0.96651050  0.93044967  0.35961600  1.0
  Ni  Ni2529  1  0.13317717  0.26378300  0.28818743  1.0
  Ni  Ni2530  1  0.13317717  0.59711633  0.28818743  1.0
  Ni  Ni2531  1  0.13317717  0.93044967  0.28818743  1.0
  Ni  Ni2532  1  0.46651050  0.26378300  0.28818743  1.0
  Ni  Ni2533  1  0.46651050  0.59711633  0.28818743  1.0
  Ni  Ni2534  1  0.46651050  0.93044967  0.28818743  1.0
  Ni  Ni2535  1  0.79984383  0.26378300  0.28818743  1.0
  Ni  Ni2536  1  0.79984383  0.59711633  0.28818743  1.0
  Ni  Ni2537  1  0.79984383  0.93044967  0.28818743  1.0
  Ni  Ni2538  1  0.00733350  0.01427967  0.34212043  1.0
  Ni  Ni2539  1  0.00733350  0.34761300  0.34212043  1.0
  Ni  Ni2540  1  0.00733350  0.68094633  0.34212043  1.0
  Ni  Ni2541  1  0.34066683  0.01427967  0.34212043  1.0
  Ni  Ni2542  1  0.34066683  0.34761300  0.34212043  1.0
  Ni  Ni2543  1  0.34066683  0.68094633  0.34212043  1.0
  Ni  Ni2544  1  0.67400017  0.01427967  0.34212043  1.0
  Ni  Ni2545  1  0.67400017  0.34761300  0.34212043  1.0
  Ni  Ni2546  1  0.67400017  0.68094633  0.34212043  1.0
  Ni  Ni2547  1  0.17400017  0.01427967  0.41354900  1.0
  Ni  Ni2548  1  0.17400017  0.34761300  0.41354900  1.0
  Ni  Ni2549  1  0.17400017  0.68094633  0.41354900  1.0
  Ni  Ni2550  1  0.50733350  0.01427967  0.41354900  1.0
  Ni  Ni2551  1  0.50733350  0.34761300  0.41354900  1.0
  Ni  Ni2552  1  0.50733350  0.68094633  0.41354900  1.0
  Ni  Ni2553  1  0.84066683  0.01427967  0.41354900  1.0
  Ni  Ni2554  1  0.84066683  0.34761300  0.41354900  1.0
  Ni  Ni2555  1  0.84066683  0.68094633  0.41354900  1.0
  Ni  Ni2556  1  0.28538967  0.12475533  0.36581064  1.0
  Ni  Ni2557  1  0.28538967  0.45808867  0.36581064  1.0
  Ni  Ni2558  1  0.28538967  0.79142200  0.36581064  1.0
  Ni  Ni2559  1  0.61872300  0.12475533  0.36581064  1.0
  Ni  Ni2560  1  0.61872300  0.45808867  0.36581064  1.0
  Ni  Ni2561  1  0.61872300  0.79142200  0.36581064  1.0
  Ni  Ni2562  1  0.95205633  0.12475533  0.36581064  1.0
  Ni  Ni2563  1  0.95205633  0.45808867  0.36581064  1.0
  Ni  Ni2564  1  0.95205633  0.79142200  0.36581064  1.0
  Ni  Ni2565  1  0.11872300  0.12475533  0.29438207  1.0
  Ni  Ni2566  1  0.11872300  0.45808867  0.29438207  1.0
  Ni  Ni2567  1  0.11872300  0.79142200  0.29438207  1.0
  Ni  Ni2568  1  0.45205633  0.12475533  0.29438207  1.0
  Ni  Ni2569  1  0.45205633  0.45808867  0.29438207  1.0
  Ni  Ni2570  1  0.45205633  0.79142200  0.29438207  1.0
  Ni  Ni2571  1  0.78538967  0.12475533  0.29438207  1.0
  Ni  Ni2572  1  0.78538967  0.45808867  0.29438207  1.0
  Ni  Ni2573  1  0.78538967  0.79142200  0.29438207  1.0
  Ni  Ni2574  1  0.22967900  0.23624567  0.38968664  1.0
  Ni  Ni2575  1  0.22967900  0.56957900  0.38968664  1.0
  Ni  Ni2576  1  0.22967900  0.90291233  0.38968664  1.0
  Ni  Ni2577  1  0.56301233  0.23624567  0.38968664  1.0
  Ni  Ni2578  1  0.56301233  0.56957900  0.38968664  1.0
  Ni  Ni2579  1  0.56301233  0.90291233  0.38968664  1.0
  Ni  Ni2580  1  0.89634567  0.23624567  0.38968664  1.0
  Ni  Ni2581  1  0.89634567  0.56957900  0.38968664  1.0
  Ni  Ni2582  1  0.89634567  0.90291233  0.38968664  1.0
  Ni  Ni2583  1  0.06301233  0.23624567  0.31825807  1.0
  Ni  Ni2584  1  0.06301233  0.56957900  0.31825807  1.0
  Ni  Ni2585  1  0.06301233  0.90291233  0.31825807  1.0
  Ni  Ni2586  1  0.39634567  0.23624567  0.31825807  1.0
  Ni  Ni2587  1  0.39634567  0.56957900  0.31825807  1.0
  Ni  Ni2588  1  0.39634567  0.90291233  0.31825807  1.0
  Ni  Ni2589  1  0.72967900  0.23624567  0.31825807  1.0
  Ni  Ni2590  1  0.72967900  0.56957900  0.31825807  1.0
  Ni  Ni2591  1  0.72967900  0.90291233  0.31825807  1.0
  Sn  Sn2592  1  0.00706433  0.01638033  0.41366436  1.0
  Sn  Sn2593  1  0.00706433  0.34971367  0.41366436  1.0
  Sn  Sn2594  1  0.00706433  0.68304700  0.41366436  1.0
  Sn  Sn2595  1  0.34039767  0.01638033  0.41366436  1.0
  Sn  Sn2596  1  0.34039767  0.34971367  0.41366436  1.0
  Sn  Sn2597  1  0.34039767  0.68304700  0.41366436  1.0
  Sn  Sn2598  1  0.67373100  0.01638033  0.41366436  1.0
  Sn  Sn2599  1  0.67373100  0.34971367  0.41366436  1.0
  Sn  Sn2600  1  0.67373100  0.68304700  0.41366436  1.0
  Sn  Sn2601  1  0.17373100  0.01638033  0.34223579  1.0
  Sn  Sn2602  1  0.17373100  0.34971367  0.34223579  1.0
  Sn  Sn2603  1  0.17373100  0.68304700  0.34223579  1.0
  Sn  Sn2604  1  0.50706433  0.01638033  0.34223579  1.0
  Sn  Sn2605  1  0.50706433  0.34971367  0.34223579  1.0
  Sn  Sn2606  1  0.50706433  0.68304700  0.34223579  1.0
  Sn  Sn2607  1  0.84039767  0.01638033  0.34223579  1.0
  Sn  Sn2608  1  0.84039767  0.34971367  0.34223579  1.0
  Sn  Sn2609  1  0.84039767  0.68304700  0.34223579  1.0
  Sn  Sn2610  1  0.28461500  0.12512633  0.29471407  1.0
  Sn  Sn2611  1  0.28461500  0.45845967  0.29471407  1.0
  Sn  Sn2612  1  0.28461500  0.79179300  0.29471407  1.0
  Sn  Sn2613  1  0.61794833  0.12512633  0.29471407  1.0
  Sn  Sn2614  1  0.61794833  0.45845967  0.29471407  1.0
  Sn  Sn2615  1  0.61794833  0.79179300  0.29471407  1.0
  Sn  Sn2616  1  0.95128167  0.12512633  0.29471407  1.0
  Sn  Sn2617  1  0.95128167  0.45845967  0.29471407  1.0
  Sn  Sn2618  1  0.95128167  0.79179300  0.29471407  1.0
  Sn  Sn2619  1  0.11794833  0.12512633  0.36614264  1.0
  Sn  Sn2620  1  0.11794833  0.45845967  0.36614264  1.0
  Sn  Sn2621  1  0.11794833  0.79179300  0.36614264  1.0
  Sn  Sn2622  1  0.45128167  0.12512633  0.36614264  1.0
  Sn  Sn2623  1  0.45128167  0.45845967  0.36614264  1.0
  Sn  Sn2624  1  0.45128167  0.79179300  0.36614264  1.0
  Sn  Sn2625  1  0.78461500  0.12512633  0.36614264  1.0
  Sn  Sn2626  1  0.78461500  0.45845967  0.36614264  1.0
  Sn  Sn2627  1  0.78461500  0.79179300  0.36614264  1.0
  Sn  Sn2628  1  0.22956883  0.23819900  0.31830529  1.0
  Sn  Sn2629  1  0.22956883  0.57153233  0.31830529  1.0
  Sn  Sn2630  1  0.22956883  0.90486567  0.31830529  1.0
  Sn  Sn2631  1  0.56290217  0.23819900  0.31830529  1.0
  Sn  Sn2632  1  0.56290217  0.57153233  0.31830529  1.0
  Sn  Sn2633  1  0.56290217  0.90486567  0.31830529  1.0
  Sn  Sn2634  1  0.89623550  0.23819900  0.31830529  1.0
  Sn  Sn2635  1  0.89623550  0.57153233  0.31830529  1.0
  Sn  Sn2636  1  0.89623550  0.90486567  0.31830529  1.0
  Sn  Sn2637  1  0.06290217  0.23819900  0.38973386  1.0
  Sn  Sn2638  1  0.06290217  0.57153233  0.38973386  1.0
  Sn  Sn2639  1  0.06290217  0.90486567  0.38973386  1.0
  Sn  Sn2640  1  0.39623550  0.23819900  0.38973386  1.0
  Sn  Sn2641  1  0.39623550  0.57153233  0.38973386  1.0
  Sn  Sn2642  1  0.39623550  0.90486567  0.38973386  1.0
  Sn  Sn2643  1  0.72956883  0.23819900  0.38973386  1.0
  Sn  Sn2644  1  0.72956883  0.57153233  0.38973386  1.0
  Sn  Sn2645  1  0.72956883  0.90486567  0.38973386  1.0
  Sn  Sn2646  1  0.07682000  0.04132700  0.38376907  1.0
  Sn  Sn2647  1  0.07682000  0.37466033  0.38376907  1.0
  Sn  Sn2648  1  0.07682000  0.70799367  0.38376907  1.0
  Sn  Sn2649  1  0.41015333  0.04132700  0.38376907  1.0
  Sn  Sn2650  1  0.41015333  0.37466033  0.38376907  1.0
  Sn  Sn2651  1  0.41015333  0.70799367  0.38376907  1.0
  Sn  Sn2652  1  0.74348667  0.04132700  0.38376907  1.0
  Sn  Sn2653  1  0.74348667  0.37466033  0.38376907  1.0
  Sn  Sn2654  1  0.74348667  0.70799367  0.38376907  1.0
  Sn  Sn2655  1  0.24348667  0.04132700  0.31234050  1.0
  Sn  Sn2656  1  0.24348667  0.37466033  0.31234050  1.0
  Sn  Sn2657  1  0.24348667  0.70799367  0.31234050  1.0
  Sn  Sn2658  1  0.57682000  0.04132700  0.31234050  1.0
  Sn  Sn2659  1  0.57682000  0.37466033  0.31234050  1.0
  Sn  Sn2660  1  0.57682000  0.70799367  0.31234050  1.0
  Sn  Sn2661  1  0.91015333  0.04132700  0.31234050  1.0
  Sn  Sn2662  1  0.91015333  0.37466033  0.31234050  1.0
  Sn  Sn2663  1  0.91015333  0.70799367  0.31234050  1.0
  Sn  Sn2664  1  0.02157400  0.15208200  0.40744593  1.0
  Sn  Sn2665  1  0.02157400  0.48541533  0.40744593  1.0
  Sn  Sn2666  1  0.02157400  0.81874867  0.40744593  1.0
  Sn  Sn2667  1  0.35490733  0.15208200  0.40744593  1.0
  Sn  Sn2668  1  0.35490733  0.48541533  0.40744593  1.0
  Sn  Sn2669  1  0.35490733  0.81874867  0.40744593  1.0
  Sn  Sn2670  1  0.68824067  0.15208200  0.40744593  1.0
  Sn  Sn2671  1  0.68824067  0.48541533  0.40744593  1.0
  Sn  Sn2672  1  0.68824067  0.81874867  0.40744593  1.0
  Sn  Sn2673  1  0.18824067  0.15208200  0.33601736  1.0
  Sn  Sn2674  1  0.18824067  0.48541533  0.33601736  1.0
  Sn  Sn2675  1  0.18824067  0.81874867  0.33601736  1.0
  Sn  Sn2676  1  0.52157400  0.15208200  0.33601736  1.0
  Sn  Sn2677  1  0.52157400  0.48541533  0.33601736  1.0
  Sn  Sn2678  1  0.52157400  0.81874867  0.33601736  1.0
  Sn  Sn2679  1  0.85490733  0.15208200  0.33601736  1.0
  Sn  Sn2680  1  0.85490733  0.48541533  0.33601736  1.0
  Sn  Sn2681  1  0.85490733  0.81874867  0.33601736  1.0
  Sn  Sn2682  1  0.29975500  0.26328633  0.28822550  1.0
  Sn  Sn2683  1  0.29975500  0.59661967  0.28822550  1.0
  Sn  Sn2684  1  0.29975500  0.92995300  0.28822550  1.0
  Sn  Sn2685  1  0.63308833  0.26328633  0.28822550  1.0
  Sn  Sn2686  1  0.63308833  0.59661967  0.28822550  1.0
  Sn  Sn2687  1  0.63308833  0.92995300  0.28822550  1.0
  Sn  Sn2688  1  0.96642167  0.26328633  0.28822550  1.0
  Sn  Sn2689  1  0.96642167  0.59661967  0.28822550  1.0
  Sn  Sn2690  1  0.96642167  0.92995300  0.28822550  1.0
  Sn  Sn2691  1  0.13308833  0.26328633  0.35965407  1.0
  Sn  Sn2692  1  0.13308833  0.59661967  0.35965407  1.0
  Sn  Sn2693  1  0.13308833  0.92995300  0.35965407  1.0
  Sn  Sn2694  1  0.46642167  0.26328633  0.35965407  1.0
  Sn  Sn2695  1  0.46642167  0.59661967  0.35965407  1.0
  Sn  Sn2696  1  0.46642167  0.92995300  0.35965407  1.0
  Sn  Sn2697  1  0.79975500  0.26328633  0.35965407  1.0
  Sn  Sn2698  1  0.79975500  0.59661967  0.35965407  1.0
  Sn  Sn2699  1  0.79975500  0.92995300  0.35965407  1.0
  Sn  Sn2700  1  0.10255367  0.09547733  0.30131179  1.0
  Sn  Sn2701  1  0.10255367  0.42881067  0.30131179  1.0
  Sn  Sn2702  1  0.10255367  0.76214400  0.30131179  1.0
  Sn  Sn2703  1  0.43588700  0.09547733  0.30131179  1.0
  Sn  Sn2704  1  0.43588700  0.42881067  0.30131179  1.0
  Sn  Sn2705  1  0.43588700  0.76214400  0.30131179  1.0
  Sn  Sn2706  1  0.76922033  0.09547733  0.30131179  1.0
  Sn  Sn2707  1  0.76922033  0.42881067  0.30131179  1.0
  Sn  Sn2708  1  0.76922033  0.76214400  0.30131179  1.0
  Sn  Sn2709  1  0.26922033  0.09547733  0.37274036  1.0
  Sn  Sn2710  1  0.26922033  0.42881067  0.37274036  1.0
  Sn  Sn2711  1  0.26922033  0.76214400  0.37274036  1.0
  Sn  Sn2712  1  0.60255367  0.09547733  0.37274036  1.0
  Sn  Sn2713  1  0.60255367  0.42881067  0.37274036  1.0
  Sn  Sn2714  1  0.60255367  0.76214400  0.37274036  1.0
  Sn  Sn2715  1  0.93588700  0.09547733  0.37274036  1.0
  Sn  Sn2716  1  0.93588700  0.42881067  0.37274036  1.0
  Sn  Sn2717  1  0.93588700  0.76214400  0.37274036  1.0
  Sn  Sn2718  1  0.04647917  0.20651500  0.32534371  1.0
  Sn  Sn2719  1  0.04647917  0.53984833  0.32534371  1.0
  Sn  Sn2720  1  0.04647917  0.87318167  0.32534371  1.0
  Sn  Sn2721  1  0.37981250  0.20651500  0.32534371  1.0
  Sn  Sn2722  1  0.37981250  0.53984833  0.32534371  1.0
  Sn  Sn2723  1  0.37981250  0.87318167  0.32534371  1.0
  Sn  Sn2724  1  0.71314583  0.20651500  0.32534371  1.0
  Sn  Sn2725  1  0.71314583  0.53984833  0.32534371  1.0
  Sn  Sn2726  1  0.71314583  0.87318167  0.32534371  1.0
  Sn  Sn2727  1  0.21314583  0.20651500  0.39677229  1.0
  Sn  Sn2728  1  0.21314583  0.53984833  0.39677229  1.0
  Sn  Sn2729  1  0.21314583  0.87318167  0.39677229  1.0
  Sn  Sn2730  1  0.54647917  0.20651500  0.39677229  1.0
  Sn  Sn2731  1  0.54647917  0.53984833  0.39677229  1.0
  Sn  Sn2732  1  0.54647917  0.87318167  0.39677229  1.0
  Sn  Sn2733  1  0.87981250  0.20651500  0.39677229  1.0
  Sn  Sn2734  1  0.87981250  0.53984833  0.39677229  1.0
  Sn  Sn2735  1  0.87981250  0.87318167  0.39677229  1.0
  Sn  Sn2736  1  0.32415983  0.31784700  0.34919486  1.0
  Sn  Sn2737  1  0.32415983  0.65118033  0.34919486  1.0
  Sn  Sn2738  1  0.32415983  0.98451367  0.34919486  1.0
  Sn  Sn2739  1  0.65749317  0.31784700  0.34919486  1.0
  Sn  Sn2740  1  0.65749317  0.65118033  0.34919486  1.0
  Sn  Sn2741  1  0.65749317  0.98451367  0.34919486  1.0
  Sn  Sn2742  1  0.99082650  0.31784700  0.34919486  1.0
  Sn  Sn2743  1  0.99082650  0.65118033  0.34919486  1.0
  Sn  Sn2744  1  0.99082650  0.98451367  0.34919486  1.0
  Sn  Sn2745  1  0.15749317  0.31784700  0.42062343  1.0
  Sn  Sn2746  1  0.15749317  0.65118033  0.42062343  1.0
  Sn  Sn2747  1  0.15749317  0.98451367  0.42062343  1.0
  Sn  Sn2748  1  0.49082650  0.31784700  0.42062343  1.0
  Sn  Sn2749  1  0.49082650  0.65118033  0.42062343  1.0
  Sn  Sn2750  1  0.49082650  0.98451367  0.42062343  1.0
  Sn  Sn2751  1  0.82415983  0.31784700  0.42062343  1.0
  Sn  Sn2752  1  0.82415983  0.65118033  0.42062343  1.0
  Sn  Sn2753  1  0.82415983  0.98451367  0.42062343  1.0
  Sn  Sn2754  1  0.03208733  0.07119533  0.33151164  1.0
  Sn  Sn2755  1  0.03208733  0.40452867  0.33151164  1.0
  Sn  Sn2756  1  0.03208733  0.73786200  0.33151164  1.0
  Sn  Sn2757  1  0.36542067  0.07119533  0.33151164  1.0
  Sn  Sn2758  1  0.36542067  0.40452867  0.33151164  1.0
  Sn  Sn2759  1  0.36542067  0.73786200  0.33151164  1.0
  Sn  Sn2760  1  0.69875400  0.07119533  0.33151164  1.0
  Sn  Sn2761  1  0.69875400  0.40452867  0.33151164  1.0
  Sn  Sn2762  1  0.69875400  0.73786200  0.33151164  1.0
  Sn  Sn2763  1  0.19875400  0.07119533  0.40294021  1.0
  Sn  Sn2764  1  0.19875400  0.40452867  0.40294021  1.0
  Sn  Sn2765  1  0.19875400  0.73786200  0.40294021  1.0
  Sn  Sn2766  1  0.53208733  0.07119533  0.40294021  1.0
  Sn  Sn2767  1  0.53208733  0.40452867  0.40294021  1.0
  Sn  Sn2768  1  0.53208733  0.73786200  0.40294021  1.0
  Sn  Sn2769  1  0.86542067  0.07119533  0.40294021  1.0
  Sn  Sn2770  1  0.86542067  0.40452867  0.40294021  1.0
  Sn  Sn2771  1  0.86542067  0.73786200  0.40294021  1.0
  Sn  Sn2772  1  0.30870167  0.18223167  0.35581979  1.0
  Sn  Sn2773  1  0.30870167  0.51556500  0.35581979  1.0
  Sn  Sn2774  1  0.30870167  0.84889833  0.35581979  1.0
  Sn  Sn2775  1  0.64203500  0.18223167  0.35581979  1.0
  Sn  Sn2776  1  0.64203500  0.51556500  0.35581979  1.0
  Sn  Sn2777  1  0.64203500  0.84889833  0.35581979  1.0
  Sn  Sn2778  1  0.97536833  0.18223167  0.35581979  1.0
  Sn  Sn2779  1  0.97536833  0.51556500  0.35581979  1.0
  Sn  Sn2780  1  0.97536833  0.84889833  0.35581979  1.0
  Sn  Sn2781  1  0.14203500  0.18223167  0.42724836  1.0
  Sn  Sn2782  1  0.14203500  0.51556500  0.42724836  1.0
  Sn  Sn2783  1  0.14203500  0.84889833  0.42724836  1.0
  Sn  Sn2784  1  0.47536833  0.18223167  0.42724836  1.0
  Sn  Sn2785  1  0.47536833  0.51556500  0.42724836  1.0
  Sn  Sn2786  1  0.47536833  0.84889833  0.42724836  1.0
  Sn  Sn2787  1  0.80870167  0.18223167  0.42724836  1.0
  Sn  Sn2788  1  0.80870167  0.51556500  0.42724836  1.0
  Sn  Sn2789  1  0.80870167  0.84889833  0.42724836  1.0
  Sn  Sn2790  1  0.25355200  0.29347033  0.37945536  1.0
  Sn  Sn2791  1  0.25355200  0.62680367  0.37945536  1.0
  Sn  Sn2792  1  0.25355200  0.96013700  0.37945536  1.0
  Sn  Sn2793  1  0.58688533  0.29347033  0.37945536  1.0
  Sn  Sn2794  1  0.58688533  0.62680367  0.37945536  1.0
  Sn  Sn2795  1  0.58688533  0.96013700  0.37945536  1.0
  Sn  Sn2796  1  0.92021867  0.29347033  0.37945536  1.0
  Sn  Sn2797  1  0.92021867  0.62680367  0.37945536  1.0
  Sn  Sn2798  1  0.92021867  0.96013700  0.37945536  1.0
  Sn  Sn2799  1  0.08688533  0.29347033  0.30802679  1.0
  Sn  Sn2800  1  0.08688533  0.62680367  0.30802679  1.0
  Sn  Sn2801  1  0.08688533  0.96013700  0.30802679  1.0
  Sn  Sn2802  1  0.42021867  0.29347033  0.30802679  1.0
  Sn  Sn2803  1  0.42021867  0.62680367  0.30802679  1.0
  Sn  Sn2804  1  0.42021867  0.96013700  0.30802679  1.0
  Sn  Sn2805  1  0.75355200  0.29347033  0.30802679  1.0
  Sn  Sn2806  1  0.75355200  0.62680367  0.30802679  1.0
  Sn  Sn2807  1  0.75355200  0.96013700  0.30802679  1.0
  Sn  Sn2808  1  0.31272083  0.06958133  0.42552586  1.0
  Sn  Sn2809  1  0.31272083  0.40291467  0.42552586  1.0
  Sn  Sn2810  1  0.31272083  0.73624800  0.42552586  1.0
  Sn  Sn2811  1  0.64605417  0.06958133  0.42552586  1.0
  Sn  Sn2812  1  0.64605417  0.40291467  0.42552586  1.0
  Sn  Sn2813  1  0.64605417  0.73624800  0.42552586  1.0
  Sn  Sn2814  1  0.97938750  0.06958133  0.42552586  1.0
  Sn  Sn2815  1  0.97938750  0.40291467  0.42552586  1.0
  Sn  Sn2816  1  0.97938750  0.73624800  0.42552586  1.0
  Sn  Sn2817  1  0.14605417  0.06958133  0.35409729  1.0
  Sn  Sn2818  1  0.14605417  0.40291467  0.35409729  1.0
  Sn  Sn2819  1  0.14605417  0.73624800  0.35409729  1.0
  Sn  Sn2820  1  0.47938750  0.06958133  0.35409729  1.0
  Sn  Sn2821  1  0.47938750  0.40291467  0.35409729  1.0
  Sn  Sn2822  1  0.47938750  0.73624800  0.35409729  1.0
  Sn  Sn2823  1  0.81272083  0.06958133  0.35409729  1.0
  Sn  Sn2824  1  0.81272083  0.40291467  0.35409729  1.0
  Sn  Sn2825  1  0.81272083  0.73624800  0.35409729  1.0
  Sn  Sn2826  1  0.26029600  0.17837600  0.30513650  1.0
  Sn  Sn2827  1  0.26029600  0.51170933  0.30513650  1.0
  Sn  Sn2828  1  0.26029600  0.84504267  0.30513650  1.0
  Sn  Sn2829  1  0.59362933  0.17837600  0.30513650  1.0
  Sn  Sn2830  1  0.59362933  0.51170933  0.30513650  1.0
  Sn  Sn2831  1  0.59362933  0.84504267  0.30513650  1.0
  Sn  Sn2832  1  0.92696267  0.17837600  0.30513650  1.0
  Sn  Sn2833  1  0.92696267  0.51170933  0.30513650  1.0
  Sn  Sn2834  1  0.92696267  0.84504267  0.30513650  1.0
  Sn  Sn2835  1  0.09362933  0.17837600  0.37656507  1.0
  Sn  Sn2836  1  0.09362933  0.51170933  0.37656507  1.0
  Sn  Sn2837  1  0.09362933  0.84504267  0.37656507  1.0
  Sn  Sn2838  1  0.42696267  0.17837600  0.37656507  1.0
  Sn  Sn2839  1  0.42696267  0.51170933  0.37656507  1.0
  Sn  Sn2840  1  0.42696267  0.84504267  0.37656507  1.0
  Sn  Sn2841  1  0.76029600  0.17837600  0.37656507  1.0
  Sn  Sn2842  1  0.76029600  0.51170933  0.37656507  1.0
  Sn  Sn2843  1  0.76029600  0.84504267  0.37656507  1.0
  Sn  Sn2844  1  0.20468000  0.28984500  0.32897193  1.0
  Sn  Sn2845  1  0.20468000  0.62317833  0.32897193  1.0
  Sn  Sn2846  1  0.20468000  0.95651167  0.32897193  1.0
  Sn  Sn2847  1  0.53801333  0.28984500  0.32897193  1.0
  Sn  Sn2848  1  0.53801333  0.62317833  0.32897193  1.0
  Sn  Sn2849  1  0.53801333  0.95651167  0.32897193  1.0
  Sn  Sn2850  1  0.87134667  0.28984500  0.32897193  1.0
  Sn  Sn2851  1  0.87134667  0.62317833  0.32897193  1.0
  Sn  Sn2852  1  0.87134667  0.95651167  0.32897193  1.0
  Sn  Sn2853  1  0.03801333  0.28984500  0.40040050  1.0
  Sn  Sn2854  1  0.03801333  0.62317833  0.40040050  1.0
  Sn  Sn2855  1  0.03801333  0.95651167  0.40040050  1.0
  Sn  Sn2856  1  0.37134667  0.28984500  0.40040050  1.0
  Sn  Sn2857  1  0.37134667  0.62317833  0.40040050  1.0
  Sn  Sn2858  1  0.37134667  0.95651167  0.40040050  1.0
  Sn  Sn2859  1  0.70468000  0.28984500  0.40040050  1.0
  Sn  Sn2860  1  0.70468000  0.62317833  0.40040050  1.0
  Sn  Sn2861  1  0.70468000  0.95651167  0.40040050  1.0
  Sn  Sn2862  1  0.04852500  0.09751133  0.39589550  1.0
  Sn  Sn2863  1  0.04852500  0.43084467  0.39589550  1.0
  Sn  Sn2864  1  0.04852500  0.76417800  0.39589550  1.0
  Sn  Sn2865  1  0.38185833  0.09751133  0.39589550  1.0
  Sn  Sn2866  1  0.38185833  0.43084467  0.39589550  1.0
  Sn  Sn2867  1  0.38185833  0.76417800  0.39589550  1.0
  Sn  Sn2868  1  0.71519167  0.09751133  0.39589550  1.0
  Sn  Sn2869  1  0.71519167  0.43084467  0.39589550  1.0
  Sn  Sn2870  1  0.71519167  0.76417800  0.39589550  1.0
  Sn  Sn2871  1  0.21519167  0.09751133  0.32446693  1.0
  Sn  Sn2872  1  0.21519167  0.43084467  0.32446693  1.0
  Sn  Sn2873  1  0.21519167  0.76417800  0.32446693  1.0
  Sn  Sn2874  1  0.54852500  0.09751133  0.32446693  1.0
  Sn  Sn2875  1  0.54852500  0.43084467  0.32446693  1.0
  Sn  Sn2876  1  0.54852500  0.76417800  0.32446693  1.0
  Sn  Sn2877  1  0.88185833  0.09751133  0.32446693  1.0
  Sn  Sn2878  1  0.88185833  0.43084467  0.32446693  1.0
  Sn  Sn2879  1  0.88185833  0.76417800  0.32446693  1.0
  Sn  Sn2880  1  0.32110017  0.20860933  0.42193471  1.0
  Sn  Sn2881  1  0.32110017  0.54194267  0.42193471  1.0
  Sn  Sn2882  1  0.32110017  0.87527600  0.42193471  1.0
  Sn  Sn2883  1  0.65443350  0.20860933  0.42193471  1.0
  Sn  Sn2884  1  0.65443350  0.54194267  0.42193471  1.0
  Sn  Sn2885  1  0.65443350  0.87527600  0.42193471  1.0
  Sn  Sn2886  1  0.98776683  0.20860933  0.42193471  1.0
  Sn  Sn2887  1  0.98776683  0.54194267  0.42193471  1.0
  Sn  Sn2888  1  0.98776683  0.87527600  0.42193471  1.0
  Sn  Sn2889  1  0.15443350  0.20860933  0.35050614  1.0
  Sn  Sn2890  1  0.15443350  0.54194267  0.35050614  1.0
  Sn  Sn2891  1  0.15443350  0.87527600  0.35050614  1.0
  Sn  Sn2892  1  0.48776683  0.20860933  0.35050614  1.0
  Sn  Sn2893  1  0.48776683  0.54194267  0.35050614  1.0
  Sn  Sn2894  1  0.48776683  0.87527600  0.35050614  1.0
  Sn  Sn2895  1  0.82110017  0.20860933  0.35050614  1.0
  Sn  Sn2896  1  0.82110017  0.54194267  0.35050614  1.0
  Sn  Sn2897  1  0.82110017  0.87527600  0.35050614  1.0
  Sn  Sn2898  1  0.26546017  0.31964667  0.30292329  1.0
  Sn  Sn2899  1  0.26546017  0.65298000  0.30292329  1.0
  Sn  Sn2900  1  0.26546017  0.98631333  0.30292329  1.0
  Sn  Sn2901  1  0.59879350  0.31964667  0.30292329  1.0
  Sn  Sn2902  1  0.59879350  0.65298000  0.30292329  1.0
  Sn  Sn2903  1  0.59879350  0.98631333  0.30292329  1.0
  Sn  Sn2904  1  0.93212683  0.31964667  0.30292329  1.0
  Sn  Sn2905  1  0.93212683  0.65298000  0.30292329  1.0
  Sn  Sn2906  1  0.93212683  0.98631333  0.30292329  1.0
  Sn  Sn2907  1  0.09879350  0.31964667  0.37435186  1.0
  Sn  Sn2908  1  0.09879350  0.65298000  0.37435186  1.0
  Sn  Sn2909  1  0.09879350  0.98631333  0.37435186  1.0
  Sn  Sn2910  1  0.43212683  0.31964667  0.37435186  1.0
  Sn  Sn2911  1  0.43212683  0.65298000  0.37435186  1.0
  Sn  Sn2912  1  0.43212683  0.98631333  0.37435186  1.0
  Sn  Sn2913  1  0.76546017  0.31964667  0.37435186  1.0
  Sn  Sn2914  1  0.76546017  0.65298000  0.37435186  1.0
  Sn  Sn2915  1  0.76546017  0.98631333  0.37435186  1.0
  Sn  Sn2916  1  0.13405500  0.04551933  0.28781121  1.0
  Sn  Sn2917  1  0.13405500  0.37885267  0.28781121  1.0
  Sn  Sn2918  1  0.13405500  0.71218600  0.28781121  1.0
  Sn  Sn2919  1  0.46738833  0.04551933  0.28781121  1.0
  Sn  Sn2920  1  0.46738833  0.37885267  0.28781121  1.0
  Sn  Sn2921  1  0.46738833  0.71218600  0.28781121  1.0
  Sn  Sn2922  1  0.80072167  0.04551933  0.28781121  1.0
  Sn  Sn2923  1  0.80072167  0.37885267  0.28781121  1.0
  Sn  Sn2924  1  0.80072167  0.71218600  0.28781121  1.0
  Sn  Sn2925  1  0.30072167  0.04551933  0.35923979  1.0
  Sn  Sn2926  1  0.30072167  0.37885267  0.35923979  1.0
  Sn  Sn2927  1  0.30072167  0.71218600  0.35923979  1.0
  Sn  Sn2928  1  0.63405500  0.04551933  0.35923979  1.0
  Sn  Sn2929  1  0.63405500  0.37885267  0.35923979  1.0
  Sn  Sn2930  1  0.63405500  0.71218600  0.35923979  1.0
  Sn  Sn2931  1  0.96738833  0.04551933  0.35923979  1.0
  Sn  Sn2932  1  0.96738833  0.37885267  0.35923979  1.0
  Sn  Sn2933  1  0.96738833  0.71218600  0.35923979  1.0
  Sn  Sn2934  1  0.07870683  0.15611600  0.31153186  1.0
  Sn  Sn2935  1  0.07870683  0.48944933  0.31153186  1.0
  Sn  Sn2936  1  0.07870683  0.82278267  0.31153186  1.0
  Sn  Sn2937  1  0.41204017  0.15611600  0.31153186  1.0
  Sn  Sn2938  1  0.41204017  0.48944933  0.31153186  1.0
  Sn  Sn2939  1  0.41204017  0.82278267  0.31153186  1.0
  Sn  Sn2940  1  0.74537350  0.15611600  0.31153186  1.0
  Sn  Sn2941  1  0.74537350  0.48944933  0.31153186  1.0
  Sn  Sn2942  1  0.74537350  0.82278267  0.31153186  1.0
  Sn  Sn2943  1  0.24537350  0.15611600  0.38296043  1.0
  Sn  Sn2944  1  0.24537350  0.48944933  0.38296043  1.0
  Sn  Sn2945  1  0.24537350  0.82278267  0.38296043  1.0
  Sn  Sn2946  1  0.57870683  0.15611600  0.38296043  1.0
  Sn  Sn2947  1  0.57870683  0.48944933  0.38296043  1.0
  Sn  Sn2948  1  0.57870683  0.82278267  0.38296043  1.0
  Sn  Sn2949  1  0.91204017  0.15611600  0.38296043  1.0
  Sn  Sn2950  1  0.91204017  0.48944933  0.38296043  1.0
  Sn  Sn2951  1  0.91204017  0.82278267  0.38296043  1.0
  Sn  Sn2952  1  0.02326867  0.26767333  0.33529107  1.0
  Sn  Sn2953  1  0.02326867  0.60100667  0.33529107  1.0
  Sn  Sn2954  1  0.02326867  0.93434000  0.33529107  1.0
  Sn  Sn2955  1  0.35660200  0.26767333  0.33529107  1.0
  Sn  Sn2956  1  0.35660200  0.60100667  0.33529107  1.0
  Sn  Sn2957  1  0.35660200  0.93434000  0.33529107  1.0
  Sn  Sn2958  1  0.68993533  0.26767333  0.33529107  1.0
  Sn  Sn2959  1  0.68993533  0.60100667  0.33529107  1.0
  Sn  Sn2960  1  0.68993533  0.93434000  0.33529107  1.0
  Sn  Sn2961  1  0.18993533  0.26767333  0.40671964  1.0
  Sn  Sn2962  1  0.18993533  0.60100667  0.40671964  1.0
  Sn  Sn2963  1  0.18993533  0.93434000  0.40671964  1.0
  Sn  Sn2964  1  0.52326867  0.26767333  0.40671964  1.0
  Sn  Sn2965  1  0.52326867  0.60100667  0.40671964  1.0
  Sn  Sn2966  1  0.52326867  0.93434000  0.40671964  1.0
  Sn  Sn2967  1  0.85660200  0.26767333  0.40671964  1.0
  Sn  Sn2968  1  0.85660200  0.60100667  0.40671964  1.0
  Sn  Sn2969  1  0.85660200  0.93434000  0.40671964  1.0
  Sn  Sn2970  1  0.06774167  0.01031033  0.31623121  1.0
  Sn  Sn2971  1  0.06774167  0.34364367  0.31623121  1.0
  Sn  Sn2972  1  0.06774167  0.67697700  0.31623121  1.0
  Sn  Sn2973  1  0.40107500  0.01031033  0.31623121  1.0
  Sn  Sn2974  1  0.40107500  0.34364367  0.31623121  1.0
  Sn  Sn2975  1  0.40107500  0.67697700  0.31623121  1.0
  Sn  Sn2976  1  0.73440833  0.01031033  0.31623121  1.0
  Sn  Sn2977  1  0.73440833  0.34364367  0.31623121  1.0
  Sn  Sn2978  1  0.73440833  0.67697700  0.31623121  1.0
  Sn  Sn2979  1  0.23440833  0.01031033  0.38765979  1.0
  Sn  Sn2980  1  0.23440833  0.34364367  0.38765979  1.0
  Sn  Sn2981  1  0.23440833  0.67697700  0.38765979  1.0
  Sn  Sn2982  1  0.56774167  0.01031033  0.38765979  1.0
  Sn  Sn2983  1  0.56774167  0.34364367  0.38765979  1.0
  Sn  Sn2984  1  0.56774167  0.67697700  0.38765979  1.0
  Sn  Sn2985  1  0.90107500  0.01031033  0.38765979  1.0
  Sn  Sn2986  1  0.90107500  0.34364367  0.38765979  1.0
  Sn  Sn2987  1  0.90107500  0.67697700  0.38765979  1.0
  Sn  Sn2988  1  0.01286950  0.12155833  0.33974786  1.0
  Sn  Sn2989  1  0.01286950  0.45489167  0.33974786  1.0
  Sn  Sn2990  1  0.01286950  0.78822500  0.33974786  1.0
  Sn  Sn2991  1  0.34620283  0.12155833  0.33974786  1.0
  Sn  Sn2992  1  0.34620283  0.45489167  0.33974786  1.0
  Sn  Sn2993  1  0.34620283  0.78822500  0.33974786  1.0
  Sn  Sn2994  1  0.67953617  0.12155833  0.33974786  1.0
  Sn  Sn2995  1  0.67953617  0.45489167  0.33974786  1.0
  Sn  Sn2996  1  0.67953617  0.78822500  0.33974786  1.0
  Sn  Sn2997  1  0.17953617  0.12155833  0.41117643  1.0
  Sn  Sn2998  1  0.17953617  0.45489167  0.41117643  1.0
  Sn  Sn2999  1  0.17953617  0.78822500  0.41117643  1.0
  Sn  Sn3000  1  0.51286950  0.12155833  0.41117643  1.0
  Sn  Sn3001  1  0.51286950  0.45489167  0.41117643  1.0
  Sn  Sn3002  1  0.51286950  0.78822500  0.41117643  1.0
  Sn  Sn3003  1  0.84620283  0.12155833  0.41117643  1.0
  Sn  Sn3004  1  0.84620283  0.45489167  0.41117643  1.0
  Sn  Sn3005  1  0.84620283  0.78822500  0.41117643  1.0
  Sn  Sn3006  1  0.29012883  0.23259767  0.36377957  1.0
  Sn  Sn3007  1  0.29012883  0.56593100  0.36377957  1.0
  Sn  Sn3008  1  0.29012883  0.89926433  0.36377957  1.0
  Sn  Sn3009  1  0.62346217  0.23259767  0.36377957  1.0
  Sn  Sn3010  1  0.62346217  0.56593100  0.36377957  1.0
  Sn  Sn3011  1  0.62346217  0.89926433  0.36377957  1.0
  Sn  Sn3012  1  0.95679550  0.23259767  0.36377957  1.0
  Sn  Sn3013  1  0.95679550  0.56593100  0.36377957  1.0
  Sn  Sn3014  1  0.95679550  0.89926433  0.36377957  1.0
  Sn  Sn3015  1  0.12346217  0.23259767  0.29235100  1.0
  Sn  Sn3016  1  0.12346217  0.56593100  0.29235100  1.0
  Sn  Sn3017  1  0.12346217  0.89926433  0.29235100  1.0
  Sn  Sn3018  1  0.45679550  0.23259767  0.29235100  1.0
  Sn  Sn3019  1  0.45679550  0.56593100  0.29235100  1.0
  Sn  Sn3020  1  0.45679550  0.89926433  0.29235100  1.0
  Sn  Sn3021  1  0.79012883  0.23259767  0.29235100  1.0
  Sn  Sn3022  1  0.79012883  0.56593100  0.29235100  1.0
  Sn  Sn3023  1  0.79012883  0.89926433  0.29235100  1.0
