# generated using pymatgen
data_Ni4Sn3
_symmetry_space_group_name_H-M   'P 1'
_cell_length_a   21.19829400
_cell_length_b   75.37534174
_cell_length_c   26.06891500
_cell_angle_alpha   101.97663627
_cell_angle_beta   90.00000000
_cell_angle_gamma   90.09723254
_symmetry_Int_Tables_number   1
_chemical_formula_structural   Ni4Sn3
_chemical_formula_sum   'Ni576 Sn432'
_cell_volume   40746.89371953
_cell_formula_units_Z   144
loop_
 _symmetry_equiv_pos_site_id
 _symmetry_equiv_pos_as_xyz
  1  'x, y, z'
loop_
 _atom_site_type_symbol
 _atom_site_label
 _atom_site_symmetry_multiplicity
 _atom_site_fract_x
 _atom_site_fract_y
 _atom_site_fract_z
 _atom_site_occupancy
  Ni  Ni0  1  0.24746533  0.26389467  0.19111530  1.0
  Ni  Ni1  1  0.24746533  0.59722800  0.19111530  1.0
  Ni  Ni2  1  0.24746533  0.93056133  0.19111530  1.0
  Ni  Ni3  1  0.58079867  0.26389467  0.19111530  1.0
  Ni  Ni4  1  0.58079867  0.59722800  0.19111530  1.0
  Ni  Ni5  1  0.58079867  0.93056133  0.19111530  1.0
  Ni  Ni6  1  0.91413200  0.26389467  0.19111530  1.0
  Ni  Ni7  1  0.91413200  0.59722800  0.19111530  1.0
  Ni  Ni8  1  0.91413200  0.93056133  0.19111530  1.0
  Ni  Ni9  1  0.24625000  0.15288533  0.12405650  1.0
  Ni  Ni10  1  0.24625000  0.48621867  0.12405650  1.0
  Ni  Ni11  1  0.24625000  0.81955200  0.12405650  1.0
  Ni  Ni12  1  0.57958333  0.15288533  0.12405650  1.0
  Ni  Ni13  1  0.57958333  0.48621867  0.12405650  1.0
  Ni  Ni14  1  0.57958333  0.81955200  0.12405650  1.0
  Ni  Ni15  1  0.91291667  0.15288533  0.12405650  1.0
  Ni  Ni16  1  0.91291667  0.48621867  0.12405650  1.0
  Ni  Ni17  1  0.91291667  0.81955200  0.12405650  1.0
  Ni  Ni18  1  0.24657300  0.04170933  0.05741850  1.0
  Ni  Ni19  1  0.24657300  0.37504267  0.05741850  1.0
  Ni  Ni20  1  0.24657300  0.70837600  0.05741850  1.0
  Ni  Ni21  1  0.57990633  0.04170933  0.05741850  1.0
  Ni  Ni22  1  0.57990633  0.37504267  0.05741850  1.0
  Ni  Ni23  1  0.57990633  0.70837600  0.05741850  1.0
  Ni  Ni24  1  0.91323967  0.04170933  0.05741850  1.0
  Ni  Ni25  1  0.91323967  0.37504267  0.05741850  1.0
  Ni  Ni26  1  0.91323967  0.70837600  0.05741850  1.0
  Ni  Ni27  1  0.08085067  0.23602000  0.07522730  1.0
  Ni  Ni28  1  0.08085067  0.56935333  0.07522730  1.0
  Ni  Ni29  1  0.08085067  0.90268667  0.07522730  1.0
  Ni  Ni30  1  0.41418400  0.23602000  0.07522730  1.0
  Ni  Ni31  1  0.41418400  0.56935333  0.07522730  1.0
  Ni  Ni32  1  0.41418400  0.90268667  0.07522730  1.0
  Ni  Ni33  1  0.74751733  0.23602000  0.07522730  1.0
  Ni  Ni34  1  0.74751733  0.56935333  0.07522730  1.0
  Ni  Ni35  1  0.74751733  0.90268667  0.07522730  1.0
  Ni  Ni36  1  0.07785967  0.12491900  0.00867930  1.0
  Ni  Ni37  1  0.07785967  0.45825233  0.00867930  1.0
  Ni  Ni38  1  0.07785967  0.79158567  0.00867930  1.0
  Ni  Ni39  1  0.41119300  0.12491900  0.00867930  1.0
  Ni  Ni40  1  0.41119300  0.45825233  0.00867930  1.0
  Ni  Ni41  1  0.41119300  0.79158567  0.00867930  1.0
  Ni  Ni42  1  0.74452633  0.12491900  0.00867930  1.0
  Ni  Ni43  1  0.74452633  0.45825233  0.00867930  1.0
  Ni  Ni44  1  0.74452633  0.79158567  0.00867930  1.0
  Ni  Ni45  1  0.07767500  0.01362167  0.14198970  1.0
  Ni  Ni46  1  0.07767500  0.34695500  0.14198970  1.0
  Ni  Ni47  1  0.07767500  0.68028833  0.14198970  1.0
  Ni  Ni48  1  0.41100833  0.01362167  0.14198970  1.0
  Ni  Ni49  1  0.41100833  0.34695500  0.14198970  1.0
  Ni  Ni50  1  0.41100833  0.68028833  0.14198970  1.0
  Ni  Ni51  1  0.74434167  0.01362167  0.14198970  1.0
  Ni  Ni52  1  0.74434167  0.34695500  0.14198970  1.0
  Ni  Ni53  1  0.74434167  0.68028833  0.14198970  1.0
  Ni  Ni54  1  0.08701633  0.29113433  0.10713190  1.0
  Ni  Ni55  1  0.08701633  0.62446767  0.10713190  1.0
  Ni  Ni56  1  0.08701633  0.95780100  0.10713190  1.0
  Ni  Ni57  1  0.42034967  0.29113433  0.10713190  1.0
  Ni  Ni58  1  0.42034967  0.62446767  0.10713190  1.0
  Ni  Ni59  1  0.42034967  0.95780100  0.10713190  1.0
  Ni  Ni60  1  0.75368300  0.29113433  0.10713190  1.0
  Ni  Ni61  1  0.75368300  0.62446767  0.10713190  1.0
  Ni  Ni62  1  0.75368300  0.95780100  0.10713190  1.0
  Ni  Ni63  1  0.08694133  0.18125767  0.04093270  1.0
  Ni  Ni64  1  0.08694133  0.51459100  0.04093270  1.0
  Ni  Ni65  1  0.08694133  0.84792433  0.04093270  1.0
  Ni  Ni66  1  0.42027467  0.18125767  0.04093270  1.0
  Ni  Ni67  1  0.42027467  0.51459100  0.04093270  1.0
  Ni  Ni68  1  0.42027467  0.84792433  0.04093270  1.0
  Ni  Ni69  1  0.75360800  0.18125767  0.04093270  1.0
  Ni  Ni70  1  0.75360800  0.51459100  0.04093270  1.0
  Ni  Ni71  1  0.75360800  0.84792433  0.04093270  1.0
  Ni  Ni72  1  0.08824400  0.06952067  0.17366690  1.0
  Ni  Ni73  1  0.08824400  0.40285400  0.17366690  1.0
  Ni  Ni74  1  0.08824400  0.73618733  0.17366690  1.0
  Ni  Ni75  1  0.42157733  0.06952067  0.17366690  1.0
  Ni  Ni76  1  0.42157733  0.40285400  0.17366690  1.0
  Ni  Ni77  1  0.42157733  0.73618733  0.17366690  1.0
  Ni  Ni78  1  0.75491067  0.06952067  0.17366690  1.0
  Ni  Ni79  1  0.75491067  0.40285400  0.17366690  1.0
  Ni  Ni80  1  0.75491067  0.73618733  0.17366690  1.0
  Ni  Ni81  1  0.25278433  0.31946967  0.02538090  1.0
  Ni  Ni82  1  0.25278433  0.65280300  0.02538090  1.0
  Ni  Ni83  1  0.25278433  0.98613633  0.02538090  1.0
  Ni  Ni84  1  0.58611767  0.31946967  0.02538090  1.0
  Ni  Ni85  1  0.58611767  0.65280300  0.02538090  1.0
  Ni  Ni86  1  0.58611767  0.98613633  0.02538090  1.0
  Ni  Ni87  1  0.91945100  0.31946967  0.02538090  1.0
  Ni  Ni88  1  0.91945100  0.65280300  0.02538090  1.0
  Ni  Ni89  1  0.91945100  0.98613633  0.02538090  1.0
  Ni  Ni90  1  0.25312967  0.20828567  0.15888170  1.0
  Ni  Ni91  1  0.25312967  0.54161900  0.15888170  1.0
  Ni  Ni92  1  0.25312967  0.87495233  0.15888170  1.0
  Ni  Ni93  1  0.58646300  0.20828567  0.15888170  1.0
  Ni  Ni94  1  0.58646300  0.54161900  0.15888170  1.0
  Ni  Ni95  1  0.58646300  0.87495233  0.15888170  1.0
  Ni  Ni96  1  0.91979633  0.20828567  0.15888170  1.0
  Ni  Ni97  1  0.91979633  0.54161900  0.15888170  1.0
  Ni  Ni98  1  0.91979633  0.87495233  0.15888170  1.0
  Ni  Ni99  1  0.25319400  0.09725300  0.09216130  1.0
  Ni  Ni100  1  0.25319400  0.43058633  0.09216130  1.0
  Ni  Ni101  1  0.25319400  0.76391967  0.09216130  1.0
  Ni  Ni102  1  0.58652733  0.09725300  0.09216130  1.0
  Ni  Ni103  1  0.58652733  0.43058633  0.09216130  1.0
  Ni  Ni104  1  0.58652733  0.76391967  0.09216130  1.0
  Ni  Ni105  1  0.91986067  0.09725300  0.09216130  1.0
  Ni  Ni106  1  0.91986067  0.43058633  0.09216130  1.0
  Ni  Ni107  1  0.91986067  0.76391967  0.09216130  1.0
  Ni  Ni108  1  0.08701633  0.29113433  0.00883390  1.0
  Ni  Ni109  1  0.08701633  0.62446767  0.00883390  1.0
  Ni  Ni110  1  0.08701633  0.95780100  0.00883390  1.0
  Ni  Ni111  1  0.42034967  0.29113433  0.00883390  1.0
  Ni  Ni112  1  0.42034967  0.62446767  0.00883390  1.0
  Ni  Ni113  1  0.42034967  0.95780100  0.00883390  1.0
  Ni  Ni114  1  0.75368300  0.29113433  0.00883390  1.0
  Ni  Ni115  1  0.75368300  0.62446767  0.00883390  1.0
  Ni  Ni116  1  0.75368300  0.95780100  0.00883390  1.0
  Ni  Ni117  1  0.08694133  0.18125767  0.14318110  1.0
  Ni  Ni118  1  0.08694133  0.51459100  0.14318110  1.0
  Ni  Ni119  1  0.08694133  0.84792433  0.14318110  1.0
  Ni  Ni120  1  0.42027467  0.18125767  0.14318110  1.0
  Ni  Ni121  1  0.42027467  0.51459100  0.14318110  1.0
  Ni  Ni122  1  0.42027467  0.84792433  0.14318110  1.0
  Ni  Ni123  1  0.75360800  0.18125767  0.14318110  1.0
  Ni  Ni124  1  0.75360800  0.51459100  0.14318110  1.0
  Ni  Ni125  1  0.75360800  0.84792433  0.14318110  1.0
  Ni  Ni126  1  0.08824400  0.06952067  0.07636250  1.0
  Ni  Ni127  1  0.08824400  0.40285400  0.07636250  1.0
  Ni  Ni128  1  0.08824400  0.73618733  0.07636250  1.0
  Ni  Ni129  1  0.42157733  0.06952067  0.07636250  1.0
  Ni  Ni130  1  0.42157733  0.40285400  0.07636250  1.0
  Ni  Ni131  1  0.42157733  0.73618733  0.07636250  1.0
  Ni  Ni132  1  0.75491067  0.06952067  0.07636250  1.0
  Ni  Ni133  1  0.75491067  0.40285400  0.07636250  1.0
  Ni  Ni134  1  0.75491067  0.73618733  0.07636250  1.0
  Ni  Ni135  1  0.25278433  0.31946967  0.12458730  1.0
  Ni  Ni136  1  0.25278433  0.65280300  0.12458730  1.0
  Ni  Ni137  1  0.25278433  0.98613633  0.12458730  1.0
  Ni  Ni138  1  0.58611767  0.31946967  0.12458730  1.0
  Ni  Ni139  1  0.58611767  0.65280300  0.12458730  1.0
  Ni  Ni140  1  0.58611767  0.98613633  0.12458730  1.0
  Ni  Ni141  1  0.91945100  0.31946967  0.12458730  1.0
  Ni  Ni142  1  0.91945100  0.65280300  0.12458730  1.0
  Ni  Ni143  1  0.91945100  0.98613633  0.12458730  1.0
  Ni  Ni144  1  0.25312967  0.20828567  0.05766570  1.0
  Ni  Ni145  1  0.25312967  0.54161900  0.05766570  1.0
  Ni  Ni146  1  0.25312967  0.87495233  0.05766570  1.0
  Ni  Ni147  1  0.58646300  0.20828567  0.05766570  1.0
  Ni  Ni148  1  0.58646300  0.54161900  0.05766570  1.0
  Ni  Ni149  1  0.58646300  0.87495233  0.05766570  1.0
  Ni  Ni150  1  0.91979633  0.20828567  0.05766570  1.0
  Ni  Ni151  1  0.91979633  0.54161900  0.05766570  1.0
  Ni  Ni152  1  0.91979633  0.87495233  0.05766570  1.0
  Ni  Ni153  1  0.25319400  0.09725300  0.19114690  1.0
  Ni  Ni154  1  0.25319400  0.43058633  0.19114690  1.0
  Ni  Ni155  1  0.25319400  0.76391967  0.19114690  1.0
  Ni  Ni156  1  0.58652733  0.09725300  0.19114690  1.0
  Ni  Ni157  1  0.58652733  0.43058633  0.19114690  1.0
  Ni  Ni158  1  0.58652733  0.76391967  0.19114690  1.0
  Ni  Ni159  1  0.91986067  0.09725300  0.19114690  1.0
  Ni  Ni160  1  0.91986067  0.43058633  0.19114690  1.0
  Ni  Ni161  1  0.91986067  0.76391967  0.19114690  1.0
  Ni  Ni162  1  0.24746533  0.26389467  0.09216290  1.0
  Ni  Ni163  1  0.24746533  0.59722800  0.09216290  1.0
  Ni  Ni164  1  0.24746533  0.93056133  0.09216290  1.0
  Ni  Ni165  1  0.58079867  0.26389467  0.09216290  1.0
  Ni  Ni166  1  0.58079867  0.59722800  0.09216290  1.0
  Ni  Ni167  1  0.58079867  0.93056133  0.09216290  1.0
  Ni  Ni168  1  0.91413200  0.26389467  0.09216290  1.0
  Ni  Ni169  1  0.91413200  0.59722800  0.09216290  1.0
  Ni  Ni170  1  0.91413200  0.93056133  0.09216290  1.0
  Ni  Ni171  1  0.24625000  0.15288533  0.02601050  1.0
  Ni  Ni172  1  0.24625000  0.48621867  0.02601050  1.0
  Ni  Ni173  1  0.24625000  0.81955200  0.02601050  1.0
  Ni  Ni174  1  0.57958333  0.15288533  0.02601050  1.0
  Ni  Ni175  1  0.57958333  0.48621867  0.02601050  1.0
  Ni  Ni176  1  0.57958333  0.81955200  0.02601050  1.0
  Ni  Ni177  1  0.91291667  0.15288533  0.02601050  1.0
  Ni  Ni178  1  0.91291667  0.48621867  0.02601050  1.0
  Ni  Ni179  1  0.91291667  0.81955200  0.02601050  1.0
  Ni  Ni180  1  0.24657300  0.04170933  0.15923730  1.0
  Ni  Ni181  1  0.24657300  0.37504267  0.15923730  1.0
  Ni  Ni182  1  0.24657300  0.70837600  0.15923730  1.0
  Ni  Ni183  1  0.57990633  0.04170933  0.15923730  1.0
  Ni  Ni184  1  0.57990633  0.37504267  0.15923730  1.0
  Ni  Ni185  1  0.57990633  0.70837600  0.15923730  1.0
  Ni  Ni186  1  0.91323967  0.04170933  0.15923730  1.0
  Ni  Ni187  1  0.91323967  0.37504267  0.15923730  1.0
  Ni  Ni188  1  0.91323967  0.70837600  0.15923730  1.0
  Ni  Ni189  1  0.08085067  0.23602000  0.17460130  1.0
  Ni  Ni190  1  0.08085067  0.56935333  0.17460130  1.0
  Ni  Ni191  1  0.08085067  0.90268667  0.17460130  1.0
  Ni  Ni192  1  0.41418400  0.23602000  0.17460130  1.0
  Ni  Ni193  1  0.41418400  0.56935333  0.17460130  1.0
  Ni  Ni194  1  0.41418400  0.90268667  0.17460130  1.0
  Ni  Ni195  1  0.74751733  0.23602000  0.17460130  1.0
  Ni  Ni196  1  0.74751733  0.56935333  0.17460130  1.0
  Ni  Ni197  1  0.74751733  0.90268667  0.17460130  1.0
  Ni  Ni198  1  0.07785967  0.12491900  0.10782810  1.0
  Ni  Ni199  1  0.07785967  0.45825233  0.10782810  1.0
  Ni  Ni200  1  0.07785967  0.79158567  0.10782810  1.0
  Ni  Ni201  1  0.41119300  0.12491900  0.10782810  1.0
  Ni  Ni202  1  0.41119300  0.45825233  0.10782810  1.0
  Ni  Ni203  1  0.41119300  0.79158567  0.10782810  1.0
  Ni  Ni204  1  0.74452633  0.12491900  0.10782810  1.0
  Ni  Ni205  1  0.74452633  0.45825233  0.10782810  1.0
  Ni  Ni206  1  0.74452633  0.79158567  0.10782810  1.0
  Ni  Ni207  1  0.07767500  0.01362167  0.04096090  1.0
  Ni  Ni208  1  0.07767500  0.34695500  0.04096090  1.0
  Ni  Ni209  1  0.07767500  0.68028833  0.04096090  1.0
  Ni  Ni210  1  0.41100833  0.01362167  0.04096090  1.0
  Ni  Ni211  1  0.41100833  0.34695500  0.04096090  1.0
  Ni  Ni212  1  0.41100833  0.68028833  0.04096090  1.0
  Ni  Ni213  1  0.74434167  0.01362167  0.04096090  1.0
  Ni  Ni214  1  0.74434167  0.34695500  0.04096090  1.0
  Ni  Ni215  1  0.74434167  0.68028833  0.04096090  1.0
  Ni  Ni216  1  0.30154433  0.12565667  0.05869630  1.0
  Ni  Ni217  1  0.30154433  0.45899000  0.05869630  1.0
  Ni  Ni218  1  0.30154433  0.79232333  0.05869630  1.0
  Ni  Ni219  1  0.63487767  0.12565667  0.05869630  1.0
  Ni  Ni220  1  0.63487767  0.45899000  0.05869630  1.0
  Ni  Ni221  1  0.63487767  0.79232333  0.05869630  1.0
  Ni  Ni222  1  0.96821100  0.12565667  0.05869630  1.0
  Ni  Ni223  1  0.96821100  0.45899000  0.05869630  1.0
  Ni  Ni224  1  0.96821100  0.79232333  0.05869630  1.0
  Ni  Ni225  1  0.30144600  0.01433133  0.19190110  1.0
  Ni  Ni226  1  0.30144600  0.34766467  0.19190110  1.0
  Ni  Ni227  1  0.30144600  0.68099800  0.19190110  1.0
  Ni  Ni228  1  0.63477933  0.01433133  0.19190110  1.0
  Ni  Ni229  1  0.63477933  0.34766467  0.19190110  1.0
  Ni  Ni230  1  0.63477933  0.68099800  0.19190110  1.0
  Ni  Ni231  1  0.96811267  0.01433133  0.19190110  1.0
  Ni  Ni232  1  0.96811267  0.34766467  0.19190110  1.0
  Ni  Ni233  1  0.96811267  0.68099800  0.19190110  1.0
  Ni  Ni234  1  0.19627033  0.29208067  0.05855070  1.0
  Ni  Ni235  1  0.19627033  0.62541400  0.05855070  1.0
  Ni  Ni236  1  0.19627033  0.95874733  0.05855070  1.0
  Ni  Ni237  1  0.52960367  0.29208067  0.05855070  1.0
  Ni  Ni238  1  0.52960367  0.62541400  0.05855070  1.0
  Ni  Ni239  1  0.52960367  0.95874733  0.05855070  1.0
  Ni  Ni240  1  0.86293700  0.29208067  0.05855070  1.0
  Ni  Ni241  1  0.86293700  0.62541400  0.05855070  1.0
  Ni  Ni242  1  0.86293700  0.95874733  0.05855070  1.0
  Ni  Ni243  1  0.19576767  0.18020267  0.19142390  1.0
  Ni  Ni244  1  0.19576767  0.51353600  0.19142390  1.0
  Ni  Ni245  1  0.19576767  0.84686933  0.19142390  1.0
  Ni  Ni246  1  0.52910100  0.18020267  0.19142390  1.0
  Ni  Ni247  1  0.52910100  0.51353600  0.19142390  1.0
  Ni  Ni248  1  0.52910100  0.84686933  0.19142390  1.0
  Ni  Ni249  1  0.86243433  0.18020267  0.19142390  1.0
  Ni  Ni250  1  0.86243433  0.51353600  0.19142390  1.0
  Ni  Ni251  1  0.86243433  0.84686933  0.19142390  1.0
  Ni  Ni252  1  0.19680400  0.06955033  0.12503250  1.0
  Ni  Ni253  1  0.19680400  0.40288367  0.12503250  1.0
  Ni  Ni254  1  0.19680400  0.73621700  0.12503250  1.0
  Ni  Ni255  1  0.53013733  0.06955033  0.12503250  1.0
  Ni  Ni256  1  0.53013733  0.40288367  0.12503250  1.0
  Ni  Ni257  1  0.53013733  0.73621700  0.12503250  1.0
  Ni  Ni258  1  0.86347067  0.06955033  0.12503250  1.0
  Ni  Ni259  1  0.86347067  0.40288367  0.12503250  1.0
  Ni  Ni260  1  0.86347067  0.73621700  0.12503250  1.0
  Ni  Ni261  1  0.02894667  0.31905367  0.07473450  1.0
  Ni  Ni262  1  0.02894667  0.65238700  0.07473450  1.0
  Ni  Ni263  1  0.02894667  0.98572033  0.07473450  1.0
  Ni  Ni264  1  0.36228000  0.31905367  0.07473450  1.0
  Ni  Ni265  1  0.36228000  0.65238700  0.07473450  1.0
  Ni  Ni266  1  0.36228000  0.98572033  0.07473450  1.0
  Ni  Ni267  1  0.69561333  0.31905367  0.07473450  1.0
  Ni  Ni268  1  0.69561333  0.65238700  0.07473450  1.0
  Ni  Ni269  1  0.69561333  0.98572033  0.07473450  1.0
  Ni  Ni270  1  0.02886800  0.20857800  0.00844910  1.0
  Ni  Ni271  1  0.02886800  0.54191133  0.00844910  1.0
  Ni  Ni272  1  0.02886800  0.87524467  0.00844910  1.0
  Ni  Ni273  1  0.36220133  0.20857800  0.00844910  1.0
  Ni  Ni274  1  0.36220133  0.54191133  0.00844910  1.0
  Ni  Ni275  1  0.36220133  0.87524467  0.00844910  1.0
  Ni  Ni276  1  0.69553467  0.20857800  0.00844910  1.0
  Ni  Ni277  1  0.69553467  0.54191133  0.00844910  1.0
  Ni  Ni278  1  0.69553467  0.87524467  0.00844910  1.0
  Ni  Ni279  1  0.02893700  0.09708767  0.14155490  1.0
  Ni  Ni280  1  0.02893700  0.43042100  0.14155490  1.0
  Ni  Ni281  1  0.02893700  0.76375433  0.14155490  1.0
  Ni  Ni282  1  0.36227033  0.09708767  0.14155490  1.0
  Ni  Ni283  1  0.36227033  0.43042100  0.14155490  1.0
  Ni  Ni284  1  0.36227033  0.76375433  0.14155490  1.0
  Ni  Ni285  1  0.69560367  0.09708767  0.14155490  1.0
  Ni  Ni286  1  0.69560367  0.43042100  0.14155490  1.0
  Ni  Ni287  1  0.69560367  0.76375433  0.14155490  1.0
  Sn  Sn288  1  0.03050900  0.31695300  0.17347410  1.0
  Sn  Sn289  1  0.03050900  0.65028633  0.17347410  1.0
  Sn  Sn290  1  0.03050900  0.98361967  0.17347410  1.0
  Sn  Sn291  1  0.36384233  0.31695300  0.17347410  1.0
  Sn  Sn292  1  0.36384233  0.65028633  0.17347410  1.0
  Sn  Sn293  1  0.36384233  0.98361967  0.17347410  1.0
  Sn  Sn294  1  0.69717567  0.31695300  0.17347410  1.0
  Sn  Sn295  1  0.69717567  0.65028633  0.17347410  1.0
  Sn  Sn296  1  0.69717567  0.98361967  0.17347410  1.0
  Sn  Sn297  1  0.02768967  0.20820700  0.10822650  1.0
  Sn  Sn298  1  0.02768967  0.54154033  0.10822650  1.0
  Sn  Sn299  1  0.02768967  0.87487367  0.10822650  1.0
  Sn  Sn300  1  0.36102300  0.20820700  0.10822650  1.0
  Sn  Sn301  1  0.36102300  0.54154033  0.10822650  1.0
  Sn  Sn302  1  0.36102300  0.87487367  0.10822650  1.0
  Sn  Sn303  1  0.69435633  0.20820700  0.10822650  1.0
  Sn  Sn304  1  0.69435633  0.54154033  0.10822650  1.0
  Sn  Sn305  1  0.69435633  0.87487367  0.10822650  1.0
  Sn  Sn306  1  0.03067000  0.09513433  0.04038290  1.0
  Sn  Sn307  1  0.03067000  0.42846767  0.04038290  1.0
  Sn  Sn308  1  0.03067000  0.76180100  0.04038290  1.0
  Sn  Sn309  1  0.36400333  0.09513433  0.04038290  1.0
  Sn  Sn310  1  0.36400333  0.42846767  0.04038290  1.0
  Sn  Sn311  1  0.36400333  0.76180100  0.04038290  1.0
  Sn  Sn312  1  0.69733667  0.09513433  0.04038290  1.0
  Sn  Sn313  1  0.69733667  0.42846767  0.04038290  1.0
  Sn  Sn314  1  0.69733667  0.76180100  0.04038290  1.0
  Sn  Sn315  1  0.19496700  0.29200633  0.15850610  1.0
  Sn  Sn316  1  0.19496700  0.62533967  0.15850610  1.0
  Sn  Sn317  1  0.19496700  0.95867300  0.15850610  1.0
  Sn  Sn318  1  0.52830033  0.29200633  0.15850610  1.0
  Sn  Sn319  1  0.52830033  0.62533967  0.15850610  1.0
  Sn  Sn320  1  0.52830033  0.95867300  0.15850610  1.0
  Sn  Sn321  1  0.86163367  0.29200633  0.15850610  1.0
  Sn  Sn322  1  0.86163367  0.62533967  0.15850610  1.0
  Sn  Sn323  1  0.86163367  0.95867300  0.15850610  1.0
  Sn  Sn324  1  0.19523000  0.18125133  0.09205310  1.0
  Sn  Sn325  1  0.19523000  0.51458467  0.09205310  1.0
  Sn  Sn326  1  0.19523000  0.84791800  0.09205310  1.0
  Sn  Sn327  1  0.52856333  0.18125133  0.09205310  1.0
  Sn  Sn328  1  0.52856333  0.51458467  0.09205310  1.0
  Sn  Sn329  1  0.52856333  0.84791800  0.09205310  1.0
  Sn  Sn330  1  0.86189667  0.18125133  0.09205310  1.0
  Sn  Sn331  1  0.86189667  0.51458467  0.09205310  1.0
  Sn  Sn332  1  0.86189667  0.84791800  0.09205310  1.0
  Sn  Sn333  1  0.19612967  0.07004700  0.02533050  1.0
  Sn  Sn334  1  0.19612967  0.40338033  0.02533050  1.0
  Sn  Sn335  1  0.19612967  0.73671367  0.02533050  1.0
  Sn  Sn336  1  0.52946300  0.07004700  0.02533050  1.0
  Sn  Sn337  1  0.52946300  0.40338033  0.02533050  1.0
  Sn  Sn338  1  0.52946300  0.73671367  0.02533050  1.0
  Sn  Sn339  1  0.86279633  0.07004700  0.02533050  1.0
  Sn  Sn340  1  0.86279633  0.40338033  0.02533050  1.0
  Sn  Sn341  1  0.86279633  0.73671367  0.02533050  1.0
  Sn  Sn342  1  0.30058467  0.23785600  0.02601590  1.0
  Sn  Sn343  1  0.30058467  0.57118933  0.02601590  1.0
  Sn  Sn344  1  0.30058467  0.90452267  0.02601590  1.0
  Sn  Sn345  1  0.63391800  0.23785600  0.02601590  1.0
  Sn  Sn346  1  0.63391800  0.57118933  0.02601590  1.0
  Sn  Sn347  1  0.63391800  0.90452267  0.02601590  1.0
  Sn  Sn348  1  0.96725133  0.23785600  0.02601590  1.0
  Sn  Sn349  1  0.96725133  0.57118933  0.02601590  1.0
  Sn  Sn350  1  0.96725133  0.90452267  0.02601590  1.0
  Sn  Sn351  1  0.29947333  0.12681833  0.15939330  1.0
  Sn  Sn352  1  0.29947333  0.46015167  0.15939330  1.0
  Sn  Sn353  1  0.29947333  0.79348500  0.15939330  1.0
  Sn  Sn354  1  0.63280667  0.12681833  0.15939330  1.0
  Sn  Sn355  1  0.63280667  0.46015167  0.15939330  1.0
  Sn  Sn356  1  0.63280667  0.79348500  0.15939330  1.0
  Sn  Sn357  1  0.96614000  0.12681833  0.15939330  1.0
  Sn  Sn358  1  0.96614000  0.46015167  0.15939330  1.0
  Sn  Sn359  1  0.96614000  0.79348500  0.15939330  1.0
  Sn  Sn360  1  0.29950000  0.01548633  0.09259410  1.0
  Sn  Sn361  1  0.29950000  0.34881967  0.09259410  1.0
  Sn  Sn362  1  0.29950000  0.68215300  0.09259410  1.0
  Sn  Sn363  1  0.63283333  0.01548633  0.09259410  1.0
  Sn  Sn364  1  0.63283333  0.34881967  0.09259410  1.0
  Sn  Sn365  1  0.63283333  0.68215300  0.09259410  1.0
  Sn  Sn366  1  0.96616667  0.01548633  0.09259410  1.0
  Sn  Sn367  1  0.96616667  0.34881967  0.09259410  1.0
  Sn  Sn368  1  0.96616667  0.68215300  0.09259410  1.0
  Sn  Sn369  1  0.13537000  0.26213800  0.04058510  1.0
  Sn  Sn370  1  0.13537000  0.59547133  0.04058510  1.0
  Sn  Sn371  1  0.13537000  0.92880467  0.04058510  1.0
  Sn  Sn372  1  0.46870333  0.26213800  0.04058510  1.0
  Sn  Sn373  1  0.46870333  0.59547133  0.04058510  1.0
  Sn  Sn374  1  0.46870333  0.92880467  0.04058510  1.0
  Sn  Sn375  1  0.80203667  0.26213800  0.04058510  1.0
  Sn  Sn376  1  0.80203667  0.59547133  0.04058510  1.0
  Sn  Sn377  1  0.80203667  0.92880467  0.04058510  1.0
  Sn  Sn378  1  0.13296833  0.15110167  0.17396330  1.0
  Sn  Sn379  1  0.13296833  0.48443500  0.17396330  1.0
  Sn  Sn380  1  0.13296833  0.81776833  0.17396330  1.0
  Sn  Sn381  1  0.46630167  0.15110167  0.17396330  1.0
  Sn  Sn382  1  0.46630167  0.48443500  0.17396330  1.0
  Sn  Sn383  1  0.46630167  0.81776833  0.17396330  1.0
  Sn  Sn384  1  0.79963500  0.15110167  0.17396330  1.0
  Sn  Sn385  1  0.79963500  0.48443500  0.17396330  1.0
  Sn  Sn386  1  0.79963500  0.81776833  0.17396330  1.0
  Sn  Sn387  1  0.13390767  0.03986300  0.10722010  1.0
  Sn  Sn388  1  0.13390767  0.37319633  0.10722010  1.0
  Sn  Sn389  1  0.13390767  0.70652967  0.10722010  1.0
  Sn  Sn390  1  0.46724100  0.03986300  0.10722010  1.0
  Sn  Sn391  1  0.46724100  0.37319633  0.10722010  1.0
  Sn  Sn392  1  0.46724100  0.70652967  0.10722010  1.0
  Sn  Sn393  1  0.80057433  0.03986300  0.10722010  1.0
  Sn  Sn394  1  0.80057433  0.37319633  0.10722010  1.0
  Sn  Sn395  1  0.80057433  0.70652967  0.10722010  1.0
  Sn  Sn396  1  0.02835633  0.26375200  0.14155350  1.0
  Sn  Sn397  1  0.02835633  0.59708533  0.14155350  1.0
  Sn  Sn398  1  0.02835633  0.93041867  0.14155350  1.0
  Sn  Sn399  1  0.36168967  0.26375200  0.14155350  1.0
  Sn  Sn400  1  0.36168967  0.59708533  0.14155350  1.0
  Sn  Sn401  1  0.36168967  0.93041867  0.14155350  1.0
  Sn  Sn402  1  0.69502300  0.26375200  0.14155350  1.0
  Sn  Sn403  1  0.69502300  0.59708533  0.14155350  1.0
  Sn  Sn404  1  0.69502300  0.93041867  0.14155350  1.0
  Sn  Sn405  1  0.03230133  0.15495733  0.07627670  1.0
  Sn  Sn406  1  0.03230133  0.48829067  0.07627670  1.0
  Sn  Sn407  1  0.03230133  0.82162400  0.07627670  1.0
  Sn  Sn408  1  0.36563467  0.15495733  0.07627670  1.0
  Sn  Sn409  1  0.36563467  0.48829067  0.07627670  1.0
  Sn  Sn410  1  0.36563467  0.82162400  0.07627670  1.0
  Sn  Sn411  1  0.69896800  0.15495733  0.07627670  1.0
  Sn  Sn412  1  0.69896800  0.48829067  0.07627670  1.0
  Sn  Sn413  1  0.69896800  0.82162400  0.07627670  1.0
  Sn  Sn414  1  0.03253833  0.04348833  0.00939530  1.0
  Sn  Sn415  1  0.03253833  0.37682167  0.00939530  1.0
  Sn  Sn416  1  0.03253833  0.71015500  0.00939530  1.0
  Sn  Sn417  1  0.36587167  0.04348833  0.00939530  1.0
  Sn  Sn418  1  0.36587167  0.37682167  0.00939530  1.0
  Sn  Sn419  1  0.36587167  0.71015500  0.00939530  1.0
  Sn  Sn420  1  0.69920500  0.04348833  0.00939530  1.0
  Sn  Sn421  1  0.69920500  0.37682167  0.00939530  1.0
  Sn  Sn422  1  0.69920500  0.71015500  0.00939530  1.0
  Sn  Sn423  1  0.19456133  0.23582200  0.12479550  1.0
  Sn  Sn424  1  0.19456133  0.56915533  0.12479550  1.0
  Sn  Sn425  1  0.19456133  0.90248867  0.12479550  1.0
  Sn  Sn426  1  0.52789467  0.23582200  0.12479550  1.0
  Sn  Sn427  1  0.52789467  0.56915533  0.12479550  1.0
  Sn  Sn428  1  0.52789467  0.90248867  0.12479550  1.0
  Sn  Sn429  1  0.86122800  0.23582200  0.12479550  1.0
  Sn  Sn430  1  0.86122800  0.56915533  0.12479550  1.0
  Sn  Sn431  1  0.86122800  0.90248867  0.12479550  1.0
  Sn  Sn432  1  0.18414300  0.12472400  0.05813670  1.0
  Sn  Sn433  1  0.18414300  0.45805733  0.05813670  1.0
  Sn  Sn434  1  0.18414300  0.79139067  0.05813670  1.0
  Sn  Sn435  1  0.51747633  0.12472400  0.05813670  1.0
  Sn  Sn436  1  0.51747633  0.45805733  0.05813670  1.0
  Sn  Sn437  1  0.51747633  0.79139067  0.05813670  1.0
  Sn  Sn438  1  0.85080967  0.12472400  0.05813670  1.0
  Sn  Sn439  1  0.85080967  0.45805733  0.05813670  1.0
  Sn  Sn440  1  0.85080967  0.79139067  0.05813670  1.0
  Sn  Sn441  1  0.18390033  0.01368667  0.19151430  1.0
  Sn  Sn442  1  0.18390033  0.34702000  0.19151430  1.0
  Sn  Sn443  1  0.18390033  0.68035333  0.19151430  1.0
  Sn  Sn444  1  0.51723367  0.01368667  0.19151430  1.0
  Sn  Sn445  1  0.51723367  0.34702000  0.19151430  1.0
  Sn  Sn446  1  0.51723367  0.68035333  0.19151430  1.0
  Sn  Sn447  1  0.85056700  0.01368667  0.19151430  1.0
  Sn  Sn448  1  0.85056700  0.34702000  0.19151430  1.0
  Sn  Sn449  1  0.85056700  0.68035333  0.19151430  1.0
  Sn  Sn450  1  0.31362933  0.28781400  0.05599070  1.0
  Sn  Sn451  1  0.31362933  0.62114733  0.05599070  1.0
  Sn  Sn452  1  0.31362933  0.95448067  0.05599070  1.0
  Sn  Sn453  1  0.64696267  0.28781400  0.05599070  1.0
  Sn  Sn454  1  0.64696267  0.62114733  0.05599070  1.0
  Sn  Sn455  1  0.64696267  0.95448067  0.05599070  1.0
  Sn  Sn456  1  0.98029600  0.28781400  0.05599070  1.0
  Sn  Sn457  1  0.98029600  0.62114733  0.05599070  1.0
  Sn  Sn458  1  0.98029600  0.95448067  0.05599070  1.0
  Sn  Sn459  1  0.31352967  0.17721733  0.18963270  1.0
  Sn  Sn460  1  0.31352967  0.51055067  0.18963270  1.0
  Sn  Sn461  1  0.31352967  0.84388400  0.18963270  1.0
  Sn  Sn462  1  0.64686300  0.17721733  0.18963270  1.0
  Sn  Sn463  1  0.64686300  0.51055067  0.18963270  1.0
  Sn  Sn464  1  0.64686300  0.84388400  0.18963270  1.0
  Sn  Sn465  1  0.98019633  0.17721733  0.18963270  1.0
  Sn  Sn466  1  0.98019633  0.51055067  0.18963270  1.0
  Sn  Sn467  1  0.98019633  0.84388400  0.18963270  1.0
  Sn  Sn468  1  0.31421067  0.06566000  0.12269830  1.0
  Sn  Sn469  1  0.31421067  0.39899333  0.12269830  1.0
  Sn  Sn470  1  0.31421067  0.73232667  0.12269830  1.0
  Sn  Sn471  1  0.64754400  0.06566000  0.12269830  1.0
  Sn  Sn472  1  0.64754400  0.39899333  0.12269830  1.0
  Sn  Sn473  1  0.64754400  0.73232667  0.12269830  1.0
  Sn  Sn474  1  0.98087733  0.06566000  0.12269830  1.0
  Sn  Sn475  1  0.98087733  0.39899333  0.12269830  1.0
  Sn  Sn476  1  0.98087733  0.73232667  0.12269830  1.0
  Sn  Sn477  1  0.14579367  0.32302300  0.07711610  1.0
  Sn  Sn478  1  0.14579367  0.65635633  0.07711610  1.0
  Sn  Sn479  1  0.14579367  0.98968967  0.07711610  1.0
  Sn  Sn480  1  0.47912700  0.32302300  0.07711610  1.0
  Sn  Sn481  1  0.47912700  0.65635633  0.07711610  1.0
  Sn  Sn482  1  0.47912700  0.98968967  0.07711610  1.0
  Sn  Sn483  1  0.81246033  0.32302300  0.07711610  1.0
  Sn  Sn484  1  0.81246033  0.65635633  0.07711610  1.0
  Sn  Sn485  1  0.81246033  0.98968967  0.07711610  1.0
  Sn  Sn486  1  0.14729733  0.21177500  0.01036730  1.0
  Sn  Sn487  1  0.14729733  0.54510833  0.01036730  1.0
  Sn  Sn488  1  0.14729733  0.87844167  0.01036730  1.0
  Sn  Sn489  1  0.48063067  0.21177500  0.01036730  1.0
  Sn  Sn490  1  0.48063067  0.54510833  0.01036730  1.0
  Sn  Sn491  1  0.48063067  0.87844167  0.01036730  1.0
  Sn  Sn492  1  0.81396400  0.21177500  0.01036730  1.0
  Sn  Sn493  1  0.81396400  0.54510833  0.01036730  1.0
  Sn  Sn494  1  0.81396400  0.87844167  0.01036730  1.0
  Sn  Sn495  1  0.14618867  0.10073567  0.14374370  1.0
  Sn  Sn496  1  0.14618867  0.43406900  0.14374370  1.0
  Sn  Sn497  1  0.14618867  0.76740233  0.14374370  1.0
  Sn  Sn498  1  0.47952200  0.10073567  0.14374370  1.0
  Sn  Sn499  1  0.47952200  0.43406900  0.14374370  1.0
  Sn  Sn500  1  0.47952200  0.76740233  0.14374370  1.0
  Sn  Sn501  1  0.81285533  0.10073567  0.14374370  1.0
  Sn  Sn502  1  0.81285533  0.43406900  0.14374370  1.0
  Sn  Sn503  1  0.81285533  0.76740233  0.14374370  1.0
  Ni  Ni504  1  0.24746533  0.26389467  0.39111530  1.0
  Ni  Ni505  1  0.24746533  0.59722800  0.39111530  1.0
  Ni  Ni506  1  0.24746533  0.93056133  0.39111530  1.0
  Ni  Ni507  1  0.58079867  0.26389467  0.39111530  1.0
  Ni  Ni508  1  0.58079867  0.59722800  0.39111530  1.0
  Ni  Ni509  1  0.58079867  0.93056133  0.39111530  1.0
  Ni  Ni510  1  0.91413200  0.26389467  0.39111530  1.0
  Ni  Ni511  1  0.91413200  0.59722800  0.39111530  1.0
  Ni  Ni512  1  0.91413200  0.93056133  0.39111530  1.0
  Ni  Ni513  1  0.24625000  0.15288533  0.32405650  1.0
  Ni  Ni514  1  0.24625000  0.48621867  0.32405650  1.0
  Ni  Ni515  1  0.24625000  0.81955200  0.32405650  1.0
  Ni  Ni516  1  0.57958333  0.15288533  0.32405650  1.0
  Ni  Ni517  1  0.57958333  0.48621867  0.32405650  1.0
  Ni  Ni518  1  0.57958333  0.81955200  0.32405650  1.0
  Ni  Ni519  1  0.91291667  0.15288533  0.32405650  1.0
  Ni  Ni520  1  0.91291667  0.48621867  0.32405650  1.0
  Ni  Ni521  1  0.91291667  0.81955200  0.32405650  1.0
  Ni  Ni522  1  0.24657300  0.04170933  0.25741850  1.0
  Ni  Ni523  1  0.24657300  0.37504267  0.25741850  1.0
  Ni  Ni524  1  0.24657300  0.70837600  0.25741850  1.0
  Ni  Ni525  1  0.57990633  0.04170933  0.25741850  1.0
  Ni  Ni526  1  0.57990633  0.37504267  0.25741850  1.0
  Ni  Ni527  1  0.57990633  0.70837600  0.25741850  1.0
  Ni  Ni528  1  0.91323967  0.04170933  0.25741850  1.0
  Ni  Ni529  1  0.91323967  0.37504267  0.25741850  1.0
  Ni  Ni530  1  0.91323967  0.70837600  0.25741850  1.0
  Ni  Ni531  1  0.08085067  0.23602000  0.27522730  1.0
  Ni  Ni532  1  0.08085067  0.56935333  0.27522730  1.0
  Ni  Ni533  1  0.08085067  0.90268667  0.27522730  1.0
  Ni  Ni534  1  0.41418400  0.23602000  0.27522730  1.0
  Ni  Ni535  1  0.41418400  0.56935333  0.27522730  1.0
  Ni  Ni536  1  0.41418400  0.90268667  0.27522730  1.0
  Ni  Ni537  1  0.74751733  0.23602000  0.27522730  1.0
  Ni  Ni538  1  0.74751733  0.56935333  0.27522730  1.0
  Ni  Ni539  1  0.74751733  0.90268667  0.27522730  1.0
  Ni  Ni540  1  0.07785967  0.12491900  0.20867930  1.0
  Ni  Ni541  1  0.07785967  0.45825233  0.20867930  1.0
  Ni  Ni542  1  0.07785967  0.79158567  0.20867930  1.0
  Ni  Ni543  1  0.41119300  0.12491900  0.20867930  1.0
  Ni  Ni544  1  0.41119300  0.45825233  0.20867930  1.0
  Ni  Ni545  1  0.41119300  0.79158567  0.20867930  1.0
  Ni  Ni546  1  0.74452633  0.12491900  0.20867930  1.0
  Ni  Ni547  1  0.74452633  0.45825233  0.20867930  1.0
  Ni  Ni548  1  0.74452633  0.79158567  0.20867930  1.0
  Ni  Ni549  1  0.07767500  0.01362167  0.34198970  1.0
  Ni  Ni550  1  0.07767500  0.34695500  0.34198970  1.0
  Ni  Ni551  1  0.07767500  0.68028833  0.34198970  1.0
  Ni  Ni552  1  0.41100833  0.01362167  0.34198970  1.0
  Ni  Ni553  1  0.41100833  0.34695500  0.34198970  1.0
  Ni  Ni554  1  0.41100833  0.68028833  0.34198970  1.0
  Ni  Ni555  1  0.74434167  0.01362167  0.34198970  1.0
  Ni  Ni556  1  0.74434167  0.34695500  0.34198970  1.0
  Ni  Ni557  1  0.74434167  0.68028833  0.34198970  1.0
  Ni  Ni558  1  0.08701633  0.29113433  0.30713190  1.0
  Ni  Ni559  1  0.08701633  0.62446767  0.30713190  1.0
  Ni  Ni560  1  0.08701633  0.95780100  0.30713190  1.0
  Ni  Ni561  1  0.42034967  0.29113433  0.30713190  1.0
  Ni  Ni562  1  0.42034967  0.62446767  0.30713190  1.0
  Ni  Ni563  1  0.42034967  0.95780100  0.30713190  1.0
  Ni  Ni564  1  0.75368300  0.29113433  0.30713190  1.0
  Ni  Ni565  1  0.75368300  0.62446767  0.30713190  1.0
  Ni  Ni566  1  0.75368300  0.95780100  0.30713190  1.0
  Ni  Ni567  1  0.08694133  0.18125767  0.24093270  1.0
  Ni  Ni568  1  0.08694133  0.51459100  0.24093270  1.0
  Ni  Ni569  1  0.08694133  0.84792433  0.24093270  1.0
  Ni  Ni570  1  0.42027467  0.18125767  0.24093270  1.0
  Ni  Ni571  1  0.42027467  0.51459100  0.24093270  1.0
  Ni  Ni572  1  0.42027467  0.84792433  0.24093270  1.0
  Ni  Ni573  1  0.75360800  0.18125767  0.24093270  1.0
  Ni  Ni574  1  0.75360800  0.51459100  0.24093270  1.0
  Ni  Ni575  1  0.75360800  0.84792433  0.24093270  1.0
  Ni  Ni576  1  0.08824400  0.06952067  0.37366690  1.0
  Ni  Ni577  1  0.08824400  0.40285400  0.37366690  1.0
  Ni  Ni578  1  0.08824400  0.73618733  0.37366690  1.0
  Ni  Ni579  1  0.42157733  0.06952067  0.37366690  1.0
  Ni  Ni580  1  0.42157733  0.40285400  0.37366690  1.0
  Ni  Ni581  1  0.42157733  0.73618733  0.37366690  1.0
  Ni  Ni582  1  0.75491067  0.06952067  0.37366690  1.0
  Ni  Ni583  1  0.75491067  0.40285400  0.37366690  1.0
  Ni  Ni584  1  0.75491067  0.73618733  0.37366690  1.0
  Ni  Ni585  1  0.25278433  0.31946967  0.22538090  1.0
  Ni  Ni586  1  0.25278433  0.65280300  0.22538090  1.0
  Ni  Ni587  1  0.25278433  0.98613633  0.22538090  1.0
  Ni  Ni588  1  0.58611767  0.31946967  0.22538090  1.0
  Ni  Ni589  1  0.58611767  0.65280300  0.22538090  1.0
  Ni  Ni590  1  0.58611767  0.98613633  0.22538090  1.0
  Ni  Ni591  1  0.91945100  0.31946967  0.22538090  1.0
  Ni  Ni592  1  0.91945100  0.65280300  0.22538090  1.0
  Ni  Ni593  1  0.91945100  0.98613633  0.22538090  1.0
  Ni  Ni594  1  0.25312967  0.20828567  0.35888170  1.0
  Ni  Ni595  1  0.25312967  0.54161900  0.35888170  1.0
  Ni  Ni596  1  0.25312967  0.87495233  0.35888170  1.0
  Ni  Ni597  1  0.58646300  0.20828567  0.35888170  1.0
  Ni  Ni598  1  0.58646300  0.54161900  0.35888170  1.0
  Ni  Ni599  1  0.58646300  0.87495233  0.35888170  1.0
  Ni  Ni600  1  0.91979633  0.20828567  0.35888170  1.0
  Ni  Ni601  1  0.91979633  0.54161900  0.35888170  1.0
  Ni  Ni602  1  0.91979633  0.87495233  0.35888170  1.0
  Ni  Ni603  1  0.25319400  0.09725300  0.29216130  1.0
  Ni  Ni604  1  0.25319400  0.43058633  0.29216130  1.0
  Ni  Ni605  1  0.25319400  0.76391967  0.29216130  1.0
  Ni  Ni606  1  0.58652733  0.09725300  0.29216130  1.0
  Ni  Ni607  1  0.58652733  0.43058633  0.29216130  1.0
  Ni  Ni608  1  0.58652733  0.76391967  0.29216130  1.0
  Ni  Ni609  1  0.91986067  0.09725300  0.29216130  1.0
  Ni  Ni610  1  0.91986067  0.43058633  0.29216130  1.0
  Ni  Ni611  1  0.91986067  0.76391967  0.29216130  1.0
  Ni  Ni612  1  0.08701633  0.29113433  0.20883390  1.0
  Ni  Ni613  1  0.08701633  0.62446767  0.20883390  1.0
  Ni  Ni614  1  0.08701633  0.95780100  0.20883390  1.0
  Ni  Ni615  1  0.42034967  0.29113433  0.20883390  1.0
  Ni  Ni616  1  0.42034967  0.62446767  0.20883390  1.0
  Ni  Ni617  1  0.42034967  0.95780100  0.20883390  1.0
  Ni  Ni618  1  0.75368300  0.29113433  0.20883390  1.0
  Ni  Ni619  1  0.75368300  0.62446767  0.20883390  1.0
  Ni  Ni620  1  0.75368300  0.95780100  0.20883390  1.0
  Ni  Ni621  1  0.08694133  0.18125767  0.34318110  1.0
  Ni  Ni622  1  0.08694133  0.51459100  0.34318110  1.0
  Ni  Ni623  1  0.08694133  0.84792433  0.34318110  1.0
  Ni  Ni624  1  0.42027467  0.18125767  0.34318110  1.0
  Ni  Ni625  1  0.42027467  0.51459100  0.34318110  1.0
  Ni  Ni626  1  0.42027467  0.84792433  0.34318110  1.0
  Ni  Ni627  1  0.75360800  0.18125767  0.34318110  1.0
  Ni  Ni628  1  0.75360800  0.51459100  0.34318110  1.0
  Ni  Ni629  1  0.75360800  0.84792433  0.34318110  1.0
  Ni  Ni630  1  0.08824400  0.06952067  0.27636250  1.0
  Ni  Ni631  1  0.08824400  0.40285400  0.27636250  1.0
  Ni  Ni632  1  0.08824400  0.73618733  0.27636250  1.0
  Ni  Ni633  1  0.42157733  0.06952067  0.27636250  1.0
  Ni  Ni634  1  0.42157733  0.40285400  0.27636250  1.0
  Ni  Ni635  1  0.42157733  0.73618733  0.27636250  1.0
  Ni  Ni636  1  0.75491067  0.06952067  0.27636250  1.0
  Ni  Ni637  1  0.75491067  0.40285400  0.27636250  1.0
  Ni  Ni638  1  0.75491067  0.73618733  0.27636250  1.0
  Ni  Ni639  1  0.25278433  0.31946967  0.32458730  1.0
  Ni  Ni640  1  0.25278433  0.65280300  0.32458730  1.0
  Ni  Ni641  1  0.25278433  0.98613633  0.32458730  1.0
  Ni  Ni642  1  0.58611767  0.31946967  0.32458730  1.0
  Ni  Ni643  1  0.58611767  0.65280300  0.32458730  1.0
  Ni  Ni644  1  0.58611767  0.98613633  0.32458730  1.0
  Ni  Ni645  1  0.91945100  0.31946967  0.32458730  1.0
  Ni  Ni646  1  0.91945100  0.65280300  0.32458730  1.0
  Ni  Ni647  1  0.91945100  0.98613633  0.32458730  1.0
  Ni  Ni648  1  0.25312967  0.20828567  0.25766570  1.0
  Ni  Ni649  1  0.25312967  0.54161900  0.25766570  1.0
  Ni  Ni650  1  0.25312967  0.87495233  0.25766570  1.0
  Ni  Ni651  1  0.58646300  0.20828567  0.25766570  1.0
  Ni  Ni652  1  0.58646300  0.54161900  0.25766570  1.0
  Ni  Ni653  1  0.58646300  0.87495233  0.25766570  1.0
  Ni  Ni654  1  0.91979633  0.20828567  0.25766570  1.0
  Ni  Ni655  1  0.91979633  0.54161900  0.25766570  1.0
  Ni  Ni656  1  0.91979633  0.87495233  0.25766570  1.0
  Ni  Ni657  1  0.25319400  0.09725300  0.39114690  1.0
  Ni  Ni658  1  0.25319400  0.43058633  0.39114690  1.0
  Ni  Ni659  1  0.25319400  0.76391967  0.39114690  1.0
  Ni  Ni660  1  0.58652733  0.09725300  0.39114690  1.0
  Ni  Ni661  1  0.58652733  0.43058633  0.39114690  1.0
  Ni  Ni662  1  0.58652733  0.76391967  0.39114690  1.0
  Ni  Ni663  1  0.91986067  0.09725300  0.39114690  1.0
  Ni  Ni664  1  0.91986067  0.43058633  0.39114690  1.0
  Ni  Ni665  1  0.91986067  0.76391967  0.39114690  1.0
  Ni  Ni666  1  0.24746533  0.26389467  0.29216290  1.0
  Ni  Ni667  1  0.24746533  0.59722800  0.29216290  1.0
  Ni  Ni668  1  0.24746533  0.93056133  0.29216290  1.0
  Ni  Ni669  1  0.58079867  0.26389467  0.29216290  1.0
  Ni  Ni670  1  0.58079867  0.59722800  0.29216290  1.0
  Ni  Ni671  1  0.58079867  0.93056133  0.29216290  1.0
  Ni  Ni672  1  0.91413200  0.26389467  0.29216290  1.0
  Ni  Ni673  1  0.91413200  0.59722800  0.29216290  1.0
  Ni  Ni674  1  0.91413200  0.93056133  0.29216290  1.0
  Ni  Ni675  1  0.24625000  0.15288533  0.22601050  1.0
  Ni  Ni676  1  0.24625000  0.48621867  0.22601050  1.0
  Ni  Ni677  1  0.24625000  0.81955200  0.22601050  1.0
  Ni  Ni678  1  0.57958333  0.15288533  0.22601050  1.0
  Ni  Ni679  1  0.57958333  0.48621867  0.22601050  1.0
  Ni  Ni680  1  0.57958333  0.81955200  0.22601050  1.0
  Ni  Ni681  1  0.91291667  0.15288533  0.22601050  1.0
  Ni  Ni682  1  0.91291667  0.48621867  0.22601050  1.0
  Ni  Ni683  1  0.91291667  0.81955200  0.22601050  1.0
  Ni  Ni684  1  0.24657300  0.04170933  0.35923730  1.0
  Ni  Ni685  1  0.24657300  0.37504267  0.35923730  1.0
  Ni  Ni686  1  0.24657300  0.70837600  0.35923730  1.0
  Ni  Ni687  1  0.57990633  0.04170933  0.35923730  1.0
  Ni  Ni688  1  0.57990633  0.37504267  0.35923730  1.0
  Ni  Ni689  1  0.57990633  0.70837600  0.35923730  1.0
  Ni  Ni690  1  0.91323967  0.04170933  0.35923730  1.0
  Ni  Ni691  1  0.91323967  0.37504267  0.35923730  1.0
  Ni  Ni692  1  0.91323967  0.70837600  0.35923730  1.0
  Ni  Ni693  1  0.08085067  0.23602000  0.37460130  1.0
  Ni  Ni694  1  0.08085067  0.56935333  0.37460130  1.0
  Ni  Ni695  1  0.08085067  0.90268667  0.37460130  1.0
  Ni  Ni696  1  0.41418400  0.23602000  0.37460130  1.0
  Ni  Ni697  1  0.41418400  0.56935333  0.37460130  1.0
  Ni  Ni698  1  0.41418400  0.90268667  0.37460130  1.0
  Ni  Ni699  1  0.74751733  0.23602000  0.37460130  1.0
  Ni  Ni700  1  0.74751733  0.56935333  0.37460130  1.0
  Ni  Ni701  1  0.74751733  0.90268667  0.37460130  1.0
  Ni  Ni702  1  0.07785967  0.12491900  0.30782810  1.0
  Ni  Ni703  1  0.07785967  0.45825233  0.30782810  1.0
  Ni  Ni704  1  0.07785967  0.79158567  0.30782810  1.0
  Ni  Ni705  1  0.41119300  0.12491900  0.30782810  1.0
  Ni  Ni706  1  0.41119300  0.45825233  0.30782810  1.0
  Ni  Ni707  1  0.41119300  0.79158567  0.30782810  1.0
  Ni  Ni708  1  0.74452633  0.12491900  0.30782810  1.0
  Ni  Ni709  1  0.74452633  0.45825233  0.30782810  1.0
  Ni  Ni710  1  0.74452633  0.79158567  0.30782810  1.0
  Ni  Ni711  1  0.07767500  0.01362167  0.24096090  1.0
  Ni  Ni712  1  0.07767500  0.34695500  0.24096090  1.0
  Ni  Ni713  1  0.07767500  0.68028833  0.24096090  1.0
  Ni  Ni714  1  0.41100833  0.01362167  0.24096090  1.0
  Ni  Ni715  1  0.41100833  0.34695500  0.24096090  1.0
  Ni  Ni716  1  0.41100833  0.68028833  0.24096090  1.0
  Ni  Ni717  1  0.74434167  0.01362167  0.24096090  1.0
  Ni  Ni718  1  0.74434167  0.34695500  0.24096090  1.0
  Ni  Ni719  1  0.74434167  0.68028833  0.24096090  1.0
  Ni  Ni720  1  0.30154433  0.12565667  0.25869630  1.0
  Ni  Ni721  1  0.30154433  0.45899000  0.25869630  1.0
  Ni  Ni722  1  0.30154433  0.79232333  0.25869630  1.0
  Ni  Ni723  1  0.63487767  0.12565667  0.25869630  1.0
  Ni  Ni724  1  0.63487767  0.45899000  0.25869630  1.0
  Ni  Ni725  1  0.63487767  0.79232333  0.25869630  1.0
  Ni  Ni726  1  0.96821100  0.12565667  0.25869630  1.0
  Ni  Ni727  1  0.96821100  0.45899000  0.25869630  1.0
  Ni  Ni728  1  0.96821100  0.79232333  0.25869630  1.0
  Ni  Ni729  1  0.30144600  0.01433133  0.39190110  1.0
  Ni  Ni730  1  0.30144600  0.34766467  0.39190110  1.0
  Ni  Ni731  1  0.30144600  0.68099800  0.39190110  1.0
  Ni  Ni732  1  0.63477933  0.01433133  0.39190110  1.0
  Ni  Ni733  1  0.63477933  0.34766467  0.39190110  1.0
  Ni  Ni734  1  0.63477933  0.68099800  0.39190110  1.0
  Ni  Ni735  1  0.96811267  0.01433133  0.39190110  1.0
  Ni  Ni736  1  0.96811267  0.34766467  0.39190110  1.0
  Ni  Ni737  1  0.96811267  0.68099800  0.39190110  1.0
  Ni  Ni738  1  0.19627033  0.29208067  0.25855070  1.0
  Ni  Ni739  1  0.19627033  0.62541400  0.25855070  1.0
  Ni  Ni740  1  0.19627033  0.95874733  0.25855070  1.0
  Ni  Ni741  1  0.52960367  0.29208067  0.25855070  1.0
  Ni  Ni742  1  0.52960367  0.62541400  0.25855070  1.0
  Ni  Ni743  1  0.52960367  0.95874733  0.25855070  1.0
  Ni  Ni744  1  0.86293700  0.29208067  0.25855070  1.0
  Ni  Ni745  1  0.86293700  0.62541400  0.25855070  1.0
  Ni  Ni746  1  0.86293700  0.95874733  0.25855070  1.0
  Ni  Ni747  1  0.19576767  0.18020267  0.39142390  1.0
  Ni  Ni748  1  0.19576767  0.51353600  0.39142390  1.0
  Ni  Ni749  1  0.19576767  0.84686933  0.39142390  1.0
  Ni  Ni750  1  0.52910100  0.18020267  0.39142390  1.0
  Ni  Ni751  1  0.52910100  0.51353600  0.39142390  1.0
  Ni  Ni752  1  0.52910100  0.84686933  0.39142390  1.0
  Ni  Ni753  1  0.86243433  0.18020267  0.39142390  1.0
  Ni  Ni754  1  0.86243433  0.51353600  0.39142390  1.0
  Ni  Ni755  1  0.86243433  0.84686933  0.39142390  1.0
  Ni  Ni756  1  0.19680400  0.06955033  0.32503250  1.0
  Ni  Ni757  1  0.19680400  0.40288367  0.32503250  1.0
  Ni  Ni758  1  0.19680400  0.73621700  0.32503250  1.0
  Ni  Ni759  1  0.53013733  0.06955033  0.32503250  1.0
  Ni  Ni760  1  0.53013733  0.40288367  0.32503250  1.0
  Ni  Ni761  1  0.53013733  0.73621700  0.32503250  1.0
  Ni  Ni762  1  0.86347067  0.06955033  0.32503250  1.0
  Ni  Ni763  1  0.86347067  0.40288367  0.32503250  1.0
  Ni  Ni764  1  0.86347067  0.73621700  0.32503250  1.0
  Ni  Ni765  1  0.02894667  0.31905367  0.27473450  1.0
  Ni  Ni766  1  0.02894667  0.65238700  0.27473450  1.0
  Ni  Ni767  1  0.02894667  0.98572033  0.27473450  1.0
  Ni  Ni768  1  0.36228000  0.31905367  0.27473450  1.0
  Ni  Ni769  1  0.36228000  0.65238700  0.27473450  1.0
  Ni  Ni770  1  0.36228000  0.98572033  0.27473450  1.0
  Ni  Ni771  1  0.69561333  0.31905367  0.27473450  1.0
  Ni  Ni772  1  0.69561333  0.65238700  0.27473450  1.0
  Ni  Ni773  1  0.69561333  0.98572033  0.27473450  1.0
  Ni  Ni774  1  0.02886800  0.20857800  0.20844910  1.0
  Ni  Ni775  1  0.02886800  0.54191133  0.20844910  1.0
  Ni  Ni776  1  0.02886800  0.87524467  0.20844910  1.0
  Ni  Ni777  1  0.36220133  0.20857800  0.20844910  1.0
  Ni  Ni778  1  0.36220133  0.54191133  0.20844910  1.0
  Ni  Ni779  1  0.36220133  0.87524467  0.20844910  1.0
  Ni  Ni780  1  0.69553467  0.20857800  0.20844910  1.0
  Ni  Ni781  1  0.69553467  0.54191133  0.20844910  1.0
  Ni  Ni782  1  0.69553467  0.87524467  0.20844910  1.0
  Ni  Ni783  1  0.02893700  0.09708767  0.34155490  1.0
  Ni  Ni784  1  0.02893700  0.43042100  0.34155490  1.0
  Ni  Ni785  1  0.02893700  0.76375433  0.34155490  1.0
  Ni  Ni786  1  0.36227033  0.09708767  0.34155490  1.0
  Ni  Ni787  1  0.36227033  0.43042100  0.34155490  1.0
  Ni  Ni788  1  0.36227033  0.76375433  0.34155490  1.0
  Ni  Ni789  1  0.69560367  0.09708767  0.34155490  1.0
  Ni  Ni790  1  0.69560367  0.43042100  0.34155490  1.0
  Ni  Ni791  1  0.69560367  0.76375433  0.34155490  1.0
  Sn  Sn792  1  0.03050900  0.31695300  0.37347410  1.0
  Sn  Sn793  1  0.03050900  0.65028633  0.37347410  1.0
  Sn  Sn794  1  0.03050900  0.98361967  0.37347410  1.0
  Sn  Sn795  1  0.36384233  0.31695300  0.37347410  1.0
  Sn  Sn796  1  0.36384233  0.65028633  0.37347410  1.0
  Sn  Sn797  1  0.36384233  0.98361967  0.37347410  1.0
  Sn  Sn798  1  0.69717567  0.31695300  0.37347410  1.0
  Sn  Sn799  1  0.69717567  0.65028633  0.37347410  1.0
  Sn  Sn800  1  0.69717567  0.98361967  0.37347410  1.0
  Sn  Sn801  1  0.02768967  0.20820700  0.30822650  1.0
  Sn  Sn802  1  0.02768967  0.54154033  0.30822650  1.0
  Sn  Sn803  1  0.02768967  0.87487367  0.30822650  1.0
  Sn  Sn804  1  0.36102300  0.20820700  0.30822650  1.0
  Sn  Sn805  1  0.36102300  0.54154033  0.30822650  1.0
  Sn  Sn806  1  0.36102300  0.87487367  0.30822650  1.0
  Sn  Sn807  1  0.69435633  0.20820700  0.30822650  1.0
  Sn  Sn808  1  0.69435633  0.54154033  0.30822650  1.0
  Sn  Sn809  1  0.69435633  0.87487367  0.30822650  1.0
  Sn  Sn810  1  0.03067000  0.09513433  0.24038290  1.0
  Sn  Sn811  1  0.03067000  0.42846767  0.24038290  1.0
  Sn  Sn812  1  0.03067000  0.76180100  0.24038290  1.0
  Sn  Sn813  1  0.36400333  0.09513433  0.24038290  1.0
  Sn  Sn814  1  0.36400333  0.42846767  0.24038290  1.0
  Sn  Sn815  1  0.36400333  0.76180100  0.24038290  1.0
  Sn  Sn816  1  0.69733667  0.09513433  0.24038290  1.0
  Sn  Sn817  1  0.69733667  0.42846767  0.24038290  1.0
  Sn  Sn818  1  0.69733667  0.76180100  0.24038290  1.0
  Sn  Sn819  1  0.19496700  0.29200633  0.35850610  1.0
  Sn  Sn820  1  0.19496700  0.62533967  0.35850610  1.0
  Sn  Sn821  1  0.19496700  0.95867300  0.35850610  1.0
  Sn  Sn822  1  0.52830033  0.29200633  0.35850610  1.0
  Sn  Sn823  1  0.52830033  0.62533967  0.35850610  1.0
  Sn  Sn824  1  0.52830033  0.95867300  0.35850610  1.0
  Sn  Sn825  1  0.86163367  0.29200633  0.35850610  1.0
  Sn  Sn826  1  0.86163367  0.62533967  0.35850610  1.0
  Sn  Sn827  1  0.86163367  0.95867300  0.35850610  1.0
  Sn  Sn828  1  0.19523000  0.18125133  0.29205310  1.0
  Sn  Sn829  1  0.19523000  0.51458467  0.29205310  1.0
  Sn  Sn830  1  0.19523000  0.84791800  0.29205310  1.0
  Sn  Sn831  1  0.52856333  0.18125133  0.29205310  1.0
  Sn  Sn832  1  0.52856333  0.51458467  0.29205310  1.0
  Sn  Sn833  1  0.52856333  0.84791800  0.29205310  1.0
  Sn  Sn834  1  0.86189667  0.18125133  0.29205310  1.0
  Sn  Sn835  1  0.86189667  0.51458467  0.29205310  1.0
  Sn  Sn836  1  0.86189667  0.84791800  0.29205310  1.0
  Sn  Sn837  1  0.19612967  0.07004700  0.22533050  1.0
  Sn  Sn838  1  0.19612967  0.40338033  0.22533050  1.0
  Sn  Sn839  1  0.19612967  0.73671367  0.22533050  1.0
  Sn  Sn840  1  0.52946300  0.07004700  0.22533050  1.0
  Sn  Sn841  1  0.52946300  0.40338033  0.22533050  1.0
  Sn  Sn842  1  0.52946300  0.73671367  0.22533050  1.0
  Sn  Sn843  1  0.86279633  0.07004700  0.22533050  1.0
  Sn  Sn844  1  0.86279633  0.40338033  0.22533050  1.0
  Sn  Sn845  1  0.86279633  0.73671367  0.22533050  1.0
  Sn  Sn846  1  0.30058467  0.23785600  0.22601590  1.0
  Sn  Sn847  1  0.30058467  0.57118933  0.22601590  1.0
  Sn  Sn848  1  0.30058467  0.90452267  0.22601590  1.0
  Sn  Sn849  1  0.63391800  0.23785600  0.22601590  1.0
  Sn  Sn850  1  0.63391800  0.57118933  0.22601590  1.0
  Sn  Sn851  1  0.63391800  0.90452267  0.22601590  1.0
  Sn  Sn852  1  0.96725133  0.23785600  0.22601590  1.0
  Sn  Sn853  1  0.96725133  0.57118933  0.22601590  1.0
  Sn  Sn854  1  0.96725133  0.90452267  0.22601590  1.0
  Sn  Sn855  1  0.29947333  0.12681833  0.35939330  1.0
  Sn  Sn856  1  0.29947333  0.46015167  0.35939330  1.0
  Sn  Sn857  1  0.29947333  0.79348500  0.35939330  1.0
  Sn  Sn858  1  0.63280667  0.12681833  0.35939330  1.0
  Sn  Sn859  1  0.63280667  0.46015167  0.35939330  1.0
  Sn  Sn860  1  0.63280667  0.79348500  0.35939330  1.0
  Sn  Sn861  1  0.96614000  0.12681833  0.35939330  1.0
  Sn  Sn862  1  0.96614000  0.46015167  0.35939330  1.0
  Sn  Sn863  1  0.96614000  0.79348500  0.35939330  1.0
  Sn  Sn864  1  0.29950000  0.01548633  0.29259410  1.0
  Sn  Sn865  1  0.29950000  0.34881967  0.29259410  1.0
  Sn  Sn866  1  0.29950000  0.68215300  0.29259410  1.0
  Sn  Sn867  1  0.63283333  0.01548633  0.29259410  1.0
  Sn  Sn868  1  0.63283333  0.34881967  0.29259410  1.0
  Sn  Sn869  1  0.63283333  0.68215300  0.29259410  1.0
  Sn  Sn870  1  0.96616667  0.01548633  0.29259410  1.0
  Sn  Sn871  1  0.96616667  0.34881967  0.29259410  1.0
  Sn  Sn872  1  0.96616667  0.68215300  0.29259410  1.0
  Sn  Sn873  1  0.13537000  0.26213800  0.24058510  1.0
  Sn  Sn874  1  0.13537000  0.59547133  0.24058510  1.0
  Sn  Sn875  1  0.13537000  0.92880467  0.24058510  1.0
  Sn  Sn876  1  0.46870333  0.26213800  0.24058510  1.0
  Sn  Sn877  1  0.46870333  0.59547133  0.24058510  1.0
  Sn  Sn878  1  0.46870333  0.92880467  0.24058510  1.0
  Sn  Sn879  1  0.80203667  0.26213800  0.24058510  1.0
  Sn  Sn880  1  0.80203667  0.59547133  0.24058510  1.0
  Sn  Sn881  1  0.80203667  0.92880467  0.24058510  1.0
  Sn  Sn882  1  0.13296833  0.15110167  0.37396330  1.0
  Sn  Sn883  1  0.13296833  0.48443500  0.37396330  1.0
  Sn  Sn884  1  0.13296833  0.81776833  0.37396330  1.0
  Sn  Sn885  1  0.46630167  0.15110167  0.37396330  1.0
  Sn  Sn886  1  0.46630167  0.48443500  0.37396330  1.0
  Sn  Sn887  1  0.46630167  0.81776833  0.37396330  1.0
  Sn  Sn888  1  0.79963500  0.15110167  0.37396330  1.0
  Sn  Sn889  1  0.79963500  0.48443500  0.37396330  1.0
  Sn  Sn890  1  0.79963500  0.81776833  0.37396330  1.0
  Sn  Sn891  1  0.13390767  0.03986300  0.30722010  1.0
  Sn  Sn892  1  0.13390767  0.37319633  0.30722010  1.0
  Sn  Sn893  1  0.13390767  0.70652967  0.30722010  1.0
  Sn  Sn894  1  0.46724100  0.03986300  0.30722010  1.0
  Sn  Sn895  1  0.46724100  0.37319633  0.30722010  1.0
  Sn  Sn896  1  0.46724100  0.70652967  0.30722010  1.0
  Sn  Sn897  1  0.80057433  0.03986300  0.30722010  1.0
  Sn  Sn898  1  0.80057433  0.37319633  0.30722010  1.0
  Sn  Sn899  1  0.80057433  0.70652967  0.30722010  1.0
  Sn  Sn900  1  0.02835633  0.26375200  0.34155350  1.0
  Sn  Sn901  1  0.02835633  0.59708533  0.34155350  1.0
  Sn  Sn902  1  0.02835633  0.93041867  0.34155350  1.0
  Sn  Sn903  1  0.36168967  0.26375200  0.34155350  1.0
  Sn  Sn904  1  0.36168967  0.59708533  0.34155350  1.0
  Sn  Sn905  1  0.36168967  0.93041867  0.34155350  1.0
  Sn  Sn906  1  0.69502300  0.26375200  0.34155350  1.0
  Sn  Sn907  1  0.69502300  0.59708533  0.34155350  1.0
  Sn  Sn908  1  0.69502300  0.93041867  0.34155350  1.0
  Sn  Sn909  1  0.03230133  0.15495733  0.27627670  1.0
  Sn  Sn910  1  0.03230133  0.48829067  0.27627670  1.0
  Sn  Sn911  1  0.03230133  0.82162400  0.27627670  1.0
  Sn  Sn912  1  0.36563467  0.15495733  0.27627670  1.0
  Sn  Sn913  1  0.36563467  0.48829067  0.27627670  1.0
  Sn  Sn914  1  0.36563467  0.82162400  0.27627670  1.0
  Sn  Sn915  1  0.69896800  0.15495733  0.27627670  1.0
  Sn  Sn916  1  0.69896800  0.48829067  0.27627670  1.0
  Sn  Sn917  1  0.69896800  0.82162400  0.27627670  1.0
  Sn  Sn918  1  0.03253833  0.04348833  0.20939530  1.0
  Sn  Sn919  1  0.03253833  0.37682167  0.20939530  1.0
  Sn  Sn920  1  0.03253833  0.71015500  0.20939530  1.0
  Sn  Sn921  1  0.36587167  0.04348833  0.20939530  1.0
  Sn  Sn922  1  0.36587167  0.37682167  0.20939530  1.0
  Sn  Sn923  1  0.36587167  0.71015500  0.20939530  1.0
  Sn  Sn924  1  0.69920500  0.04348833  0.20939530  1.0
  Sn  Sn925  1  0.69920500  0.37682167  0.20939530  1.0
  Sn  Sn926  1  0.69920500  0.71015500  0.20939530  1.0
  Sn  Sn927  1  0.19456133  0.23582200  0.32479550  1.0
  Sn  Sn928  1  0.19456133  0.56915533  0.32479550  1.0
  Sn  Sn929  1  0.19456133  0.90248867  0.32479550  1.0
  Sn  Sn930  1  0.52789467  0.23582200  0.32479550  1.0
  Sn  Sn931  1  0.52789467  0.56915533  0.32479550  1.0
  Sn  Sn932  1  0.52789467  0.90248867  0.32479550  1.0
  Sn  Sn933  1  0.86122800  0.23582200  0.32479550  1.0
  Sn  Sn934  1  0.86122800  0.56915533  0.32479550  1.0
  Sn  Sn935  1  0.86122800  0.90248867  0.32479550  1.0
  Sn  Sn936  1  0.18414300  0.12472400  0.25813670  1.0
  Sn  Sn937  1  0.18414300  0.45805733  0.25813670  1.0
  Sn  Sn938  1  0.18414300  0.79139067  0.25813670  1.0
  Sn  Sn939  1  0.51747633  0.12472400  0.25813670  1.0
  Sn  Sn940  1  0.51747633  0.45805733  0.25813670  1.0
  Sn  Sn941  1  0.51747633  0.79139067  0.25813670  1.0
  Sn  Sn942  1  0.85080967  0.12472400  0.25813670  1.0
  Sn  Sn943  1  0.85080967  0.45805733  0.25813670  1.0
  Sn  Sn944  1  0.85080967  0.79139067  0.25813670  1.0
  Sn  Sn945  1  0.18390033  0.01368667  0.39151430  1.0
  Sn  Sn946  1  0.18390033  0.34702000  0.39151430  1.0
  Sn  Sn947  1  0.18390033  0.68035333  0.39151430  1.0
  Sn  Sn948  1  0.51723367  0.01368667  0.39151430  1.0
  Sn  Sn949  1  0.51723367  0.34702000  0.39151430  1.0
  Sn  Sn950  1  0.51723367  0.68035333  0.39151430  1.0
  Sn  Sn951  1  0.85056700  0.01368667  0.39151430  1.0
  Sn  Sn952  1  0.85056700  0.34702000  0.39151430  1.0
  Sn  Sn953  1  0.85056700  0.68035333  0.39151430  1.0
  Sn  Sn954  1  0.31362933  0.28781400  0.25599070  1.0
  Sn  Sn955  1  0.31362933  0.62114733  0.25599070  1.0
  Sn  Sn956  1  0.31362933  0.95448067  0.25599070  1.0
  Sn  Sn957  1  0.64696267  0.28781400  0.25599070  1.0
  Sn  Sn958  1  0.64696267  0.62114733  0.25599070  1.0
  Sn  Sn959  1  0.64696267  0.95448067  0.25599070  1.0
  Sn  Sn960  1  0.98029600  0.28781400  0.25599070  1.0
  Sn  Sn961  1  0.98029600  0.62114733  0.25599070  1.0
  Sn  Sn962  1  0.98029600  0.95448067  0.25599070  1.0
  Sn  Sn963  1  0.31352967  0.17721733  0.38963270  1.0
  Sn  Sn964  1  0.31352967  0.51055067  0.38963270  1.0
  Sn  Sn965  1  0.31352967  0.84388400  0.38963270  1.0
  Sn  Sn966  1  0.64686300  0.17721733  0.38963270  1.0
  Sn  Sn967  1  0.64686300  0.51055067  0.38963270  1.0
  Sn  Sn968  1  0.64686300  0.84388400  0.38963270  1.0
  Sn  Sn969  1  0.98019633  0.17721733  0.38963270  1.0
  Sn  Sn970  1  0.98019633  0.51055067  0.38963270  1.0
  Sn  Sn971  1  0.98019633  0.84388400  0.38963270  1.0
  Sn  Sn972  1  0.31421067  0.06566000  0.32269830  1.0
  Sn  Sn973  1  0.31421067  0.39899333  0.32269830  1.0
  Sn  Sn974  1  0.31421067  0.73232667  0.32269830  1.0
  Sn  Sn975  1  0.64754400  0.06566000  0.32269830  1.0
  Sn  Sn976  1  0.64754400  0.39899333  0.32269830  1.0
  Sn  Sn977  1  0.64754400  0.73232667  0.32269830  1.0
  Sn  Sn978  1  0.98087733  0.06566000  0.32269830  1.0
  Sn  Sn979  1  0.98087733  0.39899333  0.32269830  1.0
  Sn  Sn980  1  0.98087733  0.73232667  0.32269830  1.0
  Sn  Sn981  1  0.14579367  0.32302300  0.27711610  1.0
  Sn  Sn982  1  0.14579367  0.65635633  0.27711610  1.0
  Sn  Sn983  1  0.14579367  0.98968967  0.27711610  1.0
  Sn  Sn984  1  0.47912700  0.32302300  0.27711610  1.0
  Sn  Sn985  1  0.47912700  0.65635633  0.27711610  1.0
  Sn  Sn986  1  0.47912700  0.98968967  0.27711610  1.0
  Sn  Sn987  1  0.81246033  0.32302300  0.27711610  1.0
  Sn  Sn988  1  0.81246033  0.65635633  0.27711610  1.0
  Sn  Sn989  1  0.81246033  0.98968967  0.27711610  1.0
  Sn  Sn990  1  0.14729733  0.21177500  0.21036730  1.0
  Sn  Sn991  1  0.14729733  0.54510833  0.21036730  1.0
  Sn  Sn992  1  0.14729733  0.87844167  0.21036730  1.0
  Sn  Sn993  1  0.48063067  0.21177500  0.21036730  1.0
  Sn  Sn994  1  0.48063067  0.54510833  0.21036730  1.0
  Sn  Sn995  1  0.48063067  0.87844167  0.21036730  1.0
  Sn  Sn996  1  0.81396400  0.21177500  0.21036730  1.0
  Sn  Sn997  1  0.81396400  0.54510833  0.21036730  1.0
  Sn  Sn998  1  0.81396400  0.87844167  0.21036730  1.0
  Sn  Sn999  1  0.14618867  0.10073567  0.34374370  1.0
  Sn  Sn1000  1  0.14618867  0.43406900  0.34374370  1.0
  Sn  Sn1001  1  0.14618867  0.76740233  0.34374370  1.0
  Sn  Sn1002  1  0.47952200  0.10073567  0.34374370  1.0
  Sn  Sn1003  1  0.47952200  0.43406900  0.34374370  1.0
  Sn  Sn1004  1  0.47952200  0.76740233  0.34374370  1.0
  Sn  Sn1005  1  0.81285533  0.10073567  0.34374370  1.0
  Sn  Sn1006  1  0.81285533  0.43406900  0.34374370  1.0
  Sn  Sn1007  1  0.81285533  0.76740233  0.34374370  1.0
