# generated using pymatgen
data_Ni4Sn3
_symmetry_space_group_name_H-M   'P 1'
_cell_length_a   73.73459394
_cell_length_b   37.78855465
_cell_length_c   35.33049000
_cell_angle_alpha   124.12299510
_cell_angle_beta   90.09939617
_cell_angle_gamma   89.94424162
_symmetry_Int_Tables_number   1
_chemical_formula_structural   Ni4Sn3
_chemical_formula_sum   'Ni1152 Sn864'
_cell_volume   81493.78743907
_cell_formula_units_Z   288
loop_
 _symmetry_equiv_pos_site_id
 _symmetry_equiv_pos_as_xyz
  1  'x, y, z'
loop_
 _atom_site_type_symbol
 _atom_site_label
 _atom_site_symmetry_multiplicity
 _atom_site_fract_x
 _atom_site_fract_y
 _atom_site_fract_z
 _atom_site_occupancy
  Ni  Ni0  1  0.26389467  0.04123017  0.15967880  1.0
  Ni  Ni1  1  0.26389467  0.37456350  0.15967880  1.0
  Ni  Ni2  1  0.26389467  0.70789683  0.15967880  1.0
  Ni  Ni3  1  0.59722800  0.04123017  0.15967880  1.0
  Ni  Ni4  1  0.59722800  0.37456350  0.15967880  1.0
  Ni  Ni5  1  0.59722800  0.70789683  0.15967880  1.0
  Ni  Ni6  1  0.93056133  0.04123017  0.15967880  1.0
  Ni  Ni7  1  0.93056133  0.37456350  0.15967880  1.0
  Ni  Ni8  1  0.93056133  0.70789683  0.15967880  1.0
  Ni  Ni9  1  0.26389467  0.20789683  0.05967880  1.0
  Ni  Ni10  1  0.26389467  0.54123017  0.05967880  1.0
  Ni  Ni11  1  0.26389467  0.87456350  0.05967880  1.0
  Ni  Ni12  1  0.59722800  0.20789683  0.05967880  1.0
  Ni  Ni13  1  0.59722800  0.54123017  0.05967880  1.0
  Ni  Ni14  1  0.59722800  0.87456350  0.05967880  1.0
  Ni  Ni15  1  0.93056133  0.20789683  0.05967880  1.0
  Ni  Ni16  1  0.93056133  0.54123017  0.05967880  1.0
  Ni  Ni17  1  0.93056133  0.87456350  0.05967880  1.0
  Ni  Ni18  1  0.15288533  0.04085250  0.15872300  1.0
  Ni  Ni19  1  0.15288533  0.37418583  0.15872300  1.0
  Ni  Ni20  1  0.15288533  0.70751917  0.15872300  1.0
  Ni  Ni21  1  0.48621867  0.04085250  0.15872300  1.0
  Ni  Ni22  1  0.48621867  0.37418583  0.15872300  1.0
  Ni  Ni23  1  0.48621867  0.70751917  0.15872300  1.0
  Ni  Ni24  1  0.81955200  0.04085250  0.15872300  1.0
  Ni  Ni25  1  0.81955200  0.37418583  0.15872300  1.0
  Ni  Ni26  1  0.81955200  0.70751917  0.15872300  1.0
  Ni  Ni27  1  0.15288533  0.20751917  0.05872300  1.0
  Ni  Ni28  1  0.15288533  0.54085250  0.05872300  1.0
  Ni  Ni29  1  0.15288533  0.87418583  0.05872300  1.0
  Ni  Ni30  1  0.48621867  0.20751917  0.05872300  1.0
  Ni  Ni31  1  0.48621867  0.54085250  0.05872300  1.0
  Ni  Ni32  1  0.48621867  0.87418583  0.05872300  1.0
  Ni  Ni33  1  0.81955200  0.20751917  0.05872300  1.0
  Ni  Ni34  1  0.81955200  0.54085250  0.05872300  1.0
  Ni  Ni35  1  0.81955200  0.87418583  0.05872300  1.0
  Ni  Ni36  1  0.04170933  0.04090883  0.15895060  1.0
  Ni  Ni37  1  0.04170933  0.37424217  0.15895060  1.0
  Ni  Ni38  1  0.04170933  0.70757550  0.15895060  1.0
  Ni  Ni39  1  0.37504267  0.04090883  0.15895060  1.0
  Ni  Ni40  1  0.37504267  0.37424217  0.15895060  1.0
  Ni  Ni41  1  0.37504267  0.70757550  0.15895060  1.0
  Ni  Ni42  1  0.70837600  0.04090883  0.15895060  1.0
  Ni  Ni43  1  0.70837600  0.37424217  0.15895060  1.0
  Ni  Ni44  1  0.70837600  0.70757550  0.15895060  1.0
  Ni  Ni45  1  0.04170933  0.20757550  0.05895060  1.0
  Ni  Ni46  1  0.04170933  0.54090883  0.05895060  1.0
  Ni  Ni47  1  0.04170933  0.87424217  0.05895060  1.0
  Ni  Ni48  1  0.37504267  0.20757550  0.05895060  1.0
  Ni  Ni49  1  0.37504267  0.54090883  0.05895060  1.0
  Ni  Ni50  1  0.37504267  0.87424217  0.05895060  1.0
  Ni  Ni51  1  0.70837600  0.20757550  0.05895060  1.0
  Ni  Ni52  1  0.70837600  0.54090883  0.05895060  1.0
  Ni  Ni53  1  0.70837600  0.87424217  0.05895060  1.0
  Ni  Ni54  1  0.23602000  0.12526083  0.11012840  1.0
  Ni  Ni55  1  0.23602000  0.45859417  0.11012840  1.0
  Ni  Ni56  1  0.23602000  0.79192750  0.11012840  1.0
  Ni  Ni57  1  0.56935333  0.12526083  0.11012840  1.0
  Ni  Ni58  1  0.56935333  0.45859417  0.11012840  1.0
  Ni  Ni59  1  0.56935333  0.79192750  0.11012840  1.0
  Ni  Ni60  1  0.90268667  0.12526083  0.11012840  1.0
  Ni  Ni61  1  0.90268667  0.45859417  0.11012840  1.0
  Ni  Ni62  1  0.90268667  0.79192750  0.11012840  1.0
  Ni  Ni63  1  0.23602000  0.29192750  0.01012840  1.0
  Ni  Ni64  1  0.23602000  0.62526083  0.01012840  1.0
  Ni  Ni65  1  0.23602000  0.95859417  0.01012840  1.0
  Ni  Ni66  1  0.56935333  0.29192750  0.01012840  1.0
  Ni  Ni67  1  0.56935333  0.62526083  0.01012840  1.0
  Ni  Ni68  1  0.56935333  0.95859417  0.01012840  1.0
  Ni  Ni69  1  0.90268667  0.29192750  0.01012840  1.0
  Ni  Ni70  1  0.90268667  0.62526083  0.01012840  1.0
  Ni  Ni71  1  0.90268667  0.95859417  0.01012840  1.0
  Ni  Ni72  1  0.12491900  0.12535467  0.10839010  1.0
  Ni  Ni73  1  0.12491900  0.45868800  0.10839010  1.0
  Ni  Ni74  1  0.12491900  0.79202133  0.10839010  1.0
  Ni  Ni75  1  0.45825233  0.12535467  0.10839010  1.0
  Ni  Ni76  1  0.45825233  0.45868800  0.10839010  1.0
  Ni  Ni77  1  0.45825233  0.79202133  0.10839010  1.0
  Ni  Ni78  1  0.79158567  0.12535467  0.10839010  1.0
  Ni  Ni79  1  0.79158567  0.45868800  0.10839010  1.0
  Ni  Ni80  1  0.79158567  0.79202133  0.10839010  1.0
  Ni  Ni81  1  0.12491900  0.29202133  0.00839010  1.0
  Ni  Ni82  1  0.12491900  0.62535467  0.00839010  1.0
  Ni  Ni83  1  0.12491900  0.95868800  0.00839010  1.0
  Ni  Ni84  1  0.45825233  0.29202133  0.00839010  1.0
  Ni  Ni85  1  0.45825233  0.62535467  0.00839010  1.0
  Ni  Ni86  1  0.45825233  0.95868800  0.00839010  1.0
  Ni  Ni87  1  0.79158567  0.29202133  0.00839010  1.0
  Ni  Ni88  1  0.79158567  0.62535467  0.00839010  1.0
  Ni  Ni89  1  0.79158567  0.95868800  0.00839010  1.0
  Ni  Ni90  1  0.01362167  0.12542867  0.10832370  1.0
  Ni  Ni91  1  0.01362167  0.45876200  0.10832370  1.0
  Ni  Ni92  1  0.01362167  0.79209533  0.10832370  1.0
  Ni  Ni93  1  0.34695500  0.12542867  0.10832370  1.0
  Ni  Ni94  1  0.34695500  0.45876200  0.10832370  1.0
  Ni  Ni95  1  0.34695500  0.79209533  0.10832370  1.0
  Ni  Ni96  1  0.68028833  0.12542867  0.10832370  1.0
  Ni  Ni97  1  0.68028833  0.45876200  0.10832370  1.0
  Ni  Ni98  1  0.68028833  0.79209533  0.10832370  1.0
  Ni  Ni99  1  0.01362167  0.29209533  0.00832370  1.0
  Ni  Ni100  1  0.01362167  0.62542867  0.00832370  1.0
  Ni  Ni101  1  0.01362167  0.95876200  0.00832370  1.0
  Ni  Ni102  1  0.34695500  0.29209533  0.00832370  1.0
  Ni  Ni103  1  0.34695500  0.62542867  0.00832370  1.0
  Ni  Ni104  1  0.34695500  0.95876200  0.00832370  1.0
  Ni  Ni105  1  0.68028833  0.29209533  0.00832370  1.0
  Ni  Ni106  1  0.68028833  0.62542867  0.00832370  1.0
  Ni  Ni107  1  0.68028833  0.95876200  0.00832370  1.0
  Ni  Ni108  1  0.29113433  0.12429083  0.11324580  1.0
  Ni  Ni109  1  0.29113433  0.45762417  0.11324580  1.0
  Ni  Ni110  1  0.29113433  0.79095750  0.11324580  1.0
  Ni  Ni111  1  0.62446767  0.12429083  0.11324580  1.0
  Ni  Ni112  1  0.62446767  0.45762417  0.11324580  1.0
  Ni  Ni113  1  0.62446767  0.79095750  0.11324580  1.0
  Ni  Ni114  1  0.95780100  0.12429083  0.11324580  1.0
  Ni  Ni115  1  0.95780100  0.45762417  0.11324580  1.0
  Ni  Ni116  1  0.95780100  0.79095750  0.11324580  1.0
  Ni  Ni117  1  0.29113433  0.29095750  0.01324580  1.0
  Ni  Ni118  1  0.29113433  0.62429083  0.01324580  1.0
  Ni  Ni119  1  0.29113433  0.95762417  0.01324580  1.0
  Ni  Ni120  1  0.62446767  0.29095750  0.01324580  1.0
  Ni  Ni121  1  0.62446767  0.62429083  0.01324580  1.0
  Ni  Ni122  1  0.62446767  0.95762417  0.01324580  1.0
  Ni  Ni123  1  0.95780100  0.29095750  0.01324580  1.0
  Ni  Ni124  1  0.95780100  0.62429083  0.01324580  1.0
  Ni  Ni125  1  0.95780100  0.95762417  0.01324580  1.0
  Ni  Ni126  1  0.18125767  0.12406317  0.11306420  1.0
  Ni  Ni127  1  0.18125767  0.45739650  0.11306420  1.0
  Ni  Ni128  1  0.18125767  0.79072983  0.11306420  1.0
  Ni  Ni129  1  0.51459100  0.12406317  0.11306420  1.0
  Ni  Ni130  1  0.51459100  0.45739650  0.11306420  1.0
  Ni  Ni131  1  0.51459100  0.79072983  0.11306420  1.0
  Ni  Ni132  1  0.84792433  0.12406317  0.11306420  1.0
  Ni  Ni133  1  0.84792433  0.45739650  0.11306420  1.0
  Ni  Ni134  1  0.84792433  0.79072983  0.11306420  1.0
  Ni  Ni135  1  0.18125767  0.29072983  0.01306420  1.0
  Ni  Ni136  1  0.18125767  0.62406317  0.01306420  1.0
  Ni  Ni137  1  0.18125767  0.95739650  0.01306420  1.0
  Ni  Ni138  1  0.51459100  0.29072983  0.01306420  1.0
  Ni  Ni139  1  0.51459100  0.62406317  0.01306420  1.0
  Ni  Ni140  1  0.51459100  0.95739650  0.01306420  1.0
  Ni  Ni141  1  0.84792433  0.29072983  0.01306420  1.0
  Ni  Ni142  1  0.84792433  0.62406317  0.01306420  1.0
  Ni  Ni143  1  0.84792433  0.95739650  0.01306420  1.0
  Ni  Ni144  1  0.06952067  0.12387683  0.11373400  1.0
  Ni  Ni145  1  0.06952067  0.45721017  0.11373400  1.0
  Ni  Ni146  1  0.06952067  0.79054350  0.11373400  1.0
  Ni  Ni147  1  0.40285400  0.12387683  0.11373400  1.0
  Ni  Ni148  1  0.40285400  0.45721017  0.11373400  1.0
  Ni  Ni149  1  0.40285400  0.79054350  0.11373400  1.0
  Ni  Ni150  1  0.73618733  0.12387683  0.11373400  1.0
  Ni  Ni151  1  0.73618733  0.45721017  0.11373400  1.0
  Ni  Ni152  1  0.73618733  0.79054350  0.11373400  1.0
  Ni  Ni153  1  0.06952067  0.29054350  0.01373400  1.0
  Ni  Ni154  1  0.06952067  0.62387683  0.01373400  1.0
  Ni  Ni155  1  0.06952067  0.95721017  0.01373400  1.0
  Ni  Ni156  1  0.40285400  0.29054350  0.01373400  1.0
  Ni  Ni157  1  0.40285400  0.62387683  0.01373400  1.0
  Ni  Ni158  1  0.40285400  0.95721017  0.01373400  1.0
  Ni  Ni159  1  0.73618733  0.29054350  0.01373400  1.0
  Ni  Ni160  1  0.73618733  0.62387683  0.01373400  1.0
  Ni  Ni161  1  0.73618733  0.95721017  0.01373400  1.0
  Ni  Ni162  1  0.31946967  0.04199733  0.16333050  1.0
  Ni  Ni163  1  0.31946967  0.37533067  0.16333050  1.0
  Ni  Ni164  1  0.31946967  0.70866400  0.16333050  1.0
  Ni  Ni165  1  0.65280300  0.04199733  0.16333050  1.0
  Ni  Ni166  1  0.65280300  0.37533067  0.16333050  1.0
  Ni  Ni167  1  0.65280300  0.70866400  0.16333050  1.0
  Ni  Ni168  1  0.98613633  0.04199733  0.16333050  1.0
  Ni  Ni169  1  0.98613633  0.37533067  0.16333050  1.0
  Ni  Ni170  1  0.98613633  0.70866400  0.16333050  1.0
  Ni  Ni171  1  0.31946967  0.20866400  0.06333050  1.0
  Ni  Ni172  1  0.31946967  0.54199733  0.06333050  1.0
  Ni  Ni173  1  0.31946967  0.87533067  0.06333050  1.0
  Ni  Ni174  1  0.65280300  0.20866400  0.06333050  1.0
  Ni  Ni175  1  0.65280300  0.54199733  0.06333050  1.0
  Ni  Ni176  1  0.65280300  0.87533067  0.06333050  1.0
  Ni  Ni177  1  0.98613633  0.20866400  0.06333050  1.0
  Ni  Ni178  1  0.98613633  0.54199733  0.06333050  1.0
  Ni  Ni179  1  0.98613633  0.87533067  0.06333050  1.0
  Ni  Ni180  1  0.20828567  0.04217333  0.16364330  1.0
  Ni  Ni181  1  0.20828567  0.37550667  0.16364330  1.0
  Ni  Ni182  1  0.20828567  0.70884000  0.16364330  1.0
  Ni  Ni183  1  0.54161900  0.04217333  0.16364330  1.0
  Ni  Ni184  1  0.54161900  0.37550667  0.16364330  1.0
  Ni  Ni185  1  0.54161900  0.70884000  0.16364330  1.0
  Ni  Ni186  1  0.87495233  0.04217333  0.16364330  1.0
  Ni  Ni187  1  0.87495233  0.37550667  0.16364330  1.0
  Ni  Ni188  1  0.87495233  0.70884000  0.16364330  1.0
  Ni  Ni189  1  0.20828567  0.20884000  0.06364330  1.0
  Ni  Ni190  1  0.20828567  0.54217333  0.06364330  1.0
  Ni  Ni191  1  0.20828567  0.87550667  0.06364330  1.0
  Ni  Ni192  1  0.54161900  0.20884000  0.06364330  1.0
  Ni  Ni193  1  0.54161900  0.54217333  0.06364330  1.0
  Ni  Ni194  1  0.54161900  0.87550667  0.06364330  1.0
  Ni  Ni195  1  0.87495233  0.20884000  0.06364330  1.0
  Ni  Ni196  1  0.87495233  0.54217333  0.06364330  1.0
  Ni  Ni197  1  0.87495233  0.87550667  0.06364330  1.0
  Ni  Ni198  1  0.09725300  0.04208933  0.16363150  1.0
  Ni  Ni199  1  0.09725300  0.37542267  0.16363150  1.0
  Ni  Ni200  1  0.09725300  0.70875600  0.16363150  1.0
  Ni  Ni201  1  0.43058633  0.04208933  0.16363150  1.0
  Ni  Ni202  1  0.43058633  0.37542267  0.16363150  1.0
  Ni  Ni203  1  0.43058633  0.70875600  0.16363150  1.0
  Ni  Ni204  1  0.76391967  0.04208933  0.16363150  1.0
  Ni  Ni205  1  0.76391967  0.37542267  0.16363150  1.0
  Ni  Ni206  1  0.76391967  0.70875600  0.16363150  1.0
  Ni  Ni207  1  0.09725300  0.20875600  0.06363150  1.0
  Ni  Ni208  1  0.09725300  0.54208933  0.06363150  1.0
  Ni  Ni209  1  0.09725300  0.87542267  0.06363150  1.0
  Ni  Ni210  1  0.43058633  0.20875600  0.06363150  1.0
  Ni  Ni211  1  0.43058633  0.54208933  0.06363150  1.0
  Ni  Ni212  1  0.43058633  0.87542267  0.06363150  1.0
  Ni  Ni213  1  0.76391967  0.20875600  0.06363150  1.0
  Ni  Ni214  1  0.76391967  0.54208933  0.06363150  1.0
  Ni  Ni215  1  0.76391967  0.87542267  0.06363150  1.0
  Ni  Ni216  1  0.29113433  0.04237583  0.06409680  1.0
  Ni  Ni217  1  0.29113433  0.37570917  0.06409680  1.0
  Ni  Ni218  1  0.29113433  0.70904250  0.06409680  1.0
  Ni  Ni219  1  0.62446767  0.04237583  0.06409680  1.0
  Ni  Ni220  1  0.62446767  0.37570917  0.06409680  1.0
  Ni  Ni221  1  0.62446767  0.70904250  0.06409680  1.0
  Ni  Ni222  1  0.95780100  0.04237583  0.06409680  1.0
  Ni  Ni223  1  0.95780100  0.37570917  0.06409680  1.0
  Ni  Ni224  1  0.95780100  0.70904250  0.06409680  1.0
  Ni  Ni225  1  0.29113433  0.20904250  0.16409680  1.0
  Ni  Ni226  1  0.29113433  0.54237583  0.16409680  1.0
  Ni  Ni227  1  0.29113433  0.87570917  0.16409680  1.0
  Ni  Ni228  1  0.62446767  0.20904250  0.16409680  1.0
  Ni  Ni229  1  0.62446767  0.54237583  0.16409680  1.0
  Ni  Ni230  1  0.62446767  0.87570917  0.16409680  1.0
  Ni  Ni231  1  0.95780100  0.20904250  0.16409680  1.0
  Ni  Ni232  1  0.95780100  0.54237583  0.16409680  1.0
  Ni  Ni233  1  0.95780100  0.87570917  0.16409680  1.0
  Ni  Ni234  1  0.18125767  0.04260350  0.06418840  1.0
  Ni  Ni235  1  0.18125767  0.37593683  0.06418840  1.0
  Ni  Ni236  1  0.18125767  0.70927017  0.06418840  1.0
  Ni  Ni237  1  0.51459100  0.04260350  0.06418840  1.0
  Ni  Ni238  1  0.51459100  0.37593683  0.06418840  1.0
  Ni  Ni239  1  0.51459100  0.70927017  0.06418840  1.0
  Ni  Ni240  1  0.84792433  0.04260350  0.06418840  1.0
  Ni  Ni241  1  0.84792433  0.37593683  0.06418840  1.0
  Ni  Ni242  1  0.84792433  0.70927017  0.06418840  1.0
  Ni  Ni243  1  0.18125767  0.20927017  0.16418840  1.0
  Ni  Ni244  1  0.18125767  0.54260350  0.16418840  1.0
  Ni  Ni245  1  0.18125767  0.87593683  0.16418840  1.0
  Ni  Ni246  1  0.51459100  0.20927017  0.16418840  1.0
  Ni  Ni247  1  0.51459100  0.54260350  0.16418840  1.0
  Ni  Ni248  1  0.51459100  0.87593683  0.16418840  1.0
  Ni  Ni249  1  0.84792433  0.20927017  0.16418840  1.0
  Ni  Ni250  1  0.84792433  0.54260350  0.16418840  1.0
  Ni  Ni251  1  0.84792433  0.87593683  0.16418840  1.0
  Ni  Ni252  1  0.06952067  0.04278983  0.06508180  1.0
  Ni  Ni253  1  0.06952067  0.37612317  0.06508180  1.0
  Ni  Ni254  1  0.06952067  0.70945650  0.06508180  1.0
  Ni  Ni255  1  0.40285400  0.04278983  0.06508180  1.0
  Ni  Ni256  1  0.40285400  0.37612317  0.06508180  1.0
  Ni  Ni257  1  0.40285400  0.70945650  0.06508180  1.0
  Ni  Ni258  1  0.73618733  0.04278983  0.06508180  1.0
  Ni  Ni259  1  0.73618733  0.37612317  0.06508180  1.0
  Ni  Ni260  1  0.73618733  0.70945650  0.06508180  1.0
  Ni  Ni261  1  0.06952067  0.20945650  0.16508180  1.0
  Ni  Ni262  1  0.06952067  0.54278983  0.16508180  1.0
  Ni  Ni263  1  0.06952067  0.87612317  0.16508180  1.0
  Ni  Ni264  1  0.40285400  0.20945650  0.16508180  1.0
  Ni  Ni265  1  0.40285400  0.54278983  0.16508180  1.0
  Ni  Ni266  1  0.40285400  0.87612317  0.16508180  1.0
  Ni  Ni267  1  0.73618733  0.20945650  0.16508180  1.0
  Ni  Ni268  1  0.73618733  0.54278983  0.16508180  1.0
  Ni  Ni269  1  0.73618733  0.87612317  0.16508180  1.0
  Ni  Ni270  1  0.31946967  0.12466933  0.01293370  1.0
  Ni  Ni271  1  0.31946967  0.45800267  0.01293370  1.0
  Ni  Ni272  1  0.31946967  0.79133600  0.01293370  1.0
  Ni  Ni273  1  0.65280300  0.12466933  0.01293370  1.0
  Ni  Ni274  1  0.65280300  0.45800267  0.01293370  1.0
  Ni  Ni275  1  0.65280300  0.79133600  0.01293370  1.0
  Ni  Ni276  1  0.98613633  0.12466933  0.01293370  1.0
  Ni  Ni277  1  0.98613633  0.45800267  0.01293370  1.0
  Ni  Ni278  1  0.98613633  0.79133600  0.01293370  1.0
  Ni  Ni279  1  0.31946967  0.29133600  0.11293370  1.0
  Ni  Ni280  1  0.31946967  0.62466933  0.11293370  1.0
  Ni  Ni281  1  0.31946967  0.95800267  0.11293370  1.0
  Ni  Ni282  1  0.65280300  0.29133600  0.11293370  1.0
  Ni  Ni283  1  0.65280300  0.62466933  0.11293370  1.0
  Ni  Ni284  1  0.65280300  0.95800267  0.11293370  1.0
  Ni  Ni285  1  0.98613633  0.29133600  0.11293370  1.0
  Ni  Ni286  1  0.98613633  0.62466933  0.11293370  1.0
  Ni  Ni287  1  0.98613633  0.95800267  0.11293370  1.0
  Ni  Ni288  1  0.20828567  0.12449333  0.01303530  1.0
  Ni  Ni289  1  0.20828567  0.45782667  0.01303530  1.0
  Ni  Ni290  1  0.20828567  0.79116000  0.01303530  1.0
  Ni  Ni291  1  0.54161900  0.12449333  0.01303530  1.0
  Ni  Ni292  1  0.54161900  0.45782667  0.01303530  1.0
  Ni  Ni293  1  0.54161900  0.79116000  0.01303530  1.0
  Ni  Ni294  1  0.87495233  0.12449333  0.01303530  1.0
  Ni  Ni295  1  0.87495233  0.45782667  0.01303530  1.0
  Ni  Ni296  1  0.87495233  0.79116000  0.01303530  1.0
  Ni  Ni297  1  0.20828567  0.29116000  0.11303530  1.0
  Ni  Ni298  1  0.20828567  0.62449333  0.11303530  1.0
  Ni  Ni299  1  0.20828567  0.95782667  0.11303530  1.0
  Ni  Ni300  1  0.54161900  0.29116000  0.11303530  1.0
  Ni  Ni301  1  0.54161900  0.62449333  0.11303530  1.0
  Ni  Ni302  1  0.54161900  0.95782667  0.11303530  1.0
  Ni  Ni303  1  0.87495233  0.29116000  0.11303530  1.0
  Ni  Ni304  1  0.87495233  0.62449333  0.11303530  1.0
  Ni  Ni305  1  0.87495233  0.95782667  0.11303530  1.0
  Ni  Ni306  1  0.09725300  0.12457733  0.01312430  1.0
  Ni  Ni307  1  0.09725300  0.45791067  0.01312430  1.0
  Ni  Ni308  1  0.09725300  0.79124400  0.01312430  1.0
  Ni  Ni309  1  0.43058633  0.12457733  0.01312430  1.0
  Ni  Ni310  1  0.43058633  0.45791067  0.01312430  1.0
  Ni  Ni311  1  0.43058633  0.79124400  0.01312430  1.0
  Ni  Ni312  1  0.76391967  0.12457733  0.01312430  1.0
  Ni  Ni313  1  0.76391967  0.45791067  0.01312430  1.0
  Ni  Ni314  1  0.76391967  0.79124400  0.01312430  1.0
  Ni  Ni315  1  0.09725300  0.29124400  0.11312430  1.0
  Ni  Ni316  1  0.09725300  0.62457733  0.11312430  1.0
  Ni  Ni317  1  0.09725300  0.95791067  0.11312430  1.0
  Ni  Ni318  1  0.43058633  0.29124400  0.11312430  1.0
  Ni  Ni319  1  0.43058633  0.62457733  0.11312430  1.0
  Ni  Ni320  1  0.43058633  0.95791067  0.11312430  1.0
  Ni  Ni321  1  0.76391967  0.29124400  0.11312430  1.0
  Ni  Ni322  1  0.76391967  0.62457733  0.11312430  1.0
  Ni  Ni323  1  0.76391967  0.95791067  0.11312430  1.0
  Ni  Ni324  1  0.26389467  0.12543650  0.01020260  1.0
  Ni  Ni325  1  0.26389467  0.45876983  0.01020260  1.0
  Ni  Ni326  1  0.26389467  0.79210317  0.01020260  1.0
  Ni  Ni327  1  0.59722800  0.12543650  0.01020260  1.0
  Ni  Ni328  1  0.59722800  0.45876983  0.01020260  1.0
  Ni  Ni329  1  0.59722800  0.79210317  0.01020260  1.0
  Ni  Ni330  1  0.93056133  0.12543650  0.01020260  1.0
  Ni  Ni331  1  0.93056133  0.45876983  0.01020260  1.0
  Ni  Ni332  1  0.93056133  0.79210317  0.01020260  1.0
  Ni  Ni333  1  0.26389467  0.29210317  0.11020260  1.0
  Ni  Ni334  1  0.26389467  0.62543650  0.11020260  1.0
  Ni  Ni335  1  0.26389467  0.95876983  0.11020260  1.0
  Ni  Ni336  1  0.59722800  0.29210317  0.11020260  1.0
  Ni  Ni337  1  0.59722800  0.62543650  0.11020260  1.0
  Ni  Ni338  1  0.59722800  0.95876983  0.11020260  1.0
  Ni  Ni339  1  0.93056133  0.29210317  0.11020260  1.0
  Ni  Ni340  1  0.93056133  0.62543650  0.11020260  1.0
  Ni  Ni341  1  0.93056133  0.95876983  0.11020260  1.0
  Ni  Ni342  1  0.15288533  0.12581417  0.00970000  1.0
  Ni  Ni343  1  0.15288533  0.45914750  0.00970000  1.0
  Ni  Ni344  1  0.15288533  0.79248083  0.00970000  1.0
  Ni  Ni345  1  0.48621867  0.12581417  0.00970000  1.0
  Ni  Ni346  1  0.48621867  0.45914750  0.00970000  1.0
  Ni  Ni347  1  0.48621867  0.79248083  0.00970000  1.0
  Ni  Ni348  1  0.81955200  0.12581417  0.00970000  1.0
  Ni  Ni349  1  0.81955200  0.45914750  0.00970000  1.0
  Ni  Ni350  1  0.81955200  0.79248083  0.00970000  1.0
  Ni  Ni351  1  0.15288533  0.29248083  0.10970000  1.0
  Ni  Ni352  1  0.15288533  0.62581417  0.10970000  1.0
  Ni  Ni353  1  0.15288533  0.95914750  0.10970000  1.0
  Ni  Ni354  1  0.48621867  0.29248083  0.10970000  1.0
  Ni  Ni355  1  0.48621867  0.62581417  0.10970000  1.0
  Ni  Ni356  1  0.48621867  0.95914750  0.10970000  1.0
  Ni  Ni357  1  0.81955200  0.29248083  0.10970000  1.0
  Ni  Ni358  1  0.81955200  0.62581417  0.10970000  1.0
  Ni  Ni359  1  0.81955200  0.95914750  0.10970000  1.0
  Ni  Ni360  1  0.04170933  0.12575783  0.00986000  1.0
  Ni  Ni361  1  0.04170933  0.45909117  0.00986000  1.0
  Ni  Ni362  1  0.04170933  0.79242450  0.00986000  1.0
  Ni  Ni363  1  0.37504267  0.12575783  0.00986000  1.0
  Ni  Ni364  1  0.37504267  0.45909117  0.00986000  1.0
  Ni  Ni365  1  0.37504267  0.79242450  0.00986000  1.0
  Ni  Ni366  1  0.70837600  0.12575783  0.00986000  1.0
  Ni  Ni367  1  0.70837600  0.45909117  0.00986000  1.0
  Ni  Ni368  1  0.70837600  0.79242450  0.00986000  1.0
  Ni  Ni369  1  0.04170933  0.29242450  0.10986000  1.0
  Ni  Ni370  1  0.04170933  0.62575783  0.10986000  1.0
  Ni  Ni371  1  0.04170933  0.95909117  0.10986000  1.0
  Ni  Ni372  1  0.37504267  0.29242450  0.10986000  1.0
  Ni  Ni373  1  0.37504267  0.62575783  0.10986000  1.0
  Ni  Ni374  1  0.37504267  0.95909117  0.10986000  1.0
  Ni  Ni375  1  0.70837600  0.29242450  0.10986000  1.0
  Ni  Ni376  1  0.70837600  0.62575783  0.10986000  1.0
  Ni  Ni377  1  0.70837600  0.95909117  0.10986000  1.0
  Ni  Ni378  1  0.23602000  0.04140583  0.05981540  1.0
  Ni  Ni379  1  0.23602000  0.37473917  0.05981540  1.0
  Ni  Ni380  1  0.23602000  0.70807250  0.05981540  1.0
  Ni  Ni381  1  0.56935333  0.04140583  0.05981540  1.0
  Ni  Ni382  1  0.56935333  0.37473917  0.05981540  1.0
  Ni  Ni383  1  0.56935333  0.70807250  0.05981540  1.0
  Ni  Ni384  1  0.90268667  0.04140583  0.05981540  1.0
  Ni  Ni385  1  0.90268667  0.37473917  0.05981540  1.0
  Ni  Ni386  1  0.90268667  0.70807250  0.05981540  1.0
  Ni  Ni387  1  0.23602000  0.20807250  0.15981540  1.0
  Ni  Ni388  1  0.23602000  0.54140583  0.15981540  1.0
  Ni  Ni389  1  0.23602000  0.87473917  0.15981540  1.0
  Ni  Ni390  1  0.56935333  0.20807250  0.15981540  1.0
  Ni  Ni391  1  0.56935333  0.54140583  0.15981540  1.0
  Ni  Ni392  1  0.56935333  0.87473917  0.15981540  1.0
  Ni  Ni393  1  0.90268667  0.20807250  0.15981540  1.0
  Ni  Ni394  1  0.90268667  0.54140583  0.15981540  1.0
  Ni  Ni395  1  0.90268667  0.87473917  0.15981540  1.0
  Ni  Ni396  1  0.12491900  0.04131200  0.05796450  1.0
  Ni  Ni397  1  0.12491900  0.37464533  0.05796450  1.0
  Ni  Ni398  1  0.12491900  0.70797867  0.05796450  1.0
  Ni  Ni399  1  0.45825233  0.04131200  0.05796450  1.0
  Ni  Ni400  1  0.45825233  0.37464533  0.05796450  1.0
  Ni  Ni401  1  0.45825233  0.70797867  0.05796450  1.0
  Ni  Ni402  1  0.79158567  0.04131200  0.05796450  1.0
  Ni  Ni403  1  0.79158567  0.37464533  0.05796450  1.0
  Ni  Ni404  1  0.79158567  0.70797867  0.05796450  1.0
  Ni  Ni405  1  0.12491900  0.20797867  0.15796450  1.0
  Ni  Ni406  1  0.12491900  0.54131200  0.15796450  1.0
  Ni  Ni407  1  0.12491900  0.87464533  0.15796450  1.0
  Ni  Ni408  1  0.45825233  0.20797867  0.15796450  1.0
  Ni  Ni409  1  0.45825233  0.54131200  0.15796450  1.0
  Ni  Ni410  1  0.45825233  0.87464533  0.15796450  1.0
  Ni  Ni411  1  0.79158567  0.20797867  0.15796450  1.0
  Ni  Ni412  1  0.79158567  0.54131200  0.15796450  1.0
  Ni  Ni413  1  0.79158567  0.87464533  0.15796450  1.0
  Ni  Ni414  1  0.01362167  0.04123800  0.05780930  1.0
  Ni  Ni415  1  0.01362167  0.37457133  0.05780930  1.0
  Ni  Ni416  1  0.01362167  0.70790467  0.05780930  1.0
  Ni  Ni417  1  0.34695500  0.04123800  0.05780930  1.0
  Ni  Ni418  1  0.34695500  0.37457133  0.05780930  1.0
  Ni  Ni419  1  0.34695500  0.70790467  0.05780930  1.0
  Ni  Ni420  1  0.68028833  0.04123800  0.05780930  1.0
  Ni  Ni421  1  0.68028833  0.37457133  0.05780930  1.0
  Ni  Ni422  1  0.68028833  0.70790467  0.05780930  1.0
  Ni  Ni423  1  0.01362167  0.20790467  0.15780930  1.0
  Ni  Ni424  1  0.01362167  0.54123800  0.15780930  1.0
  Ni  Ni425  1  0.01362167  0.87457133  0.15780930  1.0
  Ni  Ni426  1  0.34695500  0.20790467  0.15780930  1.0
  Ni  Ni427  1  0.34695500  0.54123800  0.15780930  1.0
  Ni  Ni428  1  0.34695500  0.87457133  0.15780930  1.0
  Ni  Ni429  1  0.68028833  0.20790467  0.15780930  1.0
  Ni  Ni430  1  0.68028833  0.54123800  0.15780930  1.0
  Ni  Ni431  1  0.68028833  0.87457133  0.15780930  1.0
  Ni  Ni432  1  0.12565667  0.16666667  0.06738810  1.0
  Ni  Ni433  1  0.12565667  0.50000000  0.06738810  1.0
  Ni  Ni434  1  0.12565667  0.83333333  0.06738810  1.0
  Ni  Ni435  1  0.45899000  0.16666667  0.06738810  1.0
  Ni  Ni436  1  0.45899000  0.50000000  0.06738810  1.0
  Ni  Ni437  1  0.45899000  0.83333333  0.06738810  1.0
  Ni  Ni438  1  0.79232333  0.16666667  0.06738810  1.0
  Ni  Ni439  1  0.79232333  0.50000000  0.06738810  1.0
  Ni  Ni440  1  0.79232333  0.83333333  0.06738810  1.0
  Ni  Ni441  1  0.12565667  0.00000000  0.16738810  1.0
  Ni  Ni442  1  0.12565667  0.33333333  0.16738810  1.0
  Ni  Ni443  1  0.12565667  0.66666667  0.16738810  1.0
  Ni  Ni444  1  0.45899000  0.00000000  0.16738810  1.0
  Ni  Ni445  1  0.45899000  0.33333333  0.16738810  1.0
  Ni  Ni446  1  0.45899000  0.66666667  0.16738810  1.0
  Ni  Ni447  1  0.79232333  0.00000000  0.16738810  1.0
  Ni  Ni448  1  0.79232333  0.33333333  0.16738810  1.0
  Ni  Ni449  1  0.79232333  0.66666667  0.16738810  1.0
  Ni  Ni450  1  0.01433133  0.16666667  0.06732910  1.0
  Ni  Ni451  1  0.01433133  0.50000000  0.06732910  1.0
  Ni  Ni452  1  0.01433133  0.83333333  0.06732910  1.0
  Ni  Ni453  1  0.34766467  0.16666667  0.06732910  1.0
  Ni  Ni454  1  0.34766467  0.50000000  0.06732910  1.0
  Ni  Ni455  1  0.34766467  0.83333333  0.06732910  1.0
  Ni  Ni456  1  0.68099800  0.16666667  0.06732910  1.0
  Ni  Ni457  1  0.68099800  0.50000000  0.06732910  1.0
  Ni  Ni458  1  0.68099800  0.83333333  0.06732910  1.0
  Ni  Ni459  1  0.01433133  0.00000000  0.16732910  1.0
  Ni  Ni460  1  0.01433133  0.33333333  0.16732910  1.0
  Ni  Ni461  1  0.01433133  0.66666667  0.16732910  1.0
  Ni  Ni462  1  0.34766467  0.00000000  0.16732910  1.0
  Ni  Ni463  1  0.34766467  0.33333333  0.16732910  1.0
  Ni  Ni464  1  0.34766467  0.66666667  0.16732910  1.0
  Ni  Ni465  1  0.68099800  0.00000000  0.16732910  1.0
  Ni  Ni466  1  0.68099800  0.33333333  0.16732910  1.0
  Ni  Ni467  1  0.68099800  0.66666667  0.16732910  1.0
  Ni  Ni468  1  0.29208067  0.08333333  0.15422370  1.0
  Ni  Ni469  1  0.29208067  0.41666667  0.15422370  1.0
  Ni  Ni470  1  0.29208067  0.75000000  0.15422370  1.0
  Ni  Ni471  1  0.62541400  0.08333333  0.15422370  1.0
  Ni  Ni472  1  0.62541400  0.41666667  0.15422370  1.0
  Ni  Ni473  1  0.62541400  0.75000000  0.15422370  1.0
  Ni  Ni474  1  0.95874733  0.08333333  0.15422370  1.0
  Ni  Ni475  1  0.95874733  0.41666667  0.15422370  1.0
  Ni  Ni476  1  0.95874733  0.75000000  0.15422370  1.0
  Ni  Ni477  1  0.29208067  0.25000000  0.05422370  1.0
  Ni  Ni478  1  0.29208067  0.58333333  0.05422370  1.0
  Ni  Ni479  1  0.29208067  0.91666667  0.05422370  1.0
  Ni  Ni480  1  0.62541400  0.25000000  0.05422370  1.0
  Ni  Ni481  1  0.62541400  0.58333333  0.05422370  1.0
  Ni  Ni482  1  0.62541400  0.91666667  0.05422370  1.0
  Ni  Ni483  1  0.95874733  0.25000000  0.05422370  1.0
  Ni  Ni484  1  0.95874733  0.58333333  0.05422370  1.0
  Ni  Ni485  1  0.95874733  0.91666667  0.05422370  1.0
  Ni  Ni486  1  0.18020267  0.08333333  0.15392210  1.0
  Ni  Ni487  1  0.18020267  0.41666667  0.15392210  1.0
  Ni  Ni488  1  0.18020267  0.75000000  0.15392210  1.0
  Ni  Ni489  1  0.51353600  0.08333333  0.15392210  1.0
  Ni  Ni490  1  0.51353600  0.41666667  0.15392210  1.0
  Ni  Ni491  1  0.51353600  0.75000000  0.15392210  1.0
  Ni  Ni492  1  0.84686933  0.08333333  0.15392210  1.0
  Ni  Ni493  1  0.84686933  0.41666667  0.15392210  1.0
  Ni  Ni494  1  0.84686933  0.75000000  0.15392210  1.0
  Ni  Ni495  1  0.18020267  0.25000000  0.05392210  1.0
  Ni  Ni496  1  0.18020267  0.58333333  0.05392210  1.0
  Ni  Ni497  1  0.18020267  0.91666667  0.05392210  1.0
  Ni  Ni498  1  0.51353600  0.25000000  0.05392210  1.0
  Ni  Ni499  1  0.51353600  0.58333333  0.05392210  1.0
  Ni  Ni500  1  0.51353600  0.91666667  0.05392210  1.0
  Ni  Ni501  1  0.84686933  0.25000000  0.05392210  1.0
  Ni  Ni502  1  0.84686933  0.58333333  0.05392210  1.0
  Ni  Ni503  1  0.84686933  0.91666667  0.05392210  1.0
  Ni  Ni504  1  0.06955033  0.08333333  0.15454390  1.0
  Ni  Ni505  1  0.06955033  0.41666667  0.15454390  1.0
  Ni  Ni506  1  0.06955033  0.75000000  0.15454390  1.0
  Ni  Ni507  1  0.40288367  0.08333333  0.15454390  1.0
  Ni  Ni508  1  0.40288367  0.41666667  0.15454390  1.0
  Ni  Ni509  1  0.40288367  0.75000000  0.15454390  1.0
  Ni  Ni510  1  0.73621700  0.08333333  0.15454390  1.0
  Ni  Ni511  1  0.73621700  0.41666667  0.15454390  1.0
  Ni  Ni512  1  0.73621700  0.75000000  0.15454390  1.0
  Ni  Ni513  1  0.06955033  0.25000000  0.05454390  1.0
  Ni  Ni514  1  0.06955033  0.58333333  0.05454390  1.0
  Ni  Ni515  1  0.06955033  0.91666667  0.05454390  1.0
  Ni  Ni516  1  0.40288367  0.25000000  0.05454390  1.0
  Ni  Ni517  1  0.40288367  0.58333333  0.05454390  1.0
  Ni  Ni518  1  0.40288367  0.91666667  0.05454390  1.0
  Ni  Ni519  1  0.73621700  0.25000000  0.05454390  1.0
  Ni  Ni520  1  0.73621700  0.58333333  0.05454390  1.0
  Ni  Ni521  1  0.73621700  0.91666667  0.05454390  1.0
  Ni  Ni522  1  0.31905367  0.08333333  0.05382950  1.0
  Ni  Ni523  1  0.31905367  0.41666667  0.05382950  1.0
  Ni  Ni524  1  0.31905367  0.75000000  0.05382950  1.0
  Ni  Ni525  1  0.65238700  0.08333333  0.05382950  1.0
  Ni  Ni526  1  0.65238700  0.41666667  0.05382950  1.0
  Ni  Ni527  1  0.65238700  0.75000000  0.05382950  1.0
  Ni  Ni528  1  0.98572033  0.08333333  0.05382950  1.0
  Ni  Ni529  1  0.98572033  0.41666667  0.05382950  1.0
  Ni  Ni530  1  0.98572033  0.75000000  0.05382950  1.0
  Ni  Ni531  1  0.31905367  0.25000000  0.15382950  1.0
  Ni  Ni532  1  0.31905367  0.58333333  0.15382950  1.0
  Ni  Ni533  1  0.31905367  0.91666667  0.15382950  1.0
  Ni  Ni534  1  0.65238700  0.25000000  0.15382950  1.0
  Ni  Ni535  1  0.65238700  0.58333333  0.15382950  1.0
  Ni  Ni536  1  0.65238700  0.91666667  0.15382950  1.0
  Ni  Ni537  1  0.98572033  0.25000000  0.15382950  1.0
  Ni  Ni538  1  0.98572033  0.58333333  0.15382950  1.0
  Ni  Ni539  1  0.98572033  0.91666667  0.15382950  1.0
  Ni  Ni540  1  0.20857800  0.08333333  0.05378230  1.0
  Ni  Ni541  1  0.20857800  0.41666667  0.05378230  1.0
  Ni  Ni542  1  0.20857800  0.75000000  0.05378230  1.0
  Ni  Ni543  1  0.54191133  0.08333333  0.05378230  1.0
  Ni  Ni544  1  0.54191133  0.41666667  0.05378230  1.0
  Ni  Ni545  1  0.54191133  0.75000000  0.05378230  1.0
  Ni  Ni546  1  0.87524467  0.08333333  0.05378230  1.0
  Ni  Ni547  1  0.87524467  0.41666667  0.05378230  1.0
  Ni  Ni548  1  0.87524467  0.75000000  0.05378230  1.0
  Ni  Ni549  1  0.20857800  0.25000000  0.15378230  1.0
  Ni  Ni550  1  0.20857800  0.58333333  0.15378230  1.0
  Ni  Ni551  1  0.20857800  0.91666667  0.15378230  1.0
  Ni  Ni552  1  0.54191133  0.25000000  0.15378230  1.0
  Ni  Ni553  1  0.54191133  0.58333333  0.15378230  1.0
  Ni  Ni554  1  0.54191133  0.91666667  0.15378230  1.0
  Ni  Ni555  1  0.87524467  0.25000000  0.15378230  1.0
  Ni  Ni556  1  0.87524467  0.58333333  0.15378230  1.0
  Ni  Ni557  1  0.87524467  0.91666667  0.15378230  1.0
  Ni  Ni558  1  0.09708767  0.08333333  0.05382370  1.0
  Ni  Ni559  1  0.09708767  0.41666667  0.05382370  1.0
  Ni  Ni560  1  0.09708767  0.75000000  0.05382370  1.0
  Ni  Ni561  1  0.43042100  0.08333333  0.05382370  1.0
  Ni  Ni562  1  0.43042100  0.41666667  0.05382370  1.0
  Ni  Ni563  1  0.43042100  0.75000000  0.05382370  1.0
  Ni  Ni564  1  0.76375433  0.08333333  0.05382370  1.0
  Ni  Ni565  1  0.76375433  0.41666667  0.05382370  1.0
  Ni  Ni566  1  0.76375433  0.75000000  0.05382370  1.0
  Ni  Ni567  1  0.09708767  0.25000000  0.15382370  1.0
  Ni  Ni568  1  0.09708767  0.58333333  0.15382370  1.0
  Ni  Ni569  1  0.09708767  0.91666667  0.15382370  1.0
  Ni  Ni570  1  0.43042100  0.25000000  0.15382370  1.0
  Ni  Ni571  1  0.43042100  0.58333333  0.15382370  1.0
  Ni  Ni572  1  0.43042100  0.91666667  0.15382370  1.0
  Ni  Ni573  1  0.76375433  0.25000000  0.15382370  1.0
  Ni  Ni574  1  0.76375433  0.58333333  0.15382370  1.0
  Ni  Ni575  1  0.76375433  0.91666667  0.15382370  1.0
  Sn  Sn576  1  0.31695300  0.16666667  0.10476690  1.0
  Sn  Sn577  1  0.31695300  0.50000000  0.10476690  1.0
  Sn  Sn578  1  0.31695300  0.83333333  0.10476690  1.0
  Sn  Sn579  1  0.65028633  0.16666667  0.10476690  1.0
  Sn  Sn580  1  0.65028633  0.50000000  0.10476690  1.0
  Sn  Sn581  1  0.65028633  0.83333333  0.10476690  1.0
  Sn  Sn582  1  0.98361967  0.16666667  0.10476690  1.0
  Sn  Sn583  1  0.98361967  0.50000000  0.10476690  1.0
  Sn  Sn584  1  0.98361967  0.83333333  0.10476690  1.0
  Sn  Sn585  1  0.31695300  0.00000000  0.00476690  1.0
  Sn  Sn586  1  0.31695300  0.33333333  0.00476690  1.0
  Sn  Sn587  1  0.31695300  0.66666667  0.00476690  1.0
  Sn  Sn588  1  0.65028633  0.00000000  0.00476690  1.0
  Sn  Sn589  1  0.65028633  0.33333333  0.00476690  1.0
  Sn  Sn590  1  0.65028633  0.66666667  0.00476690  1.0
  Sn  Sn591  1  0.98361967  0.00000000  0.00476690  1.0
  Sn  Sn592  1  0.98361967  0.33333333  0.00476690  1.0
  Sn  Sn593  1  0.98361967  0.66666667  0.00476690  1.0
  Sn  Sn594  1  0.20820700  0.16666667  0.10307530  1.0
  Sn  Sn595  1  0.20820700  0.50000000  0.10307530  1.0
  Sn  Sn596  1  0.20820700  0.83333333  0.10307530  1.0
  Sn  Sn597  1  0.54154033  0.16666667  0.10307530  1.0
  Sn  Sn598  1  0.54154033  0.50000000  0.10307530  1.0
  Sn  Sn599  1  0.54154033  0.83333333  0.10307530  1.0
  Sn  Sn600  1  0.87487367  0.16666667  0.10307530  1.0
  Sn  Sn601  1  0.87487367  0.50000000  0.10307530  1.0
  Sn  Sn602  1  0.87487367  0.83333333  0.10307530  1.0
  Sn  Sn603  1  0.20820700  0.00000000  0.00307530  1.0
  Sn  Sn604  1  0.20820700  0.33333333  0.00307530  1.0
  Sn  Sn605  1  0.20820700  0.66666667  0.00307530  1.0
  Sn  Sn606  1  0.54154033  0.00000000  0.00307530  1.0
  Sn  Sn607  1  0.54154033  0.33333333  0.00307530  1.0
  Sn  Sn608  1  0.54154033  0.66666667  0.00307530  1.0
  Sn  Sn609  1  0.87487367  0.00000000  0.00307530  1.0
  Sn  Sn610  1  0.87487367  0.33333333  0.00307530  1.0
  Sn  Sn611  1  0.87487367  0.66666667  0.00307530  1.0
  Sn  Sn612  1  0.09513433  0.16666667  0.10486350  1.0
  Sn  Sn613  1  0.09513433  0.50000000  0.10486350  1.0
  Sn  Sn614  1  0.09513433  0.83333333  0.10486350  1.0
  Sn  Sn615  1  0.42846767  0.16666667  0.10486350  1.0
  Sn  Sn616  1  0.42846767  0.50000000  0.10486350  1.0
  Sn  Sn617  1  0.42846767  0.83333333  0.10486350  1.0
  Sn  Sn618  1  0.76180100  0.16666667  0.10486350  1.0
  Sn  Sn619  1  0.76180100  0.50000000  0.10486350  1.0
  Sn  Sn620  1  0.76180100  0.83333333  0.10486350  1.0
  Sn  Sn621  1  0.09513433  0.00000000  0.00486350  1.0
  Sn  Sn622  1  0.09513433  0.33333333  0.00486350  1.0
  Sn  Sn623  1  0.09513433  0.66666667  0.00486350  1.0
  Sn  Sn624  1  0.42846767  0.00000000  0.00486350  1.0
  Sn  Sn625  1  0.42846767  0.33333333  0.00486350  1.0
  Sn  Sn626  1  0.42846767  0.66666667  0.00486350  1.0
  Sn  Sn627  1  0.76180100  0.00000000  0.00486350  1.0
  Sn  Sn628  1  0.76180100  0.33333333  0.00486350  1.0
  Sn  Sn629  1  0.76180100  0.66666667  0.00486350  1.0
  Sn  Sn630  1  0.29200633  0.16666667  0.00344170  1.0
  Sn  Sn631  1  0.29200633  0.50000000  0.00344170  1.0
  Sn  Sn632  1  0.29200633  0.83333333  0.00344170  1.0
  Sn  Sn633  1  0.62533967  0.16666667  0.00344170  1.0
  Sn  Sn634  1  0.62533967  0.50000000  0.00344170  1.0
  Sn  Sn635  1  0.62533967  0.83333333  0.00344170  1.0
  Sn  Sn636  1  0.95867300  0.16666667  0.00344170  1.0
  Sn  Sn637  1  0.95867300  0.50000000  0.00344170  1.0
  Sn  Sn638  1  0.95867300  0.83333333  0.00344170  1.0
  Sn  Sn639  1  0.29200633  0.00000000  0.10344170  1.0
  Sn  Sn640  1  0.29200633  0.33333333  0.10344170  1.0
  Sn  Sn641  1  0.29200633  0.66666667  0.10344170  1.0
  Sn  Sn642  1  0.62533967  0.00000000  0.10344170  1.0
  Sn  Sn643  1  0.62533967  0.33333333  0.10344170  1.0
  Sn  Sn644  1  0.62533967  0.66666667  0.10344170  1.0
  Sn  Sn645  1  0.95867300  0.00000000  0.10344170  1.0
  Sn  Sn646  1  0.95867300  0.33333333  0.10344170  1.0
  Sn  Sn647  1  0.95867300  0.66666667  0.10344170  1.0
  Sn  Sn648  1  0.18125133  0.16666667  0.00359950  1.0
  Sn  Sn649  1  0.18125133  0.50000000  0.00359950  1.0
  Sn  Sn650  1  0.18125133  0.83333333  0.00359950  1.0
  Sn  Sn651  1  0.51458467  0.16666667  0.00359950  1.0
  Sn  Sn652  1  0.51458467  0.50000000  0.00359950  1.0
  Sn  Sn653  1  0.51458467  0.83333333  0.00359950  1.0
  Sn  Sn654  1  0.84791800  0.16666667  0.00359950  1.0
  Sn  Sn655  1  0.84791800  0.50000000  0.00359950  1.0
  Sn  Sn656  1  0.84791800  0.83333333  0.00359950  1.0
  Sn  Sn657  1  0.18125133  0.00000000  0.10359950  1.0
  Sn  Sn658  1  0.18125133  0.33333333  0.10359950  1.0
  Sn  Sn659  1  0.18125133  0.66666667  0.10359950  1.0
  Sn  Sn660  1  0.51458467  0.00000000  0.10359950  1.0
  Sn  Sn661  1  0.51458467  0.33333333  0.10359950  1.0
  Sn  Sn662  1  0.51458467  0.66666667  0.10359950  1.0
  Sn  Sn663  1  0.84791800  0.00000000  0.10359950  1.0
  Sn  Sn664  1  0.84791800  0.33333333  0.10359950  1.0
  Sn  Sn665  1  0.84791800  0.66666667  0.10359950  1.0
  Sn  Sn666  1  0.07004700  0.16666667  0.00413930  1.0
  Sn  Sn667  1  0.07004700  0.50000000  0.00413930  1.0
  Sn  Sn668  1  0.07004700  0.83333333  0.00413930  1.0
  Sn  Sn669  1  0.40338033  0.16666667  0.00413930  1.0
  Sn  Sn670  1  0.40338033  0.50000000  0.00413930  1.0
  Sn  Sn671  1  0.40338033  0.83333333  0.00413930  1.0
  Sn  Sn672  1  0.73671367  0.16666667  0.00413930  1.0
  Sn  Sn673  1  0.73671367  0.50000000  0.00413930  1.0
  Sn  Sn674  1  0.73671367  0.83333333  0.00413930  1.0
  Sn  Sn675  1  0.07004700  0.00000000  0.10413930  1.0
  Sn  Sn676  1  0.07004700  0.33333333  0.10413930  1.0
  Sn  Sn677  1  0.07004700  0.66666667  0.10413930  1.0
  Sn  Sn678  1  0.40338033  0.00000000  0.10413930  1.0
  Sn  Sn679  1  0.40338033  0.33333333  0.10413930  1.0
  Sn  Sn680  1  0.40338033  0.66666667  0.10413930  1.0
  Sn  Sn681  1  0.73671367  0.00000000  0.10413930  1.0
  Sn  Sn682  1  0.73671367  0.33333333  0.10413930  1.0
  Sn  Sn683  1  0.73671367  0.66666667  0.10413930  1.0
  Sn  Sn684  1  0.23785600  0.08333333  0.01681230  1.0
  Sn  Sn685  1  0.23785600  0.41666667  0.01681230  1.0
  Sn  Sn686  1  0.23785600  0.75000000  0.01681230  1.0
  Sn  Sn687  1  0.57118933  0.08333333  0.01681230  1.0
  Sn  Sn688  1  0.57118933  0.41666667  0.01681230  1.0
  Sn  Sn689  1  0.57118933  0.75000000  0.01681230  1.0
  Sn  Sn690  1  0.90452267  0.08333333  0.01681230  1.0
  Sn  Sn691  1  0.90452267  0.41666667  0.01681230  1.0
  Sn  Sn692  1  0.90452267  0.75000000  0.01681230  1.0
  Sn  Sn693  1  0.23785600  0.25000000  0.11681230  1.0
  Sn  Sn694  1  0.23785600  0.58333333  0.11681230  1.0
  Sn  Sn695  1  0.23785600  0.91666667  0.11681230  1.0
  Sn  Sn696  1  0.57118933  0.25000000  0.11681230  1.0
  Sn  Sn697  1  0.57118933  0.58333333  0.11681230  1.0
  Sn  Sn698  1  0.57118933  0.91666667  0.11681230  1.0
  Sn  Sn699  1  0.90452267  0.25000000  0.11681230  1.0
  Sn  Sn700  1  0.90452267  0.58333333  0.11681230  1.0
  Sn  Sn701  1  0.90452267  0.91666667  0.11681230  1.0
  Sn  Sn702  1  0.12681833  0.08333333  0.01614550  1.0
  Sn  Sn703  1  0.12681833  0.41666667  0.01614550  1.0
  Sn  Sn704  1  0.12681833  0.75000000  0.01614550  1.0
  Sn  Sn705  1  0.46015167  0.08333333  0.01614550  1.0
  Sn  Sn706  1  0.46015167  0.41666667  0.01614550  1.0
  Sn  Sn707  1  0.46015167  0.75000000  0.01614550  1.0
  Sn  Sn708  1  0.79348500  0.08333333  0.01614550  1.0
  Sn  Sn709  1  0.79348500  0.41666667  0.01614550  1.0
  Sn  Sn710  1  0.79348500  0.75000000  0.01614550  1.0
  Sn  Sn711  1  0.12681833  0.25000000  0.11614550  1.0
  Sn  Sn712  1  0.12681833  0.58333333  0.11614550  1.0
  Sn  Sn713  1  0.12681833  0.91666667  0.11614550  1.0
  Sn  Sn714  1  0.46015167  0.25000000  0.11614550  1.0
  Sn  Sn715  1  0.46015167  0.58333333  0.11614550  1.0
  Sn  Sn716  1  0.46015167  0.91666667  0.11614550  1.0
  Sn  Sn717  1  0.79348500  0.25000000  0.11614550  1.0
  Sn  Sn718  1  0.79348500  0.58333333  0.11614550  1.0
  Sn  Sn719  1  0.79348500  0.91666667  0.11614550  1.0
  Sn  Sn720  1  0.01548633  0.08333333  0.01616150  1.0
  Sn  Sn721  1  0.01548633  0.41666667  0.01616150  1.0
  Sn  Sn722  1  0.01548633  0.75000000  0.01616150  1.0
  Sn  Sn723  1  0.34881967  0.08333333  0.01616150  1.0
  Sn  Sn724  1  0.34881967  0.41666667  0.01616150  1.0
  Sn  Sn725  1  0.34881967  0.75000000  0.01616150  1.0
  Sn  Sn726  1  0.68215300  0.08333333  0.01616150  1.0
  Sn  Sn727  1  0.68215300  0.41666667  0.01616150  1.0
  Sn  Sn728  1  0.68215300  0.75000000  0.01616150  1.0
  Sn  Sn729  1  0.01548633  0.25000000  0.11616150  1.0
  Sn  Sn730  1  0.01548633  0.58333333  0.11616150  1.0
  Sn  Sn731  1  0.01548633  0.91666667  0.11616150  1.0
  Sn  Sn732  1  0.34881967  0.25000000  0.11616150  1.0
  Sn  Sn733  1  0.34881967  0.58333333  0.11616150  1.0
  Sn  Sn734  1  0.34881967  0.91666667  0.11616150  1.0
  Sn  Sn735  1  0.68215300  0.25000000  0.11616150  1.0
  Sn  Sn736  1  0.68215300  0.58333333  0.11616150  1.0
  Sn  Sn737  1  0.68215300  0.91666667  0.11616150  1.0
  Sn  Sn738  1  0.26213800  0.08333333  0.11768350  1.0
  Sn  Sn739  1  0.26213800  0.41666667  0.11768350  1.0
  Sn  Sn740  1  0.26213800  0.75000000  0.11768350  1.0
  Sn  Sn741  1  0.59547133  0.08333333  0.11768350  1.0
  Sn  Sn742  1  0.59547133  0.41666667  0.11768350  1.0
  Sn  Sn743  1  0.59547133  0.75000000  0.11768350  1.0
  Sn  Sn744  1  0.92880467  0.08333333  0.11768350  1.0
  Sn  Sn745  1  0.92880467  0.41666667  0.11768350  1.0
  Sn  Sn746  1  0.92880467  0.75000000  0.11768350  1.0
  Sn  Sn747  1  0.26213800  0.25000000  0.01768350  1.0
  Sn  Sn748  1  0.26213800  0.58333333  0.01768350  1.0
  Sn  Sn749  1  0.26213800  0.91666667  0.01768350  1.0
  Sn  Sn750  1  0.59547133  0.25000000  0.01768350  1.0
  Sn  Sn751  1  0.59547133  0.58333333  0.01768350  1.0
  Sn  Sn752  1  0.59547133  0.91666667  0.01768350  1.0
  Sn  Sn753  1  0.92880467  0.25000000  0.01768350  1.0
  Sn  Sn754  1  0.92880467  0.58333333  0.01768350  1.0
  Sn  Sn755  1  0.92880467  0.91666667  0.01768350  1.0
  Sn  Sn756  1  0.15110167  0.08333333  0.11624250  1.0
  Sn  Sn757  1  0.15110167  0.41666667  0.11624250  1.0
  Sn  Sn758  1  0.15110167  0.75000000  0.11624250  1.0
  Sn  Sn759  1  0.48443500  0.08333333  0.11624250  1.0
  Sn  Sn760  1  0.48443500  0.41666667  0.11624250  1.0
  Sn  Sn761  1  0.48443500  0.75000000  0.11624250  1.0
  Sn  Sn762  1  0.81776833  0.08333333  0.11624250  1.0
  Sn  Sn763  1  0.81776833  0.41666667  0.11624250  1.0
  Sn  Sn764  1  0.81776833  0.75000000  0.11624250  1.0
  Sn  Sn765  1  0.15110167  0.25000000  0.01624250  1.0
  Sn  Sn766  1  0.15110167  0.58333333  0.01624250  1.0
  Sn  Sn767  1  0.15110167  0.91666667  0.01624250  1.0
  Sn  Sn768  1  0.48443500  0.25000000  0.01624250  1.0
  Sn  Sn769  1  0.48443500  0.58333333  0.01624250  1.0
  Sn  Sn770  1  0.48443500  0.91666667  0.01624250  1.0
  Sn  Sn771  1  0.81776833  0.25000000  0.01624250  1.0
  Sn  Sn772  1  0.81776833  0.58333333  0.01624250  1.0
  Sn  Sn773  1  0.81776833  0.91666667  0.01624250  1.0
  Sn  Sn774  1  0.03986300  0.08333333  0.11680610  1.0
  Sn  Sn775  1  0.03986300  0.41666667  0.11680610  1.0
  Sn  Sn776  1  0.03986300  0.75000000  0.11680610  1.0
  Sn  Sn777  1  0.37319633  0.08333333  0.11680610  1.0
  Sn  Sn778  1  0.37319633  0.41666667  0.11680610  1.0
  Sn  Sn779  1  0.37319633  0.75000000  0.11680610  1.0
  Sn  Sn780  1  0.70652967  0.08333333  0.11680610  1.0
  Sn  Sn781  1  0.70652967  0.41666667  0.11680610  1.0
  Sn  Sn782  1  0.70652967  0.75000000  0.11680610  1.0
  Sn  Sn783  1  0.03986300  0.25000000  0.01680610  1.0
  Sn  Sn784  1  0.03986300  0.58333333  0.01680610  1.0
  Sn  Sn785  1  0.03986300  0.91666667  0.01680610  1.0
  Sn  Sn786  1  0.37319633  0.25000000  0.01680610  1.0
  Sn  Sn787  1  0.37319633  0.58333333  0.01680610  1.0
  Sn  Sn788  1  0.37319633  0.91666667  0.01680610  1.0
  Sn  Sn789  1  0.70652967  0.25000000  0.01680610  1.0
  Sn  Sn790  1  0.70652967  0.58333333  0.01680610  1.0
  Sn  Sn791  1  0.70652967  0.91666667  0.01680610  1.0
  Sn  Sn792  1  0.26375200  0.16666667  0.10347530  1.0
  Sn  Sn793  1  0.26375200  0.50000000  0.10347530  1.0
  Sn  Sn794  1  0.26375200  0.83333333  0.10347530  1.0
  Sn  Sn795  1  0.59708533  0.16666667  0.10347530  1.0
  Sn  Sn796  1  0.59708533  0.50000000  0.10347530  1.0
  Sn  Sn797  1  0.59708533  0.83333333  0.10347530  1.0
  Sn  Sn798  1  0.93041867  0.16666667  0.10347530  1.0
  Sn  Sn799  1  0.93041867  0.50000000  0.10347530  1.0
  Sn  Sn800  1  0.93041867  0.83333333  0.10347530  1.0
  Sn  Sn801  1  0.26375200  0.00000000  0.00347530  1.0
  Sn  Sn802  1  0.26375200  0.33333333  0.00347530  1.0
  Sn  Sn803  1  0.26375200  0.66666667  0.00347530  1.0
  Sn  Sn804  1  0.59708533  0.00000000  0.00347530  1.0
  Sn  Sn805  1  0.59708533  0.33333333  0.00347530  1.0
  Sn  Sn806  1  0.59708533  0.66666667  0.00347530  1.0
  Sn  Sn807  1  0.93041867  0.00000000  0.00347530  1.0
  Sn  Sn808  1  0.93041867  0.33333333  0.00347530  1.0
  Sn  Sn809  1  0.93041867  0.66666667  0.00347530  1.0
  Sn  Sn810  1  0.15495733  0.16666667  0.10584230  1.0
  Sn  Sn811  1  0.15495733  0.50000000  0.10584230  1.0
  Sn  Sn812  1  0.15495733  0.83333333  0.10584230  1.0
  Sn  Sn813  1  0.48829067  0.16666667  0.10584230  1.0
  Sn  Sn814  1  0.48829067  0.50000000  0.10584230  1.0
  Sn  Sn815  1  0.48829067  0.83333333  0.10584230  1.0
  Sn  Sn816  1  0.82162400  0.16666667  0.10584230  1.0
  Sn  Sn817  1  0.82162400  0.50000000  0.10584230  1.0
  Sn  Sn818  1  0.82162400  0.83333333  0.10584230  1.0
  Sn  Sn819  1  0.15495733  0.00000000  0.00584230  1.0
  Sn  Sn820  1  0.15495733  0.33333333  0.00584230  1.0
  Sn  Sn821  1  0.15495733  0.66666667  0.00584230  1.0
  Sn  Sn822  1  0.48829067  0.00000000  0.00584230  1.0
  Sn  Sn823  1  0.48829067  0.33333333  0.00584230  1.0
  Sn  Sn824  1  0.48829067  0.66666667  0.00584230  1.0
  Sn  Sn825  1  0.82162400  0.00000000  0.00584230  1.0
  Sn  Sn826  1  0.82162400  0.33333333  0.00584230  1.0
  Sn  Sn827  1  0.82162400  0.66666667  0.00584230  1.0
  Sn  Sn828  1  0.04348833  0.16666667  0.10598450  1.0
  Sn  Sn829  1  0.04348833  0.50000000  0.10598450  1.0
  Sn  Sn830  1  0.04348833  0.83333333  0.10598450  1.0
  Sn  Sn831  1  0.37682167  0.16666667  0.10598450  1.0
  Sn  Sn832  1  0.37682167  0.50000000  0.10598450  1.0
  Sn  Sn833  1  0.37682167  0.83333333  0.10598450  1.0
  Sn  Sn834  1  0.71015500  0.16666667  0.10598450  1.0
  Sn  Sn835  1  0.71015500  0.50000000  0.10598450  1.0
  Sn  Sn836  1  0.71015500  0.83333333  0.10598450  1.0
  Sn  Sn837  1  0.04348833  0.00000000  0.00598450  1.0
  Sn  Sn838  1  0.04348833  0.33333333  0.00598450  1.0
  Sn  Sn839  1  0.04348833  0.66666667  0.00598450  1.0
  Sn  Sn840  1  0.37682167  0.00000000  0.00598450  1.0
  Sn  Sn841  1  0.37682167  0.33333333  0.00598450  1.0
  Sn  Sn842  1  0.37682167  0.66666667  0.00598450  1.0
  Sn  Sn843  1  0.71015500  0.00000000  0.00598450  1.0
  Sn  Sn844  1  0.71015500  0.33333333  0.00598450  1.0
  Sn  Sn845  1  0.71015500  0.66666667  0.00598450  1.0
  Sn  Sn846  1  0.23582200  0.16666667  0.00319830  1.0
  Sn  Sn847  1  0.23582200  0.50000000  0.00319830  1.0
  Sn  Sn848  1  0.23582200  0.83333333  0.00319830  1.0
  Sn  Sn849  1  0.56915533  0.16666667  0.00319830  1.0
  Sn  Sn850  1  0.56915533  0.50000000  0.00319830  1.0
  Sn  Sn851  1  0.56915533  0.83333333  0.00319830  1.0
  Sn  Sn852  1  0.90248867  0.16666667  0.00319830  1.0
  Sn  Sn853  1  0.90248867  0.50000000  0.00319830  1.0
  Sn  Sn854  1  0.90248867  0.83333333  0.00319830  1.0
  Sn  Sn855  1  0.23582200  0.00000000  0.10319830  1.0
  Sn  Sn856  1  0.23582200  0.33333333  0.10319830  1.0
  Sn  Sn857  1  0.23582200  0.66666667  0.10319830  1.0
  Sn  Sn858  1  0.56915533  0.00000000  0.10319830  1.0
  Sn  Sn859  1  0.56915533  0.33333333  0.10319830  1.0
  Sn  Sn860  1  0.56915533  0.66666667  0.10319830  1.0
  Sn  Sn861  1  0.90248867  0.00000000  0.10319830  1.0
  Sn  Sn862  1  0.90248867  0.33333333  0.10319830  1.0
  Sn  Sn863  1  0.90248867  0.66666667  0.10319830  1.0
  Sn  Sn864  1  0.12472400  0.16666667  0.19694730  1.0
  Sn  Sn865  1  0.12472400  0.50000000  0.19694730  1.0
  Sn  Sn866  1  0.12472400  0.83333333  0.19694730  1.0
  Sn  Sn867  1  0.45805733  0.16666667  0.19694730  1.0
  Sn  Sn868  1  0.45805733  0.50000000  0.19694730  1.0
  Sn  Sn869  1  0.45805733  0.83333333  0.19694730  1.0
  Sn  Sn870  1  0.79139067  0.16666667  0.19694730  1.0
  Sn  Sn871  1  0.79139067  0.50000000  0.19694730  1.0
  Sn  Sn872  1  0.79139067  0.83333333  0.19694730  1.0
  Sn  Sn873  1  0.12472400  0.00000000  0.09694730  1.0
  Sn  Sn874  1  0.12472400  0.33333333  0.09694730  1.0
  Sn  Sn875  1  0.12472400  0.66666667  0.09694730  1.0
  Sn  Sn876  1  0.45805733  0.00000000  0.09694730  1.0
  Sn  Sn877  1  0.45805733  0.33333333  0.09694730  1.0
  Sn  Sn878  1  0.45805733  0.66666667  0.09694730  1.0
  Sn  Sn879  1  0.79139067  0.00000000  0.09694730  1.0
  Sn  Sn880  1  0.79139067  0.33333333  0.09694730  1.0
  Sn  Sn881  1  0.79139067  0.66666667  0.09694730  1.0
  Sn  Sn882  1  0.01368667  0.16666667  0.19680170  1.0
  Sn  Sn883  1  0.01368667  0.50000000  0.19680170  1.0
  Sn  Sn884  1  0.01368667  0.83333333  0.19680170  1.0
  Sn  Sn885  1  0.34702000  0.16666667  0.19680170  1.0
  Sn  Sn886  1  0.34702000  0.50000000  0.19680170  1.0
  Sn  Sn887  1  0.34702000  0.83333333  0.19680170  1.0
  Sn  Sn888  1  0.68035333  0.16666667  0.19680170  1.0
  Sn  Sn889  1  0.68035333  0.50000000  0.19680170  1.0
  Sn  Sn890  1  0.68035333  0.83333333  0.19680170  1.0
  Sn  Sn891  1  0.01368667  0.00000000  0.09680170  1.0
  Sn  Sn892  1  0.01368667  0.33333333  0.09680170  1.0
  Sn  Sn893  1  0.01368667  0.66666667  0.09680170  1.0
  Sn  Sn894  1  0.34702000  0.00000000  0.09680170  1.0
  Sn  Sn895  1  0.34702000  0.33333333  0.09680170  1.0
  Sn  Sn896  1  0.34702000  0.66666667  0.09680170  1.0
  Sn  Sn897  1  0.68035333  0.00000000  0.09680170  1.0
  Sn  Sn898  1  0.68035333  0.33333333  0.09680170  1.0
  Sn  Sn899  1  0.68035333  0.66666667  0.09680170  1.0
  Sn  Sn900  1  0.28781400  0.08333333  0.02463910  1.0
  Sn  Sn901  1  0.28781400  0.41666667  0.02463910  1.0
  Sn  Sn902  1  0.28781400  0.75000000  0.02463910  1.0
  Sn  Sn903  1  0.62114733  0.08333333  0.02463910  1.0
  Sn  Sn904  1  0.62114733  0.41666667  0.02463910  1.0
  Sn  Sn905  1  0.62114733  0.75000000  0.02463910  1.0
  Sn  Sn906  1  0.95448067  0.08333333  0.02463910  1.0
  Sn  Sn907  1  0.95448067  0.41666667  0.02463910  1.0
  Sn  Sn908  1  0.95448067  0.75000000  0.02463910  1.0
  Sn  Sn909  1  0.28781400  0.25000000  0.12463910  1.0
  Sn  Sn910  1  0.28781400  0.58333333  0.12463910  1.0
  Sn  Sn911  1  0.28781400  0.91666667  0.12463910  1.0
  Sn  Sn912  1  0.62114733  0.25000000  0.12463910  1.0
  Sn  Sn913  1  0.62114733  0.58333333  0.12463910  1.0
  Sn  Sn914  1  0.62114733  0.91666667  0.12463910  1.0
  Sn  Sn915  1  0.95448067  0.25000000  0.12463910  1.0
  Sn  Sn916  1  0.95448067  0.58333333  0.12463910  1.0
  Sn  Sn917  1  0.95448067  0.91666667  0.12463910  1.0
  Sn  Sn918  1  0.17721733  0.08333333  0.02457930  1.0
  Sn  Sn919  1  0.17721733  0.41666667  0.02457930  1.0
  Sn  Sn920  1  0.17721733  0.75000000  0.02457930  1.0
  Sn  Sn921  1  0.51055067  0.08333333  0.02457930  1.0
  Sn  Sn922  1  0.51055067  0.41666667  0.02457930  1.0
  Sn  Sn923  1  0.51055067  0.75000000  0.02457930  1.0
  Sn  Sn924  1  0.84388400  0.08333333  0.02457930  1.0
  Sn  Sn925  1  0.84388400  0.41666667  0.02457930  1.0
  Sn  Sn926  1  0.84388400  0.75000000  0.02457930  1.0
  Sn  Sn927  1  0.17721733  0.25000000  0.12457930  1.0
  Sn  Sn928  1  0.17721733  0.58333333  0.12457930  1.0
  Sn  Sn929  1  0.17721733  0.91666667  0.12457930  1.0
  Sn  Sn930  1  0.51055067  0.25000000  0.12457930  1.0
  Sn  Sn931  1  0.51055067  0.58333333  0.12457930  1.0
  Sn  Sn932  1  0.51055067  0.91666667  0.12457930  1.0
  Sn  Sn933  1  0.84388400  0.25000000  0.12457930  1.0
  Sn  Sn934  1  0.84388400  0.58333333  0.12457930  1.0
  Sn  Sn935  1  0.84388400  0.91666667  0.12457930  1.0
  Sn  Sn936  1  0.06566000  0.08333333  0.02498790  1.0
  Sn  Sn937  1  0.06566000  0.41666667  0.02498790  1.0
  Sn  Sn938  1  0.06566000  0.75000000  0.02498790  1.0
  Sn  Sn939  1  0.39899333  0.08333333  0.02498790  1.0
  Sn  Sn940  1  0.39899333  0.41666667  0.02498790  1.0
  Sn  Sn941  1  0.39899333  0.75000000  0.02498790  1.0
  Sn  Sn942  1  0.73232667  0.08333333  0.02498790  1.0
  Sn  Sn943  1  0.73232667  0.41666667  0.02498790  1.0
  Sn  Sn944  1  0.73232667  0.75000000  0.02498790  1.0
  Sn  Sn945  1  0.06566000  0.25000000  0.12498790  1.0
  Sn  Sn946  1  0.06566000  0.58333333  0.12498790  1.0
  Sn  Sn947  1  0.06566000  0.91666667  0.12498790  1.0
  Sn  Sn948  1  0.39899333  0.25000000  0.12498790  1.0
  Sn  Sn949  1  0.39899333  0.58333333  0.12498790  1.0
  Sn  Sn950  1  0.39899333  0.91666667  0.12498790  1.0
  Sn  Sn951  1  0.73232667  0.25000000  0.12498790  1.0
  Sn  Sn952  1  0.73232667  0.58333333  0.12498790  1.0
  Sn  Sn953  1  0.73232667  0.91666667  0.12498790  1.0
  Sn  Sn954  1  0.32302300  0.08333333  0.12393770  1.0
  Sn  Sn955  1  0.32302300  0.41666667  0.12393770  1.0
  Sn  Sn956  1  0.32302300  0.75000000  0.12393770  1.0
  Sn  Sn957  1  0.65635633  0.08333333  0.12393770  1.0
  Sn  Sn958  1  0.65635633  0.41666667  0.12393770  1.0
  Sn  Sn959  1  0.65635633  0.75000000  0.12393770  1.0
  Sn  Sn960  1  0.98968967  0.08333333  0.12393770  1.0
  Sn  Sn961  1  0.98968967  0.41666667  0.12393770  1.0
  Sn  Sn962  1  0.98968967  0.75000000  0.12393770  1.0
  Sn  Sn963  1  0.32302300  0.25000000  0.02393770  1.0
  Sn  Sn964  1  0.32302300  0.58333333  0.02393770  1.0
  Sn  Sn965  1  0.32302300  0.91666667  0.02393770  1.0
  Sn  Sn966  1  0.65635633  0.25000000  0.02393770  1.0
  Sn  Sn967  1  0.65635633  0.58333333  0.02393770  1.0
  Sn  Sn968  1  0.65635633  0.91666667  0.02393770  1.0
  Sn  Sn969  1  0.98968967  0.25000000  0.02393770  1.0
  Sn  Sn970  1  0.98968967  0.58333333  0.02393770  1.0
  Sn  Sn971  1  0.98968967  0.91666667  0.02393770  1.0
  Sn  Sn972  1  0.21177500  0.08333333  0.12483990  1.0
  Sn  Sn973  1  0.21177500  0.41666667  0.12483990  1.0
  Sn  Sn974  1  0.21177500  0.75000000  0.12483990  1.0
  Sn  Sn975  1  0.54510833  0.08333333  0.12483990  1.0
  Sn  Sn976  1  0.54510833  0.41666667  0.12483990  1.0
  Sn  Sn977  1  0.54510833  0.75000000  0.12483990  1.0
  Sn  Sn978  1  0.87844167  0.08333333  0.12483990  1.0
  Sn  Sn979  1  0.87844167  0.41666667  0.12483990  1.0
  Sn  Sn980  1  0.87844167  0.75000000  0.12483990  1.0
  Sn  Sn981  1  0.21177500  0.25000000  0.02483990  1.0
  Sn  Sn982  1  0.21177500  0.58333333  0.02483990  1.0
  Sn  Sn983  1  0.21177500  0.91666667  0.02483990  1.0
  Sn  Sn984  1  0.54510833  0.25000000  0.02483990  1.0
  Sn  Sn985  1  0.54510833  0.58333333  0.02483990  1.0
  Sn  Sn986  1  0.54510833  0.91666667  0.02483990  1.0
  Sn  Sn987  1  0.87844167  0.25000000  0.02483990  1.0
  Sn  Sn988  1  0.87844167  0.58333333  0.02483990  1.0
  Sn  Sn989  1  0.87844167  0.91666667  0.02483990  1.0
  Sn  Sn990  1  0.10073567  0.08333333  0.12417470  1.0
  Sn  Sn991  1  0.10073567  0.41666667  0.12417470  1.0
  Sn  Sn992  1  0.10073567  0.75000000  0.12417470  1.0
  Sn  Sn993  1  0.43406900  0.08333333  0.12417470  1.0
  Sn  Sn994  1  0.43406900  0.41666667  0.12417470  1.0
  Sn  Sn995  1  0.43406900  0.75000000  0.12417470  1.0
  Sn  Sn996  1  0.76740233  0.08333333  0.12417470  1.0
  Sn  Sn997  1  0.76740233  0.41666667  0.12417470  1.0
  Sn  Sn998  1  0.76740233  0.75000000  0.12417470  1.0
  Sn  Sn999  1  0.10073567  0.25000000  0.02417470  1.0
  Sn  Sn1000  1  0.10073567  0.58333333  0.02417470  1.0
  Sn  Sn1001  1  0.10073567  0.91666667  0.02417470  1.0
  Sn  Sn1002  1  0.43406900  0.25000000  0.02417470  1.0
  Sn  Sn1003  1  0.43406900  0.58333333  0.02417470  1.0
  Sn  Sn1004  1  0.43406900  0.91666667  0.02417470  1.0
  Sn  Sn1005  1  0.76740233  0.25000000  0.02417470  1.0
  Sn  Sn1006  1  0.76740233  0.58333333  0.02417470  1.0
  Sn  Sn1007  1  0.76740233  0.91666667  0.02417470  1.0
  Ni  Ni1008  1  0.26389467  0.04123017  0.35967880  1.0
  Ni  Ni1009  1  0.26389467  0.37456350  0.35967880  1.0
  Ni  Ni1010  1  0.26389467  0.70789683  0.35967880  1.0
  Ni  Ni1011  1  0.59722800  0.04123017  0.35967880  1.0
  Ni  Ni1012  1  0.59722800  0.37456350  0.35967880  1.0
  Ni  Ni1013  1  0.59722800  0.70789683  0.35967880  1.0
  Ni  Ni1014  1  0.93056133  0.04123017  0.35967880  1.0
  Ni  Ni1015  1  0.93056133  0.37456350  0.35967880  1.0
  Ni  Ni1016  1  0.93056133  0.70789683  0.35967880  1.0
  Ni  Ni1017  1  0.26389467  0.20789683  0.25967880  1.0
  Ni  Ni1018  1  0.26389467  0.54123017  0.25967880  1.0
  Ni  Ni1019  1  0.26389467  0.87456350  0.25967880  1.0
  Ni  Ni1020  1  0.59722800  0.20789683  0.25967880  1.0
  Ni  Ni1021  1  0.59722800  0.54123017  0.25967880  1.0
  Ni  Ni1022  1  0.59722800  0.87456350  0.25967880  1.0
  Ni  Ni1023  1  0.93056133  0.20789683  0.25967880  1.0
  Ni  Ni1024  1  0.93056133  0.54123017  0.25967880  1.0
  Ni  Ni1025  1  0.93056133  0.87456350  0.25967880  1.0
  Ni  Ni1026  1  0.15288533  0.04085250  0.35872300  1.0
  Ni  Ni1027  1  0.15288533  0.37418583  0.35872300  1.0
  Ni  Ni1028  1  0.15288533  0.70751917  0.35872300  1.0
  Ni  Ni1029  1  0.48621867  0.04085250  0.35872300  1.0
  Ni  Ni1030  1  0.48621867  0.37418583  0.35872300  1.0
  Ni  Ni1031  1  0.48621867  0.70751917  0.35872300  1.0
  Ni  Ni1032  1  0.81955200  0.04085250  0.35872300  1.0
  Ni  Ni1033  1  0.81955200  0.37418583  0.35872300  1.0
  Ni  Ni1034  1  0.81955200  0.70751917  0.35872300  1.0
  Ni  Ni1035  1  0.15288533  0.20751917  0.25872300  1.0
  Ni  Ni1036  1  0.15288533  0.54085250  0.25872300  1.0
  Ni  Ni1037  1  0.15288533  0.87418583  0.25872300  1.0
  Ni  Ni1038  1  0.48621867  0.20751917  0.25872300  1.0
  Ni  Ni1039  1  0.48621867  0.54085250  0.25872300  1.0
  Ni  Ni1040  1  0.48621867  0.87418583  0.25872300  1.0
  Ni  Ni1041  1  0.81955200  0.20751917  0.25872300  1.0
  Ni  Ni1042  1  0.81955200  0.54085250  0.25872300  1.0
  Ni  Ni1043  1  0.81955200  0.87418583  0.25872300  1.0
  Ni  Ni1044  1  0.04170933  0.04090883  0.35895060  1.0
  Ni  Ni1045  1  0.04170933  0.37424217  0.35895060  1.0
  Ni  Ni1046  1  0.04170933  0.70757550  0.35895060  1.0
  Ni  Ni1047  1  0.37504267  0.04090883  0.35895060  1.0
  Ni  Ni1048  1  0.37504267  0.37424217  0.35895060  1.0
  Ni  Ni1049  1  0.37504267  0.70757550  0.35895060  1.0
  Ni  Ni1050  1  0.70837600  0.04090883  0.35895060  1.0
  Ni  Ni1051  1  0.70837600  0.37424217  0.35895060  1.0
  Ni  Ni1052  1  0.70837600  0.70757550  0.35895060  1.0
  Ni  Ni1053  1  0.04170933  0.20757550  0.25895060  1.0
  Ni  Ni1054  1  0.04170933  0.54090883  0.25895060  1.0
  Ni  Ni1055  1  0.04170933  0.87424217  0.25895060  1.0
  Ni  Ni1056  1  0.37504267  0.20757550  0.25895060  1.0
  Ni  Ni1057  1  0.37504267  0.54090883  0.25895060  1.0
  Ni  Ni1058  1  0.37504267  0.87424217  0.25895060  1.0
  Ni  Ni1059  1  0.70837600  0.20757550  0.25895060  1.0
  Ni  Ni1060  1  0.70837600  0.54090883  0.25895060  1.0
  Ni  Ni1061  1  0.70837600  0.87424217  0.25895060  1.0
  Ni  Ni1062  1  0.23602000  0.12526083  0.31012840  1.0
  Ni  Ni1063  1  0.23602000  0.45859417  0.31012840  1.0
  Ni  Ni1064  1  0.23602000  0.79192750  0.31012840  1.0
  Ni  Ni1065  1  0.56935333  0.12526083  0.31012840  1.0
  Ni  Ni1066  1  0.56935333  0.45859417  0.31012840  1.0
  Ni  Ni1067  1  0.56935333  0.79192750  0.31012840  1.0
  Ni  Ni1068  1  0.90268667  0.12526083  0.31012840  1.0
  Ni  Ni1069  1  0.90268667  0.45859417  0.31012840  1.0
  Ni  Ni1070  1  0.90268667  0.79192750  0.31012840  1.0
  Ni  Ni1071  1  0.23602000  0.29192750  0.21012840  1.0
  Ni  Ni1072  1  0.23602000  0.62526083  0.21012840  1.0
  Ni  Ni1073  1  0.23602000  0.95859417  0.21012840  1.0
  Ni  Ni1074  1  0.56935333  0.29192750  0.21012840  1.0
  Ni  Ni1075  1  0.56935333  0.62526083  0.21012840  1.0
  Ni  Ni1076  1  0.56935333  0.95859417  0.21012840  1.0
  Ni  Ni1077  1  0.90268667  0.29192750  0.21012840  1.0
  Ni  Ni1078  1  0.90268667  0.62526083  0.21012840  1.0
  Ni  Ni1079  1  0.90268667  0.95859417  0.21012840  1.0
  Ni  Ni1080  1  0.12491900  0.12535467  0.30839010  1.0
  Ni  Ni1081  1  0.12491900  0.45868800  0.30839010  1.0
  Ni  Ni1082  1  0.12491900  0.79202133  0.30839010  1.0
  Ni  Ni1083  1  0.45825233  0.12535467  0.30839010  1.0
  Ni  Ni1084  1  0.45825233  0.45868800  0.30839010  1.0
  Ni  Ni1085  1  0.45825233  0.79202133  0.30839010  1.0
  Ni  Ni1086  1  0.79158567  0.12535467  0.30839010  1.0
  Ni  Ni1087  1  0.79158567  0.45868800  0.30839010  1.0
  Ni  Ni1088  1  0.79158567  0.79202133  0.30839010  1.0
  Ni  Ni1089  1  0.12491900  0.29202133  0.20839010  1.0
  Ni  Ni1090  1  0.12491900  0.62535467  0.20839010  1.0
  Ni  Ni1091  1  0.12491900  0.95868800  0.20839010  1.0
  Ni  Ni1092  1  0.45825233  0.29202133  0.20839010  1.0
  Ni  Ni1093  1  0.45825233  0.62535467  0.20839010  1.0
  Ni  Ni1094  1  0.45825233  0.95868800  0.20839010  1.0
  Ni  Ni1095  1  0.79158567  0.29202133  0.20839010  1.0
  Ni  Ni1096  1  0.79158567  0.62535467  0.20839010  1.0
  Ni  Ni1097  1  0.79158567  0.95868800  0.20839010  1.0
  Ni  Ni1098  1  0.01362167  0.12542867  0.30832370  1.0
  Ni  Ni1099  1  0.01362167  0.45876200  0.30832370  1.0
  Ni  Ni1100  1  0.01362167  0.79209533  0.30832370  1.0
  Ni  Ni1101  1  0.34695500  0.12542867  0.30832370  1.0
  Ni  Ni1102  1  0.34695500  0.45876200  0.30832370  1.0
  Ni  Ni1103  1  0.34695500  0.79209533  0.30832370  1.0
  Ni  Ni1104  1  0.68028833  0.12542867  0.30832370  1.0
  Ni  Ni1105  1  0.68028833  0.45876200  0.30832370  1.0
  Ni  Ni1106  1  0.68028833  0.79209533  0.30832370  1.0
  Ni  Ni1107  1  0.01362167  0.29209533  0.20832370  1.0
  Ni  Ni1108  1  0.01362167  0.62542867  0.20832370  1.0
  Ni  Ni1109  1  0.01362167  0.95876200  0.20832370  1.0
  Ni  Ni1110  1  0.34695500  0.29209533  0.20832370  1.0
  Ni  Ni1111  1  0.34695500  0.62542867  0.20832370  1.0
  Ni  Ni1112  1  0.34695500  0.95876200  0.20832370  1.0
  Ni  Ni1113  1  0.68028833  0.29209533  0.20832370  1.0
  Ni  Ni1114  1  0.68028833  0.62542867  0.20832370  1.0
  Ni  Ni1115  1  0.68028833  0.95876200  0.20832370  1.0
  Ni  Ni1116  1  0.29113433  0.12429083  0.31324580  1.0
  Ni  Ni1117  1  0.29113433  0.45762417  0.31324580  1.0
  Ni  Ni1118  1  0.29113433  0.79095750  0.31324580  1.0
  Ni  Ni1119  1  0.62446767  0.12429083  0.31324580  1.0
  Ni  Ni1120  1  0.62446767  0.45762417  0.31324580  1.0
  Ni  Ni1121  1  0.62446767  0.79095750  0.31324580  1.0
  Ni  Ni1122  1  0.95780100  0.12429083  0.31324580  1.0
  Ni  Ni1123  1  0.95780100  0.45762417  0.31324580  1.0
  Ni  Ni1124  1  0.95780100  0.79095750  0.31324580  1.0
  Ni  Ni1125  1  0.29113433  0.29095750  0.21324580  1.0
  Ni  Ni1126  1  0.29113433  0.62429083  0.21324580  1.0
  Ni  Ni1127  1  0.29113433  0.95762417  0.21324580  1.0
  Ni  Ni1128  1  0.62446767  0.29095750  0.21324580  1.0
  Ni  Ni1129  1  0.62446767  0.62429083  0.21324580  1.0
  Ni  Ni1130  1  0.62446767  0.95762417  0.21324580  1.0
  Ni  Ni1131  1  0.95780100  0.29095750  0.21324580  1.0
  Ni  Ni1132  1  0.95780100  0.62429083  0.21324580  1.0
  Ni  Ni1133  1  0.95780100  0.95762417  0.21324580  1.0
  Ni  Ni1134  1  0.18125767  0.12406317  0.31306420  1.0
  Ni  Ni1135  1  0.18125767  0.45739650  0.31306420  1.0
  Ni  Ni1136  1  0.18125767  0.79072983  0.31306420  1.0
  Ni  Ni1137  1  0.51459100  0.12406317  0.31306420  1.0
  Ni  Ni1138  1  0.51459100  0.45739650  0.31306420  1.0
  Ni  Ni1139  1  0.51459100  0.79072983  0.31306420  1.0
  Ni  Ni1140  1  0.84792433  0.12406317  0.31306420  1.0
  Ni  Ni1141  1  0.84792433  0.45739650  0.31306420  1.0
  Ni  Ni1142  1  0.84792433  0.79072983  0.31306420  1.0
  Ni  Ni1143  1  0.18125767  0.29072983  0.21306420  1.0
  Ni  Ni1144  1  0.18125767  0.62406317  0.21306420  1.0
  Ni  Ni1145  1  0.18125767  0.95739650  0.21306420  1.0
  Ni  Ni1146  1  0.51459100  0.29072983  0.21306420  1.0
  Ni  Ni1147  1  0.51459100  0.62406317  0.21306420  1.0
  Ni  Ni1148  1  0.51459100  0.95739650  0.21306420  1.0
  Ni  Ni1149  1  0.84792433  0.29072983  0.21306420  1.0
  Ni  Ni1150  1  0.84792433  0.62406317  0.21306420  1.0
  Ni  Ni1151  1  0.84792433  0.95739650  0.21306420  1.0
  Ni  Ni1152  1  0.06952067  0.12387683  0.31373400  1.0
  Ni  Ni1153  1  0.06952067  0.45721017  0.31373400  1.0
  Ni  Ni1154  1  0.06952067  0.79054350  0.31373400  1.0
  Ni  Ni1155  1  0.40285400  0.12387683  0.31373400  1.0
  Ni  Ni1156  1  0.40285400  0.45721017  0.31373400  1.0
  Ni  Ni1157  1  0.40285400  0.79054350  0.31373400  1.0
  Ni  Ni1158  1  0.73618733  0.12387683  0.31373400  1.0
  Ni  Ni1159  1  0.73618733  0.45721017  0.31373400  1.0
  Ni  Ni1160  1  0.73618733  0.79054350  0.31373400  1.0
  Ni  Ni1161  1  0.06952067  0.29054350  0.21373400  1.0
  Ni  Ni1162  1  0.06952067  0.62387683  0.21373400  1.0
  Ni  Ni1163  1  0.06952067  0.95721017  0.21373400  1.0
  Ni  Ni1164  1  0.40285400  0.29054350  0.21373400  1.0
  Ni  Ni1165  1  0.40285400  0.62387683  0.21373400  1.0
  Ni  Ni1166  1  0.40285400  0.95721017  0.21373400  1.0
  Ni  Ni1167  1  0.73618733  0.29054350  0.21373400  1.0
  Ni  Ni1168  1  0.73618733  0.62387683  0.21373400  1.0
  Ni  Ni1169  1  0.73618733  0.95721017  0.21373400  1.0
  Ni  Ni1170  1  0.31946967  0.04199733  0.36333050  1.0
  Ni  Ni1171  1  0.31946967  0.37533067  0.36333050  1.0
  Ni  Ni1172  1  0.31946967  0.70866400  0.36333050  1.0
  Ni  Ni1173  1  0.65280300  0.04199733  0.36333050  1.0
  Ni  Ni1174  1  0.65280300  0.37533067  0.36333050  1.0
  Ni  Ni1175  1  0.65280300  0.70866400  0.36333050  1.0
  Ni  Ni1176  1  0.98613633  0.04199733  0.36333050  1.0
  Ni  Ni1177  1  0.98613633  0.37533067  0.36333050  1.0
  Ni  Ni1178  1  0.98613633  0.70866400  0.36333050  1.0
  Ni  Ni1179  1  0.31946967  0.20866400  0.26333050  1.0
  Ni  Ni1180  1  0.31946967  0.54199733  0.26333050  1.0
  Ni  Ni1181  1  0.31946967  0.87533067  0.26333050  1.0
  Ni  Ni1182  1  0.65280300  0.20866400  0.26333050  1.0
  Ni  Ni1183  1  0.65280300  0.54199733  0.26333050  1.0
  Ni  Ni1184  1  0.65280300  0.87533067  0.26333050  1.0
  Ni  Ni1185  1  0.98613633  0.20866400  0.26333050  1.0
  Ni  Ni1186  1  0.98613633  0.54199733  0.26333050  1.0
  Ni  Ni1187  1  0.98613633  0.87533067  0.26333050  1.0
  Ni  Ni1188  1  0.20828567  0.04217333  0.36364330  1.0
  Ni  Ni1189  1  0.20828567  0.37550667  0.36364330  1.0
  Ni  Ni1190  1  0.20828567  0.70884000  0.36364330  1.0
  Ni  Ni1191  1  0.54161900  0.04217333  0.36364330  1.0
  Ni  Ni1192  1  0.54161900  0.37550667  0.36364330  1.0
  Ni  Ni1193  1  0.54161900  0.70884000  0.36364330  1.0
  Ni  Ni1194  1  0.87495233  0.04217333  0.36364330  1.0
  Ni  Ni1195  1  0.87495233  0.37550667  0.36364330  1.0
  Ni  Ni1196  1  0.87495233  0.70884000  0.36364330  1.0
  Ni  Ni1197  1  0.20828567  0.20884000  0.26364330  1.0
  Ni  Ni1198  1  0.20828567  0.54217333  0.26364330  1.0
  Ni  Ni1199  1  0.20828567  0.87550667  0.26364330  1.0
  Ni  Ni1200  1  0.54161900  0.20884000  0.26364330  1.0
  Ni  Ni1201  1  0.54161900  0.54217333  0.26364330  1.0
  Ni  Ni1202  1  0.54161900  0.87550667  0.26364330  1.0
  Ni  Ni1203  1  0.87495233  0.20884000  0.26364330  1.0
  Ni  Ni1204  1  0.87495233  0.54217333  0.26364330  1.0
  Ni  Ni1205  1  0.87495233  0.87550667  0.26364330  1.0
  Ni  Ni1206  1  0.09725300  0.04208933  0.36363150  1.0
  Ni  Ni1207  1  0.09725300  0.37542267  0.36363150  1.0
  Ni  Ni1208  1  0.09725300  0.70875600  0.36363150  1.0
  Ni  Ni1209  1  0.43058633  0.04208933  0.36363150  1.0
  Ni  Ni1210  1  0.43058633  0.37542267  0.36363150  1.0
  Ni  Ni1211  1  0.43058633  0.70875600  0.36363150  1.0
  Ni  Ni1212  1  0.76391967  0.04208933  0.36363150  1.0
  Ni  Ni1213  1  0.76391967  0.37542267  0.36363150  1.0
  Ni  Ni1214  1  0.76391967  0.70875600  0.36363150  1.0
  Ni  Ni1215  1  0.09725300  0.20875600  0.26363150  1.0
  Ni  Ni1216  1  0.09725300  0.54208933  0.26363150  1.0
  Ni  Ni1217  1  0.09725300  0.87542267  0.26363150  1.0
  Ni  Ni1218  1  0.43058633  0.20875600  0.26363150  1.0
  Ni  Ni1219  1  0.43058633  0.54208933  0.26363150  1.0
  Ni  Ni1220  1  0.43058633  0.87542267  0.26363150  1.0
  Ni  Ni1221  1  0.76391967  0.20875600  0.26363150  1.0
  Ni  Ni1222  1  0.76391967  0.54208933  0.26363150  1.0
  Ni  Ni1223  1  0.76391967  0.87542267  0.26363150  1.0
  Ni  Ni1224  1  0.29113433  0.04237583  0.26409680  1.0
  Ni  Ni1225  1  0.29113433  0.37570917  0.26409680  1.0
  Ni  Ni1226  1  0.29113433  0.70904250  0.26409680  1.0
  Ni  Ni1227  1  0.62446767  0.04237583  0.26409680  1.0
  Ni  Ni1228  1  0.62446767  0.37570917  0.26409680  1.0
  Ni  Ni1229  1  0.62446767  0.70904250  0.26409680  1.0
  Ni  Ni1230  1  0.95780100  0.04237583  0.26409680  1.0
  Ni  Ni1231  1  0.95780100  0.37570917  0.26409680  1.0
  Ni  Ni1232  1  0.95780100  0.70904250  0.26409680  1.0
  Ni  Ni1233  1  0.29113433  0.20904250  0.36409680  1.0
  Ni  Ni1234  1  0.29113433  0.54237583  0.36409680  1.0
  Ni  Ni1235  1  0.29113433  0.87570917  0.36409680  1.0
  Ni  Ni1236  1  0.62446767  0.20904250  0.36409680  1.0
  Ni  Ni1237  1  0.62446767  0.54237583  0.36409680  1.0
  Ni  Ni1238  1  0.62446767  0.87570917  0.36409680  1.0
  Ni  Ni1239  1  0.95780100  0.20904250  0.36409680  1.0
  Ni  Ni1240  1  0.95780100  0.54237583  0.36409680  1.0
  Ni  Ni1241  1  0.95780100  0.87570917  0.36409680  1.0
  Ni  Ni1242  1  0.18125767  0.04260350  0.26418840  1.0
  Ni  Ni1243  1  0.18125767  0.37593683  0.26418840  1.0
  Ni  Ni1244  1  0.18125767  0.70927017  0.26418840  1.0
  Ni  Ni1245  1  0.51459100  0.04260350  0.26418840  1.0
  Ni  Ni1246  1  0.51459100  0.37593683  0.26418840  1.0
  Ni  Ni1247  1  0.51459100  0.70927017  0.26418840  1.0
  Ni  Ni1248  1  0.84792433  0.04260350  0.26418840  1.0
  Ni  Ni1249  1  0.84792433  0.37593683  0.26418840  1.0
  Ni  Ni1250  1  0.84792433  0.70927017  0.26418840  1.0
  Ni  Ni1251  1  0.18125767  0.20927017  0.36418840  1.0
  Ni  Ni1252  1  0.18125767  0.54260350  0.36418840  1.0
  Ni  Ni1253  1  0.18125767  0.87593683  0.36418840  1.0
  Ni  Ni1254  1  0.51459100  0.20927017  0.36418840  1.0
  Ni  Ni1255  1  0.51459100  0.54260350  0.36418840  1.0
  Ni  Ni1256  1  0.51459100  0.87593683  0.36418840  1.0
  Ni  Ni1257  1  0.84792433  0.20927017  0.36418840  1.0
  Ni  Ni1258  1  0.84792433  0.54260350  0.36418840  1.0
  Ni  Ni1259  1  0.84792433  0.87593683  0.36418840  1.0
  Ni  Ni1260  1  0.06952067  0.04278983  0.26508180  1.0
  Ni  Ni1261  1  0.06952067  0.37612317  0.26508180  1.0
  Ni  Ni1262  1  0.06952067  0.70945650  0.26508180  1.0
  Ni  Ni1263  1  0.40285400  0.04278983  0.26508180  1.0
  Ni  Ni1264  1  0.40285400  0.37612317  0.26508180  1.0
  Ni  Ni1265  1  0.40285400  0.70945650  0.26508180  1.0
  Ni  Ni1266  1  0.73618733  0.04278983  0.26508180  1.0
  Ni  Ni1267  1  0.73618733  0.37612317  0.26508180  1.0
  Ni  Ni1268  1  0.73618733  0.70945650  0.26508180  1.0
  Ni  Ni1269  1  0.06952067  0.20945650  0.36508180  1.0
  Ni  Ni1270  1  0.06952067  0.54278983  0.36508180  1.0
  Ni  Ni1271  1  0.06952067  0.87612317  0.36508180  1.0
  Ni  Ni1272  1  0.40285400  0.20945650  0.36508180  1.0
  Ni  Ni1273  1  0.40285400  0.54278983  0.36508180  1.0
  Ni  Ni1274  1  0.40285400  0.87612317  0.36508180  1.0
  Ni  Ni1275  1  0.73618733  0.20945650  0.36508180  1.0
  Ni  Ni1276  1  0.73618733  0.54278983  0.36508180  1.0
  Ni  Ni1277  1  0.73618733  0.87612317  0.36508180  1.0
  Ni  Ni1278  1  0.31946967  0.12466933  0.21293370  1.0
  Ni  Ni1279  1  0.31946967  0.45800267  0.21293370  1.0
  Ni  Ni1280  1  0.31946967  0.79133600  0.21293370  1.0
  Ni  Ni1281  1  0.65280300  0.12466933  0.21293370  1.0
  Ni  Ni1282  1  0.65280300  0.45800267  0.21293370  1.0
  Ni  Ni1283  1  0.65280300  0.79133600  0.21293370  1.0
  Ni  Ni1284  1  0.98613633  0.12466933  0.21293370  1.0
  Ni  Ni1285  1  0.98613633  0.45800267  0.21293370  1.0
  Ni  Ni1286  1  0.98613633  0.79133600  0.21293370  1.0
  Ni  Ni1287  1  0.31946967  0.29133600  0.31293370  1.0
  Ni  Ni1288  1  0.31946967  0.62466933  0.31293370  1.0
  Ni  Ni1289  1  0.31946967  0.95800267  0.31293370  1.0
  Ni  Ni1290  1  0.65280300  0.29133600  0.31293370  1.0
  Ni  Ni1291  1  0.65280300  0.62466933  0.31293370  1.0
  Ni  Ni1292  1  0.65280300  0.95800267  0.31293370  1.0
  Ni  Ni1293  1  0.98613633  0.29133600  0.31293370  1.0
  Ni  Ni1294  1  0.98613633  0.62466933  0.31293370  1.0
  Ni  Ni1295  1  0.98613633  0.95800267  0.31293370  1.0
  Ni  Ni1296  1  0.20828567  0.12449333  0.21303530  1.0
  Ni  Ni1297  1  0.20828567  0.45782667  0.21303530  1.0
  Ni  Ni1298  1  0.20828567  0.79116000  0.21303530  1.0
  Ni  Ni1299  1  0.54161900  0.12449333  0.21303530  1.0
  Ni  Ni1300  1  0.54161900  0.45782667  0.21303530  1.0
  Ni  Ni1301  1  0.54161900  0.79116000  0.21303530  1.0
  Ni  Ni1302  1  0.87495233  0.12449333  0.21303530  1.0
  Ni  Ni1303  1  0.87495233  0.45782667  0.21303530  1.0
  Ni  Ni1304  1  0.87495233  0.79116000  0.21303530  1.0
  Ni  Ni1305  1  0.20828567  0.29116000  0.31303530  1.0
  Ni  Ni1306  1  0.20828567  0.62449333  0.31303530  1.0
  Ni  Ni1307  1  0.20828567  0.95782667  0.31303530  1.0
  Ni  Ni1308  1  0.54161900  0.29116000  0.31303530  1.0
  Ni  Ni1309  1  0.54161900  0.62449333  0.31303530  1.0
  Ni  Ni1310  1  0.54161900  0.95782667  0.31303530  1.0
  Ni  Ni1311  1  0.87495233  0.29116000  0.31303530  1.0
  Ni  Ni1312  1  0.87495233  0.62449333  0.31303530  1.0
  Ni  Ni1313  1  0.87495233  0.95782667  0.31303530  1.0
  Ni  Ni1314  1  0.09725300  0.12457733  0.21312430  1.0
  Ni  Ni1315  1  0.09725300  0.45791067  0.21312430  1.0
  Ni  Ni1316  1  0.09725300  0.79124400  0.21312430  1.0
  Ni  Ni1317  1  0.43058633  0.12457733  0.21312430  1.0
  Ni  Ni1318  1  0.43058633  0.45791067  0.21312430  1.0
  Ni  Ni1319  1  0.43058633  0.79124400  0.21312430  1.0
  Ni  Ni1320  1  0.76391967  0.12457733  0.21312430  1.0
  Ni  Ni1321  1  0.76391967  0.45791067  0.21312430  1.0
  Ni  Ni1322  1  0.76391967  0.79124400  0.21312430  1.0
  Ni  Ni1323  1  0.09725300  0.29124400  0.31312430  1.0
  Ni  Ni1324  1  0.09725300  0.62457733  0.31312430  1.0
  Ni  Ni1325  1  0.09725300  0.95791067  0.31312430  1.0
  Ni  Ni1326  1  0.43058633  0.29124400  0.31312430  1.0
  Ni  Ni1327  1  0.43058633  0.62457733  0.31312430  1.0
  Ni  Ni1328  1  0.43058633  0.95791067  0.31312430  1.0
  Ni  Ni1329  1  0.76391967  0.29124400  0.31312430  1.0
  Ni  Ni1330  1  0.76391967  0.62457733  0.31312430  1.0
  Ni  Ni1331  1  0.76391967  0.95791067  0.31312430  1.0
  Ni  Ni1332  1  0.26389467  0.12543650  0.21020260  1.0
  Ni  Ni1333  1  0.26389467  0.45876983  0.21020260  1.0
  Ni  Ni1334  1  0.26389467  0.79210317  0.21020260  1.0
  Ni  Ni1335  1  0.59722800  0.12543650  0.21020260  1.0
  Ni  Ni1336  1  0.59722800  0.45876983  0.21020260  1.0
  Ni  Ni1337  1  0.59722800  0.79210317  0.21020260  1.0
  Ni  Ni1338  1  0.93056133  0.12543650  0.21020260  1.0
  Ni  Ni1339  1  0.93056133  0.45876983  0.21020260  1.0
  Ni  Ni1340  1  0.93056133  0.79210317  0.21020260  1.0
  Ni  Ni1341  1  0.26389467  0.29210317  0.31020260  1.0
  Ni  Ni1342  1  0.26389467  0.62543650  0.31020260  1.0
  Ni  Ni1343  1  0.26389467  0.95876983  0.31020260  1.0
  Ni  Ni1344  1  0.59722800  0.29210317  0.31020260  1.0
  Ni  Ni1345  1  0.59722800  0.62543650  0.31020260  1.0
  Ni  Ni1346  1  0.59722800  0.95876983  0.31020260  1.0
  Ni  Ni1347  1  0.93056133  0.29210317  0.31020260  1.0
  Ni  Ni1348  1  0.93056133  0.62543650  0.31020260  1.0
  Ni  Ni1349  1  0.93056133  0.95876983  0.31020260  1.0
  Ni  Ni1350  1  0.15288533  0.12581417  0.20970000  1.0
  Ni  Ni1351  1  0.15288533  0.45914750  0.20970000  1.0
  Ni  Ni1352  1  0.15288533  0.79248083  0.20970000  1.0
  Ni  Ni1353  1  0.48621867  0.12581417  0.20970000  1.0
  Ni  Ni1354  1  0.48621867  0.45914750  0.20970000  1.0
  Ni  Ni1355  1  0.48621867  0.79248083  0.20970000  1.0
  Ni  Ni1356  1  0.81955200  0.12581417  0.20970000  1.0
  Ni  Ni1357  1  0.81955200  0.45914750  0.20970000  1.0
  Ni  Ni1358  1  0.81955200  0.79248083  0.20970000  1.0
  Ni  Ni1359  1  0.15288533  0.29248083  0.30970000  1.0
  Ni  Ni1360  1  0.15288533  0.62581417  0.30970000  1.0
  Ni  Ni1361  1  0.15288533  0.95914750  0.30970000  1.0
  Ni  Ni1362  1  0.48621867  0.29248083  0.30970000  1.0
  Ni  Ni1363  1  0.48621867  0.62581417  0.30970000  1.0
  Ni  Ni1364  1  0.48621867  0.95914750  0.30970000  1.0
  Ni  Ni1365  1  0.81955200  0.29248083  0.30970000  1.0
  Ni  Ni1366  1  0.81955200  0.62581417  0.30970000  1.0
  Ni  Ni1367  1  0.81955200  0.95914750  0.30970000  1.0
  Ni  Ni1368  1  0.04170933  0.12575783  0.20986000  1.0
  Ni  Ni1369  1  0.04170933  0.45909117  0.20986000  1.0
  Ni  Ni1370  1  0.04170933  0.79242450  0.20986000  1.0
  Ni  Ni1371  1  0.37504267  0.12575783  0.20986000  1.0
  Ni  Ni1372  1  0.37504267  0.45909117  0.20986000  1.0
  Ni  Ni1373  1  0.37504267  0.79242450  0.20986000  1.0
  Ni  Ni1374  1  0.70837600  0.12575783  0.20986000  1.0
  Ni  Ni1375  1  0.70837600  0.45909117  0.20986000  1.0
  Ni  Ni1376  1  0.70837600  0.79242450  0.20986000  1.0
  Ni  Ni1377  1  0.04170933  0.29242450  0.30986000  1.0
  Ni  Ni1378  1  0.04170933  0.62575783  0.30986000  1.0
  Ni  Ni1379  1  0.04170933  0.95909117  0.30986000  1.0
  Ni  Ni1380  1  0.37504267  0.29242450  0.30986000  1.0
  Ni  Ni1381  1  0.37504267  0.62575783  0.30986000  1.0
  Ni  Ni1382  1  0.37504267  0.95909117  0.30986000  1.0
  Ni  Ni1383  1  0.70837600  0.29242450  0.30986000  1.0
  Ni  Ni1384  1  0.70837600  0.62575783  0.30986000  1.0
  Ni  Ni1385  1  0.70837600  0.95909117  0.30986000  1.0
  Ni  Ni1386  1  0.23602000  0.04140583  0.25981540  1.0
  Ni  Ni1387  1  0.23602000  0.37473917  0.25981540  1.0
  Ni  Ni1388  1  0.23602000  0.70807250  0.25981540  1.0
  Ni  Ni1389  1  0.56935333  0.04140583  0.25981540  1.0
  Ni  Ni1390  1  0.56935333  0.37473917  0.25981540  1.0
  Ni  Ni1391  1  0.56935333  0.70807250  0.25981540  1.0
  Ni  Ni1392  1  0.90268667  0.04140583  0.25981540  1.0
  Ni  Ni1393  1  0.90268667  0.37473917  0.25981540  1.0
  Ni  Ni1394  1  0.90268667  0.70807250  0.25981540  1.0
  Ni  Ni1395  1  0.23602000  0.20807250  0.35981540  1.0
  Ni  Ni1396  1  0.23602000  0.54140583  0.35981540  1.0
  Ni  Ni1397  1  0.23602000  0.87473917  0.35981540  1.0
  Ni  Ni1398  1  0.56935333  0.20807250  0.35981540  1.0
  Ni  Ni1399  1  0.56935333  0.54140583  0.35981540  1.0
  Ni  Ni1400  1  0.56935333  0.87473917  0.35981540  1.0
  Ni  Ni1401  1  0.90268667  0.20807250  0.35981540  1.0
  Ni  Ni1402  1  0.90268667  0.54140583  0.35981540  1.0
  Ni  Ni1403  1  0.90268667  0.87473917  0.35981540  1.0
  Ni  Ni1404  1  0.12491900  0.04131200  0.25796450  1.0
  Ni  Ni1405  1  0.12491900  0.37464533  0.25796450  1.0
  Ni  Ni1406  1  0.12491900  0.70797867  0.25796450  1.0
  Ni  Ni1407  1  0.45825233  0.04131200  0.25796450  1.0
  Ni  Ni1408  1  0.45825233  0.37464533  0.25796450  1.0
  Ni  Ni1409  1  0.45825233  0.70797867  0.25796450  1.0
  Ni  Ni1410  1  0.79158567  0.04131200  0.25796450  1.0
  Ni  Ni1411  1  0.79158567  0.37464533  0.25796450  1.0
  Ni  Ni1412  1  0.79158567  0.70797867  0.25796450  1.0
  Ni  Ni1413  1  0.12491900  0.20797867  0.35796450  1.0
  Ni  Ni1414  1  0.12491900  0.54131200  0.35796450  1.0
  Ni  Ni1415  1  0.12491900  0.87464533  0.35796450  1.0
  Ni  Ni1416  1  0.45825233  0.20797867  0.35796450  1.0
  Ni  Ni1417  1  0.45825233  0.54131200  0.35796450  1.0
  Ni  Ni1418  1  0.45825233  0.87464533  0.35796450  1.0
  Ni  Ni1419  1  0.79158567  0.20797867  0.35796450  1.0
  Ni  Ni1420  1  0.79158567  0.54131200  0.35796450  1.0
  Ni  Ni1421  1  0.79158567  0.87464533  0.35796450  1.0
  Ni  Ni1422  1  0.01362167  0.04123800  0.25780930  1.0
  Ni  Ni1423  1  0.01362167  0.37457133  0.25780930  1.0
  Ni  Ni1424  1  0.01362167  0.70790467  0.25780930  1.0
  Ni  Ni1425  1  0.34695500  0.04123800  0.25780930  1.0
  Ni  Ni1426  1  0.34695500  0.37457133  0.25780930  1.0
  Ni  Ni1427  1  0.34695500  0.70790467  0.25780930  1.0
  Ni  Ni1428  1  0.68028833  0.04123800  0.25780930  1.0
  Ni  Ni1429  1  0.68028833  0.37457133  0.25780930  1.0
  Ni  Ni1430  1  0.68028833  0.70790467  0.25780930  1.0
  Ni  Ni1431  1  0.01362167  0.20790467  0.35780930  1.0
  Ni  Ni1432  1  0.01362167  0.54123800  0.35780930  1.0
  Ni  Ni1433  1  0.01362167  0.87457133  0.35780930  1.0
  Ni  Ni1434  1  0.34695500  0.20790467  0.35780930  1.0
  Ni  Ni1435  1  0.34695500  0.54123800  0.35780930  1.0
  Ni  Ni1436  1  0.34695500  0.87457133  0.35780930  1.0
  Ni  Ni1437  1  0.68028833  0.20790467  0.35780930  1.0
  Ni  Ni1438  1  0.68028833  0.54123800  0.35780930  1.0
  Ni  Ni1439  1  0.68028833  0.87457133  0.35780930  1.0
  Ni  Ni1440  1  0.12565667  0.16666667  0.26738810  1.0
  Ni  Ni1441  1  0.12565667  0.50000000  0.26738810  1.0
  Ni  Ni1442  1  0.12565667  0.83333333  0.26738810  1.0
  Ni  Ni1443  1  0.45899000  0.16666667  0.26738810  1.0
  Ni  Ni1444  1  0.45899000  0.50000000  0.26738810  1.0
  Ni  Ni1445  1  0.45899000  0.83333333  0.26738810  1.0
  Ni  Ni1446  1  0.79232333  0.16666667  0.26738810  1.0
  Ni  Ni1447  1  0.79232333  0.50000000  0.26738810  1.0
  Ni  Ni1448  1  0.79232333  0.83333333  0.26738810  1.0
  Ni  Ni1449  1  0.12565667  0.00000000  0.36738810  1.0
  Ni  Ni1450  1  0.12565667  0.33333333  0.36738810  1.0
  Ni  Ni1451  1  0.12565667  0.66666667  0.36738810  1.0
  Ni  Ni1452  1  0.45899000  0.00000000  0.36738810  1.0
  Ni  Ni1453  1  0.45899000  0.33333333  0.36738810  1.0
  Ni  Ni1454  1  0.45899000  0.66666667  0.36738810  1.0
  Ni  Ni1455  1  0.79232333  0.00000000  0.36738810  1.0
  Ni  Ni1456  1  0.79232333  0.33333333  0.36738810  1.0
  Ni  Ni1457  1  0.79232333  0.66666667  0.36738810  1.0
  Ni  Ni1458  1  0.01433133  0.16666667  0.26732910  1.0
  Ni  Ni1459  1  0.01433133  0.50000000  0.26732910  1.0
  Ni  Ni1460  1  0.01433133  0.83333333  0.26732910  1.0
  Ni  Ni1461  1  0.34766467  0.16666667  0.26732910  1.0
  Ni  Ni1462  1  0.34766467  0.50000000  0.26732910  1.0
  Ni  Ni1463  1  0.34766467  0.83333333  0.26732910  1.0
  Ni  Ni1464  1  0.68099800  0.16666667  0.26732910  1.0
  Ni  Ni1465  1  0.68099800  0.50000000  0.26732910  1.0
  Ni  Ni1466  1  0.68099800  0.83333333  0.26732910  1.0
  Ni  Ni1467  1  0.01433133  0.00000000  0.36732910  1.0
  Ni  Ni1468  1  0.01433133  0.33333333  0.36732910  1.0
  Ni  Ni1469  1  0.01433133  0.66666667  0.36732910  1.0
  Ni  Ni1470  1  0.34766467  0.00000000  0.36732910  1.0
  Ni  Ni1471  1  0.34766467  0.33333333  0.36732910  1.0
  Ni  Ni1472  1  0.34766467  0.66666667  0.36732910  1.0
  Ni  Ni1473  1  0.68099800  0.00000000  0.36732910  1.0
  Ni  Ni1474  1  0.68099800  0.33333333  0.36732910  1.0
  Ni  Ni1475  1  0.68099800  0.66666667  0.36732910  1.0
  Ni  Ni1476  1  0.29208067  0.08333333  0.35422370  1.0
  Ni  Ni1477  1  0.29208067  0.41666667  0.35422370  1.0
  Ni  Ni1478  1  0.29208067  0.75000000  0.35422370  1.0
  Ni  Ni1479  1  0.62541400  0.08333333  0.35422370  1.0
  Ni  Ni1480  1  0.62541400  0.41666667  0.35422370  1.0
  Ni  Ni1481  1  0.62541400  0.75000000  0.35422370  1.0
  Ni  Ni1482  1  0.95874733  0.08333333  0.35422370  1.0
  Ni  Ni1483  1  0.95874733  0.41666667  0.35422370  1.0
  Ni  Ni1484  1  0.95874733  0.75000000  0.35422370  1.0
  Ni  Ni1485  1  0.29208067  0.25000000  0.25422370  1.0
  Ni  Ni1486  1  0.29208067  0.58333333  0.25422370  1.0
  Ni  Ni1487  1  0.29208067  0.91666667  0.25422370  1.0
  Ni  Ni1488  1  0.62541400  0.25000000  0.25422370  1.0
  Ni  Ni1489  1  0.62541400  0.58333333  0.25422370  1.0
  Ni  Ni1490  1  0.62541400  0.91666667  0.25422370  1.0
  Ni  Ni1491  1  0.95874733  0.25000000  0.25422370  1.0
  Ni  Ni1492  1  0.95874733  0.58333333  0.25422370  1.0
  Ni  Ni1493  1  0.95874733  0.91666667  0.25422370  1.0
  Ni  Ni1494  1  0.18020267  0.08333333  0.35392210  1.0
  Ni  Ni1495  1  0.18020267  0.41666667  0.35392210  1.0
  Ni  Ni1496  1  0.18020267  0.75000000  0.35392210  1.0
  Ni  Ni1497  1  0.51353600  0.08333333  0.35392210  1.0
  Ni  Ni1498  1  0.51353600  0.41666667  0.35392210  1.0
  Ni  Ni1499  1  0.51353600  0.75000000  0.35392210  1.0
  Ni  Ni1500  1  0.84686933  0.08333333  0.35392210  1.0
  Ni  Ni1501  1  0.84686933  0.41666667  0.35392210  1.0
  Ni  Ni1502  1  0.84686933  0.75000000  0.35392210  1.0
  Ni  Ni1503  1  0.18020267  0.25000000  0.25392210  1.0
  Ni  Ni1504  1  0.18020267  0.58333333  0.25392210  1.0
  Ni  Ni1505  1  0.18020267  0.91666667  0.25392210  1.0
  Ni  Ni1506  1  0.51353600  0.25000000  0.25392210  1.0
  Ni  Ni1507  1  0.51353600  0.58333333  0.25392210  1.0
  Ni  Ni1508  1  0.51353600  0.91666667  0.25392210  1.0
  Ni  Ni1509  1  0.84686933  0.25000000  0.25392210  1.0
  Ni  Ni1510  1  0.84686933  0.58333333  0.25392210  1.0
  Ni  Ni1511  1  0.84686933  0.91666667  0.25392210  1.0
  Ni  Ni1512  1  0.06955033  0.08333333  0.35454390  1.0
  Ni  Ni1513  1  0.06955033  0.41666667  0.35454390  1.0
  Ni  Ni1514  1  0.06955033  0.75000000  0.35454390  1.0
  Ni  Ni1515  1  0.40288367  0.08333333  0.35454390  1.0
  Ni  Ni1516  1  0.40288367  0.41666667  0.35454390  1.0
  Ni  Ni1517  1  0.40288367  0.75000000  0.35454390  1.0
  Ni  Ni1518  1  0.73621700  0.08333333  0.35454390  1.0
  Ni  Ni1519  1  0.73621700  0.41666667  0.35454390  1.0
  Ni  Ni1520  1  0.73621700  0.75000000  0.35454390  1.0
  Ni  Ni1521  1  0.06955033  0.25000000  0.25454390  1.0
  Ni  Ni1522  1  0.06955033  0.58333333  0.25454390  1.0
  Ni  Ni1523  1  0.06955033  0.91666667  0.25454390  1.0
  Ni  Ni1524  1  0.40288367  0.25000000  0.25454390  1.0
  Ni  Ni1525  1  0.40288367  0.58333333  0.25454390  1.0
  Ni  Ni1526  1  0.40288367  0.91666667  0.25454390  1.0
  Ni  Ni1527  1  0.73621700  0.25000000  0.25454390  1.0
  Ni  Ni1528  1  0.73621700  0.58333333  0.25454390  1.0
  Ni  Ni1529  1  0.73621700  0.91666667  0.25454390  1.0
  Ni  Ni1530  1  0.31905367  0.08333333  0.25382950  1.0
  Ni  Ni1531  1  0.31905367  0.41666667  0.25382950  1.0
  Ni  Ni1532  1  0.31905367  0.75000000  0.25382950  1.0
  Ni  Ni1533  1  0.65238700  0.08333333  0.25382950  1.0
  Ni  Ni1534  1  0.65238700  0.41666667  0.25382950  1.0
  Ni  Ni1535  1  0.65238700  0.75000000  0.25382950  1.0
  Ni  Ni1536  1  0.98572033  0.08333333  0.25382950  1.0
  Ni  Ni1537  1  0.98572033  0.41666667  0.25382950  1.0
  Ni  Ni1538  1  0.98572033  0.75000000  0.25382950  1.0
  Ni  Ni1539  1  0.31905367  0.25000000  0.35382950  1.0
  Ni  Ni1540  1  0.31905367  0.58333333  0.35382950  1.0
  Ni  Ni1541  1  0.31905367  0.91666667  0.35382950  1.0
  Ni  Ni1542  1  0.65238700  0.25000000  0.35382950  1.0
  Ni  Ni1543  1  0.65238700  0.58333333  0.35382950  1.0
  Ni  Ni1544  1  0.65238700  0.91666667  0.35382950  1.0
  Ni  Ni1545  1  0.98572033  0.25000000  0.35382950  1.0
  Ni  Ni1546  1  0.98572033  0.58333333  0.35382950  1.0
  Ni  Ni1547  1  0.98572033  0.91666667  0.35382950  1.0
  Ni  Ni1548  1  0.20857800  0.08333333  0.25378230  1.0
  Ni  Ni1549  1  0.20857800  0.41666667  0.25378230  1.0
  Ni  Ni1550  1  0.20857800  0.75000000  0.25378230  1.0
  Ni  Ni1551  1  0.54191133  0.08333333  0.25378230  1.0
  Ni  Ni1552  1  0.54191133  0.41666667  0.25378230  1.0
  Ni  Ni1553  1  0.54191133  0.75000000  0.25378230  1.0
  Ni  Ni1554  1  0.87524467  0.08333333  0.25378230  1.0
  Ni  Ni1555  1  0.87524467  0.41666667  0.25378230  1.0
  Ni  Ni1556  1  0.87524467  0.75000000  0.25378230  1.0
  Ni  Ni1557  1  0.20857800  0.25000000  0.35378230  1.0
  Ni  Ni1558  1  0.20857800  0.58333333  0.35378230  1.0
  Ni  Ni1559  1  0.20857800  0.91666667  0.35378230  1.0
  Ni  Ni1560  1  0.54191133  0.25000000  0.35378230  1.0
  Ni  Ni1561  1  0.54191133  0.58333333  0.35378230  1.0
  Ni  Ni1562  1  0.54191133  0.91666667  0.35378230  1.0
  Ni  Ni1563  1  0.87524467  0.25000000  0.35378230  1.0
  Ni  Ni1564  1  0.87524467  0.58333333  0.35378230  1.0
  Ni  Ni1565  1  0.87524467  0.91666667  0.35378230  1.0
  Ni  Ni1566  1  0.09708767  0.08333333  0.25382370  1.0
  Ni  Ni1567  1  0.09708767  0.41666667  0.25382370  1.0
  Ni  Ni1568  1  0.09708767  0.75000000  0.25382370  1.0
  Ni  Ni1569  1  0.43042100  0.08333333  0.25382370  1.0
  Ni  Ni1570  1  0.43042100  0.41666667  0.25382370  1.0
  Ni  Ni1571  1  0.43042100  0.75000000  0.25382370  1.0
  Ni  Ni1572  1  0.76375433  0.08333333  0.25382370  1.0
  Ni  Ni1573  1  0.76375433  0.41666667  0.25382370  1.0
  Ni  Ni1574  1  0.76375433  0.75000000  0.25382370  1.0
  Ni  Ni1575  1  0.09708767  0.25000000  0.35382370  1.0
  Ni  Ni1576  1  0.09708767  0.58333333  0.35382370  1.0
  Ni  Ni1577  1  0.09708767  0.91666667  0.35382370  1.0
  Ni  Ni1578  1  0.43042100  0.25000000  0.35382370  1.0
  Ni  Ni1579  1  0.43042100  0.58333333  0.35382370  1.0
  Ni  Ni1580  1  0.43042100  0.91666667  0.35382370  1.0
  Ni  Ni1581  1  0.76375433  0.25000000  0.35382370  1.0
  Ni  Ni1582  1  0.76375433  0.58333333  0.35382370  1.0
  Ni  Ni1583  1  0.76375433  0.91666667  0.35382370  1.0
  Sn  Sn1584  1  0.31695300  0.16666667  0.30476690  1.0
  Sn  Sn1585  1  0.31695300  0.50000000  0.30476690  1.0
  Sn  Sn1586  1  0.31695300  0.83333333  0.30476690  1.0
  Sn  Sn1587  1  0.65028633  0.16666667  0.30476690  1.0
  Sn  Sn1588  1  0.65028633  0.50000000  0.30476690  1.0
  Sn  Sn1589  1  0.65028633  0.83333333  0.30476690  1.0
  Sn  Sn1590  1  0.98361967  0.16666667  0.30476690  1.0
  Sn  Sn1591  1  0.98361967  0.50000000  0.30476690  1.0
  Sn  Sn1592  1  0.98361967  0.83333333  0.30476690  1.0
  Sn  Sn1593  1  0.31695300  0.00000000  0.20476690  1.0
  Sn  Sn1594  1  0.31695300  0.33333333  0.20476690  1.0
  Sn  Sn1595  1  0.31695300  0.66666667  0.20476690  1.0
  Sn  Sn1596  1  0.65028633  0.00000000  0.20476690  1.0
  Sn  Sn1597  1  0.65028633  0.33333333  0.20476690  1.0
  Sn  Sn1598  1  0.65028633  0.66666667  0.20476690  1.0
  Sn  Sn1599  1  0.98361967  0.00000000  0.20476690  1.0
  Sn  Sn1600  1  0.98361967  0.33333333  0.20476690  1.0
  Sn  Sn1601  1  0.98361967  0.66666667  0.20476690  1.0
  Sn  Sn1602  1  0.20820700  0.16666667  0.30307530  1.0
  Sn  Sn1603  1  0.20820700  0.50000000  0.30307530  1.0
  Sn  Sn1604  1  0.20820700  0.83333333  0.30307530  1.0
  Sn  Sn1605  1  0.54154033  0.16666667  0.30307530  1.0
  Sn  Sn1606  1  0.54154033  0.50000000  0.30307530  1.0
  Sn  Sn1607  1  0.54154033  0.83333333  0.30307530  1.0
  Sn  Sn1608  1  0.87487367  0.16666667  0.30307530  1.0
  Sn  Sn1609  1  0.87487367  0.50000000  0.30307530  1.0
  Sn  Sn1610  1  0.87487367  0.83333333  0.30307530  1.0
  Sn  Sn1611  1  0.20820700  0.00000000  0.20307530  1.0
  Sn  Sn1612  1  0.20820700  0.33333333  0.20307530  1.0
  Sn  Sn1613  1  0.20820700  0.66666667  0.20307530  1.0
  Sn  Sn1614  1  0.54154033  0.00000000  0.20307530  1.0
  Sn  Sn1615  1  0.54154033  0.33333333  0.20307530  1.0
  Sn  Sn1616  1  0.54154033  0.66666667  0.20307530  1.0
  Sn  Sn1617  1  0.87487367  0.00000000  0.20307530  1.0
  Sn  Sn1618  1  0.87487367  0.33333333  0.20307530  1.0
  Sn  Sn1619  1  0.87487367  0.66666667  0.20307530  1.0
  Sn  Sn1620  1  0.09513433  0.16666667  0.30486350  1.0
  Sn  Sn1621  1  0.09513433  0.50000000  0.30486350  1.0
  Sn  Sn1622  1  0.09513433  0.83333333  0.30486350  1.0
  Sn  Sn1623  1  0.42846767  0.16666667  0.30486350  1.0
  Sn  Sn1624  1  0.42846767  0.50000000  0.30486350  1.0
  Sn  Sn1625  1  0.42846767  0.83333333  0.30486350  1.0
  Sn  Sn1626  1  0.76180100  0.16666667  0.30486350  1.0
  Sn  Sn1627  1  0.76180100  0.50000000  0.30486350  1.0
  Sn  Sn1628  1  0.76180100  0.83333333  0.30486350  1.0
  Sn  Sn1629  1  0.09513433  0.00000000  0.20486350  1.0
  Sn  Sn1630  1  0.09513433  0.33333333  0.20486350  1.0
  Sn  Sn1631  1  0.09513433  0.66666667  0.20486350  1.0
  Sn  Sn1632  1  0.42846767  0.00000000  0.20486350  1.0
  Sn  Sn1633  1  0.42846767  0.33333333  0.20486350  1.0
  Sn  Sn1634  1  0.42846767  0.66666667  0.20486350  1.0
  Sn  Sn1635  1  0.76180100  0.00000000  0.20486350  1.0
  Sn  Sn1636  1  0.76180100  0.33333333  0.20486350  1.0
  Sn  Sn1637  1  0.76180100  0.66666667  0.20486350  1.0
  Sn  Sn1638  1  0.29200633  0.16666667  0.20344170  1.0
  Sn  Sn1639  1  0.29200633  0.50000000  0.20344170  1.0
  Sn  Sn1640  1  0.29200633  0.83333333  0.20344170  1.0
  Sn  Sn1641  1  0.62533967  0.16666667  0.20344170  1.0
  Sn  Sn1642  1  0.62533967  0.50000000  0.20344170  1.0
  Sn  Sn1643  1  0.62533967  0.83333333  0.20344170  1.0
  Sn  Sn1644  1  0.95867300  0.16666667  0.20344170  1.0
  Sn  Sn1645  1  0.95867300  0.50000000  0.20344170  1.0
  Sn  Sn1646  1  0.95867300  0.83333333  0.20344170  1.0
  Sn  Sn1647  1  0.29200633  0.00000000  0.30344170  1.0
  Sn  Sn1648  1  0.29200633  0.33333333  0.30344170  1.0
  Sn  Sn1649  1  0.29200633  0.66666667  0.30344170  1.0
  Sn  Sn1650  1  0.62533967  0.00000000  0.30344170  1.0
  Sn  Sn1651  1  0.62533967  0.33333333  0.30344170  1.0
  Sn  Sn1652  1  0.62533967  0.66666667  0.30344170  1.0
  Sn  Sn1653  1  0.95867300  0.00000000  0.30344170  1.0
  Sn  Sn1654  1  0.95867300  0.33333333  0.30344170  1.0
  Sn  Sn1655  1  0.95867300  0.66666667  0.30344170  1.0
  Sn  Sn1656  1  0.18125133  0.16666667  0.20359950  1.0
  Sn  Sn1657  1  0.18125133  0.50000000  0.20359950  1.0
  Sn  Sn1658  1  0.18125133  0.83333333  0.20359950  1.0
  Sn  Sn1659  1  0.51458467  0.16666667  0.20359950  1.0
  Sn  Sn1660  1  0.51458467  0.50000000  0.20359950  1.0
  Sn  Sn1661  1  0.51458467  0.83333333  0.20359950  1.0
  Sn  Sn1662  1  0.84791800  0.16666667  0.20359950  1.0
  Sn  Sn1663  1  0.84791800  0.50000000  0.20359950  1.0
  Sn  Sn1664  1  0.84791800  0.83333333  0.20359950  1.0
  Sn  Sn1665  1  0.18125133  0.00000000  0.30359950  1.0
  Sn  Sn1666  1  0.18125133  0.33333333  0.30359950  1.0
  Sn  Sn1667  1  0.18125133  0.66666667  0.30359950  1.0
  Sn  Sn1668  1  0.51458467  0.00000000  0.30359950  1.0
  Sn  Sn1669  1  0.51458467  0.33333333  0.30359950  1.0
  Sn  Sn1670  1  0.51458467  0.66666667  0.30359950  1.0
  Sn  Sn1671  1  0.84791800  0.00000000  0.30359950  1.0
  Sn  Sn1672  1  0.84791800  0.33333333  0.30359950  1.0
  Sn  Sn1673  1  0.84791800  0.66666667  0.30359950  1.0
  Sn  Sn1674  1  0.07004700  0.16666667  0.20413930  1.0
  Sn  Sn1675  1  0.07004700  0.50000000  0.20413930  1.0
  Sn  Sn1676  1  0.07004700  0.83333333  0.20413930  1.0
  Sn  Sn1677  1  0.40338033  0.16666667  0.20413930  1.0
  Sn  Sn1678  1  0.40338033  0.50000000  0.20413930  1.0
  Sn  Sn1679  1  0.40338033  0.83333333  0.20413930  1.0
  Sn  Sn1680  1  0.73671367  0.16666667  0.20413930  1.0
  Sn  Sn1681  1  0.73671367  0.50000000  0.20413930  1.0
  Sn  Sn1682  1  0.73671367  0.83333333  0.20413930  1.0
  Sn  Sn1683  1  0.07004700  0.00000000  0.30413930  1.0
  Sn  Sn1684  1  0.07004700  0.33333333  0.30413930  1.0
  Sn  Sn1685  1  0.07004700  0.66666667  0.30413930  1.0
  Sn  Sn1686  1  0.40338033  0.00000000  0.30413930  1.0
  Sn  Sn1687  1  0.40338033  0.33333333  0.30413930  1.0
  Sn  Sn1688  1  0.40338033  0.66666667  0.30413930  1.0
  Sn  Sn1689  1  0.73671367  0.00000000  0.30413930  1.0
  Sn  Sn1690  1  0.73671367  0.33333333  0.30413930  1.0
  Sn  Sn1691  1  0.73671367  0.66666667  0.30413930  1.0
  Sn  Sn1692  1  0.23785600  0.08333333  0.21681230  1.0
  Sn  Sn1693  1  0.23785600  0.41666667  0.21681230  1.0
  Sn  Sn1694  1  0.23785600  0.75000000  0.21681230  1.0
  Sn  Sn1695  1  0.57118933  0.08333333  0.21681230  1.0
  Sn  Sn1696  1  0.57118933  0.41666667  0.21681230  1.0
  Sn  Sn1697  1  0.57118933  0.75000000  0.21681230  1.0
  Sn  Sn1698  1  0.90452267  0.08333333  0.21681230  1.0
  Sn  Sn1699  1  0.90452267  0.41666667  0.21681230  1.0
  Sn  Sn1700  1  0.90452267  0.75000000  0.21681230  1.0
  Sn  Sn1701  1  0.23785600  0.25000000  0.31681230  1.0
  Sn  Sn1702  1  0.23785600  0.58333333  0.31681230  1.0
  Sn  Sn1703  1  0.23785600  0.91666667  0.31681230  1.0
  Sn  Sn1704  1  0.57118933  0.25000000  0.31681230  1.0
  Sn  Sn1705  1  0.57118933  0.58333333  0.31681230  1.0
  Sn  Sn1706  1  0.57118933  0.91666667  0.31681230  1.0
  Sn  Sn1707  1  0.90452267  0.25000000  0.31681230  1.0
  Sn  Sn1708  1  0.90452267  0.58333333  0.31681230  1.0
  Sn  Sn1709  1  0.90452267  0.91666667  0.31681230  1.0
  Sn  Sn1710  1  0.12681833  0.08333333  0.21614550  1.0
  Sn  Sn1711  1  0.12681833  0.41666667  0.21614550  1.0
  Sn  Sn1712  1  0.12681833  0.75000000  0.21614550  1.0
  Sn  Sn1713  1  0.46015167  0.08333333  0.21614550  1.0
  Sn  Sn1714  1  0.46015167  0.41666667  0.21614550  1.0
  Sn  Sn1715  1  0.46015167  0.75000000  0.21614550  1.0
  Sn  Sn1716  1  0.79348500  0.08333333  0.21614550  1.0
  Sn  Sn1717  1  0.79348500  0.41666667  0.21614550  1.0
  Sn  Sn1718  1  0.79348500  0.75000000  0.21614550  1.0
  Sn  Sn1719  1  0.12681833  0.25000000  0.31614550  1.0
  Sn  Sn1720  1  0.12681833  0.58333333  0.31614550  1.0
  Sn  Sn1721  1  0.12681833  0.91666667  0.31614550  1.0
  Sn  Sn1722  1  0.46015167  0.25000000  0.31614550  1.0
  Sn  Sn1723  1  0.46015167  0.58333333  0.31614550  1.0
  Sn  Sn1724  1  0.46015167  0.91666667  0.31614550  1.0
  Sn  Sn1725  1  0.79348500  0.25000000  0.31614550  1.0
  Sn  Sn1726  1  0.79348500  0.58333333  0.31614550  1.0
  Sn  Sn1727  1  0.79348500  0.91666667  0.31614550  1.0
  Sn  Sn1728  1  0.01548633  0.08333333  0.21616150  1.0
  Sn  Sn1729  1  0.01548633  0.41666667  0.21616150  1.0
  Sn  Sn1730  1  0.01548633  0.75000000  0.21616150  1.0
  Sn  Sn1731  1  0.34881967  0.08333333  0.21616150  1.0
  Sn  Sn1732  1  0.34881967  0.41666667  0.21616150  1.0
  Sn  Sn1733  1  0.34881967  0.75000000  0.21616150  1.0
  Sn  Sn1734  1  0.68215300  0.08333333  0.21616150  1.0
  Sn  Sn1735  1  0.68215300  0.41666667  0.21616150  1.0
  Sn  Sn1736  1  0.68215300  0.75000000  0.21616150  1.0
  Sn  Sn1737  1  0.01548633  0.25000000  0.31616150  1.0
  Sn  Sn1738  1  0.01548633  0.58333333  0.31616150  1.0
  Sn  Sn1739  1  0.01548633  0.91666667  0.31616150  1.0
  Sn  Sn1740  1  0.34881967  0.25000000  0.31616150  1.0
  Sn  Sn1741  1  0.34881967  0.58333333  0.31616150  1.0
  Sn  Sn1742  1  0.34881967  0.91666667  0.31616150  1.0
  Sn  Sn1743  1  0.68215300  0.25000000  0.31616150  1.0
  Sn  Sn1744  1  0.68215300  0.58333333  0.31616150  1.0
  Sn  Sn1745  1  0.68215300  0.91666667  0.31616150  1.0
  Sn  Sn1746  1  0.26213800  0.08333333  0.31768350  1.0
  Sn  Sn1747  1  0.26213800  0.41666667  0.31768350  1.0
  Sn  Sn1748  1  0.26213800  0.75000000  0.31768350  1.0
  Sn  Sn1749  1  0.59547133  0.08333333  0.31768350  1.0
  Sn  Sn1750  1  0.59547133  0.41666667  0.31768350  1.0
  Sn  Sn1751  1  0.59547133  0.75000000  0.31768350  1.0
  Sn  Sn1752  1  0.92880467  0.08333333  0.31768350  1.0
  Sn  Sn1753  1  0.92880467  0.41666667  0.31768350  1.0
  Sn  Sn1754  1  0.92880467  0.75000000  0.31768350  1.0
  Sn  Sn1755  1  0.26213800  0.25000000  0.21768350  1.0
  Sn  Sn1756  1  0.26213800  0.58333333  0.21768350  1.0
  Sn  Sn1757  1  0.26213800  0.91666667  0.21768350  1.0
  Sn  Sn1758  1  0.59547133  0.25000000  0.21768350  1.0
  Sn  Sn1759  1  0.59547133  0.58333333  0.21768350  1.0
  Sn  Sn1760  1  0.59547133  0.91666667  0.21768350  1.0
  Sn  Sn1761  1  0.92880467  0.25000000  0.21768350  1.0
  Sn  Sn1762  1  0.92880467  0.58333333  0.21768350  1.0
  Sn  Sn1763  1  0.92880467  0.91666667  0.21768350  1.0
  Sn  Sn1764  1  0.15110167  0.08333333  0.31624250  1.0
  Sn  Sn1765  1  0.15110167  0.41666667  0.31624250  1.0
  Sn  Sn1766  1  0.15110167  0.75000000  0.31624250  1.0
  Sn  Sn1767  1  0.48443500  0.08333333  0.31624250  1.0
  Sn  Sn1768  1  0.48443500  0.41666667  0.31624250  1.0
  Sn  Sn1769  1  0.48443500  0.75000000  0.31624250  1.0
  Sn  Sn1770  1  0.81776833  0.08333333  0.31624250  1.0
  Sn  Sn1771  1  0.81776833  0.41666667  0.31624250  1.0
  Sn  Sn1772  1  0.81776833  0.75000000  0.31624250  1.0
  Sn  Sn1773  1  0.15110167  0.25000000  0.21624250  1.0
  Sn  Sn1774  1  0.15110167  0.58333333  0.21624250  1.0
  Sn  Sn1775  1  0.15110167  0.91666667  0.21624250  1.0
  Sn  Sn1776  1  0.48443500  0.25000000  0.21624250  1.0
  Sn  Sn1777  1  0.48443500  0.58333333  0.21624250  1.0
  Sn  Sn1778  1  0.48443500  0.91666667  0.21624250  1.0
  Sn  Sn1779  1  0.81776833  0.25000000  0.21624250  1.0
  Sn  Sn1780  1  0.81776833  0.58333333  0.21624250  1.0
  Sn  Sn1781  1  0.81776833  0.91666667  0.21624250  1.0
  Sn  Sn1782  1  0.03986300  0.08333333  0.31680610  1.0
  Sn  Sn1783  1  0.03986300  0.41666667  0.31680610  1.0
  Sn  Sn1784  1  0.03986300  0.75000000  0.31680610  1.0
  Sn  Sn1785  1  0.37319633  0.08333333  0.31680610  1.0
  Sn  Sn1786  1  0.37319633  0.41666667  0.31680610  1.0
  Sn  Sn1787  1  0.37319633  0.75000000  0.31680610  1.0
  Sn  Sn1788  1  0.70652967  0.08333333  0.31680610  1.0
  Sn  Sn1789  1  0.70652967  0.41666667  0.31680610  1.0
  Sn  Sn1790  1  0.70652967  0.75000000  0.31680610  1.0
  Sn  Sn1791  1  0.03986300  0.25000000  0.21680610  1.0
  Sn  Sn1792  1  0.03986300  0.58333333  0.21680610  1.0
  Sn  Sn1793  1  0.03986300  0.91666667  0.21680610  1.0
  Sn  Sn1794  1  0.37319633  0.25000000  0.21680610  1.0
  Sn  Sn1795  1  0.37319633  0.58333333  0.21680610  1.0
  Sn  Sn1796  1  0.37319633  0.91666667  0.21680610  1.0
  Sn  Sn1797  1  0.70652967  0.25000000  0.21680610  1.0
  Sn  Sn1798  1  0.70652967  0.58333333  0.21680610  1.0
  Sn  Sn1799  1  0.70652967  0.91666667  0.21680610  1.0
  Sn  Sn1800  1  0.26375200  0.16666667  0.30347530  1.0
  Sn  Sn1801  1  0.26375200  0.50000000  0.30347530  1.0
  Sn  Sn1802  1  0.26375200  0.83333333  0.30347530  1.0
  Sn  Sn1803  1  0.59708533  0.16666667  0.30347530  1.0
  Sn  Sn1804  1  0.59708533  0.50000000  0.30347530  1.0
  Sn  Sn1805  1  0.59708533  0.83333333  0.30347530  1.0
  Sn  Sn1806  1  0.93041867  0.16666667  0.30347530  1.0
  Sn  Sn1807  1  0.93041867  0.50000000  0.30347530  1.0
  Sn  Sn1808  1  0.93041867  0.83333333  0.30347530  1.0
  Sn  Sn1809  1  0.26375200  0.00000000  0.20347530  1.0
  Sn  Sn1810  1  0.26375200  0.33333333  0.20347530  1.0
  Sn  Sn1811  1  0.26375200  0.66666667  0.20347530  1.0
  Sn  Sn1812  1  0.59708533  0.00000000  0.20347530  1.0
  Sn  Sn1813  1  0.59708533  0.33333333  0.20347530  1.0
  Sn  Sn1814  1  0.59708533  0.66666667  0.20347530  1.0
  Sn  Sn1815  1  0.93041867  0.00000000  0.20347530  1.0
  Sn  Sn1816  1  0.93041867  0.33333333  0.20347530  1.0
  Sn  Sn1817  1  0.93041867  0.66666667  0.20347530  1.0
  Sn  Sn1818  1  0.15495733  0.16666667  0.30584230  1.0
  Sn  Sn1819  1  0.15495733  0.50000000  0.30584230  1.0
  Sn  Sn1820  1  0.15495733  0.83333333  0.30584230  1.0
  Sn  Sn1821  1  0.48829067  0.16666667  0.30584230  1.0
  Sn  Sn1822  1  0.48829067  0.50000000  0.30584230  1.0
  Sn  Sn1823  1  0.48829067  0.83333333  0.30584230  1.0
  Sn  Sn1824  1  0.82162400  0.16666667  0.30584230  1.0
  Sn  Sn1825  1  0.82162400  0.50000000  0.30584230  1.0
  Sn  Sn1826  1  0.82162400  0.83333333  0.30584230  1.0
  Sn  Sn1827  1  0.15495733  0.00000000  0.20584230  1.0
  Sn  Sn1828  1  0.15495733  0.33333333  0.20584230  1.0
  Sn  Sn1829  1  0.15495733  0.66666667  0.20584230  1.0
  Sn  Sn1830  1  0.48829067  0.00000000  0.20584230  1.0
  Sn  Sn1831  1  0.48829067  0.33333333  0.20584230  1.0
  Sn  Sn1832  1  0.48829067  0.66666667  0.20584230  1.0
  Sn  Sn1833  1  0.82162400  0.00000000  0.20584230  1.0
  Sn  Sn1834  1  0.82162400  0.33333333  0.20584230  1.0
  Sn  Sn1835  1  0.82162400  0.66666667  0.20584230  1.0
  Sn  Sn1836  1  0.04348833  0.16666667  0.30598450  1.0
  Sn  Sn1837  1  0.04348833  0.50000000  0.30598450  1.0
  Sn  Sn1838  1  0.04348833  0.83333333  0.30598450  1.0
  Sn  Sn1839  1  0.37682167  0.16666667  0.30598450  1.0
  Sn  Sn1840  1  0.37682167  0.50000000  0.30598450  1.0
  Sn  Sn1841  1  0.37682167  0.83333333  0.30598450  1.0
  Sn  Sn1842  1  0.71015500  0.16666667  0.30598450  1.0
  Sn  Sn1843  1  0.71015500  0.50000000  0.30598450  1.0
  Sn  Sn1844  1  0.71015500  0.83333333  0.30598450  1.0
  Sn  Sn1845  1  0.04348833  0.00000000  0.20598450  1.0
  Sn  Sn1846  1  0.04348833  0.33333333  0.20598450  1.0
  Sn  Sn1847  1  0.04348833  0.66666667  0.20598450  1.0
  Sn  Sn1848  1  0.37682167  0.00000000  0.20598450  1.0
  Sn  Sn1849  1  0.37682167  0.33333333  0.20598450  1.0
  Sn  Sn1850  1  0.37682167  0.66666667  0.20598450  1.0
  Sn  Sn1851  1  0.71015500  0.00000000  0.20598450  1.0
  Sn  Sn1852  1  0.71015500  0.33333333  0.20598450  1.0
  Sn  Sn1853  1  0.71015500  0.66666667  0.20598450  1.0
  Sn  Sn1854  1  0.23582200  0.16666667  0.20319830  1.0
  Sn  Sn1855  1  0.23582200  0.50000000  0.20319830  1.0
  Sn  Sn1856  1  0.23582200  0.83333333  0.20319830  1.0
  Sn  Sn1857  1  0.56915533  0.16666667  0.20319830  1.0
  Sn  Sn1858  1  0.56915533  0.50000000  0.20319830  1.0
  Sn  Sn1859  1  0.56915533  0.83333333  0.20319830  1.0
  Sn  Sn1860  1  0.90248867  0.16666667  0.20319830  1.0
  Sn  Sn1861  1  0.90248867  0.50000000  0.20319830  1.0
  Sn  Sn1862  1  0.90248867  0.83333333  0.20319830  1.0
  Sn  Sn1863  1  0.23582200  0.00000000  0.30319830  1.0
  Sn  Sn1864  1  0.23582200  0.33333333  0.30319830  1.0
  Sn  Sn1865  1  0.23582200  0.66666667  0.30319830  1.0
  Sn  Sn1866  1  0.56915533  0.00000000  0.30319830  1.0
  Sn  Sn1867  1  0.56915533  0.33333333  0.30319830  1.0
  Sn  Sn1868  1  0.56915533  0.66666667  0.30319830  1.0
  Sn  Sn1869  1  0.90248867  0.00000000  0.30319830  1.0
  Sn  Sn1870  1  0.90248867  0.33333333  0.30319830  1.0
  Sn  Sn1871  1  0.90248867  0.66666667  0.30319830  1.0
  Sn  Sn1872  1  0.12472400  0.16666667  0.39694730  1.0
  Sn  Sn1873  1  0.12472400  0.50000000  0.39694730  1.0
  Sn  Sn1874  1  0.12472400  0.83333333  0.39694730  1.0
  Sn  Sn1875  1  0.45805733  0.16666667  0.39694730  1.0
  Sn  Sn1876  1  0.45805733  0.50000000  0.39694730  1.0
  Sn  Sn1877  1  0.45805733  0.83333333  0.39694730  1.0
  Sn  Sn1878  1  0.79139067  0.16666667  0.39694730  1.0
  Sn  Sn1879  1  0.79139067  0.50000000  0.39694730  1.0
  Sn  Sn1880  1  0.79139067  0.83333333  0.39694730  1.0
  Sn  Sn1881  1  0.12472400  0.00000000  0.29694730  1.0
  Sn  Sn1882  1  0.12472400  0.33333333  0.29694730  1.0
  Sn  Sn1883  1  0.12472400  0.66666667  0.29694730  1.0
  Sn  Sn1884  1  0.45805733  0.00000000  0.29694730  1.0
  Sn  Sn1885  1  0.45805733  0.33333333  0.29694730  1.0
  Sn  Sn1886  1  0.45805733  0.66666667  0.29694730  1.0
  Sn  Sn1887  1  0.79139067  0.00000000  0.29694730  1.0
  Sn  Sn1888  1  0.79139067  0.33333333  0.29694730  1.0
  Sn  Sn1889  1  0.79139067  0.66666667  0.29694730  1.0
  Sn  Sn1890  1  0.01368667  0.16666667  0.39680170  1.0
  Sn  Sn1891  1  0.01368667  0.50000000  0.39680170  1.0
  Sn  Sn1892  1  0.01368667  0.83333333  0.39680170  1.0
  Sn  Sn1893  1  0.34702000  0.16666667  0.39680170  1.0
  Sn  Sn1894  1  0.34702000  0.50000000  0.39680170  1.0
  Sn  Sn1895  1  0.34702000  0.83333333  0.39680170  1.0
  Sn  Sn1896  1  0.68035333  0.16666667  0.39680170  1.0
  Sn  Sn1897  1  0.68035333  0.50000000  0.39680170  1.0
  Sn  Sn1898  1  0.68035333  0.83333333  0.39680170  1.0
  Sn  Sn1899  1  0.01368667  0.00000000  0.29680170  1.0
  Sn  Sn1900  1  0.01368667  0.33333333  0.29680170  1.0
  Sn  Sn1901  1  0.01368667  0.66666667  0.29680170  1.0
  Sn  Sn1902  1  0.34702000  0.00000000  0.29680170  1.0
  Sn  Sn1903  1  0.34702000  0.33333333  0.29680170  1.0
  Sn  Sn1904  1  0.34702000  0.66666667  0.29680170  1.0
  Sn  Sn1905  1  0.68035333  0.00000000  0.29680170  1.0
  Sn  Sn1906  1  0.68035333  0.33333333  0.29680170  1.0
  Sn  Sn1907  1  0.68035333  0.66666667  0.29680170  1.0
  Sn  Sn1908  1  0.28781400  0.08333333  0.22463910  1.0
  Sn  Sn1909  1  0.28781400  0.41666667  0.22463910  1.0
  Sn  Sn1910  1  0.28781400  0.75000000  0.22463910  1.0
  Sn  Sn1911  1  0.62114733  0.08333333  0.22463910  1.0
  Sn  Sn1912  1  0.62114733  0.41666667  0.22463910  1.0
  Sn  Sn1913  1  0.62114733  0.75000000  0.22463910  1.0
  Sn  Sn1914  1  0.95448067  0.08333333  0.22463910  1.0
  Sn  Sn1915  1  0.95448067  0.41666667  0.22463910  1.0
  Sn  Sn1916  1  0.95448067  0.75000000  0.22463910  1.0
  Sn  Sn1917  1  0.28781400  0.25000000  0.32463910  1.0
  Sn  Sn1918  1  0.28781400  0.58333333  0.32463910  1.0
  Sn  Sn1919  1  0.28781400  0.91666667  0.32463910  1.0
  Sn  Sn1920  1  0.62114733  0.25000000  0.32463910  1.0
  Sn  Sn1921  1  0.62114733  0.58333333  0.32463910  1.0
  Sn  Sn1922  1  0.62114733  0.91666667  0.32463910  1.0
  Sn  Sn1923  1  0.95448067  0.25000000  0.32463910  1.0
  Sn  Sn1924  1  0.95448067  0.58333333  0.32463910  1.0
  Sn  Sn1925  1  0.95448067  0.91666667  0.32463910  1.0
  Sn  Sn1926  1  0.17721733  0.08333333  0.22457930  1.0
  Sn  Sn1927  1  0.17721733  0.41666667  0.22457930  1.0
  Sn  Sn1928  1  0.17721733  0.75000000  0.22457930  1.0
  Sn  Sn1929  1  0.51055067  0.08333333  0.22457930  1.0
  Sn  Sn1930  1  0.51055067  0.41666667  0.22457930  1.0
  Sn  Sn1931  1  0.51055067  0.75000000  0.22457930  1.0
  Sn  Sn1932  1  0.84388400  0.08333333  0.22457930  1.0
  Sn  Sn1933  1  0.84388400  0.41666667  0.22457930  1.0
  Sn  Sn1934  1  0.84388400  0.75000000  0.22457930  1.0
  Sn  Sn1935  1  0.17721733  0.25000000  0.32457930  1.0
  Sn  Sn1936  1  0.17721733  0.58333333  0.32457930  1.0
  Sn  Sn1937  1  0.17721733  0.91666667  0.32457930  1.0
  Sn  Sn1938  1  0.51055067  0.25000000  0.32457930  1.0
  Sn  Sn1939  1  0.51055067  0.58333333  0.32457930  1.0
  Sn  Sn1940  1  0.51055067  0.91666667  0.32457930  1.0
  Sn  Sn1941  1  0.84388400  0.25000000  0.32457930  1.0
  Sn  Sn1942  1  0.84388400  0.58333333  0.32457930  1.0
  Sn  Sn1943  1  0.84388400  0.91666667  0.32457930  1.0
  Sn  Sn1944  1  0.06566000  0.08333333  0.22498790  1.0
  Sn  Sn1945  1  0.06566000  0.41666667  0.22498790  1.0
  Sn  Sn1946  1  0.06566000  0.75000000  0.22498790  1.0
  Sn  Sn1947  1  0.39899333  0.08333333  0.22498790  1.0
  Sn  Sn1948  1  0.39899333  0.41666667  0.22498790  1.0
  Sn  Sn1949  1  0.39899333  0.75000000  0.22498790  1.0
  Sn  Sn1950  1  0.73232667  0.08333333  0.22498790  1.0
  Sn  Sn1951  1  0.73232667  0.41666667  0.22498790  1.0
  Sn  Sn1952  1  0.73232667  0.75000000  0.22498790  1.0
  Sn  Sn1953  1  0.06566000  0.25000000  0.32498790  1.0
  Sn  Sn1954  1  0.06566000  0.58333333  0.32498790  1.0
  Sn  Sn1955  1  0.06566000  0.91666667  0.32498790  1.0
  Sn  Sn1956  1  0.39899333  0.25000000  0.32498790  1.0
  Sn  Sn1957  1  0.39899333  0.58333333  0.32498790  1.0
  Sn  Sn1958  1  0.39899333  0.91666667  0.32498790  1.0
  Sn  Sn1959  1  0.73232667  0.25000000  0.32498790  1.0
  Sn  Sn1960  1  0.73232667  0.58333333  0.32498790  1.0
  Sn  Sn1961  1  0.73232667  0.91666667  0.32498790  1.0
  Sn  Sn1962  1  0.32302300  0.08333333  0.32393770  1.0
  Sn  Sn1963  1  0.32302300  0.41666667  0.32393770  1.0
  Sn  Sn1964  1  0.32302300  0.75000000  0.32393770  1.0
  Sn  Sn1965  1  0.65635633  0.08333333  0.32393770  1.0
  Sn  Sn1966  1  0.65635633  0.41666667  0.32393770  1.0
  Sn  Sn1967  1  0.65635633  0.75000000  0.32393770  1.0
  Sn  Sn1968  1  0.98968967  0.08333333  0.32393770  1.0
  Sn  Sn1969  1  0.98968967  0.41666667  0.32393770  1.0
  Sn  Sn1970  1  0.98968967  0.75000000  0.32393770  1.0
  Sn  Sn1971  1  0.32302300  0.25000000  0.22393770  1.0
  Sn  Sn1972  1  0.32302300  0.58333333  0.22393770  1.0
  Sn  Sn1973  1  0.32302300  0.91666667  0.22393770  1.0
  Sn  Sn1974  1  0.65635633  0.25000000  0.22393770  1.0
  Sn  Sn1975  1  0.65635633  0.58333333  0.22393770  1.0
  Sn  Sn1976  1  0.65635633  0.91666667  0.22393770  1.0
  Sn  Sn1977  1  0.98968967  0.25000000  0.22393770  1.0
  Sn  Sn1978  1  0.98968967  0.58333333  0.22393770  1.0
  Sn  Sn1979  1  0.98968967  0.91666667  0.22393770  1.0
  Sn  Sn1980  1  0.21177500  0.08333333  0.32483990  1.0
  Sn  Sn1981  1  0.21177500  0.41666667  0.32483990  1.0
  Sn  Sn1982  1  0.21177500  0.75000000  0.32483990  1.0
  Sn  Sn1983  1  0.54510833  0.08333333  0.32483990  1.0
  Sn  Sn1984  1  0.54510833  0.41666667  0.32483990  1.0
  Sn  Sn1985  1  0.54510833  0.75000000  0.32483990  1.0
  Sn  Sn1986  1  0.87844167  0.08333333  0.32483990  1.0
  Sn  Sn1987  1  0.87844167  0.41666667  0.32483990  1.0
  Sn  Sn1988  1  0.87844167  0.75000000  0.32483990  1.0
  Sn  Sn1989  1  0.21177500  0.25000000  0.22483990  1.0
  Sn  Sn1990  1  0.21177500  0.58333333  0.22483990  1.0
  Sn  Sn1991  1  0.21177500  0.91666667  0.22483990  1.0
  Sn  Sn1992  1  0.54510833  0.25000000  0.22483990  1.0
  Sn  Sn1993  1  0.54510833  0.58333333  0.22483990  1.0
  Sn  Sn1994  1  0.54510833  0.91666667  0.22483990  1.0
  Sn  Sn1995  1  0.87844167  0.25000000  0.22483990  1.0
  Sn  Sn1996  1  0.87844167  0.58333333  0.22483990  1.0
  Sn  Sn1997  1  0.87844167  0.91666667  0.22483990  1.0
  Sn  Sn1998  1  0.10073567  0.08333333  0.32417470  1.0
  Sn  Sn1999  1  0.10073567  0.41666667  0.32417470  1.0
  Sn  Sn2000  1  0.10073567  0.75000000  0.32417470  1.0
  Sn  Sn2001  1  0.43406900  0.08333333  0.32417470  1.0
  Sn  Sn2002  1  0.43406900  0.41666667  0.32417470  1.0
  Sn  Sn2003  1  0.43406900  0.75000000  0.32417470  1.0
  Sn  Sn2004  1  0.76740233  0.08333333  0.32417470  1.0
  Sn  Sn2005  1  0.76740233  0.41666667  0.32417470  1.0
  Sn  Sn2006  1  0.76740233  0.75000000  0.32417470  1.0
  Sn  Sn2007  1  0.10073567  0.25000000  0.22417470  1.0
  Sn  Sn2008  1  0.10073567  0.58333333  0.22417470  1.0
  Sn  Sn2009  1  0.10073567  0.91666667  0.22417470  1.0
  Sn  Sn2010  1  0.43406900  0.25000000  0.22417470  1.0
  Sn  Sn2011  1  0.43406900  0.58333333  0.22417470  1.0
  Sn  Sn2012  1  0.43406900  0.91666667  0.22417470  1.0
  Sn  Sn2013  1  0.76740233  0.25000000  0.22417470  1.0
  Sn  Sn2014  1  0.76740233  0.58333333  0.22417470  1.0
  Sn  Sn2015  1  0.76740233  0.91666667  0.22417470  1.0
