# generated using pymatgen
data_Ni4Sn3
_symmetry_space_group_name_H-M   'P 1'
_cell_length_a   15.64134900
_cell_length_b   149.02139201
_cell_length_c   35.33049000
_cell_angle_alpha   98.27744920
_cell_angle_beta   90.00000000
_cell_angle_gamma   90.00000000
_symmetry_Int_Tables_number   1
_chemical_formula_structural   Ni4Sn3
_chemical_formula_sum   'Ni1152 Sn864'
_cell_volume   81493.78743907
_cell_formula_units_Z   288
loop_
 _symmetry_equiv_pos_site_id
 _symmetry_equiv_pos_as_xyz
  1  'x, y, z'
loop_
 _atom_site_type_symbol
 _atom_site_label
 _atom_site_symmetry_multiplicity
 _atom_site_fract_x
 _atom_site_fract_y
 _atom_site_fract_z
 _atom_site_occupancy
  Ni  Ni0  1  0.25087300  0.03471933  0.06261365  1.0
  Ni  Ni1  1  0.25087300  0.36805267  0.06261365  1.0
  Ni  Ni2  1  0.25087300  0.70138600  0.06261365  1.0
  Ni  Ni3  1  0.58420633  0.03471933  0.06261365  1.0
  Ni  Ni4  1  0.58420633  0.36805267  0.06261365  1.0
  Ni  Ni5  1  0.58420633  0.70138600  0.06261365  1.0
  Ni  Ni6  1  0.91753967  0.03471933  0.06261365  1.0
  Ni  Ni7  1  0.91753967  0.36805267  0.06261365  1.0
  Ni  Ni8  1  0.91753967  0.70138600  0.06261365  1.0
  Ni  Ni9  1  0.25087300  0.20138600  0.16261365  1.0
  Ni  Ni10  1  0.25087300  0.53471933  0.16261365  1.0
  Ni  Ni11  1  0.25087300  0.86805267  0.16261365  1.0
  Ni  Ni12  1  0.58420633  0.20138600  0.16261365  1.0
  Ni  Ni13  1  0.58420633  0.53471933  0.16261365  1.0
  Ni  Ni14  1  0.58420633  0.86805267  0.16261365  1.0
  Ni  Ni15  1  0.91753967  0.20138600  0.16261365  1.0
  Ni  Ni16  1  0.91753967  0.53471933  0.16261365  1.0
  Ni  Ni17  1  0.91753967  0.86805267  0.16261365  1.0
  Ni  Ni18  1  0.25162833  0.09022400  0.09664565  1.0
  Ni  Ni19  1  0.25162833  0.42355733  0.09664565  1.0
  Ni  Ni20  1  0.25162833  0.75689067  0.09664565  1.0
  Ni  Ni21  1  0.58496167  0.09022400  0.09664565  1.0
  Ni  Ni22  1  0.58496167  0.42355733  0.09664565  1.0
  Ni  Ni23  1  0.58496167  0.75689067  0.09664565  1.0
  Ni  Ni24  1  0.91829500  0.09022400  0.09664565  1.0
  Ni  Ni25  1  0.91829500  0.42355733  0.09664565  1.0
  Ni  Ni26  1  0.91829500  0.75689067  0.09664565  1.0
  Ni  Ni27  1  0.25162833  0.25689067  0.19664565  1.0
  Ni  Ni28  1  0.25162833  0.59022400  0.19664565  1.0
  Ni  Ni29  1  0.25162833  0.92355733  0.19664565  1.0
  Ni  Ni30  1  0.58496167  0.25689067  0.19664565  1.0
  Ni  Ni31  1  0.58496167  0.59022400  0.19664565  1.0
  Ni  Ni32  1  0.58496167  0.92355733  0.19664565  1.0
  Ni  Ni33  1  0.91829500  0.25689067  0.19664565  1.0
  Ni  Ni34  1  0.91829500  0.59022400  0.19664565  1.0
  Ni  Ni35  1  0.91829500  0.92355733  0.19664565  1.0
  Ni  Ni36  1  0.25151567  0.14581200  0.12980465  1.0
  Ni  Ni37  1  0.25151567  0.47914533  0.12980465  1.0
  Ni  Ni38  1  0.25151567  0.81247867  0.12980465  1.0
  Ni  Ni39  1  0.58484900  0.14581200  0.12980465  1.0
  Ni  Ni40  1  0.58484900  0.47914533  0.12980465  1.0
  Ni  Ni41  1  0.58484900  0.81247867  0.12980465  1.0
  Ni  Ni42  1  0.91818233  0.14581200  0.12980465  1.0
  Ni  Ni43  1  0.91818233  0.47914533  0.12980465  1.0
  Ni  Ni44  1  0.91818233  0.81247867  0.12980465  1.0
  Ni  Ni45  1  0.25151567  0.31247867  0.02980465  1.0
  Ni  Ni46  1  0.25151567  0.64581200  0.02980465  1.0
  Ni  Ni47  1  0.25151567  0.97914533  0.02980465  1.0
  Ni  Ni48  1  0.58484900  0.31247867  0.02980465  1.0
  Ni  Ni49  1  0.58484900  0.64581200  0.02980465  1.0
  Ni  Ni50  1  0.58484900  0.97914533  0.02980465  1.0
  Ni  Ni51  1  0.91818233  0.31247867  0.02980465  1.0
  Ni  Ni52  1  0.91818233  0.64581200  0.02980465  1.0
  Ni  Ni53  1  0.91818233  0.97914533  0.02980465  1.0
  Ni  Ni54  1  0.08281167  0.04865667  0.17094485  1.0
  Ni  Ni55  1  0.08281167  0.38199000  0.17094485  1.0
  Ni  Ni56  1  0.08281167  0.71532333  0.17094485  1.0
  Ni  Ni57  1  0.41614500  0.04865667  0.17094485  1.0
  Ni  Ni58  1  0.41614500  0.38199000  0.17094485  1.0
  Ni  Ni59  1  0.41614500  0.71532333  0.17094485  1.0
  Ni  Ni60  1  0.74947833  0.04865667  0.17094485  1.0
  Ni  Ni61  1  0.74947833  0.38199000  0.17094485  1.0
  Ni  Ni62  1  0.74947833  0.71532333  0.17094485  1.0
  Ni  Ni63  1  0.08281167  0.21532333  0.07094485  1.0
  Ni  Ni64  1  0.08281167  0.54865667  0.07094485  1.0
  Ni  Ni65  1  0.08281167  0.88199000  0.07094485  1.0
  Ni  Ni66  1  0.41614500  0.21532333  0.07094485  1.0
  Ni  Ni67  1  0.41614500  0.54865667  0.07094485  1.0
  Ni  Ni68  1  0.41614500  0.88199000  0.07094485  1.0
  Ni  Ni69  1  0.74947833  0.21532333  0.07094485  1.0
  Ni  Ni70  1  0.74947833  0.54865667  0.07094485  1.0
  Ni  Ni71  1  0.74947833  0.88199000  0.07094485  1.0
  Ni  Ni72  1  0.08262400  0.10420717  0.00606975  1.0
  Ni  Ni73  1  0.08262400  0.43754050  0.00606975  1.0
  Ni  Ni74  1  0.08262400  0.77087383  0.00606975  1.0
  Ni  Ni75  1  0.41595733  0.10420717  0.00606975  1.0
  Ni  Ni76  1  0.41595733  0.43754050  0.00606975  1.0
  Ni  Ni77  1  0.41595733  0.77087383  0.00606975  1.0
  Ni  Ni78  1  0.74929067  0.10420717  0.00606975  1.0
  Ni  Ni79  1  0.74929067  0.43754050  0.00606975  1.0
  Ni  Ni80  1  0.74929067  0.77087383  0.00606975  1.0
  Ni  Ni81  1  0.08262400  0.27087383  0.10606975  1.0
  Ni  Ni82  1  0.08262400  0.60420717  0.10606975  1.0
  Ni  Ni83  1  0.08262400  0.93754050  0.10606975  1.0
  Ni  Ni84  1  0.41595733  0.27087383  0.10606975  1.0
  Ni  Ni85  1  0.41595733  0.60420717  0.10606975  1.0
  Ni  Ni86  1  0.41595733  0.93754050  0.10606975  1.0
  Ni  Ni87  1  0.74929067  0.27087383  0.10606975  1.0
  Ni  Ni88  1  0.74929067  0.60420717  0.10606975  1.0
  Ni  Ni89  1  0.74929067  0.93754050  0.10606975  1.0
  Ni  Ni90  1  0.08247600  0.15985583  0.03956975  1.0
  Ni  Ni91  1  0.08247600  0.49318917  0.03956975  1.0
  Ni  Ni92  1  0.08247600  0.82652250  0.03956975  1.0
  Ni  Ni93  1  0.41580933  0.15985583  0.03956975  1.0
  Ni  Ni94  1  0.41580933  0.49318917  0.03956975  1.0
  Ni  Ni95  1  0.41580933  0.82652250  0.03956975  1.0
  Ni  Ni96  1  0.74914267  0.15985583  0.03956975  1.0
  Ni  Ni97  1  0.74914267  0.49318917  0.03956975  1.0
  Ni  Ni98  1  0.74914267  0.82652250  0.03956975  1.0
  Ni  Ni99  1  0.08247600  0.32652250  0.13956975  1.0
  Ni  Ni100  1  0.08247600  0.65985583  0.13956975  1.0
  Ni  Ni101  1  0.08247600  0.99318917  0.13956975  1.0
  Ni  Ni102  1  0.41580933  0.32652250  0.13956975  1.0
  Ni  Ni103  1  0.41580933  0.65985583  0.13956975  1.0
  Ni  Ni104  1  0.41580933  0.99318917  0.13956975  1.0
  Ni  Ni105  1  0.74914267  0.32652250  0.13956975  1.0
  Ni  Ni106  1  0.74914267  0.65985583  0.13956975  1.0
  Ni  Ni107  1  0.74914267  0.99318917  0.13956975  1.0
  Ni  Ni108  1  0.08475167  0.02109950  0.15071115  1.0
  Ni  Ni109  1  0.08475167  0.35443283  0.15071115  1.0
  Ni  Ni110  1  0.08475167  0.68776617  0.15071115  1.0
  Ni  Ni111  1  0.41808500  0.02109950  0.15071115  1.0
  Ni  Ni112  1  0.41808500  0.35443283  0.15071115  1.0
  Ni  Ni113  1  0.41808500  0.68776617  0.15071115  1.0
  Ni  Ni114  1  0.75141833  0.02109950  0.15071115  1.0
  Ni  Ni115  1  0.75141833  0.35443283  0.15071115  1.0
  Ni  Ni116  1  0.75141833  0.68776617  0.15071115  1.0
  Ni  Ni117  1  0.08475167  0.18776617  0.05071115  1.0
  Ni  Ni118  1  0.08475167  0.52109950  0.05071115  1.0
  Ni  Ni119  1  0.08475167  0.85443283  0.05071115  1.0
  Ni  Ni120  1  0.41808500  0.18776617  0.05071115  1.0
  Ni  Ni121  1  0.41808500  0.52109950  0.05071115  1.0
  Ni  Ni122  1  0.41808500  0.85443283  0.05071115  1.0
  Ni  Ni123  1  0.75141833  0.18776617  0.05071115  1.0
  Ni  Ni124  1  0.75141833  0.52109950  0.05071115  1.0
  Ni  Ni125  1  0.75141833  0.85443283  0.05071115  1.0
  Ni  Ni126  1  0.08520700  0.07603783  0.18371915  1.0
  Ni  Ni127  1  0.08520700  0.40937117  0.18371915  1.0
  Ni  Ni128  1  0.08520700  0.74270450  0.18371915  1.0
  Ni  Ni129  1  0.41854033  0.07603783  0.18371915  1.0
  Ni  Ni130  1  0.41854033  0.40937117  0.18371915  1.0
  Ni  Ni131  1  0.41854033  0.74270450  0.18371915  1.0
  Ni  Ni132  1  0.75187367  0.07603783  0.18371915  1.0
  Ni  Ni133  1  0.75187367  0.40937117  0.18371915  1.0
  Ni  Ni134  1  0.75187367  0.74270450  0.18371915  1.0
  Ni  Ni135  1  0.08520700  0.24270450  0.08371915  1.0
  Ni  Ni136  1  0.08520700  0.57603783  0.08371915  1.0
  Ni  Ni137  1  0.08520700  0.90937117  0.08371915  1.0
  Ni  Ni138  1  0.41854033  0.24270450  0.08371915  1.0
  Ni  Ni139  1  0.41854033  0.57603783  0.08371915  1.0
  Ni  Ni140  1  0.41854033  0.90937117  0.08371915  1.0
  Ni  Ni141  1  0.75187367  0.24270450  0.08371915  1.0
  Ni  Ni142  1  0.75187367  0.57603783  0.08371915  1.0
  Ni  Ni143  1  0.75187367  0.90937117  0.08371915  1.0
  Ni  Ni144  1  0.08557967  0.13190633  0.01645865  1.0
  Ni  Ni145  1  0.08557967  0.46523967  0.01645865  1.0
  Ni  Ni146  1  0.08557967  0.79857300  0.01645865  1.0
  Ni  Ni147  1  0.41891300  0.13190633  0.01645865  1.0
  Ni  Ni148  1  0.41891300  0.46523967  0.01645865  1.0
  Ni  Ni149  1  0.41891300  0.79857300  0.01645865  1.0
  Ni  Ni150  1  0.75224633  0.13190633  0.01645865  1.0
  Ni  Ni151  1  0.75224633  0.46523967  0.01645865  1.0
  Ni  Ni152  1  0.75224633  0.79857300  0.01645865  1.0
  Ni  Ni153  1  0.08557967  0.29857300  0.11645865  1.0
  Ni  Ni154  1  0.08557967  0.63190633  0.11645865  1.0
  Ni  Ni155  1  0.08557967  0.96523967  0.11645865  1.0
  Ni  Ni156  1  0.41891300  0.29857300  0.11645865  1.0
  Ni  Ni157  1  0.41891300  0.63190633  0.11645865  1.0
  Ni  Ni158  1  0.41891300  0.96523967  0.11645865  1.0
  Ni  Ni159  1  0.75224633  0.29857300  0.11645865  1.0
  Ni  Ni160  1  0.75224633  0.63190633  0.11645865  1.0
  Ni  Ni161  1  0.75224633  0.96523967  0.11645865  1.0
  Ni  Ni162  1  0.24933867  0.00693183  0.04274975  1.0
  Ni  Ni163  1  0.24933867  0.34026517  0.04274975  1.0
  Ni  Ni164  1  0.24933867  0.67359850  0.04274975  1.0
  Ni  Ni165  1  0.58267200  0.00693183  0.04274975  1.0
  Ni  Ni166  1  0.58267200  0.34026517  0.04274975  1.0
  Ni  Ni167  1  0.58267200  0.67359850  0.04274975  1.0
  Ni  Ni168  1  0.91600533  0.00693183  0.04274975  1.0
  Ni  Ni169  1  0.91600533  0.34026517  0.04274975  1.0
  Ni  Ni170  1  0.91600533  0.67359850  0.04274975  1.0
  Ni  Ni171  1  0.24933867  0.17359850  0.14274975  1.0
  Ni  Ni172  1  0.24933867  0.50693183  0.14274975  1.0
  Ni  Ni173  1  0.24933867  0.84026517  0.14274975  1.0
  Ni  Ni174  1  0.58267200  0.17359850  0.14274975  1.0
  Ni  Ni175  1  0.58267200  0.50693183  0.14274975  1.0
  Ni  Ni176  1  0.58267200  0.84026517  0.14274975  1.0
  Ni  Ni177  1  0.91600533  0.17359850  0.14274975  1.0
  Ni  Ni178  1  0.91600533  0.50693183  0.14274975  1.0
  Ni  Ni179  1  0.91600533  0.84026517  0.14274975  1.0
  Ni  Ni180  1  0.24898667  0.06252383  0.07589775  1.0
  Ni  Ni181  1  0.24898667  0.39585717  0.07589775  1.0
  Ni  Ni182  1  0.24898667  0.72919050  0.07589775  1.0
  Ni  Ni183  1  0.58232000  0.06252383  0.07589775  1.0
  Ni  Ni184  1  0.58232000  0.39585717  0.07589775  1.0
  Ni  Ni185  1  0.58232000  0.72919050  0.07589775  1.0
  Ni  Ni186  1  0.91565333  0.06252383  0.07589775  1.0
  Ni  Ni187  1  0.91565333  0.39585717  0.07589775  1.0
  Ni  Ni188  1  0.91565333  0.72919050  0.07589775  1.0
  Ni  Ni189  1  0.24898667  0.22919050  0.17589775  1.0
  Ni  Ni190  1  0.24898667  0.56252383  0.17589775  1.0
  Ni  Ni191  1  0.24898667  0.89585717  0.17589775  1.0
  Ni  Ni192  1  0.58232000  0.22919050  0.17589775  1.0
  Ni  Ni193  1  0.58232000  0.56252383  0.17589775  1.0
  Ni  Ni194  1  0.58232000  0.89585717  0.17589775  1.0
  Ni  Ni195  1  0.91565333  0.22919050  0.17589775  1.0
  Ni  Ni196  1  0.91565333  0.56252383  0.17589775  1.0
  Ni  Ni197  1  0.91565333  0.89585717  0.17589775  1.0
  Ni  Ni198  1  0.24915467  0.11804017  0.10916895  1.0
  Ni  Ni199  1  0.24915467  0.45137350  0.10916895  1.0
  Ni  Ni200  1  0.24915467  0.78470683  0.10916895  1.0
  Ni  Ni201  1  0.58248800  0.11804017  0.10916895  1.0
  Ni  Ni202  1  0.58248800  0.45137350  0.10916895  1.0
  Ni  Ni203  1  0.58248800  0.78470683  0.10916895  1.0
  Ni  Ni204  1  0.91582133  0.11804017  0.10916895  1.0
  Ni  Ni205  1  0.91582133  0.45137350  0.10916895  1.0
  Ni  Ni206  1  0.91582133  0.78470683  0.10916895  1.0
  Ni  Ni207  1  0.24915467  0.28470683  0.00916895  1.0
  Ni  Ni208  1  0.24915467  0.61804017  0.00916895  1.0
  Ni  Ni209  1  0.24915467  0.95137350  0.00916895  1.0
  Ni  Ni210  1  0.58248800  0.28470683  0.00916895  1.0
  Ni  Ni211  1  0.58248800  0.61804017  0.00916895  1.0
  Ni  Ni212  1  0.58248800  0.95137350  0.00916895  1.0
  Ni  Ni213  1  0.91582133  0.28470683  0.00916895  1.0
  Ni  Ni214  1  0.91582133  0.61804017  0.00916895  1.0
  Ni  Ni215  1  0.91582133  0.95137350  0.00916895  1.0
  Ni  Ni216  1  0.24858167  0.02109950  0.15071115  1.0
  Ni  Ni217  1  0.24858167  0.35443283  0.15071115  1.0
  Ni  Ni218  1  0.24858167  0.68776617  0.15071115  1.0
  Ni  Ni219  1  0.58191500  0.02109950  0.15071115  1.0
  Ni  Ni220  1  0.58191500  0.35443283  0.15071115  1.0
  Ni  Ni221  1  0.58191500  0.68776617  0.15071115  1.0
  Ni  Ni222  1  0.91524833  0.02109950  0.15071115  1.0
  Ni  Ni223  1  0.91524833  0.35443283  0.15071115  1.0
  Ni  Ni224  1  0.91524833  0.68776617  0.15071115  1.0
  Ni  Ni225  1  0.24858167  0.18776617  0.05071115  1.0
  Ni  Ni226  1  0.24858167  0.52109950  0.05071115  1.0
  Ni  Ni227  1  0.24858167  0.85443283  0.05071115  1.0
  Ni  Ni228  1  0.58191500  0.18776617  0.05071115  1.0
  Ni  Ni229  1  0.58191500  0.52109950  0.05071115  1.0
  Ni  Ni230  1  0.58191500  0.85443283  0.05071115  1.0
  Ni  Ni231  1  0.91524833  0.18776617  0.05071115  1.0
  Ni  Ni232  1  0.91524833  0.52109950  0.05071115  1.0
  Ni  Ni233  1  0.91524833  0.85443283  0.05071115  1.0
  Ni  Ni234  1  0.24812633  0.07603783  0.18371915  1.0
  Ni  Ni235  1  0.24812633  0.40937117  0.18371915  1.0
  Ni  Ni236  1  0.24812633  0.74270450  0.18371915  1.0
  Ni  Ni237  1  0.58145967  0.07603783  0.18371915  1.0
  Ni  Ni238  1  0.58145967  0.40937117  0.18371915  1.0
  Ni  Ni239  1  0.58145967  0.74270450  0.18371915  1.0
  Ni  Ni240  1  0.91479300  0.07603783  0.18371915  1.0
  Ni  Ni241  1  0.91479300  0.40937117  0.18371915  1.0
  Ni  Ni242  1  0.91479300  0.74270450  0.18371915  1.0
  Ni  Ni243  1  0.24812633  0.24270450  0.08371915  1.0
  Ni  Ni244  1  0.24812633  0.57603783  0.08371915  1.0
  Ni  Ni245  1  0.24812633  0.90937117  0.08371915  1.0
  Ni  Ni246  1  0.58145967  0.24270450  0.08371915  1.0
  Ni  Ni247  1  0.58145967  0.57603783  0.08371915  1.0
  Ni  Ni248  1  0.58145967  0.90937117  0.08371915  1.0
  Ni  Ni249  1  0.91479300  0.24270450  0.08371915  1.0
  Ni  Ni250  1  0.91479300  0.57603783  0.08371915  1.0
  Ni  Ni251  1  0.91479300  0.90937117  0.08371915  1.0
  Ni  Ni252  1  0.24775367  0.13190633  0.01645865  1.0
  Ni  Ni253  1  0.24775367  0.46523967  0.01645865  1.0
  Ni  Ni254  1  0.24775367  0.79857300  0.01645865  1.0
  Ni  Ni255  1  0.58108700  0.13190633  0.01645865  1.0
  Ni  Ni256  1  0.58108700  0.46523967  0.01645865  1.0
  Ni  Ni257  1  0.58108700  0.79857300  0.01645865  1.0
  Ni  Ni258  1  0.91442033  0.13190633  0.01645865  1.0
  Ni  Ni259  1  0.91442033  0.46523967  0.01645865  1.0
  Ni  Ni260  1  0.91442033  0.79857300  0.01645865  1.0
  Ni  Ni261  1  0.24775367  0.29857300  0.11645865  1.0
  Ni  Ni262  1  0.24775367  0.63190633  0.11645865  1.0
  Ni  Ni263  1  0.24775367  0.96523967  0.11645865  1.0
  Ni  Ni264  1  0.58108700  0.29857300  0.11645865  1.0
  Ni  Ni265  1  0.58108700  0.63190633  0.11645865  1.0
  Ni  Ni266  1  0.58108700  0.96523967  0.11645865  1.0
  Ni  Ni267  1  0.91442033  0.29857300  0.11645865  1.0
  Ni  Ni268  1  0.91442033  0.63190633  0.11645865  1.0
  Ni  Ni269  1  0.91442033  0.96523967  0.11645865  1.0
  Ni  Ni270  1  0.08399467  0.00693183  0.04274975  1.0
  Ni  Ni271  1  0.08399467  0.34026517  0.04274975  1.0
  Ni  Ni272  1  0.08399467  0.67359850  0.04274975  1.0
  Ni  Ni273  1  0.41732800  0.00693183  0.04274975  1.0
  Ni  Ni274  1  0.41732800  0.34026517  0.04274975  1.0
  Ni  Ni275  1  0.41732800  0.67359850  0.04274975  1.0
  Ni  Ni276  1  0.75066133  0.00693183  0.04274975  1.0
  Ni  Ni277  1  0.75066133  0.34026517  0.04274975  1.0
  Ni  Ni278  1  0.75066133  0.67359850  0.04274975  1.0
  Ni  Ni279  1  0.08399467  0.17359850  0.14274975  1.0
  Ni  Ni280  1  0.08399467  0.50693183  0.14274975  1.0
  Ni  Ni281  1  0.08399467  0.84026517  0.14274975  1.0
  Ni  Ni282  1  0.41732800  0.17359850  0.14274975  1.0
  Ni  Ni283  1  0.41732800  0.50693183  0.14274975  1.0
  Ni  Ni284  1  0.41732800  0.84026517  0.14274975  1.0
  Ni  Ni285  1  0.75066133  0.17359850  0.14274975  1.0
  Ni  Ni286  1  0.75066133  0.50693183  0.14274975  1.0
  Ni  Ni287  1  0.75066133  0.84026517  0.14274975  1.0
  Ni  Ni288  1  0.08434667  0.06252383  0.07589775  1.0
  Ni  Ni289  1  0.08434667  0.39585717  0.07589775  1.0
  Ni  Ni290  1  0.08434667  0.72919050  0.07589775  1.0
  Ni  Ni291  1  0.41768000  0.06252383  0.07589775  1.0
  Ni  Ni292  1  0.41768000  0.39585717  0.07589775  1.0
  Ni  Ni293  1  0.41768000  0.72919050  0.07589775  1.0
  Ni  Ni294  1  0.75101333  0.06252383  0.07589775  1.0
  Ni  Ni295  1  0.75101333  0.39585717  0.07589775  1.0
  Ni  Ni296  1  0.75101333  0.72919050  0.07589775  1.0
  Ni  Ni297  1  0.08434667  0.22919050  0.17589775  1.0
  Ni  Ni298  1  0.08434667  0.56252383  0.17589775  1.0
  Ni  Ni299  1  0.08434667  0.89585717  0.17589775  1.0
  Ni  Ni300  1  0.41768000  0.22919050  0.17589775  1.0
  Ni  Ni301  1  0.41768000  0.56252383  0.17589775  1.0
  Ni  Ni302  1  0.41768000  0.89585717  0.17589775  1.0
  Ni  Ni303  1  0.75101333  0.22919050  0.17589775  1.0
  Ni  Ni304  1  0.75101333  0.56252383  0.17589775  1.0
  Ni  Ni305  1  0.75101333  0.89585717  0.17589775  1.0
  Ni  Ni306  1  0.08417867  0.11804017  0.10916895  1.0
  Ni  Ni307  1  0.08417867  0.45137350  0.10916895  1.0
  Ni  Ni308  1  0.08417867  0.78470683  0.10916895  1.0
  Ni  Ni309  1  0.41751200  0.11804017  0.10916895  1.0
  Ni  Ni310  1  0.41751200  0.45137350  0.10916895  1.0
  Ni  Ni311  1  0.41751200  0.78470683  0.10916895  1.0
  Ni  Ni312  1  0.75084533  0.11804017  0.10916895  1.0
  Ni  Ni313  1  0.75084533  0.45137350  0.10916895  1.0
  Ni  Ni314  1  0.75084533  0.78470683  0.10916895  1.0
  Ni  Ni315  1  0.08417867  0.28470683  0.00916895  1.0
  Ni  Ni316  1  0.08417867  0.61804017  0.00916895  1.0
  Ni  Ni317  1  0.08417867  0.95137350  0.00916895  1.0
  Ni  Ni318  1  0.41751200  0.28470683  0.00916895  1.0
  Ni  Ni319  1  0.41751200  0.61804017  0.00916895  1.0
  Ni  Ni320  1  0.41751200  0.95137350  0.00916895  1.0
  Ni  Ni321  1  0.75084533  0.28470683  0.00916895  1.0
  Ni  Ni322  1  0.75084533  0.61804017  0.00916895  1.0
  Ni  Ni323  1  0.75084533  0.95137350  0.00916895  1.0
  Ni  Ni324  1  0.08246033  0.03471933  0.06261365  1.0
  Ni  Ni325  1  0.08246033  0.36805267  0.06261365  1.0
  Ni  Ni326  1  0.08246033  0.70138600  0.06261365  1.0
  Ni  Ni327  1  0.41579367  0.03471933  0.06261365  1.0
  Ni  Ni328  1  0.41579367  0.36805267  0.06261365  1.0
  Ni  Ni329  1  0.41579367  0.70138600  0.06261365  1.0
  Ni  Ni330  1  0.74912700  0.03471933  0.06261365  1.0
  Ni  Ni331  1  0.74912700  0.36805267  0.06261365  1.0
  Ni  Ni332  1  0.74912700  0.70138600  0.06261365  1.0
  Ni  Ni333  1  0.08246033  0.20138600  0.16261365  1.0
  Ni  Ni334  1  0.08246033  0.53471933  0.16261365  1.0
  Ni  Ni335  1  0.08246033  0.86805267  0.16261365  1.0
  Ni  Ni336  1  0.41579367  0.20138600  0.16261365  1.0
  Ni  Ni337  1  0.41579367  0.53471933  0.16261365  1.0
  Ni  Ni338  1  0.41579367  0.86805267  0.16261365  1.0
  Ni  Ni339  1  0.74912700  0.20138600  0.16261365  1.0
  Ni  Ni340  1  0.74912700  0.53471933  0.16261365  1.0
  Ni  Ni341  1  0.74912700  0.86805267  0.16261365  1.0
  Ni  Ni342  1  0.08170500  0.09022400  0.09664565  1.0
  Ni  Ni343  1  0.08170500  0.42355733  0.09664565  1.0
  Ni  Ni344  1  0.08170500  0.75689067  0.09664565  1.0
  Ni  Ni345  1  0.41503833  0.09022400  0.09664565  1.0
  Ni  Ni346  1  0.41503833  0.42355733  0.09664565  1.0
  Ni  Ni347  1  0.41503833  0.75689067  0.09664565  1.0
  Ni  Ni348  1  0.74837167  0.09022400  0.09664565  1.0
  Ni  Ni349  1  0.74837167  0.42355733  0.09664565  1.0
  Ni  Ni350  1  0.74837167  0.75689067  0.09664565  1.0
  Ni  Ni351  1  0.08170500  0.25689067  0.19664565  1.0
  Ni  Ni352  1  0.08170500  0.59022400  0.19664565  1.0
  Ni  Ni353  1  0.08170500  0.92355733  0.19664565  1.0
  Ni  Ni354  1  0.41503833  0.25689067  0.19664565  1.0
  Ni  Ni355  1  0.41503833  0.59022400  0.19664565  1.0
  Ni  Ni356  1  0.41503833  0.92355733  0.19664565  1.0
  Ni  Ni357  1  0.74837167  0.25689067  0.19664565  1.0
  Ni  Ni358  1  0.74837167  0.59022400  0.19664565  1.0
  Ni  Ni359  1  0.74837167  0.92355733  0.19664565  1.0
  Ni  Ni360  1  0.08181767  0.14581200  0.12980465  1.0
  Ni  Ni361  1  0.08181767  0.47914533  0.12980465  1.0
  Ni  Ni362  1  0.08181767  0.81247867  0.12980465  1.0
  Ni  Ni363  1  0.41515100  0.14581200  0.12980465  1.0
  Ni  Ni364  1  0.41515100  0.47914533  0.12980465  1.0
  Ni  Ni365  1  0.41515100  0.81247867  0.12980465  1.0
  Ni  Ni366  1  0.74848433  0.14581200  0.12980465  1.0
  Ni  Ni367  1  0.74848433  0.47914533  0.12980465  1.0
  Ni  Ni368  1  0.74848433  0.81247867  0.12980465  1.0
  Ni  Ni369  1  0.08181767  0.31247867  0.02980465  1.0
  Ni  Ni370  1  0.08181767  0.64581200  0.02980465  1.0
  Ni  Ni371  1  0.08181767  0.97914533  0.02980465  1.0
  Ni  Ni372  1  0.41515100  0.31247867  0.02980465  1.0
  Ni  Ni373  1  0.41515100  0.64581200  0.02980465  1.0
  Ni  Ni374  1  0.41515100  0.97914533  0.02980465  1.0
  Ni  Ni375  1  0.74848433  0.31247867  0.02980465  1.0
  Ni  Ni376  1  0.74848433  0.64581200  0.02980465  1.0
  Ni  Ni377  1  0.74848433  0.97914533  0.02980465  1.0
  Ni  Ni378  1  0.25052167  0.04865667  0.17094485  1.0
  Ni  Ni379  1  0.25052167  0.38199000  0.17094485  1.0
  Ni  Ni380  1  0.25052167  0.71532333  0.17094485  1.0
  Ni  Ni381  1  0.58385500  0.04865667  0.17094485  1.0
  Ni  Ni382  1  0.58385500  0.38199000  0.17094485  1.0
  Ni  Ni383  1  0.58385500  0.71532333  0.17094485  1.0
  Ni  Ni384  1  0.91718833  0.04865667  0.17094485  1.0
  Ni  Ni385  1  0.91718833  0.38199000  0.17094485  1.0
  Ni  Ni386  1  0.91718833  0.71532333  0.17094485  1.0
  Ni  Ni387  1  0.25052167  0.21532333  0.07094485  1.0
  Ni  Ni388  1  0.25052167  0.54865667  0.07094485  1.0
  Ni  Ni389  1  0.25052167  0.88199000  0.07094485  1.0
  Ni  Ni390  1  0.58385500  0.21532333  0.07094485  1.0
  Ni  Ni391  1  0.58385500  0.54865667  0.07094485  1.0
  Ni  Ni392  1  0.58385500  0.88199000  0.07094485  1.0
  Ni  Ni393  1  0.91718833  0.21532333  0.07094485  1.0
  Ni  Ni394  1  0.91718833  0.54865667  0.07094485  1.0
  Ni  Ni395  1  0.91718833  0.88199000  0.07094485  1.0
  Ni  Ni396  1  0.25070933  0.10420717  0.00606975  1.0
  Ni  Ni397  1  0.25070933  0.43754050  0.00606975  1.0
  Ni  Ni398  1  0.25070933  0.77087383  0.00606975  1.0
  Ni  Ni399  1  0.58404267  0.10420717  0.00606975  1.0
  Ni  Ni400  1  0.58404267  0.43754050  0.00606975  1.0
  Ni  Ni401  1  0.58404267  0.77087383  0.00606975  1.0
  Ni  Ni402  1  0.91737600  0.10420717  0.00606975  1.0
  Ni  Ni403  1  0.91737600  0.43754050  0.00606975  1.0
  Ni  Ni404  1  0.91737600  0.77087383  0.00606975  1.0
  Ni  Ni405  1  0.25070933  0.27087383  0.10606975  1.0
  Ni  Ni406  1  0.25070933  0.60420717  0.10606975  1.0
  Ni  Ni407  1  0.25070933  0.93754050  0.10606975  1.0
  Ni  Ni408  1  0.58404267  0.27087383  0.10606975  1.0
  Ni  Ni409  1  0.58404267  0.60420717  0.10606975  1.0
  Ni  Ni410  1  0.58404267  0.93754050  0.10606975  1.0
  Ni  Ni411  1  0.91737600  0.27087383  0.10606975  1.0
  Ni  Ni412  1  0.91737600  0.60420717  0.10606975  1.0
  Ni  Ni413  1  0.91737600  0.93754050  0.10606975  1.0
  Ni  Ni414  1  0.25085733  0.15985583  0.03956975  1.0
  Ni  Ni415  1  0.25085733  0.49318917  0.03956975  1.0
  Ni  Ni416  1  0.25085733  0.82652250  0.03956975  1.0
  Ni  Ni417  1  0.58419067  0.15985583  0.03956975  1.0
  Ni  Ni418  1  0.58419067  0.49318917  0.03956975  1.0
  Ni  Ni419  1  0.58419067  0.82652250  0.03956975  1.0
  Ni  Ni420  1  0.91752400  0.15985583  0.03956975  1.0
  Ni  Ni421  1  0.91752400  0.49318917  0.03956975  1.0
  Ni  Ni422  1  0.91752400  0.82652250  0.03956975  1.0
  Ni  Ni423  1  0.25085733  0.32652250  0.13956975  1.0
  Ni  Ni424  1  0.25085733  0.65985583  0.13956975  1.0
  Ni  Ni425  1  0.25085733  0.99318917  0.13956975  1.0
  Ni  Ni426  1  0.58419067  0.32652250  0.13956975  1.0
  Ni  Ni427  1  0.58419067  0.65985583  0.13956975  1.0
  Ni  Ni428  1  0.58419067  0.99318917  0.13956975  1.0
  Ni  Ni429  1  0.91752400  0.32652250  0.13956975  1.0
  Ni  Ni430  1  0.91752400  0.65985583  0.13956975  1.0
  Ni  Ni431  1  0.91752400  0.99318917  0.13956975  1.0
  Ni  Ni432  1  0.00000000  0.10383833  0.07163765  1.0
  Ni  Ni433  1  0.00000000  0.43717167  0.07163765  1.0
  Ni  Ni434  1  0.00000000  0.77050500  0.07163765  1.0
  Ni  Ni435  1  0.33333333  0.10383833  0.07163765  1.0
  Ni  Ni436  1  0.33333333  0.43717167  0.07163765  1.0
  Ni  Ni437  1  0.33333333  0.77050500  0.07163765  1.0
  Ni  Ni438  1  0.66666667  0.10383833  0.07163765  1.0
  Ni  Ni439  1  0.66666667  0.43717167  0.07163765  1.0
  Ni  Ni440  1  0.66666667  0.77050500  0.07163765  1.0
  Ni  Ni441  1  0.00000000  0.27050500  0.17163765  1.0
  Ni  Ni442  1  0.00000000  0.60383833  0.17163765  1.0
  Ni  Ni443  1  0.00000000  0.93717167  0.17163765  1.0
  Ni  Ni444  1  0.33333333  0.27050500  0.17163765  1.0
  Ni  Ni445  1  0.33333333  0.60383833  0.17163765  1.0
  Ni  Ni446  1  0.33333333  0.93717167  0.17163765  1.0
  Ni  Ni447  1  0.66666667  0.27050500  0.17163765  1.0
  Ni  Ni448  1  0.66666667  0.60383833  0.17163765  1.0
  Ni  Ni449  1  0.66666667  0.93717167  0.17163765  1.0
  Ni  Ni450  1  0.00000000  0.15950100  0.10509425  1.0
  Ni  Ni451  1  0.00000000  0.49283433  0.10509425  1.0
  Ni  Ni452  1  0.00000000  0.82616767  0.10509425  1.0
  Ni  Ni453  1  0.33333333  0.15950100  0.10509425  1.0
  Ni  Ni454  1  0.33333333  0.49283433  0.10509425  1.0
  Ni  Ni455  1  0.33333333  0.82616767  0.10509425  1.0
  Ni  Ni456  1  0.66666667  0.15950100  0.10509425  1.0
  Ni  Ni457  1  0.66666667  0.49283433  0.10509425  1.0
  Ni  Ni458  1  0.66666667  0.82616767  0.10509425  1.0
  Ni  Ni459  1  0.00000000  0.32616767  0.00509425  1.0
  Ni  Ni460  1  0.00000000  0.65950100  0.00509425  1.0
  Ni  Ni461  1  0.00000000  0.99283433  0.00509425  1.0
  Ni  Ni462  1  0.33333333  0.32616767  0.00509425  1.0
  Ni  Ni463  1  0.33333333  0.65950100  0.00509425  1.0
  Ni  Ni464  1  0.33333333  0.99283433  0.00509425  1.0
  Ni  Ni465  1  0.66666667  0.32616767  0.00509425  1.0
  Ni  Ni466  1  0.66666667  0.65950100  0.00509425  1.0
  Ni  Ni467  1  0.66666667  0.99283433  0.00509425  1.0
  Ni  Ni468  1  0.16666667  0.02062633  0.08487485  1.0
  Ni  Ni469  1  0.16666667  0.35395967  0.08487485  1.0
  Ni  Ni470  1  0.16666667  0.68729300  0.08487485  1.0
  Ni  Ni471  1  0.50000000  0.02062633  0.08487485  1.0
  Ni  Ni472  1  0.50000000  0.35395967  0.08487485  1.0
  Ni  Ni473  1  0.50000000  0.68729300  0.08487485  1.0
  Ni  Ni474  1  0.83333333  0.02062633  0.08487485  1.0
  Ni  Ni475  1  0.83333333  0.35395967  0.08487485  1.0
  Ni  Ni476  1  0.83333333  0.68729300  0.08487485  1.0
  Ni  Ni477  1  0.16666667  0.18729300  0.18487485  1.0
  Ni  Ni478  1  0.16666667  0.52062633  0.18487485  1.0
  Ni  Ni479  1  0.16666667  0.85395967  0.18487485  1.0
  Ni  Ni480  1  0.50000000  0.18729300  0.18487485  1.0
  Ni  Ni481  1  0.50000000  0.52062633  0.18487485  1.0
  Ni  Ni482  1  0.50000000  0.85395967  0.18487485  1.0
  Ni  Ni483  1  0.83333333  0.18729300  0.18487485  1.0
  Ni  Ni484  1  0.83333333  0.52062633  0.18487485  1.0
  Ni  Ni485  1  0.83333333  0.85395967  0.18487485  1.0
  Ni  Ni486  1  0.16666667  0.07656533  0.11873985  1.0
  Ni  Ni487  1  0.16666667  0.40989867  0.11873985  1.0
  Ni  Ni488  1  0.16666667  0.74323200  0.11873985  1.0
  Ni  Ni489  1  0.50000000  0.07656533  0.11873985  1.0
  Ni  Ni490  1  0.50000000  0.40989867  0.11873985  1.0
  Ni  Ni491  1  0.50000000  0.74323200  0.11873985  1.0
  Ni  Ni492  1  0.83333333  0.07656533  0.11873985  1.0
  Ni  Ni493  1  0.83333333  0.40989867  0.11873985  1.0
  Ni  Ni494  1  0.83333333  0.74323200  0.11873985  1.0
  Ni  Ni495  1  0.16666667  0.24323200  0.01873985  1.0
  Ni  Ni496  1  0.16666667  0.57656533  0.01873985  1.0
  Ni  Ni497  1  0.16666667  0.90989867  0.01873985  1.0
  Ni  Ni498  1  0.50000000  0.24323200  0.01873985  1.0
  Ni  Ni499  1  0.50000000  0.57656533  0.01873985  1.0
  Ni  Ni500  1  0.50000000  0.90989867  0.01873985  1.0
  Ni  Ni501  1  0.83333333  0.24323200  0.01873985  1.0
  Ni  Ni502  1  0.83333333  0.57656533  0.01873985  1.0
  Ni  Ni503  1  0.83333333  0.90989867  0.01873985  1.0
  Ni  Ni504  1  0.16666667  0.13189150  0.15131375  1.0
  Ni  Ni505  1  0.16666667  0.46522483  0.15131375  1.0
  Ni  Ni506  1  0.16666667  0.79855817  0.15131375  1.0
  Ni  Ni507  1  0.50000000  0.13189150  0.15131375  1.0
  Ni  Ni508  1  0.50000000  0.46522483  0.15131375  1.0
  Ni  Ni509  1  0.50000000  0.79855817  0.15131375  1.0
  Ni  Ni510  1  0.83333333  0.13189150  0.15131375  1.0
  Ni  Ni511  1  0.83333333  0.46522483  0.15131375  1.0
  Ni  Ni512  1  0.83333333  0.79855817  0.15131375  1.0
  Ni  Ni513  1  0.16666667  0.29855817  0.05131375  1.0
  Ni  Ni514  1  0.16666667  0.63189150  0.05131375  1.0
  Ni  Ni515  1  0.16666667  0.96522483  0.05131375  1.0
  Ni  Ni516  1  0.50000000  0.29855817  0.05131375  1.0
  Ni  Ni517  1  0.50000000  0.63189150  0.05131375  1.0
  Ni  Ni518  1  0.50000000  0.96522483  0.05131375  1.0
  Ni  Ni519  1  0.83333333  0.29855817  0.05131375  1.0
  Ni  Ni520  1  0.83333333  0.63189150  0.05131375  1.0
  Ni  Ni521  1  0.83333333  0.96522483  0.05131375  1.0
  Ni  Ni522  1  0.16666667  0.00713983  0.17717715  1.0
  Ni  Ni523  1  0.16666667  0.34047317  0.17717715  1.0
  Ni  Ni524  1  0.16666667  0.67380650  0.17717715  1.0
  Ni  Ni525  1  0.50000000  0.00713983  0.17717715  1.0
  Ni  Ni526  1  0.50000000  0.34047317  0.17717715  1.0
  Ni  Ni527  1  0.50000000  0.67380650  0.17717715  1.0
  Ni  Ni528  1  0.83333333  0.00713983  0.17717715  1.0
  Ni  Ni529  1  0.83333333  0.34047317  0.17717715  1.0
  Ni  Ni530  1  0.83333333  0.67380650  0.17717715  1.0
  Ni  Ni531  1  0.16666667  0.17380650  0.07717715  1.0
  Ni  Ni532  1  0.16666667  0.50713983  0.07717715  1.0
  Ni  Ni533  1  0.16666667  0.84047317  0.07717715  1.0
  Ni  Ni534  1  0.50000000  0.17380650  0.07717715  1.0
  Ni  Ni535  1  0.50000000  0.50713983  0.07717715  1.0
  Ni  Ni536  1  0.50000000  0.84047317  0.07717715  1.0
  Ni  Ni537  1  0.83333333  0.17380650  0.07717715  1.0
  Ni  Ni538  1  0.83333333  0.50713983  0.07717715  1.0
  Ni  Ni539  1  0.83333333  0.84047317  0.07717715  1.0
  Ni  Ni540  1  0.16666667  0.06237767  0.01036705  1.0
  Ni  Ni541  1  0.16666667  0.39571100  0.01036705  1.0
  Ni  Ni542  1  0.16666667  0.72904433  0.01036705  1.0
  Ni  Ni543  1  0.50000000  0.06237767  0.01036705  1.0
  Ni  Ni544  1  0.50000000  0.39571100  0.01036705  1.0
  Ni  Ni545  1  0.50000000  0.72904433  0.01036705  1.0
  Ni  Ni546  1  0.83333333  0.06237767  0.01036705  1.0
  Ni  Ni547  1  0.83333333  0.39571100  0.01036705  1.0
  Ni  Ni548  1  0.83333333  0.72904433  0.01036705  1.0
  Ni  Ni549  1  0.16666667  0.22904433  0.11036705  1.0
  Ni  Ni550  1  0.16666667  0.56237767  0.11036705  1.0
  Ni  Ni551  1  0.16666667  0.89571100  0.11036705  1.0
  Ni  Ni552  1  0.50000000  0.22904433  0.11036705  1.0
  Ni  Ni553  1  0.50000000  0.56237767  0.11036705  1.0
  Ni  Ni554  1  0.50000000  0.89571100  0.11036705  1.0
  Ni  Ni555  1  0.83333333  0.22904433  0.11036705  1.0
  Ni  Ni556  1  0.83333333  0.56237767  0.11036705  1.0
  Ni  Ni557  1  0.83333333  0.89571100  0.11036705  1.0
  Ni  Ni558  1  0.16666667  0.11812283  0.04377275  1.0
  Ni  Ni559  1  0.16666667  0.45145617  0.04377275  1.0
  Ni  Ni560  1  0.16666667  0.78478950  0.04377275  1.0
  Ni  Ni561  1  0.50000000  0.11812283  0.04377275  1.0
  Ni  Ni562  1  0.50000000  0.45145617  0.04377275  1.0
  Ni  Ni563  1  0.50000000  0.78478950  0.04377275  1.0
  Ni  Ni564  1  0.83333333  0.11812283  0.04377275  1.0
  Ni  Ni565  1  0.83333333  0.45145617  0.04377275  1.0
  Ni  Ni566  1  0.83333333  0.78478950  0.04377275  1.0
  Ni  Ni567  1  0.16666667  0.28478950  0.14377275  1.0
  Ni  Ni568  1  0.16666667  0.61812283  0.14377275  1.0
  Ni  Ni569  1  0.16666667  0.95145617  0.14377275  1.0
  Ni  Ni570  1  0.50000000  0.28478950  0.14377275  1.0
  Ni  Ni571  1  0.50000000  0.61812283  0.14377275  1.0
  Ni  Ni572  1  0.50000000  0.95145617  0.14377275  1.0
  Ni  Ni573  1  0.83333333  0.28478950  0.14377275  1.0
  Ni  Ni574  1  0.83333333  0.61812283  0.14377275  1.0
  Ni  Ni575  1  0.83333333  0.95145617  0.14377275  1.0
  Sn  Sn576  1  0.00000000  0.00819017  0.17686995  1.0
  Sn  Sn577  1  0.00000000  0.34152350  0.17686995  1.0
  Sn  Sn578  1  0.00000000  0.67485683  0.17686995  1.0
  Sn  Sn579  1  0.33333333  0.00819017  0.17686995  1.0
  Sn  Sn580  1  0.33333333  0.34152350  0.17686995  1.0
  Sn  Sn581  1  0.33333333  0.67485683  0.17686995  1.0
  Sn  Sn582  1  0.66666667  0.00819017  0.17686995  1.0
  Sn  Sn583  1  0.66666667  0.34152350  0.17686995  1.0
  Sn  Sn584  1  0.66666667  0.67485683  0.17686995  1.0
  Sn  Sn585  1  0.00000000  0.17485683  0.07686995  1.0
  Sn  Sn586  1  0.00000000  0.50819017  0.07686995  1.0
  Sn  Sn587  1  0.00000000  0.84152350  0.07686995  1.0
  Sn  Sn588  1  0.33333333  0.17485683  0.07686995  1.0
  Sn  Sn589  1  0.33333333  0.50819017  0.07686995  1.0
  Sn  Sn590  1  0.33333333  0.84152350  0.07686995  1.0
  Sn  Sn591  1  0.66666667  0.17485683  0.07686995  1.0
  Sn  Sn592  1  0.66666667  0.50819017  0.07686995  1.0
  Sn  Sn593  1  0.66666667  0.84152350  0.07686995  1.0
  Sn  Sn594  1  0.00000000  0.06256317  0.01118535  1.0
  Sn  Sn595  1  0.00000000  0.39589650  0.01118535  1.0
  Sn  Sn596  1  0.00000000  0.72922983  0.01118535  1.0
  Sn  Sn597  1  0.33333333  0.06256317  0.01118535  1.0
  Sn  Sn598  1  0.33333333  0.39589650  0.01118535  1.0
  Sn  Sn599  1  0.33333333  0.72922983  0.01118535  1.0
  Sn  Sn600  1  0.66666667  0.06256317  0.01118535  1.0
  Sn  Sn601  1  0.66666667  0.39589650  0.01118535  1.0
  Sn  Sn602  1  0.66666667  0.72922983  0.01118535  1.0
  Sn  Sn603  1  0.00000000  0.22922983  0.11118535  1.0
  Sn  Sn604  1  0.00000000  0.56256317  0.11118535  1.0
  Sn  Sn605  1  0.00000000  0.89589650  0.11118535  1.0
  Sn  Sn606  1  0.33333333  0.22922983  0.11118535  1.0
  Sn  Sn607  1  0.33333333  0.56256317  0.11118535  1.0
  Sn  Sn608  1  0.33333333  0.89589650  0.11118535  1.0
  Sn  Sn609  1  0.66666667  0.22922983  0.11118535  1.0
  Sn  Sn610  1  0.66666667  0.56256317  0.11118535  1.0
  Sn  Sn611  1  0.66666667  0.89589650  0.11118535  1.0
  Sn  Sn612  1  0.00000000  0.11909950  0.04331895  1.0
  Sn  Sn613  1  0.00000000  0.45243283  0.04331895  1.0
  Sn  Sn614  1  0.00000000  0.78576617  0.04331895  1.0
  Sn  Sn615  1  0.33333333  0.11909950  0.04331895  1.0
  Sn  Sn616  1  0.33333333  0.45243283  0.04331895  1.0
  Sn  Sn617  1  0.33333333  0.78576617  0.04331895  1.0
  Sn  Sn618  1  0.66666667  0.11909950  0.04331895  1.0
  Sn  Sn619  1  0.66666667  0.45243283  0.04331895  1.0
  Sn  Sn620  1  0.66666667  0.78576617  0.04331895  1.0
  Sn  Sn621  1  0.00000000  0.28576617  0.14331895  1.0
  Sn  Sn622  1  0.00000000  0.61909950  0.14331895  1.0
  Sn  Sn623  1  0.00000000  0.95243283  0.14331895  1.0
  Sn  Sn624  1  0.33333333  0.28576617  0.14331895  1.0
  Sn  Sn625  1  0.33333333  0.61909950  0.14331895  1.0
  Sn  Sn626  1  0.33333333  0.95243283  0.14331895  1.0
  Sn  Sn627  1  0.66666667  0.28576617  0.14331895  1.0
  Sn  Sn628  1  0.66666667  0.61909950  0.14331895  1.0
  Sn  Sn629  1  0.66666667  0.95243283  0.14331895  1.0
  Sn  Sn630  1  0.00000000  0.02066350  0.08567915  1.0
  Sn  Sn631  1  0.00000000  0.35399683  0.08567915  1.0
  Sn  Sn632  1  0.00000000  0.68733017  0.08567915  1.0
  Sn  Sn633  1  0.33333333  0.02066350  0.08567915  1.0
  Sn  Sn634  1  0.33333333  0.35399683  0.08567915  1.0
  Sn  Sn635  1  0.33333333  0.68733017  0.08567915  1.0
  Sn  Sn636  1  0.66666667  0.02066350  0.08567915  1.0
  Sn  Sn637  1  0.66666667  0.35399683  0.08567915  1.0
  Sn  Sn638  1  0.66666667  0.68733017  0.08567915  1.0
  Sn  Sn639  1  0.00000000  0.18733017  0.18567915  1.0
  Sn  Sn640  1  0.00000000  0.52066350  0.18567915  1.0
  Sn  Sn641  1  0.00000000  0.85399683  0.18567915  1.0
  Sn  Sn642  1  0.33333333  0.18733017  0.18567915  1.0
  Sn  Sn643  1  0.33333333  0.52066350  0.18567915  1.0
  Sn  Sn644  1  0.33333333  0.85399683  0.18567915  1.0
  Sn  Sn645  1  0.66666667  0.18733017  0.18567915  1.0
  Sn  Sn646  1  0.66666667  0.52066350  0.18567915  1.0
  Sn  Sn647  1  0.66666667  0.85399683  0.18567915  1.0
  Sn  Sn648  1  0.00000000  0.07604100  0.11874785  1.0
  Sn  Sn649  1  0.00000000  0.40937433  0.11874785  1.0
  Sn  Sn650  1  0.00000000  0.74270767  0.11874785  1.0
  Sn  Sn651  1  0.33333333  0.07604100  0.11874785  1.0
  Sn  Sn652  1  0.33333333  0.40937433  0.11874785  1.0
  Sn  Sn653  1  0.33333333  0.74270767  0.11874785  1.0
  Sn  Sn654  1  0.66666667  0.07604100  0.11874785  1.0
  Sn  Sn655  1  0.66666667  0.40937433  0.11874785  1.0
  Sn  Sn656  1  0.66666667  0.74270767  0.11874785  1.0
  Sn  Sn657  1  0.00000000  0.24270767  0.01874785  1.0
  Sn  Sn658  1  0.00000000  0.57604100  0.01874785  1.0
  Sn  Sn659  1  0.00000000  0.90937433  0.01874785  1.0
  Sn  Sn660  1  0.33333333  0.24270767  0.01874785  1.0
  Sn  Sn661  1  0.33333333  0.57604100  0.01874785  1.0
  Sn  Sn662  1  0.33333333  0.90937433  0.01874785  1.0
  Sn  Sn663  1  0.66666667  0.24270767  0.01874785  1.0
  Sn  Sn664  1  0.66666667  0.57604100  0.01874785  1.0
  Sn  Sn665  1  0.66666667  0.90937433  0.01874785  1.0
  Sn  Sn666  1  0.00000000  0.13164317  0.15156935  1.0
  Sn  Sn667  1  0.00000000  0.46497650  0.15156935  1.0
  Sn  Sn668  1  0.00000000  0.79830983  0.15156935  1.0
  Sn  Sn669  1  0.33333333  0.13164317  0.15156935  1.0
  Sn  Sn670  1  0.33333333  0.46497650  0.15156935  1.0
  Sn  Sn671  1  0.33333333  0.79830983  0.15156935  1.0
  Sn  Sn672  1  0.66666667  0.13164317  0.15156935  1.0
  Sn  Sn673  1  0.66666667  0.46497650  0.15156935  1.0
  Sn  Sn674  1  0.66666667  0.79830983  0.15156935  1.0
  Sn  Sn675  1  0.00000000  0.29830983  0.05156935  1.0
  Sn  Sn676  1  0.00000000  0.63164317  0.05156935  1.0
  Sn  Sn677  1  0.00000000  0.96497650  0.05156935  1.0
  Sn  Sn678  1  0.33333333  0.29830983  0.05156935  1.0
  Sn  Sn679  1  0.33333333  0.63164317  0.05156935  1.0
  Sn  Sn680  1  0.33333333  0.96497650  0.05156935  1.0
  Sn  Sn681  1  0.66666667  0.29830983  0.05156935  1.0
  Sn  Sn682  1  0.66666667  0.63164317  0.05156935  1.0
  Sn  Sn683  1  0.66666667  0.96497650  0.05156935  1.0
  Sn  Sn684  1  0.16666667  0.04773867  0.03855365  1.0
  Sn  Sn685  1  0.16666667  0.38107200  0.03855365  1.0
  Sn  Sn686  1  0.16666667  0.71440533  0.03855365  1.0
  Sn  Sn687  1  0.50000000  0.04773867  0.03855365  1.0
  Sn  Sn688  1  0.50000000  0.38107200  0.03855365  1.0
  Sn  Sn689  1  0.50000000  0.71440533  0.03855365  1.0
  Sn  Sn690  1  0.83333333  0.04773867  0.03855365  1.0
  Sn  Sn691  1  0.83333333  0.38107200  0.03855365  1.0
  Sn  Sn692  1  0.83333333  0.71440533  0.03855365  1.0
  Sn  Sn693  1  0.16666667  0.21440533  0.13855365  1.0
  Sn  Sn694  1  0.16666667  0.54773867  0.13855365  1.0
  Sn  Sn695  1  0.16666667  0.88107200  0.13855365  1.0
  Sn  Sn696  1  0.50000000  0.21440533  0.13855365  1.0
  Sn  Sn697  1  0.50000000  0.54773867  0.13855365  1.0
  Sn  Sn698  1  0.50000000  0.88107200  0.13855365  1.0
  Sn  Sn699  1  0.83333333  0.21440533  0.13855365  1.0
  Sn  Sn700  1  0.83333333  0.54773867  0.13855365  1.0
  Sn  Sn701  1  0.83333333  0.88107200  0.13855365  1.0
  Sn  Sn702  1  0.16666667  0.10325750  0.07253175  1.0
  Sn  Sn703  1  0.16666667  0.43659083  0.07253175  1.0
  Sn  Sn704  1  0.16666667  0.76992417  0.07253175  1.0
  Sn  Sn705  1  0.50000000  0.10325750  0.07253175  1.0
  Sn  Sn706  1  0.50000000  0.43659083  0.07253175  1.0
  Sn  Sn707  1  0.50000000  0.76992417  0.07253175  1.0
  Sn  Sn708  1  0.83333333  0.10325750  0.07253175  1.0
  Sn  Sn709  1  0.83333333  0.43659083  0.07253175  1.0
  Sn  Sn710  1  0.83333333  0.76992417  0.07253175  1.0
  Sn  Sn711  1  0.16666667  0.26992417  0.17253175  1.0
  Sn  Sn712  1  0.16666667  0.60325750  0.17253175  1.0
  Sn  Sn713  1  0.16666667  0.93659083  0.17253175  1.0
  Sn  Sn714  1  0.50000000  0.26992417  0.17253175  1.0
  Sn  Sn715  1  0.50000000  0.60325750  0.17253175  1.0
  Sn  Sn716  1  0.50000000  0.93659083  0.17253175  1.0
  Sn  Sn717  1  0.83333333  0.26992417  0.17253175  1.0
  Sn  Sn718  1  0.83333333  0.60325750  0.17253175  1.0
  Sn  Sn719  1  0.83333333  0.93659083  0.17253175  1.0
  Sn  Sn720  1  0.16666667  0.15892350  0.10591535  1.0
  Sn  Sn721  1  0.16666667  0.49225683  0.10591535  1.0
  Sn  Sn722  1  0.16666667  0.82559017  0.10591535  1.0
  Sn  Sn723  1  0.50000000  0.15892350  0.10591535  1.0
  Sn  Sn724  1  0.50000000  0.49225683  0.10591535  1.0
  Sn  Sn725  1  0.50000000  0.82559017  0.10591535  1.0
  Sn  Sn726  1  0.83333333  0.15892350  0.10591535  1.0
  Sn  Sn727  1  0.83333333  0.49225683  0.10591535  1.0
  Sn  Sn728  1  0.83333333  0.82559017  0.10591535  1.0
  Sn  Sn729  1  0.16666667  0.32559017  0.00591535  1.0
  Sn  Sn730  1  0.16666667  0.65892350  0.00591535  1.0
  Sn  Sn731  1  0.16666667  0.99225683  0.00591535  1.0
  Sn  Sn732  1  0.50000000  0.32559017  0.00591535  1.0
  Sn  Sn733  1  0.50000000  0.65892350  0.00591535  1.0
  Sn  Sn734  1  0.50000000  0.99225683  0.00591535  1.0
  Sn  Sn735  1  0.83333333  0.32559017  0.00591535  1.0
  Sn  Sn736  1  0.83333333  0.65892350  0.00591535  1.0
  Sn  Sn737  1  0.83333333  0.99225683  0.00591535  1.0
  Sn  Sn738  1  0.16666667  0.03559767  0.13039785  1.0
  Sn  Sn739  1  0.16666667  0.36893100  0.13039785  1.0
  Sn  Sn740  1  0.16666667  0.70226433  0.13039785  1.0
  Sn  Sn741  1  0.50000000  0.03559767  0.13039785  1.0
  Sn  Sn742  1  0.50000000  0.36893100  0.13039785  1.0
  Sn  Sn743  1  0.50000000  0.70226433  0.13039785  1.0
  Sn  Sn744  1  0.83333333  0.03559767  0.13039785  1.0
  Sn  Sn745  1  0.83333333  0.36893100  0.13039785  1.0
  Sn  Sn746  1  0.83333333  0.70226433  0.13039785  1.0
  Sn  Sn747  1  0.16666667  0.20226433  0.03039785  1.0
  Sn  Sn748  1  0.16666667  0.53559767  0.03039785  1.0
  Sn  Sn749  1  0.16666667  0.86893100  0.03039785  1.0
  Sn  Sn750  1  0.50000000  0.20226433  0.03039785  1.0
  Sn  Sn751  1  0.50000000  0.53559767  0.03039785  1.0
  Sn  Sn752  1  0.50000000  0.86893100  0.03039785  1.0
  Sn  Sn753  1  0.83333333  0.20226433  0.03039785  1.0
  Sn  Sn754  1  0.83333333  0.53559767  0.03039785  1.0
  Sn  Sn755  1  0.83333333  0.86893100  0.03039785  1.0
  Sn  Sn756  1  0.16666667  0.09111583  0.16514975  1.0
  Sn  Sn757  1  0.16666667  0.42444917  0.16514975  1.0
  Sn  Sn758  1  0.16666667  0.75778250  0.16514975  1.0
  Sn  Sn759  1  0.50000000  0.09111583  0.16514975  1.0
  Sn  Sn760  1  0.50000000  0.42444917  0.16514975  1.0
  Sn  Sn761  1  0.50000000  0.75778250  0.16514975  1.0
  Sn  Sn762  1  0.83333333  0.09111583  0.16514975  1.0
  Sn  Sn763  1  0.83333333  0.42444917  0.16514975  1.0
  Sn  Sn764  1  0.83333333  0.75778250  0.16514975  1.0
  Sn  Sn765  1  0.16666667  0.25778250  0.06514975  1.0
  Sn  Sn766  1  0.16666667  0.59111583  0.06514975  1.0
  Sn  Sn767  1  0.16666667  0.92444917  0.06514975  1.0
  Sn  Sn768  1  0.50000000  0.25778250  0.06514975  1.0
  Sn  Sn769  1  0.50000000  0.59111583  0.06514975  1.0
  Sn  Sn770  1  0.50000000  0.92444917  0.06514975  1.0
  Sn  Sn771  1  0.83333333  0.25778250  0.06514975  1.0
  Sn  Sn772  1  0.83333333  0.59111583  0.06514975  1.0
  Sn  Sn773  1  0.83333333  0.92444917  0.06514975  1.0
  Sn  Sn774  1  0.16666667  0.14673517  0.19795775  1.0
  Sn  Sn775  1  0.16666667  0.48006850  0.19795775  1.0
  Sn  Sn776  1  0.16666667  0.81340183  0.19795775  1.0
  Sn  Sn777  1  0.50000000  0.14673517  0.19795775  1.0
  Sn  Sn778  1  0.50000000  0.48006850  0.19795775  1.0
  Sn  Sn779  1  0.50000000  0.81340183  0.19795775  1.0
  Sn  Sn780  1  0.83333333  0.14673517  0.19795775  1.0
  Sn  Sn781  1  0.83333333  0.48006850  0.19795775  1.0
  Sn  Sn782  1  0.83333333  0.81340183  0.19795775  1.0
  Sn  Sn783  1  0.16666667  0.31340183  0.09795775  1.0
  Sn  Sn784  1  0.16666667  0.64673517  0.09795775  1.0
  Sn  Sn785  1  0.16666667  0.98006850  0.09795775  1.0
  Sn  Sn786  1  0.50000000  0.31340183  0.09795775  1.0
  Sn  Sn787  1  0.50000000  0.64673517  0.09795775  1.0
  Sn  Sn788  1  0.50000000  0.98006850  0.09795775  1.0
  Sn  Sn789  1  0.83333333  0.31340183  0.09795775  1.0
  Sn  Sn790  1  0.83333333  0.64673517  0.09795775  1.0
  Sn  Sn791  1  0.83333333  0.98006850  0.09795775  1.0
  Sn  Sn792  1  0.00000000  0.03479067  0.19412185  1.0
  Sn  Sn793  1  0.00000000  0.36812400  0.19412185  1.0
  Sn  Sn794  1  0.00000000  0.70145733  0.19412185  1.0
  Sn  Sn795  1  0.33333333  0.03479067  0.19412185  1.0
  Sn  Sn796  1  0.33333333  0.36812400  0.19412185  1.0
  Sn  Sn797  1  0.33333333  0.70145733  0.19412185  1.0
  Sn  Sn798  1  0.66666667  0.03479067  0.19412185  1.0
  Sn  Sn799  1  0.66666667  0.36812400  0.19412185  1.0
  Sn  Sn800  1  0.66666667  0.70145733  0.19412185  1.0
  Sn  Sn801  1  0.00000000  0.20145733  0.09412185  1.0
  Sn  Sn802  1  0.00000000  0.53479067  0.09412185  1.0
  Sn  Sn803  1  0.00000000  0.86812400  0.09412185  1.0
  Sn  Sn804  1  0.33333333  0.20145733  0.09412185  1.0
  Sn  Sn805  1  0.33333333  0.53479067  0.09412185  1.0
  Sn  Sn806  1  0.33333333  0.86812400  0.09412185  1.0
  Sn  Sn807  1  0.66666667  0.20145733  0.09412185  1.0
  Sn  Sn808  1  0.66666667  0.53479067  0.09412185  1.0
  Sn  Sn809  1  0.66666667  0.86812400  0.09412185  1.0
  Sn  Sn810  1  0.00000000  0.08918800  0.02439325  1.0
  Sn  Sn811  1  0.00000000  0.42252133  0.02439325  1.0
  Sn  Sn812  1  0.00000000  0.75585467  0.02439325  1.0
  Sn  Sn813  1  0.33333333  0.08918800  0.02439325  1.0
  Sn  Sn814  1  0.33333333  0.42252133  0.02439325  1.0
  Sn  Sn815  1  0.33333333  0.75585467  0.02439325  1.0
  Sn  Sn816  1  0.66666667  0.08918800  0.02439325  1.0
  Sn  Sn817  1  0.66666667  0.42252133  0.02439325  1.0
  Sn  Sn818  1  0.66666667  0.75585467  0.02439325  1.0
  Sn  Sn819  1  0.00000000  0.25585467  0.12439325  1.0
  Sn  Sn820  1  0.00000000  0.58918800  0.12439325  1.0
  Sn  Sn821  1  0.00000000  0.92252133  0.12439325  1.0
  Sn  Sn822  1  0.33333333  0.25585467  0.12439325  1.0
  Sn  Sn823  1  0.33333333  0.58918800  0.12439325  1.0
  Sn  Sn824  1  0.33333333  0.92252133  0.12439325  1.0
  Sn  Sn825  1  0.66666667  0.25585467  0.12439325  1.0
  Sn  Sn826  1  0.66666667  0.58918800  0.12439325  1.0
  Sn  Sn827  1  0.66666667  0.92252133  0.12439325  1.0
  Sn  Sn828  1  0.00000000  0.14492250  0.05769175  1.0
  Sn  Sn829  1  0.00000000  0.47825583  0.05769175  1.0
  Sn  Sn830  1  0.00000000  0.81158917  0.05769175  1.0
  Sn  Sn831  1  0.33333333  0.14492250  0.05769175  1.0
  Sn  Sn832  1  0.33333333  0.47825583  0.05769175  1.0
  Sn  Sn833  1  0.33333333  0.81158917  0.05769175  1.0
  Sn  Sn834  1  0.66666667  0.14492250  0.05769175  1.0
  Sn  Sn835  1  0.66666667  0.47825583  0.05769175  1.0
  Sn  Sn836  1  0.66666667  0.81158917  0.05769175  1.0
  Sn  Sn837  1  0.00000000  0.31158917  0.15769175  1.0
  Sn  Sn838  1  0.00000000  0.64492250  0.15769175  1.0
  Sn  Sn839  1  0.00000000  0.97825583  0.15769175  1.0
  Sn  Sn840  1  0.33333333  0.31158917  0.15769175  1.0
  Sn  Sn841  1  0.33333333  0.64492250  0.15769175  1.0
  Sn  Sn842  1  0.33333333  0.97825583  0.15769175  1.0
  Sn  Sn843  1  0.66666667  0.31158917  0.15769175  1.0
  Sn  Sn844  1  0.66666667  0.64492250  0.15769175  1.0
  Sn  Sn845  1  0.66666667  0.97825583  0.15769175  1.0
  Sn  Sn846  1  0.00000000  0.04875567  0.10277785  1.0
  Sn  Sn847  1  0.00000000  0.38208900  0.10277785  1.0
  Sn  Sn848  1  0.00000000  0.71542233  0.10277785  1.0
  Sn  Sn849  1  0.33333333  0.04875567  0.10277785  1.0
  Sn  Sn850  1  0.33333333  0.38208900  0.10277785  1.0
  Sn  Sn851  1  0.33333333  0.71542233  0.10277785  1.0
  Sn  Sn852  1  0.66666667  0.04875567  0.10277785  1.0
  Sn  Sn853  1  0.66666667  0.38208900  0.10277785  1.0
  Sn  Sn854  1  0.66666667  0.71542233  0.10277785  1.0
  Sn  Sn855  1  0.00000000  0.21542233  0.00277785  1.0
  Sn  Sn856  1  0.00000000  0.54875567  0.00277785  1.0
  Sn  Sn857  1  0.00000000  0.88208900  0.00277785  1.0
  Sn  Sn858  1  0.33333333  0.21542233  0.00277785  1.0
  Sn  Sn859  1  0.33333333  0.54875567  0.00277785  1.0
  Sn  Sn860  1  0.33333333  0.88208900  0.00277785  1.0
  Sn  Sn861  1  0.66666667  0.21542233  0.00277785  1.0
  Sn  Sn862  1  0.66666667  0.54875567  0.00277785  1.0
  Sn  Sn863  1  0.66666667  0.88208900  0.00277785  1.0
  Sn  Sn864  1  0.00000000  0.10430467  0.14235825  1.0
  Sn  Sn865  1  0.00000000  0.43763800  0.14235825  1.0
  Sn  Sn866  1  0.00000000  0.77097133  0.14235825  1.0
  Sn  Sn867  1  0.33333333  0.10430467  0.14235825  1.0
  Sn  Sn868  1  0.33333333  0.43763800  0.14235825  1.0
  Sn  Sn869  1  0.33333333  0.77097133  0.14235825  1.0
  Sn  Sn870  1  0.66666667  0.10430467  0.14235825  1.0
  Sn  Sn871  1  0.66666667  0.43763800  0.14235825  1.0
  Sn  Sn872  1  0.66666667  0.77097133  0.14235825  1.0
  Sn  Sn873  1  0.00000000  0.27097133  0.04235825  1.0
  Sn  Sn874  1  0.00000000  0.60430467  0.04235825  1.0
  Sn  Sn875  1  0.00000000  0.93763800  0.04235825  1.0
  Sn  Sn876  1  0.33333333  0.27097133  0.04235825  1.0
  Sn  Sn877  1  0.33333333  0.60430467  0.04235825  1.0
  Sn  Sn878  1  0.33333333  0.93763800  0.04235825  1.0
  Sn  Sn879  1  0.66666667  0.27097133  0.04235825  1.0
  Sn  Sn880  1  0.66666667  0.60430467  0.04235825  1.0
  Sn  Sn881  1  0.66666667  0.93763800  0.04235825  1.0
  Sn  Sn882  1  0.00000000  0.15982333  0.17581505  1.0
  Sn  Sn883  1  0.00000000  0.49315667  0.17581505  1.0
  Sn  Sn884  1  0.00000000  0.82649000  0.17581505  1.0
  Sn  Sn885  1  0.33333333  0.15982333  0.17581505  1.0
  Sn  Sn886  1  0.33333333  0.49315667  0.17581505  1.0
  Sn  Sn887  1  0.33333333  0.82649000  0.17581505  1.0
  Sn  Sn888  1  0.66666667  0.15982333  0.17581505  1.0
  Sn  Sn889  1  0.66666667  0.49315667  0.17581505  1.0
  Sn  Sn890  1  0.66666667  0.82649000  0.17581505  1.0
  Sn  Sn891  1  0.00000000  0.32649000  0.07581505  1.0
  Sn  Sn892  1  0.00000000  0.65982333  0.07581505  1.0
  Sn  Sn893  1  0.00000000  0.99315667  0.07581505  1.0
  Sn  Sn894  1  0.33333333  0.32649000  0.07581505  1.0
  Sn  Sn895  1  0.33333333  0.65982333  0.07581505  1.0
  Sn  Sn896  1  0.33333333  0.99315667  0.07581505  1.0
  Sn  Sn897  1  0.66666667  0.32649000  0.07581505  1.0
  Sn  Sn898  1  0.66666667  0.65982333  0.07581505  1.0
  Sn  Sn899  1  0.66666667  0.99315667  0.07581505  1.0
  Sn  Sn900  1  0.16666667  0.02275967  0.01573945  1.0
  Sn  Sn901  1  0.16666667  0.35609300  0.01573945  1.0
  Sn  Sn902  1  0.16666667  0.68942633  0.01573945  1.0
  Sn  Sn903  1  0.50000000  0.02275967  0.01573945  1.0
  Sn  Sn904  1  0.50000000  0.35609300  0.01573945  1.0
  Sn  Sn905  1  0.50000000  0.68942633  0.01573945  1.0
  Sn  Sn906  1  0.83333333  0.02275967  0.01573945  1.0
  Sn  Sn907  1  0.83333333  0.35609300  0.01573945  1.0
  Sn  Sn908  1  0.83333333  0.68942633  0.01573945  1.0
  Sn  Sn909  1  0.16666667  0.18942633  0.11573945  1.0
  Sn  Sn910  1  0.16666667  0.52275967  0.11573945  1.0
  Sn  Sn911  1  0.16666667  0.85609300  0.11573945  1.0
  Sn  Sn912  1  0.50000000  0.18942633  0.11573945  1.0
  Sn  Sn913  1  0.50000000  0.52275967  0.11573945  1.0
  Sn  Sn914  1  0.50000000  0.85609300  0.11573945  1.0
  Sn  Sn915  1  0.83333333  0.18942633  0.11573945  1.0
  Sn  Sn916  1  0.83333333  0.52275967  0.11573945  1.0
  Sn  Sn917  1  0.83333333  0.85609300  0.11573945  1.0
  Sn  Sn918  1  0.16666667  0.07805800  0.04897825  1.0
  Sn  Sn919  1  0.16666667  0.41139133  0.04897825  1.0
  Sn  Sn920  1  0.16666667  0.74472467  0.04897825  1.0
  Sn  Sn921  1  0.50000000  0.07805800  0.04897825  1.0
  Sn  Sn922  1  0.50000000  0.41139133  0.04897825  1.0
  Sn  Sn923  1  0.50000000  0.74472467  0.04897825  1.0
  Sn  Sn924  1  0.83333333  0.07805800  0.04897825  1.0
  Sn  Sn925  1  0.83333333  0.41139133  0.04897825  1.0
  Sn  Sn926  1  0.83333333  0.74472467  0.04897825  1.0
  Sn  Sn927  1  0.16666667  0.24472467  0.14897825  1.0
  Sn  Sn928  1  0.16666667  0.57805800  0.14897825  1.0
  Sn  Sn929  1  0.16666667  0.91139133  0.14897825  1.0
  Sn  Sn930  1  0.50000000  0.24472467  0.14897825  1.0
  Sn  Sn931  1  0.50000000  0.57805800  0.14897825  1.0
  Sn  Sn932  1  0.50000000  0.91139133  0.14897825  1.0
  Sn  Sn933  1  0.83333333  0.24472467  0.14897825  1.0
  Sn  Sn934  1  0.83333333  0.57805800  0.14897825  1.0
  Sn  Sn935  1  0.83333333  0.91139133  0.14897825  1.0
  Sn  Sn936  1  0.16666667  0.13383667  0.08203685  1.0
  Sn  Sn937  1  0.16666667  0.46717000  0.08203685  1.0
  Sn  Sn938  1  0.16666667  0.80050333  0.08203685  1.0
  Sn  Sn939  1  0.50000000  0.13383667  0.08203685  1.0
  Sn  Sn940  1  0.50000000  0.46717000  0.08203685  1.0
  Sn  Sn941  1  0.50000000  0.80050333  0.08203685  1.0
  Sn  Sn942  1  0.83333333  0.13383667  0.08203685  1.0
  Sn  Sn943  1  0.83333333  0.46717000  0.08203685  1.0
  Sn  Sn944  1  0.83333333  0.80050333  0.08203685  1.0
  Sn  Sn945  1  0.16666667  0.30050333  0.18203685  1.0
  Sn  Sn946  1  0.16666667  0.63383667  0.18203685  1.0
  Sn  Sn947  1  0.16666667  0.96717000  0.18203685  1.0
  Sn  Sn948  1  0.50000000  0.30050333  0.18203685  1.0
  Sn  Sn949  1  0.50000000  0.63383667  0.18203685  1.0
  Sn  Sn950  1  0.50000000  0.96717000  0.18203685  1.0
  Sn  Sn951  1  0.83333333  0.30050333  0.18203685  1.0
  Sn  Sn952  1  0.83333333  0.63383667  0.18203685  1.0
  Sn  Sn953  1  0.83333333  0.96717000  0.18203685  1.0
  Sn  Sn954  1  0.16666667  0.00515517  0.10587815  1.0
  Sn  Sn955  1  0.16666667  0.33848850  0.10587815  1.0
  Sn  Sn956  1  0.16666667  0.67182183  0.10587815  1.0
  Sn  Sn957  1  0.50000000  0.00515517  0.10587815  1.0
  Sn  Sn958  1  0.50000000  0.33848850  0.10587815  1.0
  Sn  Sn959  1  0.50000000  0.67182183  0.10587815  1.0
  Sn  Sn960  1  0.83333333  0.00515517  0.10587815  1.0
  Sn  Sn961  1  0.83333333  0.33848850  0.10587815  1.0
  Sn  Sn962  1  0.83333333  0.67182183  0.10587815  1.0
  Sn  Sn963  1  0.16666667  0.17182183  0.00587815  1.0
  Sn  Sn964  1  0.16666667  0.50515517  0.00587815  1.0
  Sn  Sn965  1  0.16666667  0.83848850  0.00587815  1.0
  Sn  Sn966  1  0.50000000  0.17182183  0.00587815  1.0
  Sn  Sn967  1  0.50000000  0.50515517  0.00587815  1.0
  Sn  Sn968  1  0.50000000  0.83848850  0.00587815  1.0
  Sn  Sn969  1  0.83333333  0.17182183  0.00587815  1.0
  Sn  Sn970  1  0.83333333  0.50515517  0.00587815  1.0
  Sn  Sn971  1  0.83333333  0.83848850  0.00587815  1.0
  Sn  Sn972  1  0.16666667  0.06077917  0.13835035  1.0
  Sn  Sn973  1  0.16666667  0.39411250  0.13835035  1.0
  Sn  Sn974  1  0.16666667  0.72744583  0.13835035  1.0
  Sn  Sn975  1  0.50000000  0.06077917  0.13835035  1.0
  Sn  Sn976  1  0.50000000  0.39411250  0.13835035  1.0
  Sn  Sn977  1  0.50000000  0.72744583  0.13835035  1.0
  Sn  Sn978  1  0.83333333  0.06077917  0.13835035  1.0
  Sn  Sn979  1  0.83333333  0.39411250  0.13835035  1.0
  Sn  Sn980  1  0.83333333  0.72744583  0.13835035  1.0
  Sn  Sn981  1  0.16666667  0.22744583  0.03835035  1.0
  Sn  Sn982  1  0.16666667  0.56077917  0.03835035  1.0
  Sn  Sn983  1  0.16666667  0.89411250  0.03835035  1.0
  Sn  Sn984  1  0.50000000  0.22744583  0.03835035  1.0
  Sn  Sn985  1  0.50000000  0.56077917  0.03835035  1.0
  Sn  Sn986  1  0.50000000  0.89411250  0.03835035  1.0
  Sn  Sn987  1  0.83333333  0.22744583  0.03835035  1.0
  Sn  Sn988  1  0.83333333  0.56077917  0.03835035  1.0
  Sn  Sn989  1  0.83333333  0.89411250  0.03835035  1.0
  Sn  Sn990  1  0.16666667  0.11629883  0.17232735  1.0
  Sn  Sn991  1  0.16666667  0.44963217  0.17232735  1.0
  Sn  Sn992  1  0.16666667  0.78296550  0.17232735  1.0
  Sn  Sn993  1  0.50000000  0.11629883  0.17232735  1.0
  Sn  Sn994  1  0.50000000  0.44963217  0.17232735  1.0
  Sn  Sn995  1  0.50000000  0.78296550  0.17232735  1.0
  Sn  Sn996  1  0.83333333  0.11629883  0.17232735  1.0
  Sn  Sn997  1  0.83333333  0.44963217  0.17232735  1.0
  Sn  Sn998  1  0.83333333  0.78296550  0.17232735  1.0
  Sn  Sn999  1  0.16666667  0.28296550  0.07232735  1.0
  Sn  Sn1000  1  0.16666667  0.61629883  0.07232735  1.0
  Sn  Sn1001  1  0.16666667  0.94963217  0.07232735  1.0
  Sn  Sn1002  1  0.50000000  0.28296550  0.07232735  1.0
  Sn  Sn1003  1  0.50000000  0.61629883  0.07232735  1.0
  Sn  Sn1004  1  0.50000000  0.94963217  0.07232735  1.0
  Sn  Sn1005  1  0.83333333  0.28296550  0.07232735  1.0
  Sn  Sn1006  1  0.83333333  0.61629883  0.07232735  1.0
  Sn  Sn1007  1  0.83333333  0.94963217  0.07232735  1.0
  Ni  Ni1008  1  0.25087300  0.03471933  0.26261365  1.0
  Ni  Ni1009  1  0.25087300  0.36805267  0.26261365  1.0
  Ni  Ni1010  1  0.25087300  0.70138600  0.26261365  1.0
  Ni  Ni1011  1  0.58420633  0.03471933  0.26261365  1.0
  Ni  Ni1012  1  0.58420633  0.36805267  0.26261365  1.0
  Ni  Ni1013  1  0.58420633  0.70138600  0.26261365  1.0
  Ni  Ni1014  1  0.91753967  0.03471933  0.26261365  1.0
  Ni  Ni1015  1  0.91753967  0.36805267  0.26261365  1.0
  Ni  Ni1016  1  0.91753967  0.70138600  0.26261365  1.0
  Ni  Ni1017  1  0.25087300  0.20138600  0.36261365  1.0
  Ni  Ni1018  1  0.25087300  0.53471933  0.36261365  1.0
  Ni  Ni1019  1  0.25087300  0.86805267  0.36261365  1.0
  Ni  Ni1020  1  0.58420633  0.20138600  0.36261365  1.0
  Ni  Ni1021  1  0.58420633  0.53471933  0.36261365  1.0
  Ni  Ni1022  1  0.58420633  0.86805267  0.36261365  1.0
  Ni  Ni1023  1  0.91753967  0.20138600  0.36261365  1.0
  Ni  Ni1024  1  0.91753967  0.53471933  0.36261365  1.0
  Ni  Ni1025  1  0.91753967  0.86805267  0.36261365  1.0
  Ni  Ni1026  1  0.25162833  0.09022400  0.29664565  1.0
  Ni  Ni1027  1  0.25162833  0.42355733  0.29664565  1.0
  Ni  Ni1028  1  0.25162833  0.75689067  0.29664565  1.0
  Ni  Ni1029  1  0.58496167  0.09022400  0.29664565  1.0
  Ni  Ni1030  1  0.58496167  0.42355733  0.29664565  1.0
  Ni  Ni1031  1  0.58496167  0.75689067  0.29664565  1.0
  Ni  Ni1032  1  0.91829500  0.09022400  0.29664565  1.0
  Ni  Ni1033  1  0.91829500  0.42355733  0.29664565  1.0
  Ni  Ni1034  1  0.91829500  0.75689067  0.29664565  1.0
  Ni  Ni1035  1  0.25162833  0.25689067  0.39664565  1.0
  Ni  Ni1036  1  0.25162833  0.59022400  0.39664565  1.0
  Ni  Ni1037  1  0.25162833  0.92355733  0.39664565  1.0
  Ni  Ni1038  1  0.58496167  0.25689067  0.39664565  1.0
  Ni  Ni1039  1  0.58496167  0.59022400  0.39664565  1.0
  Ni  Ni1040  1  0.58496167  0.92355733  0.39664565  1.0
  Ni  Ni1041  1  0.91829500  0.25689067  0.39664565  1.0
  Ni  Ni1042  1  0.91829500  0.59022400  0.39664565  1.0
  Ni  Ni1043  1  0.91829500  0.92355733  0.39664565  1.0
  Ni  Ni1044  1  0.25151567  0.14581200  0.32980465  1.0
  Ni  Ni1045  1  0.25151567  0.47914533  0.32980465  1.0
  Ni  Ni1046  1  0.25151567  0.81247867  0.32980465  1.0
  Ni  Ni1047  1  0.58484900  0.14581200  0.32980465  1.0
  Ni  Ni1048  1  0.58484900  0.47914533  0.32980465  1.0
  Ni  Ni1049  1  0.58484900  0.81247867  0.32980465  1.0
  Ni  Ni1050  1  0.91818233  0.14581200  0.32980465  1.0
  Ni  Ni1051  1  0.91818233  0.47914533  0.32980465  1.0
  Ni  Ni1052  1  0.91818233  0.81247867  0.32980465  1.0
  Ni  Ni1053  1  0.25151567  0.31247867  0.22980465  1.0
  Ni  Ni1054  1  0.25151567  0.64581200  0.22980465  1.0
  Ni  Ni1055  1  0.25151567  0.97914533  0.22980465  1.0
  Ni  Ni1056  1  0.58484900  0.31247867  0.22980465  1.0
  Ni  Ni1057  1  0.58484900  0.64581200  0.22980465  1.0
  Ni  Ni1058  1  0.58484900  0.97914533  0.22980465  1.0
  Ni  Ni1059  1  0.91818233  0.31247867  0.22980465  1.0
  Ni  Ni1060  1  0.91818233  0.64581200  0.22980465  1.0
  Ni  Ni1061  1  0.91818233  0.97914533  0.22980465  1.0
  Ni  Ni1062  1  0.08281167  0.04865667  0.37094485  1.0
  Ni  Ni1063  1  0.08281167  0.38199000  0.37094485  1.0
  Ni  Ni1064  1  0.08281167  0.71532333  0.37094485  1.0
  Ni  Ni1065  1  0.41614500  0.04865667  0.37094485  1.0
  Ni  Ni1066  1  0.41614500  0.38199000  0.37094485  1.0
  Ni  Ni1067  1  0.41614500  0.71532333  0.37094485  1.0
  Ni  Ni1068  1  0.74947833  0.04865667  0.37094485  1.0
  Ni  Ni1069  1  0.74947833  0.38199000  0.37094485  1.0
  Ni  Ni1070  1  0.74947833  0.71532333  0.37094485  1.0
  Ni  Ni1071  1  0.08281167  0.21532333  0.27094485  1.0
  Ni  Ni1072  1  0.08281167  0.54865667  0.27094485  1.0
  Ni  Ni1073  1  0.08281167  0.88199000  0.27094485  1.0
  Ni  Ni1074  1  0.41614500  0.21532333  0.27094485  1.0
  Ni  Ni1075  1  0.41614500  0.54865667  0.27094485  1.0
  Ni  Ni1076  1  0.41614500  0.88199000  0.27094485  1.0
  Ni  Ni1077  1  0.74947833  0.21532333  0.27094485  1.0
  Ni  Ni1078  1  0.74947833  0.54865667  0.27094485  1.0
  Ni  Ni1079  1  0.74947833  0.88199000  0.27094485  1.0
  Ni  Ni1080  1  0.08262400  0.10420717  0.20606975  1.0
  Ni  Ni1081  1  0.08262400  0.43754050  0.20606975  1.0
  Ni  Ni1082  1  0.08262400  0.77087383  0.20606975  1.0
  Ni  Ni1083  1  0.41595733  0.10420717  0.20606975  1.0
  Ni  Ni1084  1  0.41595733  0.43754050  0.20606975  1.0
  Ni  Ni1085  1  0.41595733  0.77087383  0.20606975  1.0
  Ni  Ni1086  1  0.74929067  0.10420717  0.20606975  1.0
  Ni  Ni1087  1  0.74929067  0.43754050  0.20606975  1.0
  Ni  Ni1088  1  0.74929067  0.77087383  0.20606975  1.0
  Ni  Ni1089  1  0.08262400  0.27087383  0.30606975  1.0
  Ni  Ni1090  1  0.08262400  0.60420717  0.30606975  1.0
  Ni  Ni1091  1  0.08262400  0.93754050  0.30606975  1.0
  Ni  Ni1092  1  0.41595733  0.27087383  0.30606975  1.0
  Ni  Ni1093  1  0.41595733  0.60420717  0.30606975  1.0
  Ni  Ni1094  1  0.41595733  0.93754050  0.30606975  1.0
  Ni  Ni1095  1  0.74929067  0.27087383  0.30606975  1.0
  Ni  Ni1096  1  0.74929067  0.60420717  0.30606975  1.0
  Ni  Ni1097  1  0.74929067  0.93754050  0.30606975  1.0
  Ni  Ni1098  1  0.08247600  0.15985583  0.23956975  1.0
  Ni  Ni1099  1  0.08247600  0.49318917  0.23956975  1.0
  Ni  Ni1100  1  0.08247600  0.82652250  0.23956975  1.0
  Ni  Ni1101  1  0.41580933  0.15985583  0.23956975  1.0
  Ni  Ni1102  1  0.41580933  0.49318917  0.23956975  1.0
  Ni  Ni1103  1  0.41580933  0.82652250  0.23956975  1.0
  Ni  Ni1104  1  0.74914267  0.15985583  0.23956975  1.0
  Ni  Ni1105  1  0.74914267  0.49318917  0.23956975  1.0
  Ni  Ni1106  1  0.74914267  0.82652250  0.23956975  1.0
  Ni  Ni1107  1  0.08247600  0.32652250  0.33956975  1.0
  Ni  Ni1108  1  0.08247600  0.65985583  0.33956975  1.0
  Ni  Ni1109  1  0.08247600  0.99318917  0.33956975  1.0
  Ni  Ni1110  1  0.41580933  0.32652250  0.33956975  1.0
  Ni  Ni1111  1  0.41580933  0.65985583  0.33956975  1.0
  Ni  Ni1112  1  0.41580933  0.99318917  0.33956975  1.0
  Ni  Ni1113  1  0.74914267  0.32652250  0.33956975  1.0
  Ni  Ni1114  1  0.74914267  0.65985583  0.33956975  1.0
  Ni  Ni1115  1  0.74914267  0.99318917  0.33956975  1.0
  Ni  Ni1116  1  0.08475167  0.02109950  0.35071115  1.0
  Ni  Ni1117  1  0.08475167  0.35443283  0.35071115  1.0
  Ni  Ni1118  1  0.08475167  0.68776617  0.35071115  1.0
  Ni  Ni1119  1  0.41808500  0.02109950  0.35071115  1.0
  Ni  Ni1120  1  0.41808500  0.35443283  0.35071115  1.0
  Ni  Ni1121  1  0.41808500  0.68776617  0.35071115  1.0
  Ni  Ni1122  1  0.75141833  0.02109950  0.35071115  1.0
  Ni  Ni1123  1  0.75141833  0.35443283  0.35071115  1.0
  Ni  Ni1124  1  0.75141833  0.68776617  0.35071115  1.0
  Ni  Ni1125  1  0.08475167  0.18776617  0.25071115  1.0
  Ni  Ni1126  1  0.08475167  0.52109950  0.25071115  1.0
  Ni  Ni1127  1  0.08475167  0.85443283  0.25071115  1.0
  Ni  Ni1128  1  0.41808500  0.18776617  0.25071115  1.0
  Ni  Ni1129  1  0.41808500  0.52109950  0.25071115  1.0
  Ni  Ni1130  1  0.41808500  0.85443283  0.25071115  1.0
  Ni  Ni1131  1  0.75141833  0.18776617  0.25071115  1.0
  Ni  Ni1132  1  0.75141833  0.52109950  0.25071115  1.0
  Ni  Ni1133  1  0.75141833  0.85443283  0.25071115  1.0
  Ni  Ni1134  1  0.08520700  0.07603783  0.38371915  1.0
  Ni  Ni1135  1  0.08520700  0.40937117  0.38371915  1.0
  Ni  Ni1136  1  0.08520700  0.74270450  0.38371915  1.0
  Ni  Ni1137  1  0.41854033  0.07603783  0.38371915  1.0
  Ni  Ni1138  1  0.41854033  0.40937117  0.38371915  1.0
  Ni  Ni1139  1  0.41854033  0.74270450  0.38371915  1.0
  Ni  Ni1140  1  0.75187367  0.07603783  0.38371915  1.0
  Ni  Ni1141  1  0.75187367  0.40937117  0.38371915  1.0
  Ni  Ni1142  1  0.75187367  0.74270450  0.38371915  1.0
  Ni  Ni1143  1  0.08520700  0.24270450  0.28371915  1.0
  Ni  Ni1144  1  0.08520700  0.57603783  0.28371915  1.0
  Ni  Ni1145  1  0.08520700  0.90937117  0.28371915  1.0
  Ni  Ni1146  1  0.41854033  0.24270450  0.28371915  1.0
  Ni  Ni1147  1  0.41854033  0.57603783  0.28371915  1.0
  Ni  Ni1148  1  0.41854033  0.90937117  0.28371915  1.0
  Ni  Ni1149  1  0.75187367  0.24270450  0.28371915  1.0
  Ni  Ni1150  1  0.75187367  0.57603783  0.28371915  1.0
  Ni  Ni1151  1  0.75187367  0.90937117  0.28371915  1.0
  Ni  Ni1152  1  0.08557967  0.13190633  0.21645865  1.0
  Ni  Ni1153  1  0.08557967  0.46523967  0.21645865  1.0
  Ni  Ni1154  1  0.08557967  0.79857300  0.21645865  1.0
  Ni  Ni1155  1  0.41891300  0.13190633  0.21645865  1.0
  Ni  Ni1156  1  0.41891300  0.46523967  0.21645865  1.0
  Ni  Ni1157  1  0.41891300  0.79857300  0.21645865  1.0
  Ni  Ni1158  1  0.75224633  0.13190633  0.21645865  1.0
  Ni  Ni1159  1  0.75224633  0.46523967  0.21645865  1.0
  Ni  Ni1160  1  0.75224633  0.79857300  0.21645865  1.0
  Ni  Ni1161  1  0.08557967  0.29857300  0.31645865  1.0
  Ni  Ni1162  1  0.08557967  0.63190633  0.31645865  1.0
  Ni  Ni1163  1  0.08557967  0.96523967  0.31645865  1.0
  Ni  Ni1164  1  0.41891300  0.29857300  0.31645865  1.0
  Ni  Ni1165  1  0.41891300  0.63190633  0.31645865  1.0
  Ni  Ni1166  1  0.41891300  0.96523967  0.31645865  1.0
  Ni  Ni1167  1  0.75224633  0.29857300  0.31645865  1.0
  Ni  Ni1168  1  0.75224633  0.63190633  0.31645865  1.0
  Ni  Ni1169  1  0.75224633  0.96523967  0.31645865  1.0
  Ni  Ni1170  1  0.24933867  0.00693183  0.24274975  1.0
  Ni  Ni1171  1  0.24933867  0.34026517  0.24274975  1.0
  Ni  Ni1172  1  0.24933867  0.67359850  0.24274975  1.0
  Ni  Ni1173  1  0.58267200  0.00693183  0.24274975  1.0
  Ni  Ni1174  1  0.58267200  0.34026517  0.24274975  1.0
  Ni  Ni1175  1  0.58267200  0.67359850  0.24274975  1.0
  Ni  Ni1176  1  0.91600533  0.00693183  0.24274975  1.0
  Ni  Ni1177  1  0.91600533  0.34026517  0.24274975  1.0
  Ni  Ni1178  1  0.91600533  0.67359850  0.24274975  1.0
  Ni  Ni1179  1  0.24933867  0.17359850  0.34274975  1.0
  Ni  Ni1180  1  0.24933867  0.50693183  0.34274975  1.0
  Ni  Ni1181  1  0.24933867  0.84026517  0.34274975  1.0
  Ni  Ni1182  1  0.58267200  0.17359850  0.34274975  1.0
  Ni  Ni1183  1  0.58267200  0.50693183  0.34274975  1.0
  Ni  Ni1184  1  0.58267200  0.84026517  0.34274975  1.0
  Ni  Ni1185  1  0.91600533  0.17359850  0.34274975  1.0
  Ni  Ni1186  1  0.91600533  0.50693183  0.34274975  1.0
  Ni  Ni1187  1  0.91600533  0.84026517  0.34274975  1.0
  Ni  Ni1188  1  0.24898667  0.06252383  0.27589775  1.0
  Ni  Ni1189  1  0.24898667  0.39585717  0.27589775  1.0
  Ni  Ni1190  1  0.24898667  0.72919050  0.27589775  1.0
  Ni  Ni1191  1  0.58232000  0.06252383  0.27589775  1.0
  Ni  Ni1192  1  0.58232000  0.39585717  0.27589775  1.0
  Ni  Ni1193  1  0.58232000  0.72919050  0.27589775  1.0
  Ni  Ni1194  1  0.91565333  0.06252383  0.27589775  1.0
  Ni  Ni1195  1  0.91565333  0.39585717  0.27589775  1.0
  Ni  Ni1196  1  0.91565333  0.72919050  0.27589775  1.0
  Ni  Ni1197  1  0.24898667  0.22919050  0.37589775  1.0
  Ni  Ni1198  1  0.24898667  0.56252383  0.37589775  1.0
  Ni  Ni1199  1  0.24898667  0.89585717  0.37589775  1.0
  Ni  Ni1200  1  0.58232000  0.22919050  0.37589775  1.0
  Ni  Ni1201  1  0.58232000  0.56252383  0.37589775  1.0
  Ni  Ni1202  1  0.58232000  0.89585717  0.37589775  1.0
  Ni  Ni1203  1  0.91565333  0.22919050  0.37589775  1.0
  Ni  Ni1204  1  0.91565333  0.56252383  0.37589775  1.0
  Ni  Ni1205  1  0.91565333  0.89585717  0.37589775  1.0
  Ni  Ni1206  1  0.24915467  0.11804017  0.30916895  1.0
  Ni  Ni1207  1  0.24915467  0.45137350  0.30916895  1.0
  Ni  Ni1208  1  0.24915467  0.78470683  0.30916895  1.0
  Ni  Ni1209  1  0.58248800  0.11804017  0.30916895  1.0
  Ni  Ni1210  1  0.58248800  0.45137350  0.30916895  1.0
  Ni  Ni1211  1  0.58248800  0.78470683  0.30916895  1.0
  Ni  Ni1212  1  0.91582133  0.11804017  0.30916895  1.0
  Ni  Ni1213  1  0.91582133  0.45137350  0.30916895  1.0
  Ni  Ni1214  1  0.91582133  0.78470683  0.30916895  1.0
  Ni  Ni1215  1  0.24915467  0.28470683  0.20916895  1.0
  Ni  Ni1216  1  0.24915467  0.61804017  0.20916895  1.0
  Ni  Ni1217  1  0.24915467  0.95137350  0.20916895  1.0
  Ni  Ni1218  1  0.58248800  0.28470683  0.20916895  1.0
  Ni  Ni1219  1  0.58248800  0.61804017  0.20916895  1.0
  Ni  Ni1220  1  0.58248800  0.95137350  0.20916895  1.0
  Ni  Ni1221  1  0.91582133  0.28470683  0.20916895  1.0
  Ni  Ni1222  1  0.91582133  0.61804017  0.20916895  1.0
  Ni  Ni1223  1  0.91582133  0.95137350  0.20916895  1.0
  Ni  Ni1224  1  0.24858167  0.02109950  0.35071115  1.0
  Ni  Ni1225  1  0.24858167  0.35443283  0.35071115  1.0
  Ni  Ni1226  1  0.24858167  0.68776617  0.35071115  1.0
  Ni  Ni1227  1  0.58191500  0.02109950  0.35071115  1.0
  Ni  Ni1228  1  0.58191500  0.35443283  0.35071115  1.0
  Ni  Ni1229  1  0.58191500  0.68776617  0.35071115  1.0
  Ni  Ni1230  1  0.91524833  0.02109950  0.35071115  1.0
  Ni  Ni1231  1  0.91524833  0.35443283  0.35071115  1.0
  Ni  Ni1232  1  0.91524833  0.68776617  0.35071115  1.0
  Ni  Ni1233  1  0.24858167  0.18776617  0.25071115  1.0
  Ni  Ni1234  1  0.24858167  0.52109950  0.25071115  1.0
  Ni  Ni1235  1  0.24858167  0.85443283  0.25071115  1.0
  Ni  Ni1236  1  0.58191500  0.18776617  0.25071115  1.0
  Ni  Ni1237  1  0.58191500  0.52109950  0.25071115  1.0
  Ni  Ni1238  1  0.58191500  0.85443283  0.25071115  1.0
  Ni  Ni1239  1  0.91524833  0.18776617  0.25071115  1.0
  Ni  Ni1240  1  0.91524833  0.52109950  0.25071115  1.0
  Ni  Ni1241  1  0.91524833  0.85443283  0.25071115  1.0
  Ni  Ni1242  1  0.24812633  0.07603783  0.38371915  1.0
  Ni  Ni1243  1  0.24812633  0.40937117  0.38371915  1.0
  Ni  Ni1244  1  0.24812633  0.74270450  0.38371915  1.0
  Ni  Ni1245  1  0.58145967  0.07603783  0.38371915  1.0
  Ni  Ni1246  1  0.58145967  0.40937117  0.38371915  1.0
  Ni  Ni1247  1  0.58145967  0.74270450  0.38371915  1.0
  Ni  Ni1248  1  0.91479300  0.07603783  0.38371915  1.0
  Ni  Ni1249  1  0.91479300  0.40937117  0.38371915  1.0
  Ni  Ni1250  1  0.91479300  0.74270450  0.38371915  1.0
  Ni  Ni1251  1  0.24812633  0.24270450  0.28371915  1.0
  Ni  Ni1252  1  0.24812633  0.57603783  0.28371915  1.0
  Ni  Ni1253  1  0.24812633  0.90937117  0.28371915  1.0
  Ni  Ni1254  1  0.58145967  0.24270450  0.28371915  1.0
  Ni  Ni1255  1  0.58145967  0.57603783  0.28371915  1.0
  Ni  Ni1256  1  0.58145967  0.90937117  0.28371915  1.0
  Ni  Ni1257  1  0.91479300  0.24270450  0.28371915  1.0
  Ni  Ni1258  1  0.91479300  0.57603783  0.28371915  1.0
  Ni  Ni1259  1  0.91479300  0.90937117  0.28371915  1.0
  Ni  Ni1260  1  0.24775367  0.13190633  0.21645865  1.0
  Ni  Ni1261  1  0.24775367  0.46523967  0.21645865  1.0
  Ni  Ni1262  1  0.24775367  0.79857300  0.21645865  1.0
  Ni  Ni1263  1  0.58108700  0.13190633  0.21645865  1.0
  Ni  Ni1264  1  0.58108700  0.46523967  0.21645865  1.0
  Ni  Ni1265  1  0.58108700  0.79857300  0.21645865  1.0
  Ni  Ni1266  1  0.91442033  0.13190633  0.21645865  1.0
  Ni  Ni1267  1  0.91442033  0.46523967  0.21645865  1.0
  Ni  Ni1268  1  0.91442033  0.79857300  0.21645865  1.0
  Ni  Ni1269  1  0.24775367  0.29857300  0.31645865  1.0
  Ni  Ni1270  1  0.24775367  0.63190633  0.31645865  1.0
  Ni  Ni1271  1  0.24775367  0.96523967  0.31645865  1.0
  Ni  Ni1272  1  0.58108700  0.29857300  0.31645865  1.0
  Ni  Ni1273  1  0.58108700  0.63190633  0.31645865  1.0
  Ni  Ni1274  1  0.58108700  0.96523967  0.31645865  1.0
  Ni  Ni1275  1  0.91442033  0.29857300  0.31645865  1.0
  Ni  Ni1276  1  0.91442033  0.63190633  0.31645865  1.0
  Ni  Ni1277  1  0.91442033  0.96523967  0.31645865  1.0
  Ni  Ni1278  1  0.08399467  0.00693183  0.24274975  1.0
  Ni  Ni1279  1  0.08399467  0.34026517  0.24274975  1.0
  Ni  Ni1280  1  0.08399467  0.67359850  0.24274975  1.0
  Ni  Ni1281  1  0.41732800  0.00693183  0.24274975  1.0
  Ni  Ni1282  1  0.41732800  0.34026517  0.24274975  1.0
  Ni  Ni1283  1  0.41732800  0.67359850  0.24274975  1.0
  Ni  Ni1284  1  0.75066133  0.00693183  0.24274975  1.0
  Ni  Ni1285  1  0.75066133  0.34026517  0.24274975  1.0
  Ni  Ni1286  1  0.75066133  0.67359850  0.24274975  1.0
  Ni  Ni1287  1  0.08399467  0.17359850  0.34274975  1.0
  Ni  Ni1288  1  0.08399467  0.50693183  0.34274975  1.0
  Ni  Ni1289  1  0.08399467  0.84026517  0.34274975  1.0
  Ni  Ni1290  1  0.41732800  0.17359850  0.34274975  1.0
  Ni  Ni1291  1  0.41732800  0.50693183  0.34274975  1.0
  Ni  Ni1292  1  0.41732800  0.84026517  0.34274975  1.0
  Ni  Ni1293  1  0.75066133  0.17359850  0.34274975  1.0
  Ni  Ni1294  1  0.75066133  0.50693183  0.34274975  1.0
  Ni  Ni1295  1  0.75066133  0.84026517  0.34274975  1.0
  Ni  Ni1296  1  0.08434667  0.06252383  0.27589775  1.0
  Ni  Ni1297  1  0.08434667  0.39585717  0.27589775  1.0
  Ni  Ni1298  1  0.08434667  0.72919050  0.27589775  1.0
  Ni  Ni1299  1  0.41768000  0.06252383  0.27589775  1.0
  Ni  Ni1300  1  0.41768000  0.39585717  0.27589775  1.0
  Ni  Ni1301  1  0.41768000  0.72919050  0.27589775  1.0
  Ni  Ni1302  1  0.75101333  0.06252383  0.27589775  1.0
  Ni  Ni1303  1  0.75101333  0.39585717  0.27589775  1.0
  Ni  Ni1304  1  0.75101333  0.72919050  0.27589775  1.0
  Ni  Ni1305  1  0.08434667  0.22919050  0.37589775  1.0
  Ni  Ni1306  1  0.08434667  0.56252383  0.37589775  1.0
  Ni  Ni1307  1  0.08434667  0.89585717  0.37589775  1.0
  Ni  Ni1308  1  0.41768000  0.22919050  0.37589775  1.0
  Ni  Ni1309  1  0.41768000  0.56252383  0.37589775  1.0
  Ni  Ni1310  1  0.41768000  0.89585717  0.37589775  1.0
  Ni  Ni1311  1  0.75101333  0.22919050  0.37589775  1.0
  Ni  Ni1312  1  0.75101333  0.56252383  0.37589775  1.0
  Ni  Ni1313  1  0.75101333  0.89585717  0.37589775  1.0
  Ni  Ni1314  1  0.08417867  0.11804017  0.30916895  1.0
  Ni  Ni1315  1  0.08417867  0.45137350  0.30916895  1.0
  Ni  Ni1316  1  0.08417867  0.78470683  0.30916895  1.0
  Ni  Ni1317  1  0.41751200  0.11804017  0.30916895  1.0
  Ni  Ni1318  1  0.41751200  0.45137350  0.30916895  1.0
  Ni  Ni1319  1  0.41751200  0.78470683  0.30916895  1.0
  Ni  Ni1320  1  0.75084533  0.11804017  0.30916895  1.0
  Ni  Ni1321  1  0.75084533  0.45137350  0.30916895  1.0
  Ni  Ni1322  1  0.75084533  0.78470683  0.30916895  1.0
  Ni  Ni1323  1  0.08417867  0.28470683  0.20916895  1.0
  Ni  Ni1324  1  0.08417867  0.61804017  0.20916895  1.0
  Ni  Ni1325  1  0.08417867  0.95137350  0.20916895  1.0
  Ni  Ni1326  1  0.41751200  0.28470683  0.20916895  1.0
  Ni  Ni1327  1  0.41751200  0.61804017  0.20916895  1.0
  Ni  Ni1328  1  0.41751200  0.95137350  0.20916895  1.0
  Ni  Ni1329  1  0.75084533  0.28470683  0.20916895  1.0
  Ni  Ni1330  1  0.75084533  0.61804017  0.20916895  1.0
  Ni  Ni1331  1  0.75084533  0.95137350  0.20916895  1.0
  Ni  Ni1332  1  0.08246033  0.03471933  0.26261365  1.0
  Ni  Ni1333  1  0.08246033  0.36805267  0.26261365  1.0
  Ni  Ni1334  1  0.08246033  0.70138600  0.26261365  1.0
  Ni  Ni1335  1  0.41579367  0.03471933  0.26261365  1.0
  Ni  Ni1336  1  0.41579367  0.36805267  0.26261365  1.0
  Ni  Ni1337  1  0.41579367  0.70138600  0.26261365  1.0
  Ni  Ni1338  1  0.74912700  0.03471933  0.26261365  1.0
  Ni  Ni1339  1  0.74912700  0.36805267  0.26261365  1.0
  Ni  Ni1340  1  0.74912700  0.70138600  0.26261365  1.0
  Ni  Ni1341  1  0.08246033  0.20138600  0.36261365  1.0
  Ni  Ni1342  1  0.08246033  0.53471933  0.36261365  1.0
  Ni  Ni1343  1  0.08246033  0.86805267  0.36261365  1.0
  Ni  Ni1344  1  0.41579367  0.20138600  0.36261365  1.0
  Ni  Ni1345  1  0.41579367  0.53471933  0.36261365  1.0
  Ni  Ni1346  1  0.41579367  0.86805267  0.36261365  1.0
  Ni  Ni1347  1  0.74912700  0.20138600  0.36261365  1.0
  Ni  Ni1348  1  0.74912700  0.53471933  0.36261365  1.0
  Ni  Ni1349  1  0.74912700  0.86805267  0.36261365  1.0
  Ni  Ni1350  1  0.08170500  0.09022400  0.29664565  1.0
  Ni  Ni1351  1  0.08170500  0.42355733  0.29664565  1.0
  Ni  Ni1352  1  0.08170500  0.75689067  0.29664565  1.0
  Ni  Ni1353  1  0.41503833  0.09022400  0.29664565  1.0
  Ni  Ni1354  1  0.41503833  0.42355733  0.29664565  1.0
  Ni  Ni1355  1  0.41503833  0.75689067  0.29664565  1.0
  Ni  Ni1356  1  0.74837167  0.09022400  0.29664565  1.0
  Ni  Ni1357  1  0.74837167  0.42355733  0.29664565  1.0
  Ni  Ni1358  1  0.74837167  0.75689067  0.29664565  1.0
  Ni  Ni1359  1  0.08170500  0.25689067  0.39664565  1.0
  Ni  Ni1360  1  0.08170500  0.59022400  0.39664565  1.0
  Ni  Ni1361  1  0.08170500  0.92355733  0.39664565  1.0
  Ni  Ni1362  1  0.41503833  0.25689067  0.39664565  1.0
  Ni  Ni1363  1  0.41503833  0.59022400  0.39664565  1.0
  Ni  Ni1364  1  0.41503833  0.92355733  0.39664565  1.0
  Ni  Ni1365  1  0.74837167  0.25689067  0.39664565  1.0
  Ni  Ni1366  1  0.74837167  0.59022400  0.39664565  1.0
  Ni  Ni1367  1  0.74837167  0.92355733  0.39664565  1.0
  Ni  Ni1368  1  0.08181767  0.14581200  0.32980465  1.0
  Ni  Ni1369  1  0.08181767  0.47914533  0.32980465  1.0
  Ni  Ni1370  1  0.08181767  0.81247867  0.32980465  1.0
  Ni  Ni1371  1  0.41515100  0.14581200  0.32980465  1.0
  Ni  Ni1372  1  0.41515100  0.47914533  0.32980465  1.0
  Ni  Ni1373  1  0.41515100  0.81247867  0.32980465  1.0
  Ni  Ni1374  1  0.74848433  0.14581200  0.32980465  1.0
  Ni  Ni1375  1  0.74848433  0.47914533  0.32980465  1.0
  Ni  Ni1376  1  0.74848433  0.81247867  0.32980465  1.0
  Ni  Ni1377  1  0.08181767  0.31247867  0.22980465  1.0
  Ni  Ni1378  1  0.08181767  0.64581200  0.22980465  1.0
  Ni  Ni1379  1  0.08181767  0.97914533  0.22980465  1.0
  Ni  Ni1380  1  0.41515100  0.31247867  0.22980465  1.0
  Ni  Ni1381  1  0.41515100  0.64581200  0.22980465  1.0
  Ni  Ni1382  1  0.41515100  0.97914533  0.22980465  1.0
  Ni  Ni1383  1  0.74848433  0.31247867  0.22980465  1.0
  Ni  Ni1384  1  0.74848433  0.64581200  0.22980465  1.0
  Ni  Ni1385  1  0.74848433  0.97914533  0.22980465  1.0
  Ni  Ni1386  1  0.25052167  0.04865667  0.37094485  1.0
  Ni  Ni1387  1  0.25052167  0.38199000  0.37094485  1.0
  Ni  Ni1388  1  0.25052167  0.71532333  0.37094485  1.0
  Ni  Ni1389  1  0.58385500  0.04865667  0.37094485  1.0
  Ni  Ni1390  1  0.58385500  0.38199000  0.37094485  1.0
  Ni  Ni1391  1  0.58385500  0.71532333  0.37094485  1.0
  Ni  Ni1392  1  0.91718833  0.04865667  0.37094485  1.0
  Ni  Ni1393  1  0.91718833  0.38199000  0.37094485  1.0
  Ni  Ni1394  1  0.91718833  0.71532333  0.37094485  1.0
  Ni  Ni1395  1  0.25052167  0.21532333  0.27094485  1.0
  Ni  Ni1396  1  0.25052167  0.54865667  0.27094485  1.0
  Ni  Ni1397  1  0.25052167  0.88199000  0.27094485  1.0
  Ni  Ni1398  1  0.58385500  0.21532333  0.27094485  1.0
  Ni  Ni1399  1  0.58385500  0.54865667  0.27094485  1.0
  Ni  Ni1400  1  0.58385500  0.88199000  0.27094485  1.0
  Ni  Ni1401  1  0.91718833  0.21532333  0.27094485  1.0
  Ni  Ni1402  1  0.91718833  0.54865667  0.27094485  1.0
  Ni  Ni1403  1  0.91718833  0.88199000  0.27094485  1.0
  Ni  Ni1404  1  0.25070933  0.10420717  0.20606975  1.0
  Ni  Ni1405  1  0.25070933  0.43754050  0.20606975  1.0
  Ni  Ni1406  1  0.25070933  0.77087383  0.20606975  1.0
  Ni  Ni1407  1  0.58404267  0.10420717  0.20606975  1.0
  Ni  Ni1408  1  0.58404267  0.43754050  0.20606975  1.0
  Ni  Ni1409  1  0.58404267  0.77087383  0.20606975  1.0
  Ni  Ni1410  1  0.91737600  0.10420717  0.20606975  1.0
  Ni  Ni1411  1  0.91737600  0.43754050  0.20606975  1.0
  Ni  Ni1412  1  0.91737600  0.77087383  0.20606975  1.0
  Ni  Ni1413  1  0.25070933  0.27087383  0.30606975  1.0
  Ni  Ni1414  1  0.25070933  0.60420717  0.30606975  1.0
  Ni  Ni1415  1  0.25070933  0.93754050  0.30606975  1.0
  Ni  Ni1416  1  0.58404267  0.27087383  0.30606975  1.0
  Ni  Ni1417  1  0.58404267  0.60420717  0.30606975  1.0
  Ni  Ni1418  1  0.58404267  0.93754050  0.30606975  1.0
  Ni  Ni1419  1  0.91737600  0.27087383  0.30606975  1.0
  Ni  Ni1420  1  0.91737600  0.60420717  0.30606975  1.0
  Ni  Ni1421  1  0.91737600  0.93754050  0.30606975  1.0
  Ni  Ni1422  1  0.25085733  0.15985583  0.23956975  1.0
  Ni  Ni1423  1  0.25085733  0.49318917  0.23956975  1.0
  Ni  Ni1424  1  0.25085733  0.82652250  0.23956975  1.0
  Ni  Ni1425  1  0.58419067  0.15985583  0.23956975  1.0
  Ni  Ni1426  1  0.58419067  0.49318917  0.23956975  1.0
  Ni  Ni1427  1  0.58419067  0.82652250  0.23956975  1.0
  Ni  Ni1428  1  0.91752400  0.15985583  0.23956975  1.0
  Ni  Ni1429  1  0.91752400  0.49318917  0.23956975  1.0
  Ni  Ni1430  1  0.91752400  0.82652250  0.23956975  1.0
  Ni  Ni1431  1  0.25085733  0.32652250  0.33956975  1.0
  Ni  Ni1432  1  0.25085733  0.65985583  0.33956975  1.0
  Ni  Ni1433  1  0.25085733  0.99318917  0.33956975  1.0
  Ni  Ni1434  1  0.58419067  0.32652250  0.33956975  1.0
  Ni  Ni1435  1  0.58419067  0.65985583  0.33956975  1.0
  Ni  Ni1436  1  0.58419067  0.99318917  0.33956975  1.0
  Ni  Ni1437  1  0.91752400  0.32652250  0.33956975  1.0
  Ni  Ni1438  1  0.91752400  0.65985583  0.33956975  1.0
  Ni  Ni1439  1  0.91752400  0.99318917  0.33956975  1.0
  Ni  Ni1440  1  0.00000000  0.10383833  0.27163765  1.0
  Ni  Ni1441  1  0.00000000  0.43717167  0.27163765  1.0
  Ni  Ni1442  1  0.00000000  0.77050500  0.27163765  1.0
  Ni  Ni1443  1  0.33333333  0.10383833  0.27163765  1.0
  Ni  Ni1444  1  0.33333333  0.43717167  0.27163765  1.0
  Ni  Ni1445  1  0.33333333  0.77050500  0.27163765  1.0
  Ni  Ni1446  1  0.66666667  0.10383833  0.27163765  1.0
  Ni  Ni1447  1  0.66666667  0.43717167  0.27163765  1.0
  Ni  Ni1448  1  0.66666667  0.77050500  0.27163765  1.0
  Ni  Ni1449  1  0.00000000  0.27050500  0.37163765  1.0
  Ni  Ni1450  1  0.00000000  0.60383833  0.37163765  1.0
  Ni  Ni1451  1  0.00000000  0.93717167  0.37163765  1.0
  Ni  Ni1452  1  0.33333333  0.27050500  0.37163765  1.0
  Ni  Ni1453  1  0.33333333  0.60383833  0.37163765  1.0
  Ni  Ni1454  1  0.33333333  0.93717167  0.37163765  1.0
  Ni  Ni1455  1  0.66666667  0.27050500  0.37163765  1.0
  Ni  Ni1456  1  0.66666667  0.60383833  0.37163765  1.0
  Ni  Ni1457  1  0.66666667  0.93717167  0.37163765  1.0
  Ni  Ni1458  1  0.00000000  0.15950100  0.30509425  1.0
  Ni  Ni1459  1  0.00000000  0.49283433  0.30509425  1.0
  Ni  Ni1460  1  0.00000000  0.82616767  0.30509425  1.0
  Ni  Ni1461  1  0.33333333  0.15950100  0.30509425  1.0
  Ni  Ni1462  1  0.33333333  0.49283433  0.30509425  1.0
  Ni  Ni1463  1  0.33333333  0.82616767  0.30509425  1.0
  Ni  Ni1464  1  0.66666667  0.15950100  0.30509425  1.0
  Ni  Ni1465  1  0.66666667  0.49283433  0.30509425  1.0
  Ni  Ni1466  1  0.66666667  0.82616767  0.30509425  1.0
  Ni  Ni1467  1  0.00000000  0.32616767  0.20509425  1.0
  Ni  Ni1468  1  0.00000000  0.65950100  0.20509425  1.0
  Ni  Ni1469  1  0.00000000  0.99283433  0.20509425  1.0
  Ni  Ni1470  1  0.33333333  0.32616767  0.20509425  1.0
  Ni  Ni1471  1  0.33333333  0.65950100  0.20509425  1.0
  Ni  Ni1472  1  0.33333333  0.99283433  0.20509425  1.0
  Ni  Ni1473  1  0.66666667  0.32616767  0.20509425  1.0
  Ni  Ni1474  1  0.66666667  0.65950100  0.20509425  1.0
  Ni  Ni1475  1  0.66666667  0.99283433  0.20509425  1.0
  Ni  Ni1476  1  0.16666667  0.02062633  0.28487485  1.0
  Ni  Ni1477  1  0.16666667  0.35395967  0.28487485  1.0
  Ni  Ni1478  1  0.16666667  0.68729300  0.28487485  1.0
  Ni  Ni1479  1  0.50000000  0.02062633  0.28487485  1.0
  Ni  Ni1480  1  0.50000000  0.35395967  0.28487485  1.0
  Ni  Ni1481  1  0.50000000  0.68729300  0.28487485  1.0
  Ni  Ni1482  1  0.83333333  0.02062633  0.28487485  1.0
  Ni  Ni1483  1  0.83333333  0.35395967  0.28487485  1.0
  Ni  Ni1484  1  0.83333333  0.68729300  0.28487485  1.0
  Ni  Ni1485  1  0.16666667  0.18729300  0.38487485  1.0
  Ni  Ni1486  1  0.16666667  0.52062633  0.38487485  1.0
  Ni  Ni1487  1  0.16666667  0.85395967  0.38487485  1.0
  Ni  Ni1488  1  0.50000000  0.18729300  0.38487485  1.0
  Ni  Ni1489  1  0.50000000  0.52062633  0.38487485  1.0
  Ni  Ni1490  1  0.50000000  0.85395967  0.38487485  1.0
  Ni  Ni1491  1  0.83333333  0.18729300  0.38487485  1.0
  Ni  Ni1492  1  0.83333333  0.52062633  0.38487485  1.0
  Ni  Ni1493  1  0.83333333  0.85395967  0.38487485  1.0
  Ni  Ni1494  1  0.16666667  0.07656533  0.31873985  1.0
  Ni  Ni1495  1  0.16666667  0.40989867  0.31873985  1.0
  Ni  Ni1496  1  0.16666667  0.74323200  0.31873985  1.0
  Ni  Ni1497  1  0.50000000  0.07656533  0.31873985  1.0
  Ni  Ni1498  1  0.50000000  0.40989867  0.31873985  1.0
  Ni  Ni1499  1  0.50000000  0.74323200  0.31873985  1.0
  Ni  Ni1500  1  0.83333333  0.07656533  0.31873985  1.0
  Ni  Ni1501  1  0.83333333  0.40989867  0.31873985  1.0
  Ni  Ni1502  1  0.83333333  0.74323200  0.31873985  1.0
  Ni  Ni1503  1  0.16666667  0.24323200  0.21873985  1.0
  Ni  Ni1504  1  0.16666667  0.57656533  0.21873985  1.0
  Ni  Ni1505  1  0.16666667  0.90989867  0.21873985  1.0
  Ni  Ni1506  1  0.50000000  0.24323200  0.21873985  1.0
  Ni  Ni1507  1  0.50000000  0.57656533  0.21873985  1.0
  Ni  Ni1508  1  0.50000000  0.90989867  0.21873985  1.0
  Ni  Ni1509  1  0.83333333  0.24323200  0.21873985  1.0
  Ni  Ni1510  1  0.83333333  0.57656533  0.21873985  1.0
  Ni  Ni1511  1  0.83333333  0.90989867  0.21873985  1.0
  Ni  Ni1512  1  0.16666667  0.13189150  0.35131375  1.0
  Ni  Ni1513  1  0.16666667  0.46522483  0.35131375  1.0
  Ni  Ni1514  1  0.16666667  0.79855817  0.35131375  1.0
  Ni  Ni1515  1  0.50000000  0.13189150  0.35131375  1.0
  Ni  Ni1516  1  0.50000000  0.46522483  0.35131375  1.0
  Ni  Ni1517  1  0.50000000  0.79855817  0.35131375  1.0
  Ni  Ni1518  1  0.83333333  0.13189150  0.35131375  1.0
  Ni  Ni1519  1  0.83333333  0.46522483  0.35131375  1.0
  Ni  Ni1520  1  0.83333333  0.79855817  0.35131375  1.0
  Ni  Ni1521  1  0.16666667  0.29855817  0.25131375  1.0
  Ni  Ni1522  1  0.16666667  0.63189150  0.25131375  1.0
  Ni  Ni1523  1  0.16666667  0.96522483  0.25131375  1.0
  Ni  Ni1524  1  0.50000000  0.29855817  0.25131375  1.0
  Ni  Ni1525  1  0.50000000  0.63189150  0.25131375  1.0
  Ni  Ni1526  1  0.50000000  0.96522483  0.25131375  1.0
  Ni  Ni1527  1  0.83333333  0.29855817  0.25131375  1.0
  Ni  Ni1528  1  0.83333333  0.63189150  0.25131375  1.0
  Ni  Ni1529  1  0.83333333  0.96522483  0.25131375  1.0
  Ni  Ni1530  1  0.16666667  0.00713983  0.37717715  1.0
  Ni  Ni1531  1  0.16666667  0.34047317  0.37717715  1.0
  Ni  Ni1532  1  0.16666667  0.67380650  0.37717715  1.0
  Ni  Ni1533  1  0.50000000  0.00713983  0.37717715  1.0
  Ni  Ni1534  1  0.50000000  0.34047317  0.37717715  1.0
  Ni  Ni1535  1  0.50000000  0.67380650  0.37717715  1.0
  Ni  Ni1536  1  0.83333333  0.00713983  0.37717715  1.0
  Ni  Ni1537  1  0.83333333  0.34047317  0.37717715  1.0
  Ni  Ni1538  1  0.83333333  0.67380650  0.37717715  1.0
  Ni  Ni1539  1  0.16666667  0.17380650  0.27717715  1.0
  Ni  Ni1540  1  0.16666667  0.50713983  0.27717715  1.0
  Ni  Ni1541  1  0.16666667  0.84047317  0.27717715  1.0
  Ni  Ni1542  1  0.50000000  0.17380650  0.27717715  1.0
  Ni  Ni1543  1  0.50000000  0.50713983  0.27717715  1.0
  Ni  Ni1544  1  0.50000000  0.84047317  0.27717715  1.0
  Ni  Ni1545  1  0.83333333  0.17380650  0.27717715  1.0
  Ni  Ni1546  1  0.83333333  0.50713983  0.27717715  1.0
  Ni  Ni1547  1  0.83333333  0.84047317  0.27717715  1.0
  Ni  Ni1548  1  0.16666667  0.06237767  0.21036705  1.0
  Ni  Ni1549  1  0.16666667  0.39571100  0.21036705  1.0
  Ni  Ni1550  1  0.16666667  0.72904433  0.21036705  1.0
  Ni  Ni1551  1  0.50000000  0.06237767  0.21036705  1.0
  Ni  Ni1552  1  0.50000000  0.39571100  0.21036705  1.0
  Ni  Ni1553  1  0.50000000  0.72904433  0.21036705  1.0
  Ni  Ni1554  1  0.83333333  0.06237767  0.21036705  1.0
  Ni  Ni1555  1  0.83333333  0.39571100  0.21036705  1.0
  Ni  Ni1556  1  0.83333333  0.72904433  0.21036705  1.0
  Ni  Ni1557  1  0.16666667  0.22904433  0.31036705  1.0
  Ni  Ni1558  1  0.16666667  0.56237767  0.31036705  1.0
  Ni  Ni1559  1  0.16666667  0.89571100  0.31036705  1.0
  Ni  Ni1560  1  0.50000000  0.22904433  0.31036705  1.0
  Ni  Ni1561  1  0.50000000  0.56237767  0.31036705  1.0
  Ni  Ni1562  1  0.50000000  0.89571100  0.31036705  1.0
  Ni  Ni1563  1  0.83333333  0.22904433  0.31036705  1.0
  Ni  Ni1564  1  0.83333333  0.56237767  0.31036705  1.0
  Ni  Ni1565  1  0.83333333  0.89571100  0.31036705  1.0
  Ni  Ni1566  1  0.16666667  0.11812283  0.24377275  1.0
  Ni  Ni1567  1  0.16666667  0.45145617  0.24377275  1.0
  Ni  Ni1568  1  0.16666667  0.78478950  0.24377275  1.0
  Ni  Ni1569  1  0.50000000  0.11812283  0.24377275  1.0
  Ni  Ni1570  1  0.50000000  0.45145617  0.24377275  1.0
  Ni  Ni1571  1  0.50000000  0.78478950  0.24377275  1.0
  Ni  Ni1572  1  0.83333333  0.11812283  0.24377275  1.0
  Ni  Ni1573  1  0.83333333  0.45145617  0.24377275  1.0
  Ni  Ni1574  1  0.83333333  0.78478950  0.24377275  1.0
  Ni  Ni1575  1  0.16666667  0.28478950  0.34377275  1.0
  Ni  Ni1576  1  0.16666667  0.61812283  0.34377275  1.0
  Ni  Ni1577  1  0.16666667  0.95145617  0.34377275  1.0
  Ni  Ni1578  1  0.50000000  0.28478950  0.34377275  1.0
  Ni  Ni1579  1  0.50000000  0.61812283  0.34377275  1.0
  Ni  Ni1580  1  0.50000000  0.95145617  0.34377275  1.0
  Ni  Ni1581  1  0.83333333  0.28478950  0.34377275  1.0
  Ni  Ni1582  1  0.83333333  0.61812283  0.34377275  1.0
  Ni  Ni1583  1  0.83333333  0.95145617  0.34377275  1.0
  Sn  Sn1584  1  0.00000000  0.00819017  0.37686995  1.0
  Sn  Sn1585  1  0.00000000  0.34152350  0.37686995  1.0
  Sn  Sn1586  1  0.00000000  0.67485683  0.37686995  1.0
  Sn  Sn1587  1  0.33333333  0.00819017  0.37686995  1.0
  Sn  Sn1588  1  0.33333333  0.34152350  0.37686995  1.0
  Sn  Sn1589  1  0.33333333  0.67485683  0.37686995  1.0
  Sn  Sn1590  1  0.66666667  0.00819017  0.37686995  1.0
  Sn  Sn1591  1  0.66666667  0.34152350  0.37686995  1.0
  Sn  Sn1592  1  0.66666667  0.67485683  0.37686995  1.0
  Sn  Sn1593  1  0.00000000  0.17485683  0.27686995  1.0
  Sn  Sn1594  1  0.00000000  0.50819017  0.27686995  1.0
  Sn  Sn1595  1  0.00000000  0.84152350  0.27686995  1.0
  Sn  Sn1596  1  0.33333333  0.17485683  0.27686995  1.0
  Sn  Sn1597  1  0.33333333  0.50819017  0.27686995  1.0
  Sn  Sn1598  1  0.33333333  0.84152350  0.27686995  1.0
  Sn  Sn1599  1  0.66666667  0.17485683  0.27686995  1.0
  Sn  Sn1600  1  0.66666667  0.50819017  0.27686995  1.0
  Sn  Sn1601  1  0.66666667  0.84152350  0.27686995  1.0
  Sn  Sn1602  1  0.00000000  0.06256317  0.21118535  1.0
  Sn  Sn1603  1  0.00000000  0.39589650  0.21118535  1.0
  Sn  Sn1604  1  0.00000000  0.72922983  0.21118535  1.0
  Sn  Sn1605  1  0.33333333  0.06256317  0.21118535  1.0
  Sn  Sn1606  1  0.33333333  0.39589650  0.21118535  1.0
  Sn  Sn1607  1  0.33333333  0.72922983  0.21118535  1.0
  Sn  Sn1608  1  0.66666667  0.06256317  0.21118535  1.0
  Sn  Sn1609  1  0.66666667  0.39589650  0.21118535  1.0
  Sn  Sn1610  1  0.66666667  0.72922983  0.21118535  1.0
  Sn  Sn1611  1  0.00000000  0.22922983  0.31118535  1.0
  Sn  Sn1612  1  0.00000000  0.56256317  0.31118535  1.0
  Sn  Sn1613  1  0.00000000  0.89589650  0.31118535  1.0
  Sn  Sn1614  1  0.33333333  0.22922983  0.31118535  1.0
  Sn  Sn1615  1  0.33333333  0.56256317  0.31118535  1.0
  Sn  Sn1616  1  0.33333333  0.89589650  0.31118535  1.0
  Sn  Sn1617  1  0.66666667  0.22922983  0.31118535  1.0
  Sn  Sn1618  1  0.66666667  0.56256317  0.31118535  1.0
  Sn  Sn1619  1  0.66666667  0.89589650  0.31118535  1.0
  Sn  Sn1620  1  0.00000000  0.11909950  0.24331895  1.0
  Sn  Sn1621  1  0.00000000  0.45243283  0.24331895  1.0
  Sn  Sn1622  1  0.00000000  0.78576617  0.24331895  1.0
  Sn  Sn1623  1  0.33333333  0.11909950  0.24331895  1.0
  Sn  Sn1624  1  0.33333333  0.45243283  0.24331895  1.0
  Sn  Sn1625  1  0.33333333  0.78576617  0.24331895  1.0
  Sn  Sn1626  1  0.66666667  0.11909950  0.24331895  1.0
  Sn  Sn1627  1  0.66666667  0.45243283  0.24331895  1.0
  Sn  Sn1628  1  0.66666667  0.78576617  0.24331895  1.0
  Sn  Sn1629  1  0.00000000  0.28576617  0.34331895  1.0
  Sn  Sn1630  1  0.00000000  0.61909950  0.34331895  1.0
  Sn  Sn1631  1  0.00000000  0.95243283  0.34331895  1.0
  Sn  Sn1632  1  0.33333333  0.28576617  0.34331895  1.0
  Sn  Sn1633  1  0.33333333  0.61909950  0.34331895  1.0
  Sn  Sn1634  1  0.33333333  0.95243283  0.34331895  1.0
  Sn  Sn1635  1  0.66666667  0.28576617  0.34331895  1.0
  Sn  Sn1636  1  0.66666667  0.61909950  0.34331895  1.0
  Sn  Sn1637  1  0.66666667  0.95243283  0.34331895  1.0
  Sn  Sn1638  1  0.00000000  0.02066350  0.28567915  1.0
  Sn  Sn1639  1  0.00000000  0.35399683  0.28567915  1.0
  Sn  Sn1640  1  0.00000000  0.68733017  0.28567915  1.0
  Sn  Sn1641  1  0.33333333  0.02066350  0.28567915  1.0
  Sn  Sn1642  1  0.33333333  0.35399683  0.28567915  1.0
  Sn  Sn1643  1  0.33333333  0.68733017  0.28567915  1.0
  Sn  Sn1644  1  0.66666667  0.02066350  0.28567915  1.0
  Sn  Sn1645  1  0.66666667  0.35399683  0.28567915  1.0
  Sn  Sn1646  1  0.66666667  0.68733017  0.28567915  1.0
  Sn  Sn1647  1  0.00000000  0.18733017  0.38567915  1.0
  Sn  Sn1648  1  0.00000000  0.52066350  0.38567915  1.0
  Sn  Sn1649  1  0.00000000  0.85399683  0.38567915  1.0
  Sn  Sn1650  1  0.33333333  0.18733017  0.38567915  1.0
  Sn  Sn1651  1  0.33333333  0.52066350  0.38567915  1.0
  Sn  Sn1652  1  0.33333333  0.85399683  0.38567915  1.0
  Sn  Sn1653  1  0.66666667  0.18733017  0.38567915  1.0
  Sn  Sn1654  1  0.66666667  0.52066350  0.38567915  1.0
  Sn  Sn1655  1  0.66666667  0.85399683  0.38567915  1.0
  Sn  Sn1656  1  0.00000000  0.07604100  0.31874785  1.0
  Sn  Sn1657  1  0.00000000  0.40937433  0.31874785  1.0
  Sn  Sn1658  1  0.00000000  0.74270767  0.31874785  1.0
  Sn  Sn1659  1  0.33333333  0.07604100  0.31874785  1.0
  Sn  Sn1660  1  0.33333333  0.40937433  0.31874785  1.0
  Sn  Sn1661  1  0.33333333  0.74270767  0.31874785  1.0
  Sn  Sn1662  1  0.66666667  0.07604100  0.31874785  1.0
  Sn  Sn1663  1  0.66666667  0.40937433  0.31874785  1.0
  Sn  Sn1664  1  0.66666667  0.74270767  0.31874785  1.0
  Sn  Sn1665  1  0.00000000  0.24270767  0.21874785  1.0
  Sn  Sn1666  1  0.00000000  0.57604100  0.21874785  1.0
  Sn  Sn1667  1  0.00000000  0.90937433  0.21874785  1.0
  Sn  Sn1668  1  0.33333333  0.24270767  0.21874785  1.0
  Sn  Sn1669  1  0.33333333  0.57604100  0.21874785  1.0
  Sn  Sn1670  1  0.33333333  0.90937433  0.21874785  1.0
  Sn  Sn1671  1  0.66666667  0.24270767  0.21874785  1.0
  Sn  Sn1672  1  0.66666667  0.57604100  0.21874785  1.0
  Sn  Sn1673  1  0.66666667  0.90937433  0.21874785  1.0
  Sn  Sn1674  1  0.00000000  0.13164317  0.35156935  1.0
  Sn  Sn1675  1  0.00000000  0.46497650  0.35156935  1.0
  Sn  Sn1676  1  0.00000000  0.79830983  0.35156935  1.0
  Sn  Sn1677  1  0.33333333  0.13164317  0.35156935  1.0
  Sn  Sn1678  1  0.33333333  0.46497650  0.35156935  1.0
  Sn  Sn1679  1  0.33333333  0.79830983  0.35156935  1.0
  Sn  Sn1680  1  0.66666667  0.13164317  0.35156935  1.0
  Sn  Sn1681  1  0.66666667  0.46497650  0.35156935  1.0
  Sn  Sn1682  1  0.66666667  0.79830983  0.35156935  1.0
  Sn  Sn1683  1  0.00000000  0.29830983  0.25156935  1.0
  Sn  Sn1684  1  0.00000000  0.63164317  0.25156935  1.0
  Sn  Sn1685  1  0.00000000  0.96497650  0.25156935  1.0
  Sn  Sn1686  1  0.33333333  0.29830983  0.25156935  1.0
  Sn  Sn1687  1  0.33333333  0.63164317  0.25156935  1.0
  Sn  Sn1688  1  0.33333333  0.96497650  0.25156935  1.0
  Sn  Sn1689  1  0.66666667  0.29830983  0.25156935  1.0
  Sn  Sn1690  1  0.66666667  0.63164317  0.25156935  1.0
  Sn  Sn1691  1  0.66666667  0.96497650  0.25156935  1.0
  Sn  Sn1692  1  0.16666667  0.04773867  0.23855365  1.0
  Sn  Sn1693  1  0.16666667  0.38107200  0.23855365  1.0
  Sn  Sn1694  1  0.16666667  0.71440533  0.23855365  1.0
  Sn  Sn1695  1  0.50000000  0.04773867  0.23855365  1.0
  Sn  Sn1696  1  0.50000000  0.38107200  0.23855365  1.0
  Sn  Sn1697  1  0.50000000  0.71440533  0.23855365  1.0
  Sn  Sn1698  1  0.83333333  0.04773867  0.23855365  1.0
  Sn  Sn1699  1  0.83333333  0.38107200  0.23855365  1.0
  Sn  Sn1700  1  0.83333333  0.71440533  0.23855365  1.0
  Sn  Sn1701  1  0.16666667  0.21440533  0.33855365  1.0
  Sn  Sn1702  1  0.16666667  0.54773867  0.33855365  1.0
  Sn  Sn1703  1  0.16666667  0.88107200  0.33855365  1.0
  Sn  Sn1704  1  0.50000000  0.21440533  0.33855365  1.0
  Sn  Sn1705  1  0.50000000  0.54773867  0.33855365  1.0
  Sn  Sn1706  1  0.50000000  0.88107200  0.33855365  1.0
  Sn  Sn1707  1  0.83333333  0.21440533  0.33855365  1.0
  Sn  Sn1708  1  0.83333333  0.54773867  0.33855365  1.0
  Sn  Sn1709  1  0.83333333  0.88107200  0.33855365  1.0
  Sn  Sn1710  1  0.16666667  0.10325750  0.27253175  1.0
  Sn  Sn1711  1  0.16666667  0.43659083  0.27253175  1.0
  Sn  Sn1712  1  0.16666667  0.76992417  0.27253175  1.0
  Sn  Sn1713  1  0.50000000  0.10325750  0.27253175  1.0
  Sn  Sn1714  1  0.50000000  0.43659083  0.27253175  1.0
  Sn  Sn1715  1  0.50000000  0.76992417  0.27253175  1.0
  Sn  Sn1716  1  0.83333333  0.10325750  0.27253175  1.0
  Sn  Sn1717  1  0.83333333  0.43659083  0.27253175  1.0
  Sn  Sn1718  1  0.83333333  0.76992417  0.27253175  1.0
  Sn  Sn1719  1  0.16666667  0.26992417  0.37253175  1.0
  Sn  Sn1720  1  0.16666667  0.60325750  0.37253175  1.0
  Sn  Sn1721  1  0.16666667  0.93659083  0.37253175  1.0
  Sn  Sn1722  1  0.50000000  0.26992417  0.37253175  1.0
  Sn  Sn1723  1  0.50000000  0.60325750  0.37253175  1.0
  Sn  Sn1724  1  0.50000000  0.93659083  0.37253175  1.0
  Sn  Sn1725  1  0.83333333  0.26992417  0.37253175  1.0
  Sn  Sn1726  1  0.83333333  0.60325750  0.37253175  1.0
  Sn  Sn1727  1  0.83333333  0.93659083  0.37253175  1.0
  Sn  Sn1728  1  0.16666667  0.15892350  0.30591535  1.0
  Sn  Sn1729  1  0.16666667  0.49225683  0.30591535  1.0
  Sn  Sn1730  1  0.16666667  0.82559017  0.30591535  1.0
  Sn  Sn1731  1  0.50000000  0.15892350  0.30591535  1.0
  Sn  Sn1732  1  0.50000000  0.49225683  0.30591535  1.0
  Sn  Sn1733  1  0.50000000  0.82559017  0.30591535  1.0
  Sn  Sn1734  1  0.83333333  0.15892350  0.30591535  1.0
  Sn  Sn1735  1  0.83333333  0.49225683  0.30591535  1.0
  Sn  Sn1736  1  0.83333333  0.82559017  0.30591535  1.0
  Sn  Sn1737  1  0.16666667  0.32559017  0.20591535  1.0
  Sn  Sn1738  1  0.16666667  0.65892350  0.20591535  1.0
  Sn  Sn1739  1  0.16666667  0.99225683  0.20591535  1.0
  Sn  Sn1740  1  0.50000000  0.32559017  0.20591535  1.0
  Sn  Sn1741  1  0.50000000  0.65892350  0.20591535  1.0
  Sn  Sn1742  1  0.50000000  0.99225683  0.20591535  1.0
  Sn  Sn1743  1  0.83333333  0.32559017  0.20591535  1.0
  Sn  Sn1744  1  0.83333333  0.65892350  0.20591535  1.0
  Sn  Sn1745  1  0.83333333  0.99225683  0.20591535  1.0
  Sn  Sn1746  1  0.16666667  0.03559767  0.33039785  1.0
  Sn  Sn1747  1  0.16666667  0.36893100  0.33039785  1.0
  Sn  Sn1748  1  0.16666667  0.70226433  0.33039785  1.0
  Sn  Sn1749  1  0.50000000  0.03559767  0.33039785  1.0
  Sn  Sn1750  1  0.50000000  0.36893100  0.33039785  1.0
  Sn  Sn1751  1  0.50000000  0.70226433  0.33039785  1.0
  Sn  Sn1752  1  0.83333333  0.03559767  0.33039785  1.0
  Sn  Sn1753  1  0.83333333  0.36893100  0.33039785  1.0
  Sn  Sn1754  1  0.83333333  0.70226433  0.33039785  1.0
  Sn  Sn1755  1  0.16666667  0.20226433  0.23039785  1.0
  Sn  Sn1756  1  0.16666667  0.53559767  0.23039785  1.0
  Sn  Sn1757  1  0.16666667  0.86893100  0.23039785  1.0
  Sn  Sn1758  1  0.50000000  0.20226433  0.23039785  1.0
  Sn  Sn1759  1  0.50000000  0.53559767  0.23039785  1.0
  Sn  Sn1760  1  0.50000000  0.86893100  0.23039785  1.0
  Sn  Sn1761  1  0.83333333  0.20226433  0.23039785  1.0
  Sn  Sn1762  1  0.83333333  0.53559767  0.23039785  1.0
  Sn  Sn1763  1  0.83333333  0.86893100  0.23039785  1.0
  Sn  Sn1764  1  0.16666667  0.09111583  0.36514975  1.0
  Sn  Sn1765  1  0.16666667  0.42444917  0.36514975  1.0
  Sn  Sn1766  1  0.16666667  0.75778250  0.36514975  1.0
  Sn  Sn1767  1  0.50000000  0.09111583  0.36514975  1.0
  Sn  Sn1768  1  0.50000000  0.42444917  0.36514975  1.0
  Sn  Sn1769  1  0.50000000  0.75778250  0.36514975  1.0
  Sn  Sn1770  1  0.83333333  0.09111583  0.36514975  1.0
  Sn  Sn1771  1  0.83333333  0.42444917  0.36514975  1.0
  Sn  Sn1772  1  0.83333333  0.75778250  0.36514975  1.0
  Sn  Sn1773  1  0.16666667  0.25778250  0.26514975  1.0
  Sn  Sn1774  1  0.16666667  0.59111583  0.26514975  1.0
  Sn  Sn1775  1  0.16666667  0.92444917  0.26514975  1.0
  Sn  Sn1776  1  0.50000000  0.25778250  0.26514975  1.0
  Sn  Sn1777  1  0.50000000  0.59111583  0.26514975  1.0
  Sn  Sn1778  1  0.50000000  0.92444917  0.26514975  1.0
  Sn  Sn1779  1  0.83333333  0.25778250  0.26514975  1.0
  Sn  Sn1780  1  0.83333333  0.59111583  0.26514975  1.0
  Sn  Sn1781  1  0.83333333  0.92444917  0.26514975  1.0
  Sn  Sn1782  1  0.16666667  0.14673517  0.39795775  1.0
  Sn  Sn1783  1  0.16666667  0.48006850  0.39795775  1.0
  Sn  Sn1784  1  0.16666667  0.81340183  0.39795775  1.0
  Sn  Sn1785  1  0.50000000  0.14673517  0.39795775  1.0
  Sn  Sn1786  1  0.50000000  0.48006850  0.39795775  1.0
  Sn  Sn1787  1  0.50000000  0.81340183  0.39795775  1.0
  Sn  Sn1788  1  0.83333333  0.14673517  0.39795775  1.0
  Sn  Sn1789  1  0.83333333  0.48006850  0.39795775  1.0
  Sn  Sn1790  1  0.83333333  0.81340183  0.39795775  1.0
  Sn  Sn1791  1  0.16666667  0.31340183  0.29795775  1.0
  Sn  Sn1792  1  0.16666667  0.64673517  0.29795775  1.0
  Sn  Sn1793  1  0.16666667  0.98006850  0.29795775  1.0
  Sn  Sn1794  1  0.50000000  0.31340183  0.29795775  1.0
  Sn  Sn1795  1  0.50000000  0.64673517  0.29795775  1.0
  Sn  Sn1796  1  0.50000000  0.98006850  0.29795775  1.0
  Sn  Sn1797  1  0.83333333  0.31340183  0.29795775  1.0
  Sn  Sn1798  1  0.83333333  0.64673517  0.29795775  1.0
  Sn  Sn1799  1  0.83333333  0.98006850  0.29795775  1.0
  Sn  Sn1800  1  0.00000000  0.03479067  0.39412185  1.0
  Sn  Sn1801  1  0.00000000  0.36812400  0.39412185  1.0
  Sn  Sn1802  1  0.00000000  0.70145733  0.39412185  1.0
  Sn  Sn1803  1  0.33333333  0.03479067  0.39412185  1.0
  Sn  Sn1804  1  0.33333333  0.36812400  0.39412185  1.0
  Sn  Sn1805  1  0.33333333  0.70145733  0.39412185  1.0
  Sn  Sn1806  1  0.66666667  0.03479067  0.39412185  1.0
  Sn  Sn1807  1  0.66666667  0.36812400  0.39412185  1.0
  Sn  Sn1808  1  0.66666667  0.70145733  0.39412185  1.0
  Sn  Sn1809  1  0.00000000  0.20145733  0.29412185  1.0
  Sn  Sn1810  1  0.00000000  0.53479067  0.29412185  1.0
  Sn  Sn1811  1  0.00000000  0.86812400  0.29412185  1.0
  Sn  Sn1812  1  0.33333333  0.20145733  0.29412185  1.0
  Sn  Sn1813  1  0.33333333  0.53479067  0.29412185  1.0
  Sn  Sn1814  1  0.33333333  0.86812400  0.29412185  1.0
  Sn  Sn1815  1  0.66666667  0.20145733  0.29412185  1.0
  Sn  Sn1816  1  0.66666667  0.53479067  0.29412185  1.0
  Sn  Sn1817  1  0.66666667  0.86812400  0.29412185  1.0
  Sn  Sn1818  1  0.00000000  0.08918800  0.22439325  1.0
  Sn  Sn1819  1  0.00000000  0.42252133  0.22439325  1.0
  Sn  Sn1820  1  0.00000000  0.75585467  0.22439325  1.0
  Sn  Sn1821  1  0.33333333  0.08918800  0.22439325  1.0
  Sn  Sn1822  1  0.33333333  0.42252133  0.22439325  1.0
  Sn  Sn1823  1  0.33333333  0.75585467  0.22439325  1.0
  Sn  Sn1824  1  0.66666667  0.08918800  0.22439325  1.0
  Sn  Sn1825  1  0.66666667  0.42252133  0.22439325  1.0
  Sn  Sn1826  1  0.66666667  0.75585467  0.22439325  1.0
  Sn  Sn1827  1  0.00000000  0.25585467  0.32439325  1.0
  Sn  Sn1828  1  0.00000000  0.58918800  0.32439325  1.0
  Sn  Sn1829  1  0.00000000  0.92252133  0.32439325  1.0
  Sn  Sn1830  1  0.33333333  0.25585467  0.32439325  1.0
  Sn  Sn1831  1  0.33333333  0.58918800  0.32439325  1.0
  Sn  Sn1832  1  0.33333333  0.92252133  0.32439325  1.0
  Sn  Sn1833  1  0.66666667  0.25585467  0.32439325  1.0
  Sn  Sn1834  1  0.66666667  0.58918800  0.32439325  1.0
  Sn  Sn1835  1  0.66666667  0.92252133  0.32439325  1.0
  Sn  Sn1836  1  0.00000000  0.14492250  0.25769175  1.0
  Sn  Sn1837  1  0.00000000  0.47825583  0.25769175  1.0
  Sn  Sn1838  1  0.00000000  0.81158917  0.25769175  1.0
  Sn  Sn1839  1  0.33333333  0.14492250  0.25769175  1.0
  Sn  Sn1840  1  0.33333333  0.47825583  0.25769175  1.0
  Sn  Sn1841  1  0.33333333  0.81158917  0.25769175  1.0
  Sn  Sn1842  1  0.66666667  0.14492250  0.25769175  1.0
  Sn  Sn1843  1  0.66666667  0.47825583  0.25769175  1.0
  Sn  Sn1844  1  0.66666667  0.81158917  0.25769175  1.0
  Sn  Sn1845  1  0.00000000  0.31158917  0.35769175  1.0
  Sn  Sn1846  1  0.00000000  0.64492250  0.35769175  1.0
  Sn  Sn1847  1  0.00000000  0.97825583  0.35769175  1.0
  Sn  Sn1848  1  0.33333333  0.31158917  0.35769175  1.0
  Sn  Sn1849  1  0.33333333  0.64492250  0.35769175  1.0
  Sn  Sn1850  1  0.33333333  0.97825583  0.35769175  1.0
  Sn  Sn1851  1  0.66666667  0.31158917  0.35769175  1.0
  Sn  Sn1852  1  0.66666667  0.64492250  0.35769175  1.0
  Sn  Sn1853  1  0.66666667  0.97825583  0.35769175  1.0
  Sn  Sn1854  1  0.00000000  0.04875567  0.30277785  1.0
  Sn  Sn1855  1  0.00000000  0.38208900  0.30277785  1.0
  Sn  Sn1856  1  0.00000000  0.71542233  0.30277785  1.0
  Sn  Sn1857  1  0.33333333  0.04875567  0.30277785  1.0
  Sn  Sn1858  1  0.33333333  0.38208900  0.30277785  1.0
  Sn  Sn1859  1  0.33333333  0.71542233  0.30277785  1.0
  Sn  Sn1860  1  0.66666667  0.04875567  0.30277785  1.0
  Sn  Sn1861  1  0.66666667  0.38208900  0.30277785  1.0
  Sn  Sn1862  1  0.66666667  0.71542233  0.30277785  1.0
  Sn  Sn1863  1  0.00000000  0.21542233  0.20277785  1.0
  Sn  Sn1864  1  0.00000000  0.54875567  0.20277785  1.0
  Sn  Sn1865  1  0.00000000  0.88208900  0.20277785  1.0
  Sn  Sn1866  1  0.33333333  0.21542233  0.20277785  1.0
  Sn  Sn1867  1  0.33333333  0.54875567  0.20277785  1.0
  Sn  Sn1868  1  0.33333333  0.88208900  0.20277785  1.0
  Sn  Sn1869  1  0.66666667  0.21542233  0.20277785  1.0
  Sn  Sn1870  1  0.66666667  0.54875567  0.20277785  1.0
  Sn  Sn1871  1  0.66666667  0.88208900  0.20277785  1.0
  Sn  Sn1872  1  0.00000000  0.10430467  0.34235825  1.0
  Sn  Sn1873  1  0.00000000  0.43763800  0.34235825  1.0
  Sn  Sn1874  1  0.00000000  0.77097133  0.34235825  1.0
  Sn  Sn1875  1  0.33333333  0.10430467  0.34235825  1.0
  Sn  Sn1876  1  0.33333333  0.43763800  0.34235825  1.0
  Sn  Sn1877  1  0.33333333  0.77097133  0.34235825  1.0
  Sn  Sn1878  1  0.66666667  0.10430467  0.34235825  1.0
  Sn  Sn1879  1  0.66666667  0.43763800  0.34235825  1.0
  Sn  Sn1880  1  0.66666667  0.77097133  0.34235825  1.0
  Sn  Sn1881  1  0.00000000  0.27097133  0.24235825  1.0
  Sn  Sn1882  1  0.00000000  0.60430467  0.24235825  1.0
  Sn  Sn1883  1  0.00000000  0.93763800  0.24235825  1.0
  Sn  Sn1884  1  0.33333333  0.27097133  0.24235825  1.0
  Sn  Sn1885  1  0.33333333  0.60430467  0.24235825  1.0
  Sn  Sn1886  1  0.33333333  0.93763800  0.24235825  1.0
  Sn  Sn1887  1  0.66666667  0.27097133  0.24235825  1.0
  Sn  Sn1888  1  0.66666667  0.60430467  0.24235825  1.0
  Sn  Sn1889  1  0.66666667  0.93763800  0.24235825  1.0
  Sn  Sn1890  1  0.00000000  0.15982333  0.37581505  1.0
  Sn  Sn1891  1  0.00000000  0.49315667  0.37581505  1.0
  Sn  Sn1892  1  0.00000000  0.82649000  0.37581505  1.0
  Sn  Sn1893  1  0.33333333  0.15982333  0.37581505  1.0
  Sn  Sn1894  1  0.33333333  0.49315667  0.37581505  1.0
  Sn  Sn1895  1  0.33333333  0.82649000  0.37581505  1.0
  Sn  Sn1896  1  0.66666667  0.15982333  0.37581505  1.0
  Sn  Sn1897  1  0.66666667  0.49315667  0.37581505  1.0
  Sn  Sn1898  1  0.66666667  0.82649000  0.37581505  1.0
  Sn  Sn1899  1  0.00000000  0.32649000  0.27581505  1.0
  Sn  Sn1900  1  0.00000000  0.65982333  0.27581505  1.0
  Sn  Sn1901  1  0.00000000  0.99315667  0.27581505  1.0
  Sn  Sn1902  1  0.33333333  0.32649000  0.27581505  1.0
  Sn  Sn1903  1  0.33333333  0.65982333  0.27581505  1.0
  Sn  Sn1904  1  0.33333333  0.99315667  0.27581505  1.0
  Sn  Sn1905  1  0.66666667  0.32649000  0.27581505  1.0
  Sn  Sn1906  1  0.66666667  0.65982333  0.27581505  1.0
  Sn  Sn1907  1  0.66666667  0.99315667  0.27581505  1.0
  Sn  Sn1908  1  0.16666667  0.02275967  0.21573945  1.0
  Sn  Sn1909  1  0.16666667  0.35609300  0.21573945  1.0
  Sn  Sn1910  1  0.16666667  0.68942633  0.21573945  1.0
  Sn  Sn1911  1  0.50000000  0.02275967  0.21573945  1.0
  Sn  Sn1912  1  0.50000000  0.35609300  0.21573945  1.0
  Sn  Sn1913  1  0.50000000  0.68942633  0.21573945  1.0
  Sn  Sn1914  1  0.83333333  0.02275967  0.21573945  1.0
  Sn  Sn1915  1  0.83333333  0.35609300  0.21573945  1.0
  Sn  Sn1916  1  0.83333333  0.68942633  0.21573945  1.0
  Sn  Sn1917  1  0.16666667  0.18942633  0.31573945  1.0
  Sn  Sn1918  1  0.16666667  0.52275967  0.31573945  1.0
  Sn  Sn1919  1  0.16666667  0.85609300  0.31573945  1.0
  Sn  Sn1920  1  0.50000000  0.18942633  0.31573945  1.0
  Sn  Sn1921  1  0.50000000  0.52275967  0.31573945  1.0
  Sn  Sn1922  1  0.50000000  0.85609300  0.31573945  1.0
  Sn  Sn1923  1  0.83333333  0.18942633  0.31573945  1.0
  Sn  Sn1924  1  0.83333333  0.52275967  0.31573945  1.0
  Sn  Sn1925  1  0.83333333  0.85609300  0.31573945  1.0
  Sn  Sn1926  1  0.16666667  0.07805800  0.24897825  1.0
  Sn  Sn1927  1  0.16666667  0.41139133  0.24897825  1.0
  Sn  Sn1928  1  0.16666667  0.74472467  0.24897825  1.0
  Sn  Sn1929  1  0.50000000  0.07805800  0.24897825  1.0
  Sn  Sn1930  1  0.50000000  0.41139133  0.24897825  1.0
  Sn  Sn1931  1  0.50000000  0.74472467  0.24897825  1.0
  Sn  Sn1932  1  0.83333333  0.07805800  0.24897825  1.0
  Sn  Sn1933  1  0.83333333  0.41139133  0.24897825  1.0
  Sn  Sn1934  1  0.83333333  0.74472467  0.24897825  1.0
  Sn  Sn1935  1  0.16666667  0.24472467  0.34897825  1.0
  Sn  Sn1936  1  0.16666667  0.57805800  0.34897825  1.0
  Sn  Sn1937  1  0.16666667  0.91139133  0.34897825  1.0
  Sn  Sn1938  1  0.50000000  0.24472467  0.34897825  1.0
  Sn  Sn1939  1  0.50000000  0.57805800  0.34897825  1.0
  Sn  Sn1940  1  0.50000000  0.91139133  0.34897825  1.0
  Sn  Sn1941  1  0.83333333  0.24472467  0.34897825  1.0
  Sn  Sn1942  1  0.83333333  0.57805800  0.34897825  1.0
  Sn  Sn1943  1  0.83333333  0.91139133  0.34897825  1.0
  Sn  Sn1944  1  0.16666667  0.13383667  0.28203685  1.0
  Sn  Sn1945  1  0.16666667  0.46717000  0.28203685  1.0
  Sn  Sn1946  1  0.16666667  0.80050333  0.28203685  1.0
  Sn  Sn1947  1  0.50000000  0.13383667  0.28203685  1.0
  Sn  Sn1948  1  0.50000000  0.46717000  0.28203685  1.0
  Sn  Sn1949  1  0.50000000  0.80050333  0.28203685  1.0
  Sn  Sn1950  1  0.83333333  0.13383667  0.28203685  1.0
  Sn  Sn1951  1  0.83333333  0.46717000  0.28203685  1.0
  Sn  Sn1952  1  0.83333333  0.80050333  0.28203685  1.0
  Sn  Sn1953  1  0.16666667  0.30050333  0.38203685  1.0
  Sn  Sn1954  1  0.16666667  0.63383667  0.38203685  1.0
  Sn  Sn1955  1  0.16666667  0.96717000  0.38203685  1.0
  Sn  Sn1956  1  0.50000000  0.30050333  0.38203685  1.0
  Sn  Sn1957  1  0.50000000  0.63383667  0.38203685  1.0
  Sn  Sn1958  1  0.50000000  0.96717000  0.38203685  1.0
  Sn  Sn1959  1  0.83333333  0.30050333  0.38203685  1.0
  Sn  Sn1960  1  0.83333333  0.63383667  0.38203685  1.0
  Sn  Sn1961  1  0.83333333  0.96717000  0.38203685  1.0
  Sn  Sn1962  1  0.16666667  0.00515517  0.30587815  1.0
  Sn  Sn1963  1  0.16666667  0.33848850  0.30587815  1.0
  Sn  Sn1964  1  0.16666667  0.67182183  0.30587815  1.0
  Sn  Sn1965  1  0.50000000  0.00515517  0.30587815  1.0
  Sn  Sn1966  1  0.50000000  0.33848850  0.30587815  1.0
  Sn  Sn1967  1  0.50000000  0.67182183  0.30587815  1.0
  Sn  Sn1968  1  0.83333333  0.00515517  0.30587815  1.0
  Sn  Sn1969  1  0.83333333  0.33848850  0.30587815  1.0
  Sn  Sn1970  1  0.83333333  0.67182183  0.30587815  1.0
  Sn  Sn1971  1  0.16666667  0.17182183  0.20587815  1.0
  Sn  Sn1972  1  0.16666667  0.50515517  0.20587815  1.0
  Sn  Sn1973  1  0.16666667  0.83848850  0.20587815  1.0
  Sn  Sn1974  1  0.50000000  0.17182183  0.20587815  1.0
  Sn  Sn1975  1  0.50000000  0.50515517  0.20587815  1.0
  Sn  Sn1976  1  0.50000000  0.83848850  0.20587815  1.0
  Sn  Sn1977  1  0.83333333  0.17182183  0.20587815  1.0
  Sn  Sn1978  1  0.83333333  0.50515517  0.20587815  1.0
  Sn  Sn1979  1  0.83333333  0.83848850  0.20587815  1.0
  Sn  Sn1980  1  0.16666667  0.06077917  0.33835035  1.0
  Sn  Sn1981  1  0.16666667  0.39411250  0.33835035  1.0
  Sn  Sn1982  1  0.16666667  0.72744583  0.33835035  1.0
  Sn  Sn1983  1  0.50000000  0.06077917  0.33835035  1.0
  Sn  Sn1984  1  0.50000000  0.39411250  0.33835035  1.0
  Sn  Sn1985  1  0.50000000  0.72744583  0.33835035  1.0
  Sn  Sn1986  1  0.83333333  0.06077917  0.33835035  1.0
  Sn  Sn1987  1  0.83333333  0.39411250  0.33835035  1.0
  Sn  Sn1988  1  0.83333333  0.72744583  0.33835035  1.0
  Sn  Sn1989  1  0.16666667  0.22744583  0.23835035  1.0
  Sn  Sn1990  1  0.16666667  0.56077917  0.23835035  1.0
  Sn  Sn1991  1  0.16666667  0.89411250  0.23835035  1.0
  Sn  Sn1992  1  0.50000000  0.22744583  0.23835035  1.0
  Sn  Sn1993  1  0.50000000  0.56077917  0.23835035  1.0
  Sn  Sn1994  1  0.50000000  0.89411250  0.23835035  1.0
  Sn  Sn1995  1  0.83333333  0.22744583  0.23835035  1.0
  Sn  Sn1996  1  0.83333333  0.56077917  0.23835035  1.0
  Sn  Sn1997  1  0.83333333  0.89411250  0.23835035  1.0
  Sn  Sn1998  1  0.16666667  0.11629883  0.37232735  1.0
  Sn  Sn1999  1  0.16666667  0.44963217  0.37232735  1.0
  Sn  Sn2000  1  0.16666667  0.78296550  0.37232735  1.0
  Sn  Sn2001  1  0.50000000  0.11629883  0.37232735  1.0
  Sn  Sn2002  1  0.50000000  0.44963217  0.37232735  1.0
  Sn  Sn2003  1  0.50000000  0.78296550  0.37232735  1.0
  Sn  Sn2004  1  0.83333333  0.11629883  0.37232735  1.0
  Sn  Sn2005  1  0.83333333  0.44963217  0.37232735  1.0
  Sn  Sn2006  1  0.83333333  0.78296550  0.37232735  1.0
  Sn  Sn2007  1  0.16666667  0.28296550  0.27232735  1.0
  Sn  Sn2008  1  0.16666667  0.61629883  0.27232735  1.0
  Sn  Sn2009  1  0.16666667  0.94963217  0.27232735  1.0
  Sn  Sn2010  1  0.50000000  0.28296550  0.27232735  1.0
  Sn  Sn2011  1  0.50000000  0.61629883  0.27232735  1.0
  Sn  Sn2012  1  0.50000000  0.94963217  0.27232735  1.0
  Sn  Sn2013  1  0.83333333  0.28296550  0.27232735  1.0
  Sn  Sn2014  1  0.83333333  0.61629883  0.27232735  1.0
  Sn  Sn2015  1  0.83333333  0.94963217  0.27232735  1.0
