# generated using pymatgen
data_Ni4Sn3
_symmetry_space_group_name_H-M   'P 1'
_cell_length_a   37.78855465
_cell_length_b   75.37534174
_cell_length_c   29.73725272
_cell_angle_alpha   81.56187683
_cell_angle_beta   79.59052652
_cell_angle_gamma   80.16366142
_symmetry_Int_Tables_number   1
_chemical_formula_structural   Ni4Sn3
_chemical_formula_sum   'Ni1152 Sn864'
_cell_volume   81493.78743907
_cell_formula_units_Z   288
loop_
 _symmetry_equiv_pos_site_id
 _symmetry_equiv_pos_as_xyz
  1  'x, y, z'
loop_
 _atom_site_type_symbol
 _atom_site_label
 _atom_site_symmetry_multiplicity
 _atom_site_fract_x
 _atom_site_fract_y
 _atom_site_fract_z
 _atom_site_occupancy
  Ni  Ni0  1  0.26524930  0.06943867  0.86189230  1.0
  Ni  Ni1  1  0.26524930  0.40277200  0.86189230  1.0
  Ni  Ni2  1  0.26524930  0.73610533  0.86189230  1.0
  Ni  Ni3  1  0.59858263  0.06943867  0.86189230  1.0
  Ni  Ni4  1  0.59858263  0.40277200  0.86189230  1.0
  Ni  Ni5  1  0.59858263  0.73610533  0.86189230  1.0
  Ni  Ni6  1  0.93191597  0.06943867  0.86189230  1.0
  Ni  Ni7  1  0.93191597  0.40277200  0.86189230  1.0
  Ni  Ni8  1  0.93191597  0.73610533  0.86189230  1.0
  Ni  Ni9  1  0.03191597  0.06943867  0.96189230  1.0
  Ni  Ni10  1  0.03191597  0.40277200  0.96189230  1.0
  Ni  Ni11  1  0.03191597  0.73610533  0.96189230  1.0
  Ni  Ni12  1  0.36524930  0.06943867  0.96189230  1.0
  Ni  Ni13  1  0.36524930  0.40277200  0.96189230  1.0
  Ni  Ni14  1  0.36524930  0.73610533  0.96189230  1.0
  Ni  Ni15  1  0.69858263  0.06943867  0.96189230  1.0
  Ni  Ni16  1  0.69858263  0.40277200  0.96189230  1.0
  Ni  Ni17  1  0.69858263  0.73610533  0.96189230  1.0
  Ni  Ni18  1  0.23220603  0.18044800  0.82763370  1.0
  Ni  Ni19  1  0.23220603  0.51378133  0.82763370  1.0
  Ni  Ni20  1  0.23220603  0.84711467  0.82763370  1.0
  Ni  Ni21  1  0.56553937  0.18044800  0.82763370  1.0
  Ni  Ni22  1  0.56553937  0.51378133  0.82763370  1.0
  Ni  Ni23  1  0.56553937  0.84711467  0.82763370  1.0
  Ni  Ni24  1  0.89887270  0.18044800  0.82763370  1.0
  Ni  Ni25  1  0.89887270  0.51378133  0.82763370  1.0
  Ni  Ni26  1  0.89887270  0.84711467  0.82763370  1.0
  Ni  Ni27  1  0.33220603  0.18044800  0.92763370  1.0
  Ni  Ni28  1  0.33220603  0.51378133  0.92763370  1.0
  Ni  Ni29  1  0.33220603  0.84711467  0.92763370  1.0
  Ni  Ni30  1  0.66553937  0.18044800  0.92763370  1.0
  Ni  Ni31  1  0.66553937  0.51378133  0.92763370  1.0
  Ni  Ni32  1  0.66553937  0.84711467  0.92763370  1.0
  Ni  Ni33  1  0.99887270  0.18044800  0.92763370  1.0
  Ni  Ni34  1  0.99887270  0.51378133  0.92763370  1.0
  Ni  Ni35  1  0.99887270  0.84711467  0.92763370  1.0
  Ni  Ni36  1  0.06542450  0.29162400  0.99450850  1.0
  Ni  Ni37  1  0.06542450  0.62495733  0.99450850  1.0
  Ni  Ni38  1  0.06542450  0.95829067  0.99450850  1.0
  Ni  Ni39  1  0.39875783  0.29162400  0.99450850  1.0
  Ni  Ni40  1  0.39875783  0.62495733  0.99450850  1.0
  Ni  Ni41  1  0.39875783  0.95829067  0.99450850  1.0
  Ni  Ni42  1  0.73209117  0.29162400  0.99450850  1.0
  Ni  Ni43  1  0.73209117  0.62495733  0.99450850  1.0
  Ni  Ni44  1  0.73209117  0.95829067  0.99450850  1.0
  Ni  Ni45  1  0.29875783  0.29162400  0.89450850  1.0
  Ni  Ni46  1  0.29875783  0.62495733  0.89450850  1.0
  Ni  Ni47  1  0.29875783  0.95829067  0.89450850  1.0
  Ni  Ni48  1  0.63209117  0.29162400  0.89450850  1.0
  Ni  Ni49  1  0.63209117  0.62495733  0.89450850  1.0
  Ni  Ni50  1  0.63209117  0.95829067  0.89450850  1.0
  Ni  Ni51  1  0.96542450  0.29162400  0.89450850  1.0
  Ni  Ni52  1  0.96542450  0.62495733  0.89450850  1.0
  Ni  Ni53  1  0.96542450  0.95829067  0.89450850  1.0
  Ni  Ni54  1  0.04061783  0.09731333  0.80397950  1.0
  Ni  Ni55  1  0.04061783  0.43064667  0.80397950  1.0
  Ni  Ni56  1  0.04061783  0.76398000  0.80397950  1.0
  Ni  Ni57  1  0.37395117  0.09731333  0.80397950  1.0
  Ni  Ni58  1  0.37395117  0.43064667  0.80397950  1.0
  Ni  Ni59  1  0.37395117  0.76398000  0.80397950  1.0
  Ni  Ni60  1  0.70728450  0.09731333  0.80397950  1.0
  Ni  Ni61  1  0.70728450  0.43064667  0.80397950  1.0
  Ni  Ni62  1  0.70728450  0.76398000  0.80397950  1.0
  Ni  Ni63  1  0.14061783  0.09731333  0.90397950  1.0
  Ni  Ni64  1  0.14061783  0.43064667  0.90397950  1.0
  Ni  Ni65  1  0.14061783  0.76398000  0.90397950  1.0
  Ni  Ni66  1  0.47395117  0.09731333  0.90397950  1.0
  Ni  Ni67  1  0.47395117  0.43064667  0.90397950  1.0
  Ni  Ni68  1  0.47395117  0.76398000  0.90397950  1.0
  Ni  Ni69  1  0.80728450  0.09731333  0.90397950  1.0
  Ni  Ni70  1  0.80728450  0.43064667  0.90397950  1.0
  Ni  Ni71  1  0.80728450  0.76398000  0.90397950  1.0
  Ni  Ni72  1  0.20854023  0.20841433  0.96891090  1.0
  Ni  Ni73  1  0.20854023  0.54174767  0.96891090  1.0
  Ni  Ni74  1  0.20854023  0.87508100  0.96891090  1.0
  Ni  Ni75  1  0.54187357  0.20841433  0.96891090  1.0
  Ni  Ni76  1  0.54187357  0.54174767  0.96891090  1.0
  Ni  Ni77  1  0.54187357  0.87508100  0.96891090  1.0
  Ni  Ni78  1  0.87520690  0.20841433  0.96891090  1.0
  Ni  Ni79  1  0.87520690  0.54174767  0.96891090  1.0
  Ni  Ni80  1  0.87520690  0.87508100  0.96891090  1.0
  Ni  Ni81  1  0.10854023  0.20841433  0.86891090  1.0
  Ni  Ni82  1  0.10854023  0.54174767  0.86891090  1.0
  Ni  Ni83  1  0.10854023  0.87508100  0.86891090  1.0
  Ni  Ni84  1  0.44187357  0.20841433  0.86891090  1.0
  Ni  Ni85  1  0.44187357  0.54174767  0.86891090  1.0
  Ni  Ni86  1  0.44187357  0.87508100  0.86891090  1.0
  Ni  Ni87  1  0.77520690  0.20841433  0.86891090  1.0
  Ni  Ni88  1  0.77520690  0.54174767  0.86891090  1.0
  Ni  Ni89  1  0.77520690  0.87508100  0.86891090  1.0
  Ni  Ni90  1  0.17526930  0.31971167  0.93545530  1.0
  Ni  Ni91  1  0.17526930  0.65304500  0.93545530  1.0
  Ni  Ni92  1  0.17526930  0.98637833  0.93545530  1.0
  Ni  Ni93  1  0.50860263  0.31971167  0.93545530  1.0
  Ni  Ni94  1  0.50860263  0.65304500  0.93545530  1.0
  Ni  Ni95  1  0.50860263  0.98637833  0.93545530  1.0
  Ni  Ni96  1  0.84193597  0.31971167  0.93545530  1.0
  Ni  Ni97  1  0.84193597  0.65304500  0.93545530  1.0
  Ni  Ni98  1  0.84193597  0.98637833  0.93545530  1.0
  Ni  Ni99  1  0.07526930  0.31971167  0.83545530  1.0
  Ni  Ni100  1  0.07526930  0.65304500  0.83545530  1.0
  Ni  Ni101  1  0.07526930  0.98637833  0.83545530  1.0
  Ni  Ni102  1  0.40860263  0.31971167  0.83545530  1.0
  Ni  Ni103  1  0.40860263  0.65304500  0.83545530  1.0
  Ni  Ni104  1  0.40860263  0.98637833  0.83545530  1.0
  Ni  Ni105  1  0.74193597  0.31971167  0.83545530  1.0
  Ni  Ni106  1  0.74193597  0.65304500  0.83545530  1.0
  Ni  Ni107  1  0.74193597  0.98637833  0.83545530  1.0
  Ni  Ni108  1  0.05410387  0.04219900  0.82363120  1.0
  Ni  Ni109  1  0.05410387  0.37553233  0.82363120  1.0
  Ni  Ni110  1  0.05410387  0.70886567  0.82363120  1.0
  Ni  Ni111  1  0.38743720  0.04219900  0.82363120  1.0
  Ni  Ni112  1  0.38743720  0.37553233  0.82363120  1.0
  Ni  Ni113  1  0.38743720  0.70886567  0.82363120  1.0
  Ni  Ni114  1  0.72077053  0.04219900  0.82363120  1.0
  Ni  Ni115  1  0.72077053  0.37553233  0.82363120  1.0
  Ni  Ni116  1  0.72077053  0.70886567  0.82363120  1.0
  Ni  Ni117  1  0.15410387  0.04219900  0.92363120  1.0
  Ni  Ni118  1  0.15410387  0.37553233  0.92363120  1.0
  Ni  Ni119  1  0.15410387  0.70886567  0.92363120  1.0
  Ni  Ni120  1  0.48743720  0.04219900  0.92363120  1.0
  Ni  Ni121  1  0.48743720  0.37553233  0.92363120  1.0
  Ni  Ni122  1  0.48743720  0.70886567  0.92363120  1.0
  Ni  Ni123  1  0.82077053  0.04219900  0.92363120  1.0
  Ni  Ni124  1  0.82077053  0.37553233  0.92363120  1.0
  Ni  Ni125  1  0.82077053  0.70886567  0.92363120  1.0
  Ni  Ni126  1  0.22103427  0.15207567  0.99048660  1.0
  Ni  Ni127  1  0.22103427  0.48540900  0.99048660  1.0
  Ni  Ni128  1  0.22103427  0.81874233  0.99048660  1.0
  Ni  Ni129  1  0.55436760  0.15207567  0.99048660  1.0
  Ni  Ni130  1  0.55436760  0.48540900  0.99048660  1.0
  Ni  Ni131  1  0.55436760  0.81874233  0.99048660  1.0
  Ni  Ni132  1  0.88770093  0.15207567  0.99048660  1.0
  Ni  Ni133  1  0.88770093  0.48540900  0.99048660  1.0
  Ni  Ni134  1  0.88770093  0.81874233  0.99048660  1.0
  Ni  Ni135  1  0.12103427  0.15207567  0.89048660  1.0
  Ni  Ni136  1  0.12103427  0.48540900  0.89048660  1.0
  Ni  Ni137  1  0.12103427  0.81874233  0.89048660  1.0
  Ni  Ni138  1  0.45436760  0.15207567  0.89048660  1.0
  Ni  Ni139  1  0.45436760  0.48540900  0.89048660  1.0
  Ni  Ni140  1  0.45436760  0.81874233  0.89048660  1.0
  Ni  Ni141  1  0.78770093  0.15207567  0.89048660  1.0
  Ni  Ni142  1  0.78770093  0.48540900  0.89048660  1.0
  Ni  Ni143  1  0.78770093  0.81874233  0.89048660  1.0
  Ni  Ni144  1  0.18688030  0.26381267  0.95763530  1.0
  Ni  Ni145  1  0.18688030  0.59714600  0.95763530  1.0
  Ni  Ni146  1  0.18688030  0.93047933  0.95763530  1.0
  Ni  Ni147  1  0.52021363  0.26381267  0.95763530  1.0
  Ni  Ni148  1  0.52021363  0.59714600  0.95763530  1.0
  Ni  Ni149  1  0.52021363  0.93047933  0.95763530  1.0
  Ni  Ni150  1  0.85354697  0.26381267  0.95763530  1.0
  Ni  Ni151  1  0.85354697  0.59714600  0.95763530  1.0
  Ni  Ni152  1  0.85354697  0.93047933  0.95763530  1.0
  Ni  Ni153  1  0.08688030  0.26381267  0.85763530  1.0
  Ni  Ni154  1  0.08688030  0.59714600  0.85763530  1.0
  Ni  Ni155  1  0.08688030  0.93047933  0.85763530  1.0
  Ni  Ni156  1  0.42021363  0.26381267  0.85763530  1.0
  Ni  Ni157  1  0.42021363  0.59714600  0.85763530  1.0
  Ni  Ni158  1  0.42021363  0.93047933  0.85763530  1.0
  Ni  Ni159  1  0.75354697  0.26381267  0.85763530  1.0
  Ni  Ni160  1  0.75354697  0.59714600  0.85763530  1.0
  Ni  Ni161  1  0.75354697  0.93047933  0.85763530  1.0
  Ni  Ni162  1  0.28025450  0.01386367  0.88221650  1.0
  Ni  Ni163  1  0.28025450  0.34719700  0.88221650  1.0
  Ni  Ni164  1  0.28025450  0.68053033  0.88221650  1.0
  Ni  Ni165  1  0.61358783  0.01386367  0.88221650  1.0
  Ni  Ni166  1  0.61358783  0.34719700  0.88221650  1.0
  Ni  Ni167  1  0.61358783  0.68053033  0.88221650  1.0
  Ni  Ni168  1  0.94692117  0.01386367  0.88221650  1.0
  Ni  Ni169  1  0.94692117  0.34719700  0.88221650  1.0
  Ni  Ni170  1  0.94692117  0.68053033  0.88221650  1.0
  Ni  Ni171  1  0.04692117  0.01386367  0.98221650  1.0
  Ni  Ni172  1  0.04692117  0.34719700  0.98221650  1.0
  Ni  Ni173  1  0.04692117  0.68053033  0.98221650  1.0
  Ni  Ni174  1  0.38025450  0.01386367  0.98221650  1.0
  Ni  Ni175  1  0.38025450  0.34719700  0.98221650  1.0
  Ni  Ni176  1  0.38025450  0.68053033  0.98221650  1.0
  Ni  Ni177  1  0.71358783  0.01386367  0.98221650  1.0
  Ni  Ni178  1  0.71358783  0.34719700  0.98221650  1.0
  Ni  Ni179  1  0.71358783  0.68053033  0.98221650  1.0
  Ni  Ni180  1  0.24686677  0.12504767  0.84917410  1.0
  Ni  Ni181  1  0.24686677  0.45838100  0.84917410  1.0
  Ni  Ni182  1  0.24686677  0.79171433  0.84917410  1.0
  Ni  Ni183  1  0.58020010  0.12504767  0.84917410  1.0
  Ni  Ni184  1  0.58020010  0.45838100  0.84917410  1.0
  Ni  Ni185  1  0.58020010  0.79171433  0.84917410  1.0
  Ni  Ni186  1  0.91353343  0.12504767  0.84917410  1.0
  Ni  Ni187  1  0.91353343  0.45838100  0.84917410  1.0
  Ni  Ni188  1  0.91353343  0.79171433  0.84917410  1.0
  Ni  Ni189  1  0.01353343  0.12504767  0.94917410  1.0
  Ni  Ni190  1  0.01353343  0.45838100  0.94917410  1.0
  Ni  Ni191  1  0.01353343  0.79171433  0.94917410  1.0
  Ni  Ni192  1  0.34686677  0.12504767  0.94917410  1.0
  Ni  Ni193  1  0.34686677  0.45838100  0.94917410  1.0
  Ni  Ni194  1  0.34686677  0.79171433  0.94917410  1.0
  Ni  Ni195  1  0.68020010  0.12504767  0.94917410  1.0
  Ni  Ni196  1  0.68020010  0.45838100  0.94917410  1.0
  Ni  Ni197  1  0.68020010  0.79171433  0.94917410  1.0
  Ni  Ni198  1  0.21348083  0.23608033  0.81585250  1.0
  Ni  Ni199  1  0.21348083  0.56941367  0.81585250  1.0
  Ni  Ni200  1  0.21348083  0.90274700  0.81585250  1.0
  Ni  Ni201  1  0.54681417  0.23608033  0.81585250  1.0
  Ni  Ni202  1  0.54681417  0.56941367  0.81585250  1.0
  Ni  Ni203  1  0.54681417  0.90274700  0.81585250  1.0
  Ni  Ni204  1  0.88014750  0.23608033  0.81585250  1.0
  Ni  Ni205  1  0.88014750  0.56941367  0.81585250  1.0
  Ni  Ni206  1  0.88014750  0.90274700  0.81585250  1.0
  Ni  Ni207  1  0.31348083  0.23608033  0.91585250  1.0
  Ni  Ni208  1  0.31348083  0.56941367  0.91585250  1.0
  Ni  Ni209  1  0.31348083  0.90274700  0.91585250  1.0
  Ni  Ni210  1  0.64681417  0.23608033  0.91585250  1.0
  Ni  Ni211  1  0.64681417  0.56941367  0.91585250  1.0
  Ni  Ni212  1  0.64681417  0.90274700  0.91585250  1.0
  Ni  Ni213  1  0.98014750  0.23608033  0.91585250  1.0
  Ni  Ni214  1  0.98014750  0.56941367  0.91585250  1.0
  Ni  Ni215  1  0.98014750  0.90274700  0.91585250  1.0
  Ni  Ni216  1  0.20495487  0.04219900  0.97448220  1.0
  Ni  Ni217  1  0.20495487  0.37553233  0.97448220  1.0
  Ni  Ni218  1  0.20495487  0.70886567  0.97448220  1.0
  Ni  Ni219  1  0.53828820  0.04219900  0.97448220  1.0
  Ni  Ni220  1  0.53828820  0.37553233  0.97448220  1.0
  Ni  Ni221  1  0.53828820  0.70886567  0.97448220  1.0
  Ni  Ni222  1  0.87162153  0.04219900  0.97448220  1.0
  Ni  Ni223  1  0.87162153  0.37553233  0.97448220  1.0
  Ni  Ni224  1  0.87162153  0.70886567  0.97448220  1.0
  Ni  Ni225  1  0.10495487  0.04219900  0.87448220  1.0
  Ni  Ni226  1  0.10495487  0.37553233  0.87448220  1.0
  Ni  Ni227  1  0.10495487  0.70886567  0.87448220  1.0
  Ni  Ni228  1  0.43828820  0.04219900  0.87448220  1.0
  Ni  Ni229  1  0.43828820  0.37553233  0.87448220  1.0
  Ni  Ni230  1  0.43828820  0.70886567  0.87448220  1.0
  Ni  Ni231  1  0.77162153  0.04219900  0.87448220  1.0
  Ni  Ni232  1  0.77162153  0.37553233  0.87448220  1.0
  Ni  Ni233  1  0.77162153  0.70886567  0.87448220  1.0
  Ni  Ni234  1  0.17215847  0.15207567  0.94161080  1.0
  Ni  Ni235  1  0.17215847  0.48540900  0.94161080  1.0
  Ni  Ni236  1  0.17215847  0.81874233  0.94161080  1.0
  Ni  Ni237  1  0.50549180  0.15207567  0.94161080  1.0
  Ni  Ni238  1  0.50549180  0.48540900  0.94161080  1.0
  Ni  Ni239  1  0.50549180  0.81874233  0.94161080  1.0
  Ni  Ni240  1  0.83882513  0.15207567  0.94161080  1.0
  Ni  Ni241  1  0.83882513  0.48540900  0.94161080  1.0
  Ni  Ni242  1  0.83882513  0.81874233  0.94161080  1.0
  Ni  Ni243  1  0.07215847  0.15207567  0.84161080  1.0
  Ni  Ni244  1  0.07215847  0.48540900  0.84161080  1.0
  Ni  Ni245  1  0.07215847  0.81874233  0.84161080  1.0
  Ni  Ni246  1  0.40549180  0.15207567  0.84161080  1.0
  Ni  Ni247  1  0.40549180  0.48540900  0.84161080  1.0
  Ni  Ni248  1  0.40549180  0.81874233  0.84161080  1.0
  Ni  Ni249  1  0.73882513  0.15207567  0.84161080  1.0
  Ni  Ni250  1  0.73882513  0.48540900  0.84161080  1.0
  Ni  Ni251  1  0.73882513  0.81874233  0.84161080  1.0
  Ni  Ni252  1  0.13822810  0.26381267  0.90898310  1.0
  Ni  Ni253  1  0.13822810  0.59714600  0.90898310  1.0
  Ni  Ni254  1  0.13822810  0.93047933  0.90898310  1.0
  Ni  Ni255  1  0.47156143  0.26381267  0.90898310  1.0
  Ni  Ni256  1  0.47156143  0.59714600  0.90898310  1.0
  Ni  Ni257  1  0.47156143  0.93047933  0.90898310  1.0
  Ni  Ni258  1  0.80489477  0.26381267  0.90898310  1.0
  Ni  Ni259  1  0.80489477  0.59714600  0.90898310  1.0
  Ni  Ni260  1  0.80489477  0.93047933  0.90898310  1.0
  Ni  Ni261  1  0.03822810  0.26381267  0.80898310  1.0
  Ni  Ni262  1  0.03822810  0.59714600  0.80898310  1.0
  Ni  Ni263  1  0.03822810  0.93047933  0.80898310  1.0
  Ni  Ni264  1  0.37156143  0.26381267  0.80898310  1.0
  Ni  Ni265  1  0.37156143  0.59714600  0.80898310  1.0
  Ni  Ni266  1  0.37156143  0.93047933  0.80898310  1.0
  Ni  Ni267  1  0.70489477  0.26381267  0.80898310  1.0
  Ni  Ni268  1  0.70489477  0.59714600  0.80898310  1.0
  Ni  Ni269  1  0.70489477  0.93047933  0.80898310  1.0
  Ni  Ni270  1  0.32985770  0.01386367  0.93181970  1.0
  Ni  Ni271  1  0.32985770  0.34719700  0.93181970  1.0
  Ni  Ni272  1  0.32985770  0.68053033  0.93181970  1.0
  Ni  Ni273  1  0.66319103  0.01386367  0.93181970  1.0
  Ni  Ni274  1  0.66319103  0.34719700  0.93181970  1.0
  Ni  Ni275  1  0.66319103  0.68053033  0.93181970  1.0
  Ni  Ni276  1  0.99652437  0.01386367  0.93181970  1.0
  Ni  Ni277  1  0.99652437  0.34719700  0.93181970  1.0
  Ni  Ni278  1  0.99652437  0.68053033  0.93181970  1.0
  Ni  Ni279  1  0.22985770  0.01386367  0.83181970  1.0
  Ni  Ni280  1  0.22985770  0.34719700  0.83181970  1.0
  Ni  Ni281  1  0.22985770  0.68053033  0.83181970  1.0
  Ni  Ni282  1  0.56319103  0.01386367  0.83181970  1.0
  Ni  Ni283  1  0.56319103  0.34719700  0.83181970  1.0
  Ni  Ni284  1  0.56319103  0.68053033  0.83181970  1.0
  Ni  Ni285  1  0.89652437  0.01386367  0.83181970  1.0
  Ni  Ni286  1  0.89652437  0.34719700  0.83181970  1.0
  Ni  Ni287  1  0.89652437  0.68053033  0.83181970  1.0
  Ni  Ni288  1  0.29625877  0.12504767  0.89856610  1.0
  Ni  Ni289  1  0.29625877  0.45838100  0.89856610  1.0
  Ni  Ni290  1  0.29625877  0.79171433  0.89856610  1.0
  Ni  Ni291  1  0.62959210  0.12504767  0.89856610  1.0
  Ni  Ni292  1  0.62959210  0.45838100  0.89856610  1.0
  Ni  Ni293  1  0.62959210  0.79171433  0.89856610  1.0
  Ni  Ni294  1  0.96292543  0.12504767  0.89856610  1.0
  Ni  Ni295  1  0.96292543  0.45838100  0.89856610  1.0
  Ni  Ni296  1  0.96292543  0.79171433  0.89856610  1.0
  Ni  Ni297  1  0.06292543  0.12504767  0.99856610  1.0
  Ni  Ni298  1  0.06292543  0.45838100  0.99856610  1.0
  Ni  Ni299  1  0.06292543  0.79171433  0.99856610  1.0
  Ni  Ni300  1  0.39625877  0.12504767  0.99856610  1.0
  Ni  Ni301  1  0.39625877  0.45838100  0.99856610  1.0
  Ni  Ni302  1  0.39625877  0.79171433  0.99856610  1.0
  Ni  Ni303  1  0.72959210  0.12504767  0.99856610  1.0
  Ni  Ni304  1  0.72959210  0.45838100  0.99856610  1.0
  Ni  Ni305  1  0.72959210  0.79171433  0.99856610  1.0
  Ni  Ni306  1  0.26297363  0.23608033  0.86534530  1.0
  Ni  Ni307  1  0.26297363  0.56941367  0.86534530  1.0
  Ni  Ni308  1  0.26297363  0.90274700  0.86534530  1.0
  Ni  Ni309  1  0.59630697  0.23608033  0.86534530  1.0
  Ni  Ni310  1  0.59630697  0.56941367  0.86534530  1.0
  Ni  Ni311  1  0.59630697  0.90274700  0.86534530  1.0
  Ni  Ni312  1  0.92964030  0.23608033  0.86534530  1.0
  Ni  Ni313  1  0.92964030  0.56941367  0.86534530  1.0
  Ni  Ni314  1  0.92964030  0.90274700  0.86534530  1.0
  Ni  Ni315  1  0.02964030  0.23608033  0.96534530  1.0
  Ni  Ni316  1  0.02964030  0.56941367  0.96534530  1.0
  Ni  Ni317  1  0.02964030  0.90274700  0.96534530  1.0
  Ni  Ni318  1  0.36297363  0.23608033  0.96534530  1.0
  Ni  Ni319  1  0.36297363  0.56941367  0.96534530  1.0
  Ni  Ni320  1  0.36297363  0.90274700  0.96534530  1.0
  Ni  Ni321  1  0.69630697  0.23608033  0.96534530  1.0
  Ni  Ni322  1  0.69630697  0.56941367  0.96534530  1.0
  Ni  Ni323  1  0.69630697  0.90274700  0.96534530  1.0
  Ni  Ni324  1  0.31577310  0.06943867  0.91241610  1.0
  Ni  Ni325  1  0.31577310  0.40277200  0.91241610  1.0
  Ni  Ni326  1  0.31577310  0.73610533  0.91241610  1.0
  Ni  Ni327  1  0.64910643  0.06943867  0.91241610  1.0
  Ni  Ni328  1  0.64910643  0.40277200  0.91241610  1.0
  Ni  Ni329  1  0.64910643  0.73610533  0.91241610  1.0
  Ni  Ni330  1  0.98243977  0.06943867  0.91241610  1.0
  Ni  Ni331  1  0.98243977  0.40277200  0.91241610  1.0
  Ni  Ni332  1  0.98243977  0.73610533  0.91241610  1.0
  Ni  Ni333  1  0.21577310  0.06943867  0.81241610  1.0
  Ni  Ni334  1  0.21577310  0.40277200  0.81241610  1.0
  Ni  Ni335  1  0.21577310  0.73610533  0.81241610  1.0
  Ni  Ni336  1  0.54910643  0.06943867  0.81241610  1.0
  Ni  Ni337  1  0.54910643  0.40277200  0.81241610  1.0
  Ni  Ni338  1  0.54910643  0.73610533  0.81241610  1.0
  Ni  Ni339  1  0.88243977  0.06943867  0.81241610  1.0
  Ni  Ni340  1  0.88243977  0.40277200  0.81241610  1.0
  Ni  Ni341  1  0.88243977  0.73610533  0.81241610  1.0
  Ni  Ni342  1  0.28318303  0.18044800  0.87861070  1.0
  Ni  Ni343  1  0.28318303  0.51378133  0.87861070  1.0
  Ni  Ni344  1  0.28318303  0.84711467  0.87861070  1.0
  Ni  Ni345  1  0.61651637  0.18044800  0.87861070  1.0
  Ni  Ni346  1  0.61651637  0.51378133  0.87861070  1.0
  Ni  Ni347  1  0.61651637  0.84711467  0.87861070  1.0
  Ni  Ni348  1  0.94984970  0.18044800  0.87861070  1.0
  Ni  Ni349  1  0.94984970  0.51378133  0.87861070  1.0
  Ni  Ni350  1  0.94984970  0.84711467  0.87861070  1.0
  Ni  Ni351  1  0.04984970  0.18044800  0.97861070  1.0
  Ni  Ni352  1  0.04984970  0.51378133  0.97861070  1.0
  Ni  Ni353  1  0.04984970  0.84711467  0.97861070  1.0
  Ni  Ni354  1  0.38318303  0.18044800  0.97861070  1.0
  Ni  Ni355  1  0.38318303  0.51378133  0.97861070  1.0
  Ni  Ni356  1  0.38318303  0.84711467  0.97861070  1.0
  Ni  Ni357  1  0.71651637  0.18044800  0.97861070  1.0
  Ni  Ni358  1  0.71651637  0.51378133  0.97861070  1.0
  Ni  Ni359  1  0.71651637  0.84711467  0.97861070  1.0
  Ni  Ni360  1  0.24966723  0.29162400  0.84541790  1.0
  Ni  Ni361  1  0.24966723  0.62495733  0.84541790  1.0
  Ni  Ni362  1  0.24966723  0.95829067  0.84541790  1.0
  Ni  Ni363  1  0.58300057  0.29162400  0.84541790  1.0
  Ni  Ni364  1  0.58300057  0.62495733  0.84541790  1.0
  Ni  Ni365  1  0.58300057  0.95829067  0.84541790  1.0
  Ni  Ni366  1  0.91633390  0.29162400  0.84541790  1.0
  Ni  Ni367  1  0.91633390  0.62495733  0.84541790  1.0
  Ni  Ni368  1  0.91633390  0.95829067  0.84541790  1.0
  Ni  Ni369  1  0.01633390  0.29162400  0.94541790  1.0
  Ni  Ni370  1  0.01633390  0.62495733  0.94541790  1.0
  Ni  Ni371  1  0.01633390  0.95829067  0.94541790  1.0
  Ni  Ni372  1  0.34966723  0.29162400  0.94541790  1.0
  Ni  Ni373  1  0.34966723  0.62495733  0.94541790  1.0
  Ni  Ni374  1  0.34966723  0.95829067  0.94541790  1.0
  Ni  Ni375  1  0.68300057  0.29162400  0.94541790  1.0
  Ni  Ni376  1  0.68300057  0.62495733  0.94541790  1.0
  Ni  Ni377  1  0.68300057  0.95829067  0.94541790  1.0
  Ni  Ni378  1  0.19030483  0.09731333  0.95366650  1.0
  Ni  Ni379  1  0.19030483  0.43064667  0.95366650  1.0
  Ni  Ni380  1  0.19030483  0.76398000  0.95366650  1.0
  Ni  Ni381  1  0.52363817  0.09731333  0.95366650  1.0
  Ni  Ni382  1  0.52363817  0.43064667  0.95366650  1.0
  Ni  Ni383  1  0.52363817  0.76398000  0.95366650  1.0
  Ni  Ni384  1  0.85697150  0.09731333  0.95366650  1.0
  Ni  Ni385  1  0.85697150  0.43064667  0.95366650  1.0
  Ni  Ni386  1  0.85697150  0.76398000  0.95366650  1.0
  Ni  Ni387  1  0.09030483  0.09731333  0.85366650  1.0
  Ni  Ni388  1  0.09030483  0.43064667  0.85366650  1.0
  Ni  Ni389  1  0.09030483  0.76398000  0.85366650  1.0
  Ni  Ni390  1  0.42363817  0.09731333  0.85366650  1.0
  Ni  Ni391  1  0.42363817  0.43064667  0.85366650  1.0
  Ni  Ni392  1  0.42363817  0.76398000  0.85366650  1.0
  Ni  Ni393  1  0.75697150  0.09731333  0.85366650  1.0
  Ni  Ni394  1  0.75697150  0.43064667  0.85366650  1.0
  Ni  Ni395  1  0.75697150  0.76398000  0.85366650  1.0
  Ni  Ni396  1  0.15811463  0.20841433  0.91848530  1.0
  Ni  Ni397  1  0.15811463  0.54174767  0.91848530  1.0
  Ni  Ni398  1  0.15811463  0.87508100  0.91848530  1.0
  Ni  Ni399  1  0.49144797  0.20841433  0.91848530  1.0
  Ni  Ni400  1  0.49144797  0.54174767  0.91848530  1.0
  Ni  Ni401  1  0.49144797  0.87508100  0.91848530  1.0
  Ni  Ni402  1  0.82478130  0.20841433  0.91848530  1.0
  Ni  Ni403  1  0.82478130  0.54174767  0.91848530  1.0
  Ni  Ni404  1  0.82478130  0.87508100  0.91848530  1.0
  Ni  Ni405  1  0.05811463  0.20841433  0.81848530  1.0
  Ni  Ni406  1  0.05811463  0.54174767  0.81848530  1.0
  Ni  Ni407  1  0.05811463  0.87508100  0.81848530  1.0
  Ni  Ni408  1  0.39144797  0.20841433  0.81848530  1.0
  Ni  Ni409  1  0.39144797  0.54174767  0.81848530  1.0
  Ni  Ni410  1  0.39144797  0.87508100  0.81848530  1.0
  Ni  Ni411  1  0.72478130  0.20841433  0.81848530  1.0
  Ni  Ni412  1  0.72478130  0.54174767  0.81848530  1.0
  Ni  Ni413  1  0.72478130  0.87508100  0.81848530  1.0
  Ni  Ni414  1  0.12475490  0.31971167  0.88494090  1.0
  Ni  Ni415  1  0.12475490  0.65304500  0.88494090  1.0
  Ni  Ni416  1  0.12475490  0.98637833  0.88494090  1.0
  Ni  Ni417  1  0.45808823  0.31971167  0.88494090  1.0
  Ni  Ni418  1  0.45808823  0.65304500  0.88494090  1.0
  Ni  Ni419  1  0.45808823  0.98637833  0.88494090  1.0
  Ni  Ni420  1  0.79142157  0.31971167  0.88494090  1.0
  Ni  Ni421  1  0.79142157  0.65304500  0.88494090  1.0
  Ni  Ni422  1  0.79142157  0.98637833  0.88494090  1.0
  Ni  Ni423  1  0.22475490  0.31971167  0.98494090  1.0
  Ni  Ni424  1  0.22475490  0.65304500  0.98494090  1.0
  Ni  Ni425  1  0.22475490  0.98637833  0.98494090  1.0
  Ni  Ni426  1  0.55808823  0.31971167  0.98494090  1.0
  Ni  Ni427  1  0.55808823  0.65304500  0.98494090  1.0
  Ni  Ni428  1  0.55808823  0.98637833  0.98494090  1.0
  Ni  Ni429  1  0.89142157  0.31971167  0.98494090  1.0
  Ni  Ni430  1  0.89142157  0.65304500  0.98494090  1.0
  Ni  Ni431  1  0.89142157  0.98637833  0.98494090  1.0
  Ni  Ni432  1  0.27740820  0.20767667  0.92813020  1.0
  Ni  Ni433  1  0.27740820  0.54101000  0.92813020  1.0
  Ni  Ni434  1  0.27740820  0.87434333  0.92813020  1.0
  Ni  Ni435  1  0.61074153  0.20767667  0.92813020  1.0
  Ni  Ni436  1  0.61074153  0.54101000  0.92813020  1.0
  Ni  Ni437  1  0.61074153  0.87434333  0.92813020  1.0
  Ni  Ni438  1  0.94407487  0.20767667  0.92813020  1.0
  Ni  Ni439  1  0.94407487  0.54101000  0.92813020  1.0
  Ni  Ni440  1  0.94407487  0.87434333  0.92813020  1.0
  Ni  Ni441  1  0.17740820  0.20767667  0.82813020  1.0
  Ni  Ni442  1  0.17740820  0.54101000  0.82813020  1.0
  Ni  Ni443  1  0.17740820  0.87434333  0.82813020  1.0
  Ni  Ni444  1  0.51074153  0.20767667  0.82813020  1.0
  Ni  Ni445  1  0.51074153  0.54101000  0.82813020  1.0
  Ni  Ni446  1  0.51074153  0.87434333  0.82813020  1.0
  Ni  Ni447  1  0.84407487  0.20767667  0.82813020  1.0
  Ni  Ni448  1  0.84407487  0.54101000  0.82813020  1.0
  Ni  Ni449  1  0.84407487  0.87434333  0.82813020  1.0
  Ni  Ni450  1  0.24404993  0.31900200  0.89467360  1.0
  Ni  Ni451  1  0.24404993  0.65233533  0.89467360  1.0
  Ni  Ni452  1  0.24404993  0.98566867  0.89467360  1.0
  Ni  Ni453  1  0.57738327  0.31900200  0.89467360  1.0
  Ni  Ni454  1  0.57738327  0.65233533  0.89467360  1.0
  Ni  Ni455  1  0.57738327  0.98566867  0.89467360  1.0
  Ni  Ni456  1  0.91071660  0.31900200  0.89467360  1.0
  Ni  Ni457  1  0.91071660  0.65233533  0.89467360  1.0
  Ni  Ni458  1  0.91071660  0.98566867  0.89467360  1.0
  Ni  Ni459  1  0.01071660  0.31900200  0.99467360  1.0
  Ni  Ni460  1  0.01071660  0.65233533  0.99467360  1.0
  Ni  Ni461  1  0.01071660  0.98566867  0.99467360  1.0
  Ni  Ni462  1  0.34404993  0.31900200  0.99467360  1.0
  Ni  Ni463  1  0.34404993  0.65233533  0.99467360  1.0
  Ni  Ni464  1  0.34404993  0.98566867  0.99467360  1.0
  Ni  Ni465  1  0.67738327  0.31900200  0.99467360  1.0
  Ni  Ni466  1  0.67738327  0.65233533  0.99467360  1.0
  Ni  Ni467  1  0.67738327  0.98566867  0.99467360  1.0
  Ni  Ni468  1  0.31944500  0.04125267  0.86489300  1.0
  Ni  Ni469  1  0.31944500  0.37458600  0.86489300  1.0
  Ni  Ni470  1  0.31944500  0.70791933  0.86489300  1.0
  Ni  Ni471  1  0.65277833  0.04125267  0.86489300  1.0
  Ni  Ni472  1  0.65277833  0.37458600  0.86489300  1.0
  Ni  Ni473  1  0.65277833  0.70791933  0.86489300  1.0
  Ni  Ni474  1  0.98611167  0.04125267  0.86489300  1.0
  Ni  Ni475  1  0.98611167  0.37458600  0.86489300  1.0
  Ni  Ni476  1  0.98611167  0.70791933  0.86489300  1.0
  Ni  Ni477  1  0.08611167  0.04125267  0.96489300  1.0
  Ni  Ni478  1  0.08611167  0.37458600  0.96489300  1.0
  Ni  Ni479  1  0.08611167  0.70791933  0.96489300  1.0
  Ni  Ni480  1  0.41944500  0.04125267  0.96489300  1.0
  Ni  Ni481  1  0.41944500  0.37458600  0.96489300  1.0
  Ni  Ni482  1  0.41944500  0.70791933  0.96489300  1.0
  Ni  Ni483  1  0.75277833  0.04125267  0.96489300  1.0
  Ni  Ni484  1  0.75277833  0.37458600  0.96489300  1.0
  Ni  Ni485  1  0.75277833  0.70791933  0.96489300  1.0
  Ni  Ni486  1  0.28608267  0.15313067  0.83102800  1.0
  Ni  Ni487  1  0.28608267  0.48646400  0.83102800  1.0
  Ni  Ni488  1  0.28608267  0.81979733  0.83102800  1.0
  Ni  Ni489  1  0.61941600  0.15313067  0.83102800  1.0
  Ni  Ni490  1  0.61941600  0.48646400  0.83102800  1.0
  Ni  Ni491  1  0.61941600  0.81979733  0.83102800  1.0
  Ni  Ni492  1  0.95274933  0.15313067  0.83102800  1.0
  Ni  Ni493  1  0.95274933  0.48646400  0.83102800  1.0
  Ni  Ni494  1  0.95274933  0.81979733  0.83102800  1.0
  Ni  Ni495  1  0.05274933  0.15313067  0.93102800  1.0
  Ni  Ni496  1  0.05274933  0.48646400  0.93102800  1.0
  Ni  Ni497  1  0.05274933  0.81979733  0.93102800  1.0
  Ni  Ni498  1  0.38608267  0.15313067  0.93102800  1.0
  Ni  Ni499  1  0.38608267  0.48646400  0.93102800  1.0
  Ni  Ni500  1  0.38608267  0.81979733  0.93102800  1.0
  Ni  Ni501  1  0.71941600  0.15313067  0.93102800  1.0
  Ni  Ni502  1  0.71941600  0.48646400  0.93102800  1.0
  Ni  Ni503  1  0.71941600  0.81979733  0.93102800  1.0
  Ni  Ni504  1  0.11913910  0.26378300  0.99845410  1.0
  Ni  Ni505  1  0.11913910  0.59711633  0.99845410  1.0
  Ni  Ni506  1  0.11913910  0.93044967  0.99845410  1.0
  Ni  Ni507  1  0.45247243  0.26378300  0.99845410  1.0
  Ni  Ni508  1  0.45247243  0.59711633  0.99845410  1.0
  Ni  Ni509  1  0.45247243  0.93044967  0.99845410  1.0
  Ni  Ni510  1  0.78580577  0.26378300  0.99845410  1.0
  Ni  Ni511  1  0.78580577  0.59711633  0.99845410  1.0
  Ni  Ni512  1  0.78580577  0.93044967  0.99845410  1.0
  Ni  Ni513  1  0.01913910  0.26378300  0.89845410  1.0
  Ni  Ni514  1  0.01913910  0.59711633  0.89845410  1.0
  Ni  Ni515  1  0.01913910  0.93044967  0.89845410  1.0
  Ni  Ni516  1  0.35247243  0.26378300  0.89845410  1.0
  Ni  Ni517  1  0.35247243  0.59711633  0.89845410  1.0
  Ni  Ni518  1  0.35247243  0.93044967  0.89845410  1.0
  Ni  Ni519  1  0.68580577  0.26378300  0.89845410  1.0
  Ni  Ni520  1  0.68580577  0.59711633  0.89845410  1.0
  Ni  Ni521  1  0.68580577  0.93044967  0.89845410  1.0
  Ni  Ni522  1  0.26113303  0.01427967  0.97259070  1.0
  Ni  Ni523  1  0.26113303  0.34761300  0.97259070  1.0
  Ni  Ni524  1  0.26113303  0.68094633  0.97259070  1.0
  Ni  Ni525  1  0.59446637  0.01427967  0.97259070  1.0
  Ni  Ni526  1  0.59446637  0.34761300  0.97259070  1.0
  Ni  Ni527  1  0.59446637  0.68094633  0.97259070  1.0
  Ni  Ni528  1  0.92779970  0.01427967  0.97259070  1.0
  Ni  Ni529  1  0.92779970  0.34761300  0.97259070  1.0
  Ni  Ni530  1  0.92779970  0.68094633  0.97259070  1.0
  Ni  Ni531  1  0.16113303  0.01427967  0.87259070  1.0
  Ni  Ni532  1  0.16113303  0.34761300  0.87259070  1.0
  Ni  Ni533  1  0.16113303  0.68094633  0.87259070  1.0
  Ni  Ni534  1  0.49446637  0.01427967  0.87259070  1.0
  Ni  Ni535  1  0.49446637  0.34761300  0.87259070  1.0
  Ni  Ni536  1  0.49446637  0.68094633  0.87259070  1.0
  Ni  Ni537  1  0.82779970  0.01427967  0.87259070  1.0
  Ni  Ni538  1  0.82779970  0.34761300  0.87259070  1.0
  Ni  Ni539  1  0.82779970  0.68094633  0.87259070  1.0
  Ni  Ni540  1  0.22802180  0.12475533  0.93940080  1.0
  Ni  Ni541  1  0.22802180  0.45808867  0.93940080  1.0
  Ni  Ni542  1  0.22802180  0.79142200  0.93940080  1.0
  Ni  Ni543  1  0.56135513  0.12475533  0.93940080  1.0
  Ni  Ni544  1  0.56135513  0.45808867  0.93940080  1.0
  Ni  Ni545  1  0.56135513  0.79142200  0.93940080  1.0
  Ni  Ni546  1  0.89468847  0.12475533  0.93940080  1.0
  Ni  Ni547  1  0.89468847  0.45808867  0.93940080  1.0
  Ni  Ni548  1  0.89468847  0.79142200  0.93940080  1.0
  Ni  Ni549  1  0.12802180  0.12475533  0.83940080  1.0
  Ni  Ni550  1  0.12802180  0.45808867  0.83940080  1.0
  Ni  Ni551  1  0.12802180  0.79142200  0.83940080  1.0
  Ni  Ni552  1  0.46135513  0.12475533  0.83940080  1.0
  Ni  Ni553  1  0.46135513  0.45808867  0.83940080  1.0
  Ni  Ni554  1  0.46135513  0.79142200  0.83940080  1.0
  Ni  Ni555  1  0.79468847  0.12475533  0.83940080  1.0
  Ni  Ni556  1  0.79468847  0.45808867  0.83940080  1.0
  Ni  Ni557  1  0.79468847  0.79142200  0.83940080  1.0
  Ni  Ni558  1  0.19454710  0.23624567  0.90599510  1.0
  Ni  Ni559  1  0.19454710  0.56957900  0.90599510  1.0
  Ni  Ni560  1  0.19454710  0.90291233  0.90599510  1.0
  Ni  Ni561  1  0.52788043  0.23624567  0.90599510  1.0
  Ni  Ni562  1  0.52788043  0.56957900  0.90599510  1.0
  Ni  Ni563  1  0.52788043  0.90291233  0.90599510  1.0
  Ni  Ni564  1  0.86121377  0.23624567  0.90599510  1.0
  Ni  Ni565  1  0.86121377  0.56957900  0.90599510  1.0
  Ni  Ni566  1  0.86121377  0.90291233  0.90599510  1.0
  Ni  Ni567  1  0.09454710  0.23624567  0.80599510  1.0
  Ni  Ni568  1  0.09454710  0.56957900  0.80599510  1.0
  Ni  Ni569  1  0.09454710  0.90291233  0.80599510  1.0
  Ni  Ni570  1  0.42788043  0.23624567  0.80599510  1.0
  Ni  Ni571  1  0.42788043  0.56957900  0.80599510  1.0
  Ni  Ni572  1  0.42788043  0.90291233  0.80599510  1.0
  Ni  Ni573  1  0.76121377  0.23624567  0.80599510  1.0
  Ni  Ni574  1  0.76121377  0.56957900  0.80599510  1.0
  Ni  Ni575  1  0.76121377  0.90291233  0.80599510  1.0
  Ni  Ni576  1  0.06524930  0.06943867  0.66189230  1.0
  Ni  Ni577  1  0.06524930  0.40277200  0.66189230  1.0
  Ni  Ni578  1  0.06524930  0.73610533  0.66189230  1.0
  Ni  Ni579  1  0.39858263  0.06943867  0.66189230  1.0
  Ni  Ni580  1  0.39858263  0.40277200  0.66189230  1.0
  Ni  Ni581  1  0.39858263  0.73610533  0.66189230  1.0
  Ni  Ni582  1  0.73191597  0.06943867  0.66189230  1.0
  Ni  Ni583  1  0.73191597  0.40277200  0.66189230  1.0
  Ni  Ni584  1  0.73191597  0.73610533  0.66189230  1.0
  Ni  Ni585  1  0.16524930  0.06943867  0.76189230  1.0
  Ni  Ni586  1  0.16524930  0.40277200  0.76189230  1.0
  Ni  Ni587  1  0.16524930  0.73610533  0.76189230  1.0
  Ni  Ni588  1  0.49858263  0.06943867  0.76189230  1.0
  Ni  Ni589  1  0.49858263  0.40277200  0.76189230  1.0
  Ni  Ni590  1  0.49858263  0.73610533  0.76189230  1.0
  Ni  Ni591  1  0.83191597  0.06943867  0.76189230  1.0
  Ni  Ni592  1  0.83191597  0.40277200  0.76189230  1.0
  Ni  Ni593  1  0.83191597  0.73610533  0.76189230  1.0
  Ni  Ni594  1  0.03220603  0.18044800  0.62763370  1.0
  Ni  Ni595  1  0.03220603  0.51378133  0.62763370  1.0
  Ni  Ni596  1  0.03220603  0.84711467  0.62763370  1.0
  Ni  Ni597  1  0.36553937  0.18044800  0.62763370  1.0
  Ni  Ni598  1  0.36553937  0.51378133  0.62763370  1.0
  Ni  Ni599  1  0.36553937  0.84711467  0.62763370  1.0
  Ni  Ni600  1  0.69887270  0.18044800  0.62763370  1.0
  Ni  Ni601  1  0.69887270  0.51378133  0.62763370  1.0
  Ni  Ni602  1  0.69887270  0.84711467  0.62763370  1.0
  Ni  Ni603  1  0.13220603  0.18044800  0.72763370  1.0
  Ni  Ni604  1  0.13220603  0.51378133  0.72763370  1.0
  Ni  Ni605  1  0.13220603  0.84711467  0.72763370  1.0
  Ni  Ni606  1  0.46553937  0.18044800  0.72763370  1.0
  Ni  Ni607  1  0.46553937  0.51378133  0.72763370  1.0
  Ni  Ni608  1  0.46553937  0.84711467  0.72763370  1.0
  Ni  Ni609  1  0.79887270  0.18044800  0.72763370  1.0
  Ni  Ni610  1  0.79887270  0.51378133  0.72763370  1.0
  Ni  Ni611  1  0.79887270  0.84711467  0.72763370  1.0
  Ni  Ni612  1  0.19875783  0.29162400  0.79450850  1.0
  Ni  Ni613  1  0.19875783  0.62495733  0.79450850  1.0
  Ni  Ni614  1  0.19875783  0.95829067  0.79450850  1.0
  Ni  Ni615  1  0.53209117  0.29162400  0.79450850  1.0
  Ni  Ni616  1  0.53209117  0.62495733  0.79450850  1.0
  Ni  Ni617  1  0.53209117  0.95829067  0.79450850  1.0
  Ni  Ni618  1  0.86542450  0.29162400  0.79450850  1.0
  Ni  Ni619  1  0.86542450  0.62495733  0.79450850  1.0
  Ni  Ni620  1  0.86542450  0.95829067  0.79450850  1.0
  Ni  Ni621  1  0.09875783  0.29162400  0.69450850  1.0
  Ni  Ni622  1  0.09875783  0.62495733  0.69450850  1.0
  Ni  Ni623  1  0.09875783  0.95829067  0.69450850  1.0
  Ni  Ni624  1  0.43209117  0.29162400  0.69450850  1.0
  Ni  Ni625  1  0.43209117  0.62495733  0.69450850  1.0
  Ni  Ni626  1  0.43209117  0.95829067  0.69450850  1.0
  Ni  Ni627  1  0.76542450  0.29162400  0.69450850  1.0
  Ni  Ni628  1  0.76542450  0.62495733  0.69450850  1.0
  Ni  Ni629  1  0.76542450  0.95829067  0.69450850  1.0
  Ni  Ni630  1  0.17395117  0.09731333  0.60397950  1.0
  Ni  Ni631  1  0.17395117  0.43064667  0.60397950  1.0
  Ni  Ni632  1  0.17395117  0.76398000  0.60397950  1.0
  Ni  Ni633  1  0.50728450  0.09731333  0.60397950  1.0
  Ni  Ni634  1  0.50728450  0.43064667  0.60397950  1.0
  Ni  Ni635  1  0.50728450  0.76398000  0.60397950  1.0
  Ni  Ni636  1  0.84061783  0.09731333  0.60397950  1.0
  Ni  Ni637  1  0.84061783  0.43064667  0.60397950  1.0
  Ni  Ni638  1  0.84061783  0.76398000  0.60397950  1.0
  Ni  Ni639  1  0.27395117  0.09731333  0.70397950  1.0
  Ni  Ni640  1  0.27395117  0.43064667  0.70397950  1.0
  Ni  Ni641  1  0.27395117  0.76398000  0.70397950  1.0
  Ni  Ni642  1  0.60728450  0.09731333  0.70397950  1.0
  Ni  Ni643  1  0.60728450  0.43064667  0.70397950  1.0
  Ni  Ni644  1  0.60728450  0.76398000  0.70397950  1.0
  Ni  Ni645  1  0.94061783  0.09731333  0.70397950  1.0
  Ni  Ni646  1  0.94061783  0.43064667  0.70397950  1.0
  Ni  Ni647  1  0.94061783  0.76398000  0.70397950  1.0
  Ni  Ni648  1  0.00854023  0.20841433  0.76891090  1.0
  Ni  Ni649  1  0.00854023  0.54174767  0.76891090  1.0
  Ni  Ni650  1  0.00854023  0.87508100  0.76891090  1.0
  Ni  Ni651  1  0.34187357  0.20841433  0.76891090  1.0
  Ni  Ni652  1  0.34187357  0.54174767  0.76891090  1.0
  Ni  Ni653  1  0.34187357  0.87508100  0.76891090  1.0
  Ni  Ni654  1  0.67520690  0.20841433  0.76891090  1.0
  Ni  Ni655  1  0.67520690  0.54174767  0.76891090  1.0
  Ni  Ni656  1  0.67520690  0.87508100  0.76891090  1.0
  Ni  Ni657  1  0.24187357  0.20841433  0.66891090  1.0
  Ni  Ni658  1  0.24187357  0.54174767  0.66891090  1.0
  Ni  Ni659  1  0.24187357  0.87508100  0.66891090  1.0
  Ni  Ni660  1  0.57520690  0.20841433  0.66891090  1.0
  Ni  Ni661  1  0.57520690  0.54174767  0.66891090  1.0
  Ni  Ni662  1  0.57520690  0.87508100  0.66891090  1.0
  Ni  Ni663  1  0.90854023  0.20841433  0.66891090  1.0
  Ni  Ni664  1  0.90854023  0.54174767  0.66891090  1.0
  Ni  Ni665  1  0.90854023  0.87508100  0.66891090  1.0
  Ni  Ni666  1  0.30860263  0.31971167  0.73545530  1.0
  Ni  Ni667  1  0.30860263  0.65304500  0.73545530  1.0
  Ni  Ni668  1  0.30860263  0.98637833  0.73545530  1.0
  Ni  Ni669  1  0.64193597  0.31971167  0.73545530  1.0
  Ni  Ni670  1  0.64193597  0.65304500  0.73545530  1.0
  Ni  Ni671  1  0.64193597  0.98637833  0.73545530  1.0
  Ni  Ni672  1  0.97526930  0.31971167  0.73545530  1.0
  Ni  Ni673  1  0.97526930  0.65304500  0.73545530  1.0
  Ni  Ni674  1  0.97526930  0.98637833  0.73545530  1.0
  Ni  Ni675  1  0.20860263  0.31971167  0.63545530  1.0
  Ni  Ni676  1  0.20860263  0.65304500  0.63545530  1.0
  Ni  Ni677  1  0.20860263  0.98637833  0.63545530  1.0
  Ni  Ni678  1  0.54193597  0.31971167  0.63545530  1.0
  Ni  Ni679  1  0.54193597  0.65304500  0.63545530  1.0
  Ni  Ni680  1  0.54193597  0.98637833  0.63545530  1.0
  Ni  Ni681  1  0.87526930  0.31971167  0.63545530  1.0
  Ni  Ni682  1  0.87526930  0.65304500  0.63545530  1.0
  Ni  Ni683  1  0.87526930  0.98637833  0.63545530  1.0
  Ni  Ni684  1  0.18743720  0.04219900  0.62363120  1.0
  Ni  Ni685  1  0.18743720  0.37553233  0.62363120  1.0
  Ni  Ni686  1  0.18743720  0.70886567  0.62363120  1.0
  Ni  Ni687  1  0.52077053  0.04219900  0.62363120  1.0
  Ni  Ni688  1  0.52077053  0.37553233  0.62363120  1.0
  Ni  Ni689  1  0.52077053  0.70886567  0.62363120  1.0
  Ni  Ni690  1  0.85410387  0.04219900  0.62363120  1.0
  Ni  Ni691  1  0.85410387  0.37553233  0.62363120  1.0
  Ni  Ni692  1  0.85410387  0.70886567  0.62363120  1.0
  Ni  Ni693  1  0.28743720  0.04219900  0.72363120  1.0
  Ni  Ni694  1  0.28743720  0.37553233  0.72363120  1.0
  Ni  Ni695  1  0.28743720  0.70886567  0.72363120  1.0
  Ni  Ni696  1  0.62077053  0.04219900  0.72363120  1.0
  Ni  Ni697  1  0.62077053  0.37553233  0.72363120  1.0
  Ni  Ni698  1  0.62077053  0.70886567  0.72363120  1.0
  Ni  Ni699  1  0.95410387  0.04219900  0.72363120  1.0
  Ni  Ni700  1  0.95410387  0.37553233  0.72363120  1.0
  Ni  Ni701  1  0.95410387  0.70886567  0.72363120  1.0
  Ni  Ni702  1  0.02103427  0.15207567  0.79048660  1.0
  Ni  Ni703  1  0.02103427  0.48540900  0.79048660  1.0
  Ni  Ni704  1  0.02103427  0.81874233  0.79048660  1.0
  Ni  Ni705  1  0.35436760  0.15207567  0.79048660  1.0
  Ni  Ni706  1  0.35436760  0.48540900  0.79048660  1.0
  Ni  Ni707  1  0.35436760  0.81874233  0.79048660  1.0
  Ni  Ni708  1  0.68770093  0.15207567  0.79048660  1.0
  Ni  Ni709  1  0.68770093  0.48540900  0.79048660  1.0
  Ni  Ni710  1  0.68770093  0.81874233  0.79048660  1.0
  Ni  Ni711  1  0.25436760  0.15207567  0.69048660  1.0
  Ni  Ni712  1  0.25436760  0.48540900  0.69048660  1.0
  Ni  Ni713  1  0.25436760  0.81874233  0.69048660  1.0
  Ni  Ni714  1  0.58770093  0.15207567  0.69048660  1.0
  Ni  Ni715  1  0.58770093  0.48540900  0.69048660  1.0
  Ni  Ni716  1  0.58770093  0.81874233  0.69048660  1.0
  Ni  Ni717  1  0.92103427  0.15207567  0.69048660  1.0
  Ni  Ni718  1  0.92103427  0.48540900  0.69048660  1.0
  Ni  Ni719  1  0.92103427  0.81874233  0.69048660  1.0
  Ni  Ni720  1  0.32021363  0.26381267  0.75763530  1.0
  Ni  Ni721  1  0.32021363  0.59714600  0.75763530  1.0
  Ni  Ni722  1  0.32021363  0.93047933  0.75763530  1.0
  Ni  Ni723  1  0.65354697  0.26381267  0.75763530  1.0
  Ni  Ni724  1  0.65354697  0.59714600  0.75763530  1.0
  Ni  Ni725  1  0.65354697  0.93047933  0.75763530  1.0
  Ni  Ni726  1  0.98688030  0.26381267  0.75763530  1.0
  Ni  Ni727  1  0.98688030  0.59714600  0.75763530  1.0
  Ni  Ni728  1  0.98688030  0.93047933  0.75763530  1.0
  Ni  Ni729  1  0.22021363  0.26381267  0.65763530  1.0
  Ni  Ni730  1  0.22021363  0.59714600  0.65763530  1.0
  Ni  Ni731  1  0.22021363  0.93047933  0.65763530  1.0
  Ni  Ni732  1  0.55354697  0.26381267  0.65763530  1.0
  Ni  Ni733  1  0.55354697  0.59714600  0.65763530  1.0
  Ni  Ni734  1  0.55354697  0.93047933  0.65763530  1.0
  Ni  Ni735  1  0.88688030  0.26381267  0.65763530  1.0
  Ni  Ni736  1  0.88688030  0.59714600  0.65763530  1.0
  Ni  Ni737  1  0.88688030  0.93047933  0.65763530  1.0
  Ni  Ni738  1  0.08025450  0.01386367  0.68221650  1.0
  Ni  Ni739  1  0.08025450  0.34719700  0.68221650  1.0
  Ni  Ni740  1  0.08025450  0.68053033  0.68221650  1.0
  Ni  Ni741  1  0.41358783  0.01386367  0.68221650  1.0
  Ni  Ni742  1  0.41358783  0.34719700  0.68221650  1.0
  Ni  Ni743  1  0.41358783  0.68053033  0.68221650  1.0
  Ni  Ni744  1  0.74692117  0.01386367  0.68221650  1.0
  Ni  Ni745  1  0.74692117  0.34719700  0.68221650  1.0
  Ni  Ni746  1  0.74692117  0.68053033  0.68221650  1.0
  Ni  Ni747  1  0.18025450  0.01386367  0.78221650  1.0
  Ni  Ni748  1  0.18025450  0.34719700  0.78221650  1.0
  Ni  Ni749  1  0.18025450  0.68053033  0.78221650  1.0
  Ni  Ni750  1  0.51358783  0.01386367  0.78221650  1.0
  Ni  Ni751  1  0.51358783  0.34719700  0.78221650  1.0
  Ni  Ni752  1  0.51358783  0.68053033  0.78221650  1.0
  Ni  Ni753  1  0.84692117  0.01386367  0.78221650  1.0
  Ni  Ni754  1  0.84692117  0.34719700  0.78221650  1.0
  Ni  Ni755  1  0.84692117  0.68053033  0.78221650  1.0
  Ni  Ni756  1  0.04686677  0.12504767  0.64917410  1.0
  Ni  Ni757  1  0.04686677  0.45838100  0.64917410  1.0
  Ni  Ni758  1  0.04686677  0.79171433  0.64917410  1.0
  Ni  Ni759  1  0.38020010  0.12504767  0.64917410  1.0
  Ni  Ni760  1  0.38020010  0.45838100  0.64917410  1.0
  Ni  Ni761  1  0.38020010  0.79171433  0.64917410  1.0
  Ni  Ni762  1  0.71353343  0.12504767  0.64917410  1.0
  Ni  Ni763  1  0.71353343  0.45838100  0.64917410  1.0
  Ni  Ni764  1  0.71353343  0.79171433  0.64917410  1.0
  Ni  Ni765  1  0.14686677  0.12504767  0.74917410  1.0
  Ni  Ni766  1  0.14686677  0.45838100  0.74917410  1.0
  Ni  Ni767  1  0.14686677  0.79171433  0.74917410  1.0
  Ni  Ni768  1  0.48020010  0.12504767  0.74917410  1.0
  Ni  Ni769  1  0.48020010  0.45838100  0.74917410  1.0
  Ni  Ni770  1  0.48020010  0.79171433  0.74917410  1.0
  Ni  Ni771  1  0.81353343  0.12504767  0.74917410  1.0
  Ni  Ni772  1  0.81353343  0.45838100  0.74917410  1.0
  Ni  Ni773  1  0.81353343  0.79171433  0.74917410  1.0
  Ni  Ni774  1  0.01348083  0.23608033  0.61585250  1.0
  Ni  Ni775  1  0.01348083  0.56941367  0.61585250  1.0
  Ni  Ni776  1  0.01348083  0.90274700  0.61585250  1.0
  Ni  Ni777  1  0.34681417  0.23608033  0.61585250  1.0
  Ni  Ni778  1  0.34681417  0.56941367  0.61585250  1.0
  Ni  Ni779  1  0.34681417  0.90274700  0.61585250  1.0
  Ni  Ni780  1  0.68014750  0.23608033  0.61585250  1.0
  Ni  Ni781  1  0.68014750  0.56941367  0.61585250  1.0
  Ni  Ni782  1  0.68014750  0.90274700  0.61585250  1.0
  Ni  Ni783  1  0.11348083  0.23608033  0.71585250  1.0
  Ni  Ni784  1  0.11348083  0.56941367  0.71585250  1.0
  Ni  Ni785  1  0.11348083  0.90274700  0.71585250  1.0
  Ni  Ni786  1  0.44681417  0.23608033  0.71585250  1.0
  Ni  Ni787  1  0.44681417  0.56941367  0.71585250  1.0
  Ni  Ni788  1  0.44681417  0.90274700  0.71585250  1.0
  Ni  Ni789  1  0.78014750  0.23608033  0.71585250  1.0
  Ni  Ni790  1  0.78014750  0.56941367  0.71585250  1.0
  Ni  Ni791  1  0.78014750  0.90274700  0.71585250  1.0
  Ni  Ni792  1  0.00495487  0.04219900  0.77448220  1.0
  Ni  Ni793  1  0.00495487  0.37553233  0.77448220  1.0
  Ni  Ni794  1  0.00495487  0.70886567  0.77448220  1.0
  Ni  Ni795  1  0.33828820  0.04219900  0.77448220  1.0
  Ni  Ni796  1  0.33828820  0.37553233  0.77448220  1.0
  Ni  Ni797  1  0.33828820  0.70886567  0.77448220  1.0
  Ni  Ni798  1  0.67162153  0.04219900  0.77448220  1.0
  Ni  Ni799  1  0.67162153  0.37553233  0.77448220  1.0
  Ni  Ni800  1  0.67162153  0.70886567  0.77448220  1.0
  Ni  Ni801  1  0.23828820  0.04219900  0.67448220  1.0
  Ni  Ni802  1  0.23828820  0.37553233  0.67448220  1.0
  Ni  Ni803  1  0.23828820  0.70886567  0.67448220  1.0
  Ni  Ni804  1  0.57162153  0.04219900  0.67448220  1.0
  Ni  Ni805  1  0.57162153  0.37553233  0.67448220  1.0
  Ni  Ni806  1  0.57162153  0.70886567  0.67448220  1.0
  Ni  Ni807  1  0.90495487  0.04219900  0.67448220  1.0
  Ni  Ni808  1  0.90495487  0.37553233  0.67448220  1.0
  Ni  Ni809  1  0.90495487  0.70886567  0.67448220  1.0
  Ni  Ni810  1  0.30549180  0.15207567  0.74161080  1.0
  Ni  Ni811  1  0.30549180  0.48540900  0.74161080  1.0
  Ni  Ni812  1  0.30549180  0.81874233  0.74161080  1.0
  Ni  Ni813  1  0.63882513  0.15207567  0.74161080  1.0
  Ni  Ni814  1  0.63882513  0.48540900  0.74161080  1.0
  Ni  Ni815  1  0.63882513  0.81874233  0.74161080  1.0
  Ni  Ni816  1  0.97215847  0.15207567  0.74161080  1.0
  Ni  Ni817  1  0.97215847  0.48540900  0.74161080  1.0
  Ni  Ni818  1  0.97215847  0.81874233  0.74161080  1.0
  Ni  Ni819  1  0.20549180  0.15207567  0.64161080  1.0
  Ni  Ni820  1  0.20549180  0.48540900  0.64161080  1.0
  Ni  Ni821  1  0.20549180  0.81874233  0.64161080  1.0
  Ni  Ni822  1  0.53882513  0.15207567  0.64161080  1.0
  Ni  Ni823  1  0.53882513  0.48540900  0.64161080  1.0
  Ni  Ni824  1  0.53882513  0.81874233  0.64161080  1.0
  Ni  Ni825  1  0.87215847  0.15207567  0.64161080  1.0
  Ni  Ni826  1  0.87215847  0.48540900  0.64161080  1.0
  Ni  Ni827  1  0.87215847  0.81874233  0.64161080  1.0
  Ni  Ni828  1  0.27156143  0.26381267  0.70898310  1.0
  Ni  Ni829  1  0.27156143  0.59714600  0.70898310  1.0
  Ni  Ni830  1  0.27156143  0.93047933  0.70898310  1.0
  Ni  Ni831  1  0.60489477  0.26381267  0.70898310  1.0
  Ni  Ni832  1  0.60489477  0.59714600  0.70898310  1.0
  Ni  Ni833  1  0.60489477  0.93047933  0.70898310  1.0
  Ni  Ni834  1  0.93822810  0.26381267  0.70898310  1.0
  Ni  Ni835  1  0.93822810  0.59714600  0.70898310  1.0
  Ni  Ni836  1  0.93822810  0.93047933  0.70898310  1.0
  Ni  Ni837  1  0.17156143  0.26381267  0.60898310  1.0
  Ni  Ni838  1  0.17156143  0.59714600  0.60898310  1.0
  Ni  Ni839  1  0.17156143  0.93047933  0.60898310  1.0
  Ni  Ni840  1  0.50489477  0.26381267  0.60898310  1.0
  Ni  Ni841  1  0.50489477  0.59714600  0.60898310  1.0
  Ni  Ni842  1  0.50489477  0.93047933  0.60898310  1.0
  Ni  Ni843  1  0.83822810  0.26381267  0.60898310  1.0
  Ni  Ni844  1  0.83822810  0.59714600  0.60898310  1.0
  Ni  Ni845  1  0.83822810  0.93047933  0.60898310  1.0
  Ni  Ni846  1  0.12985770  0.01386367  0.73181970  1.0
  Ni  Ni847  1  0.12985770  0.34719700  0.73181970  1.0
  Ni  Ni848  1  0.12985770  0.68053033  0.73181970  1.0
  Ni  Ni849  1  0.46319103  0.01386367  0.73181970  1.0
  Ni  Ni850  1  0.46319103  0.34719700  0.73181970  1.0
  Ni  Ni851  1  0.46319103  0.68053033  0.73181970  1.0
  Ni  Ni852  1  0.79652437  0.01386367  0.73181970  1.0
  Ni  Ni853  1  0.79652437  0.34719700  0.73181970  1.0
  Ni  Ni854  1  0.79652437  0.68053033  0.73181970  1.0
  Ni  Ni855  1  0.02985770  0.01386367  0.63181970  1.0
  Ni  Ni856  1  0.02985770  0.34719700  0.63181970  1.0
  Ni  Ni857  1  0.02985770  0.68053033  0.63181970  1.0
  Ni  Ni858  1  0.36319103  0.01386367  0.63181970  1.0
  Ni  Ni859  1  0.36319103  0.34719700  0.63181970  1.0
  Ni  Ni860  1  0.36319103  0.68053033  0.63181970  1.0
  Ni  Ni861  1  0.69652437  0.01386367  0.63181970  1.0
  Ni  Ni862  1  0.69652437  0.34719700  0.63181970  1.0
  Ni  Ni863  1  0.69652437  0.68053033  0.63181970  1.0
  Ni  Ni864  1  0.09625877  0.12504767  0.69856610  1.0
  Ni  Ni865  1  0.09625877  0.45838100  0.69856610  1.0
  Ni  Ni866  1  0.09625877  0.79171433  0.69856610  1.0
  Ni  Ni867  1  0.42959210  0.12504767  0.69856610  1.0
  Ni  Ni868  1  0.42959210  0.45838100  0.69856610  1.0
  Ni  Ni869  1  0.42959210  0.79171433  0.69856610  1.0
  Ni  Ni870  1  0.76292543  0.12504767  0.69856610  1.0
  Ni  Ni871  1  0.76292543  0.45838100  0.69856610  1.0
  Ni  Ni872  1  0.76292543  0.79171433  0.69856610  1.0
  Ni  Ni873  1  0.19625877  0.12504767  0.79856610  1.0
  Ni  Ni874  1  0.19625877  0.45838100  0.79856610  1.0
  Ni  Ni875  1  0.19625877  0.79171433  0.79856610  1.0
  Ni  Ni876  1  0.52959210  0.12504767  0.79856610  1.0
  Ni  Ni877  1  0.52959210  0.45838100  0.79856610  1.0
  Ni  Ni878  1  0.52959210  0.79171433  0.79856610  1.0
  Ni  Ni879  1  0.86292543  0.12504767  0.79856610  1.0
  Ni  Ni880  1  0.86292543  0.45838100  0.79856610  1.0
  Ni  Ni881  1  0.86292543  0.79171433  0.79856610  1.0
  Ni  Ni882  1  0.06297363  0.23608033  0.66534530  1.0
  Ni  Ni883  1  0.06297363  0.56941367  0.66534530  1.0
  Ni  Ni884  1  0.06297363  0.90274700  0.66534530  1.0
  Ni  Ni885  1  0.39630697  0.23608033  0.66534530  1.0
  Ni  Ni886  1  0.39630697  0.56941367  0.66534530  1.0
  Ni  Ni887  1  0.39630697  0.90274700  0.66534530  1.0
  Ni  Ni888  1  0.72964030  0.23608033  0.66534530  1.0
  Ni  Ni889  1  0.72964030  0.56941367  0.66534530  1.0
  Ni  Ni890  1  0.72964030  0.90274700  0.66534530  1.0
  Ni  Ni891  1  0.16297363  0.23608033  0.76534530  1.0
  Ni  Ni892  1  0.16297363  0.56941367  0.76534530  1.0
  Ni  Ni893  1  0.16297363  0.90274700  0.76534530  1.0
  Ni  Ni894  1  0.49630697  0.23608033  0.76534530  1.0
  Ni  Ni895  1  0.49630697  0.56941367  0.76534530  1.0
  Ni  Ni896  1  0.49630697  0.90274700  0.76534530  1.0
  Ni  Ni897  1  0.82964030  0.23608033  0.76534530  1.0
  Ni  Ni898  1  0.82964030  0.56941367  0.76534530  1.0
  Ni  Ni899  1  0.82964030  0.90274700  0.76534530  1.0
  Ni  Ni900  1  0.11577310  0.06943867  0.71241610  1.0
  Ni  Ni901  1  0.11577310  0.40277200  0.71241610  1.0
  Ni  Ni902  1  0.11577310  0.73610533  0.71241610  1.0
  Ni  Ni903  1  0.44910643  0.06943867  0.71241610  1.0
  Ni  Ni904  1  0.44910643  0.40277200  0.71241610  1.0
  Ni  Ni905  1  0.44910643  0.73610533  0.71241610  1.0
  Ni  Ni906  1  0.78243977  0.06943867  0.71241610  1.0
  Ni  Ni907  1  0.78243977  0.40277200  0.71241610  1.0
  Ni  Ni908  1  0.78243977  0.73610533  0.71241610  1.0
  Ni  Ni909  1  0.01577310  0.06943867  0.61241610  1.0
  Ni  Ni910  1  0.01577310  0.40277200  0.61241610  1.0
  Ni  Ni911  1  0.01577310  0.73610533  0.61241610  1.0
  Ni  Ni912  1  0.34910643  0.06943867  0.61241610  1.0
  Ni  Ni913  1  0.34910643  0.40277200  0.61241610  1.0
  Ni  Ni914  1  0.34910643  0.73610533  0.61241610  1.0
  Ni  Ni915  1  0.68243977  0.06943867  0.61241610  1.0
  Ni  Ni916  1  0.68243977  0.40277200  0.61241610  1.0
  Ni  Ni917  1  0.68243977  0.73610533  0.61241610  1.0
  Ni  Ni918  1  0.08318303  0.18044800  0.67861070  1.0
  Ni  Ni919  1  0.08318303  0.51378133  0.67861070  1.0
  Ni  Ni920  1  0.08318303  0.84711467  0.67861070  1.0
  Ni  Ni921  1  0.41651637  0.18044800  0.67861070  1.0
  Ni  Ni922  1  0.41651637  0.51378133  0.67861070  1.0
  Ni  Ni923  1  0.41651637  0.84711467  0.67861070  1.0
  Ni  Ni924  1  0.74984970  0.18044800  0.67861070  1.0
  Ni  Ni925  1  0.74984970  0.51378133  0.67861070  1.0
  Ni  Ni926  1  0.74984970  0.84711467  0.67861070  1.0
  Ni  Ni927  1  0.18318303  0.18044800  0.77861070  1.0
  Ni  Ni928  1  0.18318303  0.51378133  0.77861070  1.0
  Ni  Ni929  1  0.18318303  0.84711467  0.77861070  1.0
  Ni  Ni930  1  0.51651637  0.18044800  0.77861070  1.0
  Ni  Ni931  1  0.51651637  0.51378133  0.77861070  1.0
  Ni  Ni932  1  0.51651637  0.84711467  0.77861070  1.0
  Ni  Ni933  1  0.84984970  0.18044800  0.77861070  1.0
  Ni  Ni934  1  0.84984970  0.51378133  0.77861070  1.0
  Ni  Ni935  1  0.84984970  0.84711467  0.77861070  1.0
  Ni  Ni936  1  0.04966723  0.29162400  0.64541790  1.0
  Ni  Ni937  1  0.04966723  0.62495733  0.64541790  1.0
  Ni  Ni938  1  0.04966723  0.95829067  0.64541790  1.0
  Ni  Ni939  1  0.38300057  0.29162400  0.64541790  1.0
  Ni  Ni940  1  0.38300057  0.62495733  0.64541790  1.0
  Ni  Ni941  1  0.38300057  0.95829067  0.64541790  1.0
  Ni  Ni942  1  0.71633390  0.29162400  0.64541790  1.0
  Ni  Ni943  1  0.71633390  0.62495733  0.64541790  1.0
  Ni  Ni944  1  0.71633390  0.95829067  0.64541790  1.0
  Ni  Ni945  1  0.14966723  0.29162400  0.74541790  1.0
  Ni  Ni946  1  0.14966723  0.62495733  0.74541790  1.0
  Ni  Ni947  1  0.14966723  0.95829067  0.74541790  1.0
  Ni  Ni948  1  0.48300057  0.29162400  0.74541790  1.0
  Ni  Ni949  1  0.48300057  0.62495733  0.74541790  1.0
  Ni  Ni950  1  0.48300057  0.95829067  0.74541790  1.0
  Ni  Ni951  1  0.81633390  0.29162400  0.74541790  1.0
  Ni  Ni952  1  0.81633390  0.62495733  0.74541790  1.0
  Ni  Ni953  1  0.81633390  0.95829067  0.74541790  1.0
  Ni  Ni954  1  0.32363817  0.09731333  0.75366650  1.0
  Ni  Ni955  1  0.32363817  0.43064667  0.75366650  1.0
  Ni  Ni956  1  0.32363817  0.76398000  0.75366650  1.0
  Ni  Ni957  1  0.65697150  0.09731333  0.75366650  1.0
  Ni  Ni958  1  0.65697150  0.43064667  0.75366650  1.0
  Ni  Ni959  1  0.65697150  0.76398000  0.75366650  1.0
  Ni  Ni960  1  0.99030483  0.09731333  0.75366650  1.0
  Ni  Ni961  1  0.99030483  0.43064667  0.75366650  1.0
  Ni  Ni962  1  0.99030483  0.76398000  0.75366650  1.0
  Ni  Ni963  1  0.22363817  0.09731333  0.65366650  1.0
  Ni  Ni964  1  0.22363817  0.43064667  0.65366650  1.0
  Ni  Ni965  1  0.22363817  0.76398000  0.65366650  1.0
  Ni  Ni966  1  0.55697150  0.09731333  0.65366650  1.0
  Ni  Ni967  1  0.55697150  0.43064667  0.65366650  1.0
  Ni  Ni968  1  0.55697150  0.76398000  0.65366650  1.0
  Ni  Ni969  1  0.89030483  0.09731333  0.65366650  1.0
  Ni  Ni970  1  0.89030483  0.43064667  0.65366650  1.0
  Ni  Ni971  1  0.89030483  0.76398000  0.65366650  1.0
  Ni  Ni972  1  0.29144797  0.20841433  0.71848530  1.0
  Ni  Ni973  1  0.29144797  0.54174767  0.71848530  1.0
  Ni  Ni974  1  0.29144797  0.87508100  0.71848530  1.0
  Ni  Ni975  1  0.62478130  0.20841433  0.71848530  1.0
  Ni  Ni976  1  0.62478130  0.54174767  0.71848530  1.0
  Ni  Ni977  1  0.62478130  0.87508100  0.71848530  1.0
  Ni  Ni978  1  0.95811463  0.20841433  0.71848530  1.0
  Ni  Ni979  1  0.95811463  0.54174767  0.71848530  1.0
  Ni  Ni980  1  0.95811463  0.87508100  0.71848530  1.0
  Ni  Ni981  1  0.19144797  0.20841433  0.61848530  1.0
  Ni  Ni982  1  0.19144797  0.54174767  0.61848530  1.0
  Ni  Ni983  1  0.19144797  0.87508100  0.61848530  1.0
  Ni  Ni984  1  0.52478130  0.20841433  0.61848530  1.0
  Ni  Ni985  1  0.52478130  0.54174767  0.61848530  1.0
  Ni  Ni986  1  0.52478130  0.87508100  0.61848530  1.0
  Ni  Ni987  1  0.85811463  0.20841433  0.61848530  1.0
  Ni  Ni988  1  0.85811463  0.54174767  0.61848530  1.0
  Ni  Ni989  1  0.85811463  0.87508100  0.61848530  1.0
  Ni  Ni990  1  0.25808823  0.31971167  0.68494090  1.0
  Ni  Ni991  1  0.25808823  0.65304500  0.68494090  1.0
  Ni  Ni992  1  0.25808823  0.98637833  0.68494090  1.0
  Ni  Ni993  1  0.59142157  0.31971167  0.68494090  1.0
  Ni  Ni994  1  0.59142157  0.65304500  0.68494090  1.0
  Ni  Ni995  1  0.59142157  0.98637833  0.68494090  1.0
  Ni  Ni996  1  0.92475490  0.31971167  0.68494090  1.0
  Ni  Ni997  1  0.92475490  0.65304500  0.68494090  1.0
  Ni  Ni998  1  0.92475490  0.98637833  0.68494090  1.0
  Ni  Ni999  1  0.02475490  0.31971167  0.78494090  1.0
  Ni  Ni1000  1  0.02475490  0.65304500  0.78494090  1.0
  Ni  Ni1001  1  0.02475490  0.98637833  0.78494090  1.0
  Ni  Ni1002  1  0.35808823  0.31971167  0.78494090  1.0
  Ni  Ni1003  1  0.35808823  0.65304500  0.78494090  1.0
  Ni  Ni1004  1  0.35808823  0.98637833  0.78494090  1.0
  Ni  Ni1005  1  0.69142157  0.31971167  0.78494090  1.0
  Ni  Ni1006  1  0.69142157  0.65304500  0.78494090  1.0
  Ni  Ni1007  1  0.69142157  0.98637833  0.78494090  1.0
  Ni  Ni1008  1  0.07740820  0.20767667  0.72813020  1.0
  Ni  Ni1009  1  0.07740820  0.54101000  0.72813020  1.0
  Ni  Ni1010  1  0.07740820  0.87434333  0.72813020  1.0
  Ni  Ni1011  1  0.41074153  0.20767667  0.72813020  1.0
  Ni  Ni1012  1  0.41074153  0.54101000  0.72813020  1.0
  Ni  Ni1013  1  0.41074153  0.87434333  0.72813020  1.0
  Ni  Ni1014  1  0.74407487  0.20767667  0.72813020  1.0
  Ni  Ni1015  1  0.74407487  0.54101000  0.72813020  1.0
  Ni  Ni1016  1  0.74407487  0.87434333  0.72813020  1.0
  Ni  Ni1017  1  0.31074153  0.20767667  0.62813020  1.0
  Ni  Ni1018  1  0.31074153  0.54101000  0.62813020  1.0
  Ni  Ni1019  1  0.31074153  0.87434333  0.62813020  1.0
  Ni  Ni1020  1  0.64407487  0.20767667  0.62813020  1.0
  Ni  Ni1021  1  0.64407487  0.54101000  0.62813020  1.0
  Ni  Ni1022  1  0.64407487  0.87434333  0.62813020  1.0
  Ni  Ni1023  1  0.97740820  0.20767667  0.62813020  1.0
  Ni  Ni1024  1  0.97740820  0.54101000  0.62813020  1.0
  Ni  Ni1025  1  0.97740820  0.87434333  0.62813020  1.0
  Ni  Ni1026  1  0.04404993  0.31900200  0.69467360  1.0
  Ni  Ni1027  1  0.04404993  0.65233533  0.69467360  1.0
  Ni  Ni1028  1  0.04404993  0.98566867  0.69467360  1.0
  Ni  Ni1029  1  0.37738327  0.31900200  0.69467360  1.0
  Ni  Ni1030  1  0.37738327  0.65233533  0.69467360  1.0
  Ni  Ni1031  1  0.37738327  0.98566867  0.69467360  1.0
  Ni  Ni1032  1  0.71071660  0.31900200  0.69467360  1.0
  Ni  Ni1033  1  0.71071660  0.65233533  0.69467360  1.0
  Ni  Ni1034  1  0.71071660  0.98566867  0.69467360  1.0
  Ni  Ni1035  1  0.14404993  0.31900200  0.79467360  1.0
  Ni  Ni1036  1  0.14404993  0.65233533  0.79467360  1.0
  Ni  Ni1037  1  0.14404993  0.98566867  0.79467360  1.0
  Ni  Ni1038  1  0.47738327  0.31900200  0.79467360  1.0
  Ni  Ni1039  1  0.47738327  0.65233533  0.79467360  1.0
  Ni  Ni1040  1  0.47738327  0.98566867  0.79467360  1.0
  Ni  Ni1041  1  0.81071660  0.31900200  0.79467360  1.0
  Ni  Ni1042  1  0.81071660  0.65233533  0.79467360  1.0
  Ni  Ni1043  1  0.81071660  0.98566867  0.79467360  1.0
  Ni  Ni1044  1  0.11944500  0.04125267  0.66489300  1.0
  Ni  Ni1045  1  0.11944500  0.37458600  0.66489300  1.0
  Ni  Ni1046  1  0.11944500  0.70791933  0.66489300  1.0
  Ni  Ni1047  1  0.45277833  0.04125267  0.66489300  1.0
  Ni  Ni1048  1  0.45277833  0.37458600  0.66489300  1.0
  Ni  Ni1049  1  0.45277833  0.70791933  0.66489300  1.0
  Ni  Ni1050  1  0.78611167  0.04125267  0.66489300  1.0
  Ni  Ni1051  1  0.78611167  0.37458600  0.66489300  1.0
  Ni  Ni1052  1  0.78611167  0.70791933  0.66489300  1.0
  Ni  Ni1053  1  0.21944500  0.04125267  0.76489300  1.0
  Ni  Ni1054  1  0.21944500  0.37458600  0.76489300  1.0
  Ni  Ni1055  1  0.21944500  0.70791933  0.76489300  1.0
  Ni  Ni1056  1  0.55277833  0.04125267  0.76489300  1.0
  Ni  Ni1057  1  0.55277833  0.37458600  0.76489300  1.0
  Ni  Ni1058  1  0.55277833  0.70791933  0.76489300  1.0
  Ni  Ni1059  1  0.88611167  0.04125267  0.76489300  1.0
  Ni  Ni1060  1  0.88611167  0.37458600  0.76489300  1.0
  Ni  Ni1061  1  0.88611167  0.70791933  0.76489300  1.0
  Ni  Ni1062  1  0.08608267  0.15313067  0.63102800  1.0
  Ni  Ni1063  1  0.08608267  0.48646400  0.63102800  1.0
  Ni  Ni1064  1  0.08608267  0.81979733  0.63102800  1.0
  Ni  Ni1065  1  0.41941600  0.15313067  0.63102800  1.0
  Ni  Ni1066  1  0.41941600  0.48646400  0.63102800  1.0
  Ni  Ni1067  1  0.41941600  0.81979733  0.63102800  1.0
  Ni  Ni1068  1  0.75274933  0.15313067  0.63102800  1.0
  Ni  Ni1069  1  0.75274933  0.48646400  0.63102800  1.0
  Ni  Ni1070  1  0.75274933  0.81979733  0.63102800  1.0
  Ni  Ni1071  1  0.18608267  0.15313067  0.73102800  1.0
  Ni  Ni1072  1  0.18608267  0.48646400  0.73102800  1.0
  Ni  Ni1073  1  0.18608267  0.81979733  0.73102800  1.0
  Ni  Ni1074  1  0.51941600  0.15313067  0.73102800  1.0
  Ni  Ni1075  1  0.51941600  0.48646400  0.73102800  1.0
  Ni  Ni1076  1  0.51941600  0.81979733  0.73102800  1.0
  Ni  Ni1077  1  0.85274933  0.15313067  0.73102800  1.0
  Ni  Ni1078  1  0.85274933  0.48646400  0.73102800  1.0
  Ni  Ni1079  1  0.85274933  0.81979733  0.73102800  1.0
  Ni  Ni1080  1  0.25247243  0.26378300  0.79845410  1.0
  Ni  Ni1081  1  0.25247243  0.59711633  0.79845410  1.0
  Ni  Ni1082  1  0.25247243  0.93044967  0.79845410  1.0
  Ni  Ni1083  1  0.58580577  0.26378300  0.79845410  1.0
  Ni  Ni1084  1  0.58580577  0.59711633  0.79845410  1.0
  Ni  Ni1085  1  0.58580577  0.93044967  0.79845410  1.0
  Ni  Ni1086  1  0.91913910  0.26378300  0.79845410  1.0
  Ni  Ni1087  1  0.91913910  0.59711633  0.79845410  1.0
  Ni  Ni1088  1  0.91913910  0.93044967  0.79845410  1.0
  Ni  Ni1089  1  0.15247243  0.26378300  0.69845410  1.0
  Ni  Ni1090  1  0.15247243  0.59711633  0.69845410  1.0
  Ni  Ni1091  1  0.15247243  0.93044967  0.69845410  1.0
  Ni  Ni1092  1  0.48580577  0.26378300  0.69845410  1.0
  Ni  Ni1093  1  0.48580577  0.59711633  0.69845410  1.0
  Ni  Ni1094  1  0.48580577  0.93044967  0.69845410  1.0
  Ni  Ni1095  1  0.81913910  0.26378300  0.69845410  1.0
  Ni  Ni1096  1  0.81913910  0.59711633  0.69845410  1.0
  Ni  Ni1097  1  0.81913910  0.93044967  0.69845410  1.0
  Ni  Ni1098  1  0.06113303  0.01427967  0.77259070  1.0
  Ni  Ni1099  1  0.06113303  0.34761300  0.77259070  1.0
  Ni  Ni1100  1  0.06113303  0.68094633  0.77259070  1.0
  Ni  Ni1101  1  0.39446637  0.01427967  0.77259070  1.0
  Ni  Ni1102  1  0.39446637  0.34761300  0.77259070  1.0
  Ni  Ni1103  1  0.39446637  0.68094633  0.77259070  1.0
  Ni  Ni1104  1  0.72779970  0.01427967  0.77259070  1.0
  Ni  Ni1105  1  0.72779970  0.34761300  0.77259070  1.0
  Ni  Ni1106  1  0.72779970  0.68094633  0.77259070  1.0
  Ni  Ni1107  1  0.29446637  0.01427967  0.67259070  1.0
  Ni  Ni1108  1  0.29446637  0.34761300  0.67259070  1.0
  Ni  Ni1109  1  0.29446637  0.68094633  0.67259070  1.0
  Ni  Ni1110  1  0.62779970  0.01427967  0.67259070  1.0
  Ni  Ni1111  1  0.62779970  0.34761300  0.67259070  1.0
  Ni  Ni1112  1  0.62779970  0.68094633  0.67259070  1.0
  Ni  Ni1113  1  0.96113303  0.01427967  0.67259070  1.0
  Ni  Ni1114  1  0.96113303  0.34761300  0.67259070  1.0
  Ni  Ni1115  1  0.96113303  0.68094633  0.67259070  1.0
  Ni  Ni1116  1  0.02802180  0.12475533  0.73940080  1.0
  Ni  Ni1117  1  0.02802180  0.45808867  0.73940080  1.0
  Ni  Ni1118  1  0.02802180  0.79142200  0.73940080  1.0
  Ni  Ni1119  1  0.36135513  0.12475533  0.73940080  1.0
  Ni  Ni1120  1  0.36135513  0.45808867  0.73940080  1.0
  Ni  Ni1121  1  0.36135513  0.79142200  0.73940080  1.0
  Ni  Ni1122  1  0.69468847  0.12475533  0.73940080  1.0
  Ni  Ni1123  1  0.69468847  0.45808867  0.73940080  1.0
  Ni  Ni1124  1  0.69468847  0.79142200  0.73940080  1.0
  Ni  Ni1125  1  0.26135513  0.12475533  0.63940080  1.0
  Ni  Ni1126  1  0.26135513  0.45808867  0.63940080  1.0
  Ni  Ni1127  1  0.26135513  0.79142200  0.63940080  1.0
  Ni  Ni1128  1  0.59468847  0.12475533  0.63940080  1.0
  Ni  Ni1129  1  0.59468847  0.45808867  0.63940080  1.0
  Ni  Ni1130  1  0.59468847  0.79142200  0.63940080  1.0
  Ni  Ni1131  1  0.92802180  0.12475533  0.63940080  1.0
  Ni  Ni1132  1  0.92802180  0.45808867  0.63940080  1.0
  Ni  Ni1133  1  0.92802180  0.79142200  0.63940080  1.0
  Ni  Ni1134  1  0.32788043  0.23624567  0.70599510  1.0
  Ni  Ni1135  1  0.32788043  0.56957900  0.70599510  1.0
  Ni  Ni1136  1  0.32788043  0.90291233  0.70599510  1.0
  Ni  Ni1137  1  0.66121377  0.23624567  0.70599510  1.0
  Ni  Ni1138  1  0.66121377  0.56957900  0.70599510  1.0
  Ni  Ni1139  1  0.66121377  0.90291233  0.70599510  1.0
  Ni  Ni1140  1  0.99454710  0.23624567  0.70599510  1.0
  Ni  Ni1141  1  0.99454710  0.56957900  0.70599510  1.0
  Ni  Ni1142  1  0.99454710  0.90291233  0.70599510  1.0
  Ni  Ni1143  1  0.22788043  0.23624567  0.60599510  1.0
  Ni  Ni1144  1  0.22788043  0.56957900  0.60599510  1.0
  Ni  Ni1145  1  0.22788043  0.90291233  0.60599510  1.0
  Ni  Ni1146  1  0.56121377  0.23624567  0.60599510  1.0
  Ni  Ni1147  1  0.56121377  0.56957900  0.60599510  1.0
  Ni  Ni1148  1  0.56121377  0.90291233  0.60599510  1.0
  Ni  Ni1149  1  0.89454710  0.23624567  0.60599510  1.0
  Ni  Ni1150  1  0.89454710  0.56957900  0.60599510  1.0
  Ni  Ni1151  1  0.89454710  0.90291233  0.60599510  1.0
  Sn  Sn1152  1  0.10987790  0.01638033  0.82289790  1.0
  Sn  Sn1153  1  0.10987790  0.34971367  0.82289790  1.0
  Sn  Sn1154  1  0.10987790  0.68304700  0.82289790  1.0
  Sn  Sn1155  1  0.44321123  0.01638033  0.82289790  1.0
  Sn  Sn1156  1  0.44321123  0.34971367  0.82289790  1.0
  Sn  Sn1157  1  0.44321123  0.68304700  0.82289790  1.0
  Sn  Sn1158  1  0.77654457  0.01638033  0.82289790  1.0
  Sn  Sn1159  1  0.77654457  0.34971367  0.82289790  1.0
  Sn  Sn1160  1  0.77654457  0.68304700  0.82289790  1.0
  Sn  Sn1161  1  0.20987790  0.01638033  0.92289790  1.0
  Sn  Sn1162  1  0.20987790  0.34971367  0.92289790  1.0
  Sn  Sn1163  1  0.20987790  0.68304700  0.92289790  1.0
  Sn  Sn1164  1  0.54321123  0.01638033  0.92289790  1.0
  Sn  Sn1165  1  0.54321123  0.34971367  0.92289790  1.0
  Sn  Sn1166  1  0.54321123  0.68304700  0.92289790  1.0
  Sn  Sn1167  1  0.87654457  0.01638033  0.92289790  1.0
  Sn  Sn1168  1  0.87654457  0.34971367  0.92289790  1.0
  Sn  Sn1169  1  0.87654457  0.68304700  0.92289790  1.0
  Sn  Sn1170  1  0.27838183  0.12512633  0.98858250  1.0
  Sn  Sn1171  1  0.27838183  0.45845967  0.98858250  1.0
  Sn  Sn1172  1  0.27838183  0.79179300  0.98858250  1.0
  Sn  Sn1173  1  0.61171517  0.12512633  0.98858250  1.0
  Sn  Sn1174  1  0.61171517  0.45845967  0.98858250  1.0
  Sn  Sn1175  1  0.61171517  0.79179300  0.98858250  1.0
  Sn  Sn1176  1  0.94504850  0.12512633  0.98858250  1.0
  Sn  Sn1177  1  0.94504850  0.45845967  0.98858250  1.0
  Sn  Sn1178  1  0.94504850  0.79179300  0.98858250  1.0
  Sn  Sn1179  1  0.17838183  0.12512633  0.88858250  1.0
  Sn  Sn1180  1  0.17838183  0.45845967  0.88858250  1.0
  Sn  Sn1181  1  0.17838183  0.79179300  0.88858250  1.0
  Sn  Sn1182  1  0.51171517  0.12512633  0.88858250  1.0
  Sn  Sn1183  1  0.51171517  0.45845967  0.88858250  1.0
  Sn  Sn1184  1  0.51171517  0.79179300  0.88858250  1.0
  Sn  Sn1185  1  0.84504850  0.12512633  0.88858250  1.0
  Sn  Sn1186  1  0.84504850  0.45845967  0.88858250  1.0
  Sn  Sn1187  1  0.84504850  0.79179300  0.88858250  1.0
  Sn  Sn1188  1  0.24326790  0.23819900  0.95644890  1.0
  Sn  Sn1189  1  0.24326790  0.57153233  0.95644890  1.0
  Sn  Sn1190  1  0.24326790  0.90486567  0.95644890  1.0
  Sn  Sn1191  1  0.57660123  0.23819900  0.95644890  1.0
  Sn  Sn1192  1  0.57660123  0.57153233  0.95644890  1.0
  Sn  Sn1193  1  0.57660123  0.90486567  0.95644890  1.0
  Sn  Sn1194  1  0.90993457  0.23819900  0.95644890  1.0
  Sn  Sn1195  1  0.90993457  0.57153233  0.95644890  1.0
  Sn  Sn1196  1  0.90993457  0.90486567  0.95644890  1.0
  Sn  Sn1197  1  0.14326790  0.23819900  0.85644890  1.0
  Sn  Sn1198  1  0.14326790  0.57153233  0.85644890  1.0
  Sn  Sn1199  1  0.14326790  0.90486567  0.85644890  1.0
  Sn  Sn1200  1  0.47660123  0.23819900  0.85644890  1.0
  Sn  Sn1201  1  0.47660123  0.57153233  0.85644890  1.0
  Sn  Sn1202  1  0.47660123  0.90486567  0.85644890  1.0
  Sn  Sn1203  1  0.80993457  0.23819900  0.85644890  1.0
  Sn  Sn1204  1  0.80993457  0.57153233  0.85644890  1.0
  Sn  Sn1205  1  0.80993457  0.90486567  0.85644890  1.0
  Sn  Sn1206  1  0.03661070  0.04132700  0.91408870  1.0
  Sn  Sn1207  1  0.03661070  0.37466033  0.91408870  1.0
  Sn  Sn1208  1  0.03661070  0.70799367  0.91408870  1.0
  Sn  Sn1209  1  0.36994403  0.04132700  0.91408870  1.0
  Sn  Sn1210  1  0.36994403  0.37466033  0.91408870  1.0
  Sn  Sn1211  1  0.36994403  0.70799367  0.91408870  1.0
  Sn  Sn1212  1  0.70327737  0.04132700  0.91408870  1.0
  Sn  Sn1213  1  0.70327737  0.37466033  0.91408870  1.0
  Sn  Sn1214  1  0.70327737  0.70799367  0.91408870  1.0
  Sn  Sn1215  1  0.26994403  0.04132700  0.81408870  1.0
  Sn  Sn1216  1  0.26994403  0.37466033  0.81408870  1.0
  Sn  Sn1217  1  0.26994403  0.70799367  0.81408870  1.0
  Sn  Sn1218  1  0.60327737  0.04132700  0.81408870  1.0
  Sn  Sn1219  1  0.60327737  0.37466033  0.81408870  1.0
  Sn  Sn1220  1  0.60327737  0.70799367  0.81408870  1.0
  Sn  Sn1221  1  0.93661070  0.04132700  0.81408870  1.0
  Sn  Sn1222  1  0.93661070  0.37466033  0.81408870  1.0
  Sn  Sn1223  1  0.93661070  0.70799367  0.81408870  1.0
  Sn  Sn1224  1  0.00327900  0.15208200  0.88102000  1.0
  Sn  Sn1225  1  0.00327900  0.48541533  0.88102000  1.0
  Sn  Sn1226  1  0.00327900  0.81874867  0.88102000  1.0
  Sn  Sn1227  1  0.33661233  0.15208200  0.88102000  1.0
  Sn  Sn1228  1  0.33661233  0.48541533  0.88102000  1.0
  Sn  Sn1229  1  0.33661233  0.81874867  0.88102000  1.0
  Sn  Sn1230  1  0.66994567  0.15208200  0.88102000  1.0
  Sn  Sn1231  1  0.66994567  0.48541533  0.88102000  1.0
  Sn  Sn1232  1  0.66994567  0.81874867  0.88102000  1.0
  Sn  Sn1233  1  0.10327900  0.15208200  0.98102000  1.0
  Sn  Sn1234  1  0.10327900  0.48541533  0.98102000  1.0
  Sn  Sn1235  1  0.10327900  0.81874867  0.98102000  1.0
  Sn  Sn1236  1  0.43661233  0.15208200  0.98102000  1.0
  Sn  Sn1237  1  0.43661233  0.48541533  0.98102000  1.0
  Sn  Sn1238  1  0.43661233  0.81874867  0.98102000  1.0
  Sn  Sn1239  1  0.76994567  0.15208200  0.98102000  1.0
  Sn  Sn1240  1  0.76994567  0.48541533  0.98102000  1.0
  Sn  Sn1241  1  0.76994567  0.81874867  0.98102000  1.0
  Sn  Sn1242  1  0.30289117  0.26328633  0.84819850  1.0
  Sn  Sn1243  1  0.30289117  0.59661967  0.84819850  1.0
  Sn  Sn1244  1  0.30289117  0.92995300  0.84819850  1.0
  Sn  Sn1245  1  0.63622450  0.26328633  0.84819850  1.0
  Sn  Sn1246  1  0.63622450  0.59661967  0.84819850  1.0
  Sn  Sn1247  1  0.63622450  0.92995300  0.84819850  1.0
  Sn  Sn1248  1  0.96955783  0.26328633  0.84819850  1.0
  Sn  Sn1249  1  0.96955783  0.59661967  0.84819850  1.0
  Sn  Sn1250  1  0.96955783  0.92995300  0.84819850  1.0
  Sn  Sn1251  1  0.06955783  0.26328633  0.94819850  1.0
  Sn  Sn1252  1  0.06955783  0.59661967  0.94819850  1.0
  Sn  Sn1253  1  0.06955783  0.92995300  0.94819850  1.0
  Sn  Sn1254  1  0.40289117  0.26328633  0.94819850  1.0
  Sn  Sn1255  1  0.40289117  0.59661967  0.94819850  1.0
  Sn  Sn1256  1  0.40289117  0.92995300  0.94819850  1.0
  Sn  Sn1257  1  0.73622450  0.26328633  0.94819850  1.0
  Sn  Sn1258  1  0.73622450  0.59661967  0.94819850  1.0
  Sn  Sn1259  1  0.73622450  0.92995300  0.94819850  1.0
  Sn  Sn1260  1  0.26145187  0.09547733  0.91121420  1.0
  Sn  Sn1261  1  0.26145187  0.42881067  0.91121420  1.0
  Sn  Sn1262  1  0.26145187  0.76214400  0.91121420  1.0
  Sn  Sn1263  1  0.59478520  0.09547733  0.91121420  1.0
  Sn  Sn1264  1  0.59478520  0.42881067  0.91121420  1.0
  Sn  Sn1265  1  0.59478520  0.76214400  0.91121420  1.0
  Sn  Sn1266  1  0.92811853  0.09547733  0.91121420  1.0
  Sn  Sn1267  1  0.92811853  0.42881067  0.91121420  1.0
  Sn  Sn1268  1  0.92811853  0.76214400  0.91121420  1.0
  Sn  Sn1269  1  0.16145187  0.09547733  0.81121420  1.0
  Sn  Sn1270  1  0.16145187  0.42881067  0.81121420  1.0
  Sn  Sn1271  1  0.16145187  0.76214400  0.81121420  1.0
  Sn  Sn1272  1  0.49478520  0.09547733  0.81121420  1.0
  Sn  Sn1273  1  0.49478520  0.42881067  0.81121420  1.0
  Sn  Sn1274  1  0.49478520  0.76214400  0.81121420  1.0
  Sn  Sn1275  1  0.82811853  0.09547733  0.81121420  1.0
  Sn  Sn1276  1  0.82811853  0.42881067  0.81121420  1.0
  Sn  Sn1277  1  0.82811853  0.76214400  0.81121420  1.0
  Sn  Sn1278  1  0.22858510  0.20651500  0.87723610  1.0
  Sn  Sn1279  1  0.22858510  0.53984833  0.87723610  1.0
  Sn  Sn1280  1  0.22858510  0.87318167  0.87723610  1.0
  Sn  Sn1281  1  0.56191843  0.20651500  0.87723610  1.0
  Sn  Sn1282  1  0.56191843  0.53984833  0.87723610  1.0
  Sn  Sn1283  1  0.56191843  0.87318167  0.87723610  1.0
  Sn  Sn1284  1  0.89525177  0.20651500  0.87723610  1.0
  Sn  Sn1285  1  0.89525177  0.53984833  0.87723610  1.0
  Sn  Sn1286  1  0.89525177  0.87318167  0.87723610  1.0
  Sn  Sn1287  1  0.32858510  0.20651500  0.97723610  1.0
  Sn  Sn1288  1  0.32858510  0.53984833  0.97723610  1.0
  Sn  Sn1289  1  0.32858510  0.87318167  0.97723610  1.0
  Sn  Sn1290  1  0.66191843  0.20651500  0.97723610  1.0
  Sn  Sn1291  1  0.66191843  0.53984833  0.97723610  1.0
  Sn  Sn1292  1  0.66191843  0.87318167  0.97723610  1.0
  Sn  Sn1293  1  0.99525177  0.20651500  0.97723610  1.0
  Sn  Sn1294  1  0.99525177  0.53984833  0.97723610  1.0
  Sn  Sn1295  1  0.99525177  0.87318167  0.97723610  1.0
  Sn  Sn1296  1  0.19517483  0.31784700  0.84385250  1.0
  Sn  Sn1297  1  0.19517483  0.65118033  0.84385250  1.0
  Sn  Sn1298  1  0.19517483  0.98451367  0.84385250  1.0
  Sn  Sn1299  1  0.52850817  0.31784700  0.84385250  1.0
  Sn  Sn1300  1  0.52850817  0.65118033  0.84385250  1.0
  Sn  Sn1301  1  0.52850817  0.98451367  0.84385250  1.0
  Sn  Sn1302  1  0.86184150  0.31784700  0.84385250  1.0
  Sn  Sn1303  1  0.86184150  0.65118033  0.84385250  1.0
  Sn  Sn1304  1  0.86184150  0.98451367  0.84385250  1.0
  Sn  Sn1305  1  0.29517483  0.31784700  0.94385250  1.0
  Sn  Sn1306  1  0.29517483  0.65118033  0.94385250  1.0
  Sn  Sn1307  1  0.29517483  0.98451367  0.94385250  1.0
  Sn  Sn1308  1  0.62850817  0.31784700  0.94385250  1.0
  Sn  Sn1309  1  0.62850817  0.65118033  0.94385250  1.0
  Sn  Sn1310  1  0.62850817  0.98451367  0.94385250  1.0
  Sn  Sn1311  1  0.96184150  0.31784700  0.94385250  1.0
  Sn  Sn1312  1  0.96184150  0.65118033  0.94385250  1.0
  Sn  Sn1313  1  0.96184150  0.98451367  0.94385250  1.0
  Sn  Sn1314  1  0.00148900  0.07119533  0.81937000  1.0
  Sn  Sn1315  1  0.00148900  0.40452867  0.81937000  1.0
  Sn  Sn1316  1  0.00148900  0.73786200  0.81937000  1.0
  Sn  Sn1317  1  0.33482233  0.07119533  0.81937000  1.0
  Sn  Sn1318  1  0.33482233  0.40452867  0.81937000  1.0
  Sn  Sn1319  1  0.33482233  0.73786200  0.81937000  1.0
  Sn  Sn1320  1  0.66815567  0.07119533  0.81937000  1.0
  Sn  Sn1321  1  0.66815567  0.40452867  0.81937000  1.0
  Sn  Sn1322  1  0.66815567  0.73786200  0.81937000  1.0
  Sn  Sn1323  1  0.10148900  0.07119533  0.91937000  1.0
  Sn  Sn1324  1  0.10148900  0.40452867  0.91937000  1.0
  Sn  Sn1325  1  0.10148900  0.73786200  0.91937000  1.0
  Sn  Sn1326  1  0.43482233  0.07119533  0.91937000  1.0
  Sn  Sn1327  1  0.43482233  0.40452867  0.91937000  1.0
  Sn  Sn1328  1  0.43482233  0.73786200  0.91937000  1.0
  Sn  Sn1329  1  0.76815567  0.07119533  0.91937000  1.0
  Sn  Sn1330  1  0.76815567  0.40452867  0.91937000  1.0
  Sn  Sn1331  1  0.76815567  0.73786200  0.91937000  1.0
  Sn  Sn1332  1  0.16913877  0.18223167  0.98461810  1.0
  Sn  Sn1333  1  0.16913877  0.51556500  0.98461810  1.0
  Sn  Sn1334  1  0.16913877  0.84889833  0.98461810  1.0
  Sn  Sn1335  1  0.50247210  0.18223167  0.98461810  1.0
  Sn  Sn1336  1  0.50247210  0.51556500  0.98461810  1.0
  Sn  Sn1337  1  0.50247210  0.84889833  0.98461810  1.0
  Sn  Sn1338  1  0.83580543  0.18223167  0.98461810  1.0
  Sn  Sn1339  1  0.83580543  0.51556500  0.98461810  1.0
  Sn  Sn1340  1  0.83580543  0.84889833  0.98461810  1.0
  Sn  Sn1341  1  0.06913877  0.18223167  0.88461810  1.0
  Sn  Sn1342  1  0.06913877  0.51556500  0.88461810  1.0
  Sn  Sn1343  1  0.06913877  0.84889833  0.88461810  1.0
  Sn  Sn1344  1  0.40247210  0.18223167  0.88461810  1.0
  Sn  Sn1345  1  0.40247210  0.51556500  0.88461810  1.0
  Sn  Sn1346  1  0.40247210  0.84889833  0.88461810  1.0
  Sn  Sn1347  1  0.73580543  0.18223167  0.88461810  1.0
  Sn  Sn1348  1  0.73580543  0.51556500  0.88461810  1.0
  Sn  Sn1349  1  0.73580543  0.84889833  0.88461810  1.0
  Sn  Sn1350  1  0.13539143  0.29347033  0.95181010  1.0
  Sn  Sn1351  1  0.13539143  0.62680367  0.95181010  1.0
  Sn  Sn1352  1  0.13539143  0.96013700  0.95181010  1.0
  Sn  Sn1353  1  0.46872477  0.29347033  0.95181010  1.0
  Sn  Sn1354  1  0.46872477  0.62680367  0.95181010  1.0
  Sn  Sn1355  1  0.46872477  0.96013700  0.95181010  1.0
  Sn  Sn1356  1  0.80205810  0.29347033  0.95181010  1.0
  Sn  Sn1357  1  0.80205810  0.62680367  0.95181010  1.0
  Sn  Sn1358  1  0.80205810  0.96013700  0.95181010  1.0
  Sn  Sn1359  1  0.03539143  0.29347033  0.85181010  1.0
  Sn  Sn1360  1  0.03539143  0.62680367  0.85181010  1.0
  Sn  Sn1361  1  0.03539143  0.96013700  0.85181010  1.0
  Sn  Sn1362  1  0.36872477  0.29347033  0.85181010  1.0
  Sn  Sn1363  1  0.36872477  0.62680367  0.85181010  1.0
  Sn  Sn1364  1  0.36872477  0.96013700  0.85181010  1.0
  Sn  Sn1365  1  0.70205810  0.29347033  0.85181010  1.0
  Sn  Sn1366  1  0.70205810  0.62680367  0.85181010  1.0
  Sn  Sn1367  1  0.70205810  0.96013700  0.85181010  1.0
  Sn  Sn1368  1  0.09477867  0.06958133  0.80564600  1.0
  Sn  Sn1369  1  0.09477867  0.40291467  0.80564600  1.0
  Sn  Sn1370  1  0.09477867  0.73624800  0.80564600  1.0
  Sn  Sn1371  1  0.42811200  0.06958133  0.80564600  1.0
  Sn  Sn1372  1  0.42811200  0.40291467  0.80564600  1.0
  Sn  Sn1373  1  0.42811200  0.73624800  0.80564600  1.0
  Sn  Sn1374  1  0.76144533  0.06958133  0.80564600  1.0
  Sn  Sn1375  1  0.76144533  0.40291467  0.80564600  1.0
  Sn  Sn1376  1  0.76144533  0.73624800  0.80564600  1.0
  Sn  Sn1377  1  0.19477867  0.06958133  0.90564600  1.0
  Sn  Sn1378  1  0.19477867  0.40291467  0.90564600  1.0
  Sn  Sn1379  1  0.19477867  0.73624800  0.90564600  1.0
  Sn  Sn1380  1  0.52811200  0.06958133  0.90564600  1.0
  Sn  Sn1381  1  0.52811200  0.40291467  0.90564600  1.0
  Sn  Sn1382  1  0.52811200  0.73624800  0.90564600  1.0
  Sn  Sn1383  1  0.86144533  0.06958133  0.90564600  1.0
  Sn  Sn1384  1  0.86144533  0.40291467  0.90564600  1.0
  Sn  Sn1385  1  0.86144533  0.73624800  0.90564600  1.0
  Sn  Sn1386  1  0.26056227  0.17837600  0.97537460  1.0
  Sn  Sn1387  1  0.26056227  0.51170933  0.97537460  1.0
  Sn  Sn1388  1  0.26056227  0.84504267  0.97537460  1.0
  Sn  Sn1389  1  0.59389560  0.17837600  0.97537460  1.0
  Sn  Sn1390  1  0.59389560  0.51170933  0.97537460  1.0
  Sn  Sn1391  1  0.59389560  0.84504267  0.97537460  1.0
  Sn  Sn1392  1  0.92722893  0.17837600  0.97537460  1.0
  Sn  Sn1393  1  0.92722893  0.51170933  0.97537460  1.0
  Sn  Sn1394  1  0.92722893  0.84504267  0.97537460  1.0
  Sn  Sn1395  1  0.16056227  0.17837600  0.87537460  1.0
  Sn  Sn1396  1  0.16056227  0.51170933  0.87537460  1.0
  Sn  Sn1397  1  0.16056227  0.84504267  0.87537460  1.0
  Sn  Sn1398  1  0.49389560  0.17837600  0.87537460  1.0
  Sn  Sn1399  1  0.49389560  0.51170933  0.87537460  1.0
  Sn  Sn1400  1  0.49389560  0.84504267  0.87537460  1.0
  Sn  Sn1401  1  0.82722893  0.17837600  0.87537460  1.0
  Sn  Sn1402  1  0.82722893  0.51170933  0.87537460  1.0
  Sn  Sn1403  1  0.82722893  0.84504267  0.87537460  1.0
  Sn  Sn1404  1  0.22702677  0.28984500  0.94207610  1.0
  Sn  Sn1405  1  0.22702677  0.62317833  0.94207610  1.0
  Sn  Sn1406  1  0.22702677  0.95651167  0.94207610  1.0
  Sn  Sn1407  1  0.56036010  0.28984500  0.94207610  1.0
  Sn  Sn1408  1  0.56036010  0.62317833  0.94207610  1.0
  Sn  Sn1409  1  0.56036010  0.95651167  0.94207610  1.0
  Sn  Sn1410  1  0.89369343  0.28984500  0.94207610  1.0
  Sn  Sn1411  1  0.89369343  0.62317833  0.94207610  1.0
  Sn  Sn1412  1  0.89369343  0.95651167  0.94207610  1.0
  Sn  Sn1413  1  0.12702677  0.28984500  0.84207610  1.0
  Sn  Sn1414  1  0.12702677  0.62317833  0.84207610  1.0
  Sn  Sn1415  1  0.12702677  0.95651167  0.84207610  1.0
  Sn  Sn1416  1  0.46036010  0.28984500  0.84207610  1.0
  Sn  Sn1417  1  0.46036010  0.62317833  0.84207610  1.0
  Sn  Sn1418  1  0.46036010  0.95651167  0.84207610  1.0
  Sn  Sn1419  1  0.79369343  0.28984500  0.84207610  1.0
  Sn  Sn1420  1  0.79369343  0.62317833  0.84207610  1.0
  Sn  Sn1421  1  0.79369343  0.95651167  0.84207610  1.0
  Sn  Sn1422  1  0.01991767  0.09751133  0.89699000  1.0
  Sn  Sn1423  1  0.01991767  0.43084467  0.89699000  1.0
  Sn  Sn1424  1  0.01991767  0.76417800  0.89699000  1.0
  Sn  Sn1425  1  0.35325100  0.09751133  0.89699000  1.0
  Sn  Sn1426  1  0.35325100  0.43084467  0.89699000  1.0
  Sn  Sn1427  1  0.35325100  0.76417800  0.89699000  1.0
  Sn  Sn1428  1  0.68658433  0.09751133  0.89699000  1.0
  Sn  Sn1429  1  0.68658433  0.43084467  0.89699000  1.0
  Sn  Sn1430  1  0.68658433  0.76417800  0.89699000  1.0
  Sn  Sn1431  1  0.11991767  0.09751133  0.99699000  1.0
  Sn  Sn1432  1  0.11991767  0.43084467  0.99699000  1.0
  Sn  Sn1433  1  0.11991767  0.76417800  0.99699000  1.0
  Sn  Sn1434  1  0.45325100  0.09751133  0.99699000  1.0
  Sn  Sn1435  1  0.45325100  0.43084467  0.99699000  1.0
  Sn  Sn1436  1  0.45325100  0.76417800  0.99699000  1.0
  Sn  Sn1437  1  0.78658433  0.09751133  0.99699000  1.0
  Sn  Sn1438  1  0.78658433  0.43084467  0.99699000  1.0
  Sn  Sn1439  1  0.78658433  0.76417800  0.99699000  1.0
  Sn  Sn1440  1  0.32408893  0.20860933  0.85740960  1.0
  Sn  Sn1441  1  0.32408893  0.54194267  0.85740960  1.0
  Sn  Sn1442  1  0.32408893  0.87527600  0.85740960  1.0
  Sn  Sn1443  1  0.65742227  0.20860933  0.85740960  1.0
  Sn  Sn1444  1  0.65742227  0.54194267  0.85740960  1.0
  Sn  Sn1445  1  0.65742227  0.87527600  0.85740960  1.0
  Sn  Sn1446  1  0.99075560  0.20860933  0.85740960  1.0
  Sn  Sn1447  1  0.99075560  0.54194267  0.85740960  1.0
  Sn  Sn1448  1  0.99075560  0.87527600  0.85740960  1.0
  Sn  Sn1449  1  0.09075560  0.20860933  0.95740960  1.0
  Sn  Sn1450  1  0.09075560  0.54194267  0.95740960  1.0
  Sn  Sn1451  1  0.09075560  0.87527600  0.95740960  1.0
  Sn  Sn1452  1  0.42408893  0.20860933  0.95740960  1.0
  Sn  Sn1453  1  0.42408893  0.54194267  0.95740960  1.0
  Sn  Sn1454  1  0.42408893  0.87527600  0.95740960  1.0
  Sn  Sn1455  1  0.75742227  0.20860933  0.95740960  1.0
  Sn  Sn1456  1  0.75742227  0.54194267  0.95740960  1.0
  Sn  Sn1457  1  0.75742227  0.87527600  0.95740960  1.0
  Sn  Sn1458  1  0.29087480  0.31964667  0.82395280  1.0
  Sn  Sn1459  1  0.29087480  0.65298000  0.82395280  1.0
  Sn  Sn1460  1  0.29087480  0.98631333  0.82395280  1.0
  Sn  Sn1461  1  0.62420813  0.31964667  0.82395280  1.0
  Sn  Sn1462  1  0.62420813  0.65298000  0.82395280  1.0
  Sn  Sn1463  1  0.62420813  0.98631333  0.82395280  1.0
  Sn  Sn1464  1  0.95754147  0.31964667  0.82395280  1.0
  Sn  Sn1465  1  0.95754147  0.65298000  0.82395280  1.0
  Sn  Sn1466  1  0.95754147  0.98631333  0.82395280  1.0
  Sn  Sn1467  1  0.05754147  0.31964667  0.92395280  1.0
  Sn  Sn1468  1  0.05754147  0.65298000  0.92395280  1.0
  Sn  Sn1469  1  0.05754147  0.98631333  0.92395280  1.0
  Sn  Sn1470  1  0.39087480  0.31964667  0.92395280  1.0
  Sn  Sn1471  1  0.39087480  0.65298000  0.92395280  1.0
  Sn  Sn1472  1  0.39087480  0.98631333  0.92395280  1.0
  Sn  Sn1473  1  0.72420813  0.31964667  0.92395280  1.0
  Sn  Sn1474  1  0.72420813  0.65298000  0.92395280  1.0
  Sn  Sn1475  1  0.72420813  0.98631333  0.92395280  1.0
  Sn  Sn1476  1  0.27122140  0.04551933  0.93402840  1.0
  Sn  Sn1477  1  0.27122140  0.37885267  0.93402840  1.0
  Sn  Sn1478  1  0.27122140  0.71218600  0.93402840  1.0
  Sn  Sn1479  1  0.60455473  0.04551933  0.93402840  1.0
  Sn  Sn1480  1  0.60455473  0.37885267  0.93402840  1.0
  Sn  Sn1481  1  0.60455473  0.71218600  0.93402840  1.0
  Sn  Sn1482  1  0.93788807  0.04551933  0.93402840  1.0
  Sn  Sn1483  1  0.93788807  0.37885267  0.93402840  1.0
  Sn  Sn1484  1  0.93788807  0.71218600  0.93402840  1.0
  Sn  Sn1485  1  0.17122140  0.04551933  0.83402840  1.0
  Sn  Sn1486  1  0.17122140  0.37885267  0.83402840  1.0
  Sn  Sn1487  1  0.17122140  0.71218600  0.83402840  1.0
  Sn  Sn1488  1  0.50455473  0.04551933  0.83402840  1.0
  Sn  Sn1489  1  0.50455473  0.37885267  0.83402840  1.0
  Sn  Sn1490  1  0.50455473  0.71218600  0.83402840  1.0
  Sn  Sn1491  1  0.83788807  0.04551933  0.83402840  1.0
  Sn  Sn1492  1  0.83788807  0.37885267  0.83402840  1.0
  Sn  Sn1493  1  0.83788807  0.71218600  0.83402840  1.0
  Sn  Sn1494  1  0.23808227  0.15611600  0.90078960  1.0
  Sn  Sn1495  1  0.23808227  0.48944933  0.90078960  1.0
  Sn  Sn1496  1  0.23808227  0.82278267  0.90078960  1.0
  Sn  Sn1497  1  0.57141560  0.15611600  0.90078960  1.0
  Sn  Sn1498  1  0.57141560  0.48944933  0.90078960  1.0
  Sn  Sn1499  1  0.57141560  0.82278267  0.90078960  1.0
  Sn  Sn1500  1  0.90474893  0.15611600  0.90078960  1.0
  Sn  Sn1501  1  0.90474893  0.48944933  0.90078960  1.0
  Sn  Sn1502  1  0.90474893  0.82278267  0.90078960  1.0
  Sn  Sn1503  1  0.13808227  0.15611600  0.80078960  1.0
  Sn  Sn1504  1  0.13808227  0.48944933  0.80078960  1.0
  Sn  Sn1505  1  0.13808227  0.82278267  0.80078960  1.0
  Sn  Sn1506  1  0.47141560  0.15611600  0.80078960  1.0
  Sn  Sn1507  1  0.47141560  0.48944933  0.80078960  1.0
  Sn  Sn1508  1  0.47141560  0.82278267  0.80078960  1.0
  Sn  Sn1509  1  0.80474893  0.15611600  0.80078960  1.0
  Sn  Sn1510  1  0.80474893  0.48944933  0.80078960  1.0
  Sn  Sn1511  1  0.80474893  0.82278267  0.80078960  1.0
  Sn  Sn1512  1  0.20434267  0.26767333  0.86773100  1.0
  Sn  Sn1513  1  0.20434267  0.60100667  0.86773100  1.0
  Sn  Sn1514  1  0.20434267  0.93434000  0.86773100  1.0
  Sn  Sn1515  1  0.53767600  0.26767333  0.86773100  1.0
  Sn  Sn1516  1  0.53767600  0.60100667  0.86773100  1.0
  Sn  Sn1517  1  0.53767600  0.93434000  0.86773100  1.0
  Sn  Sn1518  1  0.87100933  0.26767333  0.86773100  1.0
  Sn  Sn1519  1  0.87100933  0.60100667  0.86773100  1.0
  Sn  Sn1520  1  0.87100933  0.93434000  0.86773100  1.0
  Sn  Sn1521  1  0.30434267  0.26767333  0.96773100  1.0
  Sn  Sn1522  1  0.30434267  0.60100667  0.96773100  1.0
  Sn  Sn1523  1  0.30434267  0.93434000  0.96773100  1.0
  Sn  Sn1524  1  0.63767600  0.26767333  0.96773100  1.0
  Sn  Sn1525  1  0.63767600  0.60100667  0.96773100  1.0
  Sn  Sn1526  1  0.63767600  0.93434000  0.96773100  1.0
  Sn  Sn1527  1  0.97100933  0.26767333  0.96773100  1.0
  Sn  Sn1528  1  0.97100933  0.60100667  0.96773100  1.0
  Sn  Sn1529  1  0.97100933  0.93434000  0.96773100  1.0
  Sn  Sn1530  1  0.01558503  0.01031033  0.84388970  1.0
  Sn  Sn1531  1  0.01558503  0.34364367  0.84388970  1.0
  Sn  Sn1532  1  0.01558503  0.67697700  0.84388970  1.0
  Sn  Sn1533  1  0.34891837  0.01031033  0.84388970  1.0
  Sn  Sn1534  1  0.34891837  0.34364367  0.84388970  1.0
  Sn  Sn1535  1  0.34891837  0.67697700  0.84388970  1.0
  Sn  Sn1536  1  0.68225170  0.01031033  0.84388970  1.0
  Sn  Sn1537  1  0.68225170  0.34364367  0.84388970  1.0
  Sn  Sn1538  1  0.68225170  0.67697700  0.84388970  1.0
  Sn  Sn1539  1  0.11558503  0.01031033  0.94388970  1.0
  Sn  Sn1540  1  0.11558503  0.34364367  0.94388970  1.0
  Sn  Sn1541  1  0.11558503  0.67697700  0.94388970  1.0
  Sn  Sn1542  1  0.44891837  0.01031033  0.94388970  1.0
  Sn  Sn1543  1  0.44891837  0.34364367  0.94388970  1.0
  Sn  Sn1544  1  0.44891837  0.67697700  0.94388970  1.0
  Sn  Sn1545  1  0.78225170  0.01031033  0.94388970  1.0
  Sn  Sn1546  1  0.78225170  0.34364367  0.94388970  1.0
  Sn  Sn1547  1  0.78225170  0.67697700  0.94388970  1.0
  Sn  Sn1548  1  0.31494250  0.12155833  0.81141750  1.0
  Sn  Sn1549  1  0.31494250  0.45489167  0.81141750  1.0
  Sn  Sn1550  1  0.31494250  0.78822500  0.81141750  1.0
  Sn  Sn1551  1  0.64827583  0.12155833  0.81141750  1.0
  Sn  Sn1552  1  0.64827583  0.45489167  0.81141750  1.0
  Sn  Sn1553  1  0.64827583  0.78822500  0.81141750  1.0
  Sn  Sn1554  1  0.98160917  0.12155833  0.81141750  1.0
  Sn  Sn1555  1  0.98160917  0.45489167  0.81141750  1.0
  Sn  Sn1556  1  0.98160917  0.78822500  0.81141750  1.0
  Sn  Sn1557  1  0.08160917  0.12155833  0.91141750  1.0
  Sn  Sn1558  1  0.08160917  0.45489167  0.91141750  1.0
  Sn  Sn1559  1  0.08160917  0.78822500  0.91141750  1.0
  Sn  Sn1560  1  0.41494250  0.12155833  0.91141750  1.0
  Sn  Sn1561  1  0.41494250  0.45489167  0.91141750  1.0
  Sn  Sn1562  1  0.41494250  0.78822500  0.91141750  1.0
  Sn  Sn1563  1  0.74827583  0.12155833  0.91141750  1.0
  Sn  Sn1564  1  0.74827583  0.45489167  0.91141750  1.0
  Sn  Sn1565  1  0.74827583  0.78822500  0.91141750  1.0
  Sn  Sn1566  1  0.14874083  0.23259767  0.97744050  1.0
  Sn  Sn1567  1  0.14874083  0.56593100  0.97744050  1.0
  Sn  Sn1568  1  0.14874083  0.89926433  0.97744050  1.0
  Sn  Sn1569  1  0.48207417  0.23259767  0.97744050  1.0
  Sn  Sn1570  1  0.48207417  0.56593100  0.97744050  1.0
  Sn  Sn1571  1  0.48207417  0.89926433  0.97744050  1.0
  Sn  Sn1572  1  0.81540750  0.23259767  0.97744050  1.0
  Sn  Sn1573  1  0.81540750  0.56593100  0.97744050  1.0
  Sn  Sn1574  1  0.81540750  0.89926433  0.97744050  1.0
  Sn  Sn1575  1  0.04874083  0.23259767  0.87744050  1.0
  Sn  Sn1576  1  0.04874083  0.56593100  0.87744050  1.0
  Sn  Sn1577  1  0.04874083  0.89926433  0.87744050  1.0
  Sn  Sn1578  1  0.38207417  0.23259767  0.87744050  1.0
  Sn  Sn1579  1  0.38207417  0.56593100  0.87744050  1.0
  Sn  Sn1580  1  0.38207417  0.89926433  0.87744050  1.0
  Sn  Sn1581  1  0.71540750  0.23259767  0.87744050  1.0
  Sn  Sn1582  1  0.71540750  0.56593100  0.87744050  1.0
  Sn  Sn1583  1  0.71540750  0.89926433  0.87744050  1.0
  Sn  Sn1584  1  0.24321123  0.01638033  0.62289790  1.0
  Sn  Sn1585  1  0.24321123  0.34971367  0.62289790  1.0
  Sn  Sn1586  1  0.24321123  0.68304700  0.62289790  1.0
  Sn  Sn1587  1  0.57654457  0.01638033  0.62289790  1.0
  Sn  Sn1588  1  0.57654457  0.34971367  0.62289790  1.0
  Sn  Sn1589  1  0.57654457  0.68304700  0.62289790  1.0
  Sn  Sn1590  1  0.90987790  0.01638033  0.62289790  1.0
  Sn  Sn1591  1  0.90987790  0.34971367  0.62289790  1.0
  Sn  Sn1592  1  0.90987790  0.68304700  0.62289790  1.0
  Sn  Sn1593  1  0.00987790  0.01638033  0.72289790  1.0
  Sn  Sn1594  1  0.00987790  0.34971367  0.72289790  1.0
  Sn  Sn1595  1  0.00987790  0.68304700  0.72289790  1.0
  Sn  Sn1596  1  0.34321123  0.01638033  0.72289790  1.0
  Sn  Sn1597  1  0.34321123  0.34971367  0.72289790  1.0
  Sn  Sn1598  1  0.34321123  0.68304700  0.72289790  1.0
  Sn  Sn1599  1  0.67654457  0.01638033  0.72289790  1.0
  Sn  Sn1600  1  0.67654457  0.34971367  0.72289790  1.0
  Sn  Sn1601  1  0.67654457  0.68304700  0.72289790  1.0
  Sn  Sn1602  1  0.07838183  0.12512633  0.78858250  1.0
  Sn  Sn1603  1  0.07838183  0.45845967  0.78858250  1.0
  Sn  Sn1604  1  0.07838183  0.79179300  0.78858250  1.0
  Sn  Sn1605  1  0.41171517  0.12512633  0.78858250  1.0
  Sn  Sn1606  1  0.41171517  0.45845967  0.78858250  1.0
  Sn  Sn1607  1  0.41171517  0.79179300  0.78858250  1.0
  Sn  Sn1608  1  0.74504850  0.12512633  0.78858250  1.0
  Sn  Sn1609  1  0.74504850  0.45845967  0.78858250  1.0
  Sn  Sn1610  1  0.74504850  0.79179300  0.78858250  1.0
  Sn  Sn1611  1  0.31171517  0.12512633  0.68858250  1.0
  Sn  Sn1612  1  0.31171517  0.45845967  0.68858250  1.0
  Sn  Sn1613  1  0.31171517  0.79179300  0.68858250  1.0
  Sn  Sn1614  1  0.64504850  0.12512633  0.68858250  1.0
  Sn  Sn1615  1  0.64504850  0.45845967  0.68858250  1.0
  Sn  Sn1616  1  0.64504850  0.79179300  0.68858250  1.0
  Sn  Sn1617  1  0.97838183  0.12512633  0.68858250  1.0
  Sn  Sn1618  1  0.97838183  0.45845967  0.68858250  1.0
  Sn  Sn1619  1  0.97838183  0.79179300  0.68858250  1.0
  Sn  Sn1620  1  0.04326790  0.23819900  0.75644890  1.0
  Sn  Sn1621  1  0.04326790  0.57153233  0.75644890  1.0
  Sn  Sn1622  1  0.04326790  0.90486567  0.75644890  1.0
  Sn  Sn1623  1  0.37660123  0.23819900  0.75644890  1.0
  Sn  Sn1624  1  0.37660123  0.57153233  0.75644890  1.0
  Sn  Sn1625  1  0.37660123  0.90486567  0.75644890  1.0
  Sn  Sn1626  1  0.70993457  0.23819900  0.75644890  1.0
  Sn  Sn1627  1  0.70993457  0.57153233  0.75644890  1.0
  Sn  Sn1628  1  0.70993457  0.90486567  0.75644890  1.0
  Sn  Sn1629  1  0.27660123  0.23819900  0.65644890  1.0
  Sn  Sn1630  1  0.27660123  0.57153233  0.65644890  1.0
  Sn  Sn1631  1  0.27660123  0.90486567  0.65644890  1.0
  Sn  Sn1632  1  0.60993457  0.23819900  0.65644890  1.0
  Sn  Sn1633  1  0.60993457  0.57153233  0.65644890  1.0
  Sn  Sn1634  1  0.60993457  0.90486567  0.65644890  1.0
  Sn  Sn1635  1  0.94326790  0.23819900  0.65644890  1.0
  Sn  Sn1636  1  0.94326790  0.57153233  0.65644890  1.0
  Sn  Sn1637  1  0.94326790  0.90486567  0.65644890  1.0
  Sn  Sn1638  1  0.16994403  0.04132700  0.71408870  1.0
  Sn  Sn1639  1  0.16994403  0.37466033  0.71408870  1.0
  Sn  Sn1640  1  0.16994403  0.70799367  0.71408870  1.0
  Sn  Sn1641  1  0.50327737  0.04132700  0.71408870  1.0
  Sn  Sn1642  1  0.50327737  0.37466033  0.71408870  1.0
  Sn  Sn1643  1  0.50327737  0.70799367  0.71408870  1.0
  Sn  Sn1644  1  0.83661070  0.04132700  0.71408870  1.0
  Sn  Sn1645  1  0.83661070  0.37466033  0.71408870  1.0
  Sn  Sn1646  1  0.83661070  0.70799367  0.71408870  1.0
  Sn  Sn1647  1  0.06994403  0.04132700  0.61408870  1.0
  Sn  Sn1648  1  0.06994403  0.37466033  0.61408870  1.0
  Sn  Sn1649  1  0.06994403  0.70799367  0.61408870  1.0
  Sn  Sn1650  1  0.40327737  0.04132700  0.61408870  1.0
  Sn  Sn1651  1  0.40327737  0.37466033  0.61408870  1.0
  Sn  Sn1652  1  0.40327737  0.70799367  0.61408870  1.0
  Sn  Sn1653  1  0.73661070  0.04132700  0.61408870  1.0
  Sn  Sn1654  1  0.73661070  0.37466033  0.61408870  1.0
  Sn  Sn1655  1  0.73661070  0.70799367  0.61408870  1.0
  Sn  Sn1656  1  0.13661233  0.15208200  0.68102000  1.0
  Sn  Sn1657  1  0.13661233  0.48541533  0.68102000  1.0
  Sn  Sn1658  1  0.13661233  0.81874867  0.68102000  1.0
  Sn  Sn1659  1  0.46994567  0.15208200  0.68102000  1.0
  Sn  Sn1660  1  0.46994567  0.48541533  0.68102000  1.0
  Sn  Sn1661  1  0.46994567  0.81874867  0.68102000  1.0
  Sn  Sn1662  1  0.80327900  0.15208200  0.68102000  1.0
  Sn  Sn1663  1  0.80327900  0.48541533  0.68102000  1.0
  Sn  Sn1664  1  0.80327900  0.81874867  0.68102000  1.0
  Sn  Sn1665  1  0.23661233  0.15208200  0.78102000  1.0
  Sn  Sn1666  1  0.23661233  0.48541533  0.78102000  1.0
  Sn  Sn1667  1  0.23661233  0.81874867  0.78102000  1.0
  Sn  Sn1668  1  0.56994567  0.15208200  0.78102000  1.0
  Sn  Sn1669  1  0.56994567  0.48541533  0.78102000  1.0
  Sn  Sn1670  1  0.56994567  0.81874867  0.78102000  1.0
  Sn  Sn1671  1  0.90327900  0.15208200  0.78102000  1.0
  Sn  Sn1672  1  0.90327900  0.48541533  0.78102000  1.0
  Sn  Sn1673  1  0.90327900  0.81874867  0.78102000  1.0
  Sn  Sn1674  1  0.10289117  0.26328633  0.64819850  1.0
  Sn  Sn1675  1  0.10289117  0.59661967  0.64819850  1.0
  Sn  Sn1676  1  0.10289117  0.92995300  0.64819850  1.0
  Sn  Sn1677  1  0.43622450  0.26328633  0.64819850  1.0
  Sn  Sn1678  1  0.43622450  0.59661967  0.64819850  1.0
  Sn  Sn1679  1  0.43622450  0.92995300  0.64819850  1.0
  Sn  Sn1680  1  0.76955783  0.26328633  0.64819850  1.0
  Sn  Sn1681  1  0.76955783  0.59661967  0.64819850  1.0
  Sn  Sn1682  1  0.76955783  0.92995300  0.64819850  1.0
  Sn  Sn1683  1  0.20289117  0.26328633  0.74819850  1.0
  Sn  Sn1684  1  0.20289117  0.59661967  0.74819850  1.0
  Sn  Sn1685  1  0.20289117  0.92995300  0.74819850  1.0
  Sn  Sn1686  1  0.53622450  0.26328633  0.74819850  1.0
  Sn  Sn1687  1  0.53622450  0.59661967  0.74819850  1.0
  Sn  Sn1688  1  0.53622450  0.92995300  0.74819850  1.0
  Sn  Sn1689  1  0.86955783  0.26328633  0.74819850  1.0
  Sn  Sn1690  1  0.86955783  0.59661967  0.74819850  1.0
  Sn  Sn1691  1  0.86955783  0.92995300  0.74819850  1.0
  Sn  Sn1692  1  0.06145187  0.09547733  0.71121420  1.0
  Sn  Sn1693  1  0.06145187  0.42881067  0.71121420  1.0
  Sn  Sn1694  1  0.06145187  0.76214400  0.71121420  1.0
  Sn  Sn1695  1  0.39478520  0.09547733  0.71121420  1.0
  Sn  Sn1696  1  0.39478520  0.42881067  0.71121420  1.0
  Sn  Sn1697  1  0.39478520  0.76214400  0.71121420  1.0
  Sn  Sn1698  1  0.72811853  0.09547733  0.71121420  1.0
  Sn  Sn1699  1  0.72811853  0.42881067  0.71121420  1.0
  Sn  Sn1700  1  0.72811853  0.76214400  0.71121420  1.0
  Sn  Sn1701  1  0.29478520  0.09547733  0.61121420  1.0
  Sn  Sn1702  1  0.29478520  0.42881067  0.61121420  1.0
  Sn  Sn1703  1  0.29478520  0.76214400  0.61121420  1.0
  Sn  Sn1704  1  0.62811853  0.09547733  0.61121420  1.0
  Sn  Sn1705  1  0.62811853  0.42881067  0.61121420  1.0
  Sn  Sn1706  1  0.62811853  0.76214400  0.61121420  1.0
  Sn  Sn1707  1  0.96145187  0.09547733  0.61121420  1.0
  Sn  Sn1708  1  0.96145187  0.42881067  0.61121420  1.0
  Sn  Sn1709  1  0.96145187  0.76214400  0.61121420  1.0
  Sn  Sn1710  1  0.02858510  0.20651500  0.67723610  1.0
  Sn  Sn1711  1  0.02858510  0.53984833  0.67723610  1.0
  Sn  Sn1712  1  0.02858510  0.87318167  0.67723610  1.0
  Sn  Sn1713  1  0.36191843  0.20651500  0.67723610  1.0
  Sn  Sn1714  1  0.36191843  0.53984833  0.67723610  1.0
  Sn  Sn1715  1  0.36191843  0.87318167  0.67723610  1.0
  Sn  Sn1716  1  0.69525177  0.20651500  0.67723610  1.0
  Sn  Sn1717  1  0.69525177  0.53984833  0.67723610  1.0
  Sn  Sn1718  1  0.69525177  0.87318167  0.67723610  1.0
  Sn  Sn1719  1  0.12858510  0.20651500  0.77723610  1.0
  Sn  Sn1720  1  0.12858510  0.53984833  0.77723610  1.0
  Sn  Sn1721  1  0.12858510  0.87318167  0.77723610  1.0
  Sn  Sn1722  1  0.46191843  0.20651500  0.77723610  1.0
  Sn  Sn1723  1  0.46191843  0.53984833  0.77723610  1.0
  Sn  Sn1724  1  0.46191843  0.87318167  0.77723610  1.0
  Sn  Sn1725  1  0.79525177  0.20651500  0.77723610  1.0
  Sn  Sn1726  1  0.79525177  0.53984833  0.77723610  1.0
  Sn  Sn1727  1  0.79525177  0.87318167  0.77723610  1.0
  Sn  Sn1728  1  0.32850817  0.31784700  0.64385250  1.0
  Sn  Sn1729  1  0.32850817  0.65118033  0.64385250  1.0
  Sn  Sn1730  1  0.32850817  0.98451367  0.64385250  1.0
  Sn  Sn1731  1  0.66184150  0.31784700  0.64385250  1.0
  Sn  Sn1732  1  0.66184150  0.65118033  0.64385250  1.0
  Sn  Sn1733  1  0.66184150  0.98451367  0.64385250  1.0
  Sn  Sn1734  1  0.99517483  0.31784700  0.64385250  1.0
  Sn  Sn1735  1  0.99517483  0.65118033  0.64385250  1.0
  Sn  Sn1736  1  0.99517483  0.98451367  0.64385250  1.0
  Sn  Sn1737  1  0.09517483  0.31784700  0.74385250  1.0
  Sn  Sn1738  1  0.09517483  0.65118033  0.74385250  1.0
  Sn  Sn1739  1  0.09517483  0.98451367  0.74385250  1.0
  Sn  Sn1740  1  0.42850817  0.31784700  0.74385250  1.0
  Sn  Sn1741  1  0.42850817  0.65118033  0.74385250  1.0
  Sn  Sn1742  1  0.42850817  0.98451367  0.74385250  1.0
  Sn  Sn1743  1  0.76184150  0.31784700  0.74385250  1.0
  Sn  Sn1744  1  0.76184150  0.65118033  0.74385250  1.0
  Sn  Sn1745  1  0.76184150  0.98451367  0.74385250  1.0
  Sn  Sn1746  1  0.13482233  0.07119533  0.61937000  1.0
  Sn  Sn1747  1  0.13482233  0.40452867  0.61937000  1.0
  Sn  Sn1748  1  0.13482233  0.73786200  0.61937000  1.0
  Sn  Sn1749  1  0.46815567  0.07119533  0.61937000  1.0
  Sn  Sn1750  1  0.46815567  0.40452867  0.61937000  1.0
  Sn  Sn1751  1  0.46815567  0.73786200  0.61937000  1.0
  Sn  Sn1752  1  0.80148900  0.07119533  0.61937000  1.0
  Sn  Sn1753  1  0.80148900  0.40452867  0.61937000  1.0
  Sn  Sn1754  1  0.80148900  0.73786200  0.61937000  1.0
  Sn  Sn1755  1  0.23482233  0.07119533  0.71937000  1.0
  Sn  Sn1756  1  0.23482233  0.40452867  0.71937000  1.0
  Sn  Sn1757  1  0.23482233  0.73786200  0.71937000  1.0
  Sn  Sn1758  1  0.56815567  0.07119533  0.71937000  1.0
  Sn  Sn1759  1  0.56815567  0.40452867  0.71937000  1.0
  Sn  Sn1760  1  0.56815567  0.73786200  0.71937000  1.0
  Sn  Sn1761  1  0.90148900  0.07119533  0.71937000  1.0
  Sn  Sn1762  1  0.90148900  0.40452867  0.71937000  1.0
  Sn  Sn1763  1  0.90148900  0.73786200  0.71937000  1.0
  Sn  Sn1764  1  0.30247210  0.18223167  0.78461810  1.0
  Sn  Sn1765  1  0.30247210  0.51556500  0.78461810  1.0
  Sn  Sn1766  1  0.30247210  0.84889833  0.78461810  1.0
  Sn  Sn1767  1  0.63580543  0.18223167  0.78461810  1.0
  Sn  Sn1768  1  0.63580543  0.51556500  0.78461810  1.0
  Sn  Sn1769  1  0.63580543  0.84889833  0.78461810  1.0
  Sn  Sn1770  1  0.96913877  0.18223167  0.78461810  1.0
  Sn  Sn1771  1  0.96913877  0.51556500  0.78461810  1.0
  Sn  Sn1772  1  0.96913877  0.84889833  0.78461810  1.0
  Sn  Sn1773  1  0.20247210  0.18223167  0.68461810  1.0
  Sn  Sn1774  1  0.20247210  0.51556500  0.68461810  1.0
  Sn  Sn1775  1  0.20247210  0.84889833  0.68461810  1.0
  Sn  Sn1776  1  0.53580543  0.18223167  0.68461810  1.0
  Sn  Sn1777  1  0.53580543  0.51556500  0.68461810  1.0
  Sn  Sn1778  1  0.53580543  0.84889833  0.68461810  1.0
  Sn  Sn1779  1  0.86913877  0.18223167  0.68461810  1.0
  Sn  Sn1780  1  0.86913877  0.51556500  0.68461810  1.0
  Sn  Sn1781  1  0.86913877  0.84889833  0.68461810  1.0
  Sn  Sn1782  1  0.26872477  0.29347033  0.75181010  1.0
  Sn  Sn1783  1  0.26872477  0.62680367  0.75181010  1.0
  Sn  Sn1784  1  0.26872477  0.96013700  0.75181010  1.0
  Sn  Sn1785  1  0.60205810  0.29347033  0.75181010  1.0
  Sn  Sn1786  1  0.60205810  0.62680367  0.75181010  1.0
  Sn  Sn1787  1  0.60205810  0.96013700  0.75181010  1.0
  Sn  Sn1788  1  0.93539143  0.29347033  0.75181010  1.0
  Sn  Sn1789  1  0.93539143  0.62680367  0.75181010  1.0
  Sn  Sn1790  1  0.93539143  0.96013700  0.75181010  1.0
  Sn  Sn1791  1  0.16872477  0.29347033  0.65181010  1.0
  Sn  Sn1792  1  0.16872477  0.62680367  0.65181010  1.0
  Sn  Sn1793  1  0.16872477  0.96013700  0.65181010  1.0
  Sn  Sn1794  1  0.50205810  0.29347033  0.65181010  1.0
  Sn  Sn1795  1  0.50205810  0.62680367  0.65181010  1.0
  Sn  Sn1796  1  0.50205810  0.96013700  0.65181010  1.0
  Sn  Sn1797  1  0.83539143  0.29347033  0.65181010  1.0
  Sn  Sn1798  1  0.83539143  0.62680367  0.65181010  1.0
  Sn  Sn1799  1  0.83539143  0.96013700  0.65181010  1.0
  Sn  Sn1800  1  0.22811200  0.06958133  0.60564600  1.0
  Sn  Sn1801  1  0.22811200  0.40291467  0.60564600  1.0
  Sn  Sn1802  1  0.22811200  0.73624800  0.60564600  1.0
  Sn  Sn1803  1  0.56144533  0.06958133  0.60564600  1.0
  Sn  Sn1804  1  0.56144533  0.40291467  0.60564600  1.0
  Sn  Sn1805  1  0.56144533  0.73624800  0.60564600  1.0
  Sn  Sn1806  1  0.89477867  0.06958133  0.60564600  1.0
  Sn  Sn1807  1  0.89477867  0.40291467  0.60564600  1.0
  Sn  Sn1808  1  0.89477867  0.73624800  0.60564600  1.0
  Sn  Sn1809  1  0.32811200  0.06958133  0.70564600  1.0
  Sn  Sn1810  1  0.32811200  0.40291467  0.70564600  1.0
  Sn  Sn1811  1  0.32811200  0.73624800  0.70564600  1.0
  Sn  Sn1812  1  0.66144533  0.06958133  0.70564600  1.0
  Sn  Sn1813  1  0.66144533  0.40291467  0.70564600  1.0
  Sn  Sn1814  1  0.66144533  0.73624800  0.70564600  1.0
  Sn  Sn1815  1  0.99477867  0.06958133  0.70564600  1.0
  Sn  Sn1816  1  0.99477867  0.40291467  0.70564600  1.0
  Sn  Sn1817  1  0.99477867  0.73624800  0.70564600  1.0
  Sn  Sn1818  1  0.06056227  0.17837600  0.77537460  1.0
  Sn  Sn1819  1  0.06056227  0.51170933  0.77537460  1.0
  Sn  Sn1820  1  0.06056227  0.84504267  0.77537460  1.0
  Sn  Sn1821  1  0.39389560  0.17837600  0.77537460  1.0
  Sn  Sn1822  1  0.39389560  0.51170933  0.77537460  1.0
  Sn  Sn1823  1  0.39389560  0.84504267  0.77537460  1.0
  Sn  Sn1824  1  0.72722893  0.17837600  0.77537460  1.0
  Sn  Sn1825  1  0.72722893  0.51170933  0.77537460  1.0
  Sn  Sn1826  1  0.72722893  0.84504267  0.77537460  1.0
  Sn  Sn1827  1  0.29389560  0.17837600  0.67537460  1.0
  Sn  Sn1828  1  0.29389560  0.51170933  0.67537460  1.0
  Sn  Sn1829  1  0.29389560  0.84504267  0.67537460  1.0
  Sn  Sn1830  1  0.62722893  0.17837600  0.67537460  1.0
  Sn  Sn1831  1  0.62722893  0.51170933  0.67537460  1.0
  Sn  Sn1832  1  0.62722893  0.84504267  0.67537460  1.0
  Sn  Sn1833  1  0.96056227  0.17837600  0.67537460  1.0
  Sn  Sn1834  1  0.96056227  0.51170933  0.67537460  1.0
  Sn  Sn1835  1  0.96056227  0.84504267  0.67537460  1.0
  Sn  Sn1836  1  0.02702677  0.28984500  0.74207610  1.0
  Sn  Sn1837  1  0.02702677  0.62317833  0.74207610  1.0
  Sn  Sn1838  1  0.02702677  0.95651167  0.74207610  1.0
  Sn  Sn1839  1  0.36036010  0.28984500  0.74207610  1.0
  Sn  Sn1840  1  0.36036010  0.62317833  0.74207610  1.0
  Sn  Sn1841  1  0.36036010  0.95651167  0.74207610  1.0
  Sn  Sn1842  1  0.69369343  0.28984500  0.74207610  1.0
  Sn  Sn1843  1  0.69369343  0.62317833  0.74207610  1.0
  Sn  Sn1844  1  0.69369343  0.95651167  0.74207610  1.0
  Sn  Sn1845  1  0.26036010  0.28984500  0.64207610  1.0
  Sn  Sn1846  1  0.26036010  0.62317833  0.64207610  1.0
  Sn  Sn1847  1  0.26036010  0.95651167  0.64207610  1.0
  Sn  Sn1848  1  0.59369343  0.28984500  0.64207610  1.0
  Sn  Sn1849  1  0.59369343  0.62317833  0.64207610  1.0
  Sn  Sn1850  1  0.59369343  0.95651167  0.64207610  1.0
  Sn  Sn1851  1  0.92702677  0.28984500  0.64207610  1.0
  Sn  Sn1852  1  0.92702677  0.62317833  0.64207610  1.0
  Sn  Sn1853  1  0.92702677  0.95651167  0.64207610  1.0
  Sn  Sn1854  1  0.15325100  0.09751133  0.69699000  1.0
  Sn  Sn1855  1  0.15325100  0.43084467  0.69699000  1.0
  Sn  Sn1856  1  0.15325100  0.76417800  0.69699000  1.0
  Sn  Sn1857  1  0.48658433  0.09751133  0.69699000  1.0
  Sn  Sn1858  1  0.48658433  0.43084467  0.69699000  1.0
  Sn  Sn1859  1  0.48658433  0.76417800  0.69699000  1.0
  Sn  Sn1860  1  0.81991767  0.09751133  0.69699000  1.0
  Sn  Sn1861  1  0.81991767  0.43084467  0.69699000  1.0
  Sn  Sn1862  1  0.81991767  0.76417800  0.69699000  1.0
  Sn  Sn1863  1  0.25325100  0.09751133  0.79699000  1.0
  Sn  Sn1864  1  0.25325100  0.43084467  0.79699000  1.0
  Sn  Sn1865  1  0.25325100  0.76417800  0.79699000  1.0
  Sn  Sn1866  1  0.58658433  0.09751133  0.79699000  1.0
  Sn  Sn1867  1  0.58658433  0.43084467  0.79699000  1.0
  Sn  Sn1868  1  0.58658433  0.76417800  0.79699000  1.0
  Sn  Sn1869  1  0.91991767  0.09751133  0.79699000  1.0
  Sn  Sn1870  1  0.91991767  0.43084467  0.79699000  1.0
  Sn  Sn1871  1  0.91991767  0.76417800  0.79699000  1.0
  Sn  Sn1872  1  0.12408893  0.20860933  0.65740960  1.0
  Sn  Sn1873  1  0.12408893  0.54194267  0.65740960  1.0
  Sn  Sn1874  1  0.12408893  0.87527600  0.65740960  1.0
  Sn  Sn1875  1  0.45742227  0.20860933  0.65740960  1.0
  Sn  Sn1876  1  0.45742227  0.54194267  0.65740960  1.0
  Sn  Sn1877  1  0.45742227  0.87527600  0.65740960  1.0
  Sn  Sn1878  1  0.79075560  0.20860933  0.65740960  1.0
  Sn  Sn1879  1  0.79075560  0.54194267  0.65740960  1.0
  Sn  Sn1880  1  0.79075560  0.87527600  0.65740960  1.0
  Sn  Sn1881  1  0.22408893  0.20860933  0.75740960  1.0
  Sn  Sn1882  1  0.22408893  0.54194267  0.75740960  1.0
  Sn  Sn1883  1  0.22408893  0.87527600  0.75740960  1.0
  Sn  Sn1884  1  0.55742227  0.20860933  0.75740960  1.0
  Sn  Sn1885  1  0.55742227  0.54194267  0.75740960  1.0
  Sn  Sn1886  1  0.55742227  0.87527600  0.75740960  1.0
  Sn  Sn1887  1  0.89075560  0.20860933  0.75740960  1.0
  Sn  Sn1888  1  0.89075560  0.54194267  0.75740960  1.0
  Sn  Sn1889  1  0.89075560  0.87527600  0.75740960  1.0
  Sn  Sn1890  1  0.09087480  0.31964667  0.62395280  1.0
  Sn  Sn1891  1  0.09087480  0.65298000  0.62395280  1.0
  Sn  Sn1892  1  0.09087480  0.98631333  0.62395280  1.0
  Sn  Sn1893  1  0.42420813  0.31964667  0.62395280  1.0
  Sn  Sn1894  1  0.42420813  0.65298000  0.62395280  1.0
  Sn  Sn1895  1  0.42420813  0.98631333  0.62395280  1.0
  Sn  Sn1896  1  0.75754147  0.31964667  0.62395280  1.0
  Sn  Sn1897  1  0.75754147  0.65298000  0.62395280  1.0
  Sn  Sn1898  1  0.75754147  0.98631333  0.62395280  1.0
  Sn  Sn1899  1  0.19087480  0.31964667  0.72395280  1.0
  Sn  Sn1900  1  0.19087480  0.65298000  0.72395280  1.0
  Sn  Sn1901  1  0.19087480  0.98631333  0.72395280  1.0
  Sn  Sn1902  1  0.52420813  0.31964667  0.72395280  1.0
  Sn  Sn1903  1  0.52420813  0.65298000  0.72395280  1.0
  Sn  Sn1904  1  0.52420813  0.98631333  0.72395280  1.0
  Sn  Sn1905  1  0.85754147  0.31964667  0.72395280  1.0
  Sn  Sn1906  1  0.85754147  0.65298000  0.72395280  1.0
  Sn  Sn1907  1  0.85754147  0.98631333  0.72395280  1.0
  Sn  Sn1908  1  0.07122140  0.04551933  0.73402840  1.0
  Sn  Sn1909  1  0.07122140  0.37885267  0.73402840  1.0
  Sn  Sn1910  1  0.07122140  0.71218600  0.73402840  1.0
  Sn  Sn1911  1  0.40455473  0.04551933  0.73402840  1.0
  Sn  Sn1912  1  0.40455473  0.37885267  0.73402840  1.0
  Sn  Sn1913  1  0.40455473  0.71218600  0.73402840  1.0
  Sn  Sn1914  1  0.73788807  0.04551933  0.73402840  1.0
  Sn  Sn1915  1  0.73788807  0.37885267  0.73402840  1.0
  Sn  Sn1916  1  0.73788807  0.71218600  0.73402840  1.0
  Sn  Sn1917  1  0.30455473  0.04551933  0.63402840  1.0
  Sn  Sn1918  1  0.30455473  0.37885267  0.63402840  1.0
  Sn  Sn1919  1  0.30455473  0.71218600  0.63402840  1.0
  Sn  Sn1920  1  0.63788807  0.04551933  0.63402840  1.0
  Sn  Sn1921  1  0.63788807  0.37885267  0.63402840  1.0
  Sn  Sn1922  1  0.63788807  0.71218600  0.63402840  1.0
  Sn  Sn1923  1  0.97122140  0.04551933  0.63402840  1.0
  Sn  Sn1924  1  0.97122140  0.37885267  0.63402840  1.0
  Sn  Sn1925  1  0.97122140  0.71218600  0.63402840  1.0
  Sn  Sn1926  1  0.03808227  0.15611600  0.70078960  1.0
  Sn  Sn1927  1  0.03808227  0.48944933  0.70078960  1.0
  Sn  Sn1928  1  0.03808227  0.82278267  0.70078960  1.0
  Sn  Sn1929  1  0.37141560  0.15611600  0.70078960  1.0
  Sn  Sn1930  1  0.37141560  0.48944933  0.70078960  1.0
  Sn  Sn1931  1  0.37141560  0.82278267  0.70078960  1.0
  Sn  Sn1932  1  0.70474893  0.15611600  0.70078960  1.0
  Sn  Sn1933  1  0.70474893  0.48944933  0.70078960  1.0
  Sn  Sn1934  1  0.70474893  0.82278267  0.70078960  1.0
  Sn  Sn1935  1  0.27141560  0.15611600  0.60078960  1.0
  Sn  Sn1936  1  0.27141560  0.48944933  0.60078960  1.0
  Sn  Sn1937  1  0.27141560  0.82278267  0.60078960  1.0
  Sn  Sn1938  1  0.60474893  0.15611600  0.60078960  1.0
  Sn  Sn1939  1  0.60474893  0.48944933  0.60078960  1.0
  Sn  Sn1940  1  0.60474893  0.82278267  0.60078960  1.0
  Sn  Sn1941  1  0.93808227  0.15611600  0.60078960  1.0
  Sn  Sn1942  1  0.93808227  0.48944933  0.60078960  1.0
  Sn  Sn1943  1  0.93808227  0.82278267  0.60078960  1.0
  Sn  Sn1944  1  0.00434267  0.26767333  0.66773100  1.0
  Sn  Sn1945  1  0.00434267  0.60100667  0.66773100  1.0
  Sn  Sn1946  1  0.00434267  0.93434000  0.66773100  1.0
  Sn  Sn1947  1  0.33767600  0.26767333  0.66773100  1.0
  Sn  Sn1948  1  0.33767600  0.60100667  0.66773100  1.0
  Sn  Sn1949  1  0.33767600  0.93434000  0.66773100  1.0
  Sn  Sn1950  1  0.67100933  0.26767333  0.66773100  1.0
  Sn  Sn1951  1  0.67100933  0.60100667  0.66773100  1.0
  Sn  Sn1952  1  0.67100933  0.93434000  0.66773100  1.0
  Sn  Sn1953  1  0.10434267  0.26767333  0.76773100  1.0
  Sn  Sn1954  1  0.10434267  0.60100667  0.76773100  1.0
  Sn  Sn1955  1  0.10434267  0.93434000  0.76773100  1.0
  Sn  Sn1956  1  0.43767600  0.26767333  0.76773100  1.0
  Sn  Sn1957  1  0.43767600  0.60100667  0.76773100  1.0
  Sn  Sn1958  1  0.43767600  0.93434000  0.76773100  1.0
  Sn  Sn1959  1  0.77100933  0.26767333  0.76773100  1.0
  Sn  Sn1960  1  0.77100933  0.60100667  0.76773100  1.0
  Sn  Sn1961  1  0.77100933  0.93434000  0.76773100  1.0
  Sn  Sn1962  1  0.14891837  0.01031033  0.64388970  1.0
  Sn  Sn1963  1  0.14891837  0.34364367  0.64388970  1.0
  Sn  Sn1964  1  0.14891837  0.67697700  0.64388970  1.0
  Sn  Sn1965  1  0.48225170  0.01031033  0.64388970  1.0
  Sn  Sn1966  1  0.48225170  0.34364367  0.64388970  1.0
  Sn  Sn1967  1  0.48225170  0.67697700  0.64388970  1.0
  Sn  Sn1968  1  0.81558503  0.01031033  0.64388970  1.0
  Sn  Sn1969  1  0.81558503  0.34364367  0.64388970  1.0
  Sn  Sn1970  1  0.81558503  0.67697700  0.64388970  1.0
  Sn  Sn1971  1  0.24891837  0.01031033  0.74388970  1.0
  Sn  Sn1972  1  0.24891837  0.34364367  0.74388970  1.0
  Sn  Sn1973  1  0.24891837  0.67697700  0.74388970  1.0
  Sn  Sn1974  1  0.58225170  0.01031033  0.74388970  1.0
  Sn  Sn1975  1  0.58225170  0.34364367  0.74388970  1.0
  Sn  Sn1976  1  0.58225170  0.67697700  0.74388970  1.0
  Sn  Sn1977  1  0.91558503  0.01031033  0.74388970  1.0
  Sn  Sn1978  1  0.91558503  0.34364367  0.74388970  1.0
  Sn  Sn1979  1  0.91558503  0.67697700  0.74388970  1.0
  Sn  Sn1980  1  0.11494250  0.12155833  0.61141750  1.0
  Sn  Sn1981  1  0.11494250  0.45489167  0.61141750  1.0
  Sn  Sn1982  1  0.11494250  0.78822500  0.61141750  1.0
  Sn  Sn1983  1  0.44827583  0.12155833  0.61141750  1.0
  Sn  Sn1984  1  0.44827583  0.45489167  0.61141750  1.0
  Sn  Sn1985  1  0.44827583  0.78822500  0.61141750  1.0
  Sn  Sn1986  1  0.78160917  0.12155833  0.61141750  1.0
  Sn  Sn1987  1  0.78160917  0.45489167  0.61141750  1.0
  Sn  Sn1988  1  0.78160917  0.78822500  0.61141750  1.0
  Sn  Sn1989  1  0.21494250  0.12155833  0.71141750  1.0
  Sn  Sn1990  1  0.21494250  0.45489167  0.71141750  1.0
  Sn  Sn1991  1  0.21494250  0.78822500  0.71141750  1.0
  Sn  Sn1992  1  0.54827583  0.12155833  0.71141750  1.0
  Sn  Sn1993  1  0.54827583  0.45489167  0.71141750  1.0
  Sn  Sn1994  1  0.54827583  0.78822500  0.71141750  1.0
  Sn  Sn1995  1  0.88160917  0.12155833  0.71141750  1.0
  Sn  Sn1996  1  0.88160917  0.45489167  0.71141750  1.0
  Sn  Sn1997  1  0.88160917  0.78822500  0.71141750  1.0
  Sn  Sn1998  1  0.28207417  0.23259767  0.77744050  1.0
  Sn  Sn1999  1  0.28207417  0.56593100  0.77744050  1.0
  Sn  Sn2000  1  0.28207417  0.89926433  0.77744050  1.0
  Sn  Sn2001  1  0.61540750  0.23259767  0.77744050  1.0
  Sn  Sn2002  1  0.61540750  0.56593100  0.77744050  1.0
  Sn  Sn2003  1  0.61540750  0.89926433  0.77744050  1.0
  Sn  Sn2004  1  0.94874083  0.23259767  0.77744050  1.0
  Sn  Sn2005  1  0.94874083  0.56593100  0.77744050  1.0
  Sn  Sn2006  1  0.94874083  0.89926433  0.77744050  1.0
  Sn  Sn2007  1  0.18207417  0.23259767  0.67744050  1.0
  Sn  Sn2008  1  0.18207417  0.56593100  0.67744050  1.0
  Sn  Sn2009  1  0.18207417  0.89926433  0.67744050  1.0
  Sn  Sn2010  1  0.51540750  0.23259767  0.67744050  1.0
  Sn  Sn2011  1  0.51540750  0.56593100  0.67744050  1.0
  Sn  Sn2012  1  0.51540750  0.89926433  0.67744050  1.0
  Sn  Sn2013  1  0.84874083  0.23259767  0.67744050  1.0
  Sn  Sn2014  1  0.84874083  0.56593100  0.67744050  1.0
  Sn  Sn2015  1  0.84874083  0.89926433  0.67744050  1.0
