# generated using pymatgen
data_Ni4Sn3
_symmetry_space_group_name_H-M   'P 1'
_cell_length_a   21.19829400
_cell_length_b   148.29636938
_cell_length_c   26.06891500
_cell_angle_alpha   96.05445222
_cell_angle_beta   90.00000000
_cell_angle_gamma   90.09884175
_symmetry_Int_Tables_number   1
_chemical_formula_structural   Ni4Sn3
_chemical_formula_sum   'Ni1152 Sn864'
_cell_volume   81493.78743907
_cell_formula_units_Z   288
loop_
 _symmetry_equiv_pos_site_id
 _symmetry_equiv_pos_as_xyz
  1  'x, y, z'
loop_
 _atom_site_type_symbol
 _atom_site_label
 _atom_site_symmetry_multiplicity
 _atom_site_fract_x
 _atom_site_fract_y
 _atom_site_fract_z
 _atom_site_occupancy
  Ni  Ni0  1  0.24746533  0.13194733  0.12813815  1.0
  Ni  Ni1  1  0.24746533  0.46528067  0.12813815  1.0
  Ni  Ni2  1  0.24746533  0.79861400  0.12813815  1.0
  Ni  Ni3  1  0.58079867  0.13194733  0.12813815  1.0
  Ni  Ni4  1  0.58079867  0.46528067  0.12813815  1.0
  Ni  Ni5  1  0.58079867  0.79861400  0.12813815  1.0
  Ni  Ni6  1  0.91413200  0.13194733  0.12813815  1.0
  Ni  Ni7  1  0.91413200  0.46528067  0.12813815  1.0
  Ni  Ni8  1  0.91413200  0.79861400  0.12813815  1.0
  Ni  Ni9  1  0.24746533  0.29861400  0.02813815  1.0
  Ni  Ni10  1  0.24746533  0.63194733  0.02813815  1.0
  Ni  Ni11  1  0.24746533  0.96528067  0.02813815  1.0
  Ni  Ni12  1  0.58079867  0.29861400  0.02813815  1.0
  Ni  Ni13  1  0.58079867  0.63194733  0.02813815  1.0
  Ni  Ni14  1  0.58079867  0.96528067  0.02813815  1.0
  Ni  Ni15  1  0.91413200  0.29861400  0.02813815  1.0
  Ni  Ni16  1  0.91413200  0.63194733  0.02813815  1.0
  Ni  Ni17  1  0.91413200  0.96528067  0.02813815  1.0
  Ni  Ni18  1  0.24625000  0.07644267  0.09438215  1.0
  Ni  Ni19  1  0.24625000  0.40977600  0.09438215  1.0
  Ni  Ni20  1  0.24625000  0.74310933  0.09438215  1.0
  Ni  Ni21  1  0.57958333  0.07644267  0.09438215  1.0
  Ni  Ni22  1  0.57958333  0.40977600  0.09438215  1.0
  Ni  Ni23  1  0.57958333  0.74310933  0.09438215  1.0
  Ni  Ni24  1  0.91291667  0.07644267  0.09438215  1.0
  Ni  Ni25  1  0.91291667  0.40977600  0.09438215  1.0
  Ni  Ni26  1  0.91291667  0.74310933  0.09438215  1.0
  Ni  Ni27  1  0.24625000  0.24310933  0.19438215  1.0
  Ni  Ni28  1  0.24625000  0.57644267  0.19438215  1.0
  Ni  Ni29  1  0.24625000  0.90977600  0.19438215  1.0
  Ni  Ni30  1  0.57958333  0.24310933  0.19438215  1.0
  Ni  Ni31  1  0.57958333  0.57644267  0.19438215  1.0
  Ni  Ni32  1  0.57958333  0.90977600  0.19438215  1.0
  Ni  Ni33  1  0.91291667  0.24310933  0.19438215  1.0
  Ni  Ni34  1  0.91291667  0.57644267  0.19438215  1.0
  Ni  Ni35  1  0.91291667  0.90977600  0.19438215  1.0
  Ni  Ni36  1  0.24657300  0.02085467  0.06109695  1.0
  Ni  Ni37  1  0.24657300  0.35418800  0.06109695  1.0
  Ni  Ni38  1  0.24657300  0.68752133  0.06109695  1.0
  Ni  Ni39  1  0.57990633  0.02085467  0.06109695  1.0
  Ni  Ni40  1  0.57990633  0.35418800  0.06109695  1.0
  Ni  Ni41  1  0.57990633  0.68752133  0.06109695  1.0
  Ni  Ni42  1  0.91323967  0.02085467  0.06109695  1.0
  Ni  Ni43  1  0.91323967  0.35418800  0.06109695  1.0
  Ni  Ni44  1  0.91323967  0.68752133  0.06109695  1.0
  Ni  Ni45  1  0.24657300  0.18752133  0.16109695  1.0
  Ni  Ni46  1  0.24657300  0.52085467  0.16109695  1.0
  Ni  Ni47  1  0.24657300  0.85418800  0.16109695  1.0
  Ni  Ni48  1  0.57990633  0.18752133  0.16109695  1.0
  Ni  Ni49  1  0.57990633  0.52085467  0.16109695  1.0
  Ni  Ni50  1  0.57990633  0.85418800  0.16109695  1.0
  Ni  Ni51  1  0.91323967  0.18752133  0.16109695  1.0
  Ni  Ni52  1  0.91323967  0.52085467  0.16109695  1.0
  Ni  Ni53  1  0.91323967  0.85418800  0.16109695  1.0
  Ni  Ni54  1  0.08085067  0.11801000  0.02061255  1.0
  Ni  Ni55  1  0.08085067  0.45134333  0.02061255  1.0
  Ni  Ni56  1  0.08085067  0.78467667  0.02061255  1.0
  Ni  Ni57  1  0.41418400  0.11801000  0.02061255  1.0
  Ni  Ni58  1  0.41418400  0.45134333  0.02061255  1.0
  Ni  Ni59  1  0.41418400  0.78467667  0.02061255  1.0
  Ni  Ni60  1  0.74751733  0.11801000  0.02061255  1.0
  Ni  Ni61  1  0.74751733  0.45134333  0.02061255  1.0
  Ni  Ni62  1  0.74751733  0.78467667  0.02061255  1.0
  Ni  Ni63  1  0.08085067  0.28467667  0.12061255  1.0
  Ni  Ni64  1  0.08085067  0.61801000  0.12061255  1.0
  Ni  Ni65  1  0.08085067  0.95134333  0.12061255  1.0
  Ni  Ni66  1  0.41418400  0.28467667  0.12061255  1.0
  Ni  Ni67  1  0.41418400  0.61801000  0.12061255  1.0
  Ni  Ni68  1  0.41418400  0.95134333  0.12061255  1.0
  Ni  Ni69  1  0.74751733  0.28467667  0.12061255  1.0
  Ni  Ni70  1  0.74751733  0.61801000  0.12061255  1.0
  Ni  Ni71  1  0.74751733  0.95134333  0.12061255  1.0
  Ni  Ni72  1  0.07785967  0.06245950  0.18739485  1.0
  Ni  Ni73  1  0.07785967  0.39579283  0.18739485  1.0
  Ni  Ni74  1  0.07785967  0.72912617  0.18739485  1.0
  Ni  Ni75  1  0.41119300  0.06245950  0.18739485  1.0
  Ni  Ni76  1  0.41119300  0.39579283  0.18739485  1.0
  Ni  Ni77  1  0.41119300  0.72912617  0.18739485  1.0
  Ni  Ni78  1  0.74452633  0.06245950  0.18739485  1.0
  Ni  Ni79  1  0.74452633  0.39579283  0.18739485  1.0
  Ni  Ni80  1  0.74452633  0.72912617  0.18739485  1.0
  Ni  Ni81  1  0.07785967  0.22912617  0.08739485  1.0
  Ni  Ni82  1  0.07785967  0.56245950  0.08739485  1.0
  Ni  Ni83  1  0.07785967  0.89579283  0.08739485  1.0
  Ni  Ni84  1  0.41119300  0.22912617  0.08739485  1.0
  Ni  Ni85  1  0.41119300  0.56245950  0.08739485  1.0
  Ni  Ni86  1  0.41119300  0.89579283  0.08739485  1.0
  Ni  Ni87  1  0.74452633  0.22912617  0.08739485  1.0
  Ni  Ni88  1  0.74452633  0.56245950  0.08739485  1.0
  Ni  Ni89  1  0.74452633  0.89579283  0.08739485  1.0
  Ni  Ni90  1  0.07767500  0.00681083  0.15409445  1.0
  Ni  Ni91  1  0.07767500  0.34014417  0.15409445  1.0
  Ni  Ni92  1  0.07767500  0.67347750  0.15409445  1.0
  Ni  Ni93  1  0.41100833  0.00681083  0.15409445  1.0
  Ni  Ni94  1  0.41100833  0.34014417  0.15409445  1.0
  Ni  Ni95  1  0.41100833  0.67347750  0.15409445  1.0
  Ni  Ni96  1  0.74434167  0.00681083  0.15409445  1.0
  Ni  Ni97  1  0.74434167  0.34014417  0.15409445  1.0
  Ni  Ni98  1  0.74434167  0.67347750  0.15409445  1.0
  Ni  Ni99  1  0.07767500  0.17347750  0.05409445  1.0
  Ni  Ni100  1  0.07767500  0.50681083  0.05409445  1.0
  Ni  Ni101  1  0.07767500  0.84014417  0.05409445  1.0
  Ni  Ni102  1  0.41100833  0.17347750  0.05409445  1.0
  Ni  Ni103  1  0.41100833  0.50681083  0.05409445  1.0
  Ni  Ni104  1  0.41100833  0.84014417  0.05409445  1.0
  Ni  Ni105  1  0.74434167  0.17347750  0.05409445  1.0
  Ni  Ni106  1  0.74434167  0.50681083  0.05409445  1.0
  Ni  Ni107  1  0.74434167  0.84014417  0.05409445  1.0
  Ni  Ni108  1  0.08701633  0.14556717  0.03598285  1.0
  Ni  Ni109  1  0.08701633  0.47890050  0.03598285  1.0
  Ni  Ni110  1  0.08701633  0.81223383  0.03598285  1.0
  Ni  Ni111  1  0.42034967  0.14556717  0.03598285  1.0
  Ni  Ni112  1  0.42034967  0.47890050  0.03598285  1.0
  Ni  Ni113  1  0.42034967  0.81223383  0.03598285  1.0
  Ni  Ni114  1  0.75368300  0.14556717  0.03598285  1.0
  Ni  Ni115  1  0.75368300  0.47890050  0.03598285  1.0
  Ni  Ni116  1  0.75368300  0.81223383  0.03598285  1.0
  Ni  Ni117  1  0.08701633  0.31223383  0.13598285  1.0
  Ni  Ni118  1  0.08701633  0.64556717  0.13598285  1.0
  Ni  Ni119  1  0.08701633  0.97890050  0.13598285  1.0
  Ni  Ni120  1  0.42034967  0.31223383  0.13598285  1.0
  Ni  Ni121  1  0.42034967  0.64556717  0.13598285  1.0
  Ni  Ni122  1  0.42034967  0.97890050  0.13598285  1.0
  Ni  Ni123  1  0.75368300  0.31223383  0.13598285  1.0
  Ni  Ni124  1  0.75368300  0.64556717  0.13598285  1.0
  Ni  Ni125  1  0.75368300  0.97890050  0.13598285  1.0
  Ni  Ni126  1  0.08694133  0.09062883  0.00274665  1.0
  Ni  Ni127  1  0.08694133  0.42396217  0.00274665  1.0
  Ni  Ni128  1  0.08694133  0.75729550  0.00274665  1.0
  Ni  Ni129  1  0.42027467  0.09062883  0.00274665  1.0
  Ni  Ni130  1  0.42027467  0.42396217  0.00274665  1.0
  Ni  Ni131  1  0.42027467  0.75729550  0.00274665  1.0
  Ni  Ni132  1  0.75360800  0.09062883  0.00274665  1.0
  Ni  Ni133  1  0.75360800  0.42396217  0.00274665  1.0
  Ni  Ni134  1  0.75360800  0.75729550  0.00274665  1.0
  Ni  Ni135  1  0.08694133  0.25729550  0.10274665  1.0
  Ni  Ni136  1  0.08694133  0.59062883  0.10274665  1.0
  Ni  Ni137  1  0.08694133  0.92396217  0.10274665  1.0
  Ni  Ni138  1  0.42027467  0.25729550  0.10274665  1.0
  Ni  Ni139  1  0.42027467  0.59062883  0.10274665  1.0
  Ni  Ni140  1  0.42027467  0.92396217  0.10274665  1.0
  Ni  Ni141  1  0.75360800  0.25729550  0.10274665  1.0
  Ni  Ni142  1  0.75360800  0.59062883  0.10274665  1.0
  Ni  Ni143  1  0.75360800  0.92396217  0.10274665  1.0
  Ni  Ni144  1  0.08824400  0.03476033  0.16900195  1.0
  Ni  Ni145  1  0.08824400  0.36809367  0.16900195  1.0
  Ni  Ni146  1  0.08824400  0.70142700  0.16900195  1.0
  Ni  Ni147  1  0.42157733  0.03476033  0.16900195  1.0
  Ni  Ni148  1  0.42157733  0.36809367  0.16900195  1.0
  Ni  Ni149  1  0.42157733  0.70142700  0.16900195  1.0
  Ni  Ni150  1  0.75491067  0.03476033  0.16900195  1.0
  Ni  Ni151  1  0.75491067  0.36809367  0.16900195  1.0
  Ni  Ni152  1  0.75491067  0.70142700  0.16900195  1.0
  Ni  Ni153  1  0.08824400  0.20142700  0.06900195  1.0
  Ni  Ni154  1  0.08824400  0.53476033  0.06900195  1.0
  Ni  Ni155  1  0.08824400  0.86809367  0.06900195  1.0
  Ni  Ni156  1  0.42157733  0.20142700  0.06900195  1.0
  Ni  Ni157  1  0.42157733  0.53476033  0.06900195  1.0
  Ni  Ni158  1  0.42157733  0.86809367  0.06900195  1.0
  Ni  Ni159  1  0.75491067  0.20142700  0.06900195  1.0
  Ni  Ni160  1  0.75491067  0.53476033  0.06900195  1.0
  Ni  Ni161  1  0.75491067  0.86809367  0.06900195  1.0
  Ni  Ni162  1  0.25278433  0.15973483  0.14573125  1.0
  Ni  Ni163  1  0.25278433  0.49306817  0.14573125  1.0
  Ni  Ni164  1  0.25278433  0.82640150  0.14573125  1.0
  Ni  Ni165  1  0.58611767  0.15973483  0.14573125  1.0
  Ni  Ni166  1  0.58611767  0.49306817  0.14573125  1.0
  Ni  Ni167  1  0.58611767  0.82640150  0.14573125  1.0
  Ni  Ni168  1  0.91945100  0.15973483  0.14573125  1.0
  Ni  Ni169  1  0.91945100  0.49306817  0.14573125  1.0
  Ni  Ni170  1  0.91945100  0.82640150  0.14573125  1.0
  Ni  Ni171  1  0.25278433  0.32640150  0.04573125  1.0
  Ni  Ni172  1  0.25278433  0.65973483  0.04573125  1.0
  Ni  Ni173  1  0.25278433  0.99306817  0.04573125  1.0
  Ni  Ni174  1  0.58611767  0.32640150  0.04573125  1.0
  Ni  Ni175  1  0.58611767  0.65973483  0.04573125  1.0
  Ni  Ni176  1  0.58611767  0.99306817  0.04573125  1.0
  Ni  Ni177  1  0.91945100  0.32640150  0.04573125  1.0
  Ni  Ni178  1  0.91945100  0.65973483  0.04573125  1.0
  Ni  Ni179  1  0.91945100  0.99306817  0.04573125  1.0
  Ni  Ni180  1  0.25312967  0.10414283  0.11258725  1.0
  Ni  Ni181  1  0.25312967  0.43747617  0.11258725  1.0
  Ni  Ni182  1  0.25312967  0.77080950  0.11258725  1.0
  Ni  Ni183  1  0.58646300  0.10414283  0.11258725  1.0
  Ni  Ni184  1  0.58646300  0.43747617  0.11258725  1.0
  Ni  Ni185  1  0.58646300  0.77080950  0.11258725  1.0
  Ni  Ni186  1  0.91979633  0.10414283  0.11258725  1.0
  Ni  Ni187  1  0.91979633  0.43747617  0.11258725  1.0
  Ni  Ni188  1  0.91979633  0.77080950  0.11258725  1.0
  Ni  Ni189  1  0.25312967  0.27080950  0.01258725  1.0
  Ni  Ni190  1  0.25312967  0.60414283  0.01258725  1.0
  Ni  Ni191  1  0.25312967  0.93747617  0.01258725  1.0
  Ni  Ni192  1  0.58646300  0.27080950  0.01258725  1.0
  Ni  Ni193  1  0.58646300  0.60414283  0.01258725  1.0
  Ni  Ni194  1  0.58646300  0.93747617  0.01258725  1.0
  Ni  Ni195  1  0.91979633  0.27080950  0.01258725  1.0
  Ni  Ni196  1  0.91979633  0.60414283  0.01258725  1.0
  Ni  Ni197  1  0.91979633  0.93747617  0.01258725  1.0
  Ni  Ni198  1  0.25319400  0.04862650  0.07917665  1.0
  Ni  Ni199  1  0.25319400  0.38195983  0.07917665  1.0
  Ni  Ni200  1  0.25319400  0.71529317  0.07917665  1.0
  Ni  Ni201  1  0.58652733  0.04862650  0.07917665  1.0
  Ni  Ni202  1  0.58652733  0.38195983  0.07917665  1.0
  Ni  Ni203  1  0.58652733  0.71529317  0.07917665  1.0
  Ni  Ni204  1  0.91986067  0.04862650  0.07917665  1.0
  Ni  Ni205  1  0.91986067  0.38195983  0.07917665  1.0
  Ni  Ni206  1  0.91986067  0.71529317  0.07917665  1.0
  Ni  Ni207  1  0.25319400  0.21529317  0.17917665  1.0
  Ni  Ni208  1  0.25319400  0.54862650  0.17917665  1.0
  Ni  Ni209  1  0.25319400  0.88195983  0.17917665  1.0
  Ni  Ni210  1  0.58652733  0.21529317  0.17917665  1.0
  Ni  Ni211  1  0.58652733  0.54862650  0.17917665  1.0
  Ni  Ni212  1  0.58652733  0.88195983  0.17917665  1.0
  Ni  Ni213  1  0.91986067  0.21529317  0.17917665  1.0
  Ni  Ni214  1  0.91986067  0.54862650  0.17917665  1.0
  Ni  Ni215  1  0.91986067  0.88195983  0.17917665  1.0
  Ni  Ni216  1  0.08701633  0.14556717  0.13768485  1.0
  Ni  Ni217  1  0.08701633  0.47890050  0.13768485  1.0
  Ni  Ni218  1  0.08701633  0.81223383  0.13768485  1.0
  Ni  Ni219  1  0.42034967  0.14556717  0.13768485  1.0
  Ni  Ni220  1  0.42034967  0.47890050  0.13768485  1.0
  Ni  Ni221  1  0.42034967  0.81223383  0.13768485  1.0
  Ni  Ni222  1  0.75368300  0.14556717  0.13768485  1.0
  Ni  Ni223  1  0.75368300  0.47890050  0.13768485  1.0
  Ni  Ni224  1  0.75368300  0.81223383  0.13768485  1.0
  Ni  Ni225  1  0.08701633  0.31223383  0.03768485  1.0
  Ni  Ni226  1  0.08701633  0.64556717  0.03768485  1.0
  Ni  Ni227  1  0.08701633  0.97890050  0.03768485  1.0
  Ni  Ni228  1  0.42034967  0.31223383  0.03768485  1.0
  Ni  Ni229  1  0.42034967  0.64556717  0.03768485  1.0
  Ni  Ni230  1  0.42034967  0.97890050  0.03768485  1.0
  Ni  Ni231  1  0.75368300  0.31223383  0.03768485  1.0
  Ni  Ni232  1  0.75368300  0.64556717  0.03768485  1.0
  Ni  Ni233  1  0.75368300  0.97890050  0.03768485  1.0
  Ni  Ni234  1  0.08694133  0.09062883  0.10499505  1.0
  Ni  Ni235  1  0.08694133  0.42396217  0.10499505  1.0
  Ni  Ni236  1  0.08694133  0.75729550  0.10499505  1.0
  Ni  Ni237  1  0.42027467  0.09062883  0.10499505  1.0
  Ni  Ni238  1  0.42027467  0.42396217  0.10499505  1.0
  Ni  Ni239  1  0.42027467  0.75729550  0.10499505  1.0
  Ni  Ni240  1  0.75360800  0.09062883  0.10499505  1.0
  Ni  Ni241  1  0.75360800  0.42396217  0.10499505  1.0
  Ni  Ni242  1  0.75360800  0.75729550  0.10499505  1.0
  Ni  Ni243  1  0.08694133  0.25729550  0.00499505  1.0
  Ni  Ni244  1  0.08694133  0.59062883  0.00499505  1.0
  Ni  Ni245  1  0.08694133  0.92396217  0.00499505  1.0
  Ni  Ni246  1  0.42027467  0.25729550  0.00499505  1.0
  Ni  Ni247  1  0.42027467  0.59062883  0.00499505  1.0
  Ni  Ni248  1  0.42027467  0.92396217  0.00499505  1.0
  Ni  Ni249  1  0.75360800  0.25729550  0.00499505  1.0
  Ni  Ni250  1  0.75360800  0.59062883  0.00499505  1.0
  Ni  Ni251  1  0.75360800  0.92396217  0.00499505  1.0
  Ni  Ni252  1  0.08824400  0.03476033  0.07169755  1.0
  Ni  Ni253  1  0.08824400  0.36809367  0.07169755  1.0
  Ni  Ni254  1  0.08824400  0.70142700  0.07169755  1.0
  Ni  Ni255  1  0.42157733  0.03476033  0.07169755  1.0
  Ni  Ni256  1  0.42157733  0.36809367  0.07169755  1.0
  Ni  Ni257  1  0.42157733  0.70142700  0.07169755  1.0
  Ni  Ni258  1  0.75491067  0.03476033  0.07169755  1.0
  Ni  Ni259  1  0.75491067  0.36809367  0.07169755  1.0
  Ni  Ni260  1  0.75491067  0.70142700  0.07169755  1.0
  Ni  Ni261  1  0.08824400  0.20142700  0.17169755  1.0
  Ni  Ni262  1  0.08824400  0.53476033  0.17169755  1.0
  Ni  Ni263  1  0.08824400  0.86809367  0.17169755  1.0
  Ni  Ni264  1  0.42157733  0.20142700  0.17169755  1.0
  Ni  Ni265  1  0.42157733  0.53476033  0.17169755  1.0
  Ni  Ni266  1  0.42157733  0.86809367  0.17169755  1.0
  Ni  Ni267  1  0.75491067  0.20142700  0.17169755  1.0
  Ni  Ni268  1  0.75491067  0.53476033  0.17169755  1.0
  Ni  Ni269  1  0.75491067  0.86809367  0.17169755  1.0
  Ni  Ni270  1  0.25278433  0.15973483  0.04493765  1.0
  Ni  Ni271  1  0.25278433  0.49306817  0.04493765  1.0
  Ni  Ni272  1  0.25278433  0.82640150  0.04493765  1.0
  Ni  Ni273  1  0.58611767  0.15973483  0.04493765  1.0
  Ni  Ni274  1  0.58611767  0.49306817  0.04493765  1.0
  Ni  Ni275  1  0.58611767  0.82640150  0.04493765  1.0
  Ni  Ni276  1  0.91945100  0.15973483  0.04493765  1.0
  Ni  Ni277  1  0.91945100  0.49306817  0.04493765  1.0
  Ni  Ni278  1  0.91945100  0.82640150  0.04493765  1.0
  Ni  Ni279  1  0.25278433  0.32640150  0.14493765  1.0
  Ni  Ni280  1  0.25278433  0.65973483  0.14493765  1.0
  Ni  Ni281  1  0.25278433  0.99306817  0.14493765  1.0
  Ni  Ni282  1  0.58611767  0.32640150  0.14493765  1.0
  Ni  Ni283  1  0.58611767  0.65973483  0.14493765  1.0
  Ni  Ni284  1  0.58611767  0.99306817  0.14493765  1.0
  Ni  Ni285  1  0.91945100  0.32640150  0.14493765  1.0
  Ni  Ni286  1  0.91945100  0.65973483  0.14493765  1.0
  Ni  Ni287  1  0.91945100  0.99306817  0.14493765  1.0
  Ni  Ni288  1  0.25312967  0.10414283  0.01137125  1.0
  Ni  Ni289  1  0.25312967  0.43747617  0.01137125  1.0
  Ni  Ni290  1  0.25312967  0.77080950  0.01137125  1.0
  Ni  Ni291  1  0.58646300  0.10414283  0.01137125  1.0
  Ni  Ni292  1  0.58646300  0.43747617  0.01137125  1.0
  Ni  Ni293  1  0.58646300  0.77080950  0.01137125  1.0
  Ni  Ni294  1  0.91979633  0.10414283  0.01137125  1.0
  Ni  Ni295  1  0.91979633  0.43747617  0.01137125  1.0
  Ni  Ni296  1  0.91979633  0.77080950  0.01137125  1.0
  Ni  Ni297  1  0.25312967  0.27080950  0.11137125  1.0
  Ni  Ni298  1  0.25312967  0.60414283  0.11137125  1.0
  Ni  Ni299  1  0.25312967  0.93747617  0.11137125  1.0
  Ni  Ni300  1  0.58646300  0.27080950  0.11137125  1.0
  Ni  Ni301  1  0.58646300  0.60414283  0.11137125  1.0
  Ni  Ni302  1  0.58646300  0.93747617  0.11137125  1.0
  Ni  Ni303  1  0.91979633  0.27080950  0.11137125  1.0
  Ni  Ni304  1  0.91979633  0.60414283  0.11137125  1.0
  Ni  Ni305  1  0.91979633  0.93747617  0.11137125  1.0
  Ni  Ni306  1  0.25319400  0.04862650  0.17816225  1.0
  Ni  Ni307  1  0.25319400  0.38195983  0.17816225  1.0
  Ni  Ni308  1  0.25319400  0.71529317  0.17816225  1.0
  Ni  Ni309  1  0.58652733  0.04862650  0.17816225  1.0
  Ni  Ni310  1  0.58652733  0.38195983  0.17816225  1.0
  Ni  Ni311  1  0.58652733  0.71529317  0.17816225  1.0
  Ni  Ni312  1  0.91986067  0.04862650  0.17816225  1.0
  Ni  Ni313  1  0.91986067  0.38195983  0.17816225  1.0
  Ni  Ni314  1  0.91986067  0.71529317  0.17816225  1.0
  Ni  Ni315  1  0.25319400  0.21529317  0.07816225  1.0
  Ni  Ni316  1  0.25319400  0.54862650  0.07816225  1.0
  Ni  Ni317  1  0.25319400  0.88195983  0.07816225  1.0
  Ni  Ni318  1  0.58652733  0.21529317  0.07816225  1.0
  Ni  Ni319  1  0.58652733  0.54862650  0.07816225  1.0
  Ni  Ni320  1  0.58652733  0.88195983  0.07816225  1.0
  Ni  Ni321  1  0.91986067  0.21529317  0.07816225  1.0
  Ni  Ni322  1  0.91986067  0.54862650  0.07816225  1.0
  Ni  Ni323  1  0.91986067  0.88195983  0.07816225  1.0
  Ni  Ni324  1  0.24746533  0.13194733  0.02918575  1.0
  Ni  Ni325  1  0.24746533  0.46528067  0.02918575  1.0
  Ni  Ni326  1  0.24746533  0.79861400  0.02918575  1.0
  Ni  Ni327  1  0.58079867  0.13194733  0.02918575  1.0
  Ni  Ni328  1  0.58079867  0.46528067  0.02918575  1.0
  Ni  Ni329  1  0.58079867  0.79861400  0.02918575  1.0
  Ni  Ni330  1  0.91413200  0.13194733  0.02918575  1.0
  Ni  Ni331  1  0.91413200  0.46528067  0.02918575  1.0
  Ni  Ni332  1  0.91413200  0.79861400  0.02918575  1.0
  Ni  Ni333  1  0.24746533  0.29861400  0.12918575  1.0
  Ni  Ni334  1  0.24746533  0.63194733  0.12918575  1.0
  Ni  Ni335  1  0.24746533  0.96528067  0.12918575  1.0
  Ni  Ni336  1  0.58079867  0.29861400  0.12918575  1.0
  Ni  Ni337  1  0.58079867  0.63194733  0.12918575  1.0
  Ni  Ni338  1  0.58079867  0.96528067  0.12918575  1.0
  Ni  Ni339  1  0.91413200  0.29861400  0.12918575  1.0
  Ni  Ni340  1  0.91413200  0.63194733  0.12918575  1.0
  Ni  Ni341  1  0.91413200  0.96528067  0.12918575  1.0
  Ni  Ni342  1  0.24625000  0.07644267  0.19633615  1.0
  Ni  Ni343  1  0.24625000  0.40977600  0.19633615  1.0
  Ni  Ni344  1  0.24625000  0.74310933  0.19633615  1.0
  Ni  Ni345  1  0.57958333  0.07644267  0.19633615  1.0
  Ni  Ni346  1  0.57958333  0.40977600  0.19633615  1.0
  Ni  Ni347  1  0.57958333  0.74310933  0.19633615  1.0
  Ni  Ni348  1  0.91291667  0.07644267  0.19633615  1.0
  Ni  Ni349  1  0.91291667  0.40977600  0.19633615  1.0
  Ni  Ni350  1  0.91291667  0.74310933  0.19633615  1.0
  Ni  Ni351  1  0.24625000  0.24310933  0.09633615  1.0
  Ni  Ni352  1  0.24625000  0.57644267  0.09633615  1.0
  Ni  Ni353  1  0.24625000  0.90977600  0.09633615  1.0
  Ni  Ni354  1  0.57958333  0.24310933  0.09633615  1.0
  Ni  Ni355  1  0.57958333  0.57644267  0.09633615  1.0
  Ni  Ni356  1  0.57958333  0.90977600  0.09633615  1.0
  Ni  Ni357  1  0.91291667  0.24310933  0.09633615  1.0
  Ni  Ni358  1  0.91291667  0.57644267  0.09633615  1.0
  Ni  Ni359  1  0.91291667  0.90977600  0.09633615  1.0
  Ni  Ni360  1  0.24657300  0.02085467  0.16291575  1.0
  Ni  Ni361  1  0.24657300  0.35418800  0.16291575  1.0
  Ni  Ni362  1  0.24657300  0.68752133  0.16291575  1.0
  Ni  Ni363  1  0.57990633  0.02085467  0.16291575  1.0
  Ni  Ni364  1  0.57990633  0.35418800  0.16291575  1.0
  Ni  Ni365  1  0.57990633  0.68752133  0.16291575  1.0
  Ni  Ni366  1  0.91323967  0.02085467  0.16291575  1.0
  Ni  Ni367  1  0.91323967  0.35418800  0.16291575  1.0
  Ni  Ni368  1  0.91323967  0.68752133  0.16291575  1.0
  Ni  Ni369  1  0.24657300  0.18752133  0.06291575  1.0
  Ni  Ni370  1  0.24657300  0.52085467  0.06291575  1.0
  Ni  Ni371  1  0.24657300  0.85418800  0.06291575  1.0
  Ni  Ni372  1  0.57990633  0.18752133  0.06291575  1.0
  Ni  Ni373  1  0.57990633  0.52085467  0.06291575  1.0
  Ni  Ni374  1  0.57990633  0.85418800  0.06291575  1.0
  Ni  Ni375  1  0.91323967  0.18752133  0.06291575  1.0
  Ni  Ni376  1  0.91323967  0.52085467  0.06291575  1.0
  Ni  Ni377  1  0.91323967  0.85418800  0.06291575  1.0
  Ni  Ni378  1  0.08085067  0.11801000  0.11998655  1.0
  Ni  Ni379  1  0.08085067  0.45134333  0.11998655  1.0
  Ni  Ni380  1  0.08085067  0.78467667  0.11998655  1.0
  Ni  Ni381  1  0.41418400  0.11801000  0.11998655  1.0
  Ni  Ni382  1  0.41418400  0.45134333  0.11998655  1.0
  Ni  Ni383  1  0.41418400  0.78467667  0.11998655  1.0
  Ni  Ni384  1  0.74751733  0.11801000  0.11998655  1.0
  Ni  Ni385  1  0.74751733  0.45134333  0.11998655  1.0
  Ni  Ni386  1  0.74751733  0.78467667  0.11998655  1.0
  Ni  Ni387  1  0.08085067  0.28467667  0.01998655  1.0
  Ni  Ni388  1  0.08085067  0.61801000  0.01998655  1.0
  Ni  Ni389  1  0.08085067  0.95134333  0.01998655  1.0
  Ni  Ni390  1  0.41418400  0.28467667  0.01998655  1.0
  Ni  Ni391  1  0.41418400  0.61801000  0.01998655  1.0
  Ni  Ni392  1  0.41418400  0.95134333  0.01998655  1.0
  Ni  Ni393  1  0.74751733  0.28467667  0.01998655  1.0
  Ni  Ni394  1  0.74751733  0.61801000  0.01998655  1.0
  Ni  Ni395  1  0.74751733  0.95134333  0.01998655  1.0
  Ni  Ni396  1  0.07785967  0.06245950  0.08654365  1.0
  Ni  Ni397  1  0.07785967  0.39579283  0.08654365  1.0
  Ni  Ni398  1  0.07785967  0.72912617  0.08654365  1.0
  Ni  Ni399  1  0.41119300  0.06245950  0.08654365  1.0
  Ni  Ni400  1  0.41119300  0.39579283  0.08654365  1.0
  Ni  Ni401  1  0.41119300  0.72912617  0.08654365  1.0
  Ni  Ni402  1  0.74452633  0.06245950  0.08654365  1.0
  Ni  Ni403  1  0.74452633  0.39579283  0.08654365  1.0
  Ni  Ni404  1  0.74452633  0.72912617  0.08654365  1.0
  Ni  Ni405  1  0.07785967  0.22912617  0.18654365  1.0
  Ni  Ni406  1  0.07785967  0.56245950  0.18654365  1.0
  Ni  Ni407  1  0.07785967  0.89579283  0.18654365  1.0
  Ni  Ni408  1  0.41119300  0.22912617  0.18654365  1.0
  Ni  Ni409  1  0.41119300  0.56245950  0.18654365  1.0
  Ni  Ni410  1  0.41119300  0.89579283  0.18654365  1.0
  Ni  Ni411  1  0.74452633  0.22912617  0.18654365  1.0
  Ni  Ni412  1  0.74452633  0.56245950  0.18654365  1.0
  Ni  Ni413  1  0.74452633  0.89579283  0.18654365  1.0
  Ni  Ni414  1  0.07767500  0.00681083  0.05306565  1.0
  Ni  Ni415  1  0.07767500  0.34014417  0.05306565  1.0
  Ni  Ni416  1  0.07767500  0.67347750  0.05306565  1.0
  Ni  Ni417  1  0.41100833  0.00681083  0.05306565  1.0
  Ni  Ni418  1  0.41100833  0.34014417  0.05306565  1.0
  Ni  Ni419  1  0.41100833  0.67347750  0.05306565  1.0
  Ni  Ni420  1  0.74434167  0.00681083  0.05306565  1.0
  Ni  Ni421  1  0.74434167  0.34014417  0.05306565  1.0
  Ni  Ni422  1  0.74434167  0.67347750  0.05306565  1.0
  Ni  Ni423  1  0.07767500  0.17347750  0.15306565  1.0
  Ni  Ni424  1  0.07767500  0.50681083  0.15306565  1.0
  Ni  Ni425  1  0.07767500  0.84014417  0.15306565  1.0
  Ni  Ni426  1  0.41100833  0.17347750  0.15306565  1.0
  Ni  Ni427  1  0.41100833  0.50681083  0.15306565  1.0
  Ni  Ni428  1  0.41100833  0.84014417  0.15306565  1.0
  Ni  Ni429  1  0.74434167  0.17347750  0.15306565  1.0
  Ni  Ni430  1  0.74434167  0.50681083  0.15306565  1.0
  Ni  Ni431  1  0.74434167  0.84014417  0.15306565  1.0
  Ni  Ni432  1  0.30154433  0.06282833  0.03719055  1.0
  Ni  Ni433  1  0.30154433  0.39616167  0.03719055  1.0
  Ni  Ni434  1  0.30154433  0.72949500  0.03719055  1.0
  Ni  Ni435  1  0.63487767  0.06282833  0.03719055  1.0
  Ni  Ni436  1  0.63487767  0.39616167  0.03719055  1.0
  Ni  Ni437  1  0.63487767  0.72949500  0.03719055  1.0
  Ni  Ni438  1  0.96821100  0.06282833  0.03719055  1.0
  Ni  Ni439  1  0.96821100  0.39616167  0.03719055  1.0
  Ni  Ni440  1  0.96821100  0.72949500  0.03719055  1.0
  Ni  Ni441  1  0.30154433  0.22949500  0.13719055  1.0
  Ni  Ni442  1  0.30154433  0.56282833  0.13719055  1.0
  Ni  Ni443  1  0.30154433  0.89616167  0.13719055  1.0
  Ni  Ni444  1  0.63487767  0.22949500  0.13719055  1.0
  Ni  Ni445  1  0.63487767  0.56282833  0.13719055  1.0
  Ni  Ni446  1  0.63487767  0.89616167  0.13719055  1.0
  Ni  Ni447  1  0.96821100  0.22949500  0.13719055  1.0
  Ni  Ni448  1  0.96821100  0.56282833  0.13719055  1.0
  Ni  Ni449  1  0.96821100  0.89616167  0.13719055  1.0
  Ni  Ni450  1  0.30144600  0.00716567  0.00379295  1.0
  Ni  Ni451  1  0.30144600  0.34049900  0.00379295  1.0
  Ni  Ni452  1  0.30144600  0.67383233  0.00379295  1.0
  Ni  Ni453  1  0.63477933  0.00716567  0.00379295  1.0
  Ni  Ni454  1  0.63477933  0.34049900  0.00379295  1.0
  Ni  Ni455  1  0.63477933  0.67383233  0.00379295  1.0
  Ni  Ni456  1  0.96811267  0.00716567  0.00379295  1.0
  Ni  Ni457  1  0.96811267  0.34049900  0.00379295  1.0
  Ni  Ni458  1  0.96811267  0.67383233  0.00379295  1.0
  Ni  Ni459  1  0.30144600  0.17383233  0.10379295  1.0
  Ni  Ni460  1  0.30144600  0.50716567  0.10379295  1.0
  Ni  Ni461  1  0.30144600  0.84049900  0.10379295  1.0
  Ni  Ni462  1  0.63477933  0.17383233  0.10379295  1.0
  Ni  Ni463  1  0.63477933  0.50716567  0.10379295  1.0
  Ni  Ni464  1  0.63477933  0.84049900  0.10379295  1.0
  Ni  Ni465  1  0.96811267  0.17383233  0.10379295  1.0
  Ni  Ni466  1  0.96811267  0.50716567  0.10379295  1.0
  Ni  Ni467  1  0.96811267  0.84049900  0.10379295  1.0
  Ni  Ni468  1  0.19627033  0.14604033  0.18711775  1.0
  Ni  Ni469  1  0.19627033  0.47937367  0.18711775  1.0
  Ni  Ni470  1  0.19627033  0.81270700  0.18711775  1.0
  Ni  Ni471  1  0.52960367  0.14604033  0.18711775  1.0
  Ni  Ni472  1  0.52960367  0.47937367  0.18711775  1.0
  Ni  Ni473  1  0.52960367  0.81270700  0.18711775  1.0
  Ni  Ni474  1  0.86293700  0.14604033  0.18711775  1.0
  Ni  Ni475  1  0.86293700  0.47937367  0.18711775  1.0
  Ni  Ni476  1  0.86293700  0.81270700  0.18711775  1.0
  Ni  Ni477  1  0.19627033  0.31270700  0.08711775  1.0
  Ni  Ni478  1  0.19627033  0.64604033  0.08711775  1.0
  Ni  Ni479  1  0.19627033  0.97937367  0.08711775  1.0
  Ni  Ni480  1  0.52960367  0.31270700  0.08711775  1.0
  Ni  Ni481  1  0.52960367  0.64604033  0.08711775  1.0
  Ni  Ni482  1  0.52960367  0.97937367  0.08711775  1.0
  Ni  Ni483  1  0.86293700  0.31270700  0.08711775  1.0
  Ni  Ni484  1  0.86293700  0.64604033  0.08711775  1.0
  Ni  Ni485  1  0.86293700  0.97937367  0.08711775  1.0
  Ni  Ni486  1  0.19576767  0.09010133  0.15355435  1.0
  Ni  Ni487  1  0.19576767  0.42343467  0.15355435  1.0
  Ni  Ni488  1  0.19576767  0.75676800  0.15355435  1.0
  Ni  Ni489  1  0.52910100  0.09010133  0.15355435  1.0
  Ni  Ni490  1  0.52910100  0.42343467  0.15355435  1.0
  Ni  Ni491  1  0.52910100  0.75676800  0.15355435  1.0
  Ni  Ni492  1  0.86243433  0.09010133  0.15355435  1.0
  Ni  Ni493  1  0.86243433  0.42343467  0.15355435  1.0
  Ni  Ni494  1  0.86243433  0.75676800  0.15355435  1.0
  Ni  Ni495  1  0.19576767  0.25676800  0.05355435  1.0
  Ni  Ni496  1  0.19576767  0.59010133  0.05355435  1.0
  Ni  Ni497  1  0.19576767  0.92343467  0.05355435  1.0
  Ni  Ni498  1  0.52910100  0.25676800  0.05355435  1.0
  Ni  Ni499  1  0.52910100  0.59010133  0.05355435  1.0
  Ni  Ni500  1  0.52910100  0.92343467  0.05355435  1.0
  Ni  Ni501  1  0.86243433  0.25676800  0.05355435  1.0
  Ni  Ni502  1  0.86243433  0.59010133  0.05355435  1.0
  Ni  Ni503  1  0.86243433  0.92343467  0.05355435  1.0
  Ni  Ni504  1  0.19680400  0.03477517  0.12035865  1.0
  Ni  Ni505  1  0.19680400  0.36810850  0.12035865  1.0
  Ni  Ni506  1  0.19680400  0.70144183  0.12035865  1.0
  Ni  Ni507  1  0.53013733  0.03477517  0.12035865  1.0
  Ni  Ni508  1  0.53013733  0.36810850  0.12035865  1.0
  Ni  Ni509  1  0.53013733  0.70144183  0.12035865  1.0
  Ni  Ni510  1  0.86347067  0.03477517  0.12035865  1.0
  Ni  Ni511  1  0.86347067  0.36810850  0.12035865  1.0
  Ni  Ni512  1  0.86347067  0.70144183  0.12035865  1.0
  Ni  Ni513  1  0.19680400  0.20144183  0.02035865  1.0
  Ni  Ni514  1  0.19680400  0.53477517  0.02035865  1.0
  Ni  Ni515  1  0.19680400  0.86810850  0.02035865  1.0
  Ni  Ni516  1  0.53013733  0.20144183  0.02035865  1.0
  Ni  Ni517  1  0.53013733  0.53477517  0.02035865  1.0
  Ni  Ni518  1  0.53013733  0.86810850  0.02035865  1.0
  Ni  Ni519  1  0.86347067  0.20144183  0.02035865  1.0
  Ni  Ni520  1  0.86347067  0.53477517  0.02035865  1.0
  Ni  Ni521  1  0.86347067  0.86810850  0.02035865  1.0
  Ni  Ni522  1  0.02894667  0.15952683  0.19520965  1.0
  Ni  Ni523  1  0.02894667  0.49286017  0.19520965  1.0
  Ni  Ni524  1  0.02894667  0.82619350  0.19520965  1.0
  Ni  Ni525  1  0.36228000  0.15952683  0.19520965  1.0
  Ni  Ni526  1  0.36228000  0.49286017  0.19520965  1.0
  Ni  Ni527  1  0.36228000  0.82619350  0.19520965  1.0
  Ni  Ni528  1  0.69561333  0.15952683  0.19520965  1.0
  Ni  Ni529  1  0.69561333  0.49286017  0.19520965  1.0
  Ni  Ni530  1  0.69561333  0.82619350  0.19520965  1.0
  Ni  Ni531  1  0.02894667  0.32619350  0.09520965  1.0
  Ni  Ni532  1  0.02894667  0.65952683  0.09520965  1.0
  Ni  Ni533  1  0.02894667  0.99286017  0.09520965  1.0
  Ni  Ni534  1  0.36228000  0.32619350  0.09520965  1.0
  Ni  Ni535  1  0.36228000  0.65952683  0.09520965  1.0
  Ni  Ni536  1  0.36228000  0.99286017  0.09520965  1.0
  Ni  Ni537  1  0.69561333  0.32619350  0.09520965  1.0
  Ni  Ni538  1  0.69561333  0.65952683  0.09520965  1.0
  Ni  Ni539  1  0.69561333  0.99286017  0.09520965  1.0
  Ni  Ni540  1  0.02886800  0.10428900  0.16206695  1.0
  Ni  Ni541  1  0.02886800  0.43762233  0.16206695  1.0
  Ni  Ni542  1  0.02886800  0.77095567  0.16206695  1.0
  Ni  Ni543  1  0.36220133  0.10428900  0.16206695  1.0
  Ni  Ni544  1  0.36220133  0.43762233  0.16206695  1.0
  Ni  Ni545  1  0.36220133  0.77095567  0.16206695  1.0
  Ni  Ni546  1  0.69553467  0.10428900  0.16206695  1.0
  Ni  Ni547  1  0.69553467  0.43762233  0.16206695  1.0
  Ni  Ni548  1  0.69553467  0.77095567  0.16206695  1.0
  Ni  Ni549  1  0.02886800  0.27095567  0.06206695  1.0
  Ni  Ni550  1  0.02886800  0.60428900  0.06206695  1.0
  Ni  Ni551  1  0.02886800  0.93762233  0.06206695  1.0
  Ni  Ni552  1  0.36220133  0.27095567  0.06206695  1.0
  Ni  Ni553  1  0.36220133  0.60428900  0.06206695  1.0
  Ni  Ni554  1  0.36220133  0.93762233  0.06206695  1.0
  Ni  Ni555  1  0.69553467  0.27095567  0.06206695  1.0
  Ni  Ni556  1  0.69553467  0.60428900  0.06206695  1.0
  Ni  Ni557  1  0.69553467  0.93762233  0.06206695  1.0
  Ni  Ni558  1  0.02893700  0.04854383  0.12861985  1.0
  Ni  Ni559  1  0.02893700  0.38187717  0.12861985  1.0
  Ni  Ni560  1  0.02893700  0.71521050  0.12861985  1.0
  Ni  Ni561  1  0.36227033  0.04854383  0.12861985  1.0
  Ni  Ni562  1  0.36227033  0.38187717  0.12861985  1.0
  Ni  Ni563  1  0.36227033  0.71521050  0.12861985  1.0
  Ni  Ni564  1  0.69560367  0.04854383  0.12861985  1.0
  Ni  Ni565  1  0.69560367  0.38187717  0.12861985  1.0
  Ni  Ni566  1  0.69560367  0.71521050  0.12861985  1.0
  Ni  Ni567  1  0.02893700  0.21521050  0.02861985  1.0
  Ni  Ni568  1  0.02893700  0.54854383  0.02861985  1.0
  Ni  Ni569  1  0.02893700  0.88187717  0.02861985  1.0
  Ni  Ni570  1  0.36227033  0.21521050  0.02861985  1.0
  Ni  Ni571  1  0.36227033  0.54854383  0.02861985  1.0
  Ni  Ni572  1  0.36227033  0.88187717  0.02861985  1.0
  Ni  Ni573  1  0.69560367  0.21521050  0.02861985  1.0
  Ni  Ni574  1  0.69560367  0.54854383  0.02861985  1.0
  Ni  Ni575  1  0.69560367  0.88187717  0.02861985  1.0
  Sn  Sn576  1  0.03050900  0.15847650  0.09457945  1.0
  Sn  Sn577  1  0.03050900  0.49180983  0.09457945  1.0
  Sn  Sn578  1  0.03050900  0.82514317  0.09457945  1.0
  Sn  Sn579  1  0.36384233  0.15847650  0.09457945  1.0
  Sn  Sn580  1  0.36384233  0.49180983  0.09457945  1.0
  Sn  Sn581  1  0.36384233  0.82514317  0.09457945  1.0
  Sn  Sn582  1  0.69717567  0.15847650  0.09457945  1.0
  Sn  Sn583  1  0.69717567  0.49180983  0.09457945  1.0
  Sn  Sn584  1  0.69717567  0.82514317  0.09457945  1.0
  Sn  Sn585  1  0.03050900  0.32514317  0.19457945  1.0
  Sn  Sn586  1  0.03050900  0.65847650  0.19457945  1.0
  Sn  Sn587  1  0.03050900  0.99180983  0.19457945  1.0
  Sn  Sn588  1  0.36384233  0.32514317  0.19457945  1.0
  Sn  Sn589  1  0.36384233  0.65847650  0.19457945  1.0
  Sn  Sn590  1  0.36384233  0.99180983  0.19457945  1.0
  Sn  Sn591  1  0.69717567  0.32514317  0.19457945  1.0
  Sn  Sn592  1  0.69717567  0.65847650  0.19457945  1.0
  Sn  Sn593  1  0.69717567  0.99180983  0.19457945  1.0
  Sn  Sn594  1  0.02768967  0.10410350  0.06195565  1.0
  Sn  Sn595  1  0.02768967  0.43743683  0.06195565  1.0
  Sn  Sn596  1  0.02768967  0.77077017  0.06195565  1.0
  Sn  Sn597  1  0.36102300  0.10410350  0.06195565  1.0
  Sn  Sn598  1  0.36102300  0.43743683  0.06195565  1.0
  Sn  Sn599  1  0.36102300  0.77077017  0.06195565  1.0
  Sn  Sn600  1  0.69435633  0.10410350  0.06195565  1.0
  Sn  Sn601  1  0.69435633  0.43743683  0.06195565  1.0
  Sn  Sn602  1  0.69435633  0.77077017  0.06195565  1.0
  Sn  Sn603  1  0.02768967  0.27077017  0.16195565  1.0
  Sn  Sn604  1  0.02768967  0.60410350  0.16195565  1.0
  Sn  Sn605  1  0.02768967  0.93743683  0.16195565  1.0
  Sn  Sn606  1  0.36102300  0.27077017  0.16195565  1.0
  Sn  Sn607  1  0.36102300  0.60410350  0.16195565  1.0
  Sn  Sn608  1  0.36102300  0.93743683  0.16195565  1.0
  Sn  Sn609  1  0.69435633  0.27077017  0.16195565  1.0
  Sn  Sn610  1  0.69435633  0.60410350  0.16195565  1.0
  Sn  Sn611  1  0.69435633  0.93743683  0.16195565  1.0
  Sn  Sn612  1  0.03067000  0.04756717  0.02803385  1.0
  Sn  Sn613  1  0.03067000  0.38090050  0.02803385  1.0
  Sn  Sn614  1  0.03067000  0.71423383  0.02803385  1.0
  Sn  Sn615  1  0.36400333  0.04756717  0.02803385  1.0
  Sn  Sn616  1  0.36400333  0.38090050  0.02803385  1.0
  Sn  Sn617  1  0.36400333  0.71423383  0.02803385  1.0
  Sn  Sn618  1  0.69733667  0.04756717  0.02803385  1.0
  Sn  Sn619  1  0.69733667  0.38090050  0.02803385  1.0
  Sn  Sn620  1  0.69733667  0.71423383  0.02803385  1.0
  Sn  Sn621  1  0.03067000  0.21423383  0.12803385  1.0
  Sn  Sn622  1  0.03067000  0.54756717  0.12803385  1.0
  Sn  Sn623  1  0.03067000  0.88090050  0.12803385  1.0
  Sn  Sn624  1  0.36400333  0.21423383  0.12803385  1.0
  Sn  Sn625  1  0.36400333  0.54756717  0.12803385  1.0
  Sn  Sn626  1  0.36400333  0.88090050  0.12803385  1.0
  Sn  Sn627  1  0.69733667  0.21423383  0.12803385  1.0
  Sn  Sn628  1  0.69733667  0.54756717  0.12803385  1.0
  Sn  Sn629  1  0.69733667  0.88090050  0.12803385  1.0
  Sn  Sn630  1  0.19496700  0.14600317  0.08709545  1.0
  Sn  Sn631  1  0.19496700  0.47933650  0.08709545  1.0
  Sn  Sn632  1  0.19496700  0.81266983  0.08709545  1.0
  Sn  Sn633  1  0.52830033  0.14600317  0.08709545  1.0
  Sn  Sn634  1  0.52830033  0.47933650  0.08709545  1.0
  Sn  Sn635  1  0.52830033  0.81266983  0.08709545  1.0
  Sn  Sn636  1  0.86163367  0.14600317  0.08709545  1.0
  Sn  Sn637  1  0.86163367  0.47933650  0.08709545  1.0
  Sn  Sn638  1  0.86163367  0.81266983  0.08709545  1.0
  Sn  Sn639  1  0.19496700  0.31266983  0.18709545  1.0
  Sn  Sn640  1  0.19496700  0.64600317  0.18709545  1.0
  Sn  Sn641  1  0.19496700  0.97933650  0.18709545  1.0
  Sn  Sn642  1  0.52830033  0.31266983  0.18709545  1.0
  Sn  Sn643  1  0.52830033  0.64600317  0.18709545  1.0
  Sn  Sn644  1  0.52830033  0.97933650  0.18709545  1.0
  Sn  Sn645  1  0.86163367  0.31266983  0.18709545  1.0
  Sn  Sn646  1  0.86163367  0.64600317  0.18709545  1.0
  Sn  Sn647  1  0.86163367  0.97933650  0.18709545  1.0
  Sn  Sn648  1  0.19523000  0.09062567  0.05386895  1.0
  Sn  Sn649  1  0.19523000  0.42395900  0.05386895  1.0
  Sn  Sn650  1  0.19523000  0.75729233  0.05386895  1.0
  Sn  Sn651  1  0.52856333  0.09062567  0.05386895  1.0
  Sn  Sn652  1  0.52856333  0.42395900  0.05386895  1.0
  Sn  Sn653  1  0.52856333  0.75729233  0.05386895  1.0
  Sn  Sn654  1  0.86189667  0.09062567  0.05386895  1.0
  Sn  Sn655  1  0.86189667  0.42395900  0.05386895  1.0
  Sn  Sn656  1  0.86189667  0.75729233  0.05386895  1.0
  Sn  Sn657  1  0.19523000  0.25729233  0.15386895  1.0
  Sn  Sn658  1  0.19523000  0.59062567  0.15386895  1.0
  Sn  Sn659  1  0.19523000  0.92395900  0.15386895  1.0
  Sn  Sn660  1  0.52856333  0.25729233  0.15386895  1.0
  Sn  Sn661  1  0.52856333  0.59062567  0.15386895  1.0
  Sn  Sn662  1  0.52856333  0.92395900  0.15386895  1.0
  Sn  Sn663  1  0.86189667  0.25729233  0.15386895  1.0
  Sn  Sn664  1  0.86189667  0.59062567  0.15386895  1.0
  Sn  Sn665  1  0.86189667  0.92395900  0.15386895  1.0
  Sn  Sn666  1  0.19612967  0.03502350  0.02050765  1.0
  Sn  Sn667  1  0.19612967  0.36835683  0.02050765  1.0
  Sn  Sn668  1  0.19612967  0.70169017  0.02050765  1.0
  Sn  Sn669  1  0.52946300  0.03502350  0.02050765  1.0
  Sn  Sn670  1  0.52946300  0.36835683  0.02050765  1.0
  Sn  Sn671  1  0.52946300  0.70169017  0.02050765  1.0
  Sn  Sn672  1  0.86279633  0.03502350  0.02050765  1.0
  Sn  Sn673  1  0.86279633  0.36835683  0.02050765  1.0
  Sn  Sn674  1  0.86279633  0.70169017  0.02050765  1.0
  Sn  Sn675  1  0.19612967  0.20169017  0.12050765  1.0
  Sn  Sn676  1  0.19612967  0.53502350  0.12050765  1.0
  Sn  Sn677  1  0.19612967  0.86835683  0.12050765  1.0
  Sn  Sn678  1  0.52946300  0.20169017  0.12050765  1.0
  Sn  Sn679  1  0.52946300  0.53502350  0.12050765  1.0
  Sn  Sn680  1  0.52946300  0.86835683  0.12050765  1.0
  Sn  Sn681  1  0.86279633  0.20169017  0.12050765  1.0
  Sn  Sn682  1  0.86279633  0.53502350  0.12050765  1.0
  Sn  Sn683  1  0.86279633  0.86835683  0.12050765  1.0
  Sn  Sn684  1  0.30058467  0.11892800  0.17085035  1.0
  Sn  Sn685  1  0.30058467  0.45226133  0.17085035  1.0
  Sn  Sn686  1  0.30058467  0.78559467  0.17085035  1.0
  Sn  Sn687  1  0.63391800  0.11892800  0.17085035  1.0
  Sn  Sn688  1  0.63391800  0.45226133  0.17085035  1.0
  Sn  Sn689  1  0.63391800  0.78559467  0.17085035  1.0
  Sn  Sn690  1  0.96725133  0.11892800  0.17085035  1.0
  Sn  Sn691  1  0.96725133  0.45226133  0.17085035  1.0
  Sn  Sn692  1  0.96725133  0.78559467  0.17085035  1.0
  Sn  Sn693  1  0.30058467  0.28559467  0.07085035  1.0
  Sn  Sn694  1  0.30058467  0.61892800  0.07085035  1.0
  Sn  Sn695  1  0.30058467  0.95226133  0.07085035  1.0
  Sn  Sn696  1  0.63391800  0.28559467  0.07085035  1.0
  Sn  Sn697  1  0.63391800  0.61892800  0.07085035  1.0
  Sn  Sn698  1  0.63391800  0.95226133  0.07085035  1.0
  Sn  Sn699  1  0.96725133  0.28559467  0.07085035  1.0
  Sn  Sn700  1  0.96725133  0.61892800  0.07085035  1.0
  Sn  Sn701  1  0.96725133  0.95226133  0.07085035  1.0
  Sn  Sn702  1  0.29947333  0.06340917  0.13753905  1.0
  Sn  Sn703  1  0.29947333  0.39674250  0.13753905  1.0
  Sn  Sn704  1  0.29947333  0.73007583  0.13753905  1.0
  Sn  Sn705  1  0.63280667  0.06340917  0.13753905  1.0
  Sn  Sn706  1  0.63280667  0.39674250  0.13753905  1.0
  Sn  Sn707  1  0.63280667  0.73007583  0.13753905  1.0
  Sn  Sn708  1  0.96614000  0.06340917  0.13753905  1.0
  Sn  Sn709  1  0.96614000  0.39674250  0.13753905  1.0
  Sn  Sn710  1  0.96614000  0.73007583  0.13753905  1.0
  Sn  Sn711  1  0.29947333  0.23007583  0.03753905  1.0
  Sn  Sn712  1  0.29947333  0.56340917  0.03753905  1.0
  Sn  Sn713  1  0.29947333  0.89674250  0.03753905  1.0
  Sn  Sn714  1  0.63280667  0.23007583  0.03753905  1.0
  Sn  Sn715  1  0.63280667  0.56340917  0.03753905  1.0
  Sn  Sn716  1  0.63280667  0.89674250  0.03753905  1.0
  Sn  Sn717  1  0.96614000  0.23007583  0.03753905  1.0
  Sn  Sn718  1  0.96614000  0.56340917  0.03753905  1.0
  Sn  Sn719  1  0.96614000  0.89674250  0.03753905  1.0
  Sn  Sn720  1  0.29950000  0.00774317  0.10413945  1.0
  Sn  Sn721  1  0.29950000  0.34107650  0.10413945  1.0
  Sn  Sn722  1  0.29950000  0.67440983  0.10413945  1.0
  Sn  Sn723  1  0.63283333  0.00774317  0.10413945  1.0
  Sn  Sn724  1  0.63283333  0.34107650  0.10413945  1.0
  Sn  Sn725  1  0.63283333  0.67440983  0.10413945  1.0
  Sn  Sn726  1  0.96616667  0.00774317  0.10413945  1.0
  Sn  Sn727  1  0.96616667  0.34107650  0.10413945  1.0
  Sn  Sn728  1  0.96616667  0.67440983  0.10413945  1.0
  Sn  Sn729  1  0.29950000  0.17440983  0.00413945  1.0
  Sn  Sn730  1  0.29950000  0.50774317  0.00413945  1.0
  Sn  Sn731  1  0.29950000  0.84107650  0.00413945  1.0
  Sn  Sn732  1  0.63283333  0.17440983  0.00413945  1.0
  Sn  Sn733  1  0.63283333  0.50774317  0.00413945  1.0
  Sn  Sn734  1  0.63283333  0.84107650  0.00413945  1.0
  Sn  Sn735  1  0.96616667  0.17440983  0.00413945  1.0
  Sn  Sn736  1  0.96616667  0.50774317  0.00413945  1.0
  Sn  Sn737  1  0.96616667  0.84107650  0.00413945  1.0
  Sn  Sn738  1  0.13537000  0.13106900  0.17813495  1.0
  Sn  Sn739  1  0.13537000  0.46440233  0.17813495  1.0
  Sn  Sn740  1  0.13537000  0.79773567  0.17813495  1.0
  Sn  Sn741  1  0.46870333  0.13106900  0.17813495  1.0
  Sn  Sn742  1  0.46870333  0.46440233  0.17813495  1.0
  Sn  Sn743  1  0.46870333  0.79773567  0.17813495  1.0
  Sn  Sn744  1  0.80203667  0.13106900  0.17813495  1.0
  Sn  Sn745  1  0.80203667  0.46440233  0.17813495  1.0
  Sn  Sn746  1  0.80203667  0.79773567  0.17813495  1.0
  Sn  Sn747  1  0.13537000  0.29773567  0.07813495  1.0
  Sn  Sn748  1  0.13537000  0.63106900  0.07813495  1.0
  Sn  Sn749  1  0.13537000  0.96440233  0.07813495  1.0
  Sn  Sn750  1  0.46870333  0.29773567  0.07813495  1.0
  Sn  Sn751  1  0.46870333  0.63106900  0.07813495  1.0
  Sn  Sn752  1  0.46870333  0.96440233  0.07813495  1.0
  Sn  Sn753  1  0.80203667  0.29773567  0.07813495  1.0
  Sn  Sn754  1  0.80203667  0.63106900  0.07813495  1.0
  Sn  Sn755  1  0.80203667  0.96440233  0.07813495  1.0
  Sn  Sn756  1  0.13296833  0.07555083  0.14482405  1.0
  Sn  Sn757  1  0.13296833  0.40888417  0.14482405  1.0
  Sn  Sn758  1  0.13296833  0.74221750  0.14482405  1.0
  Sn  Sn759  1  0.46630167  0.07555083  0.14482405  1.0
  Sn  Sn760  1  0.46630167  0.40888417  0.14482405  1.0
  Sn  Sn761  1  0.46630167  0.74221750  0.14482405  1.0
  Sn  Sn762  1  0.79963500  0.07555083  0.14482405  1.0
  Sn  Sn763  1  0.79963500  0.40888417  0.14482405  1.0
  Sn  Sn764  1  0.79963500  0.74221750  0.14482405  1.0
  Sn  Sn765  1  0.13296833  0.24221750  0.04482405  1.0
  Sn  Sn766  1  0.13296833  0.57555083  0.04482405  1.0
  Sn  Sn767  1  0.13296833  0.90888417  0.04482405  1.0
  Sn  Sn768  1  0.46630167  0.24221750  0.04482405  1.0
  Sn  Sn769  1  0.46630167  0.57555083  0.04482405  1.0
  Sn  Sn770  1  0.46630167  0.90888417  0.04482405  1.0
  Sn  Sn771  1  0.79963500  0.24221750  0.04482405  1.0
  Sn  Sn772  1  0.79963500  0.57555083  0.04482405  1.0
  Sn  Sn773  1  0.79963500  0.90888417  0.04482405  1.0
  Sn  Sn774  1  0.13390767  0.01993150  0.11145245  1.0
  Sn  Sn775  1  0.13390767  0.35326483  0.11145245  1.0
  Sn  Sn776  1  0.13390767  0.68659817  0.11145245  1.0
  Sn  Sn777  1  0.46724100  0.01993150  0.11145245  1.0
  Sn  Sn778  1  0.46724100  0.35326483  0.11145245  1.0
  Sn  Sn779  1  0.46724100  0.68659817  0.11145245  1.0
  Sn  Sn780  1  0.80057433  0.01993150  0.11145245  1.0
  Sn  Sn781  1  0.80057433  0.35326483  0.11145245  1.0
  Sn  Sn782  1  0.80057433  0.68659817  0.11145245  1.0
  Sn  Sn783  1  0.13390767  0.18659817  0.01145245  1.0
  Sn  Sn784  1  0.13390767  0.51993150  0.01145245  1.0
  Sn  Sn785  1  0.13390767  0.85326483  0.01145245  1.0
  Sn  Sn786  1  0.46724100  0.18659817  0.01145245  1.0
  Sn  Sn787  1  0.46724100  0.51993150  0.01145245  1.0
  Sn  Sn788  1  0.46724100  0.85326483  0.01145245  1.0
  Sn  Sn789  1  0.80057433  0.18659817  0.01145245  1.0
  Sn  Sn790  1  0.80057433  0.51993150  0.01145245  1.0
  Sn  Sn791  1  0.80057433  0.85326483  0.01145245  1.0
  Sn  Sn792  1  0.02835633  0.13187600  0.07861915  1.0
  Sn  Sn793  1  0.02835633  0.46520933  0.07861915  1.0
  Sn  Sn794  1  0.02835633  0.79854267  0.07861915  1.0
  Sn  Sn795  1  0.36168967  0.13187600  0.07861915  1.0
  Sn  Sn796  1  0.36168967  0.46520933  0.07861915  1.0
  Sn  Sn797  1  0.36168967  0.79854267  0.07861915  1.0
  Sn  Sn798  1  0.69502300  0.13187600  0.07861915  1.0
  Sn  Sn799  1  0.69502300  0.46520933  0.07861915  1.0
  Sn  Sn800  1  0.69502300  0.79854267  0.07861915  1.0
  Sn  Sn801  1  0.02835633  0.29854267  0.17861915  1.0
  Sn  Sn802  1  0.02835633  0.63187600  0.17861915  1.0
  Sn  Sn803  1  0.02835633  0.96520933  0.17861915  1.0
  Sn  Sn804  1  0.36168967  0.29854267  0.17861915  1.0
  Sn  Sn805  1  0.36168967  0.63187600  0.17861915  1.0
  Sn  Sn806  1  0.36168967  0.96520933  0.17861915  1.0
  Sn  Sn807  1  0.69502300  0.29854267  0.17861915  1.0
  Sn  Sn808  1  0.69502300  0.63187600  0.17861915  1.0
  Sn  Sn809  1  0.69502300  0.96520933  0.17861915  1.0
  Sn  Sn810  1  0.03230133  0.07747867  0.04598075  1.0
  Sn  Sn811  1  0.03230133  0.41081200  0.04598075  1.0
  Sn  Sn812  1  0.03230133  0.74414533  0.04598075  1.0
  Sn  Sn813  1  0.36563467  0.07747867  0.04598075  1.0
  Sn  Sn814  1  0.36563467  0.41081200  0.04598075  1.0
  Sn  Sn815  1  0.36563467  0.74414533  0.04598075  1.0
  Sn  Sn816  1  0.69896800  0.07747867  0.04598075  1.0
  Sn  Sn817  1  0.69896800  0.41081200  0.04598075  1.0
  Sn  Sn818  1  0.69896800  0.74414533  0.04598075  1.0
  Sn  Sn819  1  0.03230133  0.24414533  0.14598075  1.0
  Sn  Sn820  1  0.03230133  0.57747867  0.14598075  1.0
  Sn  Sn821  1  0.03230133  0.91081200  0.14598075  1.0
  Sn  Sn822  1  0.36563467  0.24414533  0.14598075  1.0
  Sn  Sn823  1  0.36563467  0.57747867  0.14598075  1.0
  Sn  Sn824  1  0.36563467  0.91081200  0.14598075  1.0
  Sn  Sn825  1  0.69896800  0.24414533  0.14598075  1.0
  Sn  Sn826  1  0.69896800  0.57747867  0.14598075  1.0
  Sn  Sn827  1  0.69896800  0.91081200  0.14598075  1.0
  Sn  Sn828  1  0.03253833  0.02174417  0.01254005  1.0
  Sn  Sn829  1  0.03253833  0.35507750  0.01254005  1.0
  Sn  Sn830  1  0.03253833  0.68841083  0.01254005  1.0
  Sn  Sn831  1  0.36587167  0.02174417  0.01254005  1.0
  Sn  Sn832  1  0.36587167  0.35507750  0.01254005  1.0
  Sn  Sn833  1  0.36587167  0.68841083  0.01254005  1.0
  Sn  Sn834  1  0.69920500  0.02174417  0.01254005  1.0
  Sn  Sn835  1  0.69920500  0.35507750  0.01254005  1.0
  Sn  Sn836  1  0.69920500  0.68841083  0.01254005  1.0
  Sn  Sn837  1  0.03253833  0.18841083  0.11254005  1.0
  Sn  Sn838  1  0.03253833  0.52174417  0.11254005  1.0
  Sn  Sn839  1  0.03253833  0.85507750  0.11254005  1.0
  Sn  Sn840  1  0.36587167  0.18841083  0.11254005  1.0
  Sn  Sn841  1  0.36587167  0.52174417  0.11254005  1.0
  Sn  Sn842  1  0.36587167  0.85507750  0.11254005  1.0
  Sn  Sn843  1  0.69920500  0.18841083  0.11254005  1.0
  Sn  Sn844  1  0.69920500  0.52174417  0.11254005  1.0
  Sn  Sn845  1  0.69920500  0.85507750  0.11254005  1.0
  Sn  Sn846  1  0.19456133  0.11791100  0.07024015  1.0
  Sn  Sn847  1  0.19456133  0.45124433  0.07024015  1.0
  Sn  Sn848  1  0.19456133  0.78457767  0.07024015  1.0
  Sn  Sn849  1  0.52789467  0.11791100  0.07024015  1.0
  Sn  Sn850  1  0.52789467  0.45124433  0.07024015  1.0
  Sn  Sn851  1  0.52789467  0.78457767  0.07024015  1.0
  Sn  Sn852  1  0.86122800  0.11791100  0.07024015  1.0
  Sn  Sn853  1  0.86122800  0.45124433  0.07024015  1.0
  Sn  Sn854  1  0.86122800  0.78457767  0.07024015  1.0
  Sn  Sn855  1  0.19456133  0.28457767  0.17024015  1.0
  Sn  Sn856  1  0.19456133  0.61791100  0.17024015  1.0
  Sn  Sn857  1  0.19456133  0.95124433  0.17024015  1.0
  Sn  Sn858  1  0.52789467  0.28457767  0.17024015  1.0
  Sn  Sn859  1  0.52789467  0.61791100  0.17024015  1.0
  Sn  Sn860  1  0.52789467  0.95124433  0.17024015  1.0
  Sn  Sn861  1  0.86122800  0.28457767  0.17024015  1.0
  Sn  Sn862  1  0.86122800  0.61791100  0.17024015  1.0
  Sn  Sn863  1  0.86122800  0.95124433  0.17024015  1.0
  Sn  Sn864  1  0.18414300  0.06236200  0.03691075  1.0
  Sn  Sn865  1  0.18414300  0.39569533  0.03691075  1.0
  Sn  Sn866  1  0.18414300  0.72902867  0.03691075  1.0
  Sn  Sn867  1  0.51747633  0.06236200  0.03691075  1.0
  Sn  Sn868  1  0.51747633  0.39569533  0.03691075  1.0
  Sn  Sn869  1  0.51747633  0.72902867  0.03691075  1.0
  Sn  Sn870  1  0.85080967  0.06236200  0.03691075  1.0
  Sn  Sn871  1  0.85080967  0.39569533  0.03691075  1.0
  Sn  Sn872  1  0.85080967  0.72902867  0.03691075  1.0
  Sn  Sn873  1  0.18414300  0.22902867  0.13691075  1.0
  Sn  Sn874  1  0.18414300  0.56236200  0.13691075  1.0
  Sn  Sn875  1  0.18414300  0.89569533  0.13691075  1.0
  Sn  Sn876  1  0.51747633  0.22902867  0.13691075  1.0
  Sn  Sn877  1  0.51747633  0.56236200  0.13691075  1.0
  Sn  Sn878  1  0.51747633  0.89569533  0.13691075  1.0
  Sn  Sn879  1  0.85080967  0.22902867  0.13691075  1.0
  Sn  Sn880  1  0.85080967  0.56236200  0.13691075  1.0
  Sn  Sn881  1  0.85080967  0.89569533  0.13691075  1.0
  Sn  Sn882  1  0.18390033  0.00684333  0.00359955  1.0
  Sn  Sn883  1  0.18390033  0.34017667  0.00359955  1.0
  Sn  Sn884  1  0.18390033  0.67351000  0.00359955  1.0
  Sn  Sn885  1  0.51723367  0.00684333  0.00359955  1.0
  Sn  Sn886  1  0.51723367  0.34017667  0.00359955  1.0
  Sn  Sn887  1  0.51723367  0.67351000  0.00359955  1.0
  Sn  Sn888  1  0.85056700  0.00684333  0.00359955  1.0
  Sn  Sn889  1  0.85056700  0.34017667  0.00359955  1.0
  Sn  Sn890  1  0.85056700  0.67351000  0.00359955  1.0
  Sn  Sn891  1  0.18390033  0.17351000  0.10359955  1.0
  Sn  Sn892  1  0.18390033  0.50684333  0.10359955  1.0
  Sn  Sn893  1  0.18390033  0.84017667  0.10359955  1.0
  Sn  Sn894  1  0.51723367  0.17351000  0.10359955  1.0
  Sn  Sn895  1  0.51723367  0.50684333  0.10359955  1.0
  Sn  Sn896  1  0.51723367  0.84017667  0.10359955  1.0
  Sn  Sn897  1  0.85056700  0.17351000  0.10359955  1.0
  Sn  Sn898  1  0.85056700  0.50684333  0.10359955  1.0
  Sn  Sn899  1  0.85056700  0.84017667  0.10359955  1.0
  Sn  Sn900  1  0.31362933  0.14390700  0.18583775  1.0
  Sn  Sn901  1  0.31362933  0.47724033  0.18583775  1.0
  Sn  Sn902  1  0.31362933  0.81057367  0.18583775  1.0
  Sn  Sn903  1  0.64696267  0.14390700  0.18583775  1.0
  Sn  Sn904  1  0.64696267  0.47724033  0.18583775  1.0
  Sn  Sn905  1  0.64696267  0.81057367  0.18583775  1.0
  Sn  Sn906  1  0.98029600  0.14390700  0.18583775  1.0
  Sn  Sn907  1  0.98029600  0.47724033  0.18583775  1.0
  Sn  Sn908  1  0.98029600  0.81057367  0.18583775  1.0
  Sn  Sn909  1  0.31362933  0.31057367  0.08583775  1.0
  Sn  Sn910  1  0.31362933  0.64390700  0.08583775  1.0
  Sn  Sn911  1  0.31362933  0.97724033  0.08583775  1.0
  Sn  Sn912  1  0.64696267  0.31057367  0.08583775  1.0
  Sn  Sn913  1  0.64696267  0.64390700  0.08583775  1.0
  Sn  Sn914  1  0.64696267  0.97724033  0.08583775  1.0
  Sn  Sn915  1  0.98029600  0.31057367  0.08583775  1.0
  Sn  Sn916  1  0.98029600  0.64390700  0.08583775  1.0
  Sn  Sn917  1  0.98029600  0.97724033  0.08583775  1.0
  Sn  Sn918  1  0.31352967  0.08860867  0.15265875  1.0
  Sn  Sn919  1  0.31352967  0.42194200  0.15265875  1.0
  Sn  Sn920  1  0.31352967  0.75527533  0.15265875  1.0
  Sn  Sn921  1  0.64686300  0.08860867  0.15265875  1.0
  Sn  Sn922  1  0.64686300  0.42194200  0.15265875  1.0
  Sn  Sn923  1  0.64686300  0.75527533  0.15265875  1.0
  Sn  Sn924  1  0.98019633  0.08860867  0.15265875  1.0
  Sn  Sn925  1  0.98019633  0.42194200  0.15265875  1.0
  Sn  Sn926  1  0.98019633  0.75527533  0.15265875  1.0
  Sn  Sn927  1  0.31352967  0.25527533  0.05265875  1.0
  Sn  Sn928  1  0.31352967  0.58860867  0.05265875  1.0
  Sn  Sn929  1  0.31352967  0.92194200  0.05265875  1.0
  Sn  Sn930  1  0.64686300  0.25527533  0.05265875  1.0
  Sn  Sn931  1  0.64686300  0.58860867  0.05265875  1.0
  Sn  Sn932  1  0.64686300  0.92194200  0.05265875  1.0
  Sn  Sn933  1  0.98019633  0.25527533  0.05265875  1.0
  Sn  Sn934  1  0.98019633  0.58860867  0.05265875  1.0
  Sn  Sn935  1  0.98019633  0.92194200  0.05265875  1.0
  Sn  Sn936  1  0.31421067  0.03283000  0.11919155  1.0
  Sn  Sn937  1  0.31421067  0.36616333  0.11919155  1.0
  Sn  Sn938  1  0.31421067  0.69949667  0.11919155  1.0
  Sn  Sn939  1  0.64754400  0.03283000  0.11919155  1.0
  Sn  Sn940  1  0.64754400  0.36616333  0.11919155  1.0
  Sn  Sn941  1  0.64754400  0.69949667  0.11919155  1.0
  Sn  Sn942  1  0.98087733  0.03283000  0.11919155  1.0
  Sn  Sn943  1  0.98087733  0.36616333  0.11919155  1.0
  Sn  Sn944  1  0.98087733  0.69949667  0.11919155  1.0
  Sn  Sn945  1  0.31421067  0.19949667  0.01919155  1.0
  Sn  Sn946  1  0.31421067  0.53283000  0.01919155  1.0
  Sn  Sn947  1  0.31421067  0.86616333  0.01919155  1.0
  Sn  Sn948  1  0.64754400  0.19949667  0.01919155  1.0
  Sn  Sn949  1  0.64754400  0.53283000  0.01919155  1.0
  Sn  Sn950  1  0.64754400  0.86616333  0.01919155  1.0
  Sn  Sn951  1  0.98087733  0.19949667  0.01919155  1.0
  Sn  Sn952  1  0.98087733  0.53283000  0.01919155  1.0
  Sn  Sn953  1  0.98087733  0.86616333  0.01919155  1.0
  Sn  Sn954  1  0.14579367  0.16151150  0.19640045  1.0
  Sn  Sn955  1  0.14579367  0.49484483  0.19640045  1.0
  Sn  Sn956  1  0.14579367  0.82817817  0.19640045  1.0
  Sn  Sn957  1  0.47912700  0.16151150  0.19640045  1.0
  Sn  Sn958  1  0.47912700  0.49484483  0.19640045  1.0
  Sn  Sn959  1  0.47912700  0.82817817  0.19640045  1.0
  Sn  Sn960  1  0.81246033  0.16151150  0.19640045  1.0
  Sn  Sn961  1  0.81246033  0.49484483  0.19640045  1.0
  Sn  Sn962  1  0.81246033  0.82817817  0.19640045  1.0
  Sn  Sn963  1  0.14579367  0.32817817  0.09640045  1.0
  Sn  Sn964  1  0.14579367  0.66151150  0.09640045  1.0
  Sn  Sn965  1  0.14579367  0.99484483  0.09640045  1.0
  Sn  Sn966  1  0.47912700  0.32817817  0.09640045  1.0
  Sn  Sn967  1  0.47912700  0.66151150  0.09640045  1.0
  Sn  Sn968  1  0.47912700  0.99484483  0.09640045  1.0
  Sn  Sn969  1  0.81246033  0.32817817  0.09640045  1.0
  Sn  Sn970  1  0.81246033  0.66151150  0.09640045  1.0
  Sn  Sn971  1  0.81246033  0.99484483  0.09640045  1.0
  Sn  Sn972  1  0.14729733  0.10588750  0.16302605  1.0
  Sn  Sn973  1  0.14729733  0.43922083  0.16302605  1.0
  Sn  Sn974  1  0.14729733  0.77255417  0.16302605  1.0
  Sn  Sn975  1  0.48063067  0.10588750  0.16302605  1.0
  Sn  Sn976  1  0.48063067  0.43922083  0.16302605  1.0
  Sn  Sn977  1  0.48063067  0.77255417  0.16302605  1.0
  Sn  Sn978  1  0.81396400  0.10588750  0.16302605  1.0
  Sn  Sn979  1  0.81396400  0.43922083  0.16302605  1.0
  Sn  Sn980  1  0.81396400  0.77255417  0.16302605  1.0
  Sn  Sn981  1  0.14729733  0.27255417  0.06302605  1.0
  Sn  Sn982  1  0.14729733  0.60588750  0.06302605  1.0
  Sn  Sn983  1  0.14729733  0.93922083  0.06302605  1.0
  Sn  Sn984  1  0.48063067  0.27255417  0.06302605  1.0
  Sn  Sn985  1  0.48063067  0.60588750  0.06302605  1.0
  Sn  Sn986  1  0.48063067  0.93922083  0.06302605  1.0
  Sn  Sn987  1  0.81396400  0.27255417  0.06302605  1.0
  Sn  Sn988  1  0.81396400  0.60588750  0.06302605  1.0
  Sn  Sn989  1  0.81396400  0.93922083  0.06302605  1.0
  Sn  Sn990  1  0.14618867  0.05036783  0.12971425  1.0
  Sn  Sn991  1  0.14618867  0.38370117  0.12971425  1.0
  Sn  Sn992  1  0.14618867  0.71703450  0.12971425  1.0
  Sn  Sn993  1  0.47952200  0.05036783  0.12971425  1.0
  Sn  Sn994  1  0.47952200  0.38370117  0.12971425  1.0
  Sn  Sn995  1  0.47952200  0.71703450  0.12971425  1.0
  Sn  Sn996  1  0.81285533  0.05036783  0.12971425  1.0
  Sn  Sn997  1  0.81285533  0.38370117  0.12971425  1.0
  Sn  Sn998  1  0.81285533  0.71703450  0.12971425  1.0
  Sn  Sn999  1  0.14618867  0.21703450  0.02971425  1.0
  Sn  Sn1000  1  0.14618867  0.55036783  0.02971425  1.0
  Sn  Sn1001  1  0.14618867  0.88370117  0.02971425  1.0
  Sn  Sn1002  1  0.47952200  0.21703450  0.02971425  1.0
  Sn  Sn1003  1  0.47952200  0.55036783  0.02971425  1.0
  Sn  Sn1004  1  0.47952200  0.88370117  0.02971425  1.0
  Sn  Sn1005  1  0.81285533  0.21703450  0.02971425  1.0
  Sn  Sn1006  1  0.81285533  0.55036783  0.02971425  1.0
  Sn  Sn1007  1  0.81285533  0.88370117  0.02971425  1.0
  Ni  Ni1008  1  0.24746533  0.13194733  0.32813815  1.0
  Ni  Ni1009  1  0.24746533  0.46528067  0.32813815  1.0
  Ni  Ni1010  1  0.24746533  0.79861400  0.32813815  1.0
  Ni  Ni1011  1  0.58079867  0.13194733  0.32813815  1.0
  Ni  Ni1012  1  0.58079867  0.46528067  0.32813815  1.0
  Ni  Ni1013  1  0.58079867  0.79861400  0.32813815  1.0
  Ni  Ni1014  1  0.91413200  0.13194733  0.32813815  1.0
  Ni  Ni1015  1  0.91413200  0.46528067  0.32813815  1.0
  Ni  Ni1016  1  0.91413200  0.79861400  0.32813815  1.0
  Ni  Ni1017  1  0.24746533  0.29861400  0.22813815  1.0
  Ni  Ni1018  1  0.24746533  0.63194733  0.22813815  1.0
  Ni  Ni1019  1  0.24746533  0.96528067  0.22813815  1.0
  Ni  Ni1020  1  0.58079867  0.29861400  0.22813815  1.0
  Ni  Ni1021  1  0.58079867  0.63194733  0.22813815  1.0
  Ni  Ni1022  1  0.58079867  0.96528067  0.22813815  1.0
  Ni  Ni1023  1  0.91413200  0.29861400  0.22813815  1.0
  Ni  Ni1024  1  0.91413200  0.63194733  0.22813815  1.0
  Ni  Ni1025  1  0.91413200  0.96528067  0.22813815  1.0
  Ni  Ni1026  1  0.24625000  0.07644267  0.29438215  1.0
  Ni  Ni1027  1  0.24625000  0.40977600  0.29438215  1.0
  Ni  Ni1028  1  0.24625000  0.74310933  0.29438215  1.0
  Ni  Ni1029  1  0.57958333  0.07644267  0.29438215  1.0
  Ni  Ni1030  1  0.57958333  0.40977600  0.29438215  1.0
  Ni  Ni1031  1  0.57958333  0.74310933  0.29438215  1.0
  Ni  Ni1032  1  0.91291667  0.07644267  0.29438215  1.0
  Ni  Ni1033  1  0.91291667  0.40977600  0.29438215  1.0
  Ni  Ni1034  1  0.91291667  0.74310933  0.29438215  1.0
  Ni  Ni1035  1  0.24625000  0.24310933  0.39438215  1.0
  Ni  Ni1036  1  0.24625000  0.57644267  0.39438215  1.0
  Ni  Ni1037  1  0.24625000  0.90977600  0.39438215  1.0
  Ni  Ni1038  1  0.57958333  0.24310933  0.39438215  1.0
  Ni  Ni1039  1  0.57958333  0.57644267  0.39438215  1.0
  Ni  Ni1040  1  0.57958333  0.90977600  0.39438215  1.0
  Ni  Ni1041  1  0.91291667  0.24310933  0.39438215  1.0
  Ni  Ni1042  1  0.91291667  0.57644267  0.39438215  1.0
  Ni  Ni1043  1  0.91291667  0.90977600  0.39438215  1.0
  Ni  Ni1044  1  0.24657300  0.02085467  0.26109695  1.0
  Ni  Ni1045  1  0.24657300  0.35418800  0.26109695  1.0
  Ni  Ni1046  1  0.24657300  0.68752133  0.26109695  1.0
  Ni  Ni1047  1  0.57990633  0.02085467  0.26109695  1.0
  Ni  Ni1048  1  0.57990633  0.35418800  0.26109695  1.0
  Ni  Ni1049  1  0.57990633  0.68752133  0.26109695  1.0
  Ni  Ni1050  1  0.91323967  0.02085467  0.26109695  1.0
  Ni  Ni1051  1  0.91323967  0.35418800  0.26109695  1.0
  Ni  Ni1052  1  0.91323967  0.68752133  0.26109695  1.0
  Ni  Ni1053  1  0.24657300  0.18752133  0.36109695  1.0
  Ni  Ni1054  1  0.24657300  0.52085467  0.36109695  1.0
  Ni  Ni1055  1  0.24657300  0.85418800  0.36109695  1.0
  Ni  Ni1056  1  0.57990633  0.18752133  0.36109695  1.0
  Ni  Ni1057  1  0.57990633  0.52085467  0.36109695  1.0
  Ni  Ni1058  1  0.57990633  0.85418800  0.36109695  1.0
  Ni  Ni1059  1  0.91323967  0.18752133  0.36109695  1.0
  Ni  Ni1060  1  0.91323967  0.52085467  0.36109695  1.0
  Ni  Ni1061  1  0.91323967  0.85418800  0.36109695  1.0
  Ni  Ni1062  1  0.08085067  0.11801000  0.22061255  1.0
  Ni  Ni1063  1  0.08085067  0.45134333  0.22061255  1.0
  Ni  Ni1064  1  0.08085067  0.78467667  0.22061255  1.0
  Ni  Ni1065  1  0.41418400  0.11801000  0.22061255  1.0
  Ni  Ni1066  1  0.41418400  0.45134333  0.22061255  1.0
  Ni  Ni1067  1  0.41418400  0.78467667  0.22061255  1.0
  Ni  Ni1068  1  0.74751733  0.11801000  0.22061255  1.0
  Ni  Ni1069  1  0.74751733  0.45134333  0.22061255  1.0
  Ni  Ni1070  1  0.74751733  0.78467667  0.22061255  1.0
  Ni  Ni1071  1  0.08085067  0.28467667  0.32061255  1.0
  Ni  Ni1072  1  0.08085067  0.61801000  0.32061255  1.0
  Ni  Ni1073  1  0.08085067  0.95134333  0.32061255  1.0
  Ni  Ni1074  1  0.41418400  0.28467667  0.32061255  1.0
  Ni  Ni1075  1  0.41418400  0.61801000  0.32061255  1.0
  Ni  Ni1076  1  0.41418400  0.95134333  0.32061255  1.0
  Ni  Ni1077  1  0.74751733  0.28467667  0.32061255  1.0
  Ni  Ni1078  1  0.74751733  0.61801000  0.32061255  1.0
  Ni  Ni1079  1  0.74751733  0.95134333  0.32061255  1.0
  Ni  Ni1080  1  0.07785967  0.06245950  0.38739485  1.0
  Ni  Ni1081  1  0.07785967  0.39579283  0.38739485  1.0
  Ni  Ni1082  1  0.07785967  0.72912617  0.38739485  1.0
  Ni  Ni1083  1  0.41119300  0.06245950  0.38739485  1.0
  Ni  Ni1084  1  0.41119300  0.39579283  0.38739485  1.0
  Ni  Ni1085  1  0.41119300  0.72912617  0.38739485  1.0
  Ni  Ni1086  1  0.74452633  0.06245950  0.38739485  1.0
  Ni  Ni1087  1  0.74452633  0.39579283  0.38739485  1.0
  Ni  Ni1088  1  0.74452633  0.72912617  0.38739485  1.0
  Ni  Ni1089  1  0.07785967  0.22912617  0.28739485  1.0
  Ni  Ni1090  1  0.07785967  0.56245950  0.28739485  1.0
  Ni  Ni1091  1  0.07785967  0.89579283  0.28739485  1.0
  Ni  Ni1092  1  0.41119300  0.22912617  0.28739485  1.0
  Ni  Ni1093  1  0.41119300  0.56245950  0.28739485  1.0
  Ni  Ni1094  1  0.41119300  0.89579283  0.28739485  1.0
  Ni  Ni1095  1  0.74452633  0.22912617  0.28739485  1.0
  Ni  Ni1096  1  0.74452633  0.56245950  0.28739485  1.0
  Ni  Ni1097  1  0.74452633  0.89579283  0.28739485  1.0
  Ni  Ni1098  1  0.07767500  0.00681083  0.35409445  1.0
  Ni  Ni1099  1  0.07767500  0.34014417  0.35409445  1.0
  Ni  Ni1100  1  0.07767500  0.67347750  0.35409445  1.0
  Ni  Ni1101  1  0.41100833  0.00681083  0.35409445  1.0
  Ni  Ni1102  1  0.41100833  0.34014417  0.35409445  1.0
  Ni  Ni1103  1  0.41100833  0.67347750  0.35409445  1.0
  Ni  Ni1104  1  0.74434167  0.00681083  0.35409445  1.0
  Ni  Ni1105  1  0.74434167  0.34014417  0.35409445  1.0
  Ni  Ni1106  1  0.74434167  0.67347750  0.35409445  1.0
  Ni  Ni1107  1  0.07767500  0.17347750  0.25409445  1.0
  Ni  Ni1108  1  0.07767500  0.50681083  0.25409445  1.0
  Ni  Ni1109  1  0.07767500  0.84014417  0.25409445  1.0
  Ni  Ni1110  1  0.41100833  0.17347750  0.25409445  1.0
  Ni  Ni1111  1  0.41100833  0.50681083  0.25409445  1.0
  Ni  Ni1112  1  0.41100833  0.84014417  0.25409445  1.0
  Ni  Ni1113  1  0.74434167  0.17347750  0.25409445  1.0
  Ni  Ni1114  1  0.74434167  0.50681083  0.25409445  1.0
  Ni  Ni1115  1  0.74434167  0.84014417  0.25409445  1.0
  Ni  Ni1116  1  0.08701633  0.14556717  0.23598285  1.0
  Ni  Ni1117  1  0.08701633  0.47890050  0.23598285  1.0
  Ni  Ni1118  1  0.08701633  0.81223383  0.23598285  1.0
  Ni  Ni1119  1  0.42034967  0.14556717  0.23598285  1.0
  Ni  Ni1120  1  0.42034967  0.47890050  0.23598285  1.0
  Ni  Ni1121  1  0.42034967  0.81223383  0.23598285  1.0
  Ni  Ni1122  1  0.75368300  0.14556717  0.23598285  1.0
  Ni  Ni1123  1  0.75368300  0.47890050  0.23598285  1.0
  Ni  Ni1124  1  0.75368300  0.81223383  0.23598285  1.0
  Ni  Ni1125  1  0.08701633  0.31223383  0.33598285  1.0
  Ni  Ni1126  1  0.08701633  0.64556717  0.33598285  1.0
  Ni  Ni1127  1  0.08701633  0.97890050  0.33598285  1.0
  Ni  Ni1128  1  0.42034967  0.31223383  0.33598285  1.0
  Ni  Ni1129  1  0.42034967  0.64556717  0.33598285  1.0
  Ni  Ni1130  1  0.42034967  0.97890050  0.33598285  1.0
  Ni  Ni1131  1  0.75368300  0.31223383  0.33598285  1.0
  Ni  Ni1132  1  0.75368300  0.64556717  0.33598285  1.0
  Ni  Ni1133  1  0.75368300  0.97890050  0.33598285  1.0
  Ni  Ni1134  1  0.08694133  0.09062883  0.20274665  1.0
  Ni  Ni1135  1  0.08694133  0.42396217  0.20274665  1.0
  Ni  Ni1136  1  0.08694133  0.75729550  0.20274665  1.0
  Ni  Ni1137  1  0.42027467  0.09062883  0.20274665  1.0
  Ni  Ni1138  1  0.42027467  0.42396217  0.20274665  1.0
  Ni  Ni1139  1  0.42027467  0.75729550  0.20274665  1.0
  Ni  Ni1140  1  0.75360800  0.09062883  0.20274665  1.0
  Ni  Ni1141  1  0.75360800  0.42396217  0.20274665  1.0
  Ni  Ni1142  1  0.75360800  0.75729550  0.20274665  1.0
  Ni  Ni1143  1  0.08694133  0.25729550  0.30274665  1.0
  Ni  Ni1144  1  0.08694133  0.59062883  0.30274665  1.0
  Ni  Ni1145  1  0.08694133  0.92396217  0.30274665  1.0
  Ni  Ni1146  1  0.42027467  0.25729550  0.30274665  1.0
  Ni  Ni1147  1  0.42027467  0.59062883  0.30274665  1.0
  Ni  Ni1148  1  0.42027467  0.92396217  0.30274665  1.0
  Ni  Ni1149  1  0.75360800  0.25729550  0.30274665  1.0
  Ni  Ni1150  1  0.75360800  0.59062883  0.30274665  1.0
  Ni  Ni1151  1  0.75360800  0.92396217  0.30274665  1.0
  Ni  Ni1152  1  0.08824400  0.03476033  0.36900195  1.0
  Ni  Ni1153  1  0.08824400  0.36809367  0.36900195  1.0
  Ni  Ni1154  1  0.08824400  0.70142700  0.36900195  1.0
  Ni  Ni1155  1  0.42157733  0.03476033  0.36900195  1.0
  Ni  Ni1156  1  0.42157733  0.36809367  0.36900195  1.0
  Ni  Ni1157  1  0.42157733  0.70142700  0.36900195  1.0
  Ni  Ni1158  1  0.75491067  0.03476033  0.36900195  1.0
  Ni  Ni1159  1  0.75491067  0.36809367  0.36900195  1.0
  Ni  Ni1160  1  0.75491067  0.70142700  0.36900195  1.0
  Ni  Ni1161  1  0.08824400  0.20142700  0.26900195  1.0
  Ni  Ni1162  1  0.08824400  0.53476033  0.26900195  1.0
  Ni  Ni1163  1  0.08824400  0.86809367  0.26900195  1.0
  Ni  Ni1164  1  0.42157733  0.20142700  0.26900195  1.0
  Ni  Ni1165  1  0.42157733  0.53476033  0.26900195  1.0
  Ni  Ni1166  1  0.42157733  0.86809367  0.26900195  1.0
  Ni  Ni1167  1  0.75491067  0.20142700  0.26900195  1.0
  Ni  Ni1168  1  0.75491067  0.53476033  0.26900195  1.0
  Ni  Ni1169  1  0.75491067  0.86809367  0.26900195  1.0
  Ni  Ni1170  1  0.25278433  0.15973483  0.34573125  1.0
  Ni  Ni1171  1  0.25278433  0.49306817  0.34573125  1.0
  Ni  Ni1172  1  0.25278433  0.82640150  0.34573125  1.0
  Ni  Ni1173  1  0.58611767  0.15973483  0.34573125  1.0
  Ni  Ni1174  1  0.58611767  0.49306817  0.34573125  1.0
  Ni  Ni1175  1  0.58611767  0.82640150  0.34573125  1.0
  Ni  Ni1176  1  0.91945100  0.15973483  0.34573125  1.0
  Ni  Ni1177  1  0.91945100  0.49306817  0.34573125  1.0
  Ni  Ni1178  1  0.91945100  0.82640150  0.34573125  1.0
  Ni  Ni1179  1  0.25278433  0.32640150  0.24573125  1.0
  Ni  Ni1180  1  0.25278433  0.65973483  0.24573125  1.0
  Ni  Ni1181  1  0.25278433  0.99306817  0.24573125  1.0
  Ni  Ni1182  1  0.58611767  0.32640150  0.24573125  1.0
  Ni  Ni1183  1  0.58611767  0.65973483  0.24573125  1.0
  Ni  Ni1184  1  0.58611767  0.99306817  0.24573125  1.0
  Ni  Ni1185  1  0.91945100  0.32640150  0.24573125  1.0
  Ni  Ni1186  1  0.91945100  0.65973483  0.24573125  1.0
  Ni  Ni1187  1  0.91945100  0.99306817  0.24573125  1.0
  Ni  Ni1188  1  0.25312967  0.10414283  0.31258725  1.0
  Ni  Ni1189  1  0.25312967  0.43747617  0.31258725  1.0
  Ni  Ni1190  1  0.25312967  0.77080950  0.31258725  1.0
  Ni  Ni1191  1  0.58646300  0.10414283  0.31258725  1.0
  Ni  Ni1192  1  0.58646300  0.43747617  0.31258725  1.0
  Ni  Ni1193  1  0.58646300  0.77080950  0.31258725  1.0
  Ni  Ni1194  1  0.91979633  0.10414283  0.31258725  1.0
  Ni  Ni1195  1  0.91979633  0.43747617  0.31258725  1.0
  Ni  Ni1196  1  0.91979633  0.77080950  0.31258725  1.0
  Ni  Ni1197  1  0.25312967  0.27080950  0.21258725  1.0
  Ni  Ni1198  1  0.25312967  0.60414283  0.21258725  1.0
  Ni  Ni1199  1  0.25312967  0.93747617  0.21258725  1.0
  Ni  Ni1200  1  0.58646300  0.27080950  0.21258725  1.0
  Ni  Ni1201  1  0.58646300  0.60414283  0.21258725  1.0
  Ni  Ni1202  1  0.58646300  0.93747617  0.21258725  1.0
  Ni  Ni1203  1  0.91979633  0.27080950  0.21258725  1.0
  Ni  Ni1204  1  0.91979633  0.60414283  0.21258725  1.0
  Ni  Ni1205  1  0.91979633  0.93747617  0.21258725  1.0
  Ni  Ni1206  1  0.25319400  0.04862650  0.27917665  1.0
  Ni  Ni1207  1  0.25319400  0.38195983  0.27917665  1.0
  Ni  Ni1208  1  0.25319400  0.71529317  0.27917665  1.0
  Ni  Ni1209  1  0.58652733  0.04862650  0.27917665  1.0
  Ni  Ni1210  1  0.58652733  0.38195983  0.27917665  1.0
  Ni  Ni1211  1  0.58652733  0.71529317  0.27917665  1.0
  Ni  Ni1212  1  0.91986067  0.04862650  0.27917665  1.0
  Ni  Ni1213  1  0.91986067  0.38195983  0.27917665  1.0
  Ni  Ni1214  1  0.91986067  0.71529317  0.27917665  1.0
  Ni  Ni1215  1  0.25319400  0.21529317  0.37917665  1.0
  Ni  Ni1216  1  0.25319400  0.54862650  0.37917665  1.0
  Ni  Ni1217  1  0.25319400  0.88195983  0.37917665  1.0
  Ni  Ni1218  1  0.58652733  0.21529317  0.37917665  1.0
  Ni  Ni1219  1  0.58652733  0.54862650  0.37917665  1.0
  Ni  Ni1220  1  0.58652733  0.88195983  0.37917665  1.0
  Ni  Ni1221  1  0.91986067  0.21529317  0.37917665  1.0
  Ni  Ni1222  1  0.91986067  0.54862650  0.37917665  1.0
  Ni  Ni1223  1  0.91986067  0.88195983  0.37917665  1.0
  Ni  Ni1224  1  0.08701633  0.14556717  0.33768485  1.0
  Ni  Ni1225  1  0.08701633  0.47890050  0.33768485  1.0
  Ni  Ni1226  1  0.08701633  0.81223383  0.33768485  1.0
  Ni  Ni1227  1  0.42034967  0.14556717  0.33768485  1.0
  Ni  Ni1228  1  0.42034967  0.47890050  0.33768485  1.0
  Ni  Ni1229  1  0.42034967  0.81223383  0.33768485  1.0
  Ni  Ni1230  1  0.75368300  0.14556717  0.33768485  1.0
  Ni  Ni1231  1  0.75368300  0.47890050  0.33768485  1.0
  Ni  Ni1232  1  0.75368300  0.81223383  0.33768485  1.0
  Ni  Ni1233  1  0.08701633  0.31223383  0.23768485  1.0
  Ni  Ni1234  1  0.08701633  0.64556717  0.23768485  1.0
  Ni  Ni1235  1  0.08701633  0.97890050  0.23768485  1.0
  Ni  Ni1236  1  0.42034967  0.31223383  0.23768485  1.0
  Ni  Ni1237  1  0.42034967  0.64556717  0.23768485  1.0
  Ni  Ni1238  1  0.42034967  0.97890050  0.23768485  1.0
  Ni  Ni1239  1  0.75368300  0.31223383  0.23768485  1.0
  Ni  Ni1240  1  0.75368300  0.64556717  0.23768485  1.0
  Ni  Ni1241  1  0.75368300  0.97890050  0.23768485  1.0
  Ni  Ni1242  1  0.08694133  0.09062883  0.30499505  1.0
  Ni  Ni1243  1  0.08694133  0.42396217  0.30499505  1.0
  Ni  Ni1244  1  0.08694133  0.75729550  0.30499505  1.0
  Ni  Ni1245  1  0.42027467  0.09062883  0.30499505  1.0
  Ni  Ni1246  1  0.42027467  0.42396217  0.30499505  1.0
  Ni  Ni1247  1  0.42027467  0.75729550  0.30499505  1.0
  Ni  Ni1248  1  0.75360800  0.09062883  0.30499505  1.0
  Ni  Ni1249  1  0.75360800  0.42396217  0.30499505  1.0
  Ni  Ni1250  1  0.75360800  0.75729550  0.30499505  1.0
  Ni  Ni1251  1  0.08694133  0.25729550  0.20499505  1.0
  Ni  Ni1252  1  0.08694133  0.59062883  0.20499505  1.0
  Ni  Ni1253  1  0.08694133  0.92396217  0.20499505  1.0
  Ni  Ni1254  1  0.42027467  0.25729550  0.20499505  1.0
  Ni  Ni1255  1  0.42027467  0.59062883  0.20499505  1.0
  Ni  Ni1256  1  0.42027467  0.92396217  0.20499505  1.0
  Ni  Ni1257  1  0.75360800  0.25729550  0.20499505  1.0
  Ni  Ni1258  1  0.75360800  0.59062883  0.20499505  1.0
  Ni  Ni1259  1  0.75360800  0.92396217  0.20499505  1.0
  Ni  Ni1260  1  0.08824400  0.03476033  0.27169755  1.0
  Ni  Ni1261  1  0.08824400  0.36809367  0.27169755  1.0
  Ni  Ni1262  1  0.08824400  0.70142700  0.27169755  1.0
  Ni  Ni1263  1  0.42157733  0.03476033  0.27169755  1.0
  Ni  Ni1264  1  0.42157733  0.36809367  0.27169755  1.0
  Ni  Ni1265  1  0.42157733  0.70142700  0.27169755  1.0
  Ni  Ni1266  1  0.75491067  0.03476033  0.27169755  1.0
  Ni  Ni1267  1  0.75491067  0.36809367  0.27169755  1.0
  Ni  Ni1268  1  0.75491067  0.70142700  0.27169755  1.0
  Ni  Ni1269  1  0.08824400  0.20142700  0.37169755  1.0
  Ni  Ni1270  1  0.08824400  0.53476033  0.37169755  1.0
  Ni  Ni1271  1  0.08824400  0.86809367  0.37169755  1.0
  Ni  Ni1272  1  0.42157733  0.20142700  0.37169755  1.0
  Ni  Ni1273  1  0.42157733  0.53476033  0.37169755  1.0
  Ni  Ni1274  1  0.42157733  0.86809367  0.37169755  1.0
  Ni  Ni1275  1  0.75491067  0.20142700  0.37169755  1.0
  Ni  Ni1276  1  0.75491067  0.53476033  0.37169755  1.0
  Ni  Ni1277  1  0.75491067  0.86809367  0.37169755  1.0
  Ni  Ni1278  1  0.25278433  0.15973483  0.24493765  1.0
  Ni  Ni1279  1  0.25278433  0.49306817  0.24493765  1.0
  Ni  Ni1280  1  0.25278433  0.82640150  0.24493765  1.0
  Ni  Ni1281  1  0.58611767  0.15973483  0.24493765  1.0
  Ni  Ni1282  1  0.58611767  0.49306817  0.24493765  1.0
  Ni  Ni1283  1  0.58611767  0.82640150  0.24493765  1.0
  Ni  Ni1284  1  0.91945100  0.15973483  0.24493765  1.0
  Ni  Ni1285  1  0.91945100  0.49306817  0.24493765  1.0
  Ni  Ni1286  1  0.91945100  0.82640150  0.24493765  1.0
  Ni  Ni1287  1  0.25278433  0.32640150  0.34493765  1.0
  Ni  Ni1288  1  0.25278433  0.65973483  0.34493765  1.0
  Ni  Ni1289  1  0.25278433  0.99306817  0.34493765  1.0
  Ni  Ni1290  1  0.58611767  0.32640150  0.34493765  1.0
  Ni  Ni1291  1  0.58611767  0.65973483  0.34493765  1.0
  Ni  Ni1292  1  0.58611767  0.99306817  0.34493765  1.0
  Ni  Ni1293  1  0.91945100  0.32640150  0.34493765  1.0
  Ni  Ni1294  1  0.91945100  0.65973483  0.34493765  1.0
  Ni  Ni1295  1  0.91945100  0.99306817  0.34493765  1.0
  Ni  Ni1296  1  0.25312967  0.10414283  0.21137125  1.0
  Ni  Ni1297  1  0.25312967  0.43747617  0.21137125  1.0
  Ni  Ni1298  1  0.25312967  0.77080950  0.21137125  1.0
  Ni  Ni1299  1  0.58646300  0.10414283  0.21137125  1.0
  Ni  Ni1300  1  0.58646300  0.43747617  0.21137125  1.0
  Ni  Ni1301  1  0.58646300  0.77080950  0.21137125  1.0
  Ni  Ni1302  1  0.91979633  0.10414283  0.21137125  1.0
  Ni  Ni1303  1  0.91979633  0.43747617  0.21137125  1.0
  Ni  Ni1304  1  0.91979633  0.77080950  0.21137125  1.0
  Ni  Ni1305  1  0.25312967  0.27080950  0.31137125  1.0
  Ni  Ni1306  1  0.25312967  0.60414283  0.31137125  1.0
  Ni  Ni1307  1  0.25312967  0.93747617  0.31137125  1.0
  Ni  Ni1308  1  0.58646300  0.27080950  0.31137125  1.0
  Ni  Ni1309  1  0.58646300  0.60414283  0.31137125  1.0
  Ni  Ni1310  1  0.58646300  0.93747617  0.31137125  1.0
  Ni  Ni1311  1  0.91979633  0.27080950  0.31137125  1.0
  Ni  Ni1312  1  0.91979633  0.60414283  0.31137125  1.0
  Ni  Ni1313  1  0.91979633  0.93747617  0.31137125  1.0
  Ni  Ni1314  1  0.25319400  0.04862650  0.37816225  1.0
  Ni  Ni1315  1  0.25319400  0.38195983  0.37816225  1.0
  Ni  Ni1316  1  0.25319400  0.71529317  0.37816225  1.0
  Ni  Ni1317  1  0.58652733  0.04862650  0.37816225  1.0
  Ni  Ni1318  1  0.58652733  0.38195983  0.37816225  1.0
  Ni  Ni1319  1  0.58652733  0.71529317  0.37816225  1.0
  Ni  Ni1320  1  0.91986067  0.04862650  0.37816225  1.0
  Ni  Ni1321  1  0.91986067  0.38195983  0.37816225  1.0
  Ni  Ni1322  1  0.91986067  0.71529317  0.37816225  1.0
  Ni  Ni1323  1  0.25319400  0.21529317  0.27816225  1.0
  Ni  Ni1324  1  0.25319400  0.54862650  0.27816225  1.0
  Ni  Ni1325  1  0.25319400  0.88195983  0.27816225  1.0
  Ni  Ni1326  1  0.58652733  0.21529317  0.27816225  1.0
  Ni  Ni1327  1  0.58652733  0.54862650  0.27816225  1.0
  Ni  Ni1328  1  0.58652733  0.88195983  0.27816225  1.0
  Ni  Ni1329  1  0.91986067  0.21529317  0.27816225  1.0
  Ni  Ni1330  1  0.91986067  0.54862650  0.27816225  1.0
  Ni  Ni1331  1  0.91986067  0.88195983  0.27816225  1.0
  Ni  Ni1332  1  0.24746533  0.13194733  0.22918575  1.0
  Ni  Ni1333  1  0.24746533  0.46528067  0.22918575  1.0
  Ni  Ni1334  1  0.24746533  0.79861400  0.22918575  1.0
  Ni  Ni1335  1  0.58079867  0.13194733  0.22918575  1.0
  Ni  Ni1336  1  0.58079867  0.46528067  0.22918575  1.0
  Ni  Ni1337  1  0.58079867  0.79861400  0.22918575  1.0
  Ni  Ni1338  1  0.91413200  0.13194733  0.22918575  1.0
  Ni  Ni1339  1  0.91413200  0.46528067  0.22918575  1.0
  Ni  Ni1340  1  0.91413200  0.79861400  0.22918575  1.0
  Ni  Ni1341  1  0.24746533  0.29861400  0.32918575  1.0
  Ni  Ni1342  1  0.24746533  0.63194733  0.32918575  1.0
  Ni  Ni1343  1  0.24746533  0.96528067  0.32918575  1.0
  Ni  Ni1344  1  0.58079867  0.29861400  0.32918575  1.0
  Ni  Ni1345  1  0.58079867  0.63194733  0.32918575  1.0
  Ni  Ni1346  1  0.58079867  0.96528067  0.32918575  1.0
  Ni  Ni1347  1  0.91413200  0.29861400  0.32918575  1.0
  Ni  Ni1348  1  0.91413200  0.63194733  0.32918575  1.0
  Ni  Ni1349  1  0.91413200  0.96528067  0.32918575  1.0
  Ni  Ni1350  1  0.24625000  0.07644267  0.39633615  1.0
  Ni  Ni1351  1  0.24625000  0.40977600  0.39633615  1.0
  Ni  Ni1352  1  0.24625000  0.74310933  0.39633615  1.0
  Ni  Ni1353  1  0.57958333  0.07644267  0.39633615  1.0
  Ni  Ni1354  1  0.57958333  0.40977600  0.39633615  1.0
  Ni  Ni1355  1  0.57958333  0.74310933  0.39633615  1.0
  Ni  Ni1356  1  0.91291667  0.07644267  0.39633615  1.0
  Ni  Ni1357  1  0.91291667  0.40977600  0.39633615  1.0
  Ni  Ni1358  1  0.91291667  0.74310933  0.39633615  1.0
  Ni  Ni1359  1  0.24625000  0.24310933  0.29633615  1.0
  Ni  Ni1360  1  0.24625000  0.57644267  0.29633615  1.0
  Ni  Ni1361  1  0.24625000  0.90977600  0.29633615  1.0
  Ni  Ni1362  1  0.57958333  0.24310933  0.29633615  1.0
  Ni  Ni1363  1  0.57958333  0.57644267  0.29633615  1.0
  Ni  Ni1364  1  0.57958333  0.90977600  0.29633615  1.0
  Ni  Ni1365  1  0.91291667  0.24310933  0.29633615  1.0
  Ni  Ni1366  1  0.91291667  0.57644267  0.29633615  1.0
  Ni  Ni1367  1  0.91291667  0.90977600  0.29633615  1.0
  Ni  Ni1368  1  0.24657300  0.02085467  0.36291575  1.0
  Ni  Ni1369  1  0.24657300  0.35418800  0.36291575  1.0
  Ni  Ni1370  1  0.24657300  0.68752133  0.36291575  1.0
  Ni  Ni1371  1  0.57990633  0.02085467  0.36291575  1.0
  Ni  Ni1372  1  0.57990633  0.35418800  0.36291575  1.0
  Ni  Ni1373  1  0.57990633  0.68752133  0.36291575  1.0
  Ni  Ni1374  1  0.91323967  0.02085467  0.36291575  1.0
  Ni  Ni1375  1  0.91323967  0.35418800  0.36291575  1.0
  Ni  Ni1376  1  0.91323967  0.68752133  0.36291575  1.0
  Ni  Ni1377  1  0.24657300  0.18752133  0.26291575  1.0
  Ni  Ni1378  1  0.24657300  0.52085467  0.26291575  1.0
  Ni  Ni1379  1  0.24657300  0.85418800  0.26291575  1.0
  Ni  Ni1380  1  0.57990633  0.18752133  0.26291575  1.0
  Ni  Ni1381  1  0.57990633  0.52085467  0.26291575  1.0
  Ni  Ni1382  1  0.57990633  0.85418800  0.26291575  1.0
  Ni  Ni1383  1  0.91323967  0.18752133  0.26291575  1.0
  Ni  Ni1384  1  0.91323967  0.52085467  0.26291575  1.0
  Ni  Ni1385  1  0.91323967  0.85418800  0.26291575  1.0
  Ni  Ni1386  1  0.08085067  0.11801000  0.31998655  1.0
  Ni  Ni1387  1  0.08085067  0.45134333  0.31998655  1.0
  Ni  Ni1388  1  0.08085067  0.78467667  0.31998655  1.0
  Ni  Ni1389  1  0.41418400  0.11801000  0.31998655  1.0
  Ni  Ni1390  1  0.41418400  0.45134333  0.31998655  1.0
  Ni  Ni1391  1  0.41418400  0.78467667  0.31998655  1.0
  Ni  Ni1392  1  0.74751733  0.11801000  0.31998655  1.0
  Ni  Ni1393  1  0.74751733  0.45134333  0.31998655  1.0
  Ni  Ni1394  1  0.74751733  0.78467667  0.31998655  1.0
  Ni  Ni1395  1  0.08085067  0.28467667  0.21998655  1.0
  Ni  Ni1396  1  0.08085067  0.61801000  0.21998655  1.0
  Ni  Ni1397  1  0.08085067  0.95134333  0.21998655  1.0
  Ni  Ni1398  1  0.41418400  0.28467667  0.21998655  1.0
  Ni  Ni1399  1  0.41418400  0.61801000  0.21998655  1.0
  Ni  Ni1400  1  0.41418400  0.95134333  0.21998655  1.0
  Ni  Ni1401  1  0.74751733  0.28467667  0.21998655  1.0
  Ni  Ni1402  1  0.74751733  0.61801000  0.21998655  1.0
  Ni  Ni1403  1  0.74751733  0.95134333  0.21998655  1.0
  Ni  Ni1404  1  0.07785967  0.06245950  0.28654365  1.0
  Ni  Ni1405  1  0.07785967  0.39579283  0.28654365  1.0
  Ni  Ni1406  1  0.07785967  0.72912617  0.28654365  1.0
  Ni  Ni1407  1  0.41119300  0.06245950  0.28654365  1.0
  Ni  Ni1408  1  0.41119300  0.39579283  0.28654365  1.0
  Ni  Ni1409  1  0.41119300  0.72912617  0.28654365  1.0
  Ni  Ni1410  1  0.74452633  0.06245950  0.28654365  1.0
  Ni  Ni1411  1  0.74452633  0.39579283  0.28654365  1.0
  Ni  Ni1412  1  0.74452633  0.72912617  0.28654365  1.0
  Ni  Ni1413  1  0.07785967  0.22912617  0.38654365  1.0
  Ni  Ni1414  1  0.07785967  0.56245950  0.38654365  1.0
  Ni  Ni1415  1  0.07785967  0.89579283  0.38654365  1.0
  Ni  Ni1416  1  0.41119300  0.22912617  0.38654365  1.0
  Ni  Ni1417  1  0.41119300  0.56245950  0.38654365  1.0
  Ni  Ni1418  1  0.41119300  0.89579283  0.38654365  1.0
  Ni  Ni1419  1  0.74452633  0.22912617  0.38654365  1.0
  Ni  Ni1420  1  0.74452633  0.56245950  0.38654365  1.0
  Ni  Ni1421  1  0.74452633  0.89579283  0.38654365  1.0
  Ni  Ni1422  1  0.07767500  0.00681083  0.25306565  1.0
  Ni  Ni1423  1  0.07767500  0.34014417  0.25306565  1.0
  Ni  Ni1424  1  0.07767500  0.67347750  0.25306565  1.0
  Ni  Ni1425  1  0.41100833  0.00681083  0.25306565  1.0
  Ni  Ni1426  1  0.41100833  0.34014417  0.25306565  1.0
  Ni  Ni1427  1  0.41100833  0.67347750  0.25306565  1.0
  Ni  Ni1428  1  0.74434167  0.00681083  0.25306565  1.0
  Ni  Ni1429  1  0.74434167  0.34014417  0.25306565  1.0
  Ni  Ni1430  1  0.74434167  0.67347750  0.25306565  1.0
  Ni  Ni1431  1  0.07767500  0.17347750  0.35306565  1.0
  Ni  Ni1432  1  0.07767500  0.50681083  0.35306565  1.0
  Ni  Ni1433  1  0.07767500  0.84014417  0.35306565  1.0
  Ni  Ni1434  1  0.41100833  0.17347750  0.35306565  1.0
  Ni  Ni1435  1  0.41100833  0.50681083  0.35306565  1.0
  Ni  Ni1436  1  0.41100833  0.84014417  0.35306565  1.0
  Ni  Ni1437  1  0.74434167  0.17347750  0.35306565  1.0
  Ni  Ni1438  1  0.74434167  0.50681083  0.35306565  1.0
  Ni  Ni1439  1  0.74434167  0.84014417  0.35306565  1.0
  Ni  Ni1440  1  0.30154433  0.06282833  0.23719055  1.0
  Ni  Ni1441  1  0.30154433  0.39616167  0.23719055  1.0
  Ni  Ni1442  1  0.30154433  0.72949500  0.23719055  1.0
  Ni  Ni1443  1  0.63487767  0.06282833  0.23719055  1.0
  Ni  Ni1444  1  0.63487767  0.39616167  0.23719055  1.0
  Ni  Ni1445  1  0.63487767  0.72949500  0.23719055  1.0
  Ni  Ni1446  1  0.96821100  0.06282833  0.23719055  1.0
  Ni  Ni1447  1  0.96821100  0.39616167  0.23719055  1.0
  Ni  Ni1448  1  0.96821100  0.72949500  0.23719055  1.0
  Ni  Ni1449  1  0.30154433  0.22949500  0.33719055  1.0
  Ni  Ni1450  1  0.30154433  0.56282833  0.33719055  1.0
  Ni  Ni1451  1  0.30154433  0.89616167  0.33719055  1.0
  Ni  Ni1452  1  0.63487767  0.22949500  0.33719055  1.0
  Ni  Ni1453  1  0.63487767  0.56282833  0.33719055  1.0
  Ni  Ni1454  1  0.63487767  0.89616167  0.33719055  1.0
  Ni  Ni1455  1  0.96821100  0.22949500  0.33719055  1.0
  Ni  Ni1456  1  0.96821100  0.56282833  0.33719055  1.0
  Ni  Ni1457  1  0.96821100  0.89616167  0.33719055  1.0
  Ni  Ni1458  1  0.30144600  0.00716567  0.20379295  1.0
  Ni  Ni1459  1  0.30144600  0.34049900  0.20379295  1.0
  Ni  Ni1460  1  0.30144600  0.67383233  0.20379295  1.0
  Ni  Ni1461  1  0.63477933  0.00716567  0.20379295  1.0
  Ni  Ni1462  1  0.63477933  0.34049900  0.20379295  1.0
  Ni  Ni1463  1  0.63477933  0.67383233  0.20379295  1.0
  Ni  Ni1464  1  0.96811267  0.00716567  0.20379295  1.0
  Ni  Ni1465  1  0.96811267  0.34049900  0.20379295  1.0
  Ni  Ni1466  1  0.96811267  0.67383233  0.20379295  1.0
  Ni  Ni1467  1  0.30144600  0.17383233  0.30379295  1.0
  Ni  Ni1468  1  0.30144600  0.50716567  0.30379295  1.0
  Ni  Ni1469  1  0.30144600  0.84049900  0.30379295  1.0
  Ni  Ni1470  1  0.63477933  0.17383233  0.30379295  1.0
  Ni  Ni1471  1  0.63477933  0.50716567  0.30379295  1.0
  Ni  Ni1472  1  0.63477933  0.84049900  0.30379295  1.0
  Ni  Ni1473  1  0.96811267  0.17383233  0.30379295  1.0
  Ni  Ni1474  1  0.96811267  0.50716567  0.30379295  1.0
  Ni  Ni1475  1  0.96811267  0.84049900  0.30379295  1.0
  Ni  Ni1476  1  0.19627033  0.14604033  0.38711775  1.0
  Ni  Ni1477  1  0.19627033  0.47937367  0.38711775  1.0
  Ni  Ni1478  1  0.19627033  0.81270700  0.38711775  1.0
  Ni  Ni1479  1  0.52960367  0.14604033  0.38711775  1.0
  Ni  Ni1480  1  0.52960367  0.47937367  0.38711775  1.0
  Ni  Ni1481  1  0.52960367  0.81270700  0.38711775  1.0
  Ni  Ni1482  1  0.86293700  0.14604033  0.38711775  1.0
  Ni  Ni1483  1  0.86293700  0.47937367  0.38711775  1.0
  Ni  Ni1484  1  0.86293700  0.81270700  0.38711775  1.0
  Ni  Ni1485  1  0.19627033  0.31270700  0.28711775  1.0
  Ni  Ni1486  1  0.19627033  0.64604033  0.28711775  1.0
  Ni  Ni1487  1  0.19627033  0.97937367  0.28711775  1.0
  Ni  Ni1488  1  0.52960367  0.31270700  0.28711775  1.0
  Ni  Ni1489  1  0.52960367  0.64604033  0.28711775  1.0
  Ni  Ni1490  1  0.52960367  0.97937367  0.28711775  1.0
  Ni  Ni1491  1  0.86293700  0.31270700  0.28711775  1.0
  Ni  Ni1492  1  0.86293700  0.64604033  0.28711775  1.0
  Ni  Ni1493  1  0.86293700  0.97937367  0.28711775  1.0
  Ni  Ni1494  1  0.19576767  0.09010133  0.35355435  1.0
  Ni  Ni1495  1  0.19576767  0.42343467  0.35355435  1.0
  Ni  Ni1496  1  0.19576767  0.75676800  0.35355435  1.0
  Ni  Ni1497  1  0.52910100  0.09010133  0.35355435  1.0
  Ni  Ni1498  1  0.52910100  0.42343467  0.35355435  1.0
  Ni  Ni1499  1  0.52910100  0.75676800  0.35355435  1.0
  Ni  Ni1500  1  0.86243433  0.09010133  0.35355435  1.0
  Ni  Ni1501  1  0.86243433  0.42343467  0.35355435  1.0
  Ni  Ni1502  1  0.86243433  0.75676800  0.35355435  1.0
  Ni  Ni1503  1  0.19576767  0.25676800  0.25355435  1.0
  Ni  Ni1504  1  0.19576767  0.59010133  0.25355435  1.0
  Ni  Ni1505  1  0.19576767  0.92343467  0.25355435  1.0
  Ni  Ni1506  1  0.52910100  0.25676800  0.25355435  1.0
  Ni  Ni1507  1  0.52910100  0.59010133  0.25355435  1.0
  Ni  Ni1508  1  0.52910100  0.92343467  0.25355435  1.0
  Ni  Ni1509  1  0.86243433  0.25676800  0.25355435  1.0
  Ni  Ni1510  1  0.86243433  0.59010133  0.25355435  1.0
  Ni  Ni1511  1  0.86243433  0.92343467  0.25355435  1.0
  Ni  Ni1512  1  0.19680400  0.03477517  0.32035865  1.0
  Ni  Ni1513  1  0.19680400  0.36810850  0.32035865  1.0
  Ni  Ni1514  1  0.19680400  0.70144183  0.32035865  1.0
  Ni  Ni1515  1  0.53013733  0.03477517  0.32035865  1.0
  Ni  Ni1516  1  0.53013733  0.36810850  0.32035865  1.0
  Ni  Ni1517  1  0.53013733  0.70144183  0.32035865  1.0
  Ni  Ni1518  1  0.86347067  0.03477517  0.32035865  1.0
  Ni  Ni1519  1  0.86347067  0.36810850  0.32035865  1.0
  Ni  Ni1520  1  0.86347067  0.70144183  0.32035865  1.0
  Ni  Ni1521  1  0.19680400  0.20144183  0.22035865  1.0
  Ni  Ni1522  1  0.19680400  0.53477517  0.22035865  1.0
  Ni  Ni1523  1  0.19680400  0.86810850  0.22035865  1.0
  Ni  Ni1524  1  0.53013733  0.20144183  0.22035865  1.0
  Ni  Ni1525  1  0.53013733  0.53477517  0.22035865  1.0
  Ni  Ni1526  1  0.53013733  0.86810850  0.22035865  1.0
  Ni  Ni1527  1  0.86347067  0.20144183  0.22035865  1.0
  Ni  Ni1528  1  0.86347067  0.53477517  0.22035865  1.0
  Ni  Ni1529  1  0.86347067  0.86810850  0.22035865  1.0
  Ni  Ni1530  1  0.02894667  0.15952683  0.39520965  1.0
  Ni  Ni1531  1  0.02894667  0.49286017  0.39520965  1.0
  Ni  Ni1532  1  0.02894667  0.82619350  0.39520965  1.0
  Ni  Ni1533  1  0.36228000  0.15952683  0.39520965  1.0
  Ni  Ni1534  1  0.36228000  0.49286017  0.39520965  1.0
  Ni  Ni1535  1  0.36228000  0.82619350  0.39520965  1.0
  Ni  Ni1536  1  0.69561333  0.15952683  0.39520965  1.0
  Ni  Ni1537  1  0.69561333  0.49286017  0.39520965  1.0
  Ni  Ni1538  1  0.69561333  0.82619350  0.39520965  1.0
  Ni  Ni1539  1  0.02894667  0.32619350  0.29520965  1.0
  Ni  Ni1540  1  0.02894667  0.65952683  0.29520965  1.0
  Ni  Ni1541  1  0.02894667  0.99286017  0.29520965  1.0
  Ni  Ni1542  1  0.36228000  0.32619350  0.29520965  1.0
  Ni  Ni1543  1  0.36228000  0.65952683  0.29520965  1.0
  Ni  Ni1544  1  0.36228000  0.99286017  0.29520965  1.0
  Ni  Ni1545  1  0.69561333  0.32619350  0.29520965  1.0
  Ni  Ni1546  1  0.69561333  0.65952683  0.29520965  1.0
  Ni  Ni1547  1  0.69561333  0.99286017  0.29520965  1.0
  Ni  Ni1548  1  0.02886800  0.10428900  0.36206695  1.0
  Ni  Ni1549  1  0.02886800  0.43762233  0.36206695  1.0
  Ni  Ni1550  1  0.02886800  0.77095567  0.36206695  1.0
  Ni  Ni1551  1  0.36220133  0.10428900  0.36206695  1.0
  Ni  Ni1552  1  0.36220133  0.43762233  0.36206695  1.0
  Ni  Ni1553  1  0.36220133  0.77095567  0.36206695  1.0
  Ni  Ni1554  1  0.69553467  0.10428900  0.36206695  1.0
  Ni  Ni1555  1  0.69553467  0.43762233  0.36206695  1.0
  Ni  Ni1556  1  0.69553467  0.77095567  0.36206695  1.0
  Ni  Ni1557  1  0.02886800  0.27095567  0.26206695  1.0
  Ni  Ni1558  1  0.02886800  0.60428900  0.26206695  1.0
  Ni  Ni1559  1  0.02886800  0.93762233  0.26206695  1.0
  Ni  Ni1560  1  0.36220133  0.27095567  0.26206695  1.0
  Ni  Ni1561  1  0.36220133  0.60428900  0.26206695  1.0
  Ni  Ni1562  1  0.36220133  0.93762233  0.26206695  1.0
  Ni  Ni1563  1  0.69553467  0.27095567  0.26206695  1.0
  Ni  Ni1564  1  0.69553467  0.60428900  0.26206695  1.0
  Ni  Ni1565  1  0.69553467  0.93762233  0.26206695  1.0
  Ni  Ni1566  1  0.02893700  0.04854383  0.32861985  1.0
  Ni  Ni1567  1  0.02893700  0.38187717  0.32861985  1.0
  Ni  Ni1568  1  0.02893700  0.71521050  0.32861985  1.0
  Ni  Ni1569  1  0.36227033  0.04854383  0.32861985  1.0
  Ni  Ni1570  1  0.36227033  0.38187717  0.32861985  1.0
  Ni  Ni1571  1  0.36227033  0.71521050  0.32861985  1.0
  Ni  Ni1572  1  0.69560367  0.04854383  0.32861985  1.0
  Ni  Ni1573  1  0.69560367  0.38187717  0.32861985  1.0
  Ni  Ni1574  1  0.69560367  0.71521050  0.32861985  1.0
  Ni  Ni1575  1  0.02893700  0.21521050  0.22861985  1.0
  Ni  Ni1576  1  0.02893700  0.54854383  0.22861985  1.0
  Ni  Ni1577  1  0.02893700  0.88187717  0.22861985  1.0
  Ni  Ni1578  1  0.36227033  0.21521050  0.22861985  1.0
  Ni  Ni1579  1  0.36227033  0.54854383  0.22861985  1.0
  Ni  Ni1580  1  0.36227033  0.88187717  0.22861985  1.0
  Ni  Ni1581  1  0.69560367  0.21521050  0.22861985  1.0
  Ni  Ni1582  1  0.69560367  0.54854383  0.22861985  1.0
  Ni  Ni1583  1  0.69560367  0.88187717  0.22861985  1.0
  Sn  Sn1584  1  0.03050900  0.15847650  0.29457945  1.0
  Sn  Sn1585  1  0.03050900  0.49180983  0.29457945  1.0
  Sn  Sn1586  1  0.03050900  0.82514317  0.29457945  1.0
  Sn  Sn1587  1  0.36384233  0.15847650  0.29457945  1.0
  Sn  Sn1588  1  0.36384233  0.49180983  0.29457945  1.0
  Sn  Sn1589  1  0.36384233  0.82514317  0.29457945  1.0
  Sn  Sn1590  1  0.69717567  0.15847650  0.29457945  1.0
  Sn  Sn1591  1  0.69717567  0.49180983  0.29457945  1.0
  Sn  Sn1592  1  0.69717567  0.82514317  0.29457945  1.0
  Sn  Sn1593  1  0.03050900  0.32514317  0.39457945  1.0
  Sn  Sn1594  1  0.03050900  0.65847650  0.39457945  1.0
  Sn  Sn1595  1  0.03050900  0.99180983  0.39457945  1.0
  Sn  Sn1596  1  0.36384233  0.32514317  0.39457945  1.0
  Sn  Sn1597  1  0.36384233  0.65847650  0.39457945  1.0
  Sn  Sn1598  1  0.36384233  0.99180983  0.39457945  1.0
  Sn  Sn1599  1  0.69717567  0.32514317  0.39457945  1.0
  Sn  Sn1600  1  0.69717567  0.65847650  0.39457945  1.0
  Sn  Sn1601  1  0.69717567  0.99180983  0.39457945  1.0
  Sn  Sn1602  1  0.02768967  0.10410350  0.26195565  1.0
  Sn  Sn1603  1  0.02768967  0.43743683  0.26195565  1.0
  Sn  Sn1604  1  0.02768967  0.77077017  0.26195565  1.0
  Sn  Sn1605  1  0.36102300  0.10410350  0.26195565  1.0
  Sn  Sn1606  1  0.36102300  0.43743683  0.26195565  1.0
  Sn  Sn1607  1  0.36102300  0.77077017  0.26195565  1.0
  Sn  Sn1608  1  0.69435633  0.10410350  0.26195565  1.0
  Sn  Sn1609  1  0.69435633  0.43743683  0.26195565  1.0
  Sn  Sn1610  1  0.69435633  0.77077017  0.26195565  1.0
  Sn  Sn1611  1  0.02768967  0.27077017  0.36195565  1.0
  Sn  Sn1612  1  0.02768967  0.60410350  0.36195565  1.0
  Sn  Sn1613  1  0.02768967  0.93743683  0.36195565  1.0
  Sn  Sn1614  1  0.36102300  0.27077017  0.36195565  1.0
  Sn  Sn1615  1  0.36102300  0.60410350  0.36195565  1.0
  Sn  Sn1616  1  0.36102300  0.93743683  0.36195565  1.0
  Sn  Sn1617  1  0.69435633  0.27077017  0.36195565  1.0
  Sn  Sn1618  1  0.69435633  0.60410350  0.36195565  1.0
  Sn  Sn1619  1  0.69435633  0.93743683  0.36195565  1.0
  Sn  Sn1620  1  0.03067000  0.04756717  0.22803385  1.0
  Sn  Sn1621  1  0.03067000  0.38090050  0.22803385  1.0
  Sn  Sn1622  1  0.03067000  0.71423383  0.22803385  1.0
  Sn  Sn1623  1  0.36400333  0.04756717  0.22803385  1.0
  Sn  Sn1624  1  0.36400333  0.38090050  0.22803385  1.0
  Sn  Sn1625  1  0.36400333  0.71423383  0.22803385  1.0
  Sn  Sn1626  1  0.69733667  0.04756717  0.22803385  1.0
  Sn  Sn1627  1  0.69733667  0.38090050  0.22803385  1.0
  Sn  Sn1628  1  0.69733667  0.71423383  0.22803385  1.0
  Sn  Sn1629  1  0.03067000  0.21423383  0.32803385  1.0
  Sn  Sn1630  1  0.03067000  0.54756717  0.32803385  1.0
  Sn  Sn1631  1  0.03067000  0.88090050  0.32803385  1.0
  Sn  Sn1632  1  0.36400333  0.21423383  0.32803385  1.0
  Sn  Sn1633  1  0.36400333  0.54756717  0.32803385  1.0
  Sn  Sn1634  1  0.36400333  0.88090050  0.32803385  1.0
  Sn  Sn1635  1  0.69733667  0.21423383  0.32803385  1.0
  Sn  Sn1636  1  0.69733667  0.54756717  0.32803385  1.0
  Sn  Sn1637  1  0.69733667  0.88090050  0.32803385  1.0
  Sn  Sn1638  1  0.19496700  0.14600317  0.28709545  1.0
  Sn  Sn1639  1  0.19496700  0.47933650  0.28709545  1.0
  Sn  Sn1640  1  0.19496700  0.81266983  0.28709545  1.0
  Sn  Sn1641  1  0.52830033  0.14600317  0.28709545  1.0
  Sn  Sn1642  1  0.52830033  0.47933650  0.28709545  1.0
  Sn  Sn1643  1  0.52830033  0.81266983  0.28709545  1.0
  Sn  Sn1644  1  0.86163367  0.14600317  0.28709545  1.0
  Sn  Sn1645  1  0.86163367  0.47933650  0.28709545  1.0
  Sn  Sn1646  1  0.86163367  0.81266983  0.28709545  1.0
  Sn  Sn1647  1  0.19496700  0.31266983  0.38709545  1.0
  Sn  Sn1648  1  0.19496700  0.64600317  0.38709545  1.0
  Sn  Sn1649  1  0.19496700  0.97933650  0.38709545  1.0
  Sn  Sn1650  1  0.52830033  0.31266983  0.38709545  1.0
  Sn  Sn1651  1  0.52830033  0.64600317  0.38709545  1.0
  Sn  Sn1652  1  0.52830033  0.97933650  0.38709545  1.0
  Sn  Sn1653  1  0.86163367  0.31266983  0.38709545  1.0
  Sn  Sn1654  1  0.86163367  0.64600317  0.38709545  1.0
  Sn  Sn1655  1  0.86163367  0.97933650  0.38709545  1.0
  Sn  Sn1656  1  0.19523000  0.09062567  0.25386895  1.0
  Sn  Sn1657  1  0.19523000  0.42395900  0.25386895  1.0
  Sn  Sn1658  1  0.19523000  0.75729233  0.25386895  1.0
  Sn  Sn1659  1  0.52856333  0.09062567  0.25386895  1.0
  Sn  Sn1660  1  0.52856333  0.42395900  0.25386895  1.0
  Sn  Sn1661  1  0.52856333  0.75729233  0.25386895  1.0
  Sn  Sn1662  1  0.86189667  0.09062567  0.25386895  1.0
  Sn  Sn1663  1  0.86189667  0.42395900  0.25386895  1.0
  Sn  Sn1664  1  0.86189667  0.75729233  0.25386895  1.0
  Sn  Sn1665  1  0.19523000  0.25729233  0.35386895  1.0
  Sn  Sn1666  1  0.19523000  0.59062567  0.35386895  1.0
  Sn  Sn1667  1  0.19523000  0.92395900  0.35386895  1.0
  Sn  Sn1668  1  0.52856333  0.25729233  0.35386895  1.0
  Sn  Sn1669  1  0.52856333  0.59062567  0.35386895  1.0
  Sn  Sn1670  1  0.52856333  0.92395900  0.35386895  1.0
  Sn  Sn1671  1  0.86189667  0.25729233  0.35386895  1.0
  Sn  Sn1672  1  0.86189667  0.59062567  0.35386895  1.0
  Sn  Sn1673  1  0.86189667  0.92395900  0.35386895  1.0
  Sn  Sn1674  1  0.19612967  0.03502350  0.22050765  1.0
  Sn  Sn1675  1  0.19612967  0.36835683  0.22050765  1.0
  Sn  Sn1676  1  0.19612967  0.70169017  0.22050765  1.0
  Sn  Sn1677  1  0.52946300  0.03502350  0.22050765  1.0
  Sn  Sn1678  1  0.52946300  0.36835683  0.22050765  1.0
  Sn  Sn1679  1  0.52946300  0.70169017  0.22050765  1.0
  Sn  Sn1680  1  0.86279633  0.03502350  0.22050765  1.0
  Sn  Sn1681  1  0.86279633  0.36835683  0.22050765  1.0
  Sn  Sn1682  1  0.86279633  0.70169017  0.22050765  1.0
  Sn  Sn1683  1  0.19612967  0.20169017  0.32050765  1.0
  Sn  Sn1684  1  0.19612967  0.53502350  0.32050765  1.0
  Sn  Sn1685  1  0.19612967  0.86835683  0.32050765  1.0
  Sn  Sn1686  1  0.52946300  0.20169017  0.32050765  1.0
  Sn  Sn1687  1  0.52946300  0.53502350  0.32050765  1.0
  Sn  Sn1688  1  0.52946300  0.86835683  0.32050765  1.0
  Sn  Sn1689  1  0.86279633  0.20169017  0.32050765  1.0
  Sn  Sn1690  1  0.86279633  0.53502350  0.32050765  1.0
  Sn  Sn1691  1  0.86279633  0.86835683  0.32050765  1.0
  Sn  Sn1692  1  0.30058467  0.11892800  0.37085035  1.0
  Sn  Sn1693  1  0.30058467  0.45226133  0.37085035  1.0
  Sn  Sn1694  1  0.30058467  0.78559467  0.37085035  1.0
  Sn  Sn1695  1  0.63391800  0.11892800  0.37085035  1.0
  Sn  Sn1696  1  0.63391800  0.45226133  0.37085035  1.0
  Sn  Sn1697  1  0.63391800  0.78559467  0.37085035  1.0
  Sn  Sn1698  1  0.96725133  0.11892800  0.37085035  1.0
  Sn  Sn1699  1  0.96725133  0.45226133  0.37085035  1.0
  Sn  Sn1700  1  0.96725133  0.78559467  0.37085035  1.0
  Sn  Sn1701  1  0.30058467  0.28559467  0.27085035  1.0
  Sn  Sn1702  1  0.30058467  0.61892800  0.27085035  1.0
  Sn  Sn1703  1  0.30058467  0.95226133  0.27085035  1.0
  Sn  Sn1704  1  0.63391800  0.28559467  0.27085035  1.0
  Sn  Sn1705  1  0.63391800  0.61892800  0.27085035  1.0
  Sn  Sn1706  1  0.63391800  0.95226133  0.27085035  1.0
  Sn  Sn1707  1  0.96725133  0.28559467  0.27085035  1.0
  Sn  Sn1708  1  0.96725133  0.61892800  0.27085035  1.0
  Sn  Sn1709  1  0.96725133  0.95226133  0.27085035  1.0
  Sn  Sn1710  1  0.29947333  0.06340917  0.33753905  1.0
  Sn  Sn1711  1  0.29947333  0.39674250  0.33753905  1.0
  Sn  Sn1712  1  0.29947333  0.73007583  0.33753905  1.0
  Sn  Sn1713  1  0.63280667  0.06340917  0.33753905  1.0
  Sn  Sn1714  1  0.63280667  0.39674250  0.33753905  1.0
  Sn  Sn1715  1  0.63280667  0.73007583  0.33753905  1.0
  Sn  Sn1716  1  0.96614000  0.06340917  0.33753905  1.0
  Sn  Sn1717  1  0.96614000  0.39674250  0.33753905  1.0
  Sn  Sn1718  1  0.96614000  0.73007583  0.33753905  1.0
  Sn  Sn1719  1  0.29947333  0.23007583  0.23753905  1.0
  Sn  Sn1720  1  0.29947333  0.56340917  0.23753905  1.0
  Sn  Sn1721  1  0.29947333  0.89674250  0.23753905  1.0
  Sn  Sn1722  1  0.63280667  0.23007583  0.23753905  1.0
  Sn  Sn1723  1  0.63280667  0.56340917  0.23753905  1.0
  Sn  Sn1724  1  0.63280667  0.89674250  0.23753905  1.0
  Sn  Sn1725  1  0.96614000  0.23007583  0.23753905  1.0
  Sn  Sn1726  1  0.96614000  0.56340917  0.23753905  1.0
  Sn  Sn1727  1  0.96614000  0.89674250  0.23753905  1.0
  Sn  Sn1728  1  0.29950000  0.00774317  0.30413945  1.0
  Sn  Sn1729  1  0.29950000  0.34107650  0.30413945  1.0
  Sn  Sn1730  1  0.29950000  0.67440983  0.30413945  1.0
  Sn  Sn1731  1  0.63283333  0.00774317  0.30413945  1.0
  Sn  Sn1732  1  0.63283333  0.34107650  0.30413945  1.0
  Sn  Sn1733  1  0.63283333  0.67440983  0.30413945  1.0
  Sn  Sn1734  1  0.96616667  0.00774317  0.30413945  1.0
  Sn  Sn1735  1  0.96616667  0.34107650  0.30413945  1.0
  Sn  Sn1736  1  0.96616667  0.67440983  0.30413945  1.0
  Sn  Sn1737  1  0.29950000  0.17440983  0.20413945  1.0
  Sn  Sn1738  1  0.29950000  0.50774317  0.20413945  1.0
  Sn  Sn1739  1  0.29950000  0.84107650  0.20413945  1.0
  Sn  Sn1740  1  0.63283333  0.17440983  0.20413945  1.0
  Sn  Sn1741  1  0.63283333  0.50774317  0.20413945  1.0
  Sn  Sn1742  1  0.63283333  0.84107650  0.20413945  1.0
  Sn  Sn1743  1  0.96616667  0.17440983  0.20413945  1.0
  Sn  Sn1744  1  0.96616667  0.50774317  0.20413945  1.0
  Sn  Sn1745  1  0.96616667  0.84107650  0.20413945  1.0
  Sn  Sn1746  1  0.13537000  0.13106900  0.37813495  1.0
  Sn  Sn1747  1  0.13537000  0.46440233  0.37813495  1.0
  Sn  Sn1748  1  0.13537000  0.79773567  0.37813495  1.0
  Sn  Sn1749  1  0.46870333  0.13106900  0.37813495  1.0
  Sn  Sn1750  1  0.46870333  0.46440233  0.37813495  1.0
  Sn  Sn1751  1  0.46870333  0.79773567  0.37813495  1.0
  Sn  Sn1752  1  0.80203667  0.13106900  0.37813495  1.0
  Sn  Sn1753  1  0.80203667  0.46440233  0.37813495  1.0
  Sn  Sn1754  1  0.80203667  0.79773567  0.37813495  1.0
  Sn  Sn1755  1  0.13537000  0.29773567  0.27813495  1.0
  Sn  Sn1756  1  0.13537000  0.63106900  0.27813495  1.0
  Sn  Sn1757  1  0.13537000  0.96440233  0.27813495  1.0
  Sn  Sn1758  1  0.46870333  0.29773567  0.27813495  1.0
  Sn  Sn1759  1  0.46870333  0.63106900  0.27813495  1.0
  Sn  Sn1760  1  0.46870333  0.96440233  0.27813495  1.0
  Sn  Sn1761  1  0.80203667  0.29773567  0.27813495  1.0
  Sn  Sn1762  1  0.80203667  0.63106900  0.27813495  1.0
  Sn  Sn1763  1  0.80203667  0.96440233  0.27813495  1.0
  Sn  Sn1764  1  0.13296833  0.07555083  0.34482405  1.0
  Sn  Sn1765  1  0.13296833  0.40888417  0.34482405  1.0
  Sn  Sn1766  1  0.13296833  0.74221750  0.34482405  1.0
  Sn  Sn1767  1  0.46630167  0.07555083  0.34482405  1.0
  Sn  Sn1768  1  0.46630167  0.40888417  0.34482405  1.0
  Sn  Sn1769  1  0.46630167  0.74221750  0.34482405  1.0
  Sn  Sn1770  1  0.79963500  0.07555083  0.34482405  1.0
  Sn  Sn1771  1  0.79963500  0.40888417  0.34482405  1.0
  Sn  Sn1772  1  0.79963500  0.74221750  0.34482405  1.0
  Sn  Sn1773  1  0.13296833  0.24221750  0.24482405  1.0
  Sn  Sn1774  1  0.13296833  0.57555083  0.24482405  1.0
  Sn  Sn1775  1  0.13296833  0.90888417  0.24482405  1.0
  Sn  Sn1776  1  0.46630167  0.24221750  0.24482405  1.0
  Sn  Sn1777  1  0.46630167  0.57555083  0.24482405  1.0
  Sn  Sn1778  1  0.46630167  0.90888417  0.24482405  1.0
  Sn  Sn1779  1  0.79963500  0.24221750  0.24482405  1.0
  Sn  Sn1780  1  0.79963500  0.57555083  0.24482405  1.0
  Sn  Sn1781  1  0.79963500  0.90888417  0.24482405  1.0
  Sn  Sn1782  1  0.13390767  0.01993150  0.31145245  1.0
  Sn  Sn1783  1  0.13390767  0.35326483  0.31145245  1.0
  Sn  Sn1784  1  0.13390767  0.68659817  0.31145245  1.0
  Sn  Sn1785  1  0.46724100  0.01993150  0.31145245  1.0
  Sn  Sn1786  1  0.46724100  0.35326483  0.31145245  1.0
  Sn  Sn1787  1  0.46724100  0.68659817  0.31145245  1.0
  Sn  Sn1788  1  0.80057433  0.01993150  0.31145245  1.0
  Sn  Sn1789  1  0.80057433  0.35326483  0.31145245  1.0
  Sn  Sn1790  1  0.80057433  0.68659817  0.31145245  1.0
  Sn  Sn1791  1  0.13390767  0.18659817  0.21145245  1.0
  Sn  Sn1792  1  0.13390767  0.51993150  0.21145245  1.0
  Sn  Sn1793  1  0.13390767  0.85326483  0.21145245  1.0
  Sn  Sn1794  1  0.46724100  0.18659817  0.21145245  1.0
  Sn  Sn1795  1  0.46724100  0.51993150  0.21145245  1.0
  Sn  Sn1796  1  0.46724100  0.85326483  0.21145245  1.0
  Sn  Sn1797  1  0.80057433  0.18659817  0.21145245  1.0
  Sn  Sn1798  1  0.80057433  0.51993150  0.21145245  1.0
  Sn  Sn1799  1  0.80057433  0.85326483  0.21145245  1.0
  Sn  Sn1800  1  0.02835633  0.13187600  0.27861915  1.0
  Sn  Sn1801  1  0.02835633  0.46520933  0.27861915  1.0
  Sn  Sn1802  1  0.02835633  0.79854267  0.27861915  1.0
  Sn  Sn1803  1  0.36168967  0.13187600  0.27861915  1.0
  Sn  Sn1804  1  0.36168967  0.46520933  0.27861915  1.0
  Sn  Sn1805  1  0.36168967  0.79854267  0.27861915  1.0
  Sn  Sn1806  1  0.69502300  0.13187600  0.27861915  1.0
  Sn  Sn1807  1  0.69502300  0.46520933  0.27861915  1.0
  Sn  Sn1808  1  0.69502300  0.79854267  0.27861915  1.0
  Sn  Sn1809  1  0.02835633  0.29854267  0.37861915  1.0
  Sn  Sn1810  1  0.02835633  0.63187600  0.37861915  1.0
  Sn  Sn1811  1  0.02835633  0.96520933  0.37861915  1.0
  Sn  Sn1812  1  0.36168967  0.29854267  0.37861915  1.0
  Sn  Sn1813  1  0.36168967  0.63187600  0.37861915  1.0
  Sn  Sn1814  1  0.36168967  0.96520933  0.37861915  1.0
  Sn  Sn1815  1  0.69502300  0.29854267  0.37861915  1.0
  Sn  Sn1816  1  0.69502300  0.63187600  0.37861915  1.0
  Sn  Sn1817  1  0.69502300  0.96520933  0.37861915  1.0
  Sn  Sn1818  1  0.03230133  0.07747867  0.24598075  1.0
  Sn  Sn1819  1  0.03230133  0.41081200  0.24598075  1.0
  Sn  Sn1820  1  0.03230133  0.74414533  0.24598075  1.0
  Sn  Sn1821  1  0.36563467  0.07747867  0.24598075  1.0
  Sn  Sn1822  1  0.36563467  0.41081200  0.24598075  1.0
  Sn  Sn1823  1  0.36563467  0.74414533  0.24598075  1.0
  Sn  Sn1824  1  0.69896800  0.07747867  0.24598075  1.0
  Sn  Sn1825  1  0.69896800  0.41081200  0.24598075  1.0
  Sn  Sn1826  1  0.69896800  0.74414533  0.24598075  1.0
  Sn  Sn1827  1  0.03230133  0.24414533  0.34598075  1.0
  Sn  Sn1828  1  0.03230133  0.57747867  0.34598075  1.0
  Sn  Sn1829  1  0.03230133  0.91081200  0.34598075  1.0
  Sn  Sn1830  1  0.36563467  0.24414533  0.34598075  1.0
  Sn  Sn1831  1  0.36563467  0.57747867  0.34598075  1.0
  Sn  Sn1832  1  0.36563467  0.91081200  0.34598075  1.0
  Sn  Sn1833  1  0.69896800  0.24414533  0.34598075  1.0
  Sn  Sn1834  1  0.69896800  0.57747867  0.34598075  1.0
  Sn  Sn1835  1  0.69896800  0.91081200  0.34598075  1.0
  Sn  Sn1836  1  0.03253833  0.02174417  0.21254005  1.0
  Sn  Sn1837  1  0.03253833  0.35507750  0.21254005  1.0
  Sn  Sn1838  1  0.03253833  0.68841083  0.21254005  1.0
  Sn  Sn1839  1  0.36587167  0.02174417  0.21254005  1.0
  Sn  Sn1840  1  0.36587167  0.35507750  0.21254005  1.0
  Sn  Sn1841  1  0.36587167  0.68841083  0.21254005  1.0
  Sn  Sn1842  1  0.69920500  0.02174417  0.21254005  1.0
  Sn  Sn1843  1  0.69920500  0.35507750  0.21254005  1.0
  Sn  Sn1844  1  0.69920500  0.68841083  0.21254005  1.0
  Sn  Sn1845  1  0.03253833  0.18841083  0.31254005  1.0
  Sn  Sn1846  1  0.03253833  0.52174417  0.31254005  1.0
  Sn  Sn1847  1  0.03253833  0.85507750  0.31254005  1.0
  Sn  Sn1848  1  0.36587167  0.18841083  0.31254005  1.0
  Sn  Sn1849  1  0.36587167  0.52174417  0.31254005  1.0
  Sn  Sn1850  1  0.36587167  0.85507750  0.31254005  1.0
  Sn  Sn1851  1  0.69920500  0.18841083  0.31254005  1.0
  Sn  Sn1852  1  0.69920500  0.52174417  0.31254005  1.0
  Sn  Sn1853  1  0.69920500  0.85507750  0.31254005  1.0
  Sn  Sn1854  1  0.19456133  0.11791100  0.27024015  1.0
  Sn  Sn1855  1  0.19456133  0.45124433  0.27024015  1.0
  Sn  Sn1856  1  0.19456133  0.78457767  0.27024015  1.0
  Sn  Sn1857  1  0.52789467  0.11791100  0.27024015  1.0
  Sn  Sn1858  1  0.52789467  0.45124433  0.27024015  1.0
  Sn  Sn1859  1  0.52789467  0.78457767  0.27024015  1.0
  Sn  Sn1860  1  0.86122800  0.11791100  0.27024015  1.0
  Sn  Sn1861  1  0.86122800  0.45124433  0.27024015  1.0
  Sn  Sn1862  1  0.86122800  0.78457767  0.27024015  1.0
  Sn  Sn1863  1  0.19456133  0.28457767  0.37024015  1.0
  Sn  Sn1864  1  0.19456133  0.61791100  0.37024015  1.0
  Sn  Sn1865  1  0.19456133  0.95124433  0.37024015  1.0
  Sn  Sn1866  1  0.52789467  0.28457767  0.37024015  1.0
  Sn  Sn1867  1  0.52789467  0.61791100  0.37024015  1.0
  Sn  Sn1868  1  0.52789467  0.95124433  0.37024015  1.0
  Sn  Sn1869  1  0.86122800  0.28457767  0.37024015  1.0
  Sn  Sn1870  1  0.86122800  0.61791100  0.37024015  1.0
  Sn  Sn1871  1  0.86122800  0.95124433  0.37024015  1.0
  Sn  Sn1872  1  0.18414300  0.06236200  0.23691075  1.0
  Sn  Sn1873  1  0.18414300  0.39569533  0.23691075  1.0
  Sn  Sn1874  1  0.18414300  0.72902867  0.23691075  1.0
  Sn  Sn1875  1  0.51747633  0.06236200  0.23691075  1.0
  Sn  Sn1876  1  0.51747633  0.39569533  0.23691075  1.0
  Sn  Sn1877  1  0.51747633  0.72902867  0.23691075  1.0
  Sn  Sn1878  1  0.85080967  0.06236200  0.23691075  1.0
  Sn  Sn1879  1  0.85080967  0.39569533  0.23691075  1.0
  Sn  Sn1880  1  0.85080967  0.72902867  0.23691075  1.0
  Sn  Sn1881  1  0.18414300  0.22902867  0.33691075  1.0
  Sn  Sn1882  1  0.18414300  0.56236200  0.33691075  1.0
  Sn  Sn1883  1  0.18414300  0.89569533  0.33691075  1.0
  Sn  Sn1884  1  0.51747633  0.22902867  0.33691075  1.0
  Sn  Sn1885  1  0.51747633  0.56236200  0.33691075  1.0
  Sn  Sn1886  1  0.51747633  0.89569533  0.33691075  1.0
  Sn  Sn1887  1  0.85080967  0.22902867  0.33691075  1.0
  Sn  Sn1888  1  0.85080967  0.56236200  0.33691075  1.0
  Sn  Sn1889  1  0.85080967  0.89569533  0.33691075  1.0
  Sn  Sn1890  1  0.18390033  0.00684333  0.20359955  1.0
  Sn  Sn1891  1  0.18390033  0.34017667  0.20359955  1.0
  Sn  Sn1892  1  0.18390033  0.67351000  0.20359955  1.0
  Sn  Sn1893  1  0.51723367  0.00684333  0.20359955  1.0
  Sn  Sn1894  1  0.51723367  0.34017667  0.20359955  1.0
  Sn  Sn1895  1  0.51723367  0.67351000  0.20359955  1.0
  Sn  Sn1896  1  0.85056700  0.00684333  0.20359955  1.0
  Sn  Sn1897  1  0.85056700  0.34017667  0.20359955  1.0
  Sn  Sn1898  1  0.85056700  0.67351000  0.20359955  1.0
  Sn  Sn1899  1  0.18390033  0.17351000  0.30359955  1.0
  Sn  Sn1900  1  0.18390033  0.50684333  0.30359955  1.0
  Sn  Sn1901  1  0.18390033  0.84017667  0.30359955  1.0
  Sn  Sn1902  1  0.51723367  0.17351000  0.30359955  1.0
  Sn  Sn1903  1  0.51723367  0.50684333  0.30359955  1.0
  Sn  Sn1904  1  0.51723367  0.84017667  0.30359955  1.0
  Sn  Sn1905  1  0.85056700  0.17351000  0.30359955  1.0
  Sn  Sn1906  1  0.85056700  0.50684333  0.30359955  1.0
  Sn  Sn1907  1  0.85056700  0.84017667  0.30359955  1.0
  Sn  Sn1908  1  0.31362933  0.14390700  0.38583775  1.0
  Sn  Sn1909  1  0.31362933  0.47724033  0.38583775  1.0
  Sn  Sn1910  1  0.31362933  0.81057367  0.38583775  1.0
  Sn  Sn1911  1  0.64696267  0.14390700  0.38583775  1.0
  Sn  Sn1912  1  0.64696267  0.47724033  0.38583775  1.0
  Sn  Sn1913  1  0.64696267  0.81057367  0.38583775  1.0
  Sn  Sn1914  1  0.98029600  0.14390700  0.38583775  1.0
  Sn  Sn1915  1  0.98029600  0.47724033  0.38583775  1.0
  Sn  Sn1916  1  0.98029600  0.81057367  0.38583775  1.0
  Sn  Sn1917  1  0.31362933  0.31057367  0.28583775  1.0
  Sn  Sn1918  1  0.31362933  0.64390700  0.28583775  1.0
  Sn  Sn1919  1  0.31362933  0.97724033  0.28583775  1.0
  Sn  Sn1920  1  0.64696267  0.31057367  0.28583775  1.0
  Sn  Sn1921  1  0.64696267  0.64390700  0.28583775  1.0
  Sn  Sn1922  1  0.64696267  0.97724033  0.28583775  1.0
  Sn  Sn1923  1  0.98029600  0.31057367  0.28583775  1.0
  Sn  Sn1924  1  0.98029600  0.64390700  0.28583775  1.0
  Sn  Sn1925  1  0.98029600  0.97724033  0.28583775  1.0
  Sn  Sn1926  1  0.31352967  0.08860867  0.35265875  1.0
  Sn  Sn1927  1  0.31352967  0.42194200  0.35265875  1.0
  Sn  Sn1928  1  0.31352967  0.75527533  0.35265875  1.0
  Sn  Sn1929  1  0.64686300  0.08860867  0.35265875  1.0
  Sn  Sn1930  1  0.64686300  0.42194200  0.35265875  1.0
  Sn  Sn1931  1  0.64686300  0.75527533  0.35265875  1.0
  Sn  Sn1932  1  0.98019633  0.08860867  0.35265875  1.0
  Sn  Sn1933  1  0.98019633  0.42194200  0.35265875  1.0
  Sn  Sn1934  1  0.98019633  0.75527533  0.35265875  1.0
  Sn  Sn1935  1  0.31352967  0.25527533  0.25265875  1.0
  Sn  Sn1936  1  0.31352967  0.58860867  0.25265875  1.0
  Sn  Sn1937  1  0.31352967  0.92194200  0.25265875  1.0
  Sn  Sn1938  1  0.64686300  0.25527533  0.25265875  1.0
  Sn  Sn1939  1  0.64686300  0.58860867  0.25265875  1.0
  Sn  Sn1940  1  0.64686300  0.92194200  0.25265875  1.0
  Sn  Sn1941  1  0.98019633  0.25527533  0.25265875  1.0
  Sn  Sn1942  1  0.98019633  0.58860867  0.25265875  1.0
  Sn  Sn1943  1  0.98019633  0.92194200  0.25265875  1.0
  Sn  Sn1944  1  0.31421067  0.03283000  0.31919155  1.0
  Sn  Sn1945  1  0.31421067  0.36616333  0.31919155  1.0
  Sn  Sn1946  1  0.31421067  0.69949667  0.31919155  1.0
  Sn  Sn1947  1  0.64754400  0.03283000  0.31919155  1.0
  Sn  Sn1948  1  0.64754400  0.36616333  0.31919155  1.0
  Sn  Sn1949  1  0.64754400  0.69949667  0.31919155  1.0
  Sn  Sn1950  1  0.98087733  0.03283000  0.31919155  1.0
  Sn  Sn1951  1  0.98087733  0.36616333  0.31919155  1.0
  Sn  Sn1952  1  0.98087733  0.69949667  0.31919155  1.0
  Sn  Sn1953  1  0.31421067  0.19949667  0.21919155  1.0
  Sn  Sn1954  1  0.31421067  0.53283000  0.21919155  1.0
  Sn  Sn1955  1  0.31421067  0.86616333  0.21919155  1.0
  Sn  Sn1956  1  0.64754400  0.19949667  0.21919155  1.0
  Sn  Sn1957  1  0.64754400  0.53283000  0.21919155  1.0
  Sn  Sn1958  1  0.64754400  0.86616333  0.21919155  1.0
  Sn  Sn1959  1  0.98087733  0.19949667  0.21919155  1.0
  Sn  Sn1960  1  0.98087733  0.53283000  0.21919155  1.0
  Sn  Sn1961  1  0.98087733  0.86616333  0.21919155  1.0
  Sn  Sn1962  1  0.14579367  0.16151150  0.39640045  1.0
  Sn  Sn1963  1  0.14579367  0.49484483  0.39640045  1.0
  Sn  Sn1964  1  0.14579367  0.82817817  0.39640045  1.0
  Sn  Sn1965  1  0.47912700  0.16151150  0.39640045  1.0
  Sn  Sn1966  1  0.47912700  0.49484483  0.39640045  1.0
  Sn  Sn1967  1  0.47912700  0.82817817  0.39640045  1.0
  Sn  Sn1968  1  0.81246033  0.16151150  0.39640045  1.0
  Sn  Sn1969  1  0.81246033  0.49484483  0.39640045  1.0
  Sn  Sn1970  1  0.81246033  0.82817817  0.39640045  1.0
  Sn  Sn1971  1  0.14579367  0.32817817  0.29640045  1.0
  Sn  Sn1972  1  0.14579367  0.66151150  0.29640045  1.0
  Sn  Sn1973  1  0.14579367  0.99484483  0.29640045  1.0
  Sn  Sn1974  1  0.47912700  0.32817817  0.29640045  1.0
  Sn  Sn1975  1  0.47912700  0.66151150  0.29640045  1.0
  Sn  Sn1976  1  0.47912700  0.99484483  0.29640045  1.0
  Sn  Sn1977  1  0.81246033  0.32817817  0.29640045  1.0
  Sn  Sn1978  1  0.81246033  0.66151150  0.29640045  1.0
  Sn  Sn1979  1  0.81246033  0.99484483  0.29640045  1.0
  Sn  Sn1980  1  0.14729733  0.10588750  0.36302605  1.0
  Sn  Sn1981  1  0.14729733  0.43922083  0.36302605  1.0
  Sn  Sn1982  1  0.14729733  0.77255417  0.36302605  1.0
  Sn  Sn1983  1  0.48063067  0.10588750  0.36302605  1.0
  Sn  Sn1984  1  0.48063067  0.43922083  0.36302605  1.0
  Sn  Sn1985  1  0.48063067  0.77255417  0.36302605  1.0
  Sn  Sn1986  1  0.81396400  0.10588750  0.36302605  1.0
  Sn  Sn1987  1  0.81396400  0.43922083  0.36302605  1.0
  Sn  Sn1988  1  0.81396400  0.77255417  0.36302605  1.0
  Sn  Sn1989  1  0.14729733  0.27255417  0.26302605  1.0
  Sn  Sn1990  1  0.14729733  0.60588750  0.26302605  1.0
  Sn  Sn1991  1  0.14729733  0.93922083  0.26302605  1.0
  Sn  Sn1992  1  0.48063067  0.27255417  0.26302605  1.0
  Sn  Sn1993  1  0.48063067  0.60588750  0.26302605  1.0
  Sn  Sn1994  1  0.48063067  0.93922083  0.26302605  1.0
  Sn  Sn1995  1  0.81396400  0.27255417  0.26302605  1.0
  Sn  Sn1996  1  0.81396400  0.60588750  0.26302605  1.0
  Sn  Sn1997  1  0.81396400  0.93922083  0.26302605  1.0
  Sn  Sn1998  1  0.14618867  0.05036783  0.32971425  1.0
  Sn  Sn1999  1  0.14618867  0.38370117  0.32971425  1.0
  Sn  Sn2000  1  0.14618867  0.71703450  0.32971425  1.0
  Sn  Sn2001  1  0.47952200  0.05036783  0.32971425  1.0
  Sn  Sn2002  1  0.47952200  0.38370117  0.32971425  1.0
  Sn  Sn2003  1  0.47952200  0.71703450  0.32971425  1.0
  Sn  Sn2004  1  0.81285533  0.05036783  0.32971425  1.0
  Sn  Sn2005  1  0.81285533  0.38370117  0.32971425  1.0
  Sn  Sn2006  1  0.81285533  0.71703450  0.32971425  1.0
  Sn  Sn2007  1  0.14618867  0.21703450  0.22971425  1.0
  Sn  Sn2008  1  0.14618867  0.55036783  0.22971425  1.0
  Sn  Sn2009  1  0.14618867  0.88370117  0.22971425  1.0
  Sn  Sn2010  1  0.47952200  0.21703450  0.22971425  1.0
  Sn  Sn2011  1  0.47952200  0.55036783  0.22971425  1.0
  Sn  Sn2012  1  0.47952200  0.88370117  0.22971425  1.0
  Sn  Sn2013  1  0.81285533  0.21703450  0.22971425  1.0
  Sn  Sn2014  1  0.81285533  0.55036783  0.22971425  1.0
  Sn  Sn2015  1  0.81285533  0.88370117  0.22971425  1.0
