# generated using pymatgen
data_Ni4Sn3
_symmetry_space_group_name_H-M   'P 1'
_cell_length_a   15.64134900
_cell_length_b   85.11819578
_cell_length_c   35.33049000
_cell_angle_alpha   119.97311344
_cell_angle_beta   90.00000000
_cell_angle_gamma   90.00000000
_symmetry_Int_Tables_number   1
_chemical_formula_structural   Ni4Sn3
_chemical_formula_sum   'Ni576 Sn432'
_cell_volume   40746.89371953
_cell_formula_units_Z   144
loop_
 _symmetry_equiv_pos_site_id
 _symmetry_equiv_pos_as_xyz
  1  'x, y, z'
loop_
 _atom_site_type_symbol
 _atom_site_label
 _atom_site_symmetry_multiplicity
 _atom_site_fract_x
 _atom_site_fract_y
 _atom_site_fract_z
 _atom_site_occupancy
  Ni  Ni0  1  0.25087300  0.06943867  0.10649070  1.0
  Ni  Ni1  1  0.25087300  0.40277200  0.10649070  1.0
  Ni  Ni2  1  0.25087300  0.73610533  0.10649070  1.0
  Ni  Ni3  1  0.58420633  0.06943867  0.10649070  1.0
  Ni  Ni4  1  0.58420633  0.40277200  0.10649070  1.0
  Ni  Ni5  1  0.58420633  0.73610533  0.10649070  1.0
  Ni  Ni6  1  0.91753967  0.06943867  0.10649070  1.0
  Ni  Ni7  1  0.91753967  0.40277200  0.10649070  1.0
  Ni  Ni8  1  0.91753967  0.73610533  0.10649070  1.0
  Ni  Ni9  1  0.25162833  0.18044800  0.04043110  1.0
  Ni  Ni10  1  0.25162833  0.51378133  0.04043110  1.0
  Ni  Ni11  1  0.25162833  0.84711467  0.04043110  1.0
  Ni  Ni12  1  0.58496167  0.18044800  0.04043110  1.0
  Ni  Ni13  1  0.58496167  0.51378133  0.04043110  1.0
  Ni  Ni14  1  0.58496167  0.84711467  0.04043110  1.0
  Ni  Ni15  1  0.91829500  0.18044800  0.04043110  1.0
  Ni  Ni16  1  0.91829500  0.51378133  0.04043110  1.0
  Ni  Ni17  1  0.91829500  0.84711467  0.04043110  1.0
  Ni  Ni18  1  0.25151567  0.29162400  0.17364850  1.0
  Ni  Ni19  1  0.25151567  0.62495733  0.17364850  1.0
  Ni  Ni20  1  0.25151567  0.95829067  0.17364850  1.0
  Ni  Ni21  1  0.58484900  0.29162400  0.17364850  1.0
  Ni  Ni22  1  0.58484900  0.62495733  0.17364850  1.0
  Ni  Ni23  1  0.58484900  0.95829067  0.17364850  1.0
  Ni  Ni24  1  0.91818233  0.29162400  0.17364850  1.0
  Ni  Ni25  1  0.91818233  0.62495733  0.17364850  1.0
  Ni  Ni26  1  0.91818233  0.95829067  0.17364850  1.0
  Ni  Ni27  1  0.08281167  0.09731333  0.03990910  1.0
  Ni  Ni28  1  0.08281167  0.43064667  0.03990910  1.0
  Ni  Ni29  1  0.08281167  0.76398000  0.03990910  1.0
  Ni  Ni30  1  0.41614500  0.09731333  0.03990910  1.0
  Ni  Ni31  1  0.41614500  0.43064667  0.03990910  1.0
  Ni  Ni32  1  0.41614500  0.76398000  0.03990910  1.0
  Ni  Ni33  1  0.74947833  0.09731333  0.03990910  1.0
  Ni  Ni34  1  0.74947833  0.43064667  0.03990910  1.0
  Ni  Ni35  1  0.74947833  0.76398000  0.03990910  1.0
  Ni  Ni36  1  0.08262400  0.20841433  0.17502490  1.0
  Ni  Ni37  1  0.08262400  0.54174767  0.17502490  1.0
  Ni  Ni38  1  0.08262400  0.87508100  0.17502490  1.0
  Ni  Ni39  1  0.41595733  0.20841433  0.17502490  1.0
  Ni  Ni40  1  0.41595733  0.54174767  0.17502490  1.0
  Ni  Ni41  1  0.41595733  0.87508100  0.17502490  1.0
  Ni  Ni42  1  0.74929067  0.20841433  0.17502490  1.0
  Ni  Ni43  1  0.74929067  0.54174767  0.17502490  1.0
  Ni  Ni44  1  0.74929067  0.87508100  0.17502490  1.0
  Ni  Ni45  1  0.08247600  0.31971167  0.10869250  1.0
  Ni  Ni46  1  0.08247600  0.65304500  0.10869250  1.0
  Ni  Ni47  1  0.08247600  0.98637833  0.10869250  1.0
  Ni  Ni48  1  0.41580933  0.31971167  0.10869250  1.0
  Ni  Ni49  1  0.41580933  0.65304500  0.10869250  1.0
  Ni  Ni50  1  0.41580933  0.98637833  0.10869250  1.0
  Ni  Ni51  1  0.74914267  0.31971167  0.10869250  1.0
  Ni  Ni52  1  0.74914267  0.65304500  0.10869250  1.0
  Ni  Ni53  1  0.74914267  0.98637833  0.10869250  1.0
  Ni  Ni54  1  0.08475167  0.04219900  0.17007250  1.0
  Ni  Ni55  1  0.08475167  0.37553233  0.17007250  1.0
  Ni  Ni56  1  0.08475167  0.70886567  0.17007250  1.0
  Ni  Ni57  1  0.41808500  0.04219900  0.17007250  1.0
  Ni  Ni58  1  0.41808500  0.37553233  0.17007250  1.0
  Ni  Ni59  1  0.41808500  0.70886567  0.17007250  1.0
  Ni  Ni60  1  0.75141833  0.04219900  0.17007250  1.0
  Ni  Ni61  1  0.75141833  0.37553233  0.17007250  1.0
  Ni  Ni62  1  0.75141833  0.70886567  0.17007250  1.0
  Ni  Ni63  1  0.08520700  0.15207567  0.10196950  1.0
  Ni  Ni64  1  0.08520700  0.48540900  0.10196950  1.0
  Ni  Ni65  1  0.08520700  0.81874233  0.10196950  1.0
  Ni  Ni66  1  0.41854033  0.15207567  0.10196950  1.0
  Ni  Ni67  1  0.41854033  0.48540900  0.10196950  1.0
  Ni  Ni68  1  0.41854033  0.81874233  0.10196950  1.0
  Ni  Ni69  1  0.75187367  0.15207567  0.10196950  1.0
  Ni  Ni70  1  0.75187367  0.48540900  0.10196950  1.0
  Ni  Ni71  1  0.75187367  0.81874233  0.10196950  1.0
  Ni  Ni72  1  0.08557967  0.26381267  0.03527230  1.0
  Ni  Ni73  1  0.08557967  0.59714600  0.03527230  1.0
  Ni  Ni74  1  0.08557967  0.93047933  0.03527230  1.0
  Ni  Ni75  1  0.41891300  0.26381267  0.03527230  1.0
  Ni  Ni76  1  0.41891300  0.59714600  0.03527230  1.0
  Ni  Ni77  1  0.41891300  0.93047933  0.03527230  1.0
  Ni  Ni78  1  0.75224633  0.26381267  0.03527230  1.0
  Ni  Ni79  1  0.75224633  0.59714600  0.03527230  1.0
  Ni  Ni80  1  0.75224633  0.93047933  0.03527230  1.0
  Ni  Ni81  1  0.24933867  0.01386367  0.03660930  1.0
  Ni  Ni82  1  0.24933867  0.34719700  0.03660930  1.0
  Ni  Ni83  1  0.24933867  0.68053033  0.03660930  1.0
  Ni  Ni84  1  0.58267200  0.01386367  0.03660930  1.0
  Ni  Ni85  1  0.58267200  0.34719700  0.03660930  1.0
  Ni  Ni86  1  0.58267200  0.68053033  0.03660930  1.0
  Ni  Ni87  1  0.91600533  0.01386367  0.03660930  1.0
  Ni  Ni88  1  0.91600533  0.34719700  0.03660930  1.0
  Ni  Ni89  1  0.91600533  0.68053033  0.03660930  1.0
  Ni  Ni90  1  0.24898667  0.12504767  0.16982290  1.0
  Ni  Ni91  1  0.24898667  0.45838100  0.16982290  1.0
  Ni  Ni92  1  0.24898667  0.79171433  0.16982290  1.0
  Ni  Ni93  1  0.58232000  0.12504767  0.16982290  1.0
  Ni  Ni94  1  0.58232000  0.45838100  0.16982290  1.0
  Ni  Ni95  1  0.58232000  0.79171433  0.16982290  1.0
  Ni  Ni96  1  0.91565333  0.12504767  0.16982290  1.0
  Ni  Ni97  1  0.91565333  0.45838100  0.16982290  1.0
  Ni  Ni98  1  0.91565333  0.79171433  0.16982290  1.0
  Ni  Ni99  1  0.24915467  0.23608033  0.10302350  1.0
  Ni  Ni100  1  0.24915467  0.56941367  0.10302350  1.0
  Ni  Ni101  1  0.24915467  0.90274700  0.10302350  1.0
  Ni  Ni102  1  0.58248800  0.23608033  0.10302350  1.0
  Ni  Ni103  1  0.58248800  0.56941367  0.10302350  1.0
  Ni  Ni104  1  0.58248800  0.90274700  0.10302350  1.0
  Ni  Ni105  1  0.91582133  0.23608033  0.10302350  1.0
  Ni  Ni106  1  0.91582133  0.56941367  0.10302350  1.0
  Ni  Ni107  1  0.91582133  0.90274700  0.10302350  1.0
  Ni  Ni108  1  0.24858167  0.04219900  0.17007250  1.0
  Ni  Ni109  1  0.24858167  0.37553233  0.17007250  1.0
  Ni  Ni110  1  0.24858167  0.70886567  0.17007250  1.0
  Ni  Ni111  1  0.58191500  0.04219900  0.17007250  1.0
  Ni  Ni112  1  0.58191500  0.37553233  0.17007250  1.0
  Ni  Ni113  1  0.58191500  0.70886567  0.17007250  1.0
  Ni  Ni114  1  0.91524833  0.04219900  0.17007250  1.0
  Ni  Ni115  1  0.91524833  0.37553233  0.17007250  1.0
  Ni  Ni116  1  0.91524833  0.70886567  0.17007250  1.0
  Ni  Ni117  1  0.24812633  0.15207567  0.10196950  1.0
  Ni  Ni118  1  0.24812633  0.48540900  0.10196950  1.0
  Ni  Ni119  1  0.24812633  0.81874233  0.10196950  1.0
  Ni  Ni120  1  0.58145967  0.15207567  0.10196950  1.0
  Ni  Ni121  1  0.58145967  0.48540900  0.10196950  1.0
  Ni  Ni122  1  0.58145967  0.81874233  0.10196950  1.0
  Ni  Ni123  1  0.91479300  0.15207567  0.10196950  1.0
  Ni  Ni124  1  0.91479300  0.48540900  0.10196950  1.0
  Ni  Ni125  1  0.91479300  0.81874233  0.10196950  1.0
  Ni  Ni126  1  0.24775367  0.26381267  0.03527230  1.0
  Ni  Ni127  1  0.24775367  0.59714600  0.03527230  1.0
  Ni  Ni128  1  0.24775367  0.93047933  0.03527230  1.0
  Ni  Ni129  1  0.58108700  0.26381267  0.03527230  1.0
  Ni  Ni130  1  0.58108700  0.59714600  0.03527230  1.0
  Ni  Ni131  1  0.58108700  0.93047933  0.03527230  1.0
  Ni  Ni132  1  0.91442033  0.26381267  0.03527230  1.0
  Ni  Ni133  1  0.91442033  0.59714600  0.03527230  1.0
  Ni  Ni134  1  0.91442033  0.93047933  0.03527230  1.0
  Ni  Ni135  1  0.08399467  0.01386367  0.03660930  1.0
  Ni  Ni136  1  0.08399467  0.34719700  0.03660930  1.0
  Ni  Ni137  1  0.08399467  0.68053033  0.03660930  1.0
  Ni  Ni138  1  0.41732800  0.01386367  0.03660930  1.0
  Ni  Ni139  1  0.41732800  0.34719700  0.03660930  1.0
  Ni  Ni140  1  0.41732800  0.68053033  0.03660930  1.0
  Ni  Ni141  1  0.75066133  0.01386367  0.03660930  1.0
  Ni  Ni142  1  0.75066133  0.34719700  0.03660930  1.0
  Ni  Ni143  1  0.75066133  0.68053033  0.03660930  1.0
  Ni  Ni144  1  0.08434667  0.12504767  0.16982290  1.0
  Ni  Ni145  1  0.08434667  0.45838100  0.16982290  1.0
  Ni  Ni146  1  0.08434667  0.79171433  0.16982290  1.0
  Ni  Ni147  1  0.41768000  0.12504767  0.16982290  1.0
  Ni  Ni148  1  0.41768000  0.45838100  0.16982290  1.0
  Ni  Ni149  1  0.41768000  0.79171433  0.16982290  1.0
  Ni  Ni150  1  0.75101333  0.12504767  0.16982290  1.0
  Ni  Ni151  1  0.75101333  0.45838100  0.16982290  1.0
  Ni  Ni152  1  0.75101333  0.79171433  0.16982290  1.0
  Ni  Ni153  1  0.08417867  0.23608033  0.10302350  1.0
  Ni  Ni154  1  0.08417867  0.56941367  0.10302350  1.0
  Ni  Ni155  1  0.08417867  0.90274700  0.10302350  1.0
  Ni  Ni156  1  0.41751200  0.23608033  0.10302350  1.0
  Ni  Ni157  1  0.41751200  0.56941367  0.10302350  1.0
  Ni  Ni158  1  0.41751200  0.90274700  0.10302350  1.0
  Ni  Ni159  1  0.75084533  0.23608033  0.10302350  1.0
  Ni  Ni160  1  0.75084533  0.56941367  0.10302350  1.0
  Ni  Ni161  1  0.75084533  0.90274700  0.10302350  1.0
  Ni  Ni162  1  0.08246033  0.06943867  0.10649070  1.0
  Ni  Ni163  1  0.08246033  0.40277200  0.10649070  1.0
  Ni  Ni164  1  0.08246033  0.73610533  0.10649070  1.0
  Ni  Ni165  1  0.41579367  0.06943867  0.10649070  1.0
  Ni  Ni166  1  0.41579367  0.40277200  0.10649070  1.0
  Ni  Ni167  1  0.41579367  0.73610533  0.10649070  1.0
  Ni  Ni168  1  0.74912700  0.06943867  0.10649070  1.0
  Ni  Ni169  1  0.74912700  0.40277200  0.10649070  1.0
  Ni  Ni170  1  0.74912700  0.73610533  0.10649070  1.0
  Ni  Ni171  1  0.08170500  0.18044800  0.04043110  1.0
  Ni  Ni172  1  0.08170500  0.51378133  0.04043110  1.0
  Ni  Ni173  1  0.08170500  0.84711467  0.04043110  1.0
  Ni  Ni174  1  0.41503833  0.18044800  0.04043110  1.0
  Ni  Ni175  1  0.41503833  0.51378133  0.04043110  1.0
  Ni  Ni176  1  0.41503833  0.84711467  0.04043110  1.0
  Ni  Ni177  1  0.74837167  0.18044800  0.04043110  1.0
  Ni  Ni178  1  0.74837167  0.51378133  0.04043110  1.0
  Ni  Ni179  1  0.74837167  0.84711467  0.04043110  1.0
  Ni  Ni180  1  0.08181767  0.29162400  0.17364850  1.0
  Ni  Ni181  1  0.08181767  0.62495733  0.17364850  1.0
  Ni  Ni182  1  0.08181767  0.95829067  0.17364850  1.0
  Ni  Ni183  1  0.41515100  0.29162400  0.17364850  1.0
  Ni  Ni184  1  0.41515100  0.62495733  0.17364850  1.0
  Ni  Ni185  1  0.41515100  0.95829067  0.17364850  1.0
  Ni  Ni186  1  0.74848433  0.29162400  0.17364850  1.0
  Ni  Ni187  1  0.74848433  0.62495733  0.17364850  1.0
  Ni  Ni188  1  0.74848433  0.95829067  0.17364850  1.0
  Ni  Ni189  1  0.25052167  0.09731333  0.03990910  1.0
  Ni  Ni190  1  0.25052167  0.43064667  0.03990910  1.0
  Ni  Ni191  1  0.25052167  0.76398000  0.03990910  1.0
  Ni  Ni192  1  0.58385500  0.09731333  0.03990910  1.0
  Ni  Ni193  1  0.58385500  0.43064667  0.03990910  1.0
  Ni  Ni194  1  0.58385500  0.76398000  0.03990910  1.0
  Ni  Ni195  1  0.91718833  0.09731333  0.03990910  1.0
  Ni  Ni196  1  0.91718833  0.43064667  0.03990910  1.0
  Ni  Ni197  1  0.91718833  0.76398000  0.03990910  1.0
  Ni  Ni198  1  0.25070933  0.20841433  0.17502490  1.0
  Ni  Ni199  1  0.25070933  0.54174767  0.17502490  1.0
  Ni  Ni200  1  0.25070933  0.87508100  0.17502490  1.0
  Ni  Ni201  1  0.58404267  0.20841433  0.17502490  1.0
  Ni  Ni202  1  0.58404267  0.54174767  0.17502490  1.0
  Ni  Ni203  1  0.58404267  0.87508100  0.17502490  1.0
  Ni  Ni204  1  0.91737600  0.20841433  0.17502490  1.0
  Ni  Ni205  1  0.91737600  0.54174767  0.17502490  1.0
  Ni  Ni206  1  0.91737600  0.87508100  0.17502490  1.0
  Ni  Ni207  1  0.25085733  0.31971167  0.10869250  1.0
  Ni  Ni208  1  0.25085733  0.65304500  0.10869250  1.0
  Ni  Ni209  1  0.25085733  0.98637833  0.10869250  1.0
  Ni  Ni210  1  0.58419067  0.31971167  0.10869250  1.0
  Ni  Ni211  1  0.58419067  0.65304500  0.10869250  1.0
  Ni  Ni212  1  0.58419067  0.98637833  0.10869250  1.0
  Ni  Ni213  1  0.91752400  0.31971167  0.10869250  1.0
  Ni  Ni214  1  0.91752400  0.65304500  0.10869250  1.0
  Ni  Ni215  1  0.91752400  0.98637833  0.10869250  1.0
  Ni  Ni216  1  0.00000000  0.20767667  0.03992890  1.0
  Ni  Ni217  1  0.00000000  0.54101000  0.03992890  1.0
  Ni  Ni218  1  0.00000000  0.87434333  0.03992890  1.0
  Ni  Ni219  1  0.33333333  0.20767667  0.03992890  1.0
  Ni  Ni220  1  0.33333333  0.54101000  0.03992890  1.0
  Ni  Ni221  1  0.33333333  0.87434333  0.03992890  1.0
  Ni  Ni222  1  0.66666667  0.20767667  0.03992890  1.0
  Ni  Ni223  1  0.66666667  0.54101000  0.03992890  1.0
  Ni  Ni224  1  0.66666667  0.87434333  0.03992890  1.0
  Ni  Ni225  1  0.00000000  0.31900200  0.17357830  1.0
  Ni  Ni226  1  0.00000000  0.65233533  0.17357830  1.0
  Ni  Ni227  1  0.00000000  0.98566867  0.17357830  1.0
  Ni  Ni228  1  0.33333333  0.31900200  0.17357830  1.0
  Ni  Ni229  1  0.33333333  0.65233533  0.17357830  1.0
  Ni  Ni230  1  0.33333333  0.98566867  0.17357830  1.0
  Ni  Ni231  1  0.66666667  0.31900200  0.17357830  1.0
  Ni  Ni232  1  0.66666667  0.65233533  0.17357830  1.0
  Ni  Ni233  1  0.66666667  0.98566867  0.17357830  1.0
  Ni  Ni234  1  0.16666667  0.04125267  0.10338450  1.0
  Ni  Ni235  1  0.16666667  0.37458600  0.10338450  1.0
  Ni  Ni236  1  0.16666667  0.70791933  0.10338450  1.0
  Ni  Ni237  1  0.50000000  0.04125267  0.10338450  1.0
  Ni  Ni238  1  0.50000000  0.37458600  0.10338450  1.0
  Ni  Ni239  1  0.50000000  0.70791933  0.10338450  1.0
  Ni  Ni240  1  0.83333333  0.04125267  0.10338450  1.0
  Ni  Ni241  1  0.83333333  0.37458600  0.10338450  1.0
  Ni  Ni242  1  0.83333333  0.70791933  0.10338450  1.0
  Ni  Ni243  1  0.16666667  0.15313067  0.03793970  1.0
  Ni  Ni244  1  0.16666667  0.48646400  0.03793970  1.0
  Ni  Ni245  1  0.16666667  0.81979733  0.03793970  1.0
  Ni  Ni246  1  0.50000000  0.15313067  0.03793970  1.0
  Ni  Ni247  1  0.50000000  0.48646400  0.03793970  1.0
  Ni  Ni248  1  0.50000000  0.81979733  0.03793970  1.0
  Ni  Ni249  1  0.83333333  0.15313067  0.03793970  1.0
  Ni  Ni250  1  0.83333333  0.48646400  0.03793970  1.0
  Ni  Ni251  1  0.83333333  0.81979733  0.03793970  1.0
  Ni  Ni252  1  0.16666667  0.26378300  0.17010070  1.0
  Ni  Ni253  1  0.16666667  0.59711633  0.17010070  1.0
  Ni  Ni254  1  0.16666667  0.93044967  0.17010070  1.0
  Ni  Ni255  1  0.50000000  0.26378300  0.17010070  1.0
  Ni  Ni256  1  0.50000000  0.59711633  0.17010070  1.0
  Ni  Ni257  1  0.50000000  0.93044967  0.17010070  1.0
  Ni  Ni258  1  0.83333333  0.26378300  0.17010070  1.0
  Ni  Ni259  1  0.83333333  0.59711633  0.17010070  1.0
  Ni  Ni260  1  0.83333333  0.93044967  0.17010070  1.0
  Ni  Ni261  1  0.16666667  0.01427967  0.17141110  1.0
  Ni  Ni262  1  0.16666667  0.34761300  0.17141110  1.0
  Ni  Ni263  1  0.16666667  0.68094633  0.17141110  1.0
  Ni  Ni264  1  0.50000000  0.01427967  0.17141110  1.0
  Ni  Ni265  1  0.50000000  0.34761300  0.17141110  1.0
  Ni  Ni266  1  0.50000000  0.68094633  0.17141110  1.0
  Ni  Ni267  1  0.83333333  0.01427967  0.17141110  1.0
  Ni  Ni268  1  0.83333333  0.34761300  0.17141110  1.0
  Ni  Ni269  1  0.83333333  0.68094633  0.17141110  1.0
  Ni  Ni270  1  0.16666667  0.12475533  0.10402910  1.0
  Ni  Ni271  1  0.16666667  0.45808867  0.10402910  1.0
  Ni  Ni272  1  0.16666667  0.79142200  0.10402910  1.0
  Ni  Ni273  1  0.50000000  0.12475533  0.10402910  1.0
  Ni  Ni274  1  0.50000000  0.45808867  0.10402910  1.0
  Ni  Ni275  1  0.50000000  0.79142200  0.10402910  1.0
  Ni  Ni276  1  0.83333333  0.12475533  0.10402910  1.0
  Ni  Ni277  1  0.83333333  0.45808867  0.10402910  1.0
  Ni  Ni278  1  0.83333333  0.79142200  0.10402910  1.0
  Ni  Ni279  1  0.16666667  0.23624567  0.03777610  1.0
  Ni  Ni280  1  0.16666667  0.56957900  0.03777610  1.0
  Ni  Ni281  1  0.16666667  0.90291233  0.03777610  1.0
  Ni  Ni282  1  0.50000000  0.23624567  0.03777610  1.0
  Ni  Ni283  1  0.50000000  0.56957900  0.03777610  1.0
  Ni  Ni284  1  0.50000000  0.90291233  0.03777610  1.0
  Ni  Ni285  1  0.83333333  0.23624567  0.03777610  1.0
  Ni  Ni286  1  0.83333333  0.56957900  0.03777610  1.0
  Ni  Ni287  1  0.83333333  0.90291233  0.03777610  1.0
  Sn  Sn288  1  0.00000000  0.01638033  0.17299450  1.0
  Sn  Sn289  1  0.00000000  0.34971367  0.17299450  1.0
  Sn  Sn290  1  0.00000000  0.68304700  0.17299450  1.0
  Sn  Sn291  1  0.33333333  0.01638033  0.17299450  1.0
  Sn  Sn292  1  0.33333333  0.34971367  0.17299450  1.0
  Sn  Sn293  1  0.33333333  0.68304700  0.17299450  1.0
  Sn  Sn294  1  0.66666667  0.01638033  0.17299450  1.0
  Sn  Sn295  1  0.66666667  0.34971367  0.17299450  1.0
  Sn  Sn296  1  0.66666667  0.68304700  0.17299450  1.0
  Sn  Sn297  1  0.00000000  0.12512633  0.10518130  1.0
  Sn  Sn298  1  0.00000000  0.45845967  0.10518130  1.0
  Sn  Sn299  1  0.00000000  0.79179300  0.10518130  1.0
  Sn  Sn300  1  0.33333333  0.12512633  0.10518130  1.0
  Sn  Sn301  1  0.33333333  0.45845967  0.10518130  1.0
  Sn  Sn302  1  0.33333333  0.79179300  0.10518130  1.0
  Sn  Sn303  1  0.66666667  0.12512633  0.10518130  1.0
  Sn  Sn304  1  0.66666667  0.45845967  0.10518130  1.0
  Sn  Sn305  1  0.66666667  0.79179300  0.10518130  1.0
  Sn  Sn306  1  0.00000000  0.23819900  0.03908030  1.0
  Sn  Sn307  1  0.00000000  0.57153233  0.03908030  1.0
  Sn  Sn308  1  0.00000000  0.90486567  0.03908030  1.0
  Sn  Sn309  1  0.33333333  0.23819900  0.03908030  1.0
  Sn  Sn310  1  0.33333333  0.57153233  0.03908030  1.0
  Sn  Sn311  1  0.33333333  0.90486567  0.03908030  1.0
  Sn  Sn312  1  0.66666667  0.23819900  0.03908030  1.0
  Sn  Sn313  1  0.66666667  0.57153233  0.03908030  1.0
  Sn  Sn314  1  0.66666667  0.90486567  0.03908030  1.0
  Sn  Sn315  1  0.00000000  0.04132700  0.10425570  1.0
  Sn  Sn316  1  0.00000000  0.37466033  0.10425570  1.0
  Sn  Sn317  1  0.00000000  0.70799367  0.10425570  1.0
  Sn  Sn318  1  0.33333333  0.04132700  0.10425570  1.0
  Sn  Sn319  1  0.33333333  0.37466033  0.10425570  1.0
  Sn  Sn320  1  0.33333333  0.70799367  0.10425570  1.0
  Sn  Sn321  1  0.66666667  0.04132700  0.10425570  1.0
  Sn  Sn322  1  0.66666667  0.37466033  0.10425570  1.0
  Sn  Sn323  1  0.66666667  0.70799367  0.10425570  1.0
  Sn  Sn324  1  0.00000000  0.15208200  0.03700390  1.0
  Sn  Sn325  1  0.00000000  0.48541533  0.03700390  1.0
  Sn  Sn326  1  0.00000000  0.81874867  0.03700390  1.0
  Sn  Sn327  1  0.33333333  0.15208200  0.03700390  1.0
  Sn  Sn328  1  0.33333333  0.48541533  0.03700390  1.0
  Sn  Sn329  1  0.33333333  0.81874867  0.03700390  1.0
  Sn  Sn330  1  0.66666667  0.15208200  0.03700390  1.0
  Sn  Sn331  1  0.66666667  0.48541533  0.03700390  1.0
  Sn  Sn332  1  0.66666667  0.81874867  0.03700390  1.0
  Sn  Sn333  1  0.00000000  0.26328633  0.16990930  1.0
  Sn  Sn334  1  0.00000000  0.59661967  0.16990930  1.0
  Sn  Sn335  1  0.00000000  0.92995300  0.16990930  1.0
  Sn  Sn336  1  0.33333333  0.26328633  0.16990930  1.0
  Sn  Sn337  1  0.33333333  0.59661967  0.16990930  1.0
  Sn  Sn338  1  0.33333333  0.92995300  0.16990930  1.0
  Sn  Sn339  1  0.66666667  0.26328633  0.16990930  1.0
  Sn  Sn340  1  0.66666667  0.59661967  0.16990930  1.0
  Sn  Sn341  1  0.66666667  0.92995300  0.16990930  1.0
  Sn  Sn342  1  0.16666667  0.09547733  0.10586550  1.0
  Sn  Sn343  1  0.16666667  0.42881067  0.10586550  1.0
  Sn  Sn344  1  0.16666667  0.76214400  0.10586550  1.0
  Sn  Sn345  1  0.50000000  0.09547733  0.10586550  1.0
  Sn  Sn346  1  0.50000000  0.42881067  0.10586550  1.0
  Sn  Sn347  1  0.50000000  0.76214400  0.10586550  1.0
  Sn  Sn348  1  0.83333333  0.09547733  0.10586550  1.0
  Sn  Sn349  1  0.83333333  0.42881067  0.10586550  1.0
  Sn  Sn350  1  0.83333333  0.76214400  0.10586550  1.0
  Sn  Sn351  1  0.16666667  0.20651500  0.03977750  1.0
  Sn  Sn352  1  0.16666667  0.53984833  0.03977750  1.0
  Sn  Sn353  1  0.16666667  0.87318167  0.03977750  1.0
  Sn  Sn354  1  0.50000000  0.20651500  0.03977750  1.0
  Sn  Sn355  1  0.50000000  0.53984833  0.03977750  1.0
  Sn  Sn356  1  0.50000000  0.87318167  0.03977750  1.0
  Sn  Sn357  1  0.83333333  0.20651500  0.03977750  1.0
  Sn  Sn358  1  0.83333333  0.53984833  0.03977750  1.0
  Sn  Sn359  1  0.83333333  0.87318167  0.03977750  1.0
  Sn  Sn360  1  0.16666667  0.31784700  0.17335990  1.0
  Sn  Sn361  1  0.16666667  0.65118033  0.17335990  1.0
  Sn  Sn362  1  0.16666667  0.98451367  0.17335990  1.0
  Sn  Sn363  1  0.50000000  0.31784700  0.17335990  1.0
  Sn  Sn364  1  0.50000000  0.65118033  0.17335990  1.0
  Sn  Sn365  1  0.50000000  0.98451367  0.17335990  1.0
  Sn  Sn366  1  0.83333333  0.31784700  0.17335990  1.0
  Sn  Sn367  1  0.83333333  0.65118033  0.17335990  1.0
  Sn  Sn368  1  0.83333333  0.98451367  0.17335990  1.0
  Sn  Sn369  1  0.16666667  0.07119533  0.17585590  1.0
  Sn  Sn370  1  0.16666667  0.40452867  0.17585590  1.0
  Sn  Sn371  1  0.16666667  0.73786200  0.17585590  1.0
  Sn  Sn372  1  0.50000000  0.07119533  0.17585590  1.0
  Sn  Sn373  1  0.50000000  0.40452867  0.17585590  1.0
  Sn  Sn374  1  0.50000000  0.73786200  0.17585590  1.0
  Sn  Sn375  1  0.83333333  0.07119533  0.17585590  1.0
  Sn  Sn376  1  0.83333333  0.40452867  0.17585590  1.0
  Sn  Sn377  1  0.83333333  0.73786200  0.17585590  1.0
  Sn  Sn378  1  0.16666667  0.18223167  0.11054050  1.0
  Sn  Sn379  1  0.16666667  0.51556500  0.11054050  1.0
  Sn  Sn380  1  0.16666667  0.84889833  0.11054050  1.0
  Sn  Sn381  1  0.50000000  0.18223167  0.11054050  1.0
  Sn  Sn382  1  0.50000000  0.51556500  0.11054050  1.0
  Sn  Sn383  1  0.50000000  0.84889833  0.11054050  1.0
  Sn  Sn384  1  0.83333333  0.18223167  0.11054050  1.0
  Sn  Sn385  1  0.83333333  0.51556500  0.11054050  1.0
  Sn  Sn386  1  0.83333333  0.84889833  0.11054050  1.0
  Sn  Sn387  1  0.16666667  0.29347033  0.04346330  1.0
  Sn  Sn388  1  0.16666667  0.62680367  0.04346330  1.0
  Sn  Sn389  1  0.16666667  0.96013700  0.04346330  1.0
  Sn  Sn390  1  0.50000000  0.29347033  0.04346330  1.0
  Sn  Sn391  1  0.50000000  0.62680367  0.04346330  1.0
  Sn  Sn392  1  0.50000000  0.96013700  0.04346330  1.0
  Sn  Sn393  1  0.83333333  0.29347033  0.04346330  1.0
  Sn  Sn394  1  0.83333333  0.62680367  0.04346330  1.0
  Sn  Sn395  1  0.83333333  0.96013700  0.04346330  1.0
  Sn  Sn396  1  0.00000000  0.06958133  0.03812730  1.0
  Sn  Sn397  1  0.00000000  0.40291467  0.03812730  1.0
  Sn  Sn398  1  0.00000000  0.73624800  0.03812730  1.0
  Sn  Sn399  1  0.33333333  0.06958133  0.03812730  1.0
  Sn  Sn400  1  0.33333333  0.40291467  0.03812730  1.0
  Sn  Sn401  1  0.33333333  0.73624800  0.03812730  1.0
  Sn  Sn402  1  0.66666667  0.06958133  0.03812730  1.0
  Sn  Sn403  1  0.66666667  0.40291467  0.03812730  1.0
  Sn  Sn404  1  0.66666667  0.73624800  0.03812730  1.0
  Sn  Sn405  1  0.00000000  0.17837600  0.16631390  1.0
  Sn  Sn406  1  0.00000000  0.51170933  0.16631390  1.0
  Sn  Sn407  1  0.00000000  0.84504267  0.16631390  1.0
  Sn  Sn408  1  0.33333333  0.17837600  0.16631390  1.0
  Sn  Sn409  1  0.33333333  0.51170933  0.16631390  1.0
  Sn  Sn410  1  0.33333333  0.84504267  0.16631390  1.0
  Sn  Sn411  1  0.66666667  0.17837600  0.16631390  1.0
  Sn  Sn412  1  0.66666667  0.51170933  0.16631390  1.0
  Sn  Sn413  1  0.66666667  0.84504267  0.16631390  1.0
  Sn  Sn414  1  0.00000000  0.28984500  0.09993450  1.0
  Sn  Sn415  1  0.00000000  0.62317833  0.09993450  1.0
  Sn  Sn416  1  0.00000000  0.95651167  0.09993450  1.0
  Sn  Sn417  1  0.33333333  0.28984500  0.09993450  1.0
  Sn  Sn418  1  0.33333333  0.62317833  0.09993450  1.0
  Sn  Sn419  1  0.33333333  0.95651167  0.09993450  1.0
  Sn  Sn420  1  0.66666667  0.28984500  0.09993450  1.0
  Sn  Sn421  1  0.66666667  0.62317833  0.09993450  1.0
  Sn  Sn422  1  0.66666667  0.95651167  0.09993450  1.0
  Sn  Sn423  1  0.00000000  0.09751133  0.17192030  1.0
  Sn  Sn424  1  0.00000000  0.43084467  0.17192030  1.0
  Sn  Sn425  1  0.00000000  0.76417800  0.17192030  1.0
  Sn  Sn426  1  0.33333333  0.09751133  0.17192030  1.0
  Sn  Sn427  1  0.33333333  0.43084467  0.17192030  1.0
  Sn  Sn428  1  0.33333333  0.76417800  0.17192030  1.0
  Sn  Sn429  1  0.66666667  0.09751133  0.17192030  1.0
  Sn  Sn430  1  0.66666667  0.43084467  0.17192030  1.0
  Sn  Sn431  1  0.66666667  0.76417800  0.17192030  1.0
  Sn  Sn432  1  0.00000000  0.20860933  0.11148890  1.0
  Sn  Sn433  1  0.00000000  0.54194267  0.11148890  1.0
  Sn  Sn434  1  0.00000000  0.87527600  0.11148890  1.0
  Sn  Sn435  1  0.33333333  0.20860933  0.11148890  1.0
  Sn  Sn436  1  0.33333333  0.54194267  0.11148890  1.0
  Sn  Sn437  1  0.33333333  0.87527600  0.11148890  1.0
  Sn  Sn438  1  0.66666667  0.20860933  0.11148890  1.0
  Sn  Sn439  1  0.66666667  0.54194267  0.11148890  1.0
  Sn  Sn440  1  0.66666667  0.87527600  0.11148890  1.0
  Sn  Sn441  1  0.00000000  0.31964667  0.04487930  1.0
  Sn  Sn442  1  0.00000000  0.65298000  0.04487930  1.0
  Sn  Sn443  1  0.00000000  0.98631333  0.04487930  1.0
  Sn  Sn444  1  0.33333333  0.31964667  0.04487930  1.0
  Sn  Sn445  1  0.33333333  0.65298000  0.04487930  1.0
  Sn  Sn446  1  0.33333333  0.98631333  0.04487930  1.0
  Sn  Sn447  1  0.66666667  0.31964667  0.04487930  1.0
  Sn  Sn448  1  0.66666667  0.65298000  0.04487930  1.0
  Sn  Sn449  1  0.66666667  0.98631333  0.04487930  1.0
  Sn  Sn450  1  0.16666667  0.04551933  0.03808910  1.0
  Sn  Sn451  1  0.16666667  0.37885267  0.03808910  1.0
  Sn  Sn452  1  0.16666667  0.71218600  0.03808910  1.0
  Sn  Sn453  1  0.50000000  0.04551933  0.03808910  1.0
  Sn  Sn454  1  0.50000000  0.37885267  0.03808910  1.0
  Sn  Sn455  1  0.50000000  0.71218600  0.03808910  1.0
  Sn  Sn456  1  0.83333333  0.04551933  0.03808910  1.0
  Sn  Sn457  1  0.83333333  0.37885267  0.03808910  1.0
  Sn  Sn458  1  0.83333333  0.71218600  0.03808910  1.0
  Sn  Sn459  1  0.16666667  0.15611600  0.17086490  1.0
  Sn  Sn460  1  0.16666667  0.48944933  0.17086490  1.0
  Sn  Sn461  1  0.16666667  0.82278267  0.17086490  1.0
  Sn  Sn462  1  0.50000000  0.15611600  0.17086490  1.0
  Sn  Sn463  1  0.50000000  0.48944933  0.17086490  1.0
  Sn  Sn464  1  0.50000000  0.82278267  0.17086490  1.0
  Sn  Sn465  1  0.83333333  0.15611600  0.17086490  1.0
  Sn  Sn466  1  0.83333333  0.48944933  0.17086490  1.0
  Sn  Sn467  1  0.83333333  0.82278267  0.17086490  1.0
  Sn  Sn468  1  0.16666667  0.26767333  0.10432510  1.0
  Sn  Sn469  1  0.16666667  0.60100667  0.10432510  1.0
  Sn  Sn470  1  0.16666667  0.93434000  0.10432510  1.0
  Sn  Sn471  1  0.50000000  0.26767333  0.10432510  1.0
  Sn  Sn472  1  0.50000000  0.60100667  0.10432510  1.0
  Sn  Sn473  1  0.50000000  0.93434000  0.10432510  1.0
  Sn  Sn474  1  0.83333333  0.26767333  0.10432510  1.0
  Sn  Sn475  1  0.83333333  0.60100667  0.10432510  1.0
  Sn  Sn476  1  0.83333333  0.93434000  0.10432510  1.0
  Sn  Sn477  1  0.16666667  0.01031033  0.09653970  1.0
  Sn  Sn478  1  0.16666667  0.34364367  0.09653970  1.0
  Sn  Sn479  1  0.16666667  0.67697700  0.09653970  1.0
  Sn  Sn480  1  0.50000000  0.01031033  0.09653970  1.0
  Sn  Sn481  1  0.50000000  0.34364367  0.09653970  1.0
  Sn  Sn482  1  0.50000000  0.67697700  0.09653970  1.0
  Sn  Sn483  1  0.83333333  0.01031033  0.09653970  1.0
  Sn  Sn484  1  0.83333333  0.34364367  0.09653970  1.0
  Sn  Sn485  1  0.83333333  0.67697700  0.09653970  1.0
  Sn  Sn486  1  0.16666667  0.12155833  0.02913510  1.0
  Sn  Sn487  1  0.16666667  0.45489167  0.02913510  1.0
  Sn  Sn488  1  0.16666667  0.78822500  0.02913510  1.0
  Sn  Sn489  1  0.50000000  0.12155833  0.02913510  1.0
  Sn  Sn490  1  0.50000000  0.45489167  0.02913510  1.0
  Sn  Sn491  1  0.50000000  0.78822500  0.02913510  1.0
  Sn  Sn492  1  0.83333333  0.12155833  0.02913510  1.0
  Sn  Sn493  1  0.83333333  0.45489167  0.02913510  1.0
  Sn  Sn494  1  0.83333333  0.78822500  0.02913510  1.0
  Sn  Sn495  1  0.16666667  0.23259767  0.16304750  1.0
  Sn  Sn496  1  0.16666667  0.56593100  0.16304750  1.0
  Sn  Sn497  1  0.16666667  0.89926433  0.16304750  1.0
  Sn  Sn498  1  0.50000000  0.23259767  0.16304750  1.0
  Sn  Sn499  1  0.50000000  0.56593100  0.16304750  1.0
  Sn  Sn500  1  0.50000000  0.89926433  0.16304750  1.0
  Sn  Sn501  1  0.83333333  0.23259767  0.16304750  1.0
  Sn  Sn502  1  0.83333333  0.56593100  0.16304750  1.0
  Sn  Sn503  1  0.83333333  0.89926433  0.16304750  1.0
  Ni  Ni504  1  0.25087300  0.06943867  0.30649070  1.0
  Ni  Ni505  1  0.25087300  0.40277200  0.30649070  1.0
  Ni  Ni506  1  0.25087300  0.73610533  0.30649070  1.0
  Ni  Ni507  1  0.58420633  0.06943867  0.30649070  1.0
  Ni  Ni508  1  0.58420633  0.40277200  0.30649070  1.0
  Ni  Ni509  1  0.58420633  0.73610533  0.30649070  1.0
  Ni  Ni510  1  0.91753967  0.06943867  0.30649070  1.0
  Ni  Ni511  1  0.91753967  0.40277200  0.30649070  1.0
  Ni  Ni512  1  0.91753967  0.73610533  0.30649070  1.0
  Ni  Ni513  1  0.25162833  0.18044800  0.24043110  1.0
  Ni  Ni514  1  0.25162833  0.51378133  0.24043110  1.0
  Ni  Ni515  1  0.25162833  0.84711467  0.24043110  1.0
  Ni  Ni516  1  0.58496167  0.18044800  0.24043110  1.0
  Ni  Ni517  1  0.58496167  0.51378133  0.24043110  1.0
  Ni  Ni518  1  0.58496167  0.84711467  0.24043110  1.0
  Ni  Ni519  1  0.91829500  0.18044800  0.24043110  1.0
  Ni  Ni520  1  0.91829500  0.51378133  0.24043110  1.0
  Ni  Ni521  1  0.91829500  0.84711467  0.24043110  1.0
  Ni  Ni522  1  0.25151567  0.29162400  0.37364850  1.0
  Ni  Ni523  1  0.25151567  0.62495733  0.37364850  1.0
  Ni  Ni524  1  0.25151567  0.95829067  0.37364850  1.0
  Ni  Ni525  1  0.58484900  0.29162400  0.37364850  1.0
  Ni  Ni526  1  0.58484900  0.62495733  0.37364850  1.0
  Ni  Ni527  1  0.58484900  0.95829067  0.37364850  1.0
  Ni  Ni528  1  0.91818233  0.29162400  0.37364850  1.0
  Ni  Ni529  1  0.91818233  0.62495733  0.37364850  1.0
  Ni  Ni530  1  0.91818233  0.95829067  0.37364850  1.0
  Ni  Ni531  1  0.08281167  0.09731333  0.23990910  1.0
  Ni  Ni532  1  0.08281167  0.43064667  0.23990910  1.0
  Ni  Ni533  1  0.08281167  0.76398000  0.23990910  1.0
  Ni  Ni534  1  0.41614500  0.09731333  0.23990910  1.0
  Ni  Ni535  1  0.41614500  0.43064667  0.23990910  1.0
  Ni  Ni536  1  0.41614500  0.76398000  0.23990910  1.0
  Ni  Ni537  1  0.74947833  0.09731333  0.23990910  1.0
  Ni  Ni538  1  0.74947833  0.43064667  0.23990910  1.0
  Ni  Ni539  1  0.74947833  0.76398000  0.23990910  1.0
  Ni  Ni540  1  0.08262400  0.20841433  0.37502490  1.0
  Ni  Ni541  1  0.08262400  0.54174767  0.37502490  1.0
  Ni  Ni542  1  0.08262400  0.87508100  0.37502490  1.0
  Ni  Ni543  1  0.41595733  0.20841433  0.37502490  1.0
  Ni  Ni544  1  0.41595733  0.54174767  0.37502490  1.0
  Ni  Ni545  1  0.41595733  0.87508100  0.37502490  1.0
  Ni  Ni546  1  0.74929067  0.20841433  0.37502490  1.0
  Ni  Ni547  1  0.74929067  0.54174767  0.37502490  1.0
  Ni  Ni548  1  0.74929067  0.87508100  0.37502490  1.0
  Ni  Ni549  1  0.08247600  0.31971167  0.30869250  1.0
  Ni  Ni550  1  0.08247600  0.65304500  0.30869250  1.0
  Ni  Ni551  1  0.08247600  0.98637833  0.30869250  1.0
  Ni  Ni552  1  0.41580933  0.31971167  0.30869250  1.0
  Ni  Ni553  1  0.41580933  0.65304500  0.30869250  1.0
  Ni  Ni554  1  0.41580933  0.98637833  0.30869250  1.0
  Ni  Ni555  1  0.74914267  0.31971167  0.30869250  1.0
  Ni  Ni556  1  0.74914267  0.65304500  0.30869250  1.0
  Ni  Ni557  1  0.74914267  0.98637833  0.30869250  1.0
  Ni  Ni558  1  0.08475167  0.04219900  0.37007250  1.0
  Ni  Ni559  1  0.08475167  0.37553233  0.37007250  1.0
  Ni  Ni560  1  0.08475167  0.70886567  0.37007250  1.0
  Ni  Ni561  1  0.41808500  0.04219900  0.37007250  1.0
  Ni  Ni562  1  0.41808500  0.37553233  0.37007250  1.0
  Ni  Ni563  1  0.41808500  0.70886567  0.37007250  1.0
  Ni  Ni564  1  0.75141833  0.04219900  0.37007250  1.0
  Ni  Ni565  1  0.75141833  0.37553233  0.37007250  1.0
  Ni  Ni566  1  0.75141833  0.70886567  0.37007250  1.0
  Ni  Ni567  1  0.08520700  0.15207567  0.30196950  1.0
  Ni  Ni568  1  0.08520700  0.48540900  0.30196950  1.0
  Ni  Ni569  1  0.08520700  0.81874233  0.30196950  1.0
  Ni  Ni570  1  0.41854033  0.15207567  0.30196950  1.0
  Ni  Ni571  1  0.41854033  0.48540900  0.30196950  1.0
  Ni  Ni572  1  0.41854033  0.81874233  0.30196950  1.0
  Ni  Ni573  1  0.75187367  0.15207567  0.30196950  1.0
  Ni  Ni574  1  0.75187367  0.48540900  0.30196950  1.0
  Ni  Ni575  1  0.75187367  0.81874233  0.30196950  1.0
  Ni  Ni576  1  0.08557967  0.26381267  0.23527230  1.0
  Ni  Ni577  1  0.08557967  0.59714600  0.23527230  1.0
  Ni  Ni578  1  0.08557967  0.93047933  0.23527230  1.0
  Ni  Ni579  1  0.41891300  0.26381267  0.23527230  1.0
  Ni  Ni580  1  0.41891300  0.59714600  0.23527230  1.0
  Ni  Ni581  1  0.41891300  0.93047933  0.23527230  1.0
  Ni  Ni582  1  0.75224633  0.26381267  0.23527230  1.0
  Ni  Ni583  1  0.75224633  0.59714600  0.23527230  1.0
  Ni  Ni584  1  0.75224633  0.93047933  0.23527230  1.0
  Ni  Ni585  1  0.24933867  0.01386367  0.23660930  1.0
  Ni  Ni586  1  0.24933867  0.34719700  0.23660930  1.0
  Ni  Ni587  1  0.24933867  0.68053033  0.23660930  1.0
  Ni  Ni588  1  0.58267200  0.01386367  0.23660930  1.0
  Ni  Ni589  1  0.58267200  0.34719700  0.23660930  1.0
  Ni  Ni590  1  0.58267200  0.68053033  0.23660930  1.0
  Ni  Ni591  1  0.91600533  0.01386367  0.23660930  1.0
  Ni  Ni592  1  0.91600533  0.34719700  0.23660930  1.0
  Ni  Ni593  1  0.91600533  0.68053033  0.23660930  1.0
  Ni  Ni594  1  0.24898667  0.12504767  0.36982290  1.0
  Ni  Ni595  1  0.24898667  0.45838100  0.36982290  1.0
  Ni  Ni596  1  0.24898667  0.79171433  0.36982290  1.0
  Ni  Ni597  1  0.58232000  0.12504767  0.36982290  1.0
  Ni  Ni598  1  0.58232000  0.45838100  0.36982290  1.0
  Ni  Ni599  1  0.58232000  0.79171433  0.36982290  1.0
  Ni  Ni600  1  0.91565333  0.12504767  0.36982290  1.0
  Ni  Ni601  1  0.91565333  0.45838100  0.36982290  1.0
  Ni  Ni602  1  0.91565333  0.79171433  0.36982290  1.0
  Ni  Ni603  1  0.24915467  0.23608033  0.30302350  1.0
  Ni  Ni604  1  0.24915467  0.56941367  0.30302350  1.0
  Ni  Ni605  1  0.24915467  0.90274700  0.30302350  1.0
  Ni  Ni606  1  0.58248800  0.23608033  0.30302350  1.0
  Ni  Ni607  1  0.58248800  0.56941367  0.30302350  1.0
  Ni  Ni608  1  0.58248800  0.90274700  0.30302350  1.0
  Ni  Ni609  1  0.91582133  0.23608033  0.30302350  1.0
  Ni  Ni610  1  0.91582133  0.56941367  0.30302350  1.0
  Ni  Ni611  1  0.91582133  0.90274700  0.30302350  1.0
  Ni  Ni612  1  0.24858167  0.04219900  0.37007250  1.0
  Ni  Ni613  1  0.24858167  0.37553233  0.37007250  1.0
  Ni  Ni614  1  0.24858167  0.70886567  0.37007250  1.0
  Ni  Ni615  1  0.58191500  0.04219900  0.37007250  1.0
  Ni  Ni616  1  0.58191500  0.37553233  0.37007250  1.0
  Ni  Ni617  1  0.58191500  0.70886567  0.37007250  1.0
  Ni  Ni618  1  0.91524833  0.04219900  0.37007250  1.0
  Ni  Ni619  1  0.91524833  0.37553233  0.37007250  1.0
  Ni  Ni620  1  0.91524833  0.70886567  0.37007250  1.0
  Ni  Ni621  1  0.24812633  0.15207567  0.30196950  1.0
  Ni  Ni622  1  0.24812633  0.48540900  0.30196950  1.0
  Ni  Ni623  1  0.24812633  0.81874233  0.30196950  1.0
  Ni  Ni624  1  0.58145967  0.15207567  0.30196950  1.0
  Ni  Ni625  1  0.58145967  0.48540900  0.30196950  1.0
  Ni  Ni626  1  0.58145967  0.81874233  0.30196950  1.0
  Ni  Ni627  1  0.91479300  0.15207567  0.30196950  1.0
  Ni  Ni628  1  0.91479300  0.48540900  0.30196950  1.0
  Ni  Ni629  1  0.91479300  0.81874233  0.30196950  1.0
  Ni  Ni630  1  0.24775367  0.26381267  0.23527230  1.0
  Ni  Ni631  1  0.24775367  0.59714600  0.23527230  1.0
  Ni  Ni632  1  0.24775367  0.93047933  0.23527230  1.0
  Ni  Ni633  1  0.58108700  0.26381267  0.23527230  1.0
  Ni  Ni634  1  0.58108700  0.59714600  0.23527230  1.0
  Ni  Ni635  1  0.58108700  0.93047933  0.23527230  1.0
  Ni  Ni636  1  0.91442033  0.26381267  0.23527230  1.0
  Ni  Ni637  1  0.91442033  0.59714600  0.23527230  1.0
  Ni  Ni638  1  0.91442033  0.93047933  0.23527230  1.0
  Ni  Ni639  1  0.08399467  0.01386367  0.23660930  1.0
  Ni  Ni640  1  0.08399467  0.34719700  0.23660930  1.0
  Ni  Ni641  1  0.08399467  0.68053033  0.23660930  1.0
  Ni  Ni642  1  0.41732800  0.01386367  0.23660930  1.0
  Ni  Ni643  1  0.41732800  0.34719700  0.23660930  1.0
  Ni  Ni644  1  0.41732800  0.68053033  0.23660930  1.0
  Ni  Ni645  1  0.75066133  0.01386367  0.23660930  1.0
  Ni  Ni646  1  0.75066133  0.34719700  0.23660930  1.0
  Ni  Ni647  1  0.75066133  0.68053033  0.23660930  1.0
  Ni  Ni648  1  0.08434667  0.12504767  0.36982290  1.0
  Ni  Ni649  1  0.08434667  0.45838100  0.36982290  1.0
  Ni  Ni650  1  0.08434667  0.79171433  0.36982290  1.0
  Ni  Ni651  1  0.41768000  0.12504767  0.36982290  1.0
  Ni  Ni652  1  0.41768000  0.45838100  0.36982290  1.0
  Ni  Ni653  1  0.41768000  0.79171433  0.36982290  1.0
  Ni  Ni654  1  0.75101333  0.12504767  0.36982290  1.0
  Ni  Ni655  1  0.75101333  0.45838100  0.36982290  1.0
  Ni  Ni656  1  0.75101333  0.79171433  0.36982290  1.0
  Ni  Ni657  1  0.08417867  0.23608033  0.30302350  1.0
  Ni  Ni658  1  0.08417867  0.56941367  0.30302350  1.0
  Ni  Ni659  1  0.08417867  0.90274700  0.30302350  1.0
  Ni  Ni660  1  0.41751200  0.23608033  0.30302350  1.0
  Ni  Ni661  1  0.41751200  0.56941367  0.30302350  1.0
  Ni  Ni662  1  0.41751200  0.90274700  0.30302350  1.0
  Ni  Ni663  1  0.75084533  0.23608033  0.30302350  1.0
  Ni  Ni664  1  0.75084533  0.56941367  0.30302350  1.0
  Ni  Ni665  1  0.75084533  0.90274700  0.30302350  1.0
  Ni  Ni666  1  0.08246033  0.06943867  0.30649070  1.0
  Ni  Ni667  1  0.08246033  0.40277200  0.30649070  1.0
  Ni  Ni668  1  0.08246033  0.73610533  0.30649070  1.0
  Ni  Ni669  1  0.41579367  0.06943867  0.30649070  1.0
  Ni  Ni670  1  0.41579367  0.40277200  0.30649070  1.0
  Ni  Ni671  1  0.41579367  0.73610533  0.30649070  1.0
  Ni  Ni672  1  0.74912700  0.06943867  0.30649070  1.0
  Ni  Ni673  1  0.74912700  0.40277200  0.30649070  1.0
  Ni  Ni674  1  0.74912700  0.73610533  0.30649070  1.0
  Ni  Ni675  1  0.08170500  0.18044800  0.24043110  1.0
  Ni  Ni676  1  0.08170500  0.51378133  0.24043110  1.0
  Ni  Ni677  1  0.08170500  0.84711467  0.24043110  1.0
  Ni  Ni678  1  0.41503833  0.18044800  0.24043110  1.0
  Ni  Ni679  1  0.41503833  0.51378133  0.24043110  1.0
  Ni  Ni680  1  0.41503833  0.84711467  0.24043110  1.0
  Ni  Ni681  1  0.74837167  0.18044800  0.24043110  1.0
  Ni  Ni682  1  0.74837167  0.51378133  0.24043110  1.0
  Ni  Ni683  1  0.74837167  0.84711467  0.24043110  1.0
  Ni  Ni684  1  0.08181767  0.29162400  0.37364850  1.0
  Ni  Ni685  1  0.08181767  0.62495733  0.37364850  1.0
  Ni  Ni686  1  0.08181767  0.95829067  0.37364850  1.0
  Ni  Ni687  1  0.41515100  0.29162400  0.37364850  1.0
  Ni  Ni688  1  0.41515100  0.62495733  0.37364850  1.0
  Ni  Ni689  1  0.41515100  0.95829067  0.37364850  1.0
  Ni  Ni690  1  0.74848433  0.29162400  0.37364850  1.0
  Ni  Ni691  1  0.74848433  0.62495733  0.37364850  1.0
  Ni  Ni692  1  0.74848433  0.95829067  0.37364850  1.0
  Ni  Ni693  1  0.25052167  0.09731333  0.23990910  1.0
  Ni  Ni694  1  0.25052167  0.43064667  0.23990910  1.0
  Ni  Ni695  1  0.25052167  0.76398000  0.23990910  1.0
  Ni  Ni696  1  0.58385500  0.09731333  0.23990910  1.0
  Ni  Ni697  1  0.58385500  0.43064667  0.23990910  1.0
  Ni  Ni698  1  0.58385500  0.76398000  0.23990910  1.0
  Ni  Ni699  1  0.91718833  0.09731333  0.23990910  1.0
  Ni  Ni700  1  0.91718833  0.43064667  0.23990910  1.0
  Ni  Ni701  1  0.91718833  0.76398000  0.23990910  1.0
  Ni  Ni702  1  0.25070933  0.20841433  0.37502490  1.0
  Ni  Ni703  1  0.25070933  0.54174767  0.37502490  1.0
  Ni  Ni704  1  0.25070933  0.87508100  0.37502490  1.0
  Ni  Ni705  1  0.58404267  0.20841433  0.37502490  1.0
  Ni  Ni706  1  0.58404267  0.54174767  0.37502490  1.0
  Ni  Ni707  1  0.58404267  0.87508100  0.37502490  1.0
  Ni  Ni708  1  0.91737600  0.20841433  0.37502490  1.0
  Ni  Ni709  1  0.91737600  0.54174767  0.37502490  1.0
  Ni  Ni710  1  0.91737600  0.87508100  0.37502490  1.0
  Ni  Ni711  1  0.25085733  0.31971167  0.30869250  1.0
  Ni  Ni712  1  0.25085733  0.65304500  0.30869250  1.0
  Ni  Ni713  1  0.25085733  0.98637833  0.30869250  1.0
  Ni  Ni714  1  0.58419067  0.31971167  0.30869250  1.0
  Ni  Ni715  1  0.58419067  0.65304500  0.30869250  1.0
  Ni  Ni716  1  0.58419067  0.98637833  0.30869250  1.0
  Ni  Ni717  1  0.91752400  0.31971167  0.30869250  1.0
  Ni  Ni718  1  0.91752400  0.65304500  0.30869250  1.0
  Ni  Ni719  1  0.91752400  0.98637833  0.30869250  1.0
  Ni  Ni720  1  0.00000000  0.20767667  0.23992890  1.0
  Ni  Ni721  1  0.00000000  0.54101000  0.23992890  1.0
  Ni  Ni722  1  0.00000000  0.87434333  0.23992890  1.0
  Ni  Ni723  1  0.33333333  0.20767667  0.23992890  1.0
  Ni  Ni724  1  0.33333333  0.54101000  0.23992890  1.0
  Ni  Ni725  1  0.33333333  0.87434333  0.23992890  1.0
  Ni  Ni726  1  0.66666667  0.20767667  0.23992890  1.0
  Ni  Ni727  1  0.66666667  0.54101000  0.23992890  1.0
  Ni  Ni728  1  0.66666667  0.87434333  0.23992890  1.0
  Ni  Ni729  1  0.00000000  0.31900200  0.37357830  1.0
  Ni  Ni730  1  0.00000000  0.65233533  0.37357830  1.0
  Ni  Ni731  1  0.00000000  0.98566867  0.37357830  1.0
  Ni  Ni732  1  0.33333333  0.31900200  0.37357830  1.0
  Ni  Ni733  1  0.33333333  0.65233533  0.37357830  1.0
  Ni  Ni734  1  0.33333333  0.98566867  0.37357830  1.0
  Ni  Ni735  1  0.66666667  0.31900200  0.37357830  1.0
  Ni  Ni736  1  0.66666667  0.65233533  0.37357830  1.0
  Ni  Ni737  1  0.66666667  0.98566867  0.37357830  1.0
  Ni  Ni738  1  0.16666667  0.04125267  0.30338450  1.0
  Ni  Ni739  1  0.16666667  0.37458600  0.30338450  1.0
  Ni  Ni740  1  0.16666667  0.70791933  0.30338450  1.0
  Ni  Ni741  1  0.50000000  0.04125267  0.30338450  1.0
  Ni  Ni742  1  0.50000000  0.37458600  0.30338450  1.0
  Ni  Ni743  1  0.50000000  0.70791933  0.30338450  1.0
  Ni  Ni744  1  0.83333333  0.04125267  0.30338450  1.0
  Ni  Ni745  1  0.83333333  0.37458600  0.30338450  1.0
  Ni  Ni746  1  0.83333333  0.70791933  0.30338450  1.0
  Ni  Ni747  1  0.16666667  0.15313067  0.23793970  1.0
  Ni  Ni748  1  0.16666667  0.48646400  0.23793970  1.0
  Ni  Ni749  1  0.16666667  0.81979733  0.23793970  1.0
  Ni  Ni750  1  0.50000000  0.15313067  0.23793970  1.0
  Ni  Ni751  1  0.50000000  0.48646400  0.23793970  1.0
  Ni  Ni752  1  0.50000000  0.81979733  0.23793970  1.0
  Ni  Ni753  1  0.83333333  0.15313067  0.23793970  1.0
  Ni  Ni754  1  0.83333333  0.48646400  0.23793970  1.0
  Ni  Ni755  1  0.83333333  0.81979733  0.23793970  1.0
  Ni  Ni756  1  0.16666667  0.26378300  0.37010070  1.0
  Ni  Ni757  1  0.16666667  0.59711633  0.37010070  1.0
  Ni  Ni758  1  0.16666667  0.93044967  0.37010070  1.0
  Ni  Ni759  1  0.50000000  0.26378300  0.37010070  1.0
  Ni  Ni760  1  0.50000000  0.59711633  0.37010070  1.0
  Ni  Ni761  1  0.50000000  0.93044967  0.37010070  1.0
  Ni  Ni762  1  0.83333333  0.26378300  0.37010070  1.0
  Ni  Ni763  1  0.83333333  0.59711633  0.37010070  1.0
  Ni  Ni764  1  0.83333333  0.93044967  0.37010070  1.0
  Ni  Ni765  1  0.16666667  0.01427967  0.37141110  1.0
  Ni  Ni766  1  0.16666667  0.34761300  0.37141110  1.0
  Ni  Ni767  1  0.16666667  0.68094633  0.37141110  1.0
  Ni  Ni768  1  0.50000000  0.01427967  0.37141110  1.0
  Ni  Ni769  1  0.50000000  0.34761300  0.37141110  1.0
  Ni  Ni770  1  0.50000000  0.68094633  0.37141110  1.0
  Ni  Ni771  1  0.83333333  0.01427967  0.37141110  1.0
  Ni  Ni772  1  0.83333333  0.34761300  0.37141110  1.0
  Ni  Ni773  1  0.83333333  0.68094633  0.37141110  1.0
  Ni  Ni774  1  0.16666667  0.12475533  0.30402910  1.0
  Ni  Ni775  1  0.16666667  0.45808867  0.30402910  1.0
  Ni  Ni776  1  0.16666667  0.79142200  0.30402910  1.0
  Ni  Ni777  1  0.50000000  0.12475533  0.30402910  1.0
  Ni  Ni778  1  0.50000000  0.45808867  0.30402910  1.0
  Ni  Ni779  1  0.50000000  0.79142200  0.30402910  1.0
  Ni  Ni780  1  0.83333333  0.12475533  0.30402910  1.0
  Ni  Ni781  1  0.83333333  0.45808867  0.30402910  1.0
  Ni  Ni782  1  0.83333333  0.79142200  0.30402910  1.0
  Ni  Ni783  1  0.16666667  0.23624567  0.23777610  1.0
  Ni  Ni784  1  0.16666667  0.56957900  0.23777610  1.0
  Ni  Ni785  1  0.16666667  0.90291233  0.23777610  1.0
  Ni  Ni786  1  0.50000000  0.23624567  0.23777610  1.0
  Ni  Ni787  1  0.50000000  0.56957900  0.23777610  1.0
  Ni  Ni788  1  0.50000000  0.90291233  0.23777610  1.0
  Ni  Ni789  1  0.83333333  0.23624567  0.23777610  1.0
  Ni  Ni790  1  0.83333333  0.56957900  0.23777610  1.0
  Ni  Ni791  1  0.83333333  0.90291233  0.23777610  1.0
  Sn  Sn792  1  0.00000000  0.01638033  0.37299450  1.0
  Sn  Sn793  1  0.00000000  0.34971367  0.37299450  1.0
  Sn  Sn794  1  0.00000000  0.68304700  0.37299450  1.0
  Sn  Sn795  1  0.33333333  0.01638033  0.37299450  1.0
  Sn  Sn796  1  0.33333333  0.34971367  0.37299450  1.0
  Sn  Sn797  1  0.33333333  0.68304700  0.37299450  1.0
  Sn  Sn798  1  0.66666667  0.01638033  0.37299450  1.0
  Sn  Sn799  1  0.66666667  0.34971367  0.37299450  1.0
  Sn  Sn800  1  0.66666667  0.68304700  0.37299450  1.0
  Sn  Sn801  1  0.00000000  0.12512633  0.30518130  1.0
  Sn  Sn802  1  0.00000000  0.45845967  0.30518130  1.0
  Sn  Sn803  1  0.00000000  0.79179300  0.30518130  1.0
  Sn  Sn804  1  0.33333333  0.12512633  0.30518130  1.0
  Sn  Sn805  1  0.33333333  0.45845967  0.30518130  1.0
  Sn  Sn806  1  0.33333333  0.79179300  0.30518130  1.0
  Sn  Sn807  1  0.66666667  0.12512633  0.30518130  1.0
  Sn  Sn808  1  0.66666667  0.45845967  0.30518130  1.0
  Sn  Sn809  1  0.66666667  0.79179300  0.30518130  1.0
  Sn  Sn810  1  0.00000000  0.23819900  0.23908030  1.0
  Sn  Sn811  1  0.00000000  0.57153233  0.23908030  1.0
  Sn  Sn812  1  0.00000000  0.90486567  0.23908030  1.0
  Sn  Sn813  1  0.33333333  0.23819900  0.23908030  1.0
  Sn  Sn814  1  0.33333333  0.57153233  0.23908030  1.0
  Sn  Sn815  1  0.33333333  0.90486567  0.23908030  1.0
  Sn  Sn816  1  0.66666667  0.23819900  0.23908030  1.0
  Sn  Sn817  1  0.66666667  0.57153233  0.23908030  1.0
  Sn  Sn818  1  0.66666667  0.90486567  0.23908030  1.0
  Sn  Sn819  1  0.00000000  0.04132700  0.30425570  1.0
  Sn  Sn820  1  0.00000000  0.37466033  0.30425570  1.0
  Sn  Sn821  1  0.00000000  0.70799367  0.30425570  1.0
  Sn  Sn822  1  0.33333333  0.04132700  0.30425570  1.0
  Sn  Sn823  1  0.33333333  0.37466033  0.30425570  1.0
  Sn  Sn824  1  0.33333333  0.70799367  0.30425570  1.0
  Sn  Sn825  1  0.66666667  0.04132700  0.30425570  1.0
  Sn  Sn826  1  0.66666667  0.37466033  0.30425570  1.0
  Sn  Sn827  1  0.66666667  0.70799367  0.30425570  1.0
  Sn  Sn828  1  0.00000000  0.15208200  0.23700390  1.0
  Sn  Sn829  1  0.00000000  0.48541533  0.23700390  1.0
  Sn  Sn830  1  0.00000000  0.81874867  0.23700390  1.0
  Sn  Sn831  1  0.33333333  0.15208200  0.23700390  1.0
  Sn  Sn832  1  0.33333333  0.48541533  0.23700390  1.0
  Sn  Sn833  1  0.33333333  0.81874867  0.23700390  1.0
  Sn  Sn834  1  0.66666667  0.15208200  0.23700390  1.0
  Sn  Sn835  1  0.66666667  0.48541533  0.23700390  1.0
  Sn  Sn836  1  0.66666667  0.81874867  0.23700390  1.0
  Sn  Sn837  1  0.00000000  0.26328633  0.36990930  1.0
  Sn  Sn838  1  0.00000000  0.59661967  0.36990930  1.0
  Sn  Sn839  1  0.00000000  0.92995300  0.36990930  1.0
  Sn  Sn840  1  0.33333333  0.26328633  0.36990930  1.0
  Sn  Sn841  1  0.33333333  0.59661967  0.36990930  1.0
  Sn  Sn842  1  0.33333333  0.92995300  0.36990930  1.0
  Sn  Sn843  1  0.66666667  0.26328633  0.36990930  1.0
  Sn  Sn844  1  0.66666667  0.59661967  0.36990930  1.0
  Sn  Sn845  1  0.66666667  0.92995300  0.36990930  1.0
  Sn  Sn846  1  0.16666667  0.09547733  0.30586550  1.0
  Sn  Sn847  1  0.16666667  0.42881067  0.30586550  1.0
  Sn  Sn848  1  0.16666667  0.76214400  0.30586550  1.0
  Sn  Sn849  1  0.50000000  0.09547733  0.30586550  1.0
  Sn  Sn850  1  0.50000000  0.42881067  0.30586550  1.0
  Sn  Sn851  1  0.50000000  0.76214400  0.30586550  1.0
  Sn  Sn852  1  0.83333333  0.09547733  0.30586550  1.0
  Sn  Sn853  1  0.83333333  0.42881067  0.30586550  1.0
  Sn  Sn854  1  0.83333333  0.76214400  0.30586550  1.0
  Sn  Sn855  1  0.16666667  0.20651500  0.23977750  1.0
  Sn  Sn856  1  0.16666667  0.53984833  0.23977750  1.0
  Sn  Sn857  1  0.16666667  0.87318167  0.23977750  1.0
  Sn  Sn858  1  0.50000000  0.20651500  0.23977750  1.0
  Sn  Sn859  1  0.50000000  0.53984833  0.23977750  1.0
  Sn  Sn860  1  0.50000000  0.87318167  0.23977750  1.0
  Sn  Sn861  1  0.83333333  0.20651500  0.23977750  1.0
  Sn  Sn862  1  0.83333333  0.53984833  0.23977750  1.0
  Sn  Sn863  1  0.83333333  0.87318167  0.23977750  1.0
  Sn  Sn864  1  0.16666667  0.31784700  0.37335990  1.0
  Sn  Sn865  1  0.16666667  0.65118033  0.37335990  1.0
  Sn  Sn866  1  0.16666667  0.98451367  0.37335990  1.0
  Sn  Sn867  1  0.50000000  0.31784700  0.37335990  1.0
  Sn  Sn868  1  0.50000000  0.65118033  0.37335990  1.0
  Sn  Sn869  1  0.50000000  0.98451367  0.37335990  1.0
  Sn  Sn870  1  0.83333333  0.31784700  0.37335990  1.0
  Sn  Sn871  1  0.83333333  0.65118033  0.37335990  1.0
  Sn  Sn872  1  0.83333333  0.98451367  0.37335990  1.0
  Sn  Sn873  1  0.16666667  0.07119533  0.37585590  1.0
  Sn  Sn874  1  0.16666667  0.40452867  0.37585590  1.0
  Sn  Sn875  1  0.16666667  0.73786200  0.37585590  1.0
  Sn  Sn876  1  0.50000000  0.07119533  0.37585590  1.0
  Sn  Sn877  1  0.50000000  0.40452867  0.37585590  1.0
  Sn  Sn878  1  0.50000000  0.73786200  0.37585590  1.0
  Sn  Sn879  1  0.83333333  0.07119533  0.37585590  1.0
  Sn  Sn880  1  0.83333333  0.40452867  0.37585590  1.0
  Sn  Sn881  1  0.83333333  0.73786200  0.37585590  1.0
  Sn  Sn882  1  0.16666667  0.18223167  0.31054050  1.0
  Sn  Sn883  1  0.16666667  0.51556500  0.31054050  1.0
  Sn  Sn884  1  0.16666667  0.84889833  0.31054050  1.0
  Sn  Sn885  1  0.50000000  0.18223167  0.31054050  1.0
  Sn  Sn886  1  0.50000000  0.51556500  0.31054050  1.0
  Sn  Sn887  1  0.50000000  0.84889833  0.31054050  1.0
  Sn  Sn888  1  0.83333333  0.18223167  0.31054050  1.0
  Sn  Sn889  1  0.83333333  0.51556500  0.31054050  1.0
  Sn  Sn890  1  0.83333333  0.84889833  0.31054050  1.0
  Sn  Sn891  1  0.16666667  0.29347033  0.24346330  1.0
  Sn  Sn892  1  0.16666667  0.62680367  0.24346330  1.0
  Sn  Sn893  1  0.16666667  0.96013700  0.24346330  1.0
  Sn  Sn894  1  0.50000000  0.29347033  0.24346330  1.0
  Sn  Sn895  1  0.50000000  0.62680367  0.24346330  1.0
  Sn  Sn896  1  0.50000000  0.96013700  0.24346330  1.0
  Sn  Sn897  1  0.83333333  0.29347033  0.24346330  1.0
  Sn  Sn898  1  0.83333333  0.62680367  0.24346330  1.0
  Sn  Sn899  1  0.83333333  0.96013700  0.24346330  1.0
  Sn  Sn900  1  0.00000000  0.06958133  0.23812730  1.0
  Sn  Sn901  1  0.00000000  0.40291467  0.23812730  1.0
  Sn  Sn902  1  0.00000000  0.73624800  0.23812730  1.0
  Sn  Sn903  1  0.33333333  0.06958133  0.23812730  1.0
  Sn  Sn904  1  0.33333333  0.40291467  0.23812730  1.0
  Sn  Sn905  1  0.33333333  0.73624800  0.23812730  1.0
  Sn  Sn906  1  0.66666667  0.06958133  0.23812730  1.0
  Sn  Sn907  1  0.66666667  0.40291467  0.23812730  1.0
  Sn  Sn908  1  0.66666667  0.73624800  0.23812730  1.0
  Sn  Sn909  1  0.00000000  0.17837600  0.36631390  1.0
  Sn  Sn910  1  0.00000000  0.51170933  0.36631390  1.0
  Sn  Sn911  1  0.00000000  0.84504267  0.36631390  1.0
  Sn  Sn912  1  0.33333333  0.17837600  0.36631390  1.0
  Sn  Sn913  1  0.33333333  0.51170933  0.36631390  1.0
  Sn  Sn914  1  0.33333333  0.84504267  0.36631390  1.0
  Sn  Sn915  1  0.66666667  0.17837600  0.36631390  1.0
  Sn  Sn916  1  0.66666667  0.51170933  0.36631390  1.0
  Sn  Sn917  1  0.66666667  0.84504267  0.36631390  1.0
  Sn  Sn918  1  0.00000000  0.28984500  0.29993450  1.0
  Sn  Sn919  1  0.00000000  0.62317833  0.29993450  1.0
  Sn  Sn920  1  0.00000000  0.95651167  0.29993450  1.0
  Sn  Sn921  1  0.33333333  0.28984500  0.29993450  1.0
  Sn  Sn922  1  0.33333333  0.62317833  0.29993450  1.0
  Sn  Sn923  1  0.33333333  0.95651167  0.29993450  1.0
  Sn  Sn924  1  0.66666667  0.28984500  0.29993450  1.0
  Sn  Sn925  1  0.66666667  0.62317833  0.29993450  1.0
  Sn  Sn926  1  0.66666667  0.95651167  0.29993450  1.0
  Sn  Sn927  1  0.00000000  0.09751133  0.37192030  1.0
  Sn  Sn928  1  0.00000000  0.43084467  0.37192030  1.0
  Sn  Sn929  1  0.00000000  0.76417800  0.37192030  1.0
  Sn  Sn930  1  0.33333333  0.09751133  0.37192030  1.0
  Sn  Sn931  1  0.33333333  0.43084467  0.37192030  1.0
  Sn  Sn932  1  0.33333333  0.76417800  0.37192030  1.0
  Sn  Sn933  1  0.66666667  0.09751133  0.37192030  1.0
  Sn  Sn934  1  0.66666667  0.43084467  0.37192030  1.0
  Sn  Sn935  1  0.66666667  0.76417800  0.37192030  1.0
  Sn  Sn936  1  0.00000000  0.20860933  0.31148890  1.0
  Sn  Sn937  1  0.00000000  0.54194267  0.31148890  1.0
  Sn  Sn938  1  0.00000000  0.87527600  0.31148890  1.0
  Sn  Sn939  1  0.33333333  0.20860933  0.31148890  1.0
  Sn  Sn940  1  0.33333333  0.54194267  0.31148890  1.0
  Sn  Sn941  1  0.33333333  0.87527600  0.31148890  1.0
  Sn  Sn942  1  0.66666667  0.20860933  0.31148890  1.0
  Sn  Sn943  1  0.66666667  0.54194267  0.31148890  1.0
  Sn  Sn944  1  0.66666667  0.87527600  0.31148890  1.0
  Sn  Sn945  1  0.00000000  0.31964667  0.24487930  1.0
  Sn  Sn946  1  0.00000000  0.65298000  0.24487930  1.0
  Sn  Sn947  1  0.00000000  0.98631333  0.24487930  1.0
  Sn  Sn948  1  0.33333333  0.31964667  0.24487930  1.0
  Sn  Sn949  1  0.33333333  0.65298000  0.24487930  1.0
  Sn  Sn950  1  0.33333333  0.98631333  0.24487930  1.0
  Sn  Sn951  1  0.66666667  0.31964667  0.24487930  1.0
  Sn  Sn952  1  0.66666667  0.65298000  0.24487930  1.0
  Sn  Sn953  1  0.66666667  0.98631333  0.24487930  1.0
  Sn  Sn954  1  0.16666667  0.04551933  0.23808910  1.0
  Sn  Sn955  1  0.16666667  0.37885267  0.23808910  1.0
  Sn  Sn956  1  0.16666667  0.71218600  0.23808910  1.0
  Sn  Sn957  1  0.50000000  0.04551933  0.23808910  1.0
  Sn  Sn958  1  0.50000000  0.37885267  0.23808910  1.0
  Sn  Sn959  1  0.50000000  0.71218600  0.23808910  1.0
  Sn  Sn960  1  0.83333333  0.04551933  0.23808910  1.0
  Sn  Sn961  1  0.83333333  0.37885267  0.23808910  1.0
  Sn  Sn962  1  0.83333333  0.71218600  0.23808910  1.0
  Sn  Sn963  1  0.16666667  0.15611600  0.37086490  1.0
  Sn  Sn964  1  0.16666667  0.48944933  0.37086490  1.0
  Sn  Sn965  1  0.16666667  0.82278267  0.37086490  1.0
  Sn  Sn966  1  0.50000000  0.15611600  0.37086490  1.0
  Sn  Sn967  1  0.50000000  0.48944933  0.37086490  1.0
  Sn  Sn968  1  0.50000000  0.82278267  0.37086490  1.0
  Sn  Sn969  1  0.83333333  0.15611600  0.37086490  1.0
  Sn  Sn970  1  0.83333333  0.48944933  0.37086490  1.0
  Sn  Sn971  1  0.83333333  0.82278267  0.37086490  1.0
  Sn  Sn972  1  0.16666667  0.26767333  0.30432510  1.0
  Sn  Sn973  1  0.16666667  0.60100667  0.30432510  1.0
  Sn  Sn974  1  0.16666667  0.93434000  0.30432510  1.0
  Sn  Sn975  1  0.50000000  0.26767333  0.30432510  1.0
  Sn  Sn976  1  0.50000000  0.60100667  0.30432510  1.0
  Sn  Sn977  1  0.50000000  0.93434000  0.30432510  1.0
  Sn  Sn978  1  0.83333333  0.26767333  0.30432510  1.0
  Sn  Sn979  1  0.83333333  0.60100667  0.30432510  1.0
  Sn  Sn980  1  0.83333333  0.93434000  0.30432510  1.0
  Sn  Sn981  1  0.16666667  0.01031033  0.29653970  1.0
  Sn  Sn982  1  0.16666667  0.34364367  0.29653970  1.0
  Sn  Sn983  1  0.16666667  0.67697700  0.29653970  1.0
  Sn  Sn984  1  0.50000000  0.01031033  0.29653970  1.0
  Sn  Sn985  1  0.50000000  0.34364367  0.29653970  1.0
  Sn  Sn986  1  0.50000000  0.67697700  0.29653970  1.0
  Sn  Sn987  1  0.83333333  0.01031033  0.29653970  1.0
  Sn  Sn988  1  0.83333333  0.34364367  0.29653970  1.0
  Sn  Sn989  1  0.83333333  0.67697700  0.29653970  1.0
  Sn  Sn990  1  0.16666667  0.12155833  0.22913510  1.0
  Sn  Sn991  1  0.16666667  0.45489167  0.22913510  1.0
  Sn  Sn992  1  0.16666667  0.78822500  0.22913510  1.0
  Sn  Sn993  1  0.50000000  0.12155833  0.22913510  1.0
  Sn  Sn994  1  0.50000000  0.45489167  0.22913510  1.0
  Sn  Sn995  1  0.50000000  0.78822500  0.22913510  1.0
  Sn  Sn996  1  0.83333333  0.12155833  0.22913510  1.0
  Sn  Sn997  1  0.83333333  0.45489167  0.22913510  1.0
  Sn  Sn998  1  0.83333333  0.78822500  0.22913510  1.0
  Sn  Sn999  1  0.16666667  0.23259767  0.36304750  1.0
  Sn  Sn1000  1  0.16666667  0.56593100  0.36304750  1.0
  Sn  Sn1001  1  0.16666667  0.89926433  0.36304750  1.0
  Sn  Sn1002  1  0.50000000  0.23259767  0.36304750  1.0
  Sn  Sn1003  1  0.50000000  0.56593100  0.36304750  1.0
  Sn  Sn1004  1  0.50000000  0.89926433  0.36304750  1.0
  Sn  Sn1005  1  0.83333333  0.23259767  0.36304750  1.0
  Sn  Sn1006  1  0.83333333  0.56593100  0.36304750  1.0
  Sn  Sn1007  1  0.83333333  0.89926433  0.36304750  1.0
