# generated using pymatgen
data_Ni5Ge3
_symmetry_space_group_name_H-M   'P 1'
_cell_length_a   49.72243826
_cell_length_b   20.23933142
_cell_length_c   50.79400408
_cell_angle_alpha   58.10442187
_cell_angle_beta   120.26687150
_cell_angle_gamma   77.88489699
_symmetry_Int_Tables_number   1
_chemical_formula_structural   Ni5Ge3
_chemical_formula_sum   'Ni540 Ge324'
_cell_volume   28503.72143160
_cell_formula_units_Z   108
loop_
 _symmetry_equiv_pos_site_id
 _symmetry_equiv_pos_as_xyz
  1  'x, y, z'
loop_
 _atom_site_type_symbol
 _atom_site_label
 _atom_site_symmetry_multiplicity
 _atom_site_fract_x
 _atom_site_fract_y
 _atom_site_fract_z
 _atom_site_occupancy
  Ni  Ni0  1  0.27852767  0.11594167  0.05752597  1.0
  Ni  Ni1  1  0.27852767  0.44927500  0.05752597  1.0
  Ni  Ni2  1  0.27852767  0.78260833  0.05752597  1.0
  Ni  Ni3  1  0.61186100  0.11594167  0.05752597  1.0
  Ni  Ni4  1  0.61186100  0.44927500  0.05752597  1.0
  Ni  Ni5  1  0.61186100  0.78260833  0.05752597  1.0
  Ni  Ni6  1  0.94519433  0.11594167  0.05752597  1.0
  Ni  Ni7  1  0.94519433  0.44927500  0.05752597  1.0
  Ni  Ni8  1  0.94519433  0.78260833  0.05752597  1.0
  Ni  Ni9  1  0.11186100  0.28260833  0.12002597  1.0
  Ni  Ni10  1  0.11186100  0.61594167  0.12002597  1.0
  Ni  Ni11  1  0.11186100  0.94927500  0.12002597  1.0
  Ni  Ni12  1  0.44519433  0.28260833  0.12002597  1.0
  Ni  Ni13  1  0.44519433  0.61594167  0.12002597  1.0
  Ni  Ni14  1  0.44519433  0.94927500  0.12002597  1.0
  Ni  Ni15  1  0.77852767  0.28260833  0.12002597  1.0
  Ni  Ni16  1  0.77852767  0.61594167  0.12002597  1.0
  Ni  Ni17  1  0.77852767  0.94927500  0.12002597  1.0
  Ni  Ni18  1  0.30276533  0.14017933  0.02223434  1.0
  Ni  Ni19  1  0.30276533  0.47351267  0.02223434  1.0
  Ni  Ni20  1  0.30276533  0.80684600  0.02223434  1.0
  Ni  Ni21  1  0.63609867  0.14017933  0.02223434  1.0
  Ni  Ni22  1  0.63609867  0.47351267  0.02223434  1.0
  Ni  Ni23  1  0.63609867  0.80684600  0.02223434  1.0
  Ni  Ni24  1  0.96943200  0.14017933  0.02223434  1.0
  Ni  Ni25  1  0.96943200  0.47351267  0.02223434  1.0
  Ni  Ni26  1  0.96943200  0.80684600  0.02223434  1.0
  Ni  Ni27  1  0.13609867  0.30684600  0.08473434  1.0
  Ni  Ni28  1  0.13609867  0.64017933  0.08473434  1.0
  Ni  Ni29  1  0.13609867  0.97351267  0.08473434  1.0
  Ni  Ni30  1  0.46943200  0.30684600  0.08473434  1.0
  Ni  Ni31  1  0.46943200  0.64017933  0.08473434  1.0
  Ni  Ni32  1  0.46943200  0.97351267  0.08473434  1.0
  Ni  Ni33  1  0.80276533  0.30684600  0.08473434  1.0
  Ni  Ni34  1  0.80276533  0.64017933  0.08473434  1.0
  Ni  Ni35  1  0.80276533  0.97351267  0.08473434  1.0
  Ni  Ni36  1  0.22147233  0.05072500  0.11827972  1.0
  Ni  Ni37  1  0.22147233  0.38405833  0.11827972  1.0
  Ni  Ni38  1  0.22147233  0.71739167  0.11827972  1.0
  Ni  Ni39  1  0.55480567  0.05072500  0.11827972  1.0
  Ni  Ni40  1  0.55480567  0.38405833  0.11827972  1.0
  Ni  Ni41  1  0.55480567  0.71739167  0.11827972  1.0
  Ni  Ni42  1  0.88813900  0.05072500  0.11827972  1.0
  Ni  Ni43  1  0.88813900  0.38405833  0.11827972  1.0
  Ni  Ni44  1  0.88813900  0.71739167  0.11827972  1.0
  Ni  Ni45  1  0.05480567  0.21739167  0.05577972  1.0
  Ni  Ni46  1  0.05480567  0.55072500  0.05577972  1.0
  Ni  Ni47  1  0.05480567  0.88405833  0.05577972  1.0
  Ni  Ni48  1  0.38813900  0.21739167  0.05577972  1.0
  Ni  Ni49  1  0.38813900  0.55072500  0.05577972  1.0
  Ni  Ni50  1  0.38813900  0.88405833  0.05577972  1.0
  Ni  Ni51  1  0.72147233  0.21739167  0.05577972  1.0
  Ni  Ni52  1  0.72147233  0.55072500  0.05577972  1.0
  Ni  Ni53  1  0.72147233  0.88405833  0.05577972  1.0
  Ni  Ni54  1  0.19723467  0.02648733  0.02857134  1.0
  Ni  Ni55  1  0.19723467  0.35982067  0.02857134  1.0
  Ni  Ni56  1  0.19723467  0.69315400  0.02857134  1.0
  Ni  Ni57  1  0.53056800  0.02648733  0.02857134  1.0
  Ni  Ni58  1  0.53056800  0.35982067  0.02857134  1.0
  Ni  Ni59  1  0.53056800  0.69315400  0.02857134  1.0
  Ni  Ni60  1  0.86390133  0.02648733  0.02857134  1.0
  Ni  Ni61  1  0.86390133  0.35982067  0.02857134  1.0
  Ni  Ni62  1  0.86390133  0.69315400  0.02857134  1.0
  Ni  Ni63  1  0.03056800  0.19315400  0.09107134  1.0
  Ni  Ni64  1  0.03056800  0.52648733  0.09107134  1.0
  Ni  Ni65  1  0.03056800  0.85982067  0.09107134  1.0
  Ni  Ni66  1  0.36390133  0.19315400  0.09107134  1.0
  Ni  Ni67  1  0.36390133  0.52648733  0.09107134  1.0
  Ni  Ni68  1  0.36390133  0.85982067  0.09107134  1.0
  Ni  Ni69  1  0.69723467  0.19315400  0.09107134  1.0
  Ni  Ni70  1  0.69723467  0.52648733  0.09107134  1.0
  Ni  Ni71  1  0.69723467  0.85982067  0.09107134  1.0
  Ni  Ni72  1  0.00000000  0.16666667  0.11915284  1.0
  Ni  Ni73  1  0.00000000  0.50000000  0.11915284  1.0
  Ni  Ni74  1  0.00000000  0.83333333  0.11915284  1.0
  Ni  Ni75  1  0.33333333  0.16666667  0.11915284  1.0
  Ni  Ni76  1  0.33333333  0.50000000  0.11915284  1.0
  Ni  Ni77  1  0.33333333  0.83333333  0.11915284  1.0
  Ni  Ni78  1  0.66666667  0.16666667  0.11915284  1.0
  Ni  Ni79  1  0.66666667  0.50000000  0.11915284  1.0
  Ni  Ni80  1  0.66666667  0.83333333  0.11915284  1.0
  Ni  Ni81  1  0.16666667  0.00000000  0.05665284  1.0
  Ni  Ni82  1  0.16666667  0.33333333  0.05665284  1.0
  Ni  Ni83  1  0.16666667  0.66666667  0.05665284  1.0
  Ni  Ni84  1  0.50000000  0.00000000  0.05665284  1.0
  Ni  Ni85  1  0.50000000  0.33333333  0.05665284  1.0
  Ni  Ni86  1  0.50000000  0.66666667  0.05665284  1.0
  Ni  Ni87  1  0.83333333  0.00000000  0.05665284  1.0
  Ni  Ni88  1  0.83333333  0.33333333  0.05665284  1.0
  Ni  Ni89  1  0.83333333  0.66666667  0.05665284  1.0
  Ni  Ni90  1  0.25000000  0.08333333  0.08790284  1.0
  Ni  Ni91  1  0.25000000  0.41666667  0.08790284  1.0
  Ni  Ni92  1  0.25000000  0.75000000  0.08790284  1.0
  Ni  Ni93  1  0.58333333  0.08333333  0.08790284  1.0
  Ni  Ni94  1  0.58333333  0.41666667  0.08790284  1.0
  Ni  Ni95  1  0.58333333  0.75000000  0.08790284  1.0
  Ni  Ni96  1  0.91666667  0.08333333  0.08790284  1.0
  Ni  Ni97  1  0.91666667  0.41666667  0.08790284  1.0
  Ni  Ni98  1  0.91666667  0.75000000  0.08790284  1.0
  Ni  Ni99  1  0.08333333  0.25000000  0.02540284  1.0
  Ni  Ni100  1  0.08333333  0.58333333  0.02540284  1.0
  Ni  Ni101  1  0.08333333  0.91666667  0.02540284  1.0
  Ni  Ni102  1  0.41666667  0.25000000  0.02540284  1.0
  Ni  Ni103  1  0.41666667  0.58333333  0.02540284  1.0
  Ni  Ni104  1  0.41666667  0.91666667  0.02540284  1.0
  Ni  Ni105  1  0.75000000  0.25000000  0.02540284  1.0
  Ni  Ni106  1  0.75000000  0.58333333  0.02540284  1.0
  Ni  Ni107  1  0.75000000  0.91666667  0.02540284  1.0
  Ni  Ni108  1  0.28961683  0.01484183  0.04058928  1.0
  Ni  Ni109  1  0.28961683  0.34817517  0.04058928  1.0
  Ni  Ni110  1  0.28961683  0.68150850  0.04058928  1.0
  Ni  Ni111  1  0.62295017  0.01484183  0.04058928  1.0
  Ni  Ni112  1  0.62295017  0.34817517  0.04058928  1.0
  Ni  Ni113  1  0.62295017  0.68150850  0.04058928  1.0
  Ni  Ni114  1  0.95628350  0.01484183  0.04058928  1.0
  Ni  Ni115  1  0.95628350  0.34817517  0.04058928  1.0
  Ni  Ni116  1  0.95628350  0.68150850  0.04058928  1.0
  Ni  Ni117  1  0.12295017  0.18150850  0.10308928  1.0
  Ni  Ni118  1  0.12295017  0.51484183  0.10308928  1.0
  Ni  Ni119  1  0.12295017  0.84817517  0.10308928  1.0
  Ni  Ni120  1  0.45628350  0.18150850  0.10308928  1.0
  Ni  Ni121  1  0.45628350  0.51484183  0.10308928  1.0
  Ni  Ni122  1  0.45628350  0.84817517  0.10308928  1.0
  Ni  Ni123  1  0.78961683  0.18150850  0.10308928  1.0
  Ni  Ni124  1  0.78961683  0.51484183  0.10308928  1.0
  Ni  Ni125  1  0.78961683  0.84817517  0.10308928  1.0
  Ni  Ni126  1  0.18110400  0.23966233  0.03977734  1.0
  Ni  Ni127  1  0.18110400  0.57299567  0.03977734  1.0
  Ni  Ni128  1  0.18110400  0.90632900  0.03977734  1.0
  Ni  Ni129  1  0.51443733  0.23966233  0.03977734  1.0
  Ni  Ni130  1  0.51443733  0.57299567  0.03977734  1.0
  Ni  Ni131  1  0.51443733  0.90632900  0.03977734  1.0
  Ni  Ni132  1  0.84777067  0.23966233  0.03977734  1.0
  Ni  Ni133  1  0.84777067  0.57299567  0.03977734  1.0
  Ni  Ni134  1  0.84777067  0.90632900  0.03977734  1.0
  Ni  Ni135  1  0.01443733  0.07299567  0.10227734  1.0
  Ni  Ni136  1  0.01443733  0.40632900  0.10227734  1.0
  Ni  Ni137  1  0.01443733  0.73966233  0.10227734  1.0
  Ni  Ni138  1  0.34777067  0.07299567  0.10227734  1.0
  Ni  Ni139  1  0.34777067  0.40632900  0.10227734  1.0
  Ni  Ni140  1  0.34777067  0.73966233  0.10227734  1.0
  Ni  Ni141  1  0.68110400  0.07299567  0.10227734  1.0
  Ni  Ni142  1  0.68110400  0.40632900  0.10227734  1.0
  Ni  Ni143  1  0.68110400  0.73966233  0.10227734  1.0
  Ni  Ni144  1  0.21038317  0.15182483  0.01021641  1.0
  Ni  Ni145  1  0.21038317  0.48515817  0.01021641  1.0
  Ni  Ni146  1  0.21038317  0.81849150  0.01021641  1.0
  Ni  Ni147  1  0.54371650  0.15182483  0.01021641  1.0
  Ni  Ni148  1  0.54371650  0.48515817  0.01021641  1.0
  Ni  Ni149  1  0.54371650  0.81849150  0.01021641  1.0
  Ni  Ni150  1  0.87704983  0.15182483  0.01021641  1.0
  Ni  Ni151  1  0.87704983  0.48515817  0.01021641  1.0
  Ni  Ni152  1  0.87704983  0.81849150  0.01021641  1.0
  Ni  Ni153  1  0.04371650  0.31849150  0.07271641  1.0
  Ni  Ni154  1  0.04371650  0.65182483  0.07271641  1.0
  Ni  Ni155  1  0.04371650  0.98515817  0.07271641  1.0
  Ni  Ni156  1  0.37704983  0.31849150  0.07271641  1.0
  Ni  Ni157  1  0.37704983  0.65182483  0.07271641  1.0
  Ni  Ni158  1  0.37704983  0.98515817  0.07271641  1.0
  Ni  Ni159  1  0.71038317  0.31849150  0.07271641  1.0
  Ni  Ni160  1  0.71038317  0.65182483  0.07271641  1.0
  Ni  Ni161  1  0.71038317  0.98515817  0.07271641  1.0
  Ni  Ni162  1  0.31889600  0.26033767  0.01102834  1.0
  Ni  Ni163  1  0.31889600  0.59367100  0.01102834  1.0
  Ni  Ni164  1  0.31889600  0.92700433  0.01102834  1.0
  Ni  Ni165  1  0.65222933  0.26033767  0.01102834  1.0
  Ni  Ni166  1  0.65222933  0.59367100  0.01102834  1.0
  Ni  Ni167  1  0.65222933  0.92700433  0.01102834  1.0
  Ni  Ni168  1  0.98556267  0.26033767  0.01102834  1.0
  Ni  Ni169  1  0.98556267  0.59367100  0.01102834  1.0
  Ni  Ni170  1  0.98556267  0.92700433  0.01102834  1.0
  Ni  Ni171  1  0.15222933  0.09367100  0.07352834  1.0
  Ni  Ni172  1  0.15222933  0.42700433  0.07352834  1.0
  Ni  Ni173  1  0.15222933  0.76033767  0.07352834  1.0
  Ni  Ni174  1  0.48556267  0.09367100  0.07352834  1.0
  Ni  Ni175  1  0.48556267  0.42700433  0.07352834  1.0
  Ni  Ni176  1  0.48556267  0.76033767  0.07352834  1.0
  Ni  Ni177  1  0.81889600  0.09367100  0.07352834  1.0
  Ni  Ni178  1  0.81889600  0.42700433  0.07352834  1.0
  Ni  Ni179  1  0.81889600  0.76033767  0.07352834  1.0
  Ge  Ge180  1  0.31595050  0.05214850  0.00584716  1.0
  Ge  Ge181  1  0.31595050  0.38548183  0.00584716  1.0
  Ge  Ge182  1  0.31595050  0.71881517  0.00584716  1.0
  Ge  Ge183  1  0.64928383  0.05214850  0.00584716  1.0
  Ge  Ge184  1  0.64928383  0.38548183  0.00584716  1.0
  Ge  Ge185  1  0.64928383  0.71881517  0.00584716  1.0
  Ge  Ge186  1  0.98261717  0.05214850  0.00584716  1.0
  Ge  Ge187  1  0.98261717  0.38548183  0.00584716  1.0
  Ge  Ge188  1  0.98261717  0.71881517  0.00584716  1.0
  Ge  Ge189  1  0.14928383  0.21881517  0.06834716  1.0
  Ge  Ge190  1  0.14928383  0.55214850  0.06834716  1.0
  Ge  Ge191  1  0.14928383  0.88548183  0.06834716  1.0
  Ge  Ge192  1  0.48261717  0.21881517  0.06834716  1.0
  Ge  Ge193  1  0.48261717  0.55214850  0.06834716  1.0
  Ge  Ge194  1  0.48261717  0.88548183  0.06834716  1.0
  Ge  Ge195  1  0.81595050  0.21881517  0.06834716  1.0
  Ge  Ge196  1  0.81595050  0.55214850  0.06834716  1.0
  Ge  Ge197  1  0.81595050  0.88548183  0.06834716  1.0
  Ge  Ge198  1  0.18404950  0.11451817  0.04495853  1.0
  Ge  Ge199  1  0.18404950  0.44785150  0.04495853  1.0
  Ge  Ge200  1  0.18404950  0.78118483  0.04495853  1.0
  Ge  Ge201  1  0.51738283  0.11451817  0.04495853  1.0
  Ge  Ge202  1  0.51738283  0.44785150  0.04495853  1.0
  Ge  Ge203  1  0.51738283  0.78118483  0.04495853  1.0
  Ge  Ge204  1  0.85071617  0.11451817  0.04495853  1.0
  Ge  Ge205  1  0.85071617  0.44785150  0.04495853  1.0
  Ge  Ge206  1  0.85071617  0.78118483  0.04495853  1.0
  Ge  Ge207  1  0.01738283  0.28118483  0.10745853  1.0
  Ge  Ge208  1  0.01738283  0.61451817  0.10745853  1.0
  Ge  Ge209  1  0.01738283  0.94785150  0.10745853  1.0
  Ge  Ge210  1  0.35071617  0.28118483  0.10745853  1.0
  Ge  Ge211  1  0.35071617  0.61451817  0.10745853  1.0
  Ge  Ge212  1  0.35071617  0.94785150  0.10745853  1.0
  Ge  Ge213  1  0.68404950  0.28118483  0.10745853  1.0
  Ge  Ge214  1  0.68404950  0.61451817  0.10745853  1.0
  Ge  Ge215  1  0.68404950  0.94785150  0.10745853  1.0
  Ge  Ge216  1  0.26379000  0.30775900  0.07207647  1.0
  Ge  Ge217  1  0.26379000  0.64109233  0.07207647  1.0
  Ge  Ge218  1  0.26379000  0.97442567  0.07207647  1.0
  Ge  Ge219  1  0.59712333  0.30775900  0.07207647  1.0
  Ge  Ge220  1  0.59712333  0.64109233  0.07207647  1.0
  Ge  Ge221  1  0.59712333  0.97442567  0.07207647  1.0
  Ge  Ge222  1  0.93045667  0.30775900  0.07207647  1.0
  Ge  Ge223  1  0.93045667  0.64109233  0.07207647  1.0
  Ge  Ge224  1  0.93045667  0.97442567  0.07207647  1.0
  Ge  Ge225  1  0.09712333  0.14109233  0.00957647  1.0
  Ge  Ge226  1  0.09712333  0.47442567  0.00957647  1.0
  Ge  Ge227  1  0.09712333  0.80775900  0.00957647  1.0
  Ge  Ge228  1  0.43045667  0.14109233  0.00957647  1.0
  Ge  Ge229  1  0.43045667  0.47442567  0.00957647  1.0
  Ge  Ge230  1  0.43045667  0.80775900  0.00957647  1.0
  Ge  Ge231  1  0.76379000  0.14109233  0.00957647  1.0
  Ge  Ge232  1  0.76379000  0.47442567  0.00957647  1.0
  Ge  Ge233  1  0.76379000  0.80775900  0.00957647  1.0
  Ge  Ge234  1  0.21422550  0.25819450  0.01649666  1.0
  Ge  Ge235  1  0.21422550  0.59152783  0.01649666  1.0
  Ge  Ge236  1  0.21422550  0.92486117  0.01649666  1.0
  Ge  Ge237  1  0.54755883  0.25819450  0.01649666  1.0
  Ge  Ge238  1  0.54755883  0.59152783  0.01649666  1.0
  Ge  Ge239  1  0.54755883  0.92486117  0.01649666  1.0
  Ge  Ge240  1  0.88089217  0.25819450  0.01649666  1.0
  Ge  Ge241  1  0.88089217  0.59152783  0.01649666  1.0
  Ge  Ge242  1  0.88089217  0.92486117  0.01649666  1.0
  Ge  Ge243  1  0.04755883  0.09152783  0.07899666  1.0
  Ge  Ge244  1  0.04755883  0.42486117  0.07899666  1.0
  Ge  Ge245  1  0.04755883  0.75819450  0.07899666  1.0
  Ge  Ge246  1  0.38089217  0.09152783  0.07899666  1.0
  Ge  Ge247  1  0.38089217  0.42486117  0.07899666  1.0
  Ge  Ge248  1  0.38089217  0.75819450  0.07899666  1.0
  Ge  Ge249  1  0.71422550  0.09152783  0.07899666  1.0
  Ge  Ge250  1  0.71422550  0.42486117  0.07899666  1.0
  Ge  Ge251  1  0.71422550  0.75819450  0.07899666  1.0
  Ge  Ge252  1  0.23621000  0.19224100  0.10372922  1.0
  Ge  Ge253  1  0.23621000  0.52557433  0.10372922  1.0
  Ge  Ge254  1  0.23621000  0.85890767  0.10372922  1.0
  Ge  Ge255  1  0.56954333  0.19224100  0.10372922  1.0
  Ge  Ge256  1  0.56954333  0.52557433  0.10372922  1.0
  Ge  Ge257  1  0.56954333  0.85890767  0.10372922  1.0
  Ge  Ge258  1  0.90287667  0.19224100  0.10372922  1.0
  Ge  Ge259  1  0.90287667  0.52557433  0.10372922  1.0
  Ge  Ge260  1  0.90287667  0.85890767  0.10372922  1.0
  Ge  Ge261  1  0.06954333  0.02557433  0.04122922  1.0
  Ge  Ge262  1  0.06954333  0.35890767  0.04122922  1.0
  Ge  Ge263  1  0.06954333  0.69224100  0.04122922  1.0
  Ge  Ge264  1  0.40287667  0.02557433  0.04122922  1.0
  Ge  Ge265  1  0.40287667  0.35890767  0.04122922  1.0
  Ge  Ge266  1  0.40287667  0.69224100  0.04122922  1.0
  Ge  Ge267  1  0.73621000  0.02557433  0.04122922  1.0
  Ge  Ge268  1  0.73621000  0.35890767  0.04122922  1.0
  Ge  Ge269  1  0.73621000  0.69224100  0.04122922  1.0
  Ge  Ge270  1  0.28577450  0.24180550  0.03430903  1.0
  Ge  Ge271  1  0.28577450  0.57513883  0.03430903  1.0
  Ge  Ge272  1  0.28577450  0.90847217  0.03430903  1.0
  Ge  Ge273  1  0.61910783  0.24180550  0.03430903  1.0
  Ge  Ge274  1  0.61910783  0.57513883  0.03430903  1.0
  Ge  Ge275  1  0.61910783  0.90847217  0.03430903  1.0
  Ge  Ge276  1  0.95244117  0.24180550  0.03430903  1.0
  Ge  Ge277  1  0.95244117  0.57513883  0.03430903  1.0
  Ge  Ge278  1  0.95244117  0.90847217  0.03430903  1.0
  Ge  Ge279  1  0.11910783  0.07513883  0.09680903  1.0
  Ge  Ge280  1  0.11910783  0.40847217  0.09680903  1.0
  Ge  Ge281  1  0.11910783  0.74180550  0.09680903  1.0
  Ge  Ge282  1  0.45244117  0.07513883  0.09680903  1.0
  Ge  Ge283  1  0.45244117  0.40847217  0.09680903  1.0
  Ge  Ge284  1  0.45244117  0.74180550  0.09680903  1.0
  Ge  Ge285  1  0.78577450  0.07513883  0.09680903  1.0
  Ge  Ge286  1  0.78577450  0.40847217  0.09680903  1.0
  Ge  Ge287  1  0.78577450  0.74180550  0.09680903  1.0
  Ni  Ni288  1  0.27852767  0.11594167  0.18252597  1.0
  Ni  Ni289  1  0.27852767  0.44927500  0.18252597  1.0
  Ni  Ni290  1  0.27852767  0.78260833  0.18252597  1.0
  Ni  Ni291  1  0.61186100  0.11594167  0.18252597  1.0
  Ni  Ni292  1  0.61186100  0.44927500  0.18252597  1.0
  Ni  Ni293  1  0.61186100  0.78260833  0.18252597  1.0
  Ni  Ni294  1  0.94519433  0.11594167  0.18252597  1.0
  Ni  Ni295  1  0.94519433  0.44927500  0.18252597  1.0
  Ni  Ni296  1  0.94519433  0.78260833  0.18252597  1.0
  Ni  Ni297  1  0.11186100  0.28260833  0.24502597  1.0
  Ni  Ni298  1  0.11186100  0.61594167  0.24502597  1.0
  Ni  Ni299  1  0.11186100  0.94927500  0.24502597  1.0
  Ni  Ni300  1  0.44519433  0.28260833  0.24502597  1.0
  Ni  Ni301  1  0.44519433  0.61594167  0.24502597  1.0
  Ni  Ni302  1  0.44519433  0.94927500  0.24502597  1.0
  Ni  Ni303  1  0.77852767  0.28260833  0.24502597  1.0
  Ni  Ni304  1  0.77852767  0.61594167  0.24502597  1.0
  Ni  Ni305  1  0.77852767  0.94927500  0.24502597  1.0
  Ni  Ni306  1  0.30276533  0.14017933  0.14723434  1.0
  Ni  Ni307  1  0.30276533  0.47351267  0.14723434  1.0
  Ni  Ni308  1  0.30276533  0.80684600  0.14723434  1.0
  Ni  Ni309  1  0.63609867  0.14017933  0.14723434  1.0
  Ni  Ni310  1  0.63609867  0.47351267  0.14723434  1.0
  Ni  Ni311  1  0.63609867  0.80684600  0.14723434  1.0
  Ni  Ni312  1  0.96943200  0.14017933  0.14723434  1.0
  Ni  Ni313  1  0.96943200  0.47351267  0.14723434  1.0
  Ni  Ni314  1  0.96943200  0.80684600  0.14723434  1.0
  Ni  Ni315  1  0.13609867  0.30684600  0.20973434  1.0
  Ni  Ni316  1  0.13609867  0.64017933  0.20973434  1.0
  Ni  Ni317  1  0.13609867  0.97351267  0.20973434  1.0
  Ni  Ni318  1  0.46943200  0.30684600  0.20973434  1.0
  Ni  Ni319  1  0.46943200  0.64017933  0.20973434  1.0
  Ni  Ni320  1  0.46943200  0.97351267  0.20973434  1.0
  Ni  Ni321  1  0.80276533  0.30684600  0.20973434  1.0
  Ni  Ni322  1  0.80276533  0.64017933  0.20973434  1.0
  Ni  Ni323  1  0.80276533  0.97351267  0.20973434  1.0
  Ni  Ni324  1  0.22147233  0.05072500  0.24327972  1.0
  Ni  Ni325  1  0.22147233  0.38405833  0.24327972  1.0
  Ni  Ni326  1  0.22147233  0.71739167  0.24327972  1.0
  Ni  Ni327  1  0.55480567  0.05072500  0.24327972  1.0
  Ni  Ni328  1  0.55480567  0.38405833  0.24327972  1.0
  Ni  Ni329  1  0.55480567  0.71739167  0.24327972  1.0
  Ni  Ni330  1  0.88813900  0.05072500  0.24327972  1.0
  Ni  Ni331  1  0.88813900  0.38405833  0.24327972  1.0
  Ni  Ni332  1  0.88813900  0.71739167  0.24327972  1.0
  Ni  Ni333  1  0.05480567  0.21739167  0.18077972  1.0
  Ni  Ni334  1  0.05480567  0.55072500  0.18077972  1.0
  Ni  Ni335  1  0.05480567  0.88405833  0.18077972  1.0
  Ni  Ni336  1  0.38813900  0.21739167  0.18077972  1.0
  Ni  Ni337  1  0.38813900  0.55072500  0.18077972  1.0
  Ni  Ni338  1  0.38813900  0.88405833  0.18077972  1.0
  Ni  Ni339  1  0.72147233  0.21739167  0.18077972  1.0
  Ni  Ni340  1  0.72147233  0.55072500  0.18077972  1.0
  Ni  Ni341  1  0.72147233  0.88405833  0.18077972  1.0
  Ni  Ni342  1  0.19723467  0.02648733  0.15357134  1.0
  Ni  Ni343  1  0.19723467  0.35982067  0.15357134  1.0
  Ni  Ni344  1  0.19723467  0.69315400  0.15357134  1.0
  Ni  Ni345  1  0.53056800  0.02648733  0.15357134  1.0
  Ni  Ni346  1  0.53056800  0.35982067  0.15357134  1.0
  Ni  Ni347  1  0.53056800  0.69315400  0.15357134  1.0
  Ni  Ni348  1  0.86390133  0.02648733  0.15357134  1.0
  Ni  Ni349  1  0.86390133  0.35982067  0.15357134  1.0
  Ni  Ni350  1  0.86390133  0.69315400  0.15357134  1.0
  Ni  Ni351  1  0.03056800  0.19315400  0.21607134  1.0
  Ni  Ni352  1  0.03056800  0.52648733  0.21607134  1.0
  Ni  Ni353  1  0.03056800  0.85982067  0.21607134  1.0
  Ni  Ni354  1  0.36390133  0.19315400  0.21607134  1.0
  Ni  Ni355  1  0.36390133  0.52648733  0.21607134  1.0
  Ni  Ni356  1  0.36390133  0.85982067  0.21607134  1.0
  Ni  Ni357  1  0.69723467  0.19315400  0.21607134  1.0
  Ni  Ni358  1  0.69723467  0.52648733  0.21607134  1.0
  Ni  Ni359  1  0.69723467  0.85982067  0.21607134  1.0
  Ni  Ni360  1  0.00000000  0.16666667  0.24415284  1.0
  Ni  Ni361  1  0.00000000  0.50000000  0.24415284  1.0
  Ni  Ni362  1  0.00000000  0.83333333  0.24415284  1.0
  Ni  Ni363  1  0.33333333  0.16666667  0.24415284  1.0
  Ni  Ni364  1  0.33333333  0.50000000  0.24415284  1.0
  Ni  Ni365  1  0.33333333  0.83333333  0.24415284  1.0
  Ni  Ni366  1  0.66666667  0.16666667  0.24415284  1.0
  Ni  Ni367  1  0.66666667  0.50000000  0.24415284  1.0
  Ni  Ni368  1  0.66666667  0.83333333  0.24415284  1.0
  Ni  Ni369  1  0.16666667  0.00000000  0.18165284  1.0
  Ni  Ni370  1  0.16666667  0.33333333  0.18165284  1.0
  Ni  Ni371  1  0.16666667  0.66666667  0.18165284  1.0
  Ni  Ni372  1  0.50000000  0.00000000  0.18165284  1.0
  Ni  Ni373  1  0.50000000  0.33333333  0.18165284  1.0
  Ni  Ni374  1  0.50000000  0.66666667  0.18165284  1.0
  Ni  Ni375  1  0.83333333  0.00000000  0.18165284  1.0
  Ni  Ni376  1  0.83333333  0.33333333  0.18165284  1.0
  Ni  Ni377  1  0.83333333  0.66666667  0.18165284  1.0
  Ni  Ni378  1  0.25000000  0.08333333  0.21290284  1.0
  Ni  Ni379  1  0.25000000  0.41666667  0.21290284  1.0
  Ni  Ni380  1  0.25000000  0.75000000  0.21290284  1.0
  Ni  Ni381  1  0.58333333  0.08333333  0.21290284  1.0
  Ni  Ni382  1  0.58333333  0.41666667  0.21290284  1.0
  Ni  Ni383  1  0.58333333  0.75000000  0.21290284  1.0
  Ni  Ni384  1  0.91666667  0.08333333  0.21290284  1.0
  Ni  Ni385  1  0.91666667  0.41666667  0.21290284  1.0
  Ni  Ni386  1  0.91666667  0.75000000  0.21290284  1.0
  Ni  Ni387  1  0.08333333  0.25000000  0.15040284  1.0
  Ni  Ni388  1  0.08333333  0.58333333  0.15040284  1.0
  Ni  Ni389  1  0.08333333  0.91666667  0.15040284  1.0
  Ni  Ni390  1  0.41666667  0.25000000  0.15040284  1.0
  Ni  Ni391  1  0.41666667  0.58333333  0.15040284  1.0
  Ni  Ni392  1  0.41666667  0.91666667  0.15040284  1.0
  Ni  Ni393  1  0.75000000  0.25000000  0.15040284  1.0
  Ni  Ni394  1  0.75000000  0.58333333  0.15040284  1.0
  Ni  Ni395  1  0.75000000  0.91666667  0.15040284  1.0
  Ni  Ni396  1  0.28961683  0.01484183  0.16558928  1.0
  Ni  Ni397  1  0.28961683  0.34817517  0.16558928  1.0
  Ni  Ni398  1  0.28961683  0.68150850  0.16558928  1.0
  Ni  Ni399  1  0.62295017  0.01484183  0.16558928  1.0
  Ni  Ni400  1  0.62295017  0.34817517  0.16558928  1.0
  Ni  Ni401  1  0.62295017  0.68150850  0.16558928  1.0
  Ni  Ni402  1  0.95628350  0.01484183  0.16558928  1.0
  Ni  Ni403  1  0.95628350  0.34817517  0.16558928  1.0
  Ni  Ni404  1  0.95628350  0.68150850  0.16558928  1.0
  Ni  Ni405  1  0.12295017  0.18150850  0.22808928  1.0
  Ni  Ni406  1  0.12295017  0.51484183  0.22808928  1.0
  Ni  Ni407  1  0.12295017  0.84817517  0.22808928  1.0
  Ni  Ni408  1  0.45628350  0.18150850  0.22808928  1.0
  Ni  Ni409  1  0.45628350  0.51484183  0.22808928  1.0
  Ni  Ni410  1  0.45628350  0.84817517  0.22808928  1.0
  Ni  Ni411  1  0.78961683  0.18150850  0.22808928  1.0
  Ni  Ni412  1  0.78961683  0.51484183  0.22808928  1.0
  Ni  Ni413  1  0.78961683  0.84817517  0.22808928  1.0
  Ni  Ni414  1  0.18110400  0.23966233  0.16477734  1.0
  Ni  Ni415  1  0.18110400  0.57299567  0.16477734  1.0
  Ni  Ni416  1  0.18110400  0.90632900  0.16477734  1.0
  Ni  Ni417  1  0.51443733  0.23966233  0.16477734  1.0
  Ni  Ni418  1  0.51443733  0.57299567  0.16477734  1.0
  Ni  Ni419  1  0.51443733  0.90632900  0.16477734  1.0
  Ni  Ni420  1  0.84777067  0.23966233  0.16477734  1.0
  Ni  Ni421  1  0.84777067  0.57299567  0.16477734  1.0
  Ni  Ni422  1  0.84777067  0.90632900  0.16477734  1.0
  Ni  Ni423  1  0.01443733  0.07299567  0.22727734  1.0
  Ni  Ni424  1  0.01443733  0.40632900  0.22727734  1.0
  Ni  Ni425  1  0.01443733  0.73966233  0.22727734  1.0
  Ni  Ni426  1  0.34777067  0.07299567  0.22727734  1.0
  Ni  Ni427  1  0.34777067  0.40632900  0.22727734  1.0
  Ni  Ni428  1  0.34777067  0.73966233  0.22727734  1.0
  Ni  Ni429  1  0.68110400  0.07299567  0.22727734  1.0
  Ni  Ni430  1  0.68110400  0.40632900  0.22727734  1.0
  Ni  Ni431  1  0.68110400  0.73966233  0.22727734  1.0
  Ni  Ni432  1  0.21038317  0.15182483  0.13521641  1.0
  Ni  Ni433  1  0.21038317  0.48515817  0.13521641  1.0
  Ni  Ni434  1  0.21038317  0.81849150  0.13521641  1.0
  Ni  Ni435  1  0.54371650  0.15182483  0.13521641  1.0
  Ni  Ni436  1  0.54371650  0.48515817  0.13521641  1.0
  Ni  Ni437  1  0.54371650  0.81849150  0.13521641  1.0
  Ni  Ni438  1  0.87704983  0.15182483  0.13521641  1.0
  Ni  Ni439  1  0.87704983  0.48515817  0.13521641  1.0
  Ni  Ni440  1  0.87704983  0.81849150  0.13521641  1.0
  Ni  Ni441  1  0.04371650  0.31849150  0.19771641  1.0
  Ni  Ni442  1  0.04371650  0.65182483  0.19771641  1.0
  Ni  Ni443  1  0.04371650  0.98515817  0.19771641  1.0
  Ni  Ni444  1  0.37704983  0.31849150  0.19771641  1.0
  Ni  Ni445  1  0.37704983  0.65182483  0.19771641  1.0
  Ni  Ni446  1  0.37704983  0.98515817  0.19771641  1.0
  Ni  Ni447  1  0.71038317  0.31849150  0.19771641  1.0
  Ni  Ni448  1  0.71038317  0.65182483  0.19771641  1.0
  Ni  Ni449  1  0.71038317  0.98515817  0.19771641  1.0
  Ni  Ni450  1  0.31889600  0.26033767  0.13602834  1.0
  Ni  Ni451  1  0.31889600  0.59367100  0.13602834  1.0
  Ni  Ni452  1  0.31889600  0.92700433  0.13602834  1.0
  Ni  Ni453  1  0.65222933  0.26033767  0.13602834  1.0
  Ni  Ni454  1  0.65222933  0.59367100  0.13602834  1.0
  Ni  Ni455  1  0.65222933  0.92700433  0.13602834  1.0
  Ni  Ni456  1  0.98556267  0.26033767  0.13602834  1.0
  Ni  Ni457  1  0.98556267  0.59367100  0.13602834  1.0
  Ni  Ni458  1  0.98556267  0.92700433  0.13602834  1.0
  Ni  Ni459  1  0.15222933  0.09367100  0.19852834  1.0
  Ni  Ni460  1  0.15222933  0.42700433  0.19852834  1.0
  Ni  Ni461  1  0.15222933  0.76033767  0.19852834  1.0
  Ni  Ni462  1  0.48556267  0.09367100  0.19852834  1.0
  Ni  Ni463  1  0.48556267  0.42700433  0.19852834  1.0
  Ni  Ni464  1  0.48556267  0.76033767  0.19852834  1.0
  Ni  Ni465  1  0.81889600  0.09367100  0.19852834  1.0
  Ni  Ni466  1  0.81889600  0.42700433  0.19852834  1.0
  Ni  Ni467  1  0.81889600  0.76033767  0.19852834  1.0
  Ge  Ge468  1  0.31595050  0.05214850  0.13084716  1.0
  Ge  Ge469  1  0.31595050  0.38548183  0.13084716  1.0
  Ge  Ge470  1  0.31595050  0.71881517  0.13084716  1.0
  Ge  Ge471  1  0.64928383  0.05214850  0.13084716  1.0
  Ge  Ge472  1  0.64928383  0.38548183  0.13084716  1.0
  Ge  Ge473  1  0.64928383  0.71881517  0.13084716  1.0
  Ge  Ge474  1  0.98261717  0.05214850  0.13084716  1.0
  Ge  Ge475  1  0.98261717  0.38548183  0.13084716  1.0
  Ge  Ge476  1  0.98261717  0.71881517  0.13084716  1.0
  Ge  Ge477  1  0.14928383  0.21881517  0.19334716  1.0
  Ge  Ge478  1  0.14928383  0.55214850  0.19334716  1.0
  Ge  Ge479  1  0.14928383  0.88548183  0.19334716  1.0
  Ge  Ge480  1  0.48261717  0.21881517  0.19334716  1.0
  Ge  Ge481  1  0.48261717  0.55214850  0.19334716  1.0
  Ge  Ge482  1  0.48261717  0.88548183  0.19334716  1.0
  Ge  Ge483  1  0.81595050  0.21881517  0.19334716  1.0
  Ge  Ge484  1  0.81595050  0.55214850  0.19334716  1.0
  Ge  Ge485  1  0.81595050  0.88548183  0.19334716  1.0
  Ge  Ge486  1  0.18404950  0.11451817  0.16995853  1.0
  Ge  Ge487  1  0.18404950  0.44785150  0.16995853  1.0
  Ge  Ge488  1  0.18404950  0.78118483  0.16995853  1.0
  Ge  Ge489  1  0.51738283  0.11451817  0.16995853  1.0
  Ge  Ge490  1  0.51738283  0.44785150  0.16995853  1.0
  Ge  Ge491  1  0.51738283  0.78118483  0.16995853  1.0
  Ge  Ge492  1  0.85071617  0.11451817  0.16995853  1.0
  Ge  Ge493  1  0.85071617  0.44785150  0.16995853  1.0
  Ge  Ge494  1  0.85071617  0.78118483  0.16995853  1.0
  Ge  Ge495  1  0.01738283  0.28118483  0.23245853  1.0
  Ge  Ge496  1  0.01738283  0.61451817  0.23245853  1.0
  Ge  Ge497  1  0.01738283  0.94785150  0.23245853  1.0
  Ge  Ge498  1  0.35071617  0.28118483  0.23245853  1.0
  Ge  Ge499  1  0.35071617  0.61451817  0.23245853  1.0
  Ge  Ge500  1  0.35071617  0.94785150  0.23245853  1.0
  Ge  Ge501  1  0.68404950  0.28118483  0.23245853  1.0
  Ge  Ge502  1  0.68404950  0.61451817  0.23245853  1.0
  Ge  Ge503  1  0.68404950  0.94785150  0.23245853  1.0
  Ge  Ge504  1  0.26379000  0.30775900  0.19707647  1.0
  Ge  Ge505  1  0.26379000  0.64109233  0.19707647  1.0
  Ge  Ge506  1  0.26379000  0.97442567  0.19707647  1.0
  Ge  Ge507  1  0.59712333  0.30775900  0.19707647  1.0
  Ge  Ge508  1  0.59712333  0.64109233  0.19707647  1.0
  Ge  Ge509  1  0.59712333  0.97442567  0.19707647  1.0
  Ge  Ge510  1  0.93045667  0.30775900  0.19707647  1.0
  Ge  Ge511  1  0.93045667  0.64109233  0.19707647  1.0
  Ge  Ge512  1  0.93045667  0.97442567  0.19707647  1.0
  Ge  Ge513  1  0.09712333  0.14109233  0.13457647  1.0
  Ge  Ge514  1  0.09712333  0.47442567  0.13457647  1.0
  Ge  Ge515  1  0.09712333  0.80775900  0.13457647  1.0
  Ge  Ge516  1  0.43045667  0.14109233  0.13457647  1.0
  Ge  Ge517  1  0.43045667  0.47442567  0.13457647  1.0
  Ge  Ge518  1  0.43045667  0.80775900  0.13457647  1.0
  Ge  Ge519  1  0.76379000  0.14109233  0.13457647  1.0
  Ge  Ge520  1  0.76379000  0.47442567  0.13457647  1.0
  Ge  Ge521  1  0.76379000  0.80775900  0.13457647  1.0
  Ge  Ge522  1  0.21422550  0.25819450  0.14149666  1.0
  Ge  Ge523  1  0.21422550  0.59152783  0.14149666  1.0
  Ge  Ge524  1  0.21422550  0.92486117  0.14149666  1.0
  Ge  Ge525  1  0.54755883  0.25819450  0.14149666  1.0
  Ge  Ge526  1  0.54755883  0.59152783  0.14149666  1.0
  Ge  Ge527  1  0.54755883  0.92486117  0.14149666  1.0
  Ge  Ge528  1  0.88089217  0.25819450  0.14149666  1.0
  Ge  Ge529  1  0.88089217  0.59152783  0.14149666  1.0
  Ge  Ge530  1  0.88089217  0.92486117  0.14149666  1.0
  Ge  Ge531  1  0.04755883  0.09152783  0.20399666  1.0
  Ge  Ge532  1  0.04755883  0.42486117  0.20399666  1.0
  Ge  Ge533  1  0.04755883  0.75819450  0.20399666  1.0
  Ge  Ge534  1  0.38089217  0.09152783  0.20399666  1.0
  Ge  Ge535  1  0.38089217  0.42486117  0.20399666  1.0
  Ge  Ge536  1  0.38089217  0.75819450  0.20399666  1.0
  Ge  Ge537  1  0.71422550  0.09152783  0.20399666  1.0
  Ge  Ge538  1  0.71422550  0.42486117  0.20399666  1.0
  Ge  Ge539  1  0.71422550  0.75819450  0.20399666  1.0
  Ge  Ge540  1  0.23621000  0.19224100  0.22872922  1.0
  Ge  Ge541  1  0.23621000  0.52557433  0.22872922  1.0
  Ge  Ge542  1  0.23621000  0.85890767  0.22872922  1.0
  Ge  Ge543  1  0.56954333  0.19224100  0.22872922  1.0
  Ge  Ge544  1  0.56954333  0.52557433  0.22872922  1.0
  Ge  Ge545  1  0.56954333  0.85890767  0.22872922  1.0
  Ge  Ge546  1  0.90287667  0.19224100  0.22872922  1.0
  Ge  Ge547  1  0.90287667  0.52557433  0.22872922  1.0
  Ge  Ge548  1  0.90287667  0.85890767  0.22872922  1.0
  Ge  Ge549  1  0.06954333  0.02557433  0.16622922  1.0
  Ge  Ge550  1  0.06954333  0.35890767  0.16622922  1.0
  Ge  Ge551  1  0.06954333  0.69224100  0.16622922  1.0
  Ge  Ge552  1  0.40287667  0.02557433  0.16622922  1.0
  Ge  Ge553  1  0.40287667  0.35890767  0.16622922  1.0
  Ge  Ge554  1  0.40287667  0.69224100  0.16622922  1.0
  Ge  Ge555  1  0.73621000  0.02557433  0.16622922  1.0
  Ge  Ge556  1  0.73621000  0.35890767  0.16622922  1.0
  Ge  Ge557  1  0.73621000  0.69224100  0.16622922  1.0
  Ge  Ge558  1  0.28577450  0.24180550  0.15930903  1.0
  Ge  Ge559  1  0.28577450  0.57513883  0.15930903  1.0
  Ge  Ge560  1  0.28577450  0.90847217  0.15930903  1.0
  Ge  Ge561  1  0.61910783  0.24180550  0.15930903  1.0
  Ge  Ge562  1  0.61910783  0.57513883  0.15930903  1.0
  Ge  Ge563  1  0.61910783  0.90847217  0.15930903  1.0
  Ge  Ge564  1  0.95244117  0.24180550  0.15930903  1.0
  Ge  Ge565  1  0.95244117  0.57513883  0.15930903  1.0
  Ge  Ge566  1  0.95244117  0.90847217  0.15930903  1.0
  Ge  Ge567  1  0.11910783  0.07513883  0.22180903  1.0
  Ge  Ge568  1  0.11910783  0.40847217  0.22180903  1.0
  Ge  Ge569  1  0.11910783  0.74180550  0.22180903  1.0
  Ge  Ge570  1  0.45244117  0.07513883  0.22180903  1.0
  Ge  Ge571  1  0.45244117  0.40847217  0.22180903  1.0
  Ge  Ge572  1  0.45244117  0.74180550  0.22180903  1.0
  Ge  Ge573  1  0.78577450  0.07513883  0.22180903  1.0
  Ge  Ge574  1  0.78577450  0.40847217  0.22180903  1.0
  Ge  Ge575  1  0.78577450  0.74180550  0.22180903  1.0
  Ni  Ni576  1  0.27852767  0.11594167  0.30752597  1.0
  Ni  Ni577  1  0.27852767  0.44927500  0.30752597  1.0
  Ni  Ni578  1  0.27852767  0.78260833  0.30752597  1.0
  Ni  Ni579  1  0.61186100  0.11594167  0.30752597  1.0
  Ni  Ni580  1  0.61186100  0.44927500  0.30752597  1.0
  Ni  Ni581  1  0.61186100  0.78260833  0.30752597  1.0
  Ni  Ni582  1  0.94519433  0.11594167  0.30752597  1.0
  Ni  Ni583  1  0.94519433  0.44927500  0.30752597  1.0
  Ni  Ni584  1  0.94519433  0.78260833  0.30752597  1.0
  Ni  Ni585  1  0.11186100  0.28260833  0.37002597  1.0
  Ni  Ni586  1  0.11186100  0.61594167  0.37002597  1.0
  Ni  Ni587  1  0.11186100  0.94927500  0.37002597  1.0
  Ni  Ni588  1  0.44519433  0.28260833  0.37002597  1.0
  Ni  Ni589  1  0.44519433  0.61594167  0.37002597  1.0
  Ni  Ni590  1  0.44519433  0.94927500  0.37002597  1.0
  Ni  Ni591  1  0.77852767  0.28260833  0.37002597  1.0
  Ni  Ni592  1  0.77852767  0.61594167  0.37002597  1.0
  Ni  Ni593  1  0.77852767  0.94927500  0.37002597  1.0
  Ni  Ni594  1  0.30276533  0.14017933  0.27223434  1.0
  Ni  Ni595  1  0.30276533  0.47351267  0.27223434  1.0
  Ni  Ni596  1  0.30276533  0.80684600  0.27223434  1.0
  Ni  Ni597  1  0.63609867  0.14017933  0.27223434  1.0
  Ni  Ni598  1  0.63609867  0.47351267  0.27223434  1.0
  Ni  Ni599  1  0.63609867  0.80684600  0.27223434  1.0
  Ni  Ni600  1  0.96943200  0.14017933  0.27223434  1.0
  Ni  Ni601  1  0.96943200  0.47351267  0.27223434  1.0
  Ni  Ni602  1  0.96943200  0.80684600  0.27223434  1.0
  Ni  Ni603  1  0.13609867  0.30684600  0.33473434  1.0
  Ni  Ni604  1  0.13609867  0.64017933  0.33473434  1.0
  Ni  Ni605  1  0.13609867  0.97351267  0.33473434  1.0
  Ni  Ni606  1  0.46943200  0.30684600  0.33473434  1.0
  Ni  Ni607  1  0.46943200  0.64017933  0.33473434  1.0
  Ni  Ni608  1  0.46943200  0.97351267  0.33473434  1.0
  Ni  Ni609  1  0.80276533  0.30684600  0.33473434  1.0
  Ni  Ni610  1  0.80276533  0.64017933  0.33473434  1.0
  Ni  Ni611  1  0.80276533  0.97351267  0.33473434  1.0
  Ni  Ni612  1  0.22147233  0.05072500  0.36827972  1.0
  Ni  Ni613  1  0.22147233  0.38405833  0.36827972  1.0
  Ni  Ni614  1  0.22147233  0.71739167  0.36827972  1.0
  Ni  Ni615  1  0.55480567  0.05072500  0.36827972  1.0
  Ni  Ni616  1  0.55480567  0.38405833  0.36827972  1.0
  Ni  Ni617  1  0.55480567  0.71739167  0.36827972  1.0
  Ni  Ni618  1  0.88813900  0.05072500  0.36827972  1.0
  Ni  Ni619  1  0.88813900  0.38405833  0.36827972  1.0
  Ni  Ni620  1  0.88813900  0.71739167  0.36827972  1.0
  Ni  Ni621  1  0.05480567  0.21739167  0.30577972  1.0
  Ni  Ni622  1  0.05480567  0.55072500  0.30577972  1.0
  Ni  Ni623  1  0.05480567  0.88405833  0.30577972  1.0
  Ni  Ni624  1  0.38813900  0.21739167  0.30577972  1.0
  Ni  Ni625  1  0.38813900  0.55072500  0.30577972  1.0
  Ni  Ni626  1  0.38813900  0.88405833  0.30577972  1.0
  Ni  Ni627  1  0.72147233  0.21739167  0.30577972  1.0
  Ni  Ni628  1  0.72147233  0.55072500  0.30577972  1.0
  Ni  Ni629  1  0.72147233  0.88405833  0.30577972  1.0
  Ni  Ni630  1  0.19723467  0.02648733  0.27857134  1.0
  Ni  Ni631  1  0.19723467  0.35982067  0.27857134  1.0
  Ni  Ni632  1  0.19723467  0.69315400  0.27857134  1.0
  Ni  Ni633  1  0.53056800  0.02648733  0.27857134  1.0
  Ni  Ni634  1  0.53056800  0.35982067  0.27857134  1.0
  Ni  Ni635  1  0.53056800  0.69315400  0.27857134  1.0
  Ni  Ni636  1  0.86390133  0.02648733  0.27857134  1.0
  Ni  Ni637  1  0.86390133  0.35982067  0.27857134  1.0
  Ni  Ni638  1  0.86390133  0.69315400  0.27857134  1.0
  Ni  Ni639  1  0.03056800  0.19315400  0.34107134  1.0
  Ni  Ni640  1  0.03056800  0.52648733  0.34107134  1.0
  Ni  Ni641  1  0.03056800  0.85982067  0.34107134  1.0
  Ni  Ni642  1  0.36390133  0.19315400  0.34107134  1.0
  Ni  Ni643  1  0.36390133  0.52648733  0.34107134  1.0
  Ni  Ni644  1  0.36390133  0.85982067  0.34107134  1.0
  Ni  Ni645  1  0.69723467  0.19315400  0.34107134  1.0
  Ni  Ni646  1  0.69723467  0.52648733  0.34107134  1.0
  Ni  Ni647  1  0.69723467  0.85982067  0.34107134  1.0
  Ni  Ni648  1  0.00000000  0.16666667  0.36915284  1.0
  Ni  Ni649  1  0.00000000  0.50000000  0.36915284  1.0
  Ni  Ni650  1  0.00000000  0.83333333  0.36915284  1.0
  Ni  Ni651  1  0.33333333  0.16666667  0.36915284  1.0
  Ni  Ni652  1  0.33333333  0.50000000  0.36915284  1.0
  Ni  Ni653  1  0.33333333  0.83333333  0.36915284  1.0
  Ni  Ni654  1  0.66666667  0.16666667  0.36915284  1.0
  Ni  Ni655  1  0.66666667  0.50000000  0.36915284  1.0
  Ni  Ni656  1  0.66666667  0.83333333  0.36915284  1.0
  Ni  Ni657  1  0.16666667  0.00000000  0.30665284  1.0
  Ni  Ni658  1  0.16666667  0.33333333  0.30665284  1.0
  Ni  Ni659  1  0.16666667  0.66666667  0.30665284  1.0
  Ni  Ni660  1  0.50000000  0.00000000  0.30665284  1.0
  Ni  Ni661  1  0.50000000  0.33333333  0.30665284  1.0
  Ni  Ni662  1  0.50000000  0.66666667  0.30665284  1.0
  Ni  Ni663  1  0.83333333  0.00000000  0.30665284  1.0
  Ni  Ni664  1  0.83333333  0.33333333  0.30665284  1.0
  Ni  Ni665  1  0.83333333  0.66666667  0.30665284  1.0
  Ni  Ni666  1  0.25000000  0.08333333  0.33790284  1.0
  Ni  Ni667  1  0.25000000  0.41666667  0.33790284  1.0
  Ni  Ni668  1  0.25000000  0.75000000  0.33790284  1.0
  Ni  Ni669  1  0.58333333  0.08333333  0.33790284  1.0
  Ni  Ni670  1  0.58333333  0.41666667  0.33790284  1.0
  Ni  Ni671  1  0.58333333  0.75000000  0.33790284  1.0
  Ni  Ni672  1  0.91666667  0.08333333  0.33790284  1.0
  Ni  Ni673  1  0.91666667  0.41666667  0.33790284  1.0
  Ni  Ni674  1  0.91666667  0.75000000  0.33790284  1.0
  Ni  Ni675  1  0.08333333  0.25000000  0.27540284  1.0
  Ni  Ni676  1  0.08333333  0.58333333  0.27540284  1.0
  Ni  Ni677  1  0.08333333  0.91666667  0.27540284  1.0
  Ni  Ni678  1  0.41666667  0.25000000  0.27540284  1.0
  Ni  Ni679  1  0.41666667  0.58333333  0.27540284  1.0
  Ni  Ni680  1  0.41666667  0.91666667  0.27540284  1.0
  Ni  Ni681  1  0.75000000  0.25000000  0.27540284  1.0
  Ni  Ni682  1  0.75000000  0.58333333  0.27540284  1.0
  Ni  Ni683  1  0.75000000  0.91666667  0.27540284  1.0
  Ni  Ni684  1  0.28961683  0.01484183  0.29058928  1.0
  Ni  Ni685  1  0.28961683  0.34817517  0.29058928  1.0
  Ni  Ni686  1  0.28961683  0.68150850  0.29058928  1.0
  Ni  Ni687  1  0.62295017  0.01484183  0.29058928  1.0
  Ni  Ni688  1  0.62295017  0.34817517  0.29058928  1.0
  Ni  Ni689  1  0.62295017  0.68150850  0.29058928  1.0
  Ni  Ni690  1  0.95628350  0.01484183  0.29058928  1.0
  Ni  Ni691  1  0.95628350  0.34817517  0.29058928  1.0
  Ni  Ni692  1  0.95628350  0.68150850  0.29058928  1.0
  Ni  Ni693  1  0.12295017  0.18150850  0.35308928  1.0
  Ni  Ni694  1  0.12295017  0.51484183  0.35308928  1.0
  Ni  Ni695  1  0.12295017  0.84817517  0.35308928  1.0
  Ni  Ni696  1  0.45628350  0.18150850  0.35308928  1.0
  Ni  Ni697  1  0.45628350  0.51484183  0.35308928  1.0
  Ni  Ni698  1  0.45628350  0.84817517  0.35308928  1.0
  Ni  Ni699  1  0.78961683  0.18150850  0.35308928  1.0
  Ni  Ni700  1  0.78961683  0.51484183  0.35308928  1.0
  Ni  Ni701  1  0.78961683  0.84817517  0.35308928  1.0
  Ni  Ni702  1  0.18110400  0.23966233  0.28977734  1.0
  Ni  Ni703  1  0.18110400  0.57299567  0.28977734  1.0
  Ni  Ni704  1  0.18110400  0.90632900  0.28977734  1.0
  Ni  Ni705  1  0.51443733  0.23966233  0.28977734  1.0
  Ni  Ni706  1  0.51443733  0.57299567  0.28977734  1.0
  Ni  Ni707  1  0.51443733  0.90632900  0.28977734  1.0
  Ni  Ni708  1  0.84777067  0.23966233  0.28977734  1.0
  Ni  Ni709  1  0.84777067  0.57299567  0.28977734  1.0
  Ni  Ni710  1  0.84777067  0.90632900  0.28977734  1.0
  Ni  Ni711  1  0.01443733  0.07299567  0.35227734  1.0
  Ni  Ni712  1  0.01443733  0.40632900  0.35227734  1.0
  Ni  Ni713  1  0.01443733  0.73966233  0.35227734  1.0
  Ni  Ni714  1  0.34777067  0.07299567  0.35227734  1.0
  Ni  Ni715  1  0.34777067  0.40632900  0.35227734  1.0
  Ni  Ni716  1  0.34777067  0.73966233  0.35227734  1.0
  Ni  Ni717  1  0.68110400  0.07299567  0.35227734  1.0
  Ni  Ni718  1  0.68110400  0.40632900  0.35227734  1.0
  Ni  Ni719  1  0.68110400  0.73966233  0.35227734  1.0
  Ni  Ni720  1  0.21038317  0.15182483  0.26021641  1.0
  Ni  Ni721  1  0.21038317  0.48515817  0.26021641  1.0
  Ni  Ni722  1  0.21038317  0.81849150  0.26021641  1.0
  Ni  Ni723  1  0.54371650  0.15182483  0.26021641  1.0
  Ni  Ni724  1  0.54371650  0.48515817  0.26021641  1.0
  Ni  Ni725  1  0.54371650  0.81849150  0.26021641  1.0
  Ni  Ni726  1  0.87704983  0.15182483  0.26021641  1.0
  Ni  Ni727  1  0.87704983  0.48515817  0.26021641  1.0
  Ni  Ni728  1  0.87704983  0.81849150  0.26021641  1.0
  Ni  Ni729  1  0.04371650  0.31849150  0.32271641  1.0
  Ni  Ni730  1  0.04371650  0.65182483  0.32271641  1.0
  Ni  Ni731  1  0.04371650  0.98515817  0.32271641  1.0
  Ni  Ni732  1  0.37704983  0.31849150  0.32271641  1.0
  Ni  Ni733  1  0.37704983  0.65182483  0.32271641  1.0
  Ni  Ni734  1  0.37704983  0.98515817  0.32271641  1.0
  Ni  Ni735  1  0.71038317  0.31849150  0.32271641  1.0
  Ni  Ni736  1  0.71038317  0.65182483  0.32271641  1.0
  Ni  Ni737  1  0.71038317  0.98515817  0.32271641  1.0
  Ni  Ni738  1  0.31889600  0.26033767  0.26102834  1.0
  Ni  Ni739  1  0.31889600  0.59367100  0.26102834  1.0
  Ni  Ni740  1  0.31889600  0.92700433  0.26102834  1.0
  Ni  Ni741  1  0.65222933  0.26033767  0.26102834  1.0
  Ni  Ni742  1  0.65222933  0.59367100  0.26102834  1.0
  Ni  Ni743  1  0.65222933  0.92700433  0.26102834  1.0
  Ni  Ni744  1  0.98556267  0.26033767  0.26102834  1.0
  Ni  Ni745  1  0.98556267  0.59367100  0.26102834  1.0
  Ni  Ni746  1  0.98556267  0.92700433  0.26102834  1.0
  Ni  Ni747  1  0.15222933  0.09367100  0.32352834  1.0
  Ni  Ni748  1  0.15222933  0.42700433  0.32352834  1.0
  Ni  Ni749  1  0.15222933  0.76033767  0.32352834  1.0
  Ni  Ni750  1  0.48556267  0.09367100  0.32352834  1.0
  Ni  Ni751  1  0.48556267  0.42700433  0.32352834  1.0
  Ni  Ni752  1  0.48556267  0.76033767  0.32352834  1.0
  Ni  Ni753  1  0.81889600  0.09367100  0.32352834  1.0
  Ni  Ni754  1  0.81889600  0.42700433  0.32352834  1.0
  Ni  Ni755  1  0.81889600  0.76033767  0.32352834  1.0
  Ge  Ge756  1  0.31595050  0.05214850  0.25584716  1.0
  Ge  Ge757  1  0.31595050  0.38548183  0.25584716  1.0
  Ge  Ge758  1  0.31595050  0.71881517  0.25584716  1.0
  Ge  Ge759  1  0.64928383  0.05214850  0.25584716  1.0
  Ge  Ge760  1  0.64928383  0.38548183  0.25584716  1.0
  Ge  Ge761  1  0.64928383  0.71881517  0.25584716  1.0
  Ge  Ge762  1  0.98261717  0.05214850  0.25584716  1.0
  Ge  Ge763  1  0.98261717  0.38548183  0.25584716  1.0
  Ge  Ge764  1  0.98261717  0.71881517  0.25584716  1.0
  Ge  Ge765  1  0.14928383  0.21881517  0.31834716  1.0
  Ge  Ge766  1  0.14928383  0.55214850  0.31834716  1.0
  Ge  Ge767  1  0.14928383  0.88548183  0.31834716  1.0
  Ge  Ge768  1  0.48261717  0.21881517  0.31834716  1.0
  Ge  Ge769  1  0.48261717  0.55214850  0.31834716  1.0
  Ge  Ge770  1  0.48261717  0.88548183  0.31834716  1.0
  Ge  Ge771  1  0.81595050  0.21881517  0.31834716  1.0
  Ge  Ge772  1  0.81595050  0.55214850  0.31834716  1.0
  Ge  Ge773  1  0.81595050  0.88548183  0.31834716  1.0
  Ge  Ge774  1  0.18404950  0.11451817  0.29495853  1.0
  Ge  Ge775  1  0.18404950  0.44785150  0.29495853  1.0
  Ge  Ge776  1  0.18404950  0.78118483  0.29495853  1.0
  Ge  Ge777  1  0.51738283  0.11451817  0.29495853  1.0
  Ge  Ge778  1  0.51738283  0.44785150  0.29495853  1.0
  Ge  Ge779  1  0.51738283  0.78118483  0.29495853  1.0
  Ge  Ge780  1  0.85071617  0.11451817  0.29495853  1.0
  Ge  Ge781  1  0.85071617  0.44785150  0.29495853  1.0
  Ge  Ge782  1  0.85071617  0.78118483  0.29495853  1.0
  Ge  Ge783  1  0.01738283  0.28118483  0.35745853  1.0
  Ge  Ge784  1  0.01738283  0.61451817  0.35745853  1.0
  Ge  Ge785  1  0.01738283  0.94785150  0.35745853  1.0
  Ge  Ge786  1  0.35071617  0.28118483  0.35745853  1.0
  Ge  Ge787  1  0.35071617  0.61451817  0.35745853  1.0
  Ge  Ge788  1  0.35071617  0.94785150  0.35745853  1.0
  Ge  Ge789  1  0.68404950  0.28118483  0.35745853  1.0
  Ge  Ge790  1  0.68404950  0.61451817  0.35745853  1.0
  Ge  Ge791  1  0.68404950  0.94785150  0.35745853  1.0
  Ge  Ge792  1  0.26379000  0.30775900  0.32207647  1.0
  Ge  Ge793  1  0.26379000  0.64109233  0.32207647  1.0
  Ge  Ge794  1  0.26379000  0.97442567  0.32207647  1.0
  Ge  Ge795  1  0.59712333  0.30775900  0.32207647  1.0
  Ge  Ge796  1  0.59712333  0.64109233  0.32207647  1.0
  Ge  Ge797  1  0.59712333  0.97442567  0.32207647  1.0
  Ge  Ge798  1  0.93045667  0.30775900  0.32207647  1.0
  Ge  Ge799  1  0.93045667  0.64109233  0.32207647  1.0
  Ge  Ge800  1  0.93045667  0.97442567  0.32207647  1.0
  Ge  Ge801  1  0.09712333  0.14109233  0.25957647  1.0
  Ge  Ge802  1  0.09712333  0.47442567  0.25957647  1.0
  Ge  Ge803  1  0.09712333  0.80775900  0.25957647  1.0
  Ge  Ge804  1  0.43045667  0.14109233  0.25957647  1.0
  Ge  Ge805  1  0.43045667  0.47442567  0.25957647  1.0
  Ge  Ge806  1  0.43045667  0.80775900  0.25957647  1.0
  Ge  Ge807  1  0.76379000  0.14109233  0.25957647  1.0
  Ge  Ge808  1  0.76379000  0.47442567  0.25957647  1.0
  Ge  Ge809  1  0.76379000  0.80775900  0.25957647  1.0
  Ge  Ge810  1  0.21422550  0.25819450  0.26649666  1.0
  Ge  Ge811  1  0.21422550  0.59152783  0.26649666  1.0
  Ge  Ge812  1  0.21422550  0.92486117  0.26649666  1.0
  Ge  Ge813  1  0.54755883  0.25819450  0.26649666  1.0
  Ge  Ge814  1  0.54755883  0.59152783  0.26649666  1.0
  Ge  Ge815  1  0.54755883  0.92486117  0.26649666  1.0
  Ge  Ge816  1  0.88089217  0.25819450  0.26649666  1.0
  Ge  Ge817  1  0.88089217  0.59152783  0.26649666  1.0
  Ge  Ge818  1  0.88089217  0.92486117  0.26649666  1.0
  Ge  Ge819  1  0.04755883  0.09152783  0.32899666  1.0
  Ge  Ge820  1  0.04755883  0.42486117  0.32899666  1.0
  Ge  Ge821  1  0.04755883  0.75819450  0.32899666  1.0
  Ge  Ge822  1  0.38089217  0.09152783  0.32899666  1.0
  Ge  Ge823  1  0.38089217  0.42486117  0.32899666  1.0
  Ge  Ge824  1  0.38089217  0.75819450  0.32899666  1.0
  Ge  Ge825  1  0.71422550  0.09152783  0.32899666  1.0
  Ge  Ge826  1  0.71422550  0.42486117  0.32899666  1.0
  Ge  Ge827  1  0.71422550  0.75819450  0.32899666  1.0
  Ge  Ge828  1  0.23621000  0.19224100  0.35372922  1.0
  Ge  Ge829  1  0.23621000  0.52557433  0.35372922  1.0
  Ge  Ge830  1  0.23621000  0.85890767  0.35372922  1.0
  Ge  Ge831  1  0.56954333  0.19224100  0.35372922  1.0
  Ge  Ge832  1  0.56954333  0.52557433  0.35372922  1.0
  Ge  Ge833  1  0.56954333  0.85890767  0.35372922  1.0
  Ge  Ge834  1  0.90287667  0.19224100  0.35372922  1.0
  Ge  Ge835  1  0.90287667  0.52557433  0.35372922  1.0
  Ge  Ge836  1  0.90287667  0.85890767  0.35372922  1.0
  Ge  Ge837  1  0.06954333  0.02557433  0.29122922  1.0
  Ge  Ge838  1  0.06954333  0.35890767  0.29122922  1.0
  Ge  Ge839  1  0.06954333  0.69224100  0.29122922  1.0
  Ge  Ge840  1  0.40287667  0.02557433  0.29122922  1.0
  Ge  Ge841  1  0.40287667  0.35890767  0.29122922  1.0
  Ge  Ge842  1  0.40287667  0.69224100  0.29122922  1.0
  Ge  Ge843  1  0.73621000  0.02557433  0.29122922  1.0
  Ge  Ge844  1  0.73621000  0.35890767  0.29122922  1.0
  Ge  Ge845  1  0.73621000  0.69224100  0.29122922  1.0
  Ge  Ge846  1  0.28577450  0.24180550  0.28430903  1.0
  Ge  Ge847  1  0.28577450  0.57513883  0.28430903  1.0
  Ge  Ge848  1  0.28577450  0.90847217  0.28430903  1.0
  Ge  Ge849  1  0.61910783  0.24180550  0.28430903  1.0
  Ge  Ge850  1  0.61910783  0.57513883  0.28430903  1.0
  Ge  Ge851  1  0.61910783  0.90847217  0.28430903  1.0
  Ge  Ge852  1  0.95244117  0.24180550  0.28430903  1.0
  Ge  Ge853  1  0.95244117  0.57513883  0.28430903  1.0
  Ge  Ge854  1  0.95244117  0.90847217  0.28430903  1.0
  Ge  Ge855  1  0.11910783  0.07513883  0.34680903  1.0
  Ge  Ge856  1  0.11910783  0.40847217  0.34680903  1.0
  Ge  Ge857  1  0.11910783  0.74180550  0.34680903  1.0
  Ge  Ge858  1  0.45244117  0.07513883  0.34680903  1.0
  Ge  Ge859  1  0.45244117  0.40847217  0.34680903  1.0
  Ge  Ge860  1  0.45244117  0.74180550  0.34680903  1.0
  Ge  Ge861  1  0.78577450  0.07513883  0.34680903  1.0
  Ge  Ge862  1  0.78577450  0.40847217  0.34680903  1.0
  Ge  Ge863  1  0.78577450  0.74180550  0.34680903  1.0
