# generated using pymatgen
data_Ni5Ge3
_symmetry_space_group_name_H-M   'P 1'
_cell_length_a   32.45969398
_cell_length_b   49.52587360
_cell_length_c   57.31942599
_cell_angle_alpha   59.51851948
_cell_angle_beta   31.84894515
_cell_angle_gamma   43.64502602
_symmetry_Int_Tables_number   1
_chemical_formula_structural   Ni5Ge3
_chemical_formula_sum   'Ni720 Ge432'
_cell_volume   32066.68661055
_cell_formula_units_Z   144
loop_
 _symmetry_equiv_pos_site_id
 _symmetry_equiv_pos_as_xyz
  1  'x, y, z'
loop_
 _atom_site_type_symbol
 _atom_site_label
 _atom_site_symmetry_multiplicity
 _atom_site_fract_x
 _atom_site_fract_y
 _atom_site_fract_z
 _atom_site_occupancy
  Ni  Ni0  1  0.29639567  0.30913500  0.04549672  1.0
  Ni  Ni1  1  0.29639567  0.64246833  0.04549672  1.0
  Ni  Ni2  1  0.29639567  0.97580167  0.04549672  1.0
  Ni  Ni3  1  0.62972900  0.30913500  0.04549672  1.0
  Ni  Ni4  1  0.62972900  0.64246833  0.04549672  1.0
  Ni  Ni5  1  0.62972900  0.97580167  0.04549672  1.0
  Ni  Ni6  1  0.96306233  0.30913500  0.04549672  1.0
  Ni  Ni7  1  0.96306233  0.64246833  0.04549672  1.0
  Ni  Ni8  1  0.96306233  0.97580167  0.04549672  1.0
  Ni  Ni9  1  0.12972900  0.14246833  0.10105228  1.0
  Ni  Ni10  1  0.12972900  0.47580167  0.10105228  1.0
  Ni  Ni11  1  0.12972900  0.80913500  0.10105228  1.0
  Ni  Ni12  1  0.46306233  0.14246833  0.10105228  1.0
  Ni  Ni13  1  0.46306233  0.47580167  0.10105228  1.0
  Ni  Ni14  1  0.46306233  0.80913500  0.10105228  1.0
  Ni  Ni15  1  0.79639567  0.14246833  0.10105228  1.0
  Ni  Ni16  1  0.79639567  0.47580167  0.10105228  1.0
  Ni  Ni17  1  0.79639567  0.80913500  0.10105228  1.0
  Ni  Ni18  1  0.28285700  0.27419833  0.03385117  1.0
  Ni  Ni19  1  0.28285700  0.60753167  0.03385117  1.0
  Ni  Ni20  1  0.28285700  0.94086500  0.03385117  1.0
  Ni  Ni21  1  0.61619033  0.27419833  0.03385117  1.0
  Ni  Ni22  1  0.61619033  0.60753167  0.03385117  1.0
  Ni  Ni23  1  0.61619033  0.94086500  0.03385117  1.0
  Ni  Ni24  1  0.94952367  0.27419833  0.03385117  1.0
  Ni  Ni25  1  0.94952367  0.60753167  0.03385117  1.0
  Ni  Ni26  1  0.94952367  0.94086500  0.03385117  1.0
  Ni  Ni27  1  0.11619033  0.10753167  0.08940672  1.0
  Ni  Ni28  1  0.11619033  0.44086500  0.08940672  1.0
  Ni  Ni29  1  0.11619033  0.77419833  0.08940672  1.0
  Ni  Ni30  1  0.44952367  0.10753167  0.08940672  1.0
  Ni  Ni31  1  0.44952367  0.44086500  0.08940672  1.0
  Ni  Ni32  1  0.44952367  0.77419833  0.08940672  1.0
  Ni  Ni33  1  0.78285700  0.10753167  0.08940672  1.0
  Ni  Ni34  1  0.78285700  0.44086500  0.08940672  1.0
  Ni  Ni35  1  0.78285700  0.77419833  0.08940672  1.0
  Ni  Ni36  1  0.20360433  0.19086500  0.00335294  1.0
  Ni  Ni37  1  0.20360433  0.52419833  0.00335294  1.0
  Ni  Ni38  1  0.20360433  0.85753167  0.00335294  1.0
  Ni  Ni39  1  0.53693767  0.19086500  0.00335294  1.0
  Ni  Ni40  1  0.53693767  0.52419833  0.00335294  1.0
  Ni  Ni41  1  0.53693767  0.85753167  0.00335294  1.0
  Ni  Ni42  1  0.87027100  0.19086500  0.00335294  1.0
  Ni  Ni43  1  0.87027100  0.52419833  0.00335294  1.0
  Ni  Ni44  1  0.87027100  0.85753167  0.00335294  1.0
  Ni  Ni45  1  0.03693767  0.02419833  0.05890850  1.0
  Ni  Ni46  1  0.03693767  0.35753167  0.05890850  1.0
  Ni  Ni47  1  0.03693767  0.69086500  0.05890850  1.0
  Ni  Ni48  1  0.37027100  0.02419833  0.05890850  1.0
  Ni  Ni49  1  0.37027100  0.35753167  0.05890850  1.0
  Ni  Ni50  1  0.37027100  0.69086500  0.05890850  1.0
  Ni  Ni51  1  0.70360433  0.02419833  0.05890850  1.0
  Ni  Ni52  1  0.70360433  0.35753167  0.05890850  1.0
  Ni  Ni53  1  0.70360433  0.69086500  0.05890850  1.0
  Ni  Ni54  1  0.21714300  0.22580167  0.01499850  1.0
  Ni  Ni55  1  0.21714300  0.55913500  0.01499850  1.0
  Ni  Ni56  1  0.21714300  0.89246833  0.01499850  1.0
  Ni  Ni57  1  0.55047633  0.22580167  0.01499850  1.0
  Ni  Ni58  1  0.55047633  0.55913500  0.01499850  1.0
  Ni  Ni59  1  0.55047633  0.89246833  0.01499850  1.0
  Ni  Ni60  1  0.88380967  0.22580167  0.01499850  1.0
  Ni  Ni61  1  0.88380967  0.55913500  0.01499850  1.0
  Ni  Ni62  1  0.88380967  0.89246833  0.01499850  1.0
  Ni  Ni63  1  0.05047633  0.05913500  0.07055406  1.0
  Ni  Ni64  1  0.05047633  0.39246833  0.07055406  1.0
  Ni  Ni65  1  0.05047633  0.72580167  0.07055406  1.0
  Ni  Ni66  1  0.38380967  0.05913500  0.07055406  1.0
  Ni  Ni67  1  0.38380967  0.39246833  0.07055406  1.0
  Ni  Ni68  1  0.38380967  0.72580167  0.07055406  1.0
  Ni  Ni69  1  0.71714300  0.05913500  0.07055406  1.0
  Ni  Ni70  1  0.71714300  0.39246833  0.07055406  1.0
  Ni  Ni71  1  0.71714300  0.72580167  0.07055406  1.0
  Ni  Ni72  1  0.25000000  0.25000000  0.02442483  1.0
  Ni  Ni73  1  0.25000000  0.58333333  0.02442483  1.0
  Ni  Ni74  1  0.25000000  0.91666667  0.02442483  1.0
  Ni  Ni75  1  0.58333333  0.25000000  0.02442483  1.0
  Ni  Ni76  1  0.58333333  0.58333333  0.02442483  1.0
  Ni  Ni77  1  0.58333333  0.91666667  0.02442483  1.0
  Ni  Ni78  1  0.91666667  0.25000000  0.02442483  1.0
  Ni  Ni79  1  0.91666667  0.58333333  0.02442483  1.0
  Ni  Ni80  1  0.91666667  0.91666667  0.02442483  1.0
  Ni  Ni81  1  0.08333333  0.08333333  0.07998039  1.0
  Ni  Ni82  1  0.08333333  0.41666667  0.07998039  1.0
  Ni  Ni83  1  0.08333333  0.75000000  0.07998039  1.0
  Ni  Ni84  1  0.41666667  0.08333333  0.07998039  1.0
  Ni  Ni85  1  0.41666667  0.41666667  0.07998039  1.0
  Ni  Ni86  1  0.41666667  0.75000000  0.07998039  1.0
  Ni  Ni87  1  0.75000000  0.08333333  0.07998039  1.0
  Ni  Ni88  1  0.75000000  0.41666667  0.07998039  1.0
  Ni  Ni89  1  0.75000000  0.75000000  0.07998039  1.0
  Ni  Ni90  1  0.16666667  0.16666667  0.10775817  1.0
  Ni  Ni91  1  0.16666667  0.50000000  0.10775817  1.0
  Ni  Ni92  1  0.16666667  0.83333333  0.10775817  1.0
  Ni  Ni93  1  0.50000000  0.16666667  0.10775817  1.0
  Ni  Ni94  1  0.50000000  0.50000000  0.10775817  1.0
  Ni  Ni95  1  0.50000000  0.83333333  0.10775817  1.0
  Ni  Ni96  1  0.83333333  0.16666667  0.10775817  1.0
  Ni  Ni97  1  0.83333333  0.50000000  0.10775817  1.0
  Ni  Ni98  1  0.83333333  0.83333333  0.10775817  1.0
  Ni  Ni99  1  0.00000000  0.00000000  0.05220261  1.0
  Ni  Ni100  1  0.00000000  0.33333333  0.05220261  1.0
  Ni  Ni101  1  0.00000000  0.66666667  0.05220261  1.0
  Ni  Ni102  1  0.33333333  0.00000000  0.05220261  1.0
  Ni  Ni103  1  0.33333333  0.33333333  0.05220261  1.0
  Ni  Ni104  1  0.33333333  0.66666667  0.05220261  1.0
  Ni  Ni105  1  0.66666667  0.00000000  0.05220261  1.0
  Ni  Ni106  1  0.66666667  0.33333333  0.05220261  1.0
  Ni  Ni107  1  0.66666667  0.66666667  0.05220261  1.0
  Ni  Ni108  1  0.12620517  0.23600283  0.09483411  1.0
  Ni  Ni109  1  0.12620517  0.56933617  0.09483411  1.0
  Ni  Ni110  1  0.12620517  0.90266950  0.09483411  1.0
  Ni  Ni111  1  0.45953850  0.23600283  0.09483411  1.0
  Ni  Ni112  1  0.45953850  0.56933617  0.09483411  1.0
  Ni  Ni113  1  0.45953850  0.90266950  0.09483411  1.0
  Ni  Ni114  1  0.79287183  0.23600283  0.09483411  1.0
  Ni  Ni115  1  0.79287183  0.56933617  0.09483411  1.0
  Ni  Ni116  1  0.79287183  0.90266950  0.09483411  1.0
  Ni  Ni117  1  0.29287183  0.06933617  0.03927856  1.0
  Ni  Ni118  1  0.29287183  0.40266950  0.03927856  1.0
  Ni  Ni119  1  0.29287183  0.73600283  0.03927856  1.0
  Ni  Ni120  1  0.62620517  0.06933617  0.03927856  1.0
  Ni  Ni121  1  0.62620517  0.40266950  0.03927856  1.0
  Ni  Ni122  1  0.62620517  0.73600283  0.03927856  1.0
  Ni  Ni123  1  0.95953850  0.06933617  0.03927856  1.0
  Ni  Ni124  1  0.95953850  0.40266950  0.03927856  1.0
  Ni  Ni125  1  0.95953850  0.73600283  0.03927856  1.0
  Ni  Ni126  1  0.06523650  0.18066383  0.07638778  1.0
  Ni  Ni127  1  0.06523650  0.51399717  0.07638778  1.0
  Ni  Ni128  1  0.06523650  0.84733050  0.07638778  1.0
  Ni  Ni129  1  0.39856983  0.18066383  0.07638778  1.0
  Ni  Ni130  1  0.39856983  0.51399717  0.07638778  1.0
  Ni  Ni131  1  0.39856983  0.84733050  0.07638778  1.0
  Ni  Ni132  1  0.73190317  0.18066383  0.07638778  1.0
  Ni  Ni133  1  0.73190317  0.51399717  0.07638778  1.0
  Ni  Ni134  1  0.73190317  0.84733050  0.07638778  1.0
  Ni  Ni135  1  0.23190317  0.01399717  0.02083222  1.0
  Ni  Ni136  1  0.23190317  0.34733050  0.02083222  1.0
  Ni  Ni137  1  0.23190317  0.68066383  0.02083222  1.0
  Ni  Ni138  1  0.56523650  0.01399717  0.02083222  1.0
  Ni  Ni139  1  0.56523650  0.34733050  0.02083222  1.0
  Ni  Ni140  1  0.56523650  0.68066383  0.02083222  1.0
  Ni  Ni141  1  0.89856983  0.01399717  0.02083222  1.0
  Ni  Ni142  1  0.89856983  0.34733050  0.02083222  1.0
  Ni  Ni143  1  0.89856983  0.68066383  0.02083222  1.0
  Ni  Ni144  1  0.04046150  0.26399717  0.06512667  1.0
  Ni  Ni145  1  0.04046150  0.59733050  0.06512667  1.0
  Ni  Ni146  1  0.04046150  0.93066383  0.06512667  1.0
  Ni  Ni147  1  0.37379483  0.26399717  0.06512667  1.0
  Ni  Ni148  1  0.37379483  0.59733050  0.06512667  1.0
  Ni  Ni149  1  0.37379483  0.93066383  0.06512667  1.0
  Ni  Ni150  1  0.70712817  0.26399717  0.06512667  1.0
  Ni  Ni151  1  0.70712817  0.59733050  0.06512667  1.0
  Ni  Ni152  1  0.70712817  0.93066383  0.06512667  1.0
  Ni  Ni153  1  0.20712817  0.09733050  0.00957111  1.0
  Ni  Ni154  1  0.20712817  0.43066383  0.00957111  1.0
  Ni  Ni155  1  0.20712817  0.76399717  0.00957111  1.0
  Ni  Ni156  1  0.54046150  0.09733050  0.00957111  1.0
  Ni  Ni157  1  0.54046150  0.43066383  0.00957111  1.0
  Ni  Ni158  1  0.54046150  0.76399717  0.00957111  1.0
  Ni  Ni159  1  0.87379483  0.09733050  0.00957111  1.0
  Ni  Ni160  1  0.87379483  0.43066383  0.00957111  1.0
  Ni  Ni161  1  0.87379483  0.76399717  0.00957111  1.0
  Ni  Ni162  1  0.10143017  0.31933617  0.08357300  1.0
  Ni  Ni163  1  0.10143017  0.65266950  0.08357300  1.0
  Ni  Ni164  1  0.10143017  0.98600283  0.08357300  1.0
  Ni  Ni165  1  0.43476350  0.31933617  0.08357300  1.0
  Ni  Ni166  1  0.43476350  0.65266950  0.08357300  1.0
  Ni  Ni167  1  0.43476350  0.98600283  0.08357300  1.0
  Ni  Ni168  1  0.76809683  0.31933617  0.08357300  1.0
  Ni  Ni169  1  0.76809683  0.65266950  0.08357300  1.0
  Ni  Ni170  1  0.76809683  0.98600283  0.08357300  1.0
  Ni  Ni171  1  0.26809683  0.15266950  0.02801744  1.0
  Ni  Ni172  1  0.26809683  0.48600283  0.02801744  1.0
  Ni  Ni173  1  0.26809683  0.81933617  0.02801744  1.0
  Ni  Ni174  1  0.60143017  0.15266950  0.02801744  1.0
  Ni  Ni175  1  0.60143017  0.48600283  0.02801744  1.0
  Ni  Ni176  1  0.60143017  0.81933617  0.02801744  1.0
  Ni  Ni177  1  0.93476350  0.15266950  0.02801744  1.0
  Ni  Ni178  1  0.93476350  0.48600283  0.02801744  1.0
  Ni  Ni179  1  0.93476350  0.81933617  0.02801744  1.0
  Ge  Ge180  1  0.09023433  0.20833333  0.08926861  1.0
  Ge  Ge181  1  0.09023433  0.54166667  0.08926861  1.0
  Ge  Ge182  1  0.09023433  0.87500000  0.08926861  1.0
  Ge  Ge183  1  0.42356767  0.20833333  0.08926861  1.0
  Ge  Ge184  1  0.42356767  0.54166667  0.08926861  1.0
  Ge  Ge185  1  0.42356767  0.87500000  0.08926861  1.0
  Ge  Ge186  1  0.75690100  0.20833333  0.08926861  1.0
  Ge  Ge187  1  0.75690100  0.54166667  0.08926861  1.0
  Ge  Ge188  1  0.75690100  0.87500000  0.08926861  1.0
  Ge  Ge189  1  0.25690100  0.04166667  0.03371306  1.0
  Ge  Ge190  1  0.25690100  0.37500000  0.03371306  1.0
  Ge  Ge191  1  0.25690100  0.70833333  0.03371306  1.0
  Ge  Ge192  1  0.59023433  0.04166667  0.03371306  1.0
  Ge  Ge193  1  0.59023433  0.37500000  0.03371306  1.0
  Ge  Ge194  1  0.59023433  0.70833333  0.03371306  1.0
  Ge  Ge195  1  0.92356767  0.04166667  0.03371306  1.0
  Ge  Ge196  1  0.92356767  0.37500000  0.03371306  1.0
  Ge  Ge197  1  0.92356767  0.70833333  0.03371306  1.0
  Ge  Ge198  1  0.07643233  0.29166667  0.07069217  1.0
  Ge  Ge199  1  0.07643233  0.62500000  0.07069217  1.0
  Ge  Ge200  1  0.07643233  0.95833333  0.07069217  1.0
  Ge  Ge201  1  0.40976567  0.29166667  0.07069217  1.0
  Ge  Ge202  1  0.40976567  0.62500000  0.07069217  1.0
  Ge  Ge203  1  0.40976567  0.95833333  0.07069217  1.0
  Ge  Ge204  1  0.74309900  0.29166667  0.07069217  1.0
  Ge  Ge205  1  0.74309900  0.62500000  0.07069217  1.0
  Ge  Ge206  1  0.74309900  0.95833333  0.07069217  1.0
  Ge  Ge207  1  0.24309900  0.12500000  0.01513661  1.0
  Ge  Ge208  1  0.24309900  0.45833333  0.01513661  1.0
  Ge  Ge209  1  0.24309900  0.79166667  0.01513661  1.0
  Ge  Ge210  1  0.57643233  0.12500000  0.01513661  1.0
  Ge  Ge211  1  0.57643233  0.45833333  0.01513661  1.0
  Ge  Ge212  1  0.57643233  0.79166667  0.01513661  1.0
  Ge  Ge213  1  0.90976567  0.12500000  0.01513661  1.0
  Ge  Ge214  1  0.90976567  0.45833333  0.01513661  1.0
  Ge  Ge215  1  0.90976567  0.79166667  0.01513661  1.0
  Ge  Ge216  1  0.17067333  0.25777767  0.09722928  1.0
  Ge  Ge217  1  0.17067333  0.59111100  0.09722928  1.0
  Ge  Ge218  1  0.17067333  0.92444433  0.09722928  1.0
  Ge  Ge219  1  0.50400667  0.25777767  0.09722928  1.0
  Ge  Ge220  1  0.50400667  0.59111100  0.09722928  1.0
  Ge  Ge221  1  0.50400667  0.92444433  0.09722928  1.0
  Ge  Ge222  1  0.83734000  0.25777767  0.09722928  1.0
  Ge  Ge223  1  0.83734000  0.59111100  0.09722928  1.0
  Ge  Ge224  1  0.83734000  0.92444433  0.09722928  1.0
  Ge  Ge225  1  0.00400667  0.09111100  0.04167372  1.0
  Ge  Ge226  1  0.00400667  0.42444433  0.04167372  1.0
  Ge  Ge227  1  0.00400667  0.75777767  0.04167372  1.0
  Ge  Ge228  1  0.33734000  0.09111100  0.04167372  1.0
  Ge  Ge229  1  0.33734000  0.42444433  0.04167372  1.0
  Ge  Ge230  1  0.33734000  0.75777767  0.04167372  1.0
  Ge  Ge231  1  0.67067333  0.09111100  0.04167372  1.0
  Ge  Ge232  1  0.67067333  0.42444433  0.04167372  1.0
  Ge  Ge233  1  0.67067333  0.75777767  0.04167372  1.0
  Ge  Ge234  1  0.20202433  0.32555567  0.00871083  1.0
  Ge  Ge235  1  0.20202433  0.65888900  0.00871083  1.0
  Ge  Ge236  1  0.20202433  0.99222233  0.00871083  1.0
  Ge  Ge237  1  0.53535767  0.32555567  0.00871083  1.0
  Ge  Ge238  1  0.53535767  0.65888900  0.00871083  1.0
  Ge  Ge239  1  0.53535767  0.99222233  0.00871083  1.0
  Ge  Ge240  1  0.86869100  0.32555567  0.00871083  1.0
  Ge  Ge241  1  0.86869100  0.65888900  0.00871083  1.0
  Ge  Ge242  1  0.86869100  0.99222233  0.00871083  1.0
  Ge  Ge243  1  0.03535767  0.15888900  0.06426639  1.0
  Ge  Ge244  1  0.03535767  0.49222233  0.06426639  1.0
  Ge  Ge245  1  0.03535767  0.82555567  0.06426639  1.0
  Ge  Ge246  1  0.36869100  0.15888900  0.06426639  1.0
  Ge  Ge247  1  0.36869100  0.49222233  0.06426639  1.0
  Ge  Ge248  1  0.36869100  0.82555567  0.06426639  1.0
  Ge  Ge249  1  0.70202433  0.15888900  0.06426639  1.0
  Ge  Ge250  1  0.70202433  0.49222233  0.06426639  1.0
  Ge  Ge251  1  0.70202433  0.82555567  0.06426639  1.0
  Ge  Ge252  1  0.32932667  0.24222233  0.06273150  1.0
  Ge  Ge253  1  0.32932667  0.57555567  0.06273150  1.0
  Ge  Ge254  1  0.32932667  0.90888900  0.06273150  1.0
  Ge  Ge255  1  0.66266000  0.24222233  0.06273150  1.0
  Ge  Ge256  1  0.66266000  0.57555567  0.06273150  1.0
  Ge  Ge257  1  0.66266000  0.90888900  0.06273150  1.0
  Ge  Ge258  1  0.99599333  0.24222233  0.06273150  1.0
  Ge  Ge259  1  0.99599333  0.57555567  0.06273150  1.0
  Ge  Ge260  1  0.99599333  0.90888900  0.06273150  1.0
  Ge  Ge261  1  0.16266000  0.07555567  0.00717594  1.0
  Ge  Ge262  1  0.16266000  0.40888900  0.00717594  1.0
  Ge  Ge263  1  0.16266000  0.74222233  0.00717594  1.0
  Ge  Ge264  1  0.49599333  0.07555567  0.00717594  1.0
  Ge  Ge265  1  0.49599333  0.40888900  0.00717594  1.0
  Ge  Ge266  1  0.49599333  0.74222233  0.00717594  1.0
  Ge  Ge267  1  0.82932667  0.07555567  0.00717594  1.0
  Ge  Ge268  1  0.82932667  0.40888900  0.00717594  1.0
  Ge  Ge269  1  0.82932667  0.74222233  0.00717594  1.0
  Ge  Ge270  1  0.29797567  0.17444433  0.04013883  1.0
  Ge  Ge271  1  0.29797567  0.50777767  0.04013883  1.0
  Ge  Ge272  1  0.29797567  0.84111100  0.04013883  1.0
  Ge  Ge273  1  0.63130900  0.17444433  0.04013883  1.0
  Ge  Ge274  1  0.63130900  0.50777767  0.04013883  1.0
  Ge  Ge275  1  0.63130900  0.84111100  0.04013883  1.0
  Ge  Ge276  1  0.96464233  0.17444433  0.04013883  1.0
  Ge  Ge277  1  0.96464233  0.50777767  0.04013883  1.0
  Ge  Ge278  1  0.96464233  0.84111100  0.04013883  1.0
  Ge  Ge279  1  0.13130900  0.00777767  0.09569439  1.0
  Ge  Ge280  1  0.13130900  0.34111100  0.09569439  1.0
  Ge  Ge281  1  0.13130900  0.67444433  0.09569439  1.0
  Ge  Ge282  1  0.46464233  0.00777767  0.09569439  1.0
  Ge  Ge283  1  0.46464233  0.34111100  0.09569439  1.0
  Ge  Ge284  1  0.46464233  0.67444433  0.09569439  1.0
  Ge  Ge285  1  0.79797567  0.00777767  0.09569439  1.0
  Ge  Ge286  1  0.79797567  0.34111100  0.09569439  1.0
  Ge  Ge287  1  0.79797567  0.67444433  0.09569439  1.0
  Ni  Ni288  1  0.29639567  0.30913500  0.15660783  1.0
  Ni  Ni289  1  0.29639567  0.64246833  0.15660783  1.0
  Ni  Ni290  1  0.29639567  0.97580167  0.15660783  1.0
  Ni  Ni291  1  0.62972900  0.30913500  0.15660783  1.0
  Ni  Ni292  1  0.62972900  0.64246833  0.15660783  1.0
  Ni  Ni293  1  0.62972900  0.97580167  0.15660783  1.0
  Ni  Ni294  1  0.96306233  0.30913500  0.15660783  1.0
  Ni  Ni295  1  0.96306233  0.64246833  0.15660783  1.0
  Ni  Ni296  1  0.96306233  0.97580167  0.15660783  1.0
  Ni  Ni297  1  0.12972900  0.14246833  0.21216339  1.0
  Ni  Ni298  1  0.12972900  0.47580167  0.21216339  1.0
  Ni  Ni299  1  0.12972900  0.80913500  0.21216339  1.0
  Ni  Ni300  1  0.46306233  0.14246833  0.21216339  1.0
  Ni  Ni301  1  0.46306233  0.47580167  0.21216339  1.0
  Ni  Ni302  1  0.46306233  0.80913500  0.21216339  1.0
  Ni  Ni303  1  0.79639567  0.14246833  0.21216339  1.0
  Ni  Ni304  1  0.79639567  0.47580167  0.21216339  1.0
  Ni  Ni305  1  0.79639567  0.80913500  0.21216339  1.0
  Ni  Ni306  1  0.28285700  0.27419833  0.14496228  1.0
  Ni  Ni307  1  0.28285700  0.60753167  0.14496228  1.0
  Ni  Ni308  1  0.28285700  0.94086500  0.14496228  1.0
  Ni  Ni309  1  0.61619033  0.27419833  0.14496228  1.0
  Ni  Ni310  1  0.61619033  0.60753167  0.14496228  1.0
  Ni  Ni311  1  0.61619033  0.94086500  0.14496228  1.0
  Ni  Ni312  1  0.94952367  0.27419833  0.14496228  1.0
  Ni  Ni313  1  0.94952367  0.60753167  0.14496228  1.0
  Ni  Ni314  1  0.94952367  0.94086500  0.14496228  1.0
  Ni  Ni315  1  0.11619033  0.10753167  0.20051783  1.0
  Ni  Ni316  1  0.11619033  0.44086500  0.20051783  1.0
  Ni  Ni317  1  0.11619033  0.77419833  0.20051783  1.0
  Ni  Ni318  1  0.44952367  0.10753167  0.20051783  1.0
  Ni  Ni319  1  0.44952367  0.44086500  0.20051783  1.0
  Ni  Ni320  1  0.44952367  0.77419833  0.20051783  1.0
  Ni  Ni321  1  0.78285700  0.10753167  0.20051783  1.0
  Ni  Ni322  1  0.78285700  0.44086500  0.20051783  1.0
  Ni  Ni323  1  0.78285700  0.77419833  0.20051783  1.0
  Ni  Ni324  1  0.20360433  0.19086500  0.11446406  1.0
  Ni  Ni325  1  0.20360433  0.52419833  0.11446406  1.0
  Ni  Ni326  1  0.20360433  0.85753167  0.11446406  1.0
  Ni  Ni327  1  0.53693767  0.19086500  0.11446406  1.0
  Ni  Ni328  1  0.53693767  0.52419833  0.11446406  1.0
  Ni  Ni329  1  0.53693767  0.85753167  0.11446406  1.0
  Ni  Ni330  1  0.87027100  0.19086500  0.11446406  1.0
  Ni  Ni331  1  0.87027100  0.52419833  0.11446406  1.0
  Ni  Ni332  1  0.87027100  0.85753167  0.11446406  1.0
  Ni  Ni333  1  0.03693767  0.02419833  0.17001961  1.0
  Ni  Ni334  1  0.03693767  0.35753167  0.17001961  1.0
  Ni  Ni335  1  0.03693767  0.69086500  0.17001961  1.0
  Ni  Ni336  1  0.37027100  0.02419833  0.17001961  1.0
  Ni  Ni337  1  0.37027100  0.35753167  0.17001961  1.0
  Ni  Ni338  1  0.37027100  0.69086500  0.17001961  1.0
  Ni  Ni339  1  0.70360433  0.02419833  0.17001961  1.0
  Ni  Ni340  1  0.70360433  0.35753167  0.17001961  1.0
  Ni  Ni341  1  0.70360433  0.69086500  0.17001961  1.0
  Ni  Ni342  1  0.21714300  0.22580167  0.12610961  1.0
  Ni  Ni343  1  0.21714300  0.55913500  0.12610961  1.0
  Ni  Ni344  1  0.21714300  0.89246833  0.12610961  1.0
  Ni  Ni345  1  0.55047633  0.22580167  0.12610961  1.0
  Ni  Ni346  1  0.55047633  0.55913500  0.12610961  1.0
  Ni  Ni347  1  0.55047633  0.89246833  0.12610961  1.0
  Ni  Ni348  1  0.88380967  0.22580167  0.12610961  1.0
  Ni  Ni349  1  0.88380967  0.55913500  0.12610961  1.0
  Ni  Ni350  1  0.88380967  0.89246833  0.12610961  1.0
  Ni  Ni351  1  0.05047633  0.05913500  0.18166517  1.0
  Ni  Ni352  1  0.05047633  0.39246833  0.18166517  1.0
  Ni  Ni353  1  0.05047633  0.72580167  0.18166517  1.0
  Ni  Ni354  1  0.38380967  0.05913500  0.18166517  1.0
  Ni  Ni355  1  0.38380967  0.39246833  0.18166517  1.0
  Ni  Ni356  1  0.38380967  0.72580167  0.18166517  1.0
  Ni  Ni357  1  0.71714300  0.05913500  0.18166517  1.0
  Ni  Ni358  1  0.71714300  0.39246833  0.18166517  1.0
  Ni  Ni359  1  0.71714300  0.72580167  0.18166517  1.0
  Ni  Ni360  1  0.25000000  0.25000000  0.13553594  1.0
  Ni  Ni361  1  0.25000000  0.58333333  0.13553594  1.0
  Ni  Ni362  1  0.25000000  0.91666667  0.13553594  1.0
  Ni  Ni363  1  0.58333333  0.25000000  0.13553594  1.0
  Ni  Ni364  1  0.58333333  0.58333333  0.13553594  1.0
  Ni  Ni365  1  0.58333333  0.91666667  0.13553594  1.0
  Ni  Ni366  1  0.91666667  0.25000000  0.13553594  1.0
  Ni  Ni367  1  0.91666667  0.58333333  0.13553594  1.0
  Ni  Ni368  1  0.91666667  0.91666667  0.13553594  1.0
  Ni  Ni369  1  0.08333333  0.08333333  0.19109150  1.0
  Ni  Ni370  1  0.08333333  0.41666667  0.19109150  1.0
  Ni  Ni371  1  0.08333333  0.75000000  0.19109150  1.0
  Ni  Ni372  1  0.41666667  0.08333333  0.19109150  1.0
  Ni  Ni373  1  0.41666667  0.41666667  0.19109150  1.0
  Ni  Ni374  1  0.41666667  0.75000000  0.19109150  1.0
  Ni  Ni375  1  0.75000000  0.08333333  0.19109150  1.0
  Ni  Ni376  1  0.75000000  0.41666667  0.19109150  1.0
  Ni  Ni377  1  0.75000000  0.75000000  0.19109150  1.0
  Ni  Ni378  1  0.16666667  0.16666667  0.21886928  1.0
  Ni  Ni379  1  0.16666667  0.50000000  0.21886928  1.0
  Ni  Ni380  1  0.16666667  0.83333333  0.21886928  1.0
  Ni  Ni381  1  0.50000000  0.16666667  0.21886928  1.0
  Ni  Ni382  1  0.50000000  0.50000000  0.21886928  1.0
  Ni  Ni383  1  0.50000000  0.83333333  0.21886928  1.0
  Ni  Ni384  1  0.83333333  0.16666667  0.21886928  1.0
  Ni  Ni385  1  0.83333333  0.50000000  0.21886928  1.0
  Ni  Ni386  1  0.83333333  0.83333333  0.21886928  1.0
  Ni  Ni387  1  0.00000000  0.00000000  0.16331372  1.0
  Ni  Ni388  1  0.00000000  0.33333333  0.16331372  1.0
  Ni  Ni389  1  0.00000000  0.66666667  0.16331372  1.0
  Ni  Ni390  1  0.33333333  0.00000000  0.16331372  1.0
  Ni  Ni391  1  0.33333333  0.33333333  0.16331372  1.0
  Ni  Ni392  1  0.33333333  0.66666667  0.16331372  1.0
  Ni  Ni393  1  0.66666667  0.00000000  0.16331372  1.0
  Ni  Ni394  1  0.66666667  0.33333333  0.16331372  1.0
  Ni  Ni395  1  0.66666667  0.66666667  0.16331372  1.0
  Ni  Ni396  1  0.12620517  0.23600283  0.20594522  1.0
  Ni  Ni397  1  0.12620517  0.56933617  0.20594522  1.0
  Ni  Ni398  1  0.12620517  0.90266950  0.20594522  1.0
  Ni  Ni399  1  0.45953850  0.23600283  0.20594522  1.0
  Ni  Ni400  1  0.45953850  0.56933617  0.20594522  1.0
  Ni  Ni401  1  0.45953850  0.90266950  0.20594522  1.0
  Ni  Ni402  1  0.79287183  0.23600283  0.20594522  1.0
  Ni  Ni403  1  0.79287183  0.56933617  0.20594522  1.0
  Ni  Ni404  1  0.79287183  0.90266950  0.20594522  1.0
  Ni  Ni405  1  0.29287183  0.06933617  0.15038967  1.0
  Ni  Ni406  1  0.29287183  0.40266950  0.15038967  1.0
  Ni  Ni407  1  0.29287183  0.73600283  0.15038967  1.0
  Ni  Ni408  1  0.62620517  0.06933617  0.15038967  1.0
  Ni  Ni409  1  0.62620517  0.40266950  0.15038967  1.0
  Ni  Ni410  1  0.62620517  0.73600283  0.15038967  1.0
  Ni  Ni411  1  0.95953850  0.06933617  0.15038967  1.0
  Ni  Ni412  1  0.95953850  0.40266950  0.15038967  1.0
  Ni  Ni413  1  0.95953850  0.73600283  0.15038967  1.0
  Ni  Ni414  1  0.06523650  0.18066383  0.18749889  1.0
  Ni  Ni415  1  0.06523650  0.51399717  0.18749889  1.0
  Ni  Ni416  1  0.06523650  0.84733050  0.18749889  1.0
  Ni  Ni417  1  0.39856983  0.18066383  0.18749889  1.0
  Ni  Ni418  1  0.39856983  0.51399717  0.18749889  1.0
  Ni  Ni419  1  0.39856983  0.84733050  0.18749889  1.0
  Ni  Ni420  1  0.73190317  0.18066383  0.18749889  1.0
  Ni  Ni421  1  0.73190317  0.51399717  0.18749889  1.0
  Ni  Ni422  1  0.73190317  0.84733050  0.18749889  1.0
  Ni  Ni423  1  0.23190317  0.01399717  0.13194333  1.0
  Ni  Ni424  1  0.23190317  0.34733050  0.13194333  1.0
  Ni  Ni425  1  0.23190317  0.68066383  0.13194333  1.0
  Ni  Ni426  1  0.56523650  0.01399717  0.13194333  1.0
  Ni  Ni427  1  0.56523650  0.34733050  0.13194333  1.0
  Ni  Ni428  1  0.56523650  0.68066383  0.13194333  1.0
  Ni  Ni429  1  0.89856983  0.01399717  0.13194333  1.0
  Ni  Ni430  1  0.89856983  0.34733050  0.13194333  1.0
  Ni  Ni431  1  0.89856983  0.68066383  0.13194333  1.0
  Ni  Ni432  1  0.04046150  0.26399717  0.17623778  1.0
  Ni  Ni433  1  0.04046150  0.59733050  0.17623778  1.0
  Ni  Ni434  1  0.04046150  0.93066383  0.17623778  1.0
  Ni  Ni435  1  0.37379483  0.26399717  0.17623778  1.0
  Ni  Ni436  1  0.37379483  0.59733050  0.17623778  1.0
  Ni  Ni437  1  0.37379483  0.93066383  0.17623778  1.0
  Ni  Ni438  1  0.70712817  0.26399717  0.17623778  1.0
  Ni  Ni439  1  0.70712817  0.59733050  0.17623778  1.0
  Ni  Ni440  1  0.70712817  0.93066383  0.17623778  1.0
  Ni  Ni441  1  0.20712817  0.09733050  0.12068222  1.0
  Ni  Ni442  1  0.20712817  0.43066383  0.12068222  1.0
  Ni  Ni443  1  0.20712817  0.76399717  0.12068222  1.0
  Ni  Ni444  1  0.54046150  0.09733050  0.12068222  1.0
  Ni  Ni445  1  0.54046150  0.43066383  0.12068222  1.0
  Ni  Ni446  1  0.54046150  0.76399717  0.12068222  1.0
  Ni  Ni447  1  0.87379483  0.09733050  0.12068222  1.0
  Ni  Ni448  1  0.87379483  0.43066383  0.12068222  1.0
  Ni  Ni449  1  0.87379483  0.76399717  0.12068222  1.0
  Ni  Ni450  1  0.10143017  0.31933617  0.19468411  1.0
  Ni  Ni451  1  0.10143017  0.65266950  0.19468411  1.0
  Ni  Ni452  1  0.10143017  0.98600283  0.19468411  1.0
  Ni  Ni453  1  0.43476350  0.31933617  0.19468411  1.0
  Ni  Ni454  1  0.43476350  0.65266950  0.19468411  1.0
  Ni  Ni455  1  0.43476350  0.98600283  0.19468411  1.0
  Ni  Ni456  1  0.76809683  0.31933617  0.19468411  1.0
  Ni  Ni457  1  0.76809683  0.65266950  0.19468411  1.0
  Ni  Ni458  1  0.76809683  0.98600283  0.19468411  1.0
  Ni  Ni459  1  0.26809683  0.15266950  0.13912856  1.0
  Ni  Ni460  1  0.26809683  0.48600283  0.13912856  1.0
  Ni  Ni461  1  0.26809683  0.81933617  0.13912856  1.0
  Ni  Ni462  1  0.60143017  0.15266950  0.13912856  1.0
  Ni  Ni463  1  0.60143017  0.48600283  0.13912856  1.0
  Ni  Ni464  1  0.60143017  0.81933617  0.13912856  1.0
  Ni  Ni465  1  0.93476350  0.15266950  0.13912856  1.0
  Ni  Ni466  1  0.93476350  0.48600283  0.13912856  1.0
  Ni  Ni467  1  0.93476350  0.81933617  0.13912856  1.0
  Ge  Ge468  1  0.09023433  0.20833333  0.20037972  1.0
  Ge  Ge469  1  0.09023433  0.54166667  0.20037972  1.0
  Ge  Ge470  1  0.09023433  0.87500000  0.20037972  1.0
  Ge  Ge471  1  0.42356767  0.20833333  0.20037972  1.0
  Ge  Ge472  1  0.42356767  0.54166667  0.20037972  1.0
  Ge  Ge473  1  0.42356767  0.87500000  0.20037972  1.0
  Ge  Ge474  1  0.75690100  0.20833333  0.20037972  1.0
  Ge  Ge475  1  0.75690100  0.54166667  0.20037972  1.0
  Ge  Ge476  1  0.75690100  0.87500000  0.20037972  1.0
  Ge  Ge477  1  0.25690100  0.04166667  0.14482417  1.0
  Ge  Ge478  1  0.25690100  0.37500000  0.14482417  1.0
  Ge  Ge479  1  0.25690100  0.70833333  0.14482417  1.0
  Ge  Ge480  1  0.59023433  0.04166667  0.14482417  1.0
  Ge  Ge481  1  0.59023433  0.37500000  0.14482417  1.0
  Ge  Ge482  1  0.59023433  0.70833333  0.14482417  1.0
  Ge  Ge483  1  0.92356767  0.04166667  0.14482417  1.0
  Ge  Ge484  1  0.92356767  0.37500000  0.14482417  1.0
  Ge  Ge485  1  0.92356767  0.70833333  0.14482417  1.0
  Ge  Ge486  1  0.07643233  0.29166667  0.18180328  1.0
  Ge  Ge487  1  0.07643233  0.62500000  0.18180328  1.0
  Ge  Ge488  1  0.07643233  0.95833333  0.18180328  1.0
  Ge  Ge489  1  0.40976567  0.29166667  0.18180328  1.0
  Ge  Ge490  1  0.40976567  0.62500000  0.18180328  1.0
  Ge  Ge491  1  0.40976567  0.95833333  0.18180328  1.0
  Ge  Ge492  1  0.74309900  0.29166667  0.18180328  1.0
  Ge  Ge493  1  0.74309900  0.62500000  0.18180328  1.0
  Ge  Ge494  1  0.74309900  0.95833333  0.18180328  1.0
  Ge  Ge495  1  0.24309900  0.12500000  0.12624772  1.0
  Ge  Ge496  1  0.24309900  0.45833333  0.12624772  1.0
  Ge  Ge497  1  0.24309900  0.79166667  0.12624772  1.0
  Ge  Ge498  1  0.57643233  0.12500000  0.12624772  1.0
  Ge  Ge499  1  0.57643233  0.45833333  0.12624772  1.0
  Ge  Ge500  1  0.57643233  0.79166667  0.12624772  1.0
  Ge  Ge501  1  0.90976567  0.12500000  0.12624772  1.0
  Ge  Ge502  1  0.90976567  0.45833333  0.12624772  1.0
  Ge  Ge503  1  0.90976567  0.79166667  0.12624772  1.0
  Ge  Ge504  1  0.17067333  0.25777767  0.20834039  1.0
  Ge  Ge505  1  0.17067333  0.59111100  0.20834039  1.0
  Ge  Ge506  1  0.17067333  0.92444433  0.20834039  1.0
  Ge  Ge507  1  0.50400667  0.25777767  0.20834039  1.0
  Ge  Ge508  1  0.50400667  0.59111100  0.20834039  1.0
  Ge  Ge509  1  0.50400667  0.92444433  0.20834039  1.0
  Ge  Ge510  1  0.83734000  0.25777767  0.20834039  1.0
  Ge  Ge511  1  0.83734000  0.59111100  0.20834039  1.0
  Ge  Ge512  1  0.83734000  0.92444433  0.20834039  1.0
  Ge  Ge513  1  0.00400667  0.09111100  0.15278483  1.0
  Ge  Ge514  1  0.00400667  0.42444433  0.15278483  1.0
  Ge  Ge515  1  0.00400667  0.75777767  0.15278483  1.0
  Ge  Ge516  1  0.33734000  0.09111100  0.15278483  1.0
  Ge  Ge517  1  0.33734000  0.42444433  0.15278483  1.0
  Ge  Ge518  1  0.33734000  0.75777767  0.15278483  1.0
  Ge  Ge519  1  0.67067333  0.09111100  0.15278483  1.0
  Ge  Ge520  1  0.67067333  0.42444433  0.15278483  1.0
  Ge  Ge521  1  0.67067333  0.75777767  0.15278483  1.0
  Ge  Ge522  1  0.20202433  0.32555567  0.11982194  1.0
  Ge  Ge523  1  0.20202433  0.65888900  0.11982194  1.0
  Ge  Ge524  1  0.20202433  0.99222233  0.11982194  1.0
  Ge  Ge525  1  0.53535767  0.32555567  0.11982194  1.0
  Ge  Ge526  1  0.53535767  0.65888900  0.11982194  1.0
  Ge  Ge527  1  0.53535767  0.99222233  0.11982194  1.0
  Ge  Ge528  1  0.86869100  0.32555567  0.11982194  1.0
  Ge  Ge529  1  0.86869100  0.65888900  0.11982194  1.0
  Ge  Ge530  1  0.86869100  0.99222233  0.11982194  1.0
  Ge  Ge531  1  0.03535767  0.15888900  0.17537750  1.0
  Ge  Ge532  1  0.03535767  0.49222233  0.17537750  1.0
  Ge  Ge533  1  0.03535767  0.82555567  0.17537750  1.0
  Ge  Ge534  1  0.36869100  0.15888900  0.17537750  1.0
  Ge  Ge535  1  0.36869100  0.49222233  0.17537750  1.0
  Ge  Ge536  1  0.36869100  0.82555567  0.17537750  1.0
  Ge  Ge537  1  0.70202433  0.15888900  0.17537750  1.0
  Ge  Ge538  1  0.70202433  0.49222233  0.17537750  1.0
  Ge  Ge539  1  0.70202433  0.82555567  0.17537750  1.0
  Ge  Ge540  1  0.32932667  0.24222233  0.17384261  1.0
  Ge  Ge541  1  0.32932667  0.57555567  0.17384261  1.0
  Ge  Ge542  1  0.32932667  0.90888900  0.17384261  1.0
  Ge  Ge543  1  0.66266000  0.24222233  0.17384261  1.0
  Ge  Ge544  1  0.66266000  0.57555567  0.17384261  1.0
  Ge  Ge545  1  0.66266000  0.90888900  0.17384261  1.0
  Ge  Ge546  1  0.99599333  0.24222233  0.17384261  1.0
  Ge  Ge547  1  0.99599333  0.57555567  0.17384261  1.0
  Ge  Ge548  1  0.99599333  0.90888900  0.17384261  1.0
  Ge  Ge549  1  0.16266000  0.07555567  0.11828706  1.0
  Ge  Ge550  1  0.16266000  0.40888900  0.11828706  1.0
  Ge  Ge551  1  0.16266000  0.74222233  0.11828706  1.0
  Ge  Ge552  1  0.49599333  0.07555567  0.11828706  1.0
  Ge  Ge553  1  0.49599333  0.40888900  0.11828706  1.0
  Ge  Ge554  1  0.49599333  0.74222233  0.11828706  1.0
  Ge  Ge555  1  0.82932667  0.07555567  0.11828706  1.0
  Ge  Ge556  1  0.82932667  0.40888900  0.11828706  1.0
  Ge  Ge557  1  0.82932667  0.74222233  0.11828706  1.0
  Ge  Ge558  1  0.29797567  0.17444433  0.15124994  1.0
  Ge  Ge559  1  0.29797567  0.50777767  0.15124994  1.0
  Ge  Ge560  1  0.29797567  0.84111100  0.15124994  1.0
  Ge  Ge561  1  0.63130900  0.17444433  0.15124994  1.0
  Ge  Ge562  1  0.63130900  0.50777767  0.15124994  1.0
  Ge  Ge563  1  0.63130900  0.84111100  0.15124994  1.0
  Ge  Ge564  1  0.96464233  0.17444433  0.15124994  1.0
  Ge  Ge565  1  0.96464233  0.50777767  0.15124994  1.0
  Ge  Ge566  1  0.96464233  0.84111100  0.15124994  1.0
  Ge  Ge567  1  0.13130900  0.00777767  0.20680550  1.0
  Ge  Ge568  1  0.13130900  0.34111100  0.20680550  1.0
  Ge  Ge569  1  0.13130900  0.67444433  0.20680550  1.0
  Ge  Ge570  1  0.46464233  0.00777767  0.20680550  1.0
  Ge  Ge571  1  0.46464233  0.34111100  0.20680550  1.0
  Ge  Ge572  1  0.46464233  0.67444433  0.20680550  1.0
  Ge  Ge573  1  0.79797567  0.00777767  0.20680550  1.0
  Ge  Ge574  1  0.79797567  0.34111100  0.20680550  1.0
  Ge  Ge575  1  0.79797567  0.67444433  0.20680550  1.0
  Ni  Ni576  1  0.29639567  0.30913500  0.26771894  1.0
  Ni  Ni577  1  0.29639567  0.64246833  0.26771894  1.0
  Ni  Ni578  1  0.29639567  0.97580167  0.26771894  1.0
  Ni  Ni579  1  0.62972900  0.30913500  0.26771894  1.0
  Ni  Ni580  1  0.62972900  0.64246833  0.26771894  1.0
  Ni  Ni581  1  0.62972900  0.97580167  0.26771894  1.0
  Ni  Ni582  1  0.96306233  0.30913500  0.26771894  1.0
  Ni  Ni583  1  0.96306233  0.64246833  0.26771894  1.0
  Ni  Ni584  1  0.96306233  0.97580167  0.26771894  1.0
  Ni  Ni585  1  0.12972900  0.14246833  0.32327450  1.0
  Ni  Ni586  1  0.12972900  0.47580167  0.32327450  1.0
  Ni  Ni587  1  0.12972900  0.80913500  0.32327450  1.0
  Ni  Ni588  1  0.46306233  0.14246833  0.32327450  1.0
  Ni  Ni589  1  0.46306233  0.47580167  0.32327450  1.0
  Ni  Ni590  1  0.46306233  0.80913500  0.32327450  1.0
  Ni  Ni591  1  0.79639567  0.14246833  0.32327450  1.0
  Ni  Ni592  1  0.79639567  0.47580167  0.32327450  1.0
  Ni  Ni593  1  0.79639567  0.80913500  0.32327450  1.0
  Ni  Ni594  1  0.28285700  0.27419833  0.25607339  1.0
  Ni  Ni595  1  0.28285700  0.60753167  0.25607339  1.0
  Ni  Ni596  1  0.28285700  0.94086500  0.25607339  1.0
  Ni  Ni597  1  0.61619033  0.27419833  0.25607339  1.0
  Ni  Ni598  1  0.61619033  0.60753167  0.25607339  1.0
  Ni  Ni599  1  0.61619033  0.94086500  0.25607339  1.0
  Ni  Ni600  1  0.94952367  0.27419833  0.25607339  1.0
  Ni  Ni601  1  0.94952367  0.60753167  0.25607339  1.0
  Ni  Ni602  1  0.94952367  0.94086500  0.25607339  1.0
  Ni  Ni603  1  0.11619033  0.10753167  0.31162894  1.0
  Ni  Ni604  1  0.11619033  0.44086500  0.31162894  1.0
  Ni  Ni605  1  0.11619033  0.77419833  0.31162894  1.0
  Ni  Ni606  1  0.44952367  0.10753167  0.31162894  1.0
  Ni  Ni607  1  0.44952367  0.44086500  0.31162894  1.0
  Ni  Ni608  1  0.44952367  0.77419833  0.31162894  1.0
  Ni  Ni609  1  0.78285700  0.10753167  0.31162894  1.0
  Ni  Ni610  1  0.78285700  0.44086500  0.31162894  1.0
  Ni  Ni611  1  0.78285700  0.77419833  0.31162894  1.0
  Ni  Ni612  1  0.20360433  0.19086500  0.22557517  1.0
  Ni  Ni613  1  0.20360433  0.52419833  0.22557517  1.0
  Ni  Ni614  1  0.20360433  0.85753167  0.22557517  1.0
  Ni  Ni615  1  0.53693767  0.19086500  0.22557517  1.0
  Ni  Ni616  1  0.53693767  0.52419833  0.22557517  1.0
  Ni  Ni617  1  0.53693767  0.85753167  0.22557517  1.0
  Ni  Ni618  1  0.87027100  0.19086500  0.22557517  1.0
  Ni  Ni619  1  0.87027100  0.52419833  0.22557517  1.0
  Ni  Ni620  1  0.87027100  0.85753167  0.22557517  1.0
  Ni  Ni621  1  0.03693767  0.02419833  0.28113072  1.0
  Ni  Ni622  1  0.03693767  0.35753167  0.28113072  1.0
  Ni  Ni623  1  0.03693767  0.69086500  0.28113072  1.0
  Ni  Ni624  1  0.37027100  0.02419833  0.28113072  1.0
  Ni  Ni625  1  0.37027100  0.35753167  0.28113072  1.0
  Ni  Ni626  1  0.37027100  0.69086500  0.28113072  1.0
  Ni  Ni627  1  0.70360433  0.02419833  0.28113072  1.0
  Ni  Ni628  1  0.70360433  0.35753167  0.28113072  1.0
  Ni  Ni629  1  0.70360433  0.69086500  0.28113072  1.0
  Ni  Ni630  1  0.21714300  0.22580167  0.23722072  1.0
  Ni  Ni631  1  0.21714300  0.55913500  0.23722072  1.0
  Ni  Ni632  1  0.21714300  0.89246833  0.23722072  1.0
  Ni  Ni633  1  0.55047633  0.22580167  0.23722072  1.0
  Ni  Ni634  1  0.55047633  0.55913500  0.23722072  1.0
  Ni  Ni635  1  0.55047633  0.89246833  0.23722072  1.0
  Ni  Ni636  1  0.88380967  0.22580167  0.23722072  1.0
  Ni  Ni637  1  0.88380967  0.55913500  0.23722072  1.0
  Ni  Ni638  1  0.88380967  0.89246833  0.23722072  1.0
  Ni  Ni639  1  0.05047633  0.05913500  0.29277628  1.0
  Ni  Ni640  1  0.05047633  0.39246833  0.29277628  1.0
  Ni  Ni641  1  0.05047633  0.72580167  0.29277628  1.0
  Ni  Ni642  1  0.38380967  0.05913500  0.29277628  1.0
  Ni  Ni643  1  0.38380967  0.39246833  0.29277628  1.0
  Ni  Ni644  1  0.38380967  0.72580167  0.29277628  1.0
  Ni  Ni645  1  0.71714300  0.05913500  0.29277628  1.0
  Ni  Ni646  1  0.71714300  0.39246833  0.29277628  1.0
  Ni  Ni647  1  0.71714300  0.72580167  0.29277628  1.0
  Ni  Ni648  1  0.25000000  0.25000000  0.24664706  1.0
  Ni  Ni649  1  0.25000000  0.58333333  0.24664706  1.0
  Ni  Ni650  1  0.25000000  0.91666667  0.24664706  1.0
  Ni  Ni651  1  0.58333333  0.25000000  0.24664706  1.0
  Ni  Ni652  1  0.58333333  0.58333333  0.24664706  1.0
  Ni  Ni653  1  0.58333333  0.91666667  0.24664706  1.0
  Ni  Ni654  1  0.91666667  0.25000000  0.24664706  1.0
  Ni  Ni655  1  0.91666667  0.58333333  0.24664706  1.0
  Ni  Ni656  1  0.91666667  0.91666667  0.24664706  1.0
  Ni  Ni657  1  0.08333333  0.08333333  0.30220261  1.0
  Ni  Ni658  1  0.08333333  0.41666667  0.30220261  1.0
  Ni  Ni659  1  0.08333333  0.75000000  0.30220261  1.0
  Ni  Ni660  1  0.41666667  0.08333333  0.30220261  1.0
  Ni  Ni661  1  0.41666667  0.41666667  0.30220261  1.0
  Ni  Ni662  1  0.41666667  0.75000000  0.30220261  1.0
  Ni  Ni663  1  0.75000000  0.08333333  0.30220261  1.0
  Ni  Ni664  1  0.75000000  0.41666667  0.30220261  1.0
  Ni  Ni665  1  0.75000000  0.75000000  0.30220261  1.0
  Ni  Ni666  1  0.16666667  0.16666667  0.32998039  1.0
  Ni  Ni667  1  0.16666667  0.50000000  0.32998039  1.0
  Ni  Ni668  1  0.16666667  0.83333333  0.32998039  1.0
  Ni  Ni669  1  0.50000000  0.16666667  0.32998039  1.0
  Ni  Ni670  1  0.50000000  0.50000000  0.32998039  1.0
  Ni  Ni671  1  0.50000000  0.83333333  0.32998039  1.0
  Ni  Ni672  1  0.83333333  0.16666667  0.32998039  1.0
  Ni  Ni673  1  0.83333333  0.50000000  0.32998039  1.0
  Ni  Ni674  1  0.83333333  0.83333333  0.32998039  1.0
  Ni  Ni675  1  0.00000000  0.00000000  0.27442483  1.0
  Ni  Ni676  1  0.00000000  0.33333333  0.27442483  1.0
  Ni  Ni677  1  0.00000000  0.66666667  0.27442483  1.0
  Ni  Ni678  1  0.33333333  0.00000000  0.27442483  1.0
  Ni  Ni679  1  0.33333333  0.33333333  0.27442483  1.0
  Ni  Ni680  1  0.33333333  0.66666667  0.27442483  1.0
  Ni  Ni681  1  0.66666667  0.00000000  0.27442483  1.0
  Ni  Ni682  1  0.66666667  0.33333333  0.27442483  1.0
  Ni  Ni683  1  0.66666667  0.66666667  0.27442483  1.0
  Ni  Ni684  1  0.12620517  0.23600283  0.31705633  1.0
  Ni  Ni685  1  0.12620517  0.56933617  0.31705633  1.0
  Ni  Ni686  1  0.12620517  0.90266950  0.31705633  1.0
  Ni  Ni687  1  0.45953850  0.23600283  0.31705633  1.0
  Ni  Ni688  1  0.45953850  0.56933617  0.31705633  1.0
  Ni  Ni689  1  0.45953850  0.90266950  0.31705633  1.0
  Ni  Ni690  1  0.79287183  0.23600283  0.31705633  1.0
  Ni  Ni691  1  0.79287183  0.56933617  0.31705633  1.0
  Ni  Ni692  1  0.79287183  0.90266950  0.31705633  1.0
  Ni  Ni693  1  0.29287183  0.06933617  0.26150078  1.0
  Ni  Ni694  1  0.29287183  0.40266950  0.26150078  1.0
  Ni  Ni695  1  0.29287183  0.73600283  0.26150078  1.0
  Ni  Ni696  1  0.62620517  0.06933617  0.26150078  1.0
  Ni  Ni697  1  0.62620517  0.40266950  0.26150078  1.0
  Ni  Ni698  1  0.62620517  0.73600283  0.26150078  1.0
  Ni  Ni699  1  0.95953850  0.06933617  0.26150078  1.0
  Ni  Ni700  1  0.95953850  0.40266950  0.26150078  1.0
  Ni  Ni701  1  0.95953850  0.73600283  0.26150078  1.0
  Ni  Ni702  1  0.06523650  0.18066383  0.29861000  1.0
  Ni  Ni703  1  0.06523650  0.51399717  0.29861000  1.0
  Ni  Ni704  1  0.06523650  0.84733050  0.29861000  1.0
  Ni  Ni705  1  0.39856983  0.18066383  0.29861000  1.0
  Ni  Ni706  1  0.39856983  0.51399717  0.29861000  1.0
  Ni  Ni707  1  0.39856983  0.84733050  0.29861000  1.0
  Ni  Ni708  1  0.73190317  0.18066383  0.29861000  1.0
  Ni  Ni709  1  0.73190317  0.51399717  0.29861000  1.0
  Ni  Ni710  1  0.73190317  0.84733050  0.29861000  1.0
  Ni  Ni711  1  0.23190317  0.01399717  0.24305444  1.0
  Ni  Ni712  1  0.23190317  0.34733050  0.24305444  1.0
  Ni  Ni713  1  0.23190317  0.68066383  0.24305444  1.0
  Ni  Ni714  1  0.56523650  0.01399717  0.24305444  1.0
  Ni  Ni715  1  0.56523650  0.34733050  0.24305444  1.0
  Ni  Ni716  1  0.56523650  0.68066383  0.24305444  1.0
  Ni  Ni717  1  0.89856983  0.01399717  0.24305444  1.0
  Ni  Ni718  1  0.89856983  0.34733050  0.24305444  1.0
  Ni  Ni719  1  0.89856983  0.68066383  0.24305444  1.0
  Ni  Ni720  1  0.04046150  0.26399717  0.28734889  1.0
  Ni  Ni721  1  0.04046150  0.59733050  0.28734889  1.0
  Ni  Ni722  1  0.04046150  0.93066383  0.28734889  1.0
  Ni  Ni723  1  0.37379483  0.26399717  0.28734889  1.0
  Ni  Ni724  1  0.37379483  0.59733050  0.28734889  1.0
  Ni  Ni725  1  0.37379483  0.93066383  0.28734889  1.0
  Ni  Ni726  1  0.70712817  0.26399717  0.28734889  1.0
  Ni  Ni727  1  0.70712817  0.59733050  0.28734889  1.0
  Ni  Ni728  1  0.70712817  0.93066383  0.28734889  1.0
  Ni  Ni729  1  0.20712817  0.09733050  0.23179333  1.0
  Ni  Ni730  1  0.20712817  0.43066383  0.23179333  1.0
  Ni  Ni731  1  0.20712817  0.76399717  0.23179333  1.0
  Ni  Ni732  1  0.54046150  0.09733050  0.23179333  1.0
  Ni  Ni733  1  0.54046150  0.43066383  0.23179333  1.0
  Ni  Ni734  1  0.54046150  0.76399717  0.23179333  1.0
  Ni  Ni735  1  0.87379483  0.09733050  0.23179333  1.0
  Ni  Ni736  1  0.87379483  0.43066383  0.23179333  1.0
  Ni  Ni737  1  0.87379483  0.76399717  0.23179333  1.0
  Ni  Ni738  1  0.10143017  0.31933617  0.30579522  1.0
  Ni  Ni739  1  0.10143017  0.65266950  0.30579522  1.0
  Ni  Ni740  1  0.10143017  0.98600283  0.30579522  1.0
  Ni  Ni741  1  0.43476350  0.31933617  0.30579522  1.0
  Ni  Ni742  1  0.43476350  0.65266950  0.30579522  1.0
  Ni  Ni743  1  0.43476350  0.98600283  0.30579522  1.0
  Ni  Ni744  1  0.76809683  0.31933617  0.30579522  1.0
  Ni  Ni745  1  0.76809683  0.65266950  0.30579522  1.0
  Ni  Ni746  1  0.76809683  0.98600283  0.30579522  1.0
  Ni  Ni747  1  0.26809683  0.15266950  0.25023967  1.0
  Ni  Ni748  1  0.26809683  0.48600283  0.25023967  1.0
  Ni  Ni749  1  0.26809683  0.81933617  0.25023967  1.0
  Ni  Ni750  1  0.60143017  0.15266950  0.25023967  1.0
  Ni  Ni751  1  0.60143017  0.48600283  0.25023967  1.0
  Ni  Ni752  1  0.60143017  0.81933617  0.25023967  1.0
  Ni  Ni753  1  0.93476350  0.15266950  0.25023967  1.0
  Ni  Ni754  1  0.93476350  0.48600283  0.25023967  1.0
  Ni  Ni755  1  0.93476350  0.81933617  0.25023967  1.0
  Ge  Ge756  1  0.09023433  0.20833333  0.31149083  1.0
  Ge  Ge757  1  0.09023433  0.54166667  0.31149083  1.0
  Ge  Ge758  1  0.09023433  0.87500000  0.31149083  1.0
  Ge  Ge759  1  0.42356767  0.20833333  0.31149083  1.0
  Ge  Ge760  1  0.42356767  0.54166667  0.31149083  1.0
  Ge  Ge761  1  0.42356767  0.87500000  0.31149083  1.0
  Ge  Ge762  1  0.75690100  0.20833333  0.31149083  1.0
  Ge  Ge763  1  0.75690100  0.54166667  0.31149083  1.0
  Ge  Ge764  1  0.75690100  0.87500000  0.31149083  1.0
  Ge  Ge765  1  0.25690100  0.04166667  0.25593528  1.0
  Ge  Ge766  1  0.25690100  0.37500000  0.25593528  1.0
  Ge  Ge767  1  0.25690100  0.70833333  0.25593528  1.0
  Ge  Ge768  1  0.59023433  0.04166667  0.25593528  1.0
  Ge  Ge769  1  0.59023433  0.37500000  0.25593528  1.0
  Ge  Ge770  1  0.59023433  0.70833333  0.25593528  1.0
  Ge  Ge771  1  0.92356767  0.04166667  0.25593528  1.0
  Ge  Ge772  1  0.92356767  0.37500000  0.25593528  1.0
  Ge  Ge773  1  0.92356767  0.70833333  0.25593528  1.0
  Ge  Ge774  1  0.07643233  0.29166667  0.29291439  1.0
  Ge  Ge775  1  0.07643233  0.62500000  0.29291439  1.0
  Ge  Ge776  1  0.07643233  0.95833333  0.29291439  1.0
  Ge  Ge777  1  0.40976567  0.29166667  0.29291439  1.0
  Ge  Ge778  1  0.40976567  0.62500000  0.29291439  1.0
  Ge  Ge779  1  0.40976567  0.95833333  0.29291439  1.0
  Ge  Ge780  1  0.74309900  0.29166667  0.29291439  1.0
  Ge  Ge781  1  0.74309900  0.62500000  0.29291439  1.0
  Ge  Ge782  1  0.74309900  0.95833333  0.29291439  1.0
  Ge  Ge783  1  0.24309900  0.12500000  0.23735883  1.0
  Ge  Ge784  1  0.24309900  0.45833333  0.23735883  1.0
  Ge  Ge785  1  0.24309900  0.79166667  0.23735883  1.0
  Ge  Ge786  1  0.57643233  0.12500000  0.23735883  1.0
  Ge  Ge787  1  0.57643233  0.45833333  0.23735883  1.0
  Ge  Ge788  1  0.57643233  0.79166667  0.23735883  1.0
  Ge  Ge789  1  0.90976567  0.12500000  0.23735883  1.0
  Ge  Ge790  1  0.90976567  0.45833333  0.23735883  1.0
  Ge  Ge791  1  0.90976567  0.79166667  0.23735883  1.0
  Ge  Ge792  1  0.17067333  0.25777767  0.31945150  1.0
  Ge  Ge793  1  0.17067333  0.59111100  0.31945150  1.0
  Ge  Ge794  1  0.17067333  0.92444433  0.31945150  1.0
  Ge  Ge795  1  0.50400667  0.25777767  0.31945150  1.0
  Ge  Ge796  1  0.50400667  0.59111100  0.31945150  1.0
  Ge  Ge797  1  0.50400667  0.92444433  0.31945150  1.0
  Ge  Ge798  1  0.83734000  0.25777767  0.31945150  1.0
  Ge  Ge799  1  0.83734000  0.59111100  0.31945150  1.0
  Ge  Ge800  1  0.83734000  0.92444433  0.31945150  1.0
  Ge  Ge801  1  0.00400667  0.09111100  0.26389594  1.0
  Ge  Ge802  1  0.00400667  0.42444433  0.26389594  1.0
  Ge  Ge803  1  0.00400667  0.75777767  0.26389594  1.0
  Ge  Ge804  1  0.33734000  0.09111100  0.26389594  1.0
  Ge  Ge805  1  0.33734000  0.42444433  0.26389594  1.0
  Ge  Ge806  1  0.33734000  0.75777767  0.26389594  1.0
  Ge  Ge807  1  0.67067333  0.09111100  0.26389594  1.0
  Ge  Ge808  1  0.67067333  0.42444433  0.26389594  1.0
  Ge  Ge809  1  0.67067333  0.75777767  0.26389594  1.0
  Ge  Ge810  1  0.20202433  0.32555567  0.23093306  1.0
  Ge  Ge811  1  0.20202433  0.65888900  0.23093306  1.0
  Ge  Ge812  1  0.20202433  0.99222233  0.23093306  1.0
  Ge  Ge813  1  0.53535767  0.32555567  0.23093306  1.0
  Ge  Ge814  1  0.53535767  0.65888900  0.23093306  1.0
  Ge  Ge815  1  0.53535767  0.99222233  0.23093306  1.0
  Ge  Ge816  1  0.86869100  0.32555567  0.23093306  1.0
  Ge  Ge817  1  0.86869100  0.65888900  0.23093306  1.0
  Ge  Ge818  1  0.86869100  0.99222233  0.23093306  1.0
  Ge  Ge819  1  0.03535767  0.15888900  0.28648861  1.0
  Ge  Ge820  1  0.03535767  0.49222233  0.28648861  1.0
  Ge  Ge821  1  0.03535767  0.82555567  0.28648861  1.0
  Ge  Ge822  1  0.36869100  0.15888900  0.28648861  1.0
  Ge  Ge823  1  0.36869100  0.49222233  0.28648861  1.0
  Ge  Ge824  1  0.36869100  0.82555567  0.28648861  1.0
  Ge  Ge825  1  0.70202433  0.15888900  0.28648861  1.0
  Ge  Ge826  1  0.70202433  0.49222233  0.28648861  1.0
  Ge  Ge827  1  0.70202433  0.82555567  0.28648861  1.0
  Ge  Ge828  1  0.32932667  0.24222233  0.28495372  1.0
  Ge  Ge829  1  0.32932667  0.57555567  0.28495372  1.0
  Ge  Ge830  1  0.32932667  0.90888900  0.28495372  1.0
  Ge  Ge831  1  0.66266000  0.24222233  0.28495372  1.0
  Ge  Ge832  1  0.66266000  0.57555567  0.28495372  1.0
  Ge  Ge833  1  0.66266000  0.90888900  0.28495372  1.0
  Ge  Ge834  1  0.99599333  0.24222233  0.28495372  1.0
  Ge  Ge835  1  0.99599333  0.57555567  0.28495372  1.0
  Ge  Ge836  1  0.99599333  0.90888900  0.28495372  1.0
  Ge  Ge837  1  0.16266000  0.07555567  0.22939817  1.0
  Ge  Ge838  1  0.16266000  0.40888900  0.22939817  1.0
  Ge  Ge839  1  0.16266000  0.74222233  0.22939817  1.0
  Ge  Ge840  1  0.49599333  0.07555567  0.22939817  1.0
  Ge  Ge841  1  0.49599333  0.40888900  0.22939817  1.0
  Ge  Ge842  1  0.49599333  0.74222233  0.22939817  1.0
  Ge  Ge843  1  0.82932667  0.07555567  0.22939817  1.0
  Ge  Ge844  1  0.82932667  0.40888900  0.22939817  1.0
  Ge  Ge845  1  0.82932667  0.74222233  0.22939817  1.0
  Ge  Ge846  1  0.29797567  0.17444433  0.26236106  1.0
  Ge  Ge847  1  0.29797567  0.50777767  0.26236106  1.0
  Ge  Ge848  1  0.29797567  0.84111100  0.26236106  1.0
  Ge  Ge849  1  0.63130900  0.17444433  0.26236106  1.0
  Ge  Ge850  1  0.63130900  0.50777767  0.26236106  1.0
  Ge  Ge851  1  0.63130900  0.84111100  0.26236106  1.0
  Ge  Ge852  1  0.96464233  0.17444433  0.26236106  1.0
  Ge  Ge853  1  0.96464233  0.50777767  0.26236106  1.0
  Ge  Ge854  1  0.96464233  0.84111100  0.26236106  1.0
  Ge  Ge855  1  0.13130900  0.00777767  0.31791661  1.0
  Ge  Ge856  1  0.13130900  0.34111100  0.31791661  1.0
  Ge  Ge857  1  0.13130900  0.67444433  0.31791661  1.0
  Ge  Ge858  1  0.46464233  0.00777767  0.31791661  1.0
  Ge  Ge859  1  0.46464233  0.34111100  0.31791661  1.0
  Ge  Ge860  1  0.46464233  0.67444433  0.31791661  1.0
  Ge  Ge861  1  0.79797567  0.00777767  0.31791661  1.0
  Ge  Ge862  1  0.79797567  0.34111100  0.31791661  1.0
  Ge  Ge863  1  0.79797567  0.67444433  0.31791661  1.0
  Ni  Ni864  1  0.29639567  0.30913500  0.37883006  1.0
  Ni  Ni865  1  0.29639567  0.64246833  0.37883006  1.0
  Ni  Ni866  1  0.29639567  0.97580167  0.37883006  1.0
  Ni  Ni867  1  0.62972900  0.30913500  0.37883006  1.0
  Ni  Ni868  1  0.62972900  0.64246833  0.37883006  1.0
  Ni  Ni869  1  0.62972900  0.97580167  0.37883006  1.0
  Ni  Ni870  1  0.96306233  0.30913500  0.37883006  1.0
  Ni  Ni871  1  0.96306233  0.64246833  0.37883006  1.0
  Ni  Ni872  1  0.96306233  0.97580167  0.37883006  1.0
  Ni  Ni873  1  0.12972900  0.14246833  0.43438561  1.0
  Ni  Ni874  1  0.12972900  0.47580167  0.43438561  1.0
  Ni  Ni875  1  0.12972900  0.80913500  0.43438561  1.0
  Ni  Ni876  1  0.46306233  0.14246833  0.43438561  1.0
  Ni  Ni877  1  0.46306233  0.47580167  0.43438561  1.0
  Ni  Ni878  1  0.46306233  0.80913500  0.43438561  1.0
  Ni  Ni879  1  0.79639567  0.14246833  0.43438561  1.0
  Ni  Ni880  1  0.79639567  0.47580167  0.43438561  1.0
  Ni  Ni881  1  0.79639567  0.80913500  0.43438561  1.0
  Ni  Ni882  1  0.28285700  0.27419833  0.36718450  1.0
  Ni  Ni883  1  0.28285700  0.60753167  0.36718450  1.0
  Ni  Ni884  1  0.28285700  0.94086500  0.36718450  1.0
  Ni  Ni885  1  0.61619033  0.27419833  0.36718450  1.0
  Ni  Ni886  1  0.61619033  0.60753167  0.36718450  1.0
  Ni  Ni887  1  0.61619033  0.94086500  0.36718450  1.0
  Ni  Ni888  1  0.94952367  0.27419833  0.36718450  1.0
  Ni  Ni889  1  0.94952367  0.60753167  0.36718450  1.0
  Ni  Ni890  1  0.94952367  0.94086500  0.36718450  1.0
  Ni  Ni891  1  0.11619033  0.10753167  0.42274006  1.0
  Ni  Ni892  1  0.11619033  0.44086500  0.42274006  1.0
  Ni  Ni893  1  0.11619033  0.77419833  0.42274006  1.0
  Ni  Ni894  1  0.44952367  0.10753167  0.42274006  1.0
  Ni  Ni895  1  0.44952367  0.44086500  0.42274006  1.0
  Ni  Ni896  1  0.44952367  0.77419833  0.42274006  1.0
  Ni  Ni897  1  0.78285700  0.10753167  0.42274006  1.0
  Ni  Ni898  1  0.78285700  0.44086500  0.42274006  1.0
  Ni  Ni899  1  0.78285700  0.77419833  0.42274006  1.0
  Ni  Ni900  1  0.20360433  0.19086500  0.33668628  1.0
  Ni  Ni901  1  0.20360433  0.52419833  0.33668628  1.0
  Ni  Ni902  1  0.20360433  0.85753167  0.33668628  1.0
  Ni  Ni903  1  0.53693767  0.19086500  0.33668628  1.0
  Ni  Ni904  1  0.53693767  0.52419833  0.33668628  1.0
  Ni  Ni905  1  0.53693767  0.85753167  0.33668628  1.0
  Ni  Ni906  1  0.87027100  0.19086500  0.33668628  1.0
  Ni  Ni907  1  0.87027100  0.52419833  0.33668628  1.0
  Ni  Ni908  1  0.87027100  0.85753167  0.33668628  1.0
  Ni  Ni909  1  0.03693767  0.02419833  0.39224183  1.0
  Ni  Ni910  1  0.03693767  0.35753167  0.39224183  1.0
  Ni  Ni911  1  0.03693767  0.69086500  0.39224183  1.0
  Ni  Ni912  1  0.37027100  0.02419833  0.39224183  1.0
  Ni  Ni913  1  0.37027100  0.35753167  0.39224183  1.0
  Ni  Ni914  1  0.37027100  0.69086500  0.39224183  1.0
  Ni  Ni915  1  0.70360433  0.02419833  0.39224183  1.0
  Ni  Ni916  1  0.70360433  0.35753167  0.39224183  1.0
  Ni  Ni917  1  0.70360433  0.69086500  0.39224183  1.0
  Ni  Ni918  1  0.21714300  0.22580167  0.34833183  1.0
  Ni  Ni919  1  0.21714300  0.55913500  0.34833183  1.0
  Ni  Ni920  1  0.21714300  0.89246833  0.34833183  1.0
  Ni  Ni921  1  0.55047633  0.22580167  0.34833183  1.0
  Ni  Ni922  1  0.55047633  0.55913500  0.34833183  1.0
  Ni  Ni923  1  0.55047633  0.89246833  0.34833183  1.0
  Ni  Ni924  1  0.88380967  0.22580167  0.34833183  1.0
  Ni  Ni925  1  0.88380967  0.55913500  0.34833183  1.0
  Ni  Ni926  1  0.88380967  0.89246833  0.34833183  1.0
  Ni  Ni927  1  0.05047633  0.05913500  0.40388739  1.0
  Ni  Ni928  1  0.05047633  0.39246833  0.40388739  1.0
  Ni  Ni929  1  0.05047633  0.72580167  0.40388739  1.0
  Ni  Ni930  1  0.38380967  0.05913500  0.40388739  1.0
  Ni  Ni931  1  0.38380967  0.39246833  0.40388739  1.0
  Ni  Ni932  1  0.38380967  0.72580167  0.40388739  1.0
  Ni  Ni933  1  0.71714300  0.05913500  0.40388739  1.0
  Ni  Ni934  1  0.71714300  0.39246833  0.40388739  1.0
  Ni  Ni935  1  0.71714300  0.72580167  0.40388739  1.0
  Ni  Ni936  1  0.25000000  0.25000000  0.35775817  1.0
  Ni  Ni937  1  0.25000000  0.58333333  0.35775817  1.0
  Ni  Ni938  1  0.25000000  0.91666667  0.35775817  1.0
  Ni  Ni939  1  0.58333333  0.25000000  0.35775817  1.0
  Ni  Ni940  1  0.58333333  0.58333333  0.35775817  1.0
  Ni  Ni941  1  0.58333333  0.91666667  0.35775817  1.0
  Ni  Ni942  1  0.91666667  0.25000000  0.35775817  1.0
  Ni  Ni943  1  0.91666667  0.58333333  0.35775817  1.0
  Ni  Ni944  1  0.91666667  0.91666667  0.35775817  1.0
  Ni  Ni945  1  0.08333333  0.08333333  0.41331372  1.0
  Ni  Ni946  1  0.08333333  0.41666667  0.41331372  1.0
  Ni  Ni947  1  0.08333333  0.75000000  0.41331372  1.0
  Ni  Ni948  1  0.41666667  0.08333333  0.41331372  1.0
  Ni  Ni949  1  0.41666667  0.41666667  0.41331372  1.0
  Ni  Ni950  1  0.41666667  0.75000000  0.41331372  1.0
  Ni  Ni951  1  0.75000000  0.08333333  0.41331372  1.0
  Ni  Ni952  1  0.75000000  0.41666667  0.41331372  1.0
  Ni  Ni953  1  0.75000000  0.75000000  0.41331372  1.0
  Ni  Ni954  1  0.16666667  0.16666667  0.44109150  1.0
  Ni  Ni955  1  0.16666667  0.50000000  0.44109150  1.0
  Ni  Ni956  1  0.16666667  0.83333333  0.44109150  1.0
  Ni  Ni957  1  0.50000000  0.16666667  0.44109150  1.0
  Ni  Ni958  1  0.50000000  0.50000000  0.44109150  1.0
  Ni  Ni959  1  0.50000000  0.83333333  0.44109150  1.0
  Ni  Ni960  1  0.83333333  0.16666667  0.44109150  1.0
  Ni  Ni961  1  0.83333333  0.50000000  0.44109150  1.0
  Ni  Ni962  1  0.83333333  0.83333333  0.44109150  1.0
  Ni  Ni963  1  0.00000000  0.00000000  0.38553594  1.0
  Ni  Ni964  1  0.00000000  0.33333333  0.38553594  1.0
  Ni  Ni965  1  0.00000000  0.66666667  0.38553594  1.0
  Ni  Ni966  1  0.33333333  0.00000000  0.38553594  1.0
  Ni  Ni967  1  0.33333333  0.33333333  0.38553594  1.0
  Ni  Ni968  1  0.33333333  0.66666667  0.38553594  1.0
  Ni  Ni969  1  0.66666667  0.00000000  0.38553594  1.0
  Ni  Ni970  1  0.66666667  0.33333333  0.38553594  1.0
  Ni  Ni971  1  0.66666667  0.66666667  0.38553594  1.0
  Ni  Ni972  1  0.12620517  0.23600283  0.42816744  1.0
  Ni  Ni973  1  0.12620517  0.56933617  0.42816744  1.0
  Ni  Ni974  1  0.12620517  0.90266950  0.42816744  1.0
  Ni  Ni975  1  0.45953850  0.23600283  0.42816744  1.0
  Ni  Ni976  1  0.45953850  0.56933617  0.42816744  1.0
  Ni  Ni977  1  0.45953850  0.90266950  0.42816744  1.0
  Ni  Ni978  1  0.79287183  0.23600283  0.42816744  1.0
  Ni  Ni979  1  0.79287183  0.56933617  0.42816744  1.0
  Ni  Ni980  1  0.79287183  0.90266950  0.42816744  1.0
  Ni  Ni981  1  0.29287183  0.06933617  0.37261189  1.0
  Ni  Ni982  1  0.29287183  0.40266950  0.37261189  1.0
  Ni  Ni983  1  0.29287183  0.73600283  0.37261189  1.0
  Ni  Ni984  1  0.62620517  0.06933617  0.37261189  1.0
  Ni  Ni985  1  0.62620517  0.40266950  0.37261189  1.0
  Ni  Ni986  1  0.62620517  0.73600283  0.37261189  1.0
  Ni  Ni987  1  0.95953850  0.06933617  0.37261189  1.0
  Ni  Ni988  1  0.95953850  0.40266950  0.37261189  1.0
  Ni  Ni989  1  0.95953850  0.73600283  0.37261189  1.0
  Ni  Ni990  1  0.06523650  0.18066383  0.40972111  1.0
  Ni  Ni991  1  0.06523650  0.51399717  0.40972111  1.0
  Ni  Ni992  1  0.06523650  0.84733050  0.40972111  1.0
  Ni  Ni993  1  0.39856983  0.18066383  0.40972111  1.0
  Ni  Ni994  1  0.39856983  0.51399717  0.40972111  1.0
  Ni  Ni995  1  0.39856983  0.84733050  0.40972111  1.0
  Ni  Ni996  1  0.73190317  0.18066383  0.40972111  1.0
  Ni  Ni997  1  0.73190317  0.51399717  0.40972111  1.0
  Ni  Ni998  1  0.73190317  0.84733050  0.40972111  1.0
  Ni  Ni999  1  0.23190317  0.01399717  0.35416556  1.0
  Ni  Ni1000  1  0.23190317  0.34733050  0.35416556  1.0
  Ni  Ni1001  1  0.23190317  0.68066383  0.35416556  1.0
  Ni  Ni1002  1  0.56523650  0.01399717  0.35416556  1.0
  Ni  Ni1003  1  0.56523650  0.34733050  0.35416556  1.0
  Ni  Ni1004  1  0.56523650  0.68066383  0.35416556  1.0
  Ni  Ni1005  1  0.89856983  0.01399717  0.35416556  1.0
  Ni  Ni1006  1  0.89856983  0.34733050  0.35416556  1.0
  Ni  Ni1007  1  0.89856983  0.68066383  0.35416556  1.0
  Ni  Ni1008  1  0.04046150  0.26399717  0.39846000  1.0
  Ni  Ni1009  1  0.04046150  0.59733050  0.39846000  1.0
  Ni  Ni1010  1  0.04046150  0.93066383  0.39846000  1.0
  Ni  Ni1011  1  0.37379483  0.26399717  0.39846000  1.0
  Ni  Ni1012  1  0.37379483  0.59733050  0.39846000  1.0
  Ni  Ni1013  1  0.37379483  0.93066383  0.39846000  1.0
  Ni  Ni1014  1  0.70712817  0.26399717  0.39846000  1.0
  Ni  Ni1015  1  0.70712817  0.59733050  0.39846000  1.0
  Ni  Ni1016  1  0.70712817  0.93066383  0.39846000  1.0
  Ni  Ni1017  1  0.20712817  0.09733050  0.34290444  1.0
  Ni  Ni1018  1  0.20712817  0.43066383  0.34290444  1.0
  Ni  Ni1019  1  0.20712817  0.76399717  0.34290444  1.0
  Ni  Ni1020  1  0.54046150  0.09733050  0.34290444  1.0
  Ni  Ni1021  1  0.54046150  0.43066383  0.34290444  1.0
  Ni  Ni1022  1  0.54046150  0.76399717  0.34290444  1.0
  Ni  Ni1023  1  0.87379483  0.09733050  0.34290444  1.0
  Ni  Ni1024  1  0.87379483  0.43066383  0.34290444  1.0
  Ni  Ni1025  1  0.87379483  0.76399717  0.34290444  1.0
  Ni  Ni1026  1  0.10143017  0.31933617  0.41690633  1.0
  Ni  Ni1027  1  0.10143017  0.65266950  0.41690633  1.0
  Ni  Ni1028  1  0.10143017  0.98600283  0.41690633  1.0
  Ni  Ni1029  1  0.43476350  0.31933617  0.41690633  1.0
  Ni  Ni1030  1  0.43476350  0.65266950  0.41690633  1.0
  Ni  Ni1031  1  0.43476350  0.98600283  0.41690633  1.0
  Ni  Ni1032  1  0.76809683  0.31933617  0.41690633  1.0
  Ni  Ni1033  1  0.76809683  0.65266950  0.41690633  1.0
  Ni  Ni1034  1  0.76809683  0.98600283  0.41690633  1.0
  Ni  Ni1035  1  0.26809683  0.15266950  0.36135078  1.0
  Ni  Ni1036  1  0.26809683  0.48600283  0.36135078  1.0
  Ni  Ni1037  1  0.26809683  0.81933617  0.36135078  1.0
  Ni  Ni1038  1  0.60143017  0.15266950  0.36135078  1.0
  Ni  Ni1039  1  0.60143017  0.48600283  0.36135078  1.0
  Ni  Ni1040  1  0.60143017  0.81933617  0.36135078  1.0
  Ni  Ni1041  1  0.93476350  0.15266950  0.36135078  1.0
  Ni  Ni1042  1  0.93476350  0.48600283  0.36135078  1.0
  Ni  Ni1043  1  0.93476350  0.81933617  0.36135078  1.0
  Ge  Ge1044  1  0.09023433  0.20833333  0.42260194  1.0
  Ge  Ge1045  1  0.09023433  0.54166667  0.42260194  1.0
  Ge  Ge1046  1  0.09023433  0.87500000  0.42260194  1.0
  Ge  Ge1047  1  0.42356767  0.20833333  0.42260194  1.0
  Ge  Ge1048  1  0.42356767  0.54166667  0.42260194  1.0
  Ge  Ge1049  1  0.42356767  0.87500000  0.42260194  1.0
  Ge  Ge1050  1  0.75690100  0.20833333  0.42260194  1.0
  Ge  Ge1051  1  0.75690100  0.54166667  0.42260194  1.0
  Ge  Ge1052  1  0.75690100  0.87500000  0.42260194  1.0
  Ge  Ge1053  1  0.25690100  0.04166667  0.36704639  1.0
  Ge  Ge1054  1  0.25690100  0.37500000  0.36704639  1.0
  Ge  Ge1055  1  0.25690100  0.70833333  0.36704639  1.0
  Ge  Ge1056  1  0.59023433  0.04166667  0.36704639  1.0
  Ge  Ge1057  1  0.59023433  0.37500000  0.36704639  1.0
  Ge  Ge1058  1  0.59023433  0.70833333  0.36704639  1.0
  Ge  Ge1059  1  0.92356767  0.04166667  0.36704639  1.0
  Ge  Ge1060  1  0.92356767  0.37500000  0.36704639  1.0
  Ge  Ge1061  1  0.92356767  0.70833333  0.36704639  1.0
  Ge  Ge1062  1  0.07643233  0.29166667  0.40402550  1.0
  Ge  Ge1063  1  0.07643233  0.62500000  0.40402550  1.0
  Ge  Ge1064  1  0.07643233  0.95833333  0.40402550  1.0
  Ge  Ge1065  1  0.40976567  0.29166667  0.40402550  1.0
  Ge  Ge1066  1  0.40976567  0.62500000  0.40402550  1.0
  Ge  Ge1067  1  0.40976567  0.95833333  0.40402550  1.0
  Ge  Ge1068  1  0.74309900  0.29166667  0.40402550  1.0
  Ge  Ge1069  1  0.74309900  0.62500000  0.40402550  1.0
  Ge  Ge1070  1  0.74309900  0.95833333  0.40402550  1.0
  Ge  Ge1071  1  0.24309900  0.12500000  0.34846994  1.0
  Ge  Ge1072  1  0.24309900  0.45833333  0.34846994  1.0
  Ge  Ge1073  1  0.24309900  0.79166667  0.34846994  1.0
  Ge  Ge1074  1  0.57643233  0.12500000  0.34846994  1.0
  Ge  Ge1075  1  0.57643233  0.45833333  0.34846994  1.0
  Ge  Ge1076  1  0.57643233  0.79166667  0.34846994  1.0
  Ge  Ge1077  1  0.90976567  0.12500000  0.34846994  1.0
  Ge  Ge1078  1  0.90976567  0.45833333  0.34846994  1.0
  Ge  Ge1079  1  0.90976567  0.79166667  0.34846994  1.0
  Ge  Ge1080  1  0.17067333  0.25777767  0.43056261  1.0
  Ge  Ge1081  1  0.17067333  0.59111100  0.43056261  1.0
  Ge  Ge1082  1  0.17067333  0.92444433  0.43056261  1.0
  Ge  Ge1083  1  0.50400667  0.25777767  0.43056261  1.0
  Ge  Ge1084  1  0.50400667  0.59111100  0.43056261  1.0
  Ge  Ge1085  1  0.50400667  0.92444433  0.43056261  1.0
  Ge  Ge1086  1  0.83734000  0.25777767  0.43056261  1.0
  Ge  Ge1087  1  0.83734000  0.59111100  0.43056261  1.0
  Ge  Ge1088  1  0.83734000  0.92444433  0.43056261  1.0
  Ge  Ge1089  1  0.00400667  0.09111100  0.37500706  1.0
  Ge  Ge1090  1  0.00400667  0.42444433  0.37500706  1.0
  Ge  Ge1091  1  0.00400667  0.75777767  0.37500706  1.0
  Ge  Ge1092  1  0.33734000  0.09111100  0.37500706  1.0
  Ge  Ge1093  1  0.33734000  0.42444433  0.37500706  1.0
  Ge  Ge1094  1  0.33734000  0.75777767  0.37500706  1.0
  Ge  Ge1095  1  0.67067333  0.09111100  0.37500706  1.0
  Ge  Ge1096  1  0.67067333  0.42444433  0.37500706  1.0
  Ge  Ge1097  1  0.67067333  0.75777767  0.37500706  1.0
  Ge  Ge1098  1  0.20202433  0.32555567  0.34204417  1.0
  Ge  Ge1099  1  0.20202433  0.65888900  0.34204417  1.0
  Ge  Ge1100  1  0.20202433  0.99222233  0.34204417  1.0
  Ge  Ge1101  1  0.53535767  0.32555567  0.34204417  1.0
  Ge  Ge1102  1  0.53535767  0.65888900  0.34204417  1.0
  Ge  Ge1103  1  0.53535767  0.99222233  0.34204417  1.0
  Ge  Ge1104  1  0.86869100  0.32555567  0.34204417  1.0
  Ge  Ge1105  1  0.86869100  0.65888900  0.34204417  1.0
  Ge  Ge1106  1  0.86869100  0.99222233  0.34204417  1.0
  Ge  Ge1107  1  0.03535767  0.15888900  0.39759972  1.0
  Ge  Ge1108  1  0.03535767  0.49222233  0.39759972  1.0
  Ge  Ge1109  1  0.03535767  0.82555567  0.39759972  1.0
  Ge  Ge1110  1  0.36869100  0.15888900  0.39759972  1.0
  Ge  Ge1111  1  0.36869100  0.49222233  0.39759972  1.0
  Ge  Ge1112  1  0.36869100  0.82555567  0.39759972  1.0
  Ge  Ge1113  1  0.70202433  0.15888900  0.39759972  1.0
  Ge  Ge1114  1  0.70202433  0.49222233  0.39759972  1.0
  Ge  Ge1115  1  0.70202433  0.82555567  0.39759972  1.0
  Ge  Ge1116  1  0.32932667  0.24222233  0.39606483  1.0
  Ge  Ge1117  1  0.32932667  0.57555567  0.39606483  1.0
  Ge  Ge1118  1  0.32932667  0.90888900  0.39606483  1.0
  Ge  Ge1119  1  0.66266000  0.24222233  0.39606483  1.0
  Ge  Ge1120  1  0.66266000  0.57555567  0.39606483  1.0
  Ge  Ge1121  1  0.66266000  0.90888900  0.39606483  1.0
  Ge  Ge1122  1  0.99599333  0.24222233  0.39606483  1.0
  Ge  Ge1123  1  0.99599333  0.57555567  0.39606483  1.0
  Ge  Ge1124  1  0.99599333  0.90888900  0.39606483  1.0
  Ge  Ge1125  1  0.16266000  0.07555567  0.34050928  1.0
  Ge  Ge1126  1  0.16266000  0.40888900  0.34050928  1.0
  Ge  Ge1127  1  0.16266000  0.74222233  0.34050928  1.0
  Ge  Ge1128  1  0.49599333  0.07555567  0.34050928  1.0
  Ge  Ge1129  1  0.49599333  0.40888900  0.34050928  1.0
  Ge  Ge1130  1  0.49599333  0.74222233  0.34050928  1.0
  Ge  Ge1131  1  0.82932667  0.07555567  0.34050928  1.0
  Ge  Ge1132  1  0.82932667  0.40888900  0.34050928  1.0
  Ge  Ge1133  1  0.82932667  0.74222233  0.34050928  1.0
  Ge  Ge1134  1  0.29797567  0.17444433  0.37347217  1.0
  Ge  Ge1135  1  0.29797567  0.50777767  0.37347217  1.0
  Ge  Ge1136  1  0.29797567  0.84111100  0.37347217  1.0
  Ge  Ge1137  1  0.63130900  0.17444433  0.37347217  1.0
  Ge  Ge1138  1  0.63130900  0.50777767  0.37347217  1.0
  Ge  Ge1139  1  0.63130900  0.84111100  0.37347217  1.0
  Ge  Ge1140  1  0.96464233  0.17444433  0.37347217  1.0
  Ge  Ge1141  1  0.96464233  0.50777767  0.37347217  1.0
  Ge  Ge1142  1  0.96464233  0.84111100  0.37347217  1.0
  Ge  Ge1143  1  0.13130900  0.00777767  0.42902772  1.0
  Ge  Ge1144  1  0.13130900  0.34111100  0.42902772  1.0
  Ge  Ge1145  1  0.13130900  0.67444433  0.42902772  1.0
  Ge  Ge1146  1  0.46464233  0.00777767  0.42902772  1.0
  Ge  Ge1147  1  0.46464233  0.34111100  0.42902772  1.0
  Ge  Ge1148  1  0.46464233  0.67444433  0.42902772  1.0
  Ge  Ge1149  1  0.79797567  0.00777767  0.42902772  1.0
  Ge  Ge1150  1  0.79797567  0.34111100  0.42902772  1.0
  Ge  Ge1151  1  0.79797567  0.67444433  0.42902772  1.0
