# generated using pymatgen
data_Ni5Ge2
_symmetry_space_group_name_H-M   'P 1'
_cell_length_a   53.95919764
_cell_length_b   42.55513009
_cell_length_c   47.58753930
_cell_angle_alpha   118.63660406
_cell_angle_beta   139.10660535
_cell_angle_gamma   68.75965584
_symmetry_Int_Tables_number   1
_chemical_formula_structural   Ni5Ge2
_chemical_formula_sum   'Ni1620 Ge648'
_cell_volume   62785.15467386
_cell_formula_units_Z   324
loop_
 _symmetry_equiv_pos_site_id
 _symmetry_equiv_pos_as_xyz
  1  'x, y, z'
loop_
 _atom_site_type_symbol
 _atom_site_label
 _atom_site_symmetry_multiplicity
 _atom_site_fract_x
 _atom_site_fract_y
 _atom_site_fract_z
 _atom_site_occupancy
  Ni  Ni0  1  0.00000000  0.02387867  0.00626351  1.0
  Ni  Ni1  1  0.00000000  0.35721200  0.00626351  1.0
  Ni  Ni2  1  0.00000000  0.69054533  0.00626351  1.0
  Ni  Ni3  1  0.33333333  0.02387867  0.00626351  1.0
  Ni  Ni4  1  0.33333333  0.35721200  0.00626351  1.0
  Ni  Ni5  1  0.33333333  0.69054533  0.00626351  1.0
  Ni  Ni6  1  0.66666667  0.02387867  0.00626351  1.0
  Ni  Ni7  1  0.66666667  0.35721200  0.00626351  1.0
  Ni  Ni8  1  0.66666667  0.69054533  0.00626351  1.0
  Ni  Ni9  1  0.16666667  0.02387867  0.07769208  1.0
  Ni  Ni10  1  0.16666667  0.35721200  0.07769208  1.0
  Ni  Ni11  1  0.16666667  0.69054533  0.07769208  1.0
  Ni  Ni12  1  0.50000000  0.02387867  0.07769208  1.0
  Ni  Ni13  1  0.50000000  0.35721200  0.07769208  1.0
  Ni  Ni14  1  0.50000000  0.69054533  0.07769208  1.0
  Ni  Ni15  1  0.83333333  0.02387867  0.07769208  1.0
  Ni  Ni16  1  0.83333333  0.35721200  0.07769208  1.0
  Ni  Ni17  1  0.83333333  0.69054533  0.07769208  1.0
  Ni  Ni18  1  0.00000000  0.19054533  0.07769208  1.0
  Ni  Ni19  1  0.00000000  0.52387867  0.07769208  1.0
  Ni  Ni20  1  0.00000000  0.85721200  0.07769208  1.0
  Ni  Ni21  1  0.33333333  0.19054533  0.07769208  1.0
  Ni  Ni22  1  0.33333333  0.52387867  0.07769208  1.0
  Ni  Ni23  1  0.33333333  0.85721200  0.07769208  1.0
  Ni  Ni24  1  0.66666667  0.19054533  0.07769208  1.0
  Ni  Ni25  1  0.66666667  0.52387867  0.07769208  1.0
  Ni  Ni26  1  0.66666667  0.85721200  0.07769208  1.0
  Ni  Ni27  1  0.16666667  0.19054533  0.00626351  1.0
  Ni  Ni28  1  0.16666667  0.52387867  0.00626351  1.0
  Ni  Ni29  1  0.16666667  0.85721200  0.00626351  1.0
  Ni  Ni30  1  0.50000000  0.19054533  0.00626351  1.0
  Ni  Ni31  1  0.50000000  0.52387867  0.00626351  1.0
  Ni  Ni32  1  0.50000000  0.85721200  0.00626351  1.0
  Ni  Ni33  1  0.83333333  0.19054533  0.00626351  1.0
  Ni  Ni34  1  0.83333333  0.52387867  0.00626351  1.0
  Ni  Ni35  1  0.83333333  0.85721200  0.00626351  1.0
  Ni  Ni36  1  0.11111111  0.30908700  0.08087661  1.0
  Ni  Ni37  1  0.11111111  0.64242033  0.08087661  1.0
  Ni  Ni38  1  0.11111111  0.97575367  0.08087661  1.0
  Ni  Ni39  1  0.44444444  0.30908700  0.08087661  1.0
  Ni  Ni40  1  0.44444444  0.64242033  0.08087661  1.0
  Ni  Ni41  1  0.44444444  0.97575367  0.08087661  1.0
  Ni  Ni42  1  0.77777778  0.30908700  0.08087661  1.0
  Ni  Ni43  1  0.77777778  0.64242033  0.08087661  1.0
  Ni  Ni44  1  0.77777778  0.97575367  0.08087661  1.0
  Ni  Ni45  1  0.27777778  0.30908700  0.00944804  1.0
  Ni  Ni46  1  0.27777778  0.64242033  0.00944804  1.0
  Ni  Ni47  1  0.27777778  0.97575367  0.00944804  1.0
  Ni  Ni48  1  0.61111111  0.30908700  0.00944804  1.0
  Ni  Ni49  1  0.61111111  0.64242033  0.00944804  1.0
  Ni  Ni50  1  0.61111111  0.97575367  0.00944804  1.0
  Ni  Ni51  1  0.94444444  0.30908700  0.00944804  1.0
  Ni  Ni52  1  0.94444444  0.64242033  0.00944804  1.0
  Ni  Ni53  1  0.94444444  0.97575367  0.00944804  1.0
  Ni  Ni54  1  0.05555556  0.30908700  0.10468613  1.0
  Ni  Ni55  1  0.05555556  0.64242033  0.10468613  1.0
  Ni  Ni56  1  0.05555556  0.97575367  0.10468613  1.0
  Ni  Ni57  1  0.38888889  0.30908700  0.10468613  1.0
  Ni  Ni58  1  0.38888889  0.64242033  0.10468613  1.0
  Ni  Ni59  1  0.38888889  0.97575367  0.10468613  1.0
  Ni  Ni60  1  0.72222222  0.30908700  0.10468613  1.0
  Ni  Ni61  1  0.72222222  0.64242033  0.10468613  1.0
  Ni  Ni62  1  0.72222222  0.97575367  0.10468613  1.0
  Ni  Ni63  1  0.22222222  0.30908700  0.03325756  1.0
  Ni  Ni64  1  0.22222222  0.64242033  0.03325756  1.0
  Ni  Ni65  1  0.22222222  0.97575367  0.03325756  1.0
  Ni  Ni66  1  0.55555556  0.30908700  0.03325756  1.0
  Ni  Ni67  1  0.55555556  0.64242033  0.03325756  1.0
  Ni  Ni68  1  0.55555556  0.97575367  0.03325756  1.0
  Ni  Ni69  1  0.88888889  0.30908700  0.03325756  1.0
  Ni  Ni70  1  0.88888889  0.64242033  0.03325756  1.0
  Ni  Ni71  1  0.88888889  0.97575367  0.03325756  1.0
  Ni  Ni72  1  0.05555556  0.14242033  0.03325756  1.0
  Ni  Ni73  1  0.05555556  0.47575367  0.03325756  1.0
  Ni  Ni74  1  0.05555556  0.80908700  0.03325756  1.0
  Ni  Ni75  1  0.38888889  0.14242033  0.03325756  1.0
  Ni  Ni76  1  0.38888889  0.47575367  0.03325756  1.0
  Ni  Ni77  1  0.38888889  0.80908700  0.03325756  1.0
  Ni  Ni78  1  0.72222222  0.14242033  0.03325756  1.0
  Ni  Ni79  1  0.72222222  0.47575367  0.03325756  1.0
  Ni  Ni80  1  0.72222222  0.80908700  0.03325756  1.0
  Ni  Ni81  1  0.22222222  0.14242033  0.10468613  1.0
  Ni  Ni82  1  0.22222222  0.47575367  0.10468613  1.0
  Ni  Ni83  1  0.22222222  0.80908700  0.10468613  1.0
  Ni  Ni84  1  0.55555556  0.14242033  0.10468613  1.0
  Ni  Ni85  1  0.55555556  0.47575367  0.10468613  1.0
  Ni  Ni86  1  0.55555556  0.80908700  0.10468613  1.0
  Ni  Ni87  1  0.88888889  0.14242033  0.10468613  1.0
  Ni  Ni88  1  0.88888889  0.47575367  0.10468613  1.0
  Ni  Ni89  1  0.88888889  0.80908700  0.10468613  1.0
  Ni  Ni90  1  0.11111111  0.14242033  0.00944804  1.0
  Ni  Ni91  1  0.11111111  0.47575367  0.00944804  1.0
  Ni  Ni92  1  0.11111111  0.80908700  0.00944804  1.0
  Ni  Ni93  1  0.44444444  0.14242033  0.00944804  1.0
  Ni  Ni94  1  0.44444444  0.47575367  0.00944804  1.0
  Ni  Ni95  1  0.44444444  0.80908700  0.00944804  1.0
  Ni  Ni96  1  0.77777778  0.14242033  0.00944804  1.0
  Ni  Ni97  1  0.77777778  0.47575367  0.00944804  1.0
  Ni  Ni98  1  0.77777778  0.80908700  0.00944804  1.0
  Ni  Ni99  1  0.27777778  0.14242033  0.08087661  1.0
  Ni  Ni100  1  0.27777778  0.47575367  0.08087661  1.0
  Ni  Ni101  1  0.27777778  0.80908700  0.08087661  1.0
  Ni  Ni102  1  0.61111111  0.14242033  0.08087661  1.0
  Ni  Ni103  1  0.61111111  0.47575367  0.08087661  1.0
  Ni  Ni104  1  0.61111111  0.80908700  0.08087661  1.0
  Ni  Ni105  1  0.94444444  0.14242033  0.08087661  1.0
  Ni  Ni106  1  0.94444444  0.47575367  0.08087661  1.0
  Ni  Ni107  1  0.94444444  0.80908700  0.08087661  1.0
  Ni  Ni108  1  0.04413200  0.30111100  0.00113394  1.0
  Ni  Ni109  1  0.04413200  0.63444433  0.00113394  1.0
  Ni  Ni110  1  0.04413200  0.96777767  0.00113394  1.0
  Ni  Ni111  1  0.37746533  0.30111100  0.00113394  1.0
  Ni  Ni112  1  0.37746533  0.63444433  0.00113394  1.0
  Ni  Ni113  1  0.37746533  0.96777767  0.00113394  1.0
  Ni  Ni114  1  0.71079867  0.30111100  0.00113394  1.0
  Ni  Ni115  1  0.71079867  0.63444433  0.00113394  1.0
  Ni  Ni116  1  0.71079867  0.96777767  0.00113394  1.0
  Ni  Ni117  1  0.21079867  0.30111100  0.07256251  1.0
  Ni  Ni118  1  0.21079867  0.63444433  0.07256251  1.0
  Ni  Ni119  1  0.21079867  0.96777767  0.07256251  1.0
  Ni  Ni120  1  0.54413200  0.30111100  0.07256251  1.0
  Ni  Ni121  1  0.54413200  0.63444433  0.07256251  1.0
  Ni  Ni122  1  0.54413200  0.96777767  0.07256251  1.0
  Ni  Ni123  1  0.87746533  0.30111100  0.07256251  1.0
  Ni  Ni124  1  0.87746533  0.63444433  0.07256251  1.0
  Ni  Ni125  1  0.87746533  0.96777767  0.07256251  1.0
  Ni  Ni126  1  0.00000000  0.30111100  0.02004765  1.0
  Ni  Ni127  1  0.00000000  0.63444433  0.02004765  1.0
  Ni  Ni128  1  0.00000000  0.96777767  0.02004765  1.0
  Ni  Ni129  1  0.33333333  0.30111100  0.02004765  1.0
  Ni  Ni130  1  0.33333333  0.63444433  0.02004765  1.0
  Ni  Ni131  1  0.33333333  0.96777767  0.02004765  1.0
  Ni  Ni132  1  0.66666667  0.30111100  0.02004765  1.0
  Ni  Ni133  1  0.66666667  0.63444433  0.02004765  1.0
  Ni  Ni134  1  0.66666667  0.96777767  0.02004765  1.0
  Ni  Ni135  1  0.16666667  0.30111100  0.09147623  1.0
  Ni  Ni136  1  0.16666667  0.63444433  0.09147623  1.0
  Ni  Ni137  1  0.16666667  0.96777767  0.09147623  1.0
  Ni  Ni138  1  0.50000000  0.30111100  0.09147623  1.0
  Ni  Ni139  1  0.50000000  0.63444433  0.09147623  1.0
  Ni  Ni140  1  0.50000000  0.96777767  0.09147623  1.0
  Ni  Ni141  1  0.83333333  0.30111100  0.09147623  1.0
  Ni  Ni142  1  0.83333333  0.63444433  0.09147623  1.0
  Ni  Ni143  1  0.83333333  0.96777767  0.09147623  1.0
  Ni  Ni144  1  0.12253467  0.30111100  0.13976480  1.0
  Ni  Ni145  1  0.12253467  0.63444433  0.13976480  1.0
  Ni  Ni146  1  0.12253467  0.96777767  0.13976480  1.0
  Ni  Ni147  1  0.45586800  0.30111100  0.13976480  1.0
  Ni  Ni148  1  0.45586800  0.63444433  0.13976480  1.0
  Ni  Ni149  1  0.45586800  0.96777767  0.13976480  1.0
  Ni  Ni150  1  0.78920133  0.30111100  0.13976480  1.0
  Ni  Ni151  1  0.78920133  0.63444433  0.13976480  1.0
  Ni  Ni152  1  0.78920133  0.96777767  0.13976480  1.0
  Ni  Ni153  1  0.28920133  0.30111100  0.06833623  1.0
  Ni  Ni154  1  0.28920133  0.63444433  0.06833623  1.0
  Ni  Ni155  1  0.28920133  0.96777767  0.06833623  1.0
  Ni  Ni156  1  0.62253467  0.30111100  0.06833623  1.0
  Ni  Ni157  1  0.62253467  0.63444433  0.06833623  1.0
  Ni  Ni158  1  0.62253467  0.96777767  0.06833623  1.0
  Ni  Ni159  1  0.95586800  0.30111100  0.06833623  1.0
  Ni  Ni160  1  0.95586800  0.63444433  0.06833623  1.0
  Ni  Ni161  1  0.95586800  0.96777767  0.06833623  1.0
  Ni  Ni162  1  0.12253467  0.13444433  0.10616365  1.0
  Ni  Ni163  1  0.12253467  0.46777767  0.10616365  1.0
  Ni  Ni164  1  0.12253467  0.80111100  0.10616365  1.0
  Ni  Ni165  1  0.45586800  0.13444433  0.10616365  1.0
  Ni  Ni166  1  0.45586800  0.46777767  0.10616365  1.0
  Ni  Ni167  1  0.45586800  0.80111100  0.10616365  1.0
  Ni  Ni168  1  0.78920133  0.13444433  0.10616365  1.0
  Ni  Ni169  1  0.78920133  0.46777767  0.10616365  1.0
  Ni  Ni170  1  0.78920133  0.80111100  0.10616365  1.0
  Ni  Ni171  1  0.28920133  0.13444433  0.03473508  1.0
  Ni  Ni172  1  0.28920133  0.46777767  0.03473508  1.0
  Ni  Ni173  1  0.28920133  0.80111100  0.03473508  1.0
  Ni  Ni174  1  0.62253467  0.13444433  0.03473508  1.0
  Ni  Ni175  1  0.62253467  0.46777767  0.03473508  1.0
  Ni  Ni176  1  0.62253467  0.80111100  0.03473508  1.0
  Ni  Ni177  1  0.95586800  0.13444433  0.03473508  1.0
  Ni  Ni178  1  0.95586800  0.46777767  0.03473508  1.0
  Ni  Ni179  1  0.95586800  0.80111100  0.03473508  1.0
  Ni  Ni180  1  0.00000000  0.13444433  0.01582137  1.0
  Ni  Ni181  1  0.00000000  0.46777767  0.01582137  1.0
  Ni  Ni182  1  0.00000000  0.80111100  0.01582137  1.0
  Ni  Ni183  1  0.33333333  0.13444433  0.01582137  1.0
  Ni  Ni184  1  0.33333333  0.46777767  0.01582137  1.0
  Ni  Ni185  1  0.33333333  0.80111100  0.01582137  1.0
  Ni  Ni186  1  0.66666667  0.13444433  0.01582137  1.0
  Ni  Ni187  1  0.66666667  0.46777767  0.01582137  1.0
  Ni  Ni188  1  0.66666667  0.80111100  0.01582137  1.0
  Ni  Ni189  1  0.16666667  0.13444433  0.08724994  1.0
  Ni  Ni190  1  0.16666667  0.46777767  0.08724994  1.0
  Ni  Ni191  1  0.16666667  0.80111100  0.08724994  1.0
  Ni  Ni192  1  0.50000000  0.13444433  0.08724994  1.0
  Ni  Ni193  1  0.50000000  0.46777767  0.08724994  1.0
  Ni  Ni194  1  0.50000000  0.80111100  0.08724994  1.0
  Ni  Ni195  1  0.83333333  0.13444433  0.08724994  1.0
  Ni  Ni196  1  0.83333333  0.46777767  0.08724994  1.0
  Ni  Ni197  1  0.83333333  0.80111100  0.08724994  1.0
  Ni  Ni198  1  0.04413200  0.13444433  0.11038994  1.0
  Ni  Ni199  1  0.04413200  0.46777767  0.11038994  1.0
  Ni  Ni200  1  0.04413200  0.80111100  0.11038994  1.0
  Ni  Ni201  1  0.37746533  0.13444433  0.11038994  1.0
  Ni  Ni202  1  0.37746533  0.46777767  0.11038994  1.0
  Ni  Ni203  1  0.37746533  0.80111100  0.11038994  1.0
  Ni  Ni204  1  0.71079867  0.13444433  0.11038994  1.0
  Ni  Ni205  1  0.71079867  0.46777767  0.11038994  1.0
  Ni  Ni206  1  0.71079867  0.80111100  0.11038994  1.0
  Ni  Ni207  1  0.21079867  0.13444433  0.03896137  1.0
  Ni  Ni208  1  0.21079867  0.46777767  0.03896137  1.0
  Ni  Ni209  1  0.21079867  0.80111100  0.03896137  1.0
  Ni  Ni210  1  0.54413200  0.13444433  0.03896137  1.0
  Ni  Ni211  1  0.54413200  0.46777767  0.03896137  1.0
  Ni  Ni212  1  0.54413200  0.80111100  0.03896137  1.0
  Ni  Ni213  1  0.87746533  0.13444433  0.03896137  1.0
  Ni  Ni214  1  0.87746533  0.46777767  0.03896137  1.0
  Ni  Ni215  1  0.87746533  0.80111100  0.03896137  1.0
  Ni  Ni216  1  0.10437267  0.26917767  0.01326565  1.0
  Ni  Ni217  1  0.10437267  0.60251100  0.01326565  1.0
  Ni  Ni218  1  0.10437267  0.93584433  0.01326565  1.0
  Ni  Ni219  1  0.43770600  0.26917767  0.01326565  1.0
  Ni  Ni220  1  0.43770600  0.60251100  0.01326565  1.0
  Ni  Ni221  1  0.43770600  0.93584433  0.01326565  1.0
  Ni  Ni222  1  0.77103933  0.26917767  0.01326565  1.0
  Ni  Ni223  1  0.77103933  0.60251100  0.01326565  1.0
  Ni  Ni224  1  0.77103933  0.93584433  0.01326565  1.0
  Ni  Ni225  1  0.27103933  0.26917767  0.08469423  1.0
  Ni  Ni226  1  0.27103933  0.60251100  0.08469423  1.0
  Ni  Ni227  1  0.27103933  0.93584433  0.08469423  1.0
  Ni  Ni228  1  0.60437267  0.26917767  0.08469423  1.0
  Ni  Ni229  1  0.60437267  0.60251100  0.08469423  1.0
  Ni  Ni230  1  0.60437267  0.93584433  0.08469423  1.0
  Ni  Ni231  1  0.93770600  0.26917767  0.08469423  1.0
  Ni  Ni232  1  0.93770600  0.60251100  0.08469423  1.0
  Ni  Ni233  1  0.93770600  0.93584433  0.08469423  1.0
  Ni  Ni234  1  0.00000000  0.26917767  0.05799680  1.0
  Ni  Ni235  1  0.00000000  0.60251100  0.05799680  1.0
  Ni  Ni236  1  0.00000000  0.93584433  0.05799680  1.0
  Ni  Ni237  1  0.33333333  0.26917767  0.05799680  1.0
  Ni  Ni238  1  0.33333333  0.60251100  0.05799680  1.0
  Ni  Ni239  1  0.33333333  0.93584433  0.05799680  1.0
  Ni  Ni240  1  0.66666667  0.26917767  0.05799680  1.0
  Ni  Ni241  1  0.66666667  0.60251100  0.05799680  1.0
  Ni  Ni242  1  0.66666667  0.93584433  0.05799680  1.0
  Ni  Ni243  1  0.16666667  0.26917767  0.12942537  1.0
  Ni  Ni244  1  0.16666667  0.60251100  0.12942537  1.0
  Ni  Ni245  1  0.16666667  0.93584433  0.12942537  1.0
  Ni  Ni246  1  0.50000000  0.26917767  0.12942537  1.0
  Ni  Ni247  1  0.50000000  0.60251100  0.12942537  1.0
  Ni  Ni248  1  0.50000000  0.93584433  0.12942537  1.0
  Ni  Ni249  1  0.83333333  0.26917767  0.12942537  1.0
  Ni  Ni250  1  0.83333333  0.60251100  0.12942537  1.0
  Ni  Ni251  1  0.83333333  0.93584433  0.12942537  1.0
  Ni  Ni252  1  0.06229400  0.26917767  0.04862680  1.0
  Ni  Ni253  1  0.06229400  0.60251100  0.04862680  1.0
  Ni  Ni254  1  0.06229400  0.93584433  0.04862680  1.0
  Ni  Ni255  1  0.39562733  0.26917767  0.04862680  1.0
  Ni  Ni256  1  0.39562733  0.60251100  0.04862680  1.0
  Ni  Ni257  1  0.39562733  0.93584433  0.04862680  1.0
  Ni  Ni258  1  0.72896067  0.26917767  0.04862680  1.0
  Ni  Ni259  1  0.72896067  0.60251100  0.04862680  1.0
  Ni  Ni260  1  0.72896067  0.93584433  0.04862680  1.0
  Ni  Ni261  1  0.22896067  0.26917767  0.12005537  1.0
  Ni  Ni262  1  0.22896067  0.60251100  0.12005537  1.0
  Ni  Ni263  1  0.22896067  0.93584433  0.12005537  1.0
  Ni  Ni264  1  0.56229400  0.26917767  0.12005537  1.0
  Ni  Ni265  1  0.56229400  0.60251100  0.12005537  1.0
  Ni  Ni266  1  0.56229400  0.93584433  0.12005537  1.0
  Ni  Ni267  1  0.89562733  0.26917767  0.12005537  1.0
  Ni  Ni268  1  0.89562733  0.60251100  0.12005537  1.0
  Ni  Ni269  1  0.89562733  0.93584433  0.12005537  1.0
  Ni  Ni270  1  0.06229400  0.10251100  0.06666051  1.0
  Ni  Ni271  1  0.06229400  0.43584433  0.06666051  1.0
  Ni  Ni272  1  0.06229400  0.76917767  0.06666051  1.0
  Ni  Ni273  1  0.39562733  0.10251100  0.06666051  1.0
  Ni  Ni274  1  0.39562733  0.43584433  0.06666051  1.0
  Ni  Ni275  1  0.39562733  0.76917767  0.06666051  1.0
  Ni  Ni276  1  0.72896067  0.10251100  0.06666051  1.0
  Ni  Ni277  1  0.72896067  0.43584433  0.06666051  1.0
  Ni  Ni278  1  0.72896067  0.76917767  0.06666051  1.0
  Ni  Ni279  1  0.22896067  0.10251100  0.13808908  1.0
  Ni  Ni280  1  0.22896067  0.43584433  0.13808908  1.0
  Ni  Ni281  1  0.22896067  0.76917767  0.13808908  1.0
  Ni  Ni282  1  0.56229400  0.10251100  0.13808908  1.0
  Ni  Ni283  1  0.56229400  0.43584433  0.13808908  1.0
  Ni  Ni284  1  0.56229400  0.76917767  0.13808908  1.0
  Ni  Ni285  1  0.89562733  0.10251100  0.13808908  1.0
  Ni  Ni286  1  0.89562733  0.43584433  0.13808908  1.0
  Ni  Ni287  1  0.89562733  0.76917767  0.13808908  1.0
  Ni  Ni288  1  0.00000000  0.10251100  0.09335794  1.0
  Ni  Ni289  1  0.00000000  0.43584433  0.09335794  1.0
  Ni  Ni290  1  0.00000000  0.76917767  0.09335794  1.0
  Ni  Ni291  1  0.33333333  0.10251100  0.09335794  1.0
  Ni  Ni292  1  0.33333333  0.43584433  0.09335794  1.0
  Ni  Ni293  1  0.33333333  0.76917767  0.09335794  1.0
  Ni  Ni294  1  0.66666667  0.10251100  0.09335794  1.0
  Ni  Ni295  1  0.66666667  0.43584433  0.09335794  1.0
  Ni  Ni296  1  0.66666667  0.76917767  0.09335794  1.0
  Ni  Ni297  1  0.16666667  0.10251100  0.02192937  1.0
  Ni  Ni298  1  0.16666667  0.43584433  0.02192937  1.0
  Ni  Ni299  1  0.16666667  0.76917767  0.02192937  1.0
  Ni  Ni300  1  0.50000000  0.10251100  0.02192937  1.0
  Ni  Ni301  1  0.50000000  0.43584433  0.02192937  1.0
  Ni  Ni302  1  0.50000000  0.76917767  0.02192937  1.0
  Ni  Ni303  1  0.83333333  0.10251100  0.02192937  1.0
  Ni  Ni304  1  0.83333333  0.43584433  0.02192937  1.0
  Ni  Ni305  1  0.83333333  0.76917767  0.02192937  1.0
  Ni  Ni306  1  0.10437267  0.10251100  0.03129937  1.0
  Ni  Ni307  1  0.10437267  0.43584433  0.03129937  1.0
  Ni  Ni308  1  0.10437267  0.76917767  0.03129937  1.0
  Ni  Ni309  1  0.43770600  0.10251100  0.03129937  1.0
  Ni  Ni310  1  0.43770600  0.43584433  0.03129937  1.0
  Ni  Ni311  1  0.43770600  0.76917767  0.03129937  1.0
  Ni  Ni312  1  0.77103933  0.10251100  0.03129937  1.0
  Ni  Ni313  1  0.77103933  0.43584433  0.03129937  1.0
  Ni  Ni314  1  0.77103933  0.76917767  0.03129937  1.0
  Ni  Ni315  1  0.27103933  0.10251100  0.10272794  1.0
  Ni  Ni316  1  0.27103933  0.43584433  0.10272794  1.0
  Ni  Ni317  1  0.27103933  0.76917767  0.10272794  1.0
  Ni  Ni318  1  0.60437267  0.10251100  0.10272794  1.0
  Ni  Ni319  1  0.60437267  0.43584433  0.10272794  1.0
  Ni  Ni320  1  0.60437267  0.76917767  0.10272794  1.0
  Ni  Ni321  1  0.93770600  0.10251100  0.10272794  1.0
  Ni  Ni322  1  0.93770600  0.43584433  0.10272794  1.0
  Ni  Ni323  1  0.93770600  0.76917767  0.10272794  1.0
  Ni  Ni324  1  0.05137817  0.23191367  0.11744058  1.0
  Ni  Ni325  1  0.05137817  0.56524700  0.11744058  1.0
  Ni  Ni326  1  0.05137817  0.89858033  0.11744058  1.0
  Ni  Ni327  1  0.38471150  0.23191367  0.11744058  1.0
  Ni  Ni328  1  0.38471150  0.56524700  0.11744058  1.0
  Ni  Ni329  1  0.38471150  0.89858033  0.11744058  1.0
  Ni  Ni330  1  0.71804483  0.23191367  0.11744058  1.0
  Ni  Ni331  1  0.71804483  0.56524700  0.11744058  1.0
  Ni  Ni332  1  0.71804483  0.89858033  0.11744058  1.0
  Ni  Ni333  1  0.21804483  0.23191367  0.04601201  1.0
  Ni  Ni334  1  0.21804483  0.56524700  0.04601201  1.0
  Ni  Ni335  1  0.21804483  0.89858033  0.04601201  1.0
  Ni  Ni336  1  0.55137817  0.23191367  0.04601201  1.0
  Ni  Ni337  1  0.55137817  0.56524700  0.04601201  1.0
  Ni  Ni338  1  0.55137817  0.89858033  0.04601201  1.0
  Ni  Ni339  1  0.88471150  0.23191367  0.04601201  1.0
  Ni  Ni340  1  0.88471150  0.56524700  0.04601201  1.0
  Ni  Ni341  1  0.88471150  0.89858033  0.04601201  1.0
  Ni  Ni342  1  0.00000000  0.23191367  0.13945980  1.0
  Ni  Ni343  1  0.00000000  0.56524700  0.13945980  1.0
  Ni  Ni344  1  0.00000000  0.89858033  0.13945980  1.0
  Ni  Ni345  1  0.33333333  0.23191367  0.13945980  1.0
  Ni  Ni346  1  0.33333333  0.56524700  0.13945980  1.0
  Ni  Ni347  1  0.33333333  0.89858033  0.13945980  1.0
  Ni  Ni348  1  0.66666667  0.23191367  0.13945980  1.0
  Ni  Ni349  1  0.66666667  0.56524700  0.13945980  1.0
  Ni  Ni350  1  0.66666667  0.89858033  0.13945980  1.0
  Ni  Ni351  1  0.16666667  0.23191367  0.06803123  1.0
  Ni  Ni352  1  0.16666667  0.56524700  0.06803123  1.0
  Ni  Ni353  1  0.16666667  0.89858033  0.06803123  1.0
  Ni  Ni354  1  0.50000000  0.23191367  0.06803123  1.0
  Ni  Ni355  1  0.50000000  0.56524700  0.06803123  1.0
  Ni  Ni356  1  0.50000000  0.89858033  0.06803123  1.0
  Ni  Ni357  1  0.83333333  0.23191367  0.06803123  1.0
  Ni  Ni358  1  0.83333333  0.56524700  0.06803123  1.0
  Ni  Ni359  1  0.83333333  0.89858033  0.06803123  1.0
  Ni  Ni360  1  0.11528850  0.23191367  0.10079230  1.0
  Ni  Ni361  1  0.11528850  0.56524700  0.10079230  1.0
  Ni  Ni362  1  0.11528850  0.89858033  0.10079230  1.0
  Ni  Ni363  1  0.44862183  0.23191367  0.10079230  1.0
  Ni  Ni364  1  0.44862183  0.56524700  0.10079230  1.0
  Ni  Ni365  1  0.44862183  0.89858033  0.10079230  1.0
  Ni  Ni366  1  0.78195517  0.23191367  0.10079230  1.0
  Ni  Ni367  1  0.78195517  0.56524700  0.10079230  1.0
  Ni  Ni368  1  0.78195517  0.89858033  0.10079230  1.0
  Ni  Ni369  1  0.28195517  0.23191367  0.02936373  1.0
  Ni  Ni370  1  0.28195517  0.56524700  0.02936373  1.0
  Ni  Ni371  1  0.28195517  0.89858033  0.02936373  1.0
  Ni  Ni372  1  0.61528850  0.23191367  0.02936373  1.0
  Ni  Ni373  1  0.61528850  0.56524700  0.02936373  1.0
  Ni  Ni374  1  0.61528850  0.89858033  0.02936373  1.0
  Ni  Ni375  1  0.94862183  0.23191367  0.02936373  1.0
  Ni  Ni376  1  0.94862183  0.56524700  0.02936373  1.0
  Ni  Ni377  1  0.94862183  0.89858033  0.02936373  1.0
  Ni  Ni378  1  0.11528850  0.06524700  0.07340215  1.0
  Ni  Ni379  1  0.11528850  0.39858033  0.07340215  1.0
  Ni  Ni380  1  0.11528850  0.73191367  0.07340215  1.0
  Ni  Ni381  1  0.44862183  0.06524700  0.07340215  1.0
  Ni  Ni382  1  0.44862183  0.39858033  0.07340215  1.0
  Ni  Ni383  1  0.44862183  0.73191367  0.07340215  1.0
  Ni  Ni384  1  0.78195517  0.06524700  0.07340215  1.0
  Ni  Ni385  1  0.78195517  0.39858033  0.07340215  1.0
  Ni  Ni386  1  0.78195517  0.73191367  0.07340215  1.0
  Ni  Ni387  1  0.28195517  0.06524700  0.00197358  1.0
  Ni  Ni388  1  0.28195517  0.39858033  0.00197358  1.0
  Ni  Ni389  1  0.28195517  0.73191367  0.00197358  1.0
  Ni  Ni390  1  0.61528850  0.06524700  0.00197358  1.0
  Ni  Ni391  1  0.61528850  0.39858033  0.00197358  1.0
  Ni  Ni392  1  0.61528850  0.73191367  0.00197358  1.0
  Ni  Ni393  1  0.94862183  0.06524700  0.00197358  1.0
  Ni  Ni394  1  0.94862183  0.39858033  0.00197358  1.0
  Ni  Ni395  1  0.94862183  0.73191367  0.00197358  1.0
  Ni  Ni396  1  0.00000000  0.06524700  0.12281151  1.0
  Ni  Ni397  1  0.00000000  0.39858033  0.12281151  1.0
  Ni  Ni398  1  0.00000000  0.73191367  0.12281151  1.0
  Ni  Ni399  1  0.33333333  0.06524700  0.12281151  1.0
  Ni  Ni400  1  0.33333333  0.39858033  0.12281151  1.0
  Ni  Ni401  1  0.33333333  0.73191367  0.12281151  1.0
  Ni  Ni402  1  0.66666667  0.06524700  0.12281151  1.0
  Ni  Ni403  1  0.66666667  0.39858033  0.12281151  1.0
  Ni  Ni404  1  0.66666667  0.73191367  0.12281151  1.0
  Ni  Ni405  1  0.16666667  0.06524700  0.05138294  1.0
  Ni  Ni406  1  0.16666667  0.39858033  0.05138294  1.0
  Ni  Ni407  1  0.16666667  0.73191367  0.05138294  1.0
  Ni  Ni408  1  0.50000000  0.06524700  0.05138294  1.0
  Ni  Ni409  1  0.50000000  0.39858033  0.05138294  1.0
  Ni  Ni410  1  0.50000000  0.73191367  0.05138294  1.0
  Ni  Ni411  1  0.83333333  0.06524700  0.05138294  1.0
  Ni  Ni412  1  0.83333333  0.39858033  0.05138294  1.0
  Ni  Ni413  1  0.83333333  0.73191367  0.05138294  1.0
  Ni  Ni414  1  0.05137817  0.06524700  0.09005044  1.0
  Ni  Ni415  1  0.05137817  0.39858033  0.09005044  1.0
  Ni  Ni416  1  0.05137817  0.73191367  0.09005044  1.0
  Ni  Ni417  1  0.38471150  0.06524700  0.09005044  1.0
  Ni  Ni418  1  0.38471150  0.39858033  0.09005044  1.0
  Ni  Ni419  1  0.38471150  0.73191367  0.09005044  1.0
  Ni  Ni420  1  0.71804483  0.06524700  0.09005044  1.0
  Ni  Ni421  1  0.71804483  0.39858033  0.09005044  1.0
  Ni  Ni422  1  0.71804483  0.73191367  0.09005044  1.0
  Ni  Ni423  1  0.21804483  0.06524700  0.01862187  1.0
  Ni  Ni424  1  0.21804483  0.39858033  0.01862187  1.0
  Ni  Ni425  1  0.21804483  0.73191367  0.01862187  1.0
  Ni  Ni426  1  0.55137817  0.06524700  0.01862187  1.0
  Ni  Ni427  1  0.55137817  0.39858033  0.01862187  1.0
  Ni  Ni428  1  0.55137817  0.73191367  0.01862187  1.0
  Ni  Ni429  1  0.88471150  0.06524700  0.01862187  1.0
  Ni  Ni430  1  0.88471150  0.39858033  0.01862187  1.0
  Ni  Ni431  1  0.88471150  0.73191367  0.01862187  1.0
  Ni  Ni432  1  0.10547783  0.19943433  0.12670644  1.0
  Ni  Ni433  1  0.10547783  0.53276767  0.12670644  1.0
  Ni  Ni434  1  0.10547783  0.86610100  0.12670644  1.0
  Ni  Ni435  1  0.43881117  0.19943433  0.12670644  1.0
  Ni  Ni436  1  0.43881117  0.53276767  0.12670644  1.0
  Ni  Ni437  1  0.43881117  0.86610100  0.12670644  1.0
  Ni  Ni438  1  0.77214450  0.19943433  0.12670644  1.0
  Ni  Ni439  1  0.77214450  0.53276767  0.12670644  1.0
  Ni  Ni440  1  0.77214450  0.86610100  0.12670644  1.0
  Ni  Ni441  1  0.27214450  0.19943433  0.05527787  1.0
  Ni  Ni442  1  0.27214450  0.53276767  0.05527787  1.0
  Ni  Ni443  1  0.27214450  0.86610100  0.05527787  1.0
  Ni  Ni444  1  0.60547783  0.19943433  0.05527787  1.0
  Ni  Ni445  1  0.60547783  0.53276767  0.05527787  1.0
  Ni  Ni446  1  0.60547783  0.86610100  0.05527787  1.0
  Ni  Ni447  1  0.93881117  0.19943433  0.05527787  1.0
  Ni  Ni448  1  0.93881117  0.53276767  0.05527787  1.0
  Ni  Ni449  1  0.93881117  0.86610100  0.05527787  1.0
  Ni  Ni450  1  0.00000000  0.19943433  0.02905408  1.0
  Ni  Ni451  1  0.00000000  0.53276767  0.02905408  1.0
  Ni  Ni452  1  0.00000000  0.86610100  0.02905408  1.0
  Ni  Ni453  1  0.33333333  0.19943433  0.02905408  1.0
  Ni  Ni454  1  0.33333333  0.53276767  0.02905408  1.0
  Ni  Ni455  1  0.33333333  0.86610100  0.02905408  1.0
  Ni  Ni456  1  0.66666667  0.19943433  0.02905408  1.0
  Ni  Ni457  1  0.66666667  0.53276767  0.02905408  1.0
  Ni  Ni458  1  0.66666667  0.86610100  0.02905408  1.0
  Ni  Ni459  1  0.16666667  0.19943433  0.10048265  1.0
  Ni  Ni460  1  0.16666667  0.53276767  0.10048265  1.0
  Ni  Ni461  1  0.16666667  0.86610100  0.10048265  1.0
  Ni  Ni462  1  0.50000000  0.19943433  0.10048265  1.0
  Ni  Ni463  1  0.50000000  0.53276767  0.10048265  1.0
  Ni  Ni464  1  0.50000000  0.86610100  0.10048265  1.0
  Ni  Ni465  1  0.83333333  0.19943433  0.10048265  1.0
  Ni  Ni466  1  0.83333333  0.53276767  0.10048265  1.0
  Ni  Ni467  1  0.83333333  0.86610100  0.10048265  1.0
  Ni  Ni468  1  0.06118883  0.19943433  0.01731587  1.0
  Ni  Ni469  1  0.06118883  0.53276767  0.01731587  1.0
  Ni  Ni470  1  0.06118883  0.86610100  0.01731587  1.0
  Ni  Ni471  1  0.39452217  0.19943433  0.01731587  1.0
  Ni  Ni472  1  0.39452217  0.53276767  0.01731587  1.0
  Ni  Ni473  1  0.39452217  0.86610100  0.01731587  1.0
  Ni  Ni474  1  0.72785550  0.19943433  0.01731587  1.0
  Ni  Ni475  1  0.72785550  0.53276767  0.01731587  1.0
  Ni  Ni476  1  0.72785550  0.86610100  0.01731587  1.0
  Ni  Ni477  1  0.22785550  0.19943433  0.08874444  1.0
  Ni  Ni478  1  0.22785550  0.53276767  0.08874444  1.0
  Ni  Ni479  1  0.22785550  0.86610100  0.08874444  1.0
  Ni  Ni480  1  0.56118883  0.19943433  0.08874444  1.0
  Ni  Ni481  1  0.56118883  0.53276767  0.08874444  1.0
  Ni  Ni482  1  0.56118883  0.86610100  0.08874444  1.0
  Ni  Ni483  1  0.89452217  0.19943433  0.08874444  1.0
  Ni  Ni484  1  0.89452217  0.53276767  0.08874444  1.0
  Ni  Ni485  1  0.89452217  0.86610100  0.08874444  1.0
  Ni  Ni486  1  0.06118883  0.03276767  0.03629687  1.0
  Ni  Ni487  1  0.06118883  0.36610100  0.03629687  1.0
  Ni  Ni488  1  0.06118883  0.69943433  0.03629687  1.0
  Ni  Ni489  1  0.39452217  0.03276767  0.03629687  1.0
  Ni  Ni490  1  0.39452217  0.36610100  0.03629687  1.0
  Ni  Ni491  1  0.39452217  0.69943433  0.03629687  1.0
  Ni  Ni492  1  0.72785550  0.03276767  0.03629687  1.0
  Ni  Ni493  1  0.72785550  0.36610100  0.03629687  1.0
  Ni  Ni494  1  0.72785550  0.69943433  0.03629687  1.0
  Ni  Ni495  1  0.22785550  0.03276767  0.10772544  1.0
  Ni  Ni496  1  0.22785550  0.36610100  0.10772544  1.0
  Ni  Ni497  1  0.22785550  0.69943433  0.10772544  1.0
  Ni  Ni498  1  0.56118883  0.03276767  0.10772544  1.0
  Ni  Ni499  1  0.56118883  0.36610100  0.10772544  1.0
  Ni  Ni500  1  0.56118883  0.69943433  0.10772544  1.0
  Ni  Ni501  1  0.89452217  0.03276767  0.10772544  1.0
  Ni  Ni502  1  0.89452217  0.36610100  0.10772544  1.0
  Ni  Ni503  1  0.89452217  0.69943433  0.10772544  1.0
  Ni  Ni504  1  0.00000000  0.03276767  0.06252065  1.0
  Ni  Ni505  1  0.00000000  0.36610100  0.06252065  1.0
  Ni  Ni506  1  0.00000000  0.69943433  0.06252065  1.0
  Ni  Ni507  1  0.33333333  0.03276767  0.06252065  1.0
  Ni  Ni508  1  0.33333333  0.36610100  0.06252065  1.0
  Ni  Ni509  1  0.33333333  0.69943433  0.06252065  1.0
  Ni  Ni510  1  0.66666667  0.03276767  0.06252065  1.0
  Ni  Ni511  1  0.66666667  0.36610100  0.06252065  1.0
  Ni  Ni512  1  0.66666667  0.69943433  0.06252065  1.0
  Ni  Ni513  1  0.16666667  0.03276767  0.13394923  1.0
  Ni  Ni514  1  0.16666667  0.36610100  0.13394923  1.0
  Ni  Ni515  1  0.16666667  0.69943433  0.13394923  1.0
  Ni  Ni516  1  0.50000000  0.03276767  0.13394923  1.0
  Ni  Ni517  1  0.50000000  0.36610100  0.13394923  1.0
  Ni  Ni518  1  0.50000000  0.69943433  0.13394923  1.0
  Ni  Ni519  1  0.83333333  0.03276767  0.13394923  1.0
  Ni  Ni520  1  0.83333333  0.36610100  0.13394923  1.0
  Ni  Ni521  1  0.83333333  0.69943433  0.13394923  1.0
  Ni  Ni522  1  0.10547783  0.03276767  0.00283030  1.0
  Ni  Ni523  1  0.10547783  0.36610100  0.00283030  1.0
  Ni  Ni524  1  0.10547783  0.69943433  0.00283030  1.0
  Ni  Ni525  1  0.43881117  0.03276767  0.00283030  1.0
  Ni  Ni526  1  0.43881117  0.36610100  0.00283030  1.0
  Ni  Ni527  1  0.43881117  0.69943433  0.00283030  1.0
  Ni  Ni528  1  0.77214450  0.03276767  0.00283030  1.0
  Ni  Ni529  1  0.77214450  0.36610100  0.00283030  1.0
  Ni  Ni530  1  0.77214450  0.69943433  0.00283030  1.0
  Ni  Ni531  1  0.27214450  0.03276767  0.07425887  1.0
  Ni  Ni532  1  0.27214450  0.36610100  0.07425887  1.0
  Ni  Ni533  1  0.27214450  0.69943433  0.07425887  1.0
  Ni  Ni534  1  0.60547783  0.03276767  0.07425887  1.0
  Ni  Ni535  1  0.60547783  0.36610100  0.07425887  1.0
  Ni  Ni536  1  0.60547783  0.69943433  0.07425887  1.0
  Ni  Ni537  1  0.93881117  0.03276767  0.07425887  1.0
  Ni  Ni538  1  0.93881117  0.36610100  0.07425887  1.0
  Ni  Ni539  1  0.93881117  0.69943433  0.07425887  1.0
  Ge  Ge540  1  0.00000000  0.25839933  0.10677237  1.0
  Ge  Ge541  1  0.00000000  0.59173267  0.10677237  1.0
  Ge  Ge542  1  0.00000000  0.92506600  0.10677237  1.0
  Ge  Ge543  1  0.33333333  0.25839933  0.10677237  1.0
  Ge  Ge544  1  0.33333333  0.59173267  0.10677237  1.0
  Ge  Ge545  1  0.33333333  0.92506600  0.10677237  1.0
  Ge  Ge546  1  0.66666667  0.25839933  0.10677237  1.0
  Ge  Ge547  1  0.66666667  0.59173267  0.10677237  1.0
  Ge  Ge548  1  0.66666667  0.92506600  0.10677237  1.0
  Ge  Ge549  1  0.16666667  0.25839933  0.03534380  1.0
  Ge  Ge550  1  0.16666667  0.59173267  0.03534380  1.0
  Ge  Ge551  1  0.16666667  0.92506600  0.03534380  1.0
  Ge  Ge552  1  0.50000000  0.25839933  0.03534380  1.0
  Ge  Ge553  1  0.50000000  0.59173267  0.03534380  1.0
  Ge  Ge554  1  0.50000000  0.92506600  0.03534380  1.0
  Ge  Ge555  1  0.83333333  0.25839933  0.03534380  1.0
  Ge  Ge556  1  0.83333333  0.59173267  0.03534380  1.0
  Ge  Ge557  1  0.83333333  0.92506600  0.03534380  1.0
  Ge  Ge558  1  0.00000000  0.09173267  0.03534380  1.0
  Ge  Ge559  1  0.00000000  0.42506600  0.03534380  1.0
  Ge  Ge560  1  0.00000000  0.75839933  0.03534380  1.0
  Ge  Ge561  1  0.33333333  0.09173267  0.03534380  1.0
  Ge  Ge562  1  0.33333333  0.42506600  0.03534380  1.0
  Ge  Ge563  1  0.33333333  0.75839933  0.03534380  1.0
  Ge  Ge564  1  0.66666667  0.09173267  0.03534380  1.0
  Ge  Ge565  1  0.66666667  0.42506600  0.03534380  1.0
  Ge  Ge566  1  0.66666667  0.75839933  0.03534380  1.0
  Ge  Ge567  1  0.16666667  0.09173267  0.10677237  1.0
  Ge  Ge568  1  0.16666667  0.42506600  0.10677237  1.0
  Ge  Ge569  1  0.16666667  0.75839933  0.10677237  1.0
  Ge  Ge570  1  0.50000000  0.09173267  0.10677237  1.0
  Ge  Ge571  1  0.50000000  0.42506600  0.10677237  1.0
  Ge  Ge572  1  0.50000000  0.75839933  0.10677237  1.0
  Ge  Ge573  1  0.83333333  0.09173267  0.10677237  1.0
  Ge  Ge574  1  0.83333333  0.42506600  0.10677237  1.0
  Ge  Ge575  1  0.83333333  0.75839933  0.10677237  1.0
  Ge  Ge576  1  0.11111111  0.24028133  0.05138846  1.0
  Ge  Ge577  1  0.11111111  0.57361467  0.05138846  1.0
  Ge  Ge578  1  0.11111111  0.90694800  0.05138846  1.0
  Ge  Ge579  1  0.44444444  0.24028133  0.05138846  1.0
  Ge  Ge580  1  0.44444444  0.57361467  0.05138846  1.0
  Ge  Ge581  1  0.44444444  0.90694800  0.05138846  1.0
  Ge  Ge582  1  0.77777778  0.24028133  0.05138846  1.0
  Ge  Ge583  1  0.77777778  0.57361467  0.05138846  1.0
  Ge  Ge584  1  0.77777778  0.90694800  0.05138846  1.0
  Ge  Ge585  1  0.27777778  0.24028133  0.12281704  1.0
  Ge  Ge586  1  0.27777778  0.57361467  0.12281704  1.0
  Ge  Ge587  1  0.27777778  0.90694800  0.12281704  1.0
  Ge  Ge588  1  0.61111111  0.24028133  0.12281704  1.0
  Ge  Ge589  1  0.61111111  0.57361467  0.12281704  1.0
  Ge  Ge590  1  0.61111111  0.90694800  0.12281704  1.0
  Ge  Ge591  1  0.94444444  0.24028133  0.12281704  1.0
  Ge  Ge592  1  0.94444444  0.57361467  0.12281704  1.0
  Ge  Ge593  1  0.94444444  0.90694800  0.12281704  1.0
  Ge  Ge594  1  0.05555556  0.24028133  0.07519799  1.0
  Ge  Ge595  1  0.05555556  0.57361467  0.07519799  1.0
  Ge  Ge596  1  0.05555556  0.90694800  0.07519799  1.0
  Ge  Ge597  1  0.38888889  0.24028133  0.07519799  1.0
  Ge  Ge598  1  0.38888889  0.57361467  0.07519799  1.0
  Ge  Ge599  1  0.38888889  0.90694800  0.07519799  1.0
  Ge  Ge600  1  0.72222222  0.24028133  0.07519799  1.0
  Ge  Ge601  1  0.72222222  0.57361467  0.07519799  1.0
  Ge  Ge602  1  0.72222222  0.90694800  0.07519799  1.0
  Ge  Ge603  1  0.22222222  0.24028133  0.00376942  1.0
  Ge  Ge604  1  0.22222222  0.57361467  0.00376942  1.0
  Ge  Ge605  1  0.22222222  0.90694800  0.00376942  1.0
  Ge  Ge606  1  0.55555556  0.24028133  0.00376942  1.0
  Ge  Ge607  1  0.55555556  0.57361467  0.00376942  1.0
  Ge  Ge608  1  0.55555556  0.90694800  0.00376942  1.0
  Ge  Ge609  1  0.88888889  0.24028133  0.00376942  1.0
  Ge  Ge610  1  0.88888889  0.57361467  0.00376942  1.0
  Ge  Ge611  1  0.88888889  0.90694800  0.00376942  1.0
  Ge  Ge612  1  0.05555556  0.07361467  0.00376942  1.0
  Ge  Ge613  1  0.05555556  0.40694800  0.00376942  1.0
  Ge  Ge614  1  0.05555556  0.74028133  0.00376942  1.0
  Ge  Ge615  1  0.38888889  0.07361467  0.00376942  1.0
  Ge  Ge616  1  0.38888889  0.40694800  0.00376942  1.0
  Ge  Ge617  1  0.38888889  0.74028133  0.00376942  1.0
  Ge  Ge618  1  0.72222222  0.07361467  0.00376942  1.0
  Ge  Ge619  1  0.72222222  0.40694800  0.00376942  1.0
  Ge  Ge620  1  0.72222222  0.74028133  0.00376942  1.0
  Ge  Ge621  1  0.22222222  0.07361467  0.07519799  1.0
  Ge  Ge622  1  0.22222222  0.40694800  0.07519799  1.0
  Ge  Ge623  1  0.22222222  0.74028133  0.07519799  1.0
  Ge  Ge624  1  0.55555556  0.07361467  0.07519799  1.0
  Ge  Ge625  1  0.55555556  0.40694800  0.07519799  1.0
  Ge  Ge626  1  0.55555556  0.74028133  0.07519799  1.0
  Ge  Ge627  1  0.88888889  0.07361467  0.07519799  1.0
  Ge  Ge628  1  0.88888889  0.40694800  0.07519799  1.0
  Ge  Ge629  1  0.88888889  0.74028133  0.07519799  1.0
  Ge  Ge630  1  0.11111111  0.07361467  0.12281704  1.0
  Ge  Ge631  1  0.11111111  0.40694800  0.12281704  1.0
  Ge  Ge632  1  0.11111111  0.74028133  0.12281704  1.0
  Ge  Ge633  1  0.44444444  0.07361467  0.12281704  1.0
  Ge  Ge634  1  0.44444444  0.40694800  0.12281704  1.0
  Ge  Ge635  1  0.44444444  0.74028133  0.12281704  1.0
  Ge  Ge636  1  0.77777778  0.07361467  0.12281704  1.0
  Ge  Ge637  1  0.77777778  0.40694800  0.12281704  1.0
  Ge  Ge638  1  0.77777778  0.74028133  0.12281704  1.0
  Ge  Ge639  1  0.27777778  0.07361467  0.05138846  1.0
  Ge  Ge640  1  0.27777778  0.40694800  0.05138846  1.0
  Ge  Ge641  1  0.27777778  0.74028133  0.05138846  1.0
  Ge  Ge642  1  0.61111111  0.07361467  0.05138846  1.0
  Ge  Ge643  1  0.61111111  0.40694800  0.05138846  1.0
  Ge  Ge644  1  0.61111111  0.74028133  0.05138846  1.0
  Ge  Ge645  1  0.94444444  0.07361467  0.05138846  1.0
  Ge  Ge646  1  0.94444444  0.40694800  0.05138846  1.0
  Ge  Ge647  1  0.94444444  0.74028133  0.05138846  1.0
  Ge  Ge648  1  0.11092417  0.00102933  0.04400987  1.0
  Ge  Ge649  1  0.11092417  0.33436267  0.04400987  1.0
  Ge  Ge650  1  0.11092417  0.66769600  0.04400987  1.0
  Ge  Ge651  1  0.44425750  0.00102933  0.04400987  1.0
  Ge  Ge652  1  0.44425750  0.33436267  0.04400987  1.0
  Ge  Ge653  1  0.44425750  0.66769600  0.04400987  1.0
  Ge  Ge654  1  0.77759083  0.00102933  0.04400987  1.0
  Ge  Ge655  1  0.77759083  0.33436267  0.04400987  1.0
  Ge  Ge656  1  0.77759083  0.66769600  0.04400987  1.0
  Ge  Ge657  1  0.27759083  0.00102933  0.11543844  1.0
  Ge  Ge658  1  0.27759083  0.33436267  0.11543844  1.0
  Ge  Ge659  1  0.27759083  0.66769600  0.11543844  1.0
  Ge  Ge660  1  0.61092417  0.00102933  0.11543844  1.0
  Ge  Ge661  1  0.61092417  0.33436267  0.11543844  1.0
  Ge  Ge662  1  0.61092417  0.66769600  0.11543844  1.0
  Ge  Ge663  1  0.94425750  0.00102933  0.11543844  1.0
  Ge  Ge664  1  0.94425750  0.33436267  0.11543844  1.0
  Ge  Ge665  1  0.94425750  0.66769600  0.11543844  1.0
  Ge  Ge666  1  0.00000000  0.00102933  0.09154880  1.0
  Ge  Ge667  1  0.00000000  0.33436267  0.09154880  1.0
  Ge  Ge668  1  0.00000000  0.66769600  0.09154880  1.0
  Ge  Ge669  1  0.33333333  0.00102933  0.09154880  1.0
  Ge  Ge670  1  0.33333333  0.33436267  0.09154880  1.0
  Ge  Ge671  1  0.33333333  0.66769600  0.09154880  1.0
  Ge  Ge672  1  0.66666667  0.00102933  0.09154880  1.0
  Ge  Ge673  1  0.66666667  0.33436267  0.09154880  1.0
  Ge  Ge674  1  0.66666667  0.66769600  0.09154880  1.0
  Ge  Ge675  1  0.16666667  0.00102933  0.02012023  1.0
  Ge  Ge676  1  0.16666667  0.33436267  0.02012023  1.0
  Ge  Ge677  1  0.16666667  0.66769600  0.02012023  1.0
  Ge  Ge678  1  0.50000000  0.00102933  0.02012023  1.0
  Ge  Ge679  1  0.50000000  0.33436267  0.02012023  1.0
  Ge  Ge680  1  0.50000000  0.66769600  0.02012023  1.0
  Ge  Ge681  1  0.83333333  0.00102933  0.02012023  1.0
  Ge  Ge682  1  0.83333333  0.33436267  0.02012023  1.0
  Ge  Ge683  1  0.83333333  0.66769600  0.02012023  1.0
  Ge  Ge684  1  0.05574250  0.00102933  0.06813987  1.0
  Ge  Ge685  1  0.05574250  0.33436267  0.06813987  1.0
  Ge  Ge686  1  0.05574250  0.66769600  0.06813987  1.0
  Ge  Ge687  1  0.38907583  0.00102933  0.06813987  1.0
  Ge  Ge688  1  0.38907583  0.33436267  0.06813987  1.0
  Ge  Ge689  1  0.38907583  0.66769600  0.06813987  1.0
  Ge  Ge690  1  0.72240917  0.00102933  0.06813987  1.0
  Ge  Ge691  1  0.72240917  0.33436267  0.06813987  1.0
  Ge  Ge692  1  0.72240917  0.66769600  0.06813987  1.0
  Ge  Ge693  1  0.22240917  0.00102933  0.13956844  1.0
  Ge  Ge694  1  0.22240917  0.33436267  0.13956844  1.0
  Ge  Ge695  1  0.22240917  0.66769600  0.13956844  1.0
  Ge  Ge696  1  0.55574250  0.00102933  0.13956844  1.0
  Ge  Ge697  1  0.55574250  0.33436267  0.13956844  1.0
  Ge  Ge698  1  0.55574250  0.66769600  0.13956844  1.0
  Ge  Ge699  1  0.88907583  0.00102933  0.13956844  1.0
  Ge  Ge700  1  0.88907583  0.33436267  0.13956844  1.0
  Ge  Ge701  1  0.88907583  0.66769600  0.13956844  1.0
  Ge  Ge702  1  0.05574250  0.16769600  0.09178915  1.0
  Ge  Ge703  1  0.05574250  0.50102933  0.09178915  1.0
  Ge  Ge704  1  0.05574250  0.83436267  0.09178915  1.0
  Ge  Ge705  1  0.38907583  0.16769600  0.09178915  1.0
  Ge  Ge706  1  0.38907583  0.50102933  0.09178915  1.0
  Ge  Ge707  1  0.38907583  0.83436267  0.09178915  1.0
  Ge  Ge708  1  0.72240917  0.16769600  0.09178915  1.0
  Ge  Ge709  1  0.72240917  0.50102933  0.09178915  1.0
  Ge  Ge710  1  0.72240917  0.83436267  0.09178915  1.0
  Ge  Ge711  1  0.22240917  0.16769600  0.02036058  1.0
  Ge  Ge712  1  0.22240917  0.50102933  0.02036058  1.0
  Ge  Ge713  1  0.22240917  0.83436267  0.02036058  1.0
  Ge  Ge714  1  0.55574250  0.16769600  0.02036058  1.0
  Ge  Ge715  1  0.55574250  0.50102933  0.02036058  1.0
  Ge  Ge716  1  0.55574250  0.83436267  0.02036058  1.0
  Ge  Ge717  1  0.88907583  0.16769600  0.02036058  1.0
  Ge  Ge718  1  0.88907583  0.50102933  0.02036058  1.0
  Ge  Ge719  1  0.88907583  0.83436267  0.02036058  1.0
  Ge  Ge720  1  0.00000000  0.16769600  0.11567880  1.0
  Ge  Ge721  1  0.00000000  0.50102933  0.11567880  1.0
  Ge  Ge722  1  0.00000000  0.83436267  0.11567880  1.0
  Ge  Ge723  1  0.33333333  0.16769600  0.11567880  1.0
  Ge  Ge724  1  0.33333333  0.50102933  0.11567880  1.0
  Ge  Ge725  1  0.33333333  0.83436267  0.11567880  1.0
  Ge  Ge726  1  0.66666667  0.16769600  0.11567880  1.0
  Ge  Ge727  1  0.66666667  0.50102933  0.11567880  1.0
  Ge  Ge728  1  0.66666667  0.83436267  0.11567880  1.0
  Ge  Ge729  1  0.16666667  0.16769600  0.04425023  1.0
  Ge  Ge730  1  0.16666667  0.50102933  0.04425023  1.0
  Ge  Ge731  1  0.16666667  0.83436267  0.04425023  1.0
  Ge  Ge732  1  0.50000000  0.16769600  0.04425023  1.0
  Ge  Ge733  1  0.50000000  0.50102933  0.04425023  1.0
  Ge  Ge734  1  0.50000000  0.83436267  0.04425023  1.0
  Ge  Ge735  1  0.83333333  0.16769600  0.04425023  1.0
  Ge  Ge736  1  0.83333333  0.50102933  0.04425023  1.0
  Ge  Ge737  1  0.83333333  0.83436267  0.04425023  1.0
  Ge  Ge738  1  0.11092417  0.16769600  0.06765915  1.0
  Ge  Ge739  1  0.11092417  0.50102933  0.06765915  1.0
  Ge  Ge740  1  0.11092417  0.83436267  0.06765915  1.0
  Ge  Ge741  1  0.44425750  0.16769600  0.06765915  1.0
  Ge  Ge742  1  0.44425750  0.50102933  0.06765915  1.0
  Ge  Ge743  1  0.44425750  0.83436267  0.06765915  1.0
  Ge  Ge744  1  0.77759083  0.16769600  0.06765915  1.0
  Ge  Ge745  1  0.77759083  0.50102933  0.06765915  1.0
  Ge  Ge746  1  0.77759083  0.83436267  0.06765915  1.0
  Ge  Ge747  1  0.27759083  0.16769600  0.13908773  1.0
  Ge  Ge748  1  0.27759083  0.50102933  0.13908773  1.0
  Ge  Ge749  1  0.27759083  0.83436267  0.13908773  1.0
  Ge  Ge750  1  0.61092417  0.16769600  0.13908773  1.0
  Ge  Ge751  1  0.61092417  0.50102933  0.13908773  1.0
  Ge  Ge752  1  0.61092417  0.83436267  0.13908773  1.0
  Ge  Ge753  1  0.94425750  0.16769600  0.13908773  1.0
  Ge  Ge754  1  0.94425750  0.50102933  0.13908773  1.0
  Ge  Ge755  1  0.94425750  0.83436267  0.13908773  1.0
  Ni  Ni756  1  0.00000000  0.02387867  0.14912065  1.0
  Ni  Ni757  1  0.00000000  0.35721200  0.14912065  1.0
  Ni  Ni758  1  0.00000000  0.69054533  0.14912065  1.0
  Ni  Ni759  1  0.33333333  0.02387867  0.14912065  1.0
  Ni  Ni760  1  0.33333333  0.35721200  0.14912065  1.0
  Ni  Ni761  1  0.33333333  0.69054533  0.14912065  1.0
  Ni  Ni762  1  0.66666667  0.02387867  0.14912065  1.0
  Ni  Ni763  1  0.66666667  0.35721200  0.14912065  1.0
  Ni  Ni764  1  0.66666667  0.69054533  0.14912065  1.0
  Ni  Ni765  1  0.16666667  0.02387867  0.22054923  1.0
  Ni  Ni766  1  0.16666667  0.35721200  0.22054923  1.0
  Ni  Ni767  1  0.16666667  0.69054533  0.22054923  1.0
  Ni  Ni768  1  0.50000000  0.02387867  0.22054923  1.0
  Ni  Ni769  1  0.50000000  0.35721200  0.22054923  1.0
  Ni  Ni770  1  0.50000000  0.69054533  0.22054923  1.0
  Ni  Ni771  1  0.83333333  0.02387867  0.22054923  1.0
  Ni  Ni772  1  0.83333333  0.35721200  0.22054923  1.0
  Ni  Ni773  1  0.83333333  0.69054533  0.22054923  1.0
  Ni  Ni774  1  0.00000000  0.19054533  0.22054923  1.0
  Ni  Ni775  1  0.00000000  0.52387867  0.22054923  1.0
  Ni  Ni776  1  0.00000000  0.85721200  0.22054923  1.0
  Ni  Ni777  1  0.33333333  0.19054533  0.22054923  1.0
  Ni  Ni778  1  0.33333333  0.52387867  0.22054923  1.0
  Ni  Ni779  1  0.33333333  0.85721200  0.22054923  1.0
  Ni  Ni780  1  0.66666667  0.19054533  0.22054923  1.0
  Ni  Ni781  1  0.66666667  0.52387867  0.22054923  1.0
  Ni  Ni782  1  0.66666667  0.85721200  0.22054923  1.0
  Ni  Ni783  1  0.16666667  0.19054533  0.14912065  1.0
  Ni  Ni784  1  0.16666667  0.52387867  0.14912065  1.0
  Ni  Ni785  1  0.16666667  0.85721200  0.14912065  1.0
  Ni  Ni786  1  0.50000000  0.19054533  0.14912065  1.0
  Ni  Ni787  1  0.50000000  0.52387867  0.14912065  1.0
  Ni  Ni788  1  0.50000000  0.85721200  0.14912065  1.0
  Ni  Ni789  1  0.83333333  0.19054533  0.14912065  1.0
  Ni  Ni790  1  0.83333333  0.52387867  0.14912065  1.0
  Ni  Ni791  1  0.83333333  0.85721200  0.14912065  1.0
  Ni  Ni792  1  0.11111111  0.30908700  0.22373375  1.0
  Ni  Ni793  1  0.11111111  0.64242033  0.22373375  1.0
  Ni  Ni794  1  0.11111111  0.97575367  0.22373375  1.0
  Ni  Ni795  1  0.44444444  0.30908700  0.22373375  1.0
  Ni  Ni796  1  0.44444444  0.64242033  0.22373375  1.0
  Ni  Ni797  1  0.44444444  0.97575367  0.22373375  1.0
  Ni  Ni798  1  0.77777778  0.30908700  0.22373375  1.0
  Ni  Ni799  1  0.77777778  0.64242033  0.22373375  1.0
  Ni  Ni800  1  0.77777778  0.97575367  0.22373375  1.0
  Ni  Ni801  1  0.27777778  0.30908700  0.15230518  1.0
  Ni  Ni802  1  0.27777778  0.64242033  0.15230518  1.0
  Ni  Ni803  1  0.27777778  0.97575367  0.15230518  1.0
  Ni  Ni804  1  0.61111111  0.30908700  0.15230518  1.0
  Ni  Ni805  1  0.61111111  0.64242033  0.15230518  1.0
  Ni  Ni806  1  0.61111111  0.97575367  0.15230518  1.0
  Ni  Ni807  1  0.94444444  0.30908700  0.15230518  1.0
  Ni  Ni808  1  0.94444444  0.64242033  0.15230518  1.0
  Ni  Ni809  1  0.94444444  0.97575367  0.15230518  1.0
  Ni  Ni810  1  0.05555556  0.30908700  0.24754327  1.0
  Ni  Ni811  1  0.05555556  0.64242033  0.24754327  1.0
  Ni  Ni812  1  0.05555556  0.97575367  0.24754327  1.0
  Ni  Ni813  1  0.38888889  0.30908700  0.24754327  1.0
  Ni  Ni814  1  0.38888889  0.64242033  0.24754327  1.0
  Ni  Ni815  1  0.38888889  0.97575367  0.24754327  1.0
  Ni  Ni816  1  0.72222222  0.30908700  0.24754327  1.0
  Ni  Ni817  1  0.72222222  0.64242033  0.24754327  1.0
  Ni  Ni818  1  0.72222222  0.97575367  0.24754327  1.0
  Ni  Ni819  1  0.22222222  0.30908700  0.17611470  1.0
  Ni  Ni820  1  0.22222222  0.64242033  0.17611470  1.0
  Ni  Ni821  1  0.22222222  0.97575367  0.17611470  1.0
  Ni  Ni822  1  0.55555556  0.30908700  0.17611470  1.0
  Ni  Ni823  1  0.55555556  0.64242033  0.17611470  1.0
  Ni  Ni824  1  0.55555556  0.97575367  0.17611470  1.0
  Ni  Ni825  1  0.88888889  0.30908700  0.17611470  1.0
  Ni  Ni826  1  0.88888889  0.64242033  0.17611470  1.0
  Ni  Ni827  1  0.88888889  0.97575367  0.17611470  1.0
  Ni  Ni828  1  0.05555556  0.14242033  0.17611470  1.0
  Ni  Ni829  1  0.05555556  0.47575367  0.17611470  1.0
  Ni  Ni830  1  0.05555556  0.80908700  0.17611470  1.0
  Ni  Ni831  1  0.38888889  0.14242033  0.17611470  1.0
  Ni  Ni832  1  0.38888889  0.47575367  0.17611470  1.0
  Ni  Ni833  1  0.38888889  0.80908700  0.17611470  1.0
  Ni  Ni834  1  0.72222222  0.14242033  0.17611470  1.0
  Ni  Ni835  1  0.72222222  0.47575367  0.17611470  1.0
  Ni  Ni836  1  0.72222222  0.80908700  0.17611470  1.0
  Ni  Ni837  1  0.22222222  0.14242033  0.24754327  1.0
  Ni  Ni838  1  0.22222222  0.47575367  0.24754327  1.0
  Ni  Ni839  1  0.22222222  0.80908700  0.24754327  1.0
  Ni  Ni840  1  0.55555556  0.14242033  0.24754327  1.0
  Ni  Ni841  1  0.55555556  0.47575367  0.24754327  1.0
  Ni  Ni842  1  0.55555556  0.80908700  0.24754327  1.0
  Ni  Ni843  1  0.88888889  0.14242033  0.24754327  1.0
  Ni  Ni844  1  0.88888889  0.47575367  0.24754327  1.0
  Ni  Ni845  1  0.88888889  0.80908700  0.24754327  1.0
  Ni  Ni846  1  0.11111111  0.14242033  0.15230518  1.0
  Ni  Ni847  1  0.11111111  0.47575367  0.15230518  1.0
  Ni  Ni848  1  0.11111111  0.80908700  0.15230518  1.0
  Ni  Ni849  1  0.44444444  0.14242033  0.15230518  1.0
  Ni  Ni850  1  0.44444444  0.47575367  0.15230518  1.0
  Ni  Ni851  1  0.44444444  0.80908700  0.15230518  1.0
  Ni  Ni852  1  0.77777778  0.14242033  0.15230518  1.0
  Ni  Ni853  1  0.77777778  0.47575367  0.15230518  1.0
  Ni  Ni854  1  0.77777778  0.80908700  0.15230518  1.0
  Ni  Ni855  1  0.27777778  0.14242033  0.22373375  1.0
  Ni  Ni856  1  0.27777778  0.47575367  0.22373375  1.0
  Ni  Ni857  1  0.27777778  0.80908700  0.22373375  1.0
  Ni  Ni858  1  0.61111111  0.14242033  0.22373375  1.0
  Ni  Ni859  1  0.61111111  0.47575367  0.22373375  1.0
  Ni  Ni860  1  0.61111111  0.80908700  0.22373375  1.0
  Ni  Ni861  1  0.94444444  0.14242033  0.22373375  1.0
  Ni  Ni862  1  0.94444444  0.47575367  0.22373375  1.0
  Ni  Ni863  1  0.94444444  0.80908700  0.22373375  1.0
  Ni  Ni864  1  0.04413200  0.30111100  0.14399108  1.0
  Ni  Ni865  1  0.04413200  0.63444433  0.14399108  1.0
  Ni  Ni866  1  0.04413200  0.96777767  0.14399108  1.0
  Ni  Ni867  1  0.37746533  0.30111100  0.14399108  1.0
  Ni  Ni868  1  0.37746533  0.63444433  0.14399108  1.0
  Ni  Ni869  1  0.37746533  0.96777767  0.14399108  1.0
  Ni  Ni870  1  0.71079867  0.30111100  0.14399108  1.0
  Ni  Ni871  1  0.71079867  0.63444433  0.14399108  1.0
  Ni  Ni872  1  0.71079867  0.96777767  0.14399108  1.0
  Ni  Ni873  1  0.21079867  0.30111100  0.21541965  1.0
  Ni  Ni874  1  0.21079867  0.63444433  0.21541965  1.0
  Ni  Ni875  1  0.21079867  0.96777767  0.21541965  1.0
  Ni  Ni876  1  0.54413200  0.30111100  0.21541965  1.0
  Ni  Ni877  1  0.54413200  0.63444433  0.21541965  1.0
  Ni  Ni878  1  0.54413200  0.96777767  0.21541965  1.0
  Ni  Ni879  1  0.87746533  0.30111100  0.21541965  1.0
  Ni  Ni880  1  0.87746533  0.63444433  0.21541965  1.0
  Ni  Ni881  1  0.87746533  0.96777767  0.21541965  1.0
  Ni  Ni882  1  0.00000000  0.30111100  0.16290480  1.0
  Ni  Ni883  1  0.00000000  0.63444433  0.16290480  1.0
  Ni  Ni884  1  0.00000000  0.96777767  0.16290480  1.0
  Ni  Ni885  1  0.33333333  0.30111100  0.16290480  1.0
  Ni  Ni886  1  0.33333333  0.63444433  0.16290480  1.0
  Ni  Ni887  1  0.33333333  0.96777767  0.16290480  1.0
  Ni  Ni888  1  0.66666667  0.30111100  0.16290480  1.0
  Ni  Ni889  1  0.66666667  0.63444433  0.16290480  1.0
  Ni  Ni890  1  0.66666667  0.96777767  0.16290480  1.0
  Ni  Ni891  1  0.16666667  0.30111100  0.23433337  1.0
  Ni  Ni892  1  0.16666667  0.63444433  0.23433337  1.0
  Ni  Ni893  1  0.16666667  0.96777767  0.23433337  1.0
  Ni  Ni894  1  0.50000000  0.30111100  0.23433337  1.0
  Ni  Ni895  1  0.50000000  0.63444433  0.23433337  1.0
  Ni  Ni896  1  0.50000000  0.96777767  0.23433337  1.0
  Ni  Ni897  1  0.83333333  0.30111100  0.23433337  1.0
  Ni  Ni898  1  0.83333333  0.63444433  0.23433337  1.0
  Ni  Ni899  1  0.83333333  0.96777767  0.23433337  1.0
  Ni  Ni900  1  0.12253467  0.30111100  0.28262194  1.0
  Ni  Ni901  1  0.12253467  0.63444433  0.28262194  1.0
  Ni  Ni902  1  0.12253467  0.96777767  0.28262194  1.0
  Ni  Ni903  1  0.45586800  0.30111100  0.28262194  1.0
  Ni  Ni904  1  0.45586800  0.63444433  0.28262194  1.0
  Ni  Ni905  1  0.45586800  0.96777767  0.28262194  1.0
  Ni  Ni906  1  0.78920133  0.30111100  0.28262194  1.0
  Ni  Ni907  1  0.78920133  0.63444433  0.28262194  1.0
  Ni  Ni908  1  0.78920133  0.96777767  0.28262194  1.0
  Ni  Ni909  1  0.28920133  0.30111100  0.21119337  1.0
  Ni  Ni910  1  0.28920133  0.63444433  0.21119337  1.0
  Ni  Ni911  1  0.28920133  0.96777767  0.21119337  1.0
  Ni  Ni912  1  0.62253467  0.30111100  0.21119337  1.0
  Ni  Ni913  1  0.62253467  0.63444433  0.21119337  1.0
  Ni  Ni914  1  0.62253467  0.96777767  0.21119337  1.0
  Ni  Ni915  1  0.95586800  0.30111100  0.21119337  1.0
  Ni  Ni916  1  0.95586800  0.63444433  0.21119337  1.0
  Ni  Ni917  1  0.95586800  0.96777767  0.21119337  1.0
  Ni  Ni918  1  0.12253467  0.13444433  0.24902080  1.0
  Ni  Ni919  1  0.12253467  0.46777767  0.24902080  1.0
  Ni  Ni920  1  0.12253467  0.80111100  0.24902080  1.0
  Ni  Ni921  1  0.45586800  0.13444433  0.24902080  1.0
  Ni  Ni922  1  0.45586800  0.46777767  0.24902080  1.0
  Ni  Ni923  1  0.45586800  0.80111100  0.24902080  1.0
  Ni  Ni924  1  0.78920133  0.13444433  0.24902080  1.0
  Ni  Ni925  1  0.78920133  0.46777767  0.24902080  1.0
  Ni  Ni926  1  0.78920133  0.80111100  0.24902080  1.0
  Ni  Ni927  1  0.28920133  0.13444433  0.17759223  1.0
  Ni  Ni928  1  0.28920133  0.46777767  0.17759223  1.0
  Ni  Ni929  1  0.28920133  0.80111100  0.17759223  1.0
  Ni  Ni930  1  0.62253467  0.13444433  0.17759223  1.0
  Ni  Ni931  1  0.62253467  0.46777767  0.17759223  1.0
  Ni  Ni932  1  0.62253467  0.80111100  0.17759223  1.0
  Ni  Ni933  1  0.95586800  0.13444433  0.17759223  1.0
  Ni  Ni934  1  0.95586800  0.46777767  0.17759223  1.0
  Ni  Ni935  1  0.95586800  0.80111100  0.17759223  1.0
  Ni  Ni936  1  0.00000000  0.13444433  0.15867851  1.0
  Ni  Ni937  1  0.00000000  0.46777767  0.15867851  1.0
  Ni  Ni938  1  0.00000000  0.80111100  0.15867851  1.0
  Ni  Ni939  1  0.33333333  0.13444433  0.15867851  1.0
  Ni  Ni940  1  0.33333333  0.46777767  0.15867851  1.0
  Ni  Ni941  1  0.33333333  0.80111100  0.15867851  1.0
  Ni  Ni942  1  0.66666667  0.13444433  0.15867851  1.0
  Ni  Ni943  1  0.66666667  0.46777767  0.15867851  1.0
  Ni  Ni944  1  0.66666667  0.80111100  0.15867851  1.0
  Ni  Ni945  1  0.16666667  0.13444433  0.23010708  1.0
  Ni  Ni946  1  0.16666667  0.46777767  0.23010708  1.0
  Ni  Ni947  1  0.16666667  0.80111100  0.23010708  1.0
  Ni  Ni948  1  0.50000000  0.13444433  0.23010708  1.0
  Ni  Ni949  1  0.50000000  0.46777767  0.23010708  1.0
  Ni  Ni950  1  0.50000000  0.80111100  0.23010708  1.0
  Ni  Ni951  1  0.83333333  0.13444433  0.23010708  1.0
  Ni  Ni952  1  0.83333333  0.46777767  0.23010708  1.0
  Ni  Ni953  1  0.83333333  0.80111100  0.23010708  1.0
  Ni  Ni954  1  0.04413200  0.13444433  0.25324708  1.0
  Ni  Ni955  1  0.04413200  0.46777767  0.25324708  1.0
  Ni  Ni956  1  0.04413200  0.80111100  0.25324708  1.0
  Ni  Ni957  1  0.37746533  0.13444433  0.25324708  1.0
  Ni  Ni958  1  0.37746533  0.46777767  0.25324708  1.0
  Ni  Ni959  1  0.37746533  0.80111100  0.25324708  1.0
  Ni  Ni960  1  0.71079867  0.13444433  0.25324708  1.0
  Ni  Ni961  1  0.71079867  0.46777767  0.25324708  1.0
  Ni  Ni962  1  0.71079867  0.80111100  0.25324708  1.0
  Ni  Ni963  1  0.21079867  0.13444433  0.18181851  1.0
  Ni  Ni964  1  0.21079867  0.46777767  0.18181851  1.0
  Ni  Ni965  1  0.21079867  0.80111100  0.18181851  1.0
  Ni  Ni966  1  0.54413200  0.13444433  0.18181851  1.0
  Ni  Ni967  1  0.54413200  0.46777767  0.18181851  1.0
  Ni  Ni968  1  0.54413200  0.80111100  0.18181851  1.0
  Ni  Ni969  1  0.87746533  0.13444433  0.18181851  1.0
  Ni  Ni970  1  0.87746533  0.46777767  0.18181851  1.0
  Ni  Ni971  1  0.87746533  0.80111100  0.18181851  1.0
  Ni  Ni972  1  0.10437267  0.26917767  0.15612280  1.0
  Ni  Ni973  1  0.10437267  0.60251100  0.15612280  1.0
  Ni  Ni974  1  0.10437267  0.93584433  0.15612280  1.0
  Ni  Ni975  1  0.43770600  0.26917767  0.15612280  1.0
  Ni  Ni976  1  0.43770600  0.60251100  0.15612280  1.0
  Ni  Ni977  1  0.43770600  0.93584433  0.15612280  1.0
  Ni  Ni978  1  0.77103933  0.26917767  0.15612280  1.0
  Ni  Ni979  1  0.77103933  0.60251100  0.15612280  1.0
  Ni  Ni980  1  0.77103933  0.93584433  0.15612280  1.0
  Ni  Ni981  1  0.27103933  0.26917767  0.22755137  1.0
  Ni  Ni982  1  0.27103933  0.60251100  0.22755137  1.0
  Ni  Ni983  1  0.27103933  0.93584433  0.22755137  1.0
  Ni  Ni984  1  0.60437267  0.26917767  0.22755137  1.0
  Ni  Ni985  1  0.60437267  0.60251100  0.22755137  1.0
  Ni  Ni986  1  0.60437267  0.93584433  0.22755137  1.0
  Ni  Ni987  1  0.93770600  0.26917767  0.22755137  1.0
  Ni  Ni988  1  0.93770600  0.60251100  0.22755137  1.0
  Ni  Ni989  1  0.93770600  0.93584433  0.22755137  1.0
  Ni  Ni990  1  0.00000000  0.26917767  0.20085394  1.0
  Ni  Ni991  1  0.00000000  0.60251100  0.20085394  1.0
  Ni  Ni992  1  0.00000000  0.93584433  0.20085394  1.0
  Ni  Ni993  1  0.33333333  0.26917767  0.20085394  1.0
  Ni  Ni994  1  0.33333333  0.60251100  0.20085394  1.0
  Ni  Ni995  1  0.33333333  0.93584433  0.20085394  1.0
  Ni  Ni996  1  0.66666667  0.26917767  0.20085394  1.0
  Ni  Ni997  1  0.66666667  0.60251100  0.20085394  1.0
  Ni  Ni998  1  0.66666667  0.93584433  0.20085394  1.0
  Ni  Ni999  1  0.16666667  0.26917767  0.27228251  1.0
  Ni  Ni1000  1  0.16666667  0.60251100  0.27228251  1.0
  Ni  Ni1001  1  0.16666667  0.93584433  0.27228251  1.0
  Ni  Ni1002  1  0.50000000  0.26917767  0.27228251  1.0
  Ni  Ni1003  1  0.50000000  0.60251100  0.27228251  1.0
  Ni  Ni1004  1  0.50000000  0.93584433  0.27228251  1.0
  Ni  Ni1005  1  0.83333333  0.26917767  0.27228251  1.0
  Ni  Ni1006  1  0.83333333  0.60251100  0.27228251  1.0
  Ni  Ni1007  1  0.83333333  0.93584433  0.27228251  1.0
  Ni  Ni1008  1  0.06229400  0.26917767  0.19148394  1.0
  Ni  Ni1009  1  0.06229400  0.60251100  0.19148394  1.0
  Ni  Ni1010  1  0.06229400  0.93584433  0.19148394  1.0
  Ni  Ni1011  1  0.39562733  0.26917767  0.19148394  1.0
  Ni  Ni1012  1  0.39562733  0.60251100  0.19148394  1.0
  Ni  Ni1013  1  0.39562733  0.93584433  0.19148394  1.0
  Ni  Ni1014  1  0.72896067  0.26917767  0.19148394  1.0
  Ni  Ni1015  1  0.72896067  0.60251100  0.19148394  1.0
  Ni  Ni1016  1  0.72896067  0.93584433  0.19148394  1.0
  Ni  Ni1017  1  0.22896067  0.26917767  0.26291251  1.0
  Ni  Ni1018  1  0.22896067  0.60251100  0.26291251  1.0
  Ni  Ni1019  1  0.22896067  0.93584433  0.26291251  1.0
  Ni  Ni1020  1  0.56229400  0.26917767  0.26291251  1.0
  Ni  Ni1021  1  0.56229400  0.60251100  0.26291251  1.0
  Ni  Ni1022  1  0.56229400  0.93584433  0.26291251  1.0
  Ni  Ni1023  1  0.89562733  0.26917767  0.26291251  1.0
  Ni  Ni1024  1  0.89562733  0.60251100  0.26291251  1.0
  Ni  Ni1025  1  0.89562733  0.93584433  0.26291251  1.0
  Ni  Ni1026  1  0.06229400  0.10251100  0.20951765  1.0
  Ni  Ni1027  1  0.06229400  0.43584433  0.20951765  1.0
  Ni  Ni1028  1  0.06229400  0.76917767  0.20951765  1.0
  Ni  Ni1029  1  0.39562733  0.10251100  0.20951765  1.0
  Ni  Ni1030  1  0.39562733  0.43584433  0.20951765  1.0
  Ni  Ni1031  1  0.39562733  0.76917767  0.20951765  1.0
  Ni  Ni1032  1  0.72896067  0.10251100  0.20951765  1.0
  Ni  Ni1033  1  0.72896067  0.43584433  0.20951765  1.0
  Ni  Ni1034  1  0.72896067  0.76917767  0.20951765  1.0
  Ni  Ni1035  1  0.22896067  0.10251100  0.28094623  1.0
  Ni  Ni1036  1  0.22896067  0.43584433  0.28094623  1.0
  Ni  Ni1037  1  0.22896067  0.76917767  0.28094623  1.0
  Ni  Ni1038  1  0.56229400  0.10251100  0.28094623  1.0
  Ni  Ni1039  1  0.56229400  0.43584433  0.28094623  1.0
  Ni  Ni1040  1  0.56229400  0.76917767  0.28094623  1.0
  Ni  Ni1041  1  0.89562733  0.10251100  0.28094623  1.0
  Ni  Ni1042  1  0.89562733  0.43584433  0.28094623  1.0
  Ni  Ni1043  1  0.89562733  0.76917767  0.28094623  1.0
  Ni  Ni1044  1  0.00000000  0.10251100  0.23621508  1.0
  Ni  Ni1045  1  0.00000000  0.43584433  0.23621508  1.0
  Ni  Ni1046  1  0.00000000  0.76917767  0.23621508  1.0
  Ni  Ni1047  1  0.33333333  0.10251100  0.23621508  1.0
  Ni  Ni1048  1  0.33333333  0.43584433  0.23621508  1.0
  Ni  Ni1049  1  0.33333333  0.76917767  0.23621508  1.0
  Ni  Ni1050  1  0.66666667  0.10251100  0.23621508  1.0
  Ni  Ni1051  1  0.66666667  0.43584433  0.23621508  1.0
  Ni  Ni1052  1  0.66666667  0.76917767  0.23621508  1.0
  Ni  Ni1053  1  0.16666667  0.10251100  0.16478651  1.0
  Ni  Ni1054  1  0.16666667  0.43584433  0.16478651  1.0
  Ni  Ni1055  1  0.16666667  0.76917767  0.16478651  1.0
  Ni  Ni1056  1  0.50000000  0.10251100  0.16478651  1.0
  Ni  Ni1057  1  0.50000000  0.43584433  0.16478651  1.0
  Ni  Ni1058  1  0.50000000  0.76917767  0.16478651  1.0
  Ni  Ni1059  1  0.83333333  0.10251100  0.16478651  1.0
  Ni  Ni1060  1  0.83333333  0.43584433  0.16478651  1.0
  Ni  Ni1061  1  0.83333333  0.76917767  0.16478651  1.0
  Ni  Ni1062  1  0.10437267  0.10251100  0.17415651  1.0
  Ni  Ni1063  1  0.10437267  0.43584433  0.17415651  1.0
  Ni  Ni1064  1  0.10437267  0.76917767  0.17415651  1.0
  Ni  Ni1065  1  0.43770600  0.10251100  0.17415651  1.0
  Ni  Ni1066  1  0.43770600  0.43584433  0.17415651  1.0
  Ni  Ni1067  1  0.43770600  0.76917767  0.17415651  1.0
  Ni  Ni1068  1  0.77103933  0.10251100  0.17415651  1.0
  Ni  Ni1069  1  0.77103933  0.43584433  0.17415651  1.0
  Ni  Ni1070  1  0.77103933  0.76917767  0.17415651  1.0
  Ni  Ni1071  1  0.27103933  0.10251100  0.24558508  1.0
  Ni  Ni1072  1  0.27103933  0.43584433  0.24558508  1.0
  Ni  Ni1073  1  0.27103933  0.76917767  0.24558508  1.0
  Ni  Ni1074  1  0.60437267  0.10251100  0.24558508  1.0
  Ni  Ni1075  1  0.60437267  0.43584433  0.24558508  1.0
  Ni  Ni1076  1  0.60437267  0.76917767  0.24558508  1.0
  Ni  Ni1077  1  0.93770600  0.10251100  0.24558508  1.0
  Ni  Ni1078  1  0.93770600  0.43584433  0.24558508  1.0
  Ni  Ni1079  1  0.93770600  0.76917767  0.24558508  1.0
  Ni  Ni1080  1  0.05137817  0.23191367  0.26029773  1.0
  Ni  Ni1081  1  0.05137817  0.56524700  0.26029773  1.0
  Ni  Ni1082  1  0.05137817  0.89858033  0.26029773  1.0
  Ni  Ni1083  1  0.38471150  0.23191367  0.26029773  1.0
  Ni  Ni1084  1  0.38471150  0.56524700  0.26029773  1.0
  Ni  Ni1085  1  0.38471150  0.89858033  0.26029773  1.0
  Ni  Ni1086  1  0.71804483  0.23191367  0.26029773  1.0
  Ni  Ni1087  1  0.71804483  0.56524700  0.26029773  1.0
  Ni  Ni1088  1  0.71804483  0.89858033  0.26029773  1.0
  Ni  Ni1089  1  0.21804483  0.23191367  0.18886915  1.0
  Ni  Ni1090  1  0.21804483  0.56524700  0.18886915  1.0
  Ni  Ni1091  1  0.21804483  0.89858033  0.18886915  1.0
  Ni  Ni1092  1  0.55137817  0.23191367  0.18886915  1.0
  Ni  Ni1093  1  0.55137817  0.56524700  0.18886915  1.0
  Ni  Ni1094  1  0.55137817  0.89858033  0.18886915  1.0
  Ni  Ni1095  1  0.88471150  0.23191367  0.18886915  1.0
  Ni  Ni1096  1  0.88471150  0.56524700  0.18886915  1.0
  Ni  Ni1097  1  0.88471150  0.89858033  0.18886915  1.0
  Ni  Ni1098  1  0.00000000  0.23191367  0.28231694  1.0
  Ni  Ni1099  1  0.00000000  0.56524700  0.28231694  1.0
  Ni  Ni1100  1  0.00000000  0.89858033  0.28231694  1.0
  Ni  Ni1101  1  0.33333333  0.23191367  0.28231694  1.0
  Ni  Ni1102  1  0.33333333  0.56524700  0.28231694  1.0
  Ni  Ni1103  1  0.33333333  0.89858033  0.28231694  1.0
  Ni  Ni1104  1  0.66666667  0.23191367  0.28231694  1.0
  Ni  Ni1105  1  0.66666667  0.56524700  0.28231694  1.0
  Ni  Ni1106  1  0.66666667  0.89858033  0.28231694  1.0
  Ni  Ni1107  1  0.16666667  0.23191367  0.21088837  1.0
  Ni  Ni1108  1  0.16666667  0.56524700  0.21088837  1.0
  Ni  Ni1109  1  0.16666667  0.89858033  0.21088837  1.0
  Ni  Ni1110  1  0.50000000  0.23191367  0.21088837  1.0
  Ni  Ni1111  1  0.50000000  0.56524700  0.21088837  1.0
  Ni  Ni1112  1  0.50000000  0.89858033  0.21088837  1.0
  Ni  Ni1113  1  0.83333333  0.23191367  0.21088837  1.0
  Ni  Ni1114  1  0.83333333  0.56524700  0.21088837  1.0
  Ni  Ni1115  1  0.83333333  0.89858033  0.21088837  1.0
  Ni  Ni1116  1  0.11528850  0.23191367  0.24364944  1.0
  Ni  Ni1117  1  0.11528850  0.56524700  0.24364944  1.0
  Ni  Ni1118  1  0.11528850  0.89858033  0.24364944  1.0
  Ni  Ni1119  1  0.44862183  0.23191367  0.24364944  1.0
  Ni  Ni1120  1  0.44862183  0.56524700  0.24364944  1.0
  Ni  Ni1121  1  0.44862183  0.89858033  0.24364944  1.0
  Ni  Ni1122  1  0.78195517  0.23191367  0.24364944  1.0
  Ni  Ni1123  1  0.78195517  0.56524700  0.24364944  1.0
  Ni  Ni1124  1  0.78195517  0.89858033  0.24364944  1.0
  Ni  Ni1125  1  0.28195517  0.23191367  0.17222087  1.0
  Ni  Ni1126  1  0.28195517  0.56524700  0.17222087  1.0
  Ni  Ni1127  1  0.28195517  0.89858033  0.17222087  1.0
  Ni  Ni1128  1  0.61528850  0.23191367  0.17222087  1.0
  Ni  Ni1129  1  0.61528850  0.56524700  0.17222087  1.0
  Ni  Ni1130  1  0.61528850  0.89858033  0.17222087  1.0
  Ni  Ni1131  1  0.94862183  0.23191367  0.17222087  1.0
  Ni  Ni1132  1  0.94862183  0.56524700  0.17222087  1.0
  Ni  Ni1133  1  0.94862183  0.89858033  0.17222087  1.0
  Ni  Ni1134  1  0.11528850  0.06524700  0.21625930  1.0
  Ni  Ni1135  1  0.11528850  0.39858033  0.21625930  1.0
  Ni  Ni1136  1  0.11528850  0.73191367  0.21625930  1.0
  Ni  Ni1137  1  0.44862183  0.06524700  0.21625930  1.0
  Ni  Ni1138  1  0.44862183  0.39858033  0.21625930  1.0
  Ni  Ni1139  1  0.44862183  0.73191367  0.21625930  1.0
  Ni  Ni1140  1  0.78195517  0.06524700  0.21625930  1.0
  Ni  Ni1141  1  0.78195517  0.39858033  0.21625930  1.0
  Ni  Ni1142  1  0.78195517  0.73191367  0.21625930  1.0
  Ni  Ni1143  1  0.28195517  0.06524700  0.14483073  1.0
  Ni  Ni1144  1  0.28195517  0.39858033  0.14483073  1.0
  Ni  Ni1145  1  0.28195517  0.73191367  0.14483073  1.0
  Ni  Ni1146  1  0.61528850  0.06524700  0.14483073  1.0
  Ni  Ni1147  1  0.61528850  0.39858033  0.14483073  1.0
  Ni  Ni1148  1  0.61528850  0.73191367  0.14483073  1.0
  Ni  Ni1149  1  0.94862183  0.06524700  0.14483073  1.0
  Ni  Ni1150  1  0.94862183  0.39858033  0.14483073  1.0
  Ni  Ni1151  1  0.94862183  0.73191367  0.14483073  1.0
  Ni  Ni1152  1  0.00000000  0.06524700  0.26566865  1.0
  Ni  Ni1153  1  0.00000000  0.39858033  0.26566865  1.0
  Ni  Ni1154  1  0.00000000  0.73191367  0.26566865  1.0
  Ni  Ni1155  1  0.33333333  0.06524700  0.26566865  1.0
  Ni  Ni1156  1  0.33333333  0.39858033  0.26566865  1.0
  Ni  Ni1157  1  0.33333333  0.73191367  0.26566865  1.0
  Ni  Ni1158  1  0.66666667  0.06524700  0.26566865  1.0
  Ni  Ni1159  1  0.66666667  0.39858033  0.26566865  1.0
  Ni  Ni1160  1  0.66666667  0.73191367  0.26566865  1.0
  Ni  Ni1161  1  0.16666667  0.06524700  0.19424008  1.0
  Ni  Ni1162  1  0.16666667  0.39858033  0.19424008  1.0
  Ni  Ni1163  1  0.16666667  0.73191367  0.19424008  1.0
  Ni  Ni1164  1  0.50000000  0.06524700  0.19424008  1.0
  Ni  Ni1165  1  0.50000000  0.39858033  0.19424008  1.0
  Ni  Ni1166  1  0.50000000  0.73191367  0.19424008  1.0
  Ni  Ni1167  1  0.83333333  0.06524700  0.19424008  1.0
  Ni  Ni1168  1  0.83333333  0.39858033  0.19424008  1.0
  Ni  Ni1169  1  0.83333333  0.73191367  0.19424008  1.0
  Ni  Ni1170  1  0.05137817  0.06524700  0.23290758  1.0
  Ni  Ni1171  1  0.05137817  0.39858033  0.23290758  1.0
  Ni  Ni1172  1  0.05137817  0.73191367  0.23290758  1.0
  Ni  Ni1173  1  0.38471150  0.06524700  0.23290758  1.0
  Ni  Ni1174  1  0.38471150  0.39858033  0.23290758  1.0
  Ni  Ni1175  1  0.38471150  0.73191367  0.23290758  1.0
  Ni  Ni1176  1  0.71804483  0.06524700  0.23290758  1.0
  Ni  Ni1177  1  0.71804483  0.39858033  0.23290758  1.0
  Ni  Ni1178  1  0.71804483  0.73191367  0.23290758  1.0
  Ni  Ni1179  1  0.21804483  0.06524700  0.16147901  1.0
  Ni  Ni1180  1  0.21804483  0.39858033  0.16147901  1.0
  Ni  Ni1181  1  0.21804483  0.73191367  0.16147901  1.0
  Ni  Ni1182  1  0.55137817  0.06524700  0.16147901  1.0
  Ni  Ni1183  1  0.55137817  0.39858033  0.16147901  1.0
  Ni  Ni1184  1  0.55137817  0.73191367  0.16147901  1.0
  Ni  Ni1185  1  0.88471150  0.06524700  0.16147901  1.0
  Ni  Ni1186  1  0.88471150  0.39858033  0.16147901  1.0
  Ni  Ni1187  1  0.88471150  0.73191367  0.16147901  1.0
  Ni  Ni1188  1  0.10547783  0.19943433  0.26956358  1.0
  Ni  Ni1189  1  0.10547783  0.53276767  0.26956358  1.0
  Ni  Ni1190  1  0.10547783  0.86610100  0.26956358  1.0
  Ni  Ni1191  1  0.43881117  0.19943433  0.26956358  1.0
  Ni  Ni1192  1  0.43881117  0.53276767  0.26956358  1.0
  Ni  Ni1193  1  0.43881117  0.86610100  0.26956358  1.0
  Ni  Ni1194  1  0.77214450  0.19943433  0.26956358  1.0
  Ni  Ni1195  1  0.77214450  0.53276767  0.26956358  1.0
  Ni  Ni1196  1  0.77214450  0.86610100  0.26956358  1.0
  Ni  Ni1197  1  0.27214450  0.19943433  0.19813501  1.0
  Ni  Ni1198  1  0.27214450  0.53276767  0.19813501  1.0
  Ni  Ni1199  1  0.27214450  0.86610100  0.19813501  1.0
  Ni  Ni1200  1  0.60547783  0.19943433  0.19813501  1.0
  Ni  Ni1201  1  0.60547783  0.53276767  0.19813501  1.0
  Ni  Ni1202  1  0.60547783  0.86610100  0.19813501  1.0
  Ni  Ni1203  1  0.93881117  0.19943433  0.19813501  1.0
  Ni  Ni1204  1  0.93881117  0.53276767  0.19813501  1.0
  Ni  Ni1205  1  0.93881117  0.86610100  0.19813501  1.0
  Ni  Ni1206  1  0.00000000  0.19943433  0.17191123  1.0
  Ni  Ni1207  1  0.00000000  0.53276767  0.17191123  1.0
  Ni  Ni1208  1  0.00000000  0.86610100  0.17191123  1.0
  Ni  Ni1209  1  0.33333333  0.19943433  0.17191123  1.0
  Ni  Ni1210  1  0.33333333  0.53276767  0.17191123  1.0
  Ni  Ni1211  1  0.33333333  0.86610100  0.17191123  1.0
  Ni  Ni1212  1  0.66666667  0.19943433  0.17191123  1.0
  Ni  Ni1213  1  0.66666667  0.53276767  0.17191123  1.0
  Ni  Ni1214  1  0.66666667  0.86610100  0.17191123  1.0
  Ni  Ni1215  1  0.16666667  0.19943433  0.24333980  1.0
  Ni  Ni1216  1  0.16666667  0.53276767  0.24333980  1.0
  Ni  Ni1217  1  0.16666667  0.86610100  0.24333980  1.0
  Ni  Ni1218  1  0.50000000  0.19943433  0.24333980  1.0
  Ni  Ni1219  1  0.50000000  0.53276767  0.24333980  1.0
  Ni  Ni1220  1  0.50000000  0.86610100  0.24333980  1.0
  Ni  Ni1221  1  0.83333333  0.19943433  0.24333980  1.0
  Ni  Ni1222  1  0.83333333  0.53276767  0.24333980  1.0
  Ni  Ni1223  1  0.83333333  0.86610100  0.24333980  1.0
  Ni  Ni1224  1  0.06118883  0.19943433  0.16017301  1.0
  Ni  Ni1225  1  0.06118883  0.53276767  0.16017301  1.0
  Ni  Ni1226  1  0.06118883  0.86610100  0.16017301  1.0
  Ni  Ni1227  1  0.39452217  0.19943433  0.16017301  1.0
  Ni  Ni1228  1  0.39452217  0.53276767  0.16017301  1.0
  Ni  Ni1229  1  0.39452217  0.86610100  0.16017301  1.0
  Ni  Ni1230  1  0.72785550  0.19943433  0.16017301  1.0
  Ni  Ni1231  1  0.72785550  0.53276767  0.16017301  1.0
  Ni  Ni1232  1  0.72785550  0.86610100  0.16017301  1.0
  Ni  Ni1233  1  0.22785550  0.19943433  0.23160158  1.0
  Ni  Ni1234  1  0.22785550  0.53276767  0.23160158  1.0
  Ni  Ni1235  1  0.22785550  0.86610100  0.23160158  1.0
  Ni  Ni1236  1  0.56118883  0.19943433  0.23160158  1.0
  Ni  Ni1237  1  0.56118883  0.53276767  0.23160158  1.0
  Ni  Ni1238  1  0.56118883  0.86610100  0.23160158  1.0
  Ni  Ni1239  1  0.89452217  0.19943433  0.23160158  1.0
  Ni  Ni1240  1  0.89452217  0.53276767  0.23160158  1.0
  Ni  Ni1241  1  0.89452217  0.86610100  0.23160158  1.0
  Ni  Ni1242  1  0.06118883  0.03276767  0.17915401  1.0
  Ni  Ni1243  1  0.06118883  0.36610100  0.17915401  1.0
  Ni  Ni1244  1  0.06118883  0.69943433  0.17915401  1.0
  Ni  Ni1245  1  0.39452217  0.03276767  0.17915401  1.0
  Ni  Ni1246  1  0.39452217  0.36610100  0.17915401  1.0
  Ni  Ni1247  1  0.39452217  0.69943433  0.17915401  1.0
  Ni  Ni1248  1  0.72785550  0.03276767  0.17915401  1.0
  Ni  Ni1249  1  0.72785550  0.36610100  0.17915401  1.0
  Ni  Ni1250  1  0.72785550  0.69943433  0.17915401  1.0
  Ni  Ni1251  1  0.22785550  0.03276767  0.25058258  1.0
  Ni  Ni1252  1  0.22785550  0.36610100  0.25058258  1.0
  Ni  Ni1253  1  0.22785550  0.69943433  0.25058258  1.0
  Ni  Ni1254  1  0.56118883  0.03276767  0.25058258  1.0
  Ni  Ni1255  1  0.56118883  0.36610100  0.25058258  1.0
  Ni  Ni1256  1  0.56118883  0.69943433  0.25058258  1.0
  Ni  Ni1257  1  0.89452217  0.03276767  0.25058258  1.0
  Ni  Ni1258  1  0.89452217  0.36610100  0.25058258  1.0
  Ni  Ni1259  1  0.89452217  0.69943433  0.25058258  1.0
  Ni  Ni1260  1  0.00000000  0.03276767  0.20537780  1.0
  Ni  Ni1261  1  0.00000000  0.36610100  0.20537780  1.0
  Ni  Ni1262  1  0.00000000  0.69943433  0.20537780  1.0
  Ni  Ni1263  1  0.33333333  0.03276767  0.20537780  1.0
  Ni  Ni1264  1  0.33333333  0.36610100  0.20537780  1.0
  Ni  Ni1265  1  0.33333333  0.69943433  0.20537780  1.0
  Ni  Ni1266  1  0.66666667  0.03276767  0.20537780  1.0
  Ni  Ni1267  1  0.66666667  0.36610100  0.20537780  1.0
  Ni  Ni1268  1  0.66666667  0.69943433  0.20537780  1.0
  Ni  Ni1269  1  0.16666667  0.03276767  0.27680637  1.0
  Ni  Ni1270  1  0.16666667  0.36610100  0.27680637  1.0
  Ni  Ni1271  1  0.16666667  0.69943433  0.27680637  1.0
  Ni  Ni1272  1  0.50000000  0.03276767  0.27680637  1.0
  Ni  Ni1273  1  0.50000000  0.36610100  0.27680637  1.0
  Ni  Ni1274  1  0.50000000  0.69943433  0.27680637  1.0
  Ni  Ni1275  1  0.83333333  0.03276767  0.27680637  1.0
  Ni  Ni1276  1  0.83333333  0.36610100  0.27680637  1.0
  Ni  Ni1277  1  0.83333333  0.69943433  0.27680637  1.0
  Ni  Ni1278  1  0.10547783  0.03276767  0.14568744  1.0
  Ni  Ni1279  1  0.10547783  0.36610100  0.14568744  1.0
  Ni  Ni1280  1  0.10547783  0.69943433  0.14568744  1.0
  Ni  Ni1281  1  0.43881117  0.03276767  0.14568744  1.0
  Ni  Ni1282  1  0.43881117  0.36610100  0.14568744  1.0
  Ni  Ni1283  1  0.43881117  0.69943433  0.14568744  1.0
  Ni  Ni1284  1  0.77214450  0.03276767  0.14568744  1.0
  Ni  Ni1285  1  0.77214450  0.36610100  0.14568744  1.0
  Ni  Ni1286  1  0.77214450  0.69943433  0.14568744  1.0
  Ni  Ni1287  1  0.27214450  0.03276767  0.21711601  1.0
  Ni  Ni1288  1  0.27214450  0.36610100  0.21711601  1.0
  Ni  Ni1289  1  0.27214450  0.69943433  0.21711601  1.0
  Ni  Ni1290  1  0.60547783  0.03276767  0.21711601  1.0
  Ni  Ni1291  1  0.60547783  0.36610100  0.21711601  1.0
  Ni  Ni1292  1  0.60547783  0.69943433  0.21711601  1.0
  Ni  Ni1293  1  0.93881117  0.03276767  0.21711601  1.0
  Ni  Ni1294  1  0.93881117  0.36610100  0.21711601  1.0
  Ni  Ni1295  1  0.93881117  0.69943433  0.21711601  1.0
  Ge  Ge1296  1  0.00000000  0.25839933  0.24962951  1.0
  Ge  Ge1297  1  0.00000000  0.59173267  0.24962951  1.0
  Ge  Ge1298  1  0.00000000  0.92506600  0.24962951  1.0
  Ge  Ge1299  1  0.33333333  0.25839933  0.24962951  1.0
  Ge  Ge1300  1  0.33333333  0.59173267  0.24962951  1.0
  Ge  Ge1301  1  0.33333333  0.92506600  0.24962951  1.0
  Ge  Ge1302  1  0.66666667  0.25839933  0.24962951  1.0
  Ge  Ge1303  1  0.66666667  0.59173267  0.24962951  1.0
  Ge  Ge1304  1  0.66666667  0.92506600  0.24962951  1.0
  Ge  Ge1305  1  0.16666667  0.25839933  0.17820094  1.0
  Ge  Ge1306  1  0.16666667  0.59173267  0.17820094  1.0
  Ge  Ge1307  1  0.16666667  0.92506600  0.17820094  1.0
  Ge  Ge1308  1  0.50000000  0.25839933  0.17820094  1.0
  Ge  Ge1309  1  0.50000000  0.59173267  0.17820094  1.0
  Ge  Ge1310  1  0.50000000  0.92506600  0.17820094  1.0
  Ge  Ge1311  1  0.83333333  0.25839933  0.17820094  1.0
  Ge  Ge1312  1  0.83333333  0.59173267  0.17820094  1.0
  Ge  Ge1313  1  0.83333333  0.92506600  0.17820094  1.0
  Ge  Ge1314  1  0.00000000  0.09173267  0.17820094  1.0
  Ge  Ge1315  1  0.00000000  0.42506600  0.17820094  1.0
  Ge  Ge1316  1  0.00000000  0.75839933  0.17820094  1.0
  Ge  Ge1317  1  0.33333333  0.09173267  0.17820094  1.0
  Ge  Ge1318  1  0.33333333  0.42506600  0.17820094  1.0
  Ge  Ge1319  1  0.33333333  0.75839933  0.17820094  1.0
  Ge  Ge1320  1  0.66666667  0.09173267  0.17820094  1.0
  Ge  Ge1321  1  0.66666667  0.42506600  0.17820094  1.0
  Ge  Ge1322  1  0.66666667  0.75839933  0.17820094  1.0
  Ge  Ge1323  1  0.16666667  0.09173267  0.24962951  1.0
  Ge  Ge1324  1  0.16666667  0.42506600  0.24962951  1.0
  Ge  Ge1325  1  0.16666667  0.75839933  0.24962951  1.0
  Ge  Ge1326  1  0.50000000  0.09173267  0.24962951  1.0
  Ge  Ge1327  1  0.50000000  0.42506600  0.24962951  1.0
  Ge  Ge1328  1  0.50000000  0.75839933  0.24962951  1.0
  Ge  Ge1329  1  0.83333333  0.09173267  0.24962951  1.0
  Ge  Ge1330  1  0.83333333  0.42506600  0.24962951  1.0
  Ge  Ge1331  1  0.83333333  0.75839933  0.24962951  1.0
  Ge  Ge1332  1  0.11111111  0.24028133  0.19424561  1.0
  Ge  Ge1333  1  0.11111111  0.57361467  0.19424561  1.0
  Ge  Ge1334  1  0.11111111  0.90694800  0.19424561  1.0
  Ge  Ge1335  1  0.44444444  0.24028133  0.19424561  1.0
  Ge  Ge1336  1  0.44444444  0.57361467  0.19424561  1.0
  Ge  Ge1337  1  0.44444444  0.90694800  0.19424561  1.0
  Ge  Ge1338  1  0.77777778  0.24028133  0.19424561  1.0
  Ge  Ge1339  1  0.77777778  0.57361467  0.19424561  1.0
  Ge  Ge1340  1  0.77777778  0.90694800  0.19424561  1.0
  Ge  Ge1341  1  0.27777778  0.24028133  0.26567418  1.0
  Ge  Ge1342  1  0.27777778  0.57361467  0.26567418  1.0
  Ge  Ge1343  1  0.27777778  0.90694800  0.26567418  1.0
  Ge  Ge1344  1  0.61111111  0.24028133  0.26567418  1.0
  Ge  Ge1345  1  0.61111111  0.57361467  0.26567418  1.0
  Ge  Ge1346  1  0.61111111  0.90694800  0.26567418  1.0
  Ge  Ge1347  1  0.94444444  0.24028133  0.26567418  1.0
  Ge  Ge1348  1  0.94444444  0.57361467  0.26567418  1.0
  Ge  Ge1349  1  0.94444444  0.90694800  0.26567418  1.0
  Ge  Ge1350  1  0.05555556  0.24028133  0.21805513  1.0
  Ge  Ge1351  1  0.05555556  0.57361467  0.21805513  1.0
  Ge  Ge1352  1  0.05555556  0.90694800  0.21805513  1.0
  Ge  Ge1353  1  0.38888889  0.24028133  0.21805513  1.0
  Ge  Ge1354  1  0.38888889  0.57361467  0.21805513  1.0
  Ge  Ge1355  1  0.38888889  0.90694800  0.21805513  1.0
  Ge  Ge1356  1  0.72222222  0.24028133  0.21805513  1.0
  Ge  Ge1357  1  0.72222222  0.57361467  0.21805513  1.0
  Ge  Ge1358  1  0.72222222  0.90694800  0.21805513  1.0
  Ge  Ge1359  1  0.22222222  0.24028133  0.14662656  1.0
  Ge  Ge1360  1  0.22222222  0.57361467  0.14662656  1.0
  Ge  Ge1361  1  0.22222222  0.90694800  0.14662656  1.0
  Ge  Ge1362  1  0.55555556  0.24028133  0.14662656  1.0
  Ge  Ge1363  1  0.55555556  0.57361467  0.14662656  1.0
  Ge  Ge1364  1  0.55555556  0.90694800  0.14662656  1.0
  Ge  Ge1365  1  0.88888889  0.24028133  0.14662656  1.0
  Ge  Ge1366  1  0.88888889  0.57361467  0.14662656  1.0
  Ge  Ge1367  1  0.88888889  0.90694800  0.14662656  1.0
  Ge  Ge1368  1  0.05555556  0.07361467  0.14662656  1.0
  Ge  Ge1369  1  0.05555556  0.40694800  0.14662656  1.0
  Ge  Ge1370  1  0.05555556  0.74028133  0.14662656  1.0
  Ge  Ge1371  1  0.38888889  0.07361467  0.14662656  1.0
  Ge  Ge1372  1  0.38888889  0.40694800  0.14662656  1.0
  Ge  Ge1373  1  0.38888889  0.74028133  0.14662656  1.0
  Ge  Ge1374  1  0.72222222  0.07361467  0.14662656  1.0
  Ge  Ge1375  1  0.72222222  0.40694800  0.14662656  1.0
  Ge  Ge1376  1  0.72222222  0.74028133  0.14662656  1.0
  Ge  Ge1377  1  0.22222222  0.07361467  0.21805513  1.0
  Ge  Ge1378  1  0.22222222  0.40694800  0.21805513  1.0
  Ge  Ge1379  1  0.22222222  0.74028133  0.21805513  1.0
  Ge  Ge1380  1  0.55555556  0.07361467  0.21805513  1.0
  Ge  Ge1381  1  0.55555556  0.40694800  0.21805513  1.0
  Ge  Ge1382  1  0.55555556  0.74028133  0.21805513  1.0
  Ge  Ge1383  1  0.88888889  0.07361467  0.21805513  1.0
  Ge  Ge1384  1  0.88888889  0.40694800  0.21805513  1.0
  Ge  Ge1385  1  0.88888889  0.74028133  0.21805513  1.0
  Ge  Ge1386  1  0.11111111  0.07361467  0.26567418  1.0
  Ge  Ge1387  1  0.11111111  0.40694800  0.26567418  1.0
  Ge  Ge1388  1  0.11111111  0.74028133  0.26567418  1.0
  Ge  Ge1389  1  0.44444444  0.07361467  0.26567418  1.0
  Ge  Ge1390  1  0.44444444  0.40694800  0.26567418  1.0
  Ge  Ge1391  1  0.44444444  0.74028133  0.26567418  1.0
  Ge  Ge1392  1  0.77777778  0.07361467  0.26567418  1.0
  Ge  Ge1393  1  0.77777778  0.40694800  0.26567418  1.0
  Ge  Ge1394  1  0.77777778  0.74028133  0.26567418  1.0
  Ge  Ge1395  1  0.27777778  0.07361467  0.19424561  1.0
  Ge  Ge1396  1  0.27777778  0.40694800  0.19424561  1.0
  Ge  Ge1397  1  0.27777778  0.74028133  0.19424561  1.0
  Ge  Ge1398  1  0.61111111  0.07361467  0.19424561  1.0
  Ge  Ge1399  1  0.61111111  0.40694800  0.19424561  1.0
  Ge  Ge1400  1  0.61111111  0.74028133  0.19424561  1.0
  Ge  Ge1401  1  0.94444444  0.07361467  0.19424561  1.0
  Ge  Ge1402  1  0.94444444  0.40694800  0.19424561  1.0
  Ge  Ge1403  1  0.94444444  0.74028133  0.19424561  1.0
  Ge  Ge1404  1  0.11092417  0.00102933  0.18686701  1.0
  Ge  Ge1405  1  0.11092417  0.33436267  0.18686701  1.0
  Ge  Ge1406  1  0.11092417  0.66769600  0.18686701  1.0
  Ge  Ge1407  1  0.44425750  0.00102933  0.18686701  1.0
  Ge  Ge1408  1  0.44425750  0.33436267  0.18686701  1.0
  Ge  Ge1409  1  0.44425750  0.66769600  0.18686701  1.0
  Ge  Ge1410  1  0.77759083  0.00102933  0.18686701  1.0
  Ge  Ge1411  1  0.77759083  0.33436267  0.18686701  1.0
  Ge  Ge1412  1  0.77759083  0.66769600  0.18686701  1.0
  Ge  Ge1413  1  0.27759083  0.00102933  0.25829558  1.0
  Ge  Ge1414  1  0.27759083  0.33436267  0.25829558  1.0
  Ge  Ge1415  1  0.27759083  0.66769600  0.25829558  1.0
  Ge  Ge1416  1  0.61092417  0.00102933  0.25829558  1.0
  Ge  Ge1417  1  0.61092417  0.33436267  0.25829558  1.0
  Ge  Ge1418  1  0.61092417  0.66769600  0.25829558  1.0
  Ge  Ge1419  1  0.94425750  0.00102933  0.25829558  1.0
  Ge  Ge1420  1  0.94425750  0.33436267  0.25829558  1.0
  Ge  Ge1421  1  0.94425750  0.66769600  0.25829558  1.0
  Ge  Ge1422  1  0.00000000  0.00102933  0.23440594  1.0
  Ge  Ge1423  1  0.00000000  0.33436267  0.23440594  1.0
  Ge  Ge1424  1  0.00000000  0.66769600  0.23440594  1.0
  Ge  Ge1425  1  0.33333333  0.00102933  0.23440594  1.0
  Ge  Ge1426  1  0.33333333  0.33436267  0.23440594  1.0
  Ge  Ge1427  1  0.33333333  0.66769600  0.23440594  1.0
  Ge  Ge1428  1  0.66666667  0.00102933  0.23440594  1.0
  Ge  Ge1429  1  0.66666667  0.33436267  0.23440594  1.0
  Ge  Ge1430  1  0.66666667  0.66769600  0.23440594  1.0
  Ge  Ge1431  1  0.16666667  0.00102933  0.16297737  1.0
  Ge  Ge1432  1  0.16666667  0.33436267  0.16297737  1.0
  Ge  Ge1433  1  0.16666667  0.66769600  0.16297737  1.0
  Ge  Ge1434  1  0.50000000  0.00102933  0.16297737  1.0
  Ge  Ge1435  1  0.50000000  0.33436267  0.16297737  1.0
  Ge  Ge1436  1  0.50000000  0.66769600  0.16297737  1.0
  Ge  Ge1437  1  0.83333333  0.00102933  0.16297737  1.0
  Ge  Ge1438  1  0.83333333  0.33436267  0.16297737  1.0
  Ge  Ge1439  1  0.83333333  0.66769600  0.16297737  1.0
  Ge  Ge1440  1  0.05574250  0.00102933  0.21099701  1.0
  Ge  Ge1441  1  0.05574250  0.33436267  0.21099701  1.0
  Ge  Ge1442  1  0.05574250  0.66769600  0.21099701  1.0
  Ge  Ge1443  1  0.38907583  0.00102933  0.21099701  1.0
  Ge  Ge1444  1  0.38907583  0.33436267  0.21099701  1.0
  Ge  Ge1445  1  0.38907583  0.66769600  0.21099701  1.0
  Ge  Ge1446  1  0.72240917  0.00102933  0.21099701  1.0
  Ge  Ge1447  1  0.72240917  0.33436267  0.21099701  1.0
  Ge  Ge1448  1  0.72240917  0.66769600  0.21099701  1.0
  Ge  Ge1449  1  0.22240917  0.00102933  0.28242558  1.0
  Ge  Ge1450  1  0.22240917  0.33436267  0.28242558  1.0
  Ge  Ge1451  1  0.22240917  0.66769600  0.28242558  1.0
  Ge  Ge1452  1  0.55574250  0.00102933  0.28242558  1.0
  Ge  Ge1453  1  0.55574250  0.33436267  0.28242558  1.0
  Ge  Ge1454  1  0.55574250  0.66769600  0.28242558  1.0
  Ge  Ge1455  1  0.88907583  0.00102933  0.28242558  1.0
  Ge  Ge1456  1  0.88907583  0.33436267  0.28242558  1.0
  Ge  Ge1457  1  0.88907583  0.66769600  0.28242558  1.0
  Ge  Ge1458  1  0.05574250  0.16769600  0.23464630  1.0
  Ge  Ge1459  1  0.05574250  0.50102933  0.23464630  1.0
  Ge  Ge1460  1  0.05574250  0.83436267  0.23464630  1.0
  Ge  Ge1461  1  0.38907583  0.16769600  0.23464630  1.0
  Ge  Ge1462  1  0.38907583  0.50102933  0.23464630  1.0
  Ge  Ge1463  1  0.38907583  0.83436267  0.23464630  1.0
  Ge  Ge1464  1  0.72240917  0.16769600  0.23464630  1.0
  Ge  Ge1465  1  0.72240917  0.50102933  0.23464630  1.0
  Ge  Ge1466  1  0.72240917  0.83436267  0.23464630  1.0
  Ge  Ge1467  1  0.22240917  0.16769600  0.16321773  1.0
  Ge  Ge1468  1  0.22240917  0.50102933  0.16321773  1.0
  Ge  Ge1469  1  0.22240917  0.83436267  0.16321773  1.0
  Ge  Ge1470  1  0.55574250  0.16769600  0.16321773  1.0
  Ge  Ge1471  1  0.55574250  0.50102933  0.16321773  1.0
  Ge  Ge1472  1  0.55574250  0.83436267  0.16321773  1.0
  Ge  Ge1473  1  0.88907583  0.16769600  0.16321773  1.0
  Ge  Ge1474  1  0.88907583  0.50102933  0.16321773  1.0
  Ge  Ge1475  1  0.88907583  0.83436267  0.16321773  1.0
  Ge  Ge1476  1  0.00000000  0.16769600  0.25853594  1.0
  Ge  Ge1477  1  0.00000000  0.50102933  0.25853594  1.0
  Ge  Ge1478  1  0.00000000  0.83436267  0.25853594  1.0
  Ge  Ge1479  1  0.33333333  0.16769600  0.25853594  1.0
  Ge  Ge1480  1  0.33333333  0.50102933  0.25853594  1.0
  Ge  Ge1481  1  0.33333333  0.83436267  0.25853594  1.0
  Ge  Ge1482  1  0.66666667  0.16769600  0.25853594  1.0
  Ge  Ge1483  1  0.66666667  0.50102933  0.25853594  1.0
  Ge  Ge1484  1  0.66666667  0.83436267  0.25853594  1.0
  Ge  Ge1485  1  0.16666667  0.16769600  0.18710737  1.0
  Ge  Ge1486  1  0.16666667  0.50102933  0.18710737  1.0
  Ge  Ge1487  1  0.16666667  0.83436267  0.18710737  1.0
  Ge  Ge1488  1  0.50000000  0.16769600  0.18710737  1.0
  Ge  Ge1489  1  0.50000000  0.50102933  0.18710737  1.0
  Ge  Ge1490  1  0.50000000  0.83436267  0.18710737  1.0
  Ge  Ge1491  1  0.83333333  0.16769600  0.18710737  1.0
  Ge  Ge1492  1  0.83333333  0.50102933  0.18710737  1.0
  Ge  Ge1493  1  0.83333333  0.83436267  0.18710737  1.0
  Ge  Ge1494  1  0.11092417  0.16769600  0.21051630  1.0
  Ge  Ge1495  1  0.11092417  0.50102933  0.21051630  1.0
  Ge  Ge1496  1  0.11092417  0.83436267  0.21051630  1.0
  Ge  Ge1497  1  0.44425750  0.16769600  0.21051630  1.0
  Ge  Ge1498  1  0.44425750  0.50102933  0.21051630  1.0
  Ge  Ge1499  1  0.44425750  0.83436267  0.21051630  1.0
  Ge  Ge1500  1  0.77759083  0.16769600  0.21051630  1.0
  Ge  Ge1501  1  0.77759083  0.50102933  0.21051630  1.0
  Ge  Ge1502  1  0.77759083  0.83436267  0.21051630  1.0
  Ge  Ge1503  1  0.27759083  0.16769600  0.28194487  1.0
  Ge  Ge1504  1  0.27759083  0.50102933  0.28194487  1.0
  Ge  Ge1505  1  0.27759083  0.83436267  0.28194487  1.0
  Ge  Ge1506  1  0.61092417  0.16769600  0.28194487  1.0
  Ge  Ge1507  1  0.61092417  0.50102933  0.28194487  1.0
  Ge  Ge1508  1  0.61092417  0.83436267  0.28194487  1.0
  Ge  Ge1509  1  0.94425750  0.16769600  0.28194487  1.0
  Ge  Ge1510  1  0.94425750  0.50102933  0.28194487  1.0
  Ge  Ge1511  1  0.94425750  0.83436267  0.28194487  1.0
  Ni  Ni1512  1  0.00000000  0.02387867  0.29197780  1.0
  Ni  Ni1513  1  0.00000000  0.35721200  0.29197780  1.0
  Ni  Ni1514  1  0.00000000  0.69054533  0.29197780  1.0
  Ni  Ni1515  1  0.33333333  0.02387867  0.29197780  1.0
  Ni  Ni1516  1  0.33333333  0.35721200  0.29197780  1.0
  Ni  Ni1517  1  0.33333333  0.69054533  0.29197780  1.0
  Ni  Ni1518  1  0.66666667  0.02387867  0.29197780  1.0
  Ni  Ni1519  1  0.66666667  0.35721200  0.29197780  1.0
  Ni  Ni1520  1  0.66666667  0.69054533  0.29197780  1.0
  Ni  Ni1521  1  0.16666667  0.02387867  0.36340637  1.0
  Ni  Ni1522  1  0.16666667  0.35721200  0.36340637  1.0
  Ni  Ni1523  1  0.16666667  0.69054533  0.36340637  1.0
  Ni  Ni1524  1  0.50000000  0.02387867  0.36340637  1.0
  Ni  Ni1525  1  0.50000000  0.35721200  0.36340637  1.0
  Ni  Ni1526  1  0.50000000  0.69054533  0.36340637  1.0
  Ni  Ni1527  1  0.83333333  0.02387867  0.36340637  1.0
  Ni  Ni1528  1  0.83333333  0.35721200  0.36340637  1.0
  Ni  Ni1529  1  0.83333333  0.69054533  0.36340637  1.0
  Ni  Ni1530  1  0.00000000  0.19054533  0.36340637  1.0
  Ni  Ni1531  1  0.00000000  0.52387867  0.36340637  1.0
  Ni  Ni1532  1  0.00000000  0.85721200  0.36340637  1.0
  Ni  Ni1533  1  0.33333333  0.19054533  0.36340637  1.0
  Ni  Ni1534  1  0.33333333  0.52387867  0.36340637  1.0
  Ni  Ni1535  1  0.33333333  0.85721200  0.36340637  1.0
  Ni  Ni1536  1  0.66666667  0.19054533  0.36340637  1.0
  Ni  Ni1537  1  0.66666667  0.52387867  0.36340637  1.0
  Ni  Ni1538  1  0.66666667  0.85721200  0.36340637  1.0
  Ni  Ni1539  1  0.16666667  0.19054533  0.29197780  1.0
  Ni  Ni1540  1  0.16666667  0.52387867  0.29197780  1.0
  Ni  Ni1541  1  0.16666667  0.85721200  0.29197780  1.0
  Ni  Ni1542  1  0.50000000  0.19054533  0.29197780  1.0
  Ni  Ni1543  1  0.50000000  0.52387867  0.29197780  1.0
  Ni  Ni1544  1  0.50000000  0.85721200  0.29197780  1.0
  Ni  Ni1545  1  0.83333333  0.19054533  0.29197780  1.0
  Ni  Ni1546  1  0.83333333  0.52387867  0.29197780  1.0
  Ni  Ni1547  1  0.83333333  0.85721200  0.29197780  1.0
  Ni  Ni1548  1  0.11111111  0.30908700  0.36659089  1.0
  Ni  Ni1549  1  0.11111111  0.64242033  0.36659089  1.0
  Ni  Ni1550  1  0.11111111  0.97575367  0.36659089  1.0
  Ni  Ni1551  1  0.44444444  0.30908700  0.36659089  1.0
  Ni  Ni1552  1  0.44444444  0.64242033  0.36659089  1.0
  Ni  Ni1553  1  0.44444444  0.97575367  0.36659089  1.0
  Ni  Ni1554  1  0.77777778  0.30908700  0.36659089  1.0
  Ni  Ni1555  1  0.77777778  0.64242033  0.36659089  1.0
  Ni  Ni1556  1  0.77777778  0.97575367  0.36659089  1.0
  Ni  Ni1557  1  0.27777778  0.30908700  0.29516232  1.0
  Ni  Ni1558  1  0.27777778  0.64242033  0.29516232  1.0
  Ni  Ni1559  1  0.27777778  0.97575367  0.29516232  1.0
  Ni  Ni1560  1  0.61111111  0.30908700  0.29516232  1.0
  Ni  Ni1561  1  0.61111111  0.64242033  0.29516232  1.0
  Ni  Ni1562  1  0.61111111  0.97575367  0.29516232  1.0
  Ni  Ni1563  1  0.94444444  0.30908700  0.29516232  1.0
  Ni  Ni1564  1  0.94444444  0.64242033  0.29516232  1.0
  Ni  Ni1565  1  0.94444444  0.97575367  0.29516232  1.0
  Ni  Ni1566  1  0.05555556  0.30908700  0.39040042  1.0
  Ni  Ni1567  1  0.05555556  0.64242033  0.39040042  1.0
  Ni  Ni1568  1  0.05555556  0.97575367  0.39040042  1.0
  Ni  Ni1569  1  0.38888889  0.30908700  0.39040042  1.0
  Ni  Ni1570  1  0.38888889  0.64242033  0.39040042  1.0
  Ni  Ni1571  1  0.38888889  0.97575367  0.39040042  1.0
  Ni  Ni1572  1  0.72222222  0.30908700  0.39040042  1.0
  Ni  Ni1573  1  0.72222222  0.64242033  0.39040042  1.0
  Ni  Ni1574  1  0.72222222  0.97575367  0.39040042  1.0
  Ni  Ni1575  1  0.22222222  0.30908700  0.31897185  1.0
  Ni  Ni1576  1  0.22222222  0.64242033  0.31897185  1.0
  Ni  Ni1577  1  0.22222222  0.97575367  0.31897185  1.0
  Ni  Ni1578  1  0.55555556  0.30908700  0.31897185  1.0
  Ni  Ni1579  1  0.55555556  0.64242033  0.31897185  1.0
  Ni  Ni1580  1  0.55555556  0.97575367  0.31897185  1.0
  Ni  Ni1581  1  0.88888889  0.30908700  0.31897185  1.0
  Ni  Ni1582  1  0.88888889  0.64242033  0.31897185  1.0
  Ni  Ni1583  1  0.88888889  0.97575367  0.31897185  1.0
  Ni  Ni1584  1  0.05555556  0.14242033  0.31897185  1.0
  Ni  Ni1585  1  0.05555556  0.47575367  0.31897185  1.0
  Ni  Ni1586  1  0.05555556  0.80908700  0.31897185  1.0
  Ni  Ni1587  1  0.38888889  0.14242033  0.31897185  1.0
  Ni  Ni1588  1  0.38888889  0.47575367  0.31897185  1.0
  Ni  Ni1589  1  0.38888889  0.80908700  0.31897185  1.0
  Ni  Ni1590  1  0.72222222  0.14242033  0.31897185  1.0
  Ni  Ni1591  1  0.72222222  0.47575367  0.31897185  1.0
  Ni  Ni1592  1  0.72222222  0.80908700  0.31897185  1.0
  Ni  Ni1593  1  0.22222222  0.14242033  0.39040042  1.0
  Ni  Ni1594  1  0.22222222  0.47575367  0.39040042  1.0
  Ni  Ni1595  1  0.22222222  0.80908700  0.39040042  1.0
  Ni  Ni1596  1  0.55555556  0.14242033  0.39040042  1.0
  Ni  Ni1597  1  0.55555556  0.47575367  0.39040042  1.0
  Ni  Ni1598  1  0.55555556  0.80908700  0.39040042  1.0
  Ni  Ni1599  1  0.88888889  0.14242033  0.39040042  1.0
  Ni  Ni1600  1  0.88888889  0.47575367  0.39040042  1.0
  Ni  Ni1601  1  0.88888889  0.80908700  0.39040042  1.0
  Ni  Ni1602  1  0.11111111  0.14242033  0.29516232  1.0
  Ni  Ni1603  1  0.11111111  0.47575367  0.29516232  1.0
  Ni  Ni1604  1  0.11111111  0.80908700  0.29516232  1.0
  Ni  Ni1605  1  0.44444444  0.14242033  0.29516232  1.0
  Ni  Ni1606  1  0.44444444  0.47575367  0.29516232  1.0
  Ni  Ni1607  1  0.44444444  0.80908700  0.29516232  1.0
  Ni  Ni1608  1  0.77777778  0.14242033  0.29516232  1.0
  Ni  Ni1609  1  0.77777778  0.47575367  0.29516232  1.0
  Ni  Ni1610  1  0.77777778  0.80908700  0.29516232  1.0
  Ni  Ni1611  1  0.27777778  0.14242033  0.36659089  1.0
  Ni  Ni1612  1  0.27777778  0.47575367  0.36659089  1.0
  Ni  Ni1613  1  0.27777778  0.80908700  0.36659089  1.0
  Ni  Ni1614  1  0.61111111  0.14242033  0.36659089  1.0
  Ni  Ni1615  1  0.61111111  0.47575367  0.36659089  1.0
  Ni  Ni1616  1  0.61111111  0.80908700  0.36659089  1.0
  Ni  Ni1617  1  0.94444444  0.14242033  0.36659089  1.0
  Ni  Ni1618  1  0.94444444  0.47575367  0.36659089  1.0
  Ni  Ni1619  1  0.94444444  0.80908700  0.36659089  1.0
  Ni  Ni1620  1  0.04413200  0.30111100  0.28684823  1.0
  Ni  Ni1621  1  0.04413200  0.63444433  0.28684823  1.0
  Ni  Ni1622  1  0.04413200  0.96777767  0.28684823  1.0
  Ni  Ni1623  1  0.37746533  0.30111100  0.28684823  1.0
  Ni  Ni1624  1  0.37746533  0.63444433  0.28684823  1.0
  Ni  Ni1625  1  0.37746533  0.96777767  0.28684823  1.0
  Ni  Ni1626  1  0.71079867  0.30111100  0.28684823  1.0
  Ni  Ni1627  1  0.71079867  0.63444433  0.28684823  1.0
  Ni  Ni1628  1  0.71079867  0.96777767  0.28684823  1.0
  Ni  Ni1629  1  0.21079867  0.30111100  0.35827680  1.0
  Ni  Ni1630  1  0.21079867  0.63444433  0.35827680  1.0
  Ni  Ni1631  1  0.21079867  0.96777767  0.35827680  1.0
  Ni  Ni1632  1  0.54413200  0.30111100  0.35827680  1.0
  Ni  Ni1633  1  0.54413200  0.63444433  0.35827680  1.0
  Ni  Ni1634  1  0.54413200  0.96777767  0.35827680  1.0
  Ni  Ni1635  1  0.87746533  0.30111100  0.35827680  1.0
  Ni  Ni1636  1  0.87746533  0.63444433  0.35827680  1.0
  Ni  Ni1637  1  0.87746533  0.96777767  0.35827680  1.0
  Ni  Ni1638  1  0.00000000  0.30111100  0.30576194  1.0
  Ni  Ni1639  1  0.00000000  0.63444433  0.30576194  1.0
  Ni  Ni1640  1  0.00000000  0.96777767  0.30576194  1.0
  Ni  Ni1641  1  0.33333333  0.30111100  0.30576194  1.0
  Ni  Ni1642  1  0.33333333  0.63444433  0.30576194  1.0
  Ni  Ni1643  1  0.33333333  0.96777767  0.30576194  1.0
  Ni  Ni1644  1  0.66666667  0.30111100  0.30576194  1.0
  Ni  Ni1645  1  0.66666667  0.63444433  0.30576194  1.0
  Ni  Ni1646  1  0.66666667  0.96777767  0.30576194  1.0
  Ni  Ni1647  1  0.16666667  0.30111100  0.37719051  1.0
  Ni  Ni1648  1  0.16666667  0.63444433  0.37719051  1.0
  Ni  Ni1649  1  0.16666667  0.96777767  0.37719051  1.0
  Ni  Ni1650  1  0.50000000  0.30111100  0.37719051  1.0
  Ni  Ni1651  1  0.50000000  0.63444433  0.37719051  1.0
  Ni  Ni1652  1  0.50000000  0.96777767  0.37719051  1.0
  Ni  Ni1653  1  0.83333333  0.30111100  0.37719051  1.0
  Ni  Ni1654  1  0.83333333  0.63444433  0.37719051  1.0
  Ni  Ni1655  1  0.83333333  0.96777767  0.37719051  1.0
  Ni  Ni1656  1  0.12253467  0.30111100  0.42547908  1.0
  Ni  Ni1657  1  0.12253467  0.63444433  0.42547908  1.0
  Ni  Ni1658  1  0.12253467  0.96777767  0.42547908  1.0
  Ni  Ni1659  1  0.45586800  0.30111100  0.42547908  1.0
  Ni  Ni1660  1  0.45586800  0.63444433  0.42547908  1.0
  Ni  Ni1661  1  0.45586800  0.96777767  0.42547908  1.0
  Ni  Ni1662  1  0.78920133  0.30111100  0.42547908  1.0
  Ni  Ni1663  1  0.78920133  0.63444433  0.42547908  1.0
  Ni  Ni1664  1  0.78920133  0.96777767  0.42547908  1.0
  Ni  Ni1665  1  0.28920133  0.30111100  0.35405051  1.0
  Ni  Ni1666  1  0.28920133  0.63444433  0.35405051  1.0
  Ni  Ni1667  1  0.28920133  0.96777767  0.35405051  1.0
  Ni  Ni1668  1  0.62253467  0.30111100  0.35405051  1.0
  Ni  Ni1669  1  0.62253467  0.63444433  0.35405051  1.0
  Ni  Ni1670  1  0.62253467  0.96777767  0.35405051  1.0
  Ni  Ni1671  1  0.95586800  0.30111100  0.35405051  1.0
  Ni  Ni1672  1  0.95586800  0.63444433  0.35405051  1.0
  Ni  Ni1673  1  0.95586800  0.96777767  0.35405051  1.0
  Ni  Ni1674  1  0.12253467  0.13444433  0.39187794  1.0
  Ni  Ni1675  1  0.12253467  0.46777767  0.39187794  1.0
  Ni  Ni1676  1  0.12253467  0.80111100  0.39187794  1.0
  Ni  Ni1677  1  0.45586800  0.13444433  0.39187794  1.0
  Ni  Ni1678  1  0.45586800  0.46777767  0.39187794  1.0
  Ni  Ni1679  1  0.45586800  0.80111100  0.39187794  1.0
  Ni  Ni1680  1  0.78920133  0.13444433  0.39187794  1.0
  Ni  Ni1681  1  0.78920133  0.46777767  0.39187794  1.0
  Ni  Ni1682  1  0.78920133  0.80111100  0.39187794  1.0
  Ni  Ni1683  1  0.28920133  0.13444433  0.32044937  1.0
  Ni  Ni1684  1  0.28920133  0.46777767  0.32044937  1.0
  Ni  Ni1685  1  0.28920133  0.80111100  0.32044937  1.0
  Ni  Ni1686  1  0.62253467  0.13444433  0.32044937  1.0
  Ni  Ni1687  1  0.62253467  0.46777767  0.32044937  1.0
  Ni  Ni1688  1  0.62253467  0.80111100  0.32044937  1.0
  Ni  Ni1689  1  0.95586800  0.13444433  0.32044937  1.0
  Ni  Ni1690  1  0.95586800  0.46777767  0.32044937  1.0
  Ni  Ni1691  1  0.95586800  0.80111100  0.32044937  1.0
  Ni  Ni1692  1  0.00000000  0.13444433  0.30153565  1.0
  Ni  Ni1693  1  0.00000000  0.46777767  0.30153565  1.0
  Ni  Ni1694  1  0.00000000  0.80111100  0.30153565  1.0
  Ni  Ni1695  1  0.33333333  0.13444433  0.30153565  1.0
  Ni  Ni1696  1  0.33333333  0.46777767  0.30153565  1.0
  Ni  Ni1697  1  0.33333333  0.80111100  0.30153565  1.0
  Ni  Ni1698  1  0.66666667  0.13444433  0.30153565  1.0
  Ni  Ni1699  1  0.66666667  0.46777767  0.30153565  1.0
  Ni  Ni1700  1  0.66666667  0.80111100  0.30153565  1.0
  Ni  Ni1701  1  0.16666667  0.13444433  0.37296423  1.0
  Ni  Ni1702  1  0.16666667  0.46777767  0.37296423  1.0
  Ni  Ni1703  1  0.16666667  0.80111100  0.37296423  1.0
  Ni  Ni1704  1  0.50000000  0.13444433  0.37296423  1.0
  Ni  Ni1705  1  0.50000000  0.46777767  0.37296423  1.0
  Ni  Ni1706  1  0.50000000  0.80111100  0.37296423  1.0
  Ni  Ni1707  1  0.83333333  0.13444433  0.37296423  1.0
  Ni  Ni1708  1  0.83333333  0.46777767  0.37296423  1.0
  Ni  Ni1709  1  0.83333333  0.80111100  0.37296423  1.0
  Ni  Ni1710  1  0.04413200  0.13444433  0.39610423  1.0
  Ni  Ni1711  1  0.04413200  0.46777767  0.39610423  1.0
  Ni  Ni1712  1  0.04413200  0.80111100  0.39610423  1.0
  Ni  Ni1713  1  0.37746533  0.13444433  0.39610423  1.0
  Ni  Ni1714  1  0.37746533  0.46777767  0.39610423  1.0
  Ni  Ni1715  1  0.37746533  0.80111100  0.39610423  1.0
  Ni  Ni1716  1  0.71079867  0.13444433  0.39610423  1.0
  Ni  Ni1717  1  0.71079867  0.46777767  0.39610423  1.0
  Ni  Ni1718  1  0.71079867  0.80111100  0.39610423  1.0
  Ni  Ni1719  1  0.21079867  0.13444433  0.32467565  1.0
  Ni  Ni1720  1  0.21079867  0.46777767  0.32467565  1.0
  Ni  Ni1721  1  0.21079867  0.80111100  0.32467565  1.0
  Ni  Ni1722  1  0.54413200  0.13444433  0.32467565  1.0
  Ni  Ni1723  1  0.54413200  0.46777767  0.32467565  1.0
  Ni  Ni1724  1  0.54413200  0.80111100  0.32467565  1.0
  Ni  Ni1725  1  0.87746533  0.13444433  0.32467565  1.0
  Ni  Ni1726  1  0.87746533  0.46777767  0.32467565  1.0
  Ni  Ni1727  1  0.87746533  0.80111100  0.32467565  1.0
  Ni  Ni1728  1  0.10437267  0.26917767  0.29897994  1.0
  Ni  Ni1729  1  0.10437267  0.60251100  0.29897994  1.0
  Ni  Ni1730  1  0.10437267  0.93584433  0.29897994  1.0
  Ni  Ni1731  1  0.43770600  0.26917767  0.29897994  1.0
  Ni  Ni1732  1  0.43770600  0.60251100  0.29897994  1.0
  Ni  Ni1733  1  0.43770600  0.93584433  0.29897994  1.0
  Ni  Ni1734  1  0.77103933  0.26917767  0.29897994  1.0
  Ni  Ni1735  1  0.77103933  0.60251100  0.29897994  1.0
  Ni  Ni1736  1  0.77103933  0.93584433  0.29897994  1.0
  Ni  Ni1737  1  0.27103933  0.26917767  0.37040851  1.0
  Ni  Ni1738  1  0.27103933  0.60251100  0.37040851  1.0
  Ni  Ni1739  1  0.27103933  0.93584433  0.37040851  1.0
  Ni  Ni1740  1  0.60437267  0.26917767  0.37040851  1.0
  Ni  Ni1741  1  0.60437267  0.60251100  0.37040851  1.0
  Ni  Ni1742  1  0.60437267  0.93584433  0.37040851  1.0
  Ni  Ni1743  1  0.93770600  0.26917767  0.37040851  1.0
  Ni  Ni1744  1  0.93770600  0.60251100  0.37040851  1.0
  Ni  Ni1745  1  0.93770600  0.93584433  0.37040851  1.0
  Ni  Ni1746  1  0.00000000  0.26917767  0.34371108  1.0
  Ni  Ni1747  1  0.00000000  0.60251100  0.34371108  1.0
  Ni  Ni1748  1  0.00000000  0.93584433  0.34371108  1.0
  Ni  Ni1749  1  0.33333333  0.26917767  0.34371108  1.0
  Ni  Ni1750  1  0.33333333  0.60251100  0.34371108  1.0
  Ni  Ni1751  1  0.33333333  0.93584433  0.34371108  1.0
  Ni  Ni1752  1  0.66666667  0.26917767  0.34371108  1.0
  Ni  Ni1753  1  0.66666667  0.60251100  0.34371108  1.0
  Ni  Ni1754  1  0.66666667  0.93584433  0.34371108  1.0
  Ni  Ni1755  1  0.16666667  0.26917767  0.41513965  1.0
  Ni  Ni1756  1  0.16666667  0.60251100  0.41513965  1.0
  Ni  Ni1757  1  0.16666667  0.93584433  0.41513965  1.0
  Ni  Ni1758  1  0.50000000  0.26917767  0.41513965  1.0
  Ni  Ni1759  1  0.50000000  0.60251100  0.41513965  1.0
  Ni  Ni1760  1  0.50000000  0.93584433  0.41513965  1.0
  Ni  Ni1761  1  0.83333333  0.26917767  0.41513965  1.0
  Ni  Ni1762  1  0.83333333  0.60251100  0.41513965  1.0
  Ni  Ni1763  1  0.83333333  0.93584433  0.41513965  1.0
  Ni  Ni1764  1  0.06229400  0.26917767  0.33434108  1.0
  Ni  Ni1765  1  0.06229400  0.60251100  0.33434108  1.0
  Ni  Ni1766  1  0.06229400  0.93584433  0.33434108  1.0
  Ni  Ni1767  1  0.39562733  0.26917767  0.33434108  1.0
  Ni  Ni1768  1  0.39562733  0.60251100  0.33434108  1.0
  Ni  Ni1769  1  0.39562733  0.93584433  0.33434108  1.0
  Ni  Ni1770  1  0.72896067  0.26917767  0.33434108  1.0
  Ni  Ni1771  1  0.72896067  0.60251100  0.33434108  1.0
  Ni  Ni1772  1  0.72896067  0.93584433  0.33434108  1.0
  Ni  Ni1773  1  0.22896067  0.26917767  0.40576965  1.0
  Ni  Ni1774  1  0.22896067  0.60251100  0.40576965  1.0
  Ni  Ni1775  1  0.22896067  0.93584433  0.40576965  1.0
  Ni  Ni1776  1  0.56229400  0.26917767  0.40576965  1.0
  Ni  Ni1777  1  0.56229400  0.60251100  0.40576965  1.0
  Ni  Ni1778  1  0.56229400  0.93584433  0.40576965  1.0
  Ni  Ni1779  1  0.89562733  0.26917767  0.40576965  1.0
  Ni  Ni1780  1  0.89562733  0.60251100  0.40576965  1.0
  Ni  Ni1781  1  0.89562733  0.93584433  0.40576965  1.0
  Ni  Ni1782  1  0.06229400  0.10251100  0.35237480  1.0
  Ni  Ni1783  1  0.06229400  0.43584433  0.35237480  1.0
  Ni  Ni1784  1  0.06229400  0.76917767  0.35237480  1.0
  Ni  Ni1785  1  0.39562733  0.10251100  0.35237480  1.0
  Ni  Ni1786  1  0.39562733  0.43584433  0.35237480  1.0
  Ni  Ni1787  1  0.39562733  0.76917767  0.35237480  1.0
  Ni  Ni1788  1  0.72896067  0.10251100  0.35237480  1.0
  Ni  Ni1789  1  0.72896067  0.43584433  0.35237480  1.0
  Ni  Ni1790  1  0.72896067  0.76917767  0.35237480  1.0
  Ni  Ni1791  1  0.22896067  0.10251100  0.42380337  1.0
  Ni  Ni1792  1  0.22896067  0.43584433  0.42380337  1.0
  Ni  Ni1793  1  0.22896067  0.76917767  0.42380337  1.0
  Ni  Ni1794  1  0.56229400  0.10251100  0.42380337  1.0
  Ni  Ni1795  1  0.56229400  0.43584433  0.42380337  1.0
  Ni  Ni1796  1  0.56229400  0.76917767  0.42380337  1.0
  Ni  Ni1797  1  0.89562733  0.10251100  0.42380337  1.0
  Ni  Ni1798  1  0.89562733  0.43584433  0.42380337  1.0
  Ni  Ni1799  1  0.89562733  0.76917767  0.42380337  1.0
  Ni  Ni1800  1  0.00000000  0.10251100  0.37907223  1.0
  Ni  Ni1801  1  0.00000000  0.43584433  0.37907223  1.0
  Ni  Ni1802  1  0.00000000  0.76917767  0.37907223  1.0
  Ni  Ni1803  1  0.33333333  0.10251100  0.37907223  1.0
  Ni  Ni1804  1  0.33333333  0.43584433  0.37907223  1.0
  Ni  Ni1805  1  0.33333333  0.76917767  0.37907223  1.0
  Ni  Ni1806  1  0.66666667  0.10251100  0.37907223  1.0
  Ni  Ni1807  1  0.66666667  0.43584433  0.37907223  1.0
  Ni  Ni1808  1  0.66666667  0.76917767  0.37907223  1.0
  Ni  Ni1809  1  0.16666667  0.10251100  0.30764365  1.0
  Ni  Ni1810  1  0.16666667  0.43584433  0.30764365  1.0
  Ni  Ni1811  1  0.16666667  0.76917767  0.30764365  1.0
  Ni  Ni1812  1  0.50000000  0.10251100  0.30764365  1.0
  Ni  Ni1813  1  0.50000000  0.43584433  0.30764365  1.0
  Ni  Ni1814  1  0.50000000  0.76917767  0.30764365  1.0
  Ni  Ni1815  1  0.83333333  0.10251100  0.30764365  1.0
  Ni  Ni1816  1  0.83333333  0.43584433  0.30764365  1.0
  Ni  Ni1817  1  0.83333333  0.76917767  0.30764365  1.0
  Ni  Ni1818  1  0.10437267  0.10251100  0.31701365  1.0
  Ni  Ni1819  1  0.10437267  0.43584433  0.31701365  1.0
  Ni  Ni1820  1  0.10437267  0.76917767  0.31701365  1.0
  Ni  Ni1821  1  0.43770600  0.10251100  0.31701365  1.0
  Ni  Ni1822  1  0.43770600  0.43584433  0.31701365  1.0
  Ni  Ni1823  1  0.43770600  0.76917767  0.31701365  1.0
  Ni  Ni1824  1  0.77103933  0.10251100  0.31701365  1.0
  Ni  Ni1825  1  0.77103933  0.43584433  0.31701365  1.0
  Ni  Ni1826  1  0.77103933  0.76917767  0.31701365  1.0
  Ni  Ni1827  1  0.27103933  0.10251100  0.38844223  1.0
  Ni  Ni1828  1  0.27103933  0.43584433  0.38844223  1.0
  Ni  Ni1829  1  0.27103933  0.76917767  0.38844223  1.0
  Ni  Ni1830  1  0.60437267  0.10251100  0.38844223  1.0
  Ni  Ni1831  1  0.60437267  0.43584433  0.38844223  1.0
  Ni  Ni1832  1  0.60437267  0.76917767  0.38844223  1.0
  Ni  Ni1833  1  0.93770600  0.10251100  0.38844223  1.0
  Ni  Ni1834  1  0.93770600  0.43584433  0.38844223  1.0
  Ni  Ni1835  1  0.93770600  0.76917767  0.38844223  1.0
  Ni  Ni1836  1  0.05137817  0.23191367  0.40315487  1.0
  Ni  Ni1837  1  0.05137817  0.56524700  0.40315487  1.0
  Ni  Ni1838  1  0.05137817  0.89858033  0.40315487  1.0
  Ni  Ni1839  1  0.38471150  0.23191367  0.40315487  1.0
  Ni  Ni1840  1  0.38471150  0.56524700  0.40315487  1.0
  Ni  Ni1841  1  0.38471150  0.89858033  0.40315487  1.0
  Ni  Ni1842  1  0.71804483  0.23191367  0.40315487  1.0
  Ni  Ni1843  1  0.71804483  0.56524700  0.40315487  1.0
  Ni  Ni1844  1  0.71804483  0.89858033  0.40315487  1.0
  Ni  Ni1845  1  0.21804483  0.23191367  0.33172630  1.0
  Ni  Ni1846  1  0.21804483  0.56524700  0.33172630  1.0
  Ni  Ni1847  1  0.21804483  0.89858033  0.33172630  1.0
  Ni  Ni1848  1  0.55137817  0.23191367  0.33172630  1.0
  Ni  Ni1849  1  0.55137817  0.56524700  0.33172630  1.0
  Ni  Ni1850  1  0.55137817  0.89858033  0.33172630  1.0
  Ni  Ni1851  1  0.88471150  0.23191367  0.33172630  1.0
  Ni  Ni1852  1  0.88471150  0.56524700  0.33172630  1.0
  Ni  Ni1853  1  0.88471150  0.89858033  0.33172630  1.0
  Ni  Ni1854  1  0.00000000  0.23191367  0.42517408  1.0
  Ni  Ni1855  1  0.00000000  0.56524700  0.42517408  1.0
  Ni  Ni1856  1  0.00000000  0.89858033  0.42517408  1.0
  Ni  Ni1857  1  0.33333333  0.23191367  0.42517408  1.0
  Ni  Ni1858  1  0.33333333  0.56524700  0.42517408  1.0
  Ni  Ni1859  1  0.33333333  0.89858033  0.42517408  1.0
  Ni  Ni1860  1  0.66666667  0.23191367  0.42517408  1.0
  Ni  Ni1861  1  0.66666667  0.56524700  0.42517408  1.0
  Ni  Ni1862  1  0.66666667  0.89858033  0.42517408  1.0
  Ni  Ni1863  1  0.16666667  0.23191367  0.35374551  1.0
  Ni  Ni1864  1  0.16666667  0.56524700  0.35374551  1.0
  Ni  Ni1865  1  0.16666667  0.89858033  0.35374551  1.0
  Ni  Ni1866  1  0.50000000  0.23191367  0.35374551  1.0
  Ni  Ni1867  1  0.50000000  0.56524700  0.35374551  1.0
  Ni  Ni1868  1  0.50000000  0.89858033  0.35374551  1.0
  Ni  Ni1869  1  0.83333333  0.23191367  0.35374551  1.0
  Ni  Ni1870  1  0.83333333  0.56524700  0.35374551  1.0
  Ni  Ni1871  1  0.83333333  0.89858033  0.35374551  1.0
  Ni  Ni1872  1  0.11528850  0.23191367  0.38650658  1.0
  Ni  Ni1873  1  0.11528850  0.56524700  0.38650658  1.0
  Ni  Ni1874  1  0.11528850  0.89858033  0.38650658  1.0
  Ni  Ni1875  1  0.44862183  0.23191367  0.38650658  1.0
  Ni  Ni1876  1  0.44862183  0.56524700  0.38650658  1.0
  Ni  Ni1877  1  0.44862183  0.89858033  0.38650658  1.0
  Ni  Ni1878  1  0.78195517  0.23191367  0.38650658  1.0
  Ni  Ni1879  1  0.78195517  0.56524700  0.38650658  1.0
  Ni  Ni1880  1  0.78195517  0.89858033  0.38650658  1.0
  Ni  Ni1881  1  0.28195517  0.23191367  0.31507801  1.0
  Ni  Ni1882  1  0.28195517  0.56524700  0.31507801  1.0
  Ni  Ni1883  1  0.28195517  0.89858033  0.31507801  1.0
  Ni  Ni1884  1  0.61528850  0.23191367  0.31507801  1.0
  Ni  Ni1885  1  0.61528850  0.56524700  0.31507801  1.0
  Ni  Ni1886  1  0.61528850  0.89858033  0.31507801  1.0
  Ni  Ni1887  1  0.94862183  0.23191367  0.31507801  1.0
  Ni  Ni1888  1  0.94862183  0.56524700  0.31507801  1.0
  Ni  Ni1889  1  0.94862183  0.89858033  0.31507801  1.0
  Ni  Ni1890  1  0.11528850  0.06524700  0.35911644  1.0
  Ni  Ni1891  1  0.11528850  0.39858033  0.35911644  1.0
  Ni  Ni1892  1  0.11528850  0.73191367  0.35911644  1.0
  Ni  Ni1893  1  0.44862183  0.06524700  0.35911644  1.0
  Ni  Ni1894  1  0.44862183  0.39858033  0.35911644  1.0
  Ni  Ni1895  1  0.44862183  0.73191367  0.35911644  1.0
  Ni  Ni1896  1  0.78195517  0.06524700  0.35911644  1.0
  Ni  Ni1897  1  0.78195517  0.39858033  0.35911644  1.0
  Ni  Ni1898  1  0.78195517  0.73191367  0.35911644  1.0
  Ni  Ni1899  1  0.28195517  0.06524700  0.28768787  1.0
  Ni  Ni1900  1  0.28195517  0.39858033  0.28768787  1.0
  Ni  Ni1901  1  0.28195517  0.73191367  0.28768787  1.0
  Ni  Ni1902  1  0.61528850  0.06524700  0.28768787  1.0
  Ni  Ni1903  1  0.61528850  0.39858033  0.28768787  1.0
  Ni  Ni1904  1  0.61528850  0.73191367  0.28768787  1.0
  Ni  Ni1905  1  0.94862183  0.06524700  0.28768787  1.0
  Ni  Ni1906  1  0.94862183  0.39858033  0.28768787  1.0
  Ni  Ni1907  1  0.94862183  0.73191367  0.28768787  1.0
  Ni  Ni1908  1  0.00000000  0.06524700  0.40852580  1.0
  Ni  Ni1909  1  0.00000000  0.39858033  0.40852580  1.0
  Ni  Ni1910  1  0.00000000  0.73191367  0.40852580  1.0
  Ni  Ni1911  1  0.33333333  0.06524700  0.40852580  1.0
  Ni  Ni1912  1  0.33333333  0.39858033  0.40852580  1.0
  Ni  Ni1913  1  0.33333333  0.73191367  0.40852580  1.0
  Ni  Ni1914  1  0.66666667  0.06524700  0.40852580  1.0
  Ni  Ni1915  1  0.66666667  0.39858033  0.40852580  1.0
  Ni  Ni1916  1  0.66666667  0.73191367  0.40852580  1.0
  Ni  Ni1917  1  0.16666667  0.06524700  0.33709723  1.0
  Ni  Ni1918  1  0.16666667  0.39858033  0.33709723  1.0
  Ni  Ni1919  1  0.16666667  0.73191367  0.33709723  1.0
  Ni  Ni1920  1  0.50000000  0.06524700  0.33709723  1.0
  Ni  Ni1921  1  0.50000000  0.39858033  0.33709723  1.0
  Ni  Ni1922  1  0.50000000  0.73191367  0.33709723  1.0
  Ni  Ni1923  1  0.83333333  0.06524700  0.33709723  1.0
  Ni  Ni1924  1  0.83333333  0.39858033  0.33709723  1.0
  Ni  Ni1925  1  0.83333333  0.73191367  0.33709723  1.0
  Ni  Ni1926  1  0.05137817  0.06524700  0.37576473  1.0
  Ni  Ni1927  1  0.05137817  0.39858033  0.37576473  1.0
  Ni  Ni1928  1  0.05137817  0.73191367  0.37576473  1.0
  Ni  Ni1929  1  0.38471150  0.06524700  0.37576473  1.0
  Ni  Ni1930  1  0.38471150  0.39858033  0.37576473  1.0
  Ni  Ni1931  1  0.38471150  0.73191367  0.37576473  1.0
  Ni  Ni1932  1  0.71804483  0.06524700  0.37576473  1.0
  Ni  Ni1933  1  0.71804483  0.39858033  0.37576473  1.0
  Ni  Ni1934  1  0.71804483  0.73191367  0.37576473  1.0
  Ni  Ni1935  1  0.21804483  0.06524700  0.30433615  1.0
  Ni  Ni1936  1  0.21804483  0.39858033  0.30433615  1.0
  Ni  Ni1937  1  0.21804483  0.73191367  0.30433615  1.0
  Ni  Ni1938  1  0.55137817  0.06524700  0.30433615  1.0
  Ni  Ni1939  1  0.55137817  0.39858033  0.30433615  1.0
  Ni  Ni1940  1  0.55137817  0.73191367  0.30433615  1.0
  Ni  Ni1941  1  0.88471150  0.06524700  0.30433615  1.0
  Ni  Ni1942  1  0.88471150  0.39858033  0.30433615  1.0
  Ni  Ni1943  1  0.88471150  0.73191367  0.30433615  1.0
  Ni  Ni1944  1  0.10547783  0.19943433  0.41242073  1.0
  Ni  Ni1945  1  0.10547783  0.53276767  0.41242073  1.0
  Ni  Ni1946  1  0.10547783  0.86610100  0.41242073  1.0
  Ni  Ni1947  1  0.43881117  0.19943433  0.41242073  1.0
  Ni  Ni1948  1  0.43881117  0.53276767  0.41242073  1.0
  Ni  Ni1949  1  0.43881117  0.86610100  0.41242073  1.0
  Ni  Ni1950  1  0.77214450  0.19943433  0.41242073  1.0
  Ni  Ni1951  1  0.77214450  0.53276767  0.41242073  1.0
  Ni  Ni1952  1  0.77214450  0.86610100  0.41242073  1.0
  Ni  Ni1953  1  0.27214450  0.19943433  0.34099215  1.0
  Ni  Ni1954  1  0.27214450  0.53276767  0.34099215  1.0
  Ni  Ni1955  1  0.27214450  0.86610100  0.34099215  1.0
  Ni  Ni1956  1  0.60547783  0.19943433  0.34099215  1.0
  Ni  Ni1957  1  0.60547783  0.53276767  0.34099215  1.0
  Ni  Ni1958  1  0.60547783  0.86610100  0.34099215  1.0
  Ni  Ni1959  1  0.93881117  0.19943433  0.34099215  1.0
  Ni  Ni1960  1  0.93881117  0.53276767  0.34099215  1.0
  Ni  Ni1961  1  0.93881117  0.86610100  0.34099215  1.0
  Ni  Ni1962  1  0.00000000  0.19943433  0.31476837  1.0
  Ni  Ni1963  1  0.00000000  0.53276767  0.31476837  1.0
  Ni  Ni1964  1  0.00000000  0.86610100  0.31476837  1.0
  Ni  Ni1965  1  0.33333333  0.19943433  0.31476837  1.0
  Ni  Ni1966  1  0.33333333  0.53276767  0.31476837  1.0
  Ni  Ni1967  1  0.33333333  0.86610100  0.31476837  1.0
  Ni  Ni1968  1  0.66666667  0.19943433  0.31476837  1.0
  Ni  Ni1969  1  0.66666667  0.53276767  0.31476837  1.0
  Ni  Ni1970  1  0.66666667  0.86610100  0.31476837  1.0
  Ni  Ni1971  1  0.16666667  0.19943433  0.38619694  1.0
  Ni  Ni1972  1  0.16666667  0.53276767  0.38619694  1.0
  Ni  Ni1973  1  0.16666667  0.86610100  0.38619694  1.0
  Ni  Ni1974  1  0.50000000  0.19943433  0.38619694  1.0
  Ni  Ni1975  1  0.50000000  0.53276767  0.38619694  1.0
  Ni  Ni1976  1  0.50000000  0.86610100  0.38619694  1.0
  Ni  Ni1977  1  0.83333333  0.19943433  0.38619694  1.0
  Ni  Ni1978  1  0.83333333  0.53276767  0.38619694  1.0
  Ni  Ni1979  1  0.83333333  0.86610100  0.38619694  1.0
  Ni  Ni1980  1  0.06118883  0.19943433  0.30303015  1.0
  Ni  Ni1981  1  0.06118883  0.53276767  0.30303015  1.0
  Ni  Ni1982  1  0.06118883  0.86610100  0.30303015  1.0
  Ni  Ni1983  1  0.39452217  0.19943433  0.30303015  1.0
  Ni  Ni1984  1  0.39452217  0.53276767  0.30303015  1.0
  Ni  Ni1985  1  0.39452217  0.86610100  0.30303015  1.0
  Ni  Ni1986  1  0.72785550  0.19943433  0.30303015  1.0
  Ni  Ni1987  1  0.72785550  0.53276767  0.30303015  1.0
  Ni  Ni1988  1  0.72785550  0.86610100  0.30303015  1.0
  Ni  Ni1989  1  0.22785550  0.19943433  0.37445873  1.0
  Ni  Ni1990  1  0.22785550  0.53276767  0.37445873  1.0
  Ni  Ni1991  1  0.22785550  0.86610100  0.37445873  1.0
  Ni  Ni1992  1  0.56118883  0.19943433  0.37445873  1.0
  Ni  Ni1993  1  0.56118883  0.53276767  0.37445873  1.0
  Ni  Ni1994  1  0.56118883  0.86610100  0.37445873  1.0
  Ni  Ni1995  1  0.89452217  0.19943433  0.37445873  1.0
  Ni  Ni1996  1  0.89452217  0.53276767  0.37445873  1.0
  Ni  Ni1997  1  0.89452217  0.86610100  0.37445873  1.0
  Ni  Ni1998  1  0.06118883  0.03276767  0.32201115  1.0
  Ni  Ni1999  1  0.06118883  0.36610100  0.32201115  1.0
  Ni  Ni2000  1  0.06118883  0.69943433  0.32201115  1.0
  Ni  Ni2001  1  0.39452217  0.03276767  0.32201115  1.0
  Ni  Ni2002  1  0.39452217  0.36610100  0.32201115  1.0
  Ni  Ni2003  1  0.39452217  0.69943433  0.32201115  1.0
  Ni  Ni2004  1  0.72785550  0.03276767  0.32201115  1.0
  Ni  Ni2005  1  0.72785550  0.36610100  0.32201115  1.0
  Ni  Ni2006  1  0.72785550  0.69943433  0.32201115  1.0
  Ni  Ni2007  1  0.22785550  0.03276767  0.39343973  1.0
  Ni  Ni2008  1  0.22785550  0.36610100  0.39343973  1.0
  Ni  Ni2009  1  0.22785550  0.69943433  0.39343973  1.0
  Ni  Ni2010  1  0.56118883  0.03276767  0.39343973  1.0
  Ni  Ni2011  1  0.56118883  0.36610100  0.39343973  1.0
  Ni  Ni2012  1  0.56118883  0.69943433  0.39343973  1.0
  Ni  Ni2013  1  0.89452217  0.03276767  0.39343973  1.0
  Ni  Ni2014  1  0.89452217  0.36610100  0.39343973  1.0
  Ni  Ni2015  1  0.89452217  0.69943433  0.39343973  1.0
  Ni  Ni2016  1  0.00000000  0.03276767  0.34823494  1.0
  Ni  Ni2017  1  0.00000000  0.36610100  0.34823494  1.0
  Ni  Ni2018  1  0.00000000  0.69943433  0.34823494  1.0
  Ni  Ni2019  1  0.33333333  0.03276767  0.34823494  1.0
  Ni  Ni2020  1  0.33333333  0.36610100  0.34823494  1.0
  Ni  Ni2021  1  0.33333333  0.69943433  0.34823494  1.0
  Ni  Ni2022  1  0.66666667  0.03276767  0.34823494  1.0
  Ni  Ni2023  1  0.66666667  0.36610100  0.34823494  1.0
  Ni  Ni2024  1  0.66666667  0.69943433  0.34823494  1.0
  Ni  Ni2025  1  0.16666667  0.03276767  0.41966351  1.0
  Ni  Ni2026  1  0.16666667  0.36610100  0.41966351  1.0
  Ni  Ni2027  1  0.16666667  0.69943433  0.41966351  1.0
  Ni  Ni2028  1  0.50000000  0.03276767  0.41966351  1.0
  Ni  Ni2029  1  0.50000000  0.36610100  0.41966351  1.0
  Ni  Ni2030  1  0.50000000  0.69943433  0.41966351  1.0
  Ni  Ni2031  1  0.83333333  0.03276767  0.41966351  1.0
  Ni  Ni2032  1  0.83333333  0.36610100  0.41966351  1.0
  Ni  Ni2033  1  0.83333333  0.69943433  0.41966351  1.0
  Ni  Ni2034  1  0.10547783  0.03276767  0.28854458  1.0
  Ni  Ni2035  1  0.10547783  0.36610100  0.28854458  1.0
  Ni  Ni2036  1  0.10547783  0.69943433  0.28854458  1.0
  Ni  Ni2037  1  0.43881117  0.03276767  0.28854458  1.0
  Ni  Ni2038  1  0.43881117  0.36610100  0.28854458  1.0
  Ni  Ni2039  1  0.43881117  0.69943433  0.28854458  1.0
  Ni  Ni2040  1  0.77214450  0.03276767  0.28854458  1.0
  Ni  Ni2041  1  0.77214450  0.36610100  0.28854458  1.0
  Ni  Ni2042  1  0.77214450  0.69943433  0.28854458  1.0
  Ni  Ni2043  1  0.27214450  0.03276767  0.35997315  1.0
  Ni  Ni2044  1  0.27214450  0.36610100  0.35997315  1.0
  Ni  Ni2045  1  0.27214450  0.69943433  0.35997315  1.0
  Ni  Ni2046  1  0.60547783  0.03276767  0.35997315  1.0
  Ni  Ni2047  1  0.60547783  0.36610100  0.35997315  1.0
  Ni  Ni2048  1  0.60547783  0.69943433  0.35997315  1.0
  Ni  Ni2049  1  0.93881117  0.03276767  0.35997315  1.0
  Ni  Ni2050  1  0.93881117  0.36610100  0.35997315  1.0
  Ni  Ni2051  1  0.93881117  0.69943433  0.35997315  1.0
  Ge  Ge2052  1  0.00000000  0.25839933  0.39248665  1.0
  Ge  Ge2053  1  0.00000000  0.59173267  0.39248665  1.0
  Ge  Ge2054  1  0.00000000  0.92506600  0.39248665  1.0
  Ge  Ge2055  1  0.33333333  0.25839933  0.39248665  1.0
  Ge  Ge2056  1  0.33333333  0.59173267  0.39248665  1.0
  Ge  Ge2057  1  0.33333333  0.92506600  0.39248665  1.0
  Ge  Ge2058  1  0.66666667  0.25839933  0.39248665  1.0
  Ge  Ge2059  1  0.66666667  0.59173267  0.39248665  1.0
  Ge  Ge2060  1  0.66666667  0.92506600  0.39248665  1.0
  Ge  Ge2061  1  0.16666667  0.25839933  0.32105808  1.0
  Ge  Ge2062  1  0.16666667  0.59173267  0.32105808  1.0
  Ge  Ge2063  1  0.16666667  0.92506600  0.32105808  1.0
  Ge  Ge2064  1  0.50000000  0.25839933  0.32105808  1.0
  Ge  Ge2065  1  0.50000000  0.59173267  0.32105808  1.0
  Ge  Ge2066  1  0.50000000  0.92506600  0.32105808  1.0
  Ge  Ge2067  1  0.83333333  0.25839933  0.32105808  1.0
  Ge  Ge2068  1  0.83333333  0.59173267  0.32105808  1.0
  Ge  Ge2069  1  0.83333333  0.92506600  0.32105808  1.0
  Ge  Ge2070  1  0.00000000  0.09173267  0.32105808  1.0
  Ge  Ge2071  1  0.00000000  0.42506600  0.32105808  1.0
  Ge  Ge2072  1  0.00000000  0.75839933  0.32105808  1.0
  Ge  Ge2073  1  0.33333333  0.09173267  0.32105808  1.0
  Ge  Ge2074  1  0.33333333  0.42506600  0.32105808  1.0
  Ge  Ge2075  1  0.33333333  0.75839933  0.32105808  1.0
  Ge  Ge2076  1  0.66666667  0.09173267  0.32105808  1.0
  Ge  Ge2077  1  0.66666667  0.42506600  0.32105808  1.0
  Ge  Ge2078  1  0.66666667  0.75839933  0.32105808  1.0
  Ge  Ge2079  1  0.16666667  0.09173267  0.39248665  1.0
  Ge  Ge2080  1  0.16666667  0.42506600  0.39248665  1.0
  Ge  Ge2081  1  0.16666667  0.75839933  0.39248665  1.0
  Ge  Ge2082  1  0.50000000  0.09173267  0.39248665  1.0
  Ge  Ge2083  1  0.50000000  0.42506600  0.39248665  1.0
  Ge  Ge2084  1  0.50000000  0.75839933  0.39248665  1.0
  Ge  Ge2085  1  0.83333333  0.09173267  0.39248665  1.0
  Ge  Ge2086  1  0.83333333  0.42506600  0.39248665  1.0
  Ge  Ge2087  1  0.83333333  0.75839933  0.39248665  1.0
  Ge  Ge2088  1  0.11111111  0.24028133  0.33710275  1.0
  Ge  Ge2089  1  0.11111111  0.57361467  0.33710275  1.0
  Ge  Ge2090  1  0.11111111  0.90694800  0.33710275  1.0
  Ge  Ge2091  1  0.44444444  0.24028133  0.33710275  1.0
  Ge  Ge2092  1  0.44444444  0.57361467  0.33710275  1.0
  Ge  Ge2093  1  0.44444444  0.90694800  0.33710275  1.0
  Ge  Ge2094  1  0.77777778  0.24028133  0.33710275  1.0
  Ge  Ge2095  1  0.77777778  0.57361467  0.33710275  1.0
  Ge  Ge2096  1  0.77777778  0.90694800  0.33710275  1.0
  Ge  Ge2097  1  0.27777778  0.24028133  0.40853132  1.0
  Ge  Ge2098  1  0.27777778  0.57361467  0.40853132  1.0
  Ge  Ge2099  1  0.27777778  0.90694800  0.40853132  1.0
  Ge  Ge2100  1  0.61111111  0.24028133  0.40853132  1.0
  Ge  Ge2101  1  0.61111111  0.57361467  0.40853132  1.0
  Ge  Ge2102  1  0.61111111  0.90694800  0.40853132  1.0
  Ge  Ge2103  1  0.94444444  0.24028133  0.40853132  1.0
  Ge  Ge2104  1  0.94444444  0.57361467  0.40853132  1.0
  Ge  Ge2105  1  0.94444444  0.90694800  0.40853132  1.0
  Ge  Ge2106  1  0.05555556  0.24028133  0.36091227  1.0
  Ge  Ge2107  1  0.05555556  0.57361467  0.36091227  1.0
  Ge  Ge2108  1  0.05555556  0.90694800  0.36091227  1.0
  Ge  Ge2109  1  0.38888889  0.24028133  0.36091227  1.0
  Ge  Ge2110  1  0.38888889  0.57361467  0.36091227  1.0
  Ge  Ge2111  1  0.38888889  0.90694800  0.36091227  1.0
  Ge  Ge2112  1  0.72222222  0.24028133  0.36091227  1.0
  Ge  Ge2113  1  0.72222222  0.57361467  0.36091227  1.0
  Ge  Ge2114  1  0.72222222  0.90694800  0.36091227  1.0
  Ge  Ge2115  1  0.22222222  0.24028133  0.28948370  1.0
  Ge  Ge2116  1  0.22222222  0.57361467  0.28948370  1.0
  Ge  Ge2117  1  0.22222222  0.90694800  0.28948370  1.0
  Ge  Ge2118  1  0.55555556  0.24028133  0.28948370  1.0
  Ge  Ge2119  1  0.55555556  0.57361467  0.28948370  1.0
  Ge  Ge2120  1  0.55555556  0.90694800  0.28948370  1.0
  Ge  Ge2121  1  0.88888889  0.24028133  0.28948370  1.0
  Ge  Ge2122  1  0.88888889  0.57361467  0.28948370  1.0
  Ge  Ge2123  1  0.88888889  0.90694800  0.28948370  1.0
  Ge  Ge2124  1  0.05555556  0.07361467  0.28948370  1.0
  Ge  Ge2125  1  0.05555556  0.40694800  0.28948370  1.0
  Ge  Ge2126  1  0.05555556  0.74028133  0.28948370  1.0
  Ge  Ge2127  1  0.38888889  0.07361467  0.28948370  1.0
  Ge  Ge2128  1  0.38888889  0.40694800  0.28948370  1.0
  Ge  Ge2129  1  0.38888889  0.74028133  0.28948370  1.0
  Ge  Ge2130  1  0.72222222  0.07361467  0.28948370  1.0
  Ge  Ge2131  1  0.72222222  0.40694800  0.28948370  1.0
  Ge  Ge2132  1  0.72222222  0.74028133  0.28948370  1.0
  Ge  Ge2133  1  0.22222222  0.07361467  0.36091227  1.0
  Ge  Ge2134  1  0.22222222  0.40694800  0.36091227  1.0
  Ge  Ge2135  1  0.22222222  0.74028133  0.36091227  1.0
  Ge  Ge2136  1  0.55555556  0.07361467  0.36091227  1.0
  Ge  Ge2137  1  0.55555556  0.40694800  0.36091227  1.0
  Ge  Ge2138  1  0.55555556  0.74028133  0.36091227  1.0
  Ge  Ge2139  1  0.88888889  0.07361467  0.36091227  1.0
  Ge  Ge2140  1  0.88888889  0.40694800  0.36091227  1.0
  Ge  Ge2141  1  0.88888889  0.74028133  0.36091227  1.0
  Ge  Ge2142  1  0.11111111  0.07361467  0.40853132  1.0
  Ge  Ge2143  1  0.11111111  0.40694800  0.40853132  1.0
  Ge  Ge2144  1  0.11111111  0.74028133  0.40853132  1.0
  Ge  Ge2145  1  0.44444444  0.07361467  0.40853132  1.0
  Ge  Ge2146  1  0.44444444  0.40694800  0.40853132  1.0
  Ge  Ge2147  1  0.44444444  0.74028133  0.40853132  1.0
  Ge  Ge2148  1  0.77777778  0.07361467  0.40853132  1.0
  Ge  Ge2149  1  0.77777778  0.40694800  0.40853132  1.0
  Ge  Ge2150  1  0.77777778  0.74028133  0.40853132  1.0
  Ge  Ge2151  1  0.27777778  0.07361467  0.33710275  1.0
  Ge  Ge2152  1  0.27777778  0.40694800  0.33710275  1.0
  Ge  Ge2153  1  0.27777778  0.74028133  0.33710275  1.0
  Ge  Ge2154  1  0.61111111  0.07361467  0.33710275  1.0
  Ge  Ge2155  1  0.61111111  0.40694800  0.33710275  1.0
  Ge  Ge2156  1  0.61111111  0.74028133  0.33710275  1.0
  Ge  Ge2157  1  0.94444444  0.07361467  0.33710275  1.0
  Ge  Ge2158  1  0.94444444  0.40694800  0.33710275  1.0
  Ge  Ge2159  1  0.94444444  0.74028133  0.33710275  1.0
  Ge  Ge2160  1  0.11092417  0.00102933  0.32972415  1.0
  Ge  Ge2161  1  0.11092417  0.33436267  0.32972415  1.0
  Ge  Ge2162  1  0.11092417  0.66769600  0.32972415  1.0
  Ge  Ge2163  1  0.44425750  0.00102933  0.32972415  1.0
  Ge  Ge2164  1  0.44425750  0.33436267  0.32972415  1.0
  Ge  Ge2165  1  0.44425750  0.66769600  0.32972415  1.0
  Ge  Ge2166  1  0.77759083  0.00102933  0.32972415  1.0
  Ge  Ge2167  1  0.77759083  0.33436267  0.32972415  1.0
  Ge  Ge2168  1  0.77759083  0.66769600  0.32972415  1.0
  Ge  Ge2169  1  0.27759083  0.00102933  0.40115273  1.0
  Ge  Ge2170  1  0.27759083  0.33436267  0.40115273  1.0
  Ge  Ge2171  1  0.27759083  0.66769600  0.40115273  1.0
  Ge  Ge2172  1  0.61092417  0.00102933  0.40115273  1.0
  Ge  Ge2173  1  0.61092417  0.33436267  0.40115273  1.0
  Ge  Ge2174  1  0.61092417  0.66769600  0.40115273  1.0
  Ge  Ge2175  1  0.94425750  0.00102933  0.40115273  1.0
  Ge  Ge2176  1  0.94425750  0.33436267  0.40115273  1.0
  Ge  Ge2177  1  0.94425750  0.66769600  0.40115273  1.0
  Ge  Ge2178  1  0.00000000  0.00102933  0.37726308  1.0
  Ge  Ge2179  1  0.00000000  0.33436267  0.37726308  1.0
  Ge  Ge2180  1  0.00000000  0.66769600  0.37726308  1.0
  Ge  Ge2181  1  0.33333333  0.00102933  0.37726308  1.0
  Ge  Ge2182  1  0.33333333  0.33436267  0.37726308  1.0
  Ge  Ge2183  1  0.33333333  0.66769600  0.37726308  1.0
  Ge  Ge2184  1  0.66666667  0.00102933  0.37726308  1.0
  Ge  Ge2185  1  0.66666667  0.33436267  0.37726308  1.0
  Ge  Ge2186  1  0.66666667  0.66769600  0.37726308  1.0
  Ge  Ge2187  1  0.16666667  0.00102933  0.30583451  1.0
  Ge  Ge2188  1  0.16666667  0.33436267  0.30583451  1.0
  Ge  Ge2189  1  0.16666667  0.66769600  0.30583451  1.0
  Ge  Ge2190  1  0.50000000  0.00102933  0.30583451  1.0
  Ge  Ge2191  1  0.50000000  0.33436267  0.30583451  1.0
  Ge  Ge2192  1  0.50000000  0.66769600  0.30583451  1.0
  Ge  Ge2193  1  0.83333333  0.00102933  0.30583451  1.0
  Ge  Ge2194  1  0.83333333  0.33436267  0.30583451  1.0
  Ge  Ge2195  1  0.83333333  0.66769600  0.30583451  1.0
  Ge  Ge2196  1  0.05574250  0.00102933  0.35385415  1.0
  Ge  Ge2197  1  0.05574250  0.33436267  0.35385415  1.0
  Ge  Ge2198  1  0.05574250  0.66769600  0.35385415  1.0
  Ge  Ge2199  1  0.38907583  0.00102933  0.35385415  1.0
  Ge  Ge2200  1  0.38907583  0.33436267  0.35385415  1.0
  Ge  Ge2201  1  0.38907583  0.66769600  0.35385415  1.0
  Ge  Ge2202  1  0.72240917  0.00102933  0.35385415  1.0
  Ge  Ge2203  1  0.72240917  0.33436267  0.35385415  1.0
  Ge  Ge2204  1  0.72240917  0.66769600  0.35385415  1.0
  Ge  Ge2205  1  0.22240917  0.00102933  0.42528273  1.0
  Ge  Ge2206  1  0.22240917  0.33436267  0.42528273  1.0
  Ge  Ge2207  1  0.22240917  0.66769600  0.42528273  1.0
  Ge  Ge2208  1  0.55574250  0.00102933  0.42528273  1.0
  Ge  Ge2209  1  0.55574250  0.33436267  0.42528273  1.0
  Ge  Ge2210  1  0.55574250  0.66769600  0.42528273  1.0
  Ge  Ge2211  1  0.88907583  0.00102933  0.42528273  1.0
  Ge  Ge2212  1  0.88907583  0.33436267  0.42528273  1.0
  Ge  Ge2213  1  0.88907583  0.66769600  0.42528273  1.0
  Ge  Ge2214  1  0.05574250  0.16769600  0.37750344  1.0
  Ge  Ge2215  1  0.05574250  0.50102933  0.37750344  1.0
  Ge  Ge2216  1  0.05574250  0.83436267  0.37750344  1.0
  Ge  Ge2217  1  0.38907583  0.16769600  0.37750344  1.0
  Ge  Ge2218  1  0.38907583  0.50102933  0.37750344  1.0
  Ge  Ge2219  1  0.38907583  0.83436267  0.37750344  1.0
  Ge  Ge2220  1  0.72240917  0.16769600  0.37750344  1.0
  Ge  Ge2221  1  0.72240917  0.50102933  0.37750344  1.0
  Ge  Ge2222  1  0.72240917  0.83436267  0.37750344  1.0
  Ge  Ge2223  1  0.22240917  0.16769600  0.30607487  1.0
  Ge  Ge2224  1  0.22240917  0.50102933  0.30607487  1.0
  Ge  Ge2225  1  0.22240917  0.83436267  0.30607487  1.0
  Ge  Ge2226  1  0.55574250  0.16769600  0.30607487  1.0
  Ge  Ge2227  1  0.55574250  0.50102933  0.30607487  1.0
  Ge  Ge2228  1  0.55574250  0.83436267  0.30607487  1.0
  Ge  Ge2229  1  0.88907583  0.16769600  0.30607487  1.0
  Ge  Ge2230  1  0.88907583  0.50102933  0.30607487  1.0
  Ge  Ge2231  1  0.88907583  0.83436267  0.30607487  1.0
  Ge  Ge2232  1  0.00000000  0.16769600  0.40139308  1.0
  Ge  Ge2233  1  0.00000000  0.50102933  0.40139308  1.0
  Ge  Ge2234  1  0.00000000  0.83436267  0.40139308  1.0
  Ge  Ge2235  1  0.33333333  0.16769600  0.40139308  1.0
  Ge  Ge2236  1  0.33333333  0.50102933  0.40139308  1.0
  Ge  Ge2237  1  0.33333333  0.83436267  0.40139308  1.0
  Ge  Ge2238  1  0.66666667  0.16769600  0.40139308  1.0
  Ge  Ge2239  1  0.66666667  0.50102933  0.40139308  1.0
  Ge  Ge2240  1  0.66666667  0.83436267  0.40139308  1.0
  Ge  Ge2241  1  0.16666667  0.16769600  0.32996451  1.0
  Ge  Ge2242  1  0.16666667  0.50102933  0.32996451  1.0
  Ge  Ge2243  1  0.16666667  0.83436267  0.32996451  1.0
  Ge  Ge2244  1  0.50000000  0.16769600  0.32996451  1.0
  Ge  Ge2245  1  0.50000000  0.50102933  0.32996451  1.0
  Ge  Ge2246  1  0.50000000  0.83436267  0.32996451  1.0
  Ge  Ge2247  1  0.83333333  0.16769600  0.32996451  1.0
  Ge  Ge2248  1  0.83333333  0.50102933  0.32996451  1.0
  Ge  Ge2249  1  0.83333333  0.83436267  0.32996451  1.0
  Ge  Ge2250  1  0.11092417  0.16769600  0.35337344  1.0
  Ge  Ge2251  1  0.11092417  0.50102933  0.35337344  1.0
  Ge  Ge2252  1  0.11092417  0.83436267  0.35337344  1.0
  Ge  Ge2253  1  0.44425750  0.16769600  0.35337344  1.0
  Ge  Ge2254  1  0.44425750  0.50102933  0.35337344  1.0
  Ge  Ge2255  1  0.44425750  0.83436267  0.35337344  1.0
  Ge  Ge2256  1  0.77759083  0.16769600  0.35337344  1.0
  Ge  Ge2257  1  0.77759083  0.50102933  0.35337344  1.0
  Ge  Ge2258  1  0.77759083  0.83436267  0.35337344  1.0
  Ge  Ge2259  1  0.27759083  0.16769600  0.42480201  1.0
  Ge  Ge2260  1  0.27759083  0.50102933  0.42480201  1.0
  Ge  Ge2261  1  0.27759083  0.83436267  0.42480201  1.0
  Ge  Ge2262  1  0.61092417  0.16769600  0.42480201  1.0
  Ge  Ge2263  1  0.61092417  0.50102933  0.42480201  1.0
  Ge  Ge2264  1  0.61092417  0.83436267  0.42480201  1.0
  Ge  Ge2265  1  0.94425750  0.16769600  0.42480201  1.0
  Ge  Ge2266  1  0.94425750  0.50102933  0.42480201  1.0
  Ge  Ge2267  1  0.94425750  0.83436267  0.42480201  1.0
