# generated using pymatgen
data_Ni5Ge3
_symmetry_space_group_name_H-M   'P 1'
_cell_length_a   27.92778489
_cell_length_b   32.34374652
_cell_length_c   29.73369430
_cell_angle_alpha   94.58605287
_cell_angle_beta   92.05074633
_cell_angle_gamma   110.95998578
_symmetry_Int_Tables_number   1
_chemical_formula_structural   Ni5Ge3
_chemical_formula_sum   'Ni540 Ge324'
_cell_volume   24940.75625265
_cell_formula_units_Z   108
loop_
 _symmetry_equiv_pos_site_id
 _symmetry_equiv_pos_as_xyz
  1  'x, y, z'
loop_
 _atom_site_type_symbol
 _atom_site_label
 _atom_site_symmetry_multiplicity
 _atom_site_fract_x
 _atom_site_fract_y
 _atom_site_fract_z
 _atom_site_occupancy
  Ge  Ge0  1  0.20931919  0.08530505  0.06693636  1.0
  Ge  Ge1  1  0.20931919  0.41863838  0.06693636  1.0
  Ge  Ge2  1  0.20931919  0.75197171  0.06693636  1.0
  Ge  Ge3  1  0.54265252  0.08530505  0.06693636  1.0
  Ge  Ge4  1  0.54265252  0.41863838  0.06693636  1.0
  Ge  Ge5  1  0.54265252  0.75197171  0.06693636  1.0
  Ge  Ge6  1  0.87598586  0.08530505  0.06693636  1.0
  Ge  Ge7  1  0.87598586  0.41863838  0.06693636  1.0
  Ge  Ge8  1  0.87598586  0.75197171  0.06693636  1.0
  Ge  Ge9  1  0.11408110  0.22816219  0.13836493  1.0
  Ge  Ge10  1  0.11408110  0.56149552  0.13836493  1.0
  Ge  Ge11  1  0.11408110  0.89482886  0.13836493  1.0
  Ge  Ge12  1  0.44741443  0.22816219  0.13836493  1.0
  Ge  Ge13  1  0.44741443  0.56149552  0.13836493  1.0
  Ge  Ge14  1  0.44741443  0.89482886  0.13836493  1.0
  Ge  Ge15  1  0.78074776  0.22816219  0.13836493  1.0
  Ge  Ge16  1  0.78074776  0.56149552  0.13836493  1.0
  Ge  Ge17  1  0.78074776  0.89482886  0.13836493  1.0
  Ge  Ge18  1  0.26687129  0.20040924  0.07592079  1.0
  Ge  Ge19  1  0.26687129  0.53374257  0.07592079  1.0
  Ge  Ge20  1  0.26687129  0.86707590  0.07592079  1.0
  Ge  Ge21  1  0.60020462  0.20040924  0.07592079  1.0
  Ge  Ge22  1  0.60020462  0.53374257  0.07592079  1.0
  Ge  Ge23  1  0.60020462  0.86707590  0.07592079  1.0
  Ge  Ge24  1  0.93353795  0.20040924  0.07592079  1.0
  Ge  Ge25  1  0.93353795  0.53374257  0.07592079  1.0
  Ge  Ge26  1  0.93353795  0.86707590  0.07592079  1.0
  Ge  Ge27  1  0.02877605  0.05755210  0.00449221  1.0
  Ge  Ge28  1  0.02877605  0.39088543  0.00449221  1.0
  Ge  Ge29  1  0.02877605  0.72421876  0.00449221  1.0
  Ge  Ge30  1  0.36210938  0.05755210  0.00449221  1.0
  Ge  Ge31  1  0.36210938  0.39088543  0.00449221  1.0
  Ge  Ge32  1  0.36210938  0.72421876  0.00449221  1.0
  Ge  Ge33  1  0.69544271  0.05755210  0.00449221  1.0
  Ge  Ge34  1  0.69544271  0.39088543  0.00449221  1.0
  Ge  Ge35  1  0.69544271  0.72421876  0.00449221  1.0
  Ge  Ge36  1  0.26653557  0.29886681  0.12143657  1.0
  Ge  Ge37  1  0.26653557  0.63220014  0.12143657  1.0
  Ge  Ge38  1  0.26653557  0.96553348  0.12143657  1.0
  Ge  Ge39  1  0.59986890  0.29886681  0.12143657  1.0
  Ge  Ge40  1  0.59986890  0.63220014  0.12143657  1.0
  Ge  Ge41  1  0.59986890  0.96553348  0.12143657  1.0
  Ge  Ge42  1  0.93320224  0.29886681  0.12143657  1.0
  Ge  Ge43  1  0.93320224  0.63220014  0.12143657  1.0
  Ge  Ge44  1  0.93320224  0.96553348  0.12143657  1.0
  Ge  Ge45  1  0.02844033  0.15600967  0.05000800  1.0
  Ge  Ge46  1  0.02844033  0.48934300  0.05000800  1.0
  Ge  Ge47  1  0.02844033  0.82267633  0.05000800  1.0
  Ge  Ge48  1  0.36177367  0.15600967  0.05000800  1.0
  Ge  Ge49  1  0.36177367  0.48934300  0.05000800  1.0
  Ge  Ge50  1  0.36177367  0.82267633  0.05000800  1.0
  Ge  Ge51  1  0.69510700  0.15600967  0.05000800  1.0
  Ge  Ge52  1  0.69510700  0.48934300  0.05000800  1.0
  Ge  Ge53  1  0.69510700  0.82267633  0.05000800  1.0
  Ge  Ge54  1  0.15575457  0.21238014  0.02886907  1.0
  Ge  Ge55  1  0.15575457  0.54571348  0.02886907  1.0
  Ge  Ge56  1  0.15575457  0.87904681  0.02886907  1.0
  Ge  Ge57  1  0.48908790  0.21238014  0.02886907  1.0
  Ge  Ge58  1  0.48908790  0.54571348  0.02886907  1.0
  Ge  Ge59  1  0.48908790  0.87904681  0.02886907  1.0
  Ge  Ge60  1  0.82242124  0.21238014  0.02886907  1.0
  Ge  Ge61  1  0.82242124  0.54571348  0.02886907  1.0
  Ge  Ge62  1  0.82242124  0.87904681  0.02886907  1.0
  Ge  Ge63  1  0.06051648  0.02190395  0.10029764  1.0
  Ge  Ge64  1  0.06051648  0.35523729  0.10029764  1.0
  Ge  Ge65  1  0.06051648  0.68857062  0.10029764  1.0
  Ge  Ge66  1  0.39384981  0.02190395  0.10029764  1.0
  Ge  Ge67  1  0.39384981  0.35523729  0.10029764  1.0
  Ge  Ge68  1  0.39384981  0.68857062  0.10029764  1.0
  Ge  Ge69  1  0.72718314  0.02190395  0.10029764  1.0
  Ge  Ge70  1  0.72718314  0.35523729  0.10029764  1.0
  Ge  Ge71  1  0.72718314  0.68857062  0.10029764  1.0
  Ge  Ge72  1  0.20965490  0.32018081  0.02142057  1.0
  Ge  Ge73  1  0.20965490  0.65351414  0.02142057  1.0
  Ge  Ge74  1  0.20965490  0.98684748  0.02142057  1.0
  Ge  Ge75  1  0.54298824  0.32018081  0.02142057  1.0
  Ge  Ge76  1  0.54298824  0.65351414  0.02142057  1.0
  Ge  Ge77  1  0.54298824  0.98684748  0.02142057  1.0
  Ge  Ge78  1  0.87632157  0.32018081  0.02142057  1.0
  Ge  Ge79  1  0.87632157  0.65351414  0.02142057  1.0
  Ge  Ge80  1  0.87632157  0.98684748  0.02142057  1.0
  Ge  Ge81  1  0.11441681  0.12970462  0.09284914  1.0
  Ge  Ge82  1  0.11441681  0.46303795  0.09284914  1.0
  Ge  Ge83  1  0.11441681  0.79637129  0.09284914  1.0
  Ge  Ge84  1  0.44775014  0.12970462  0.09284914  1.0
  Ge  Ge85  1  0.44775014  0.46303795  0.09284914  1.0
  Ge  Ge86  1  0.44775014  0.79637129  0.09284914  1.0
  Ge  Ge87  1  0.78108348  0.12970462  0.09284914  1.0
  Ge  Ge88  1  0.78108348  0.46303795  0.09284914  1.0
  Ge  Ge89  1  0.78108348  0.79637129  0.09284914  1.0
  Ge  Ge90  1  0.32043590  0.07333414  0.11398807  1.0
  Ge  Ge91  1  0.32043590  0.40666748  0.11398807  1.0
  Ge  Ge92  1  0.32043590  0.74000081  0.11398807  1.0
  Ge  Ge93  1  0.65376924  0.07333414  0.11398807  1.0
  Ge  Ge94  1  0.65376924  0.40666748  0.11398807  1.0
  Ge  Ge95  1  0.65376924  0.74000081  0.11398807  1.0
  Ge  Ge96  1  0.98710257  0.07333414  0.11398807  1.0
  Ge  Ge97  1  0.98710257  0.40666748  0.11398807  1.0
  Ge  Ge98  1  0.98710257  0.74000081  0.11398807  1.0
  Ge  Ge99  1  0.08234067  0.26381033  0.04255950  1.0
  Ge  Ge100  1  0.08234067  0.59714367  0.04255950  1.0
  Ge  Ge101  1  0.08234067  0.93047700  0.04255950  1.0
  Ge  Ge102  1  0.41567400  0.26381033  0.04255950  1.0
  Ge  Ge103  1  0.41567400  0.59714367  0.04255950  1.0
  Ge  Ge104  1  0.41567400  0.93047700  0.04255950  1.0
  Ge  Ge105  1  0.74900733  0.26381033  0.04255950  1.0
  Ge  Ge106  1  0.74900733  0.59714367  0.04255950  1.0
  Ge  Ge107  1  0.74900733  0.93047700  0.04255950  1.0
  Ge  Ge108  1  0.01884300  0.03768600  0.20979350  1.0
  Ge  Ge109  1  0.01884300  0.37101933  0.20979350  1.0
  Ge  Ge110  1  0.01884300  0.70435267  0.20979350  1.0
  Ge  Ge111  1  0.35217633  0.03768600  0.20979350  1.0
  Ge  Ge112  1  0.35217633  0.37101933  0.20979350  1.0
  Ge  Ge113  1  0.35217633  0.70435267  0.20979350  1.0
  Ge  Ge114  1  0.68550967  0.03768600  0.20979350  1.0
  Ge  Ge115  1  0.68550967  0.37101933  0.20979350  1.0
  Ge  Ge116  1  0.68550967  0.70435267  0.20979350  1.0
  Ge  Ge117  1  0.25693824  0.18054314  0.28122207  1.0
  Ge  Ge118  1  0.25693824  0.51387648  0.28122207  1.0
  Ge  Ge119  1  0.25693824  0.84720981  0.28122207  1.0
  Ge  Ge120  1  0.59027157  0.18054314  0.28122207  1.0
  Ge  Ge121  1  0.59027157  0.51387648  0.28122207  1.0
  Ge  Ge122  1  0.59027157  0.84720981  0.28122207  1.0
  Ge  Ge123  1  0.92360490  0.18054314  0.28122207  1.0
  Ge  Ge124  1  0.92360490  0.51387648  0.28122207  1.0
  Ge  Ge125  1  0.92360490  0.84720981  0.28122207  1.0
  Ge  Ge126  1  0.07639510  0.15279019  0.21877793  1.0
  Ge  Ge127  1  0.07639510  0.48612352  0.21877793  1.0
  Ge  Ge128  1  0.07639510  0.81945686  0.21877793  1.0
  Ge  Ge129  1  0.40972843  0.15279019  0.21877793  1.0
  Ge  Ge130  1  0.40972843  0.48612352  0.21877793  1.0
  Ge  Ge131  1  0.40972843  0.81945686  0.21877793  1.0
  Ge  Ge132  1  0.74306176  0.15279019  0.21877793  1.0
  Ge  Ge133  1  0.74306176  0.48612352  0.21877793  1.0
  Ge  Ge134  1  0.74306176  0.81945686  0.21877793  1.0
  Ge  Ge135  1  0.17163319  0.00993305  0.14734936  1.0
  Ge  Ge136  1  0.17163319  0.34326638  0.14734936  1.0
  Ge  Ge137  1  0.17163319  0.67659971  0.14734936  1.0
  Ge  Ge138  1  0.50496652  0.00993305  0.14734936  1.0
  Ge  Ge139  1  0.50496652  0.34326638  0.14734936  1.0
  Ge  Ge140  1  0.50496652  0.67659971  0.14734936  1.0
  Ge  Ge141  1  0.83829986  0.00993305  0.14734936  1.0
  Ge  Ge142  1  0.83829986  0.34326638  0.14734936  1.0
  Ge  Ge143  1  0.83829986  0.67659971  0.14734936  1.0
  Ge  Ge144  1  0.07605938  0.25124776  0.26429371  1.0
  Ge  Ge145  1  0.07605938  0.58458110  0.26429371  1.0
  Ge  Ge146  1  0.07605938  0.91791443  0.26429371  1.0
  Ge  Ge147  1  0.40939271  0.25124776  0.26429371  1.0
  Ge  Ge148  1  0.40939271  0.58458110  0.26429371  1.0
  Ge  Ge149  1  0.40939271  0.91791443  0.26429371  1.0
  Ge  Ge150  1  0.74272605  0.25124776  0.26429371  1.0
  Ge  Ge151  1  0.74272605  0.58458110  0.26429371  1.0
  Ge  Ge152  1  0.74272605  0.91791443  0.26429371  1.0
  Ge  Ge153  1  0.17129748  0.10839062  0.19286514  1.0
  Ge  Ge154  1  0.17129748  0.44172395  0.19286514  1.0
  Ge  Ge155  1  0.17129748  0.77505729  0.19286514  1.0
  Ge  Ge156  1  0.50463081  0.10839062  0.19286514  1.0
  Ge  Ge157  1  0.50463081  0.44172395  0.19286514  1.0
  Ge  Ge158  1  0.50463081  0.77505729  0.19286514  1.0
  Ge  Ge159  1  0.83796414  0.10839062  0.19286514  1.0
  Ge  Ge160  1  0.83796414  0.44172395  0.19286514  1.0
  Ge  Ge161  1  0.83796414  0.77505729  0.19286514  1.0
  Ge  Ge162  1  0.29861171  0.16476110  0.17172621  1.0
  Ge  Ge163  1  0.29861171  0.49809443  0.17172621  1.0
  Ge  Ge164  1  0.29861171  0.83142776  0.17172621  1.0
  Ge  Ge165  1  0.63194505  0.16476110  0.17172621  1.0
  Ge  Ge166  1  0.63194505  0.49809443  0.17172621  1.0
  Ge  Ge167  1  0.63194505  0.83142776  0.17172621  1.0
  Ge  Ge168  1  0.96527838  0.16476110  0.17172621  1.0
  Ge  Ge169  1  0.96527838  0.49809443  0.17172621  1.0
  Ge  Ge170  1  0.96527838  0.83142776  0.17172621  1.0
  Ge  Ge171  1  0.20337362  0.30761824  0.24315479  1.0
  Ge  Ge172  1  0.20337362  0.64095157  0.24315479  1.0
  Ge  Ge173  1  0.20337362  0.97428490  0.24315479  1.0
  Ge  Ge174  1  0.53670695  0.30761824  0.24315479  1.0
  Ge  Ge175  1  0.53670695  0.64095157  0.24315479  1.0
  Ge  Ge176  1  0.53670695  0.97428490  0.24315479  1.0
  Ge  Ge177  1  0.87004029  0.30761824  0.24315479  1.0
  Ge  Ge178  1  0.87004029  0.64095157  0.24315479  1.0
  Ge  Ge179  1  0.87004029  0.97428490  0.24315479  1.0
  Ge  Ge180  1  0.01917871  0.27256176  0.16427771  1.0
  Ge  Ge181  1  0.01917871  0.60589510  0.16427771  1.0
  Ge  Ge182  1  0.01917871  0.93922843  0.16427771  1.0
  Ge  Ge183  1  0.35251205  0.27256176  0.16427771  1.0
  Ge  Ge184  1  0.35251205  0.60589510  0.16427771  1.0
  Ge  Ge185  1  0.35251205  0.93922843  0.16427771  1.0
  Ge  Ge186  1  0.68584538  0.27256176  0.16427771  1.0
  Ge  Ge187  1  0.68584538  0.60589510  0.16427771  1.0
  Ge  Ge188  1  0.68584538  0.93922843  0.16427771  1.0
  Ge  Ge189  1  0.25727395  0.08208557  0.23570629  1.0
  Ge  Ge190  1  0.25727395  0.41541890  0.23570629  1.0
  Ge  Ge191  1  0.25727395  0.74875224  0.23570629  1.0
  Ge  Ge192  1  0.59060729  0.08208557  0.23570629  1.0
  Ge  Ge193  1  0.59060729  0.41541890  0.23570629  1.0
  Ge  Ge194  1  0.59060729  0.74875224  0.23570629  1.0
  Ge  Ge195  1  0.92394062  0.08208557  0.23570629  1.0
  Ge  Ge196  1  0.92394062  0.41541890  0.23570629  1.0
  Ge  Ge197  1  0.92394062  0.74875224  0.23570629  1.0
  Ge  Ge198  1  0.12995971  0.02571510  0.25684521  1.0
  Ge  Ge199  1  0.12995971  0.35904843  0.25684521  1.0
  Ge  Ge200  1  0.12995971  0.69238176  0.25684521  1.0
  Ge  Ge201  1  0.46329305  0.02571510  0.25684521  1.0
  Ge  Ge202  1  0.46329305  0.35904843  0.25684521  1.0
  Ge  Ge203  1  0.46329305  0.69238176  0.25684521  1.0
  Ge  Ge204  1  0.79662638  0.02571510  0.25684521  1.0
  Ge  Ge205  1  0.79662638  0.35904843  0.25684521  1.0
  Ge  Ge206  1  0.79662638  0.69238176  0.25684521  1.0
  Ge  Ge207  1  0.22519781  0.21619129  0.18541664  1.0
  Ge  Ge208  1  0.22519781  0.54952462  0.18541664  1.0
  Ge  Ge209  1  0.22519781  0.88285795  0.18541664  1.0
  Ge  Ge210  1  0.55853114  0.21619129  0.18541664  1.0
  Ge  Ge211  1  0.55853114  0.54952462  0.18541664  1.0
  Ge  Ge212  1  0.55853114  0.88285795  0.18541664  1.0
  Ge  Ge213  1  0.89186448  0.21619129  0.18541664  1.0
  Ge  Ge214  1  0.89186448  0.54952462  0.18541664  1.0
  Ge  Ge215  1  0.89186448  0.88285795  0.18541664  1.0
  Ge  Ge216  1  0.16170014  0.32340029  0.35265064  1.0
  Ge  Ge217  1  0.16170014  0.65673362  0.35265064  1.0
  Ge  Ge218  1  0.16170014  0.99006695  0.35265064  1.0
  Ge  Ge219  1  0.49503348  0.32340029  0.35265064  1.0
  Ge  Ge220  1  0.49503348  0.65673362  0.35265064  1.0
  Ge  Ge221  1  0.49503348  0.99006695  0.35265064  1.0
  Ge  Ge222  1  0.82836681  0.32340029  0.35265064  1.0
  Ge  Ge223  1  0.82836681  0.65673362  0.35265064  1.0
  Ge  Ge224  1  0.82836681  0.99006695  0.35265064  1.0
  Ge  Ge225  1  0.06646205  0.13292410  0.42407921  1.0
  Ge  Ge226  1  0.06646205  0.46625743  0.42407921  1.0
  Ge  Ge227  1  0.06646205  0.79959076  0.42407921  1.0
  Ge  Ge228  1  0.39979538  0.13292410  0.42407921  1.0
  Ge  Ge229  1  0.39979538  0.46625743  0.42407921  1.0
  Ge  Ge230  1  0.39979538  0.79959076  0.42407921  1.0
  Ge  Ge231  1  0.73312871  0.13292410  0.42407921  1.0
  Ge  Ge232  1  0.73312871  0.46625743  0.42407921  1.0
  Ge  Ge233  1  0.73312871  0.79959076  0.42407921  1.0
  Ge  Ge234  1  0.21925224  0.10517114  0.36163507  1.0
  Ge  Ge235  1  0.21925224  0.43850448  0.36163507  1.0
  Ge  Ge236  1  0.21925224  0.77183781  0.36163507  1.0
  Ge  Ge237  1  0.55258557  0.10517114  0.36163507  1.0
  Ge  Ge238  1  0.55258557  0.43850448  0.36163507  1.0
  Ge  Ge239  1  0.55258557  0.77183781  0.36163507  1.0
  Ge  Ge240  1  0.88591890  0.10517114  0.36163507  1.0
  Ge  Ge241  1  0.88591890  0.43850448  0.36163507  1.0
  Ge  Ge242  1  0.88591890  0.77183781  0.36163507  1.0
  Ge  Ge243  1  0.31449033  0.29564733  0.29020650  1.0
  Ge  Ge244  1  0.31449033  0.62898067  0.29020650  1.0
  Ge  Ge245  1  0.31449033  0.96231400  0.29020650  1.0
  Ge  Ge246  1  0.64782367  0.29564733  0.29020650  1.0
  Ge  Ge247  1  0.64782367  0.62898067  0.29020650  1.0
  Ge  Ge248  1  0.64782367  0.96231400  0.29020650  1.0
  Ge  Ge249  1  0.98115700  0.29564733  0.29020650  1.0
  Ge  Ge250  1  0.98115700  0.62898067  0.29020650  1.0
  Ge  Ge251  1  0.98115700  0.96231400  0.29020650  1.0
  Ge  Ge252  1  0.21891652  0.20362871  0.40715086  1.0
  Ge  Ge253  1  0.21891652  0.53696205  0.40715086  1.0
  Ge  Ge254  1  0.21891652  0.87029538  0.40715086  1.0
  Ge  Ge255  1  0.55224986  0.20362871  0.40715086  1.0
  Ge  Ge256  1  0.55224986  0.53696205  0.40715086  1.0
  Ge  Ge257  1  0.55224986  0.87029538  0.40715086  1.0
  Ge  Ge258  1  0.88558319  0.20362871  0.40715086  1.0
  Ge  Ge259  1  0.88558319  0.53696205  0.40715086  1.0
  Ge  Ge260  1  0.88558319  0.87029538  0.40715086  1.0
  Ge  Ge261  1  0.31415462  0.06077157  0.33572229  1.0
  Ge  Ge262  1  0.31415462  0.39410490  0.33572229  1.0
  Ge  Ge263  1  0.31415462  0.72743824  0.33572229  1.0
  Ge  Ge264  1  0.64748795  0.06077157  0.33572229  1.0
  Ge  Ge265  1  0.64748795  0.39410490  0.33572229  1.0
  Ge  Ge266  1  0.64748795  0.72743824  0.33572229  1.0
  Ge  Ge267  1  0.98082129  0.06077157  0.33572229  1.0
  Ge  Ge268  1  0.98082129  0.39410490  0.33572229  1.0
  Ge  Ge269  1  0.98082129  0.72743824  0.33572229  1.0
  Ge  Ge270  1  0.10813552  0.11714205  0.31458336  1.0
  Ge  Ge271  1  0.10813552  0.45047538  0.31458336  1.0
  Ge  Ge272  1  0.10813552  0.78380871  0.31458336  1.0
  Ge  Ge273  1  0.44146886  0.11714205  0.31458336  1.0
  Ge  Ge274  1  0.44146886  0.45047538  0.31458336  1.0
  Ge  Ge275  1  0.44146886  0.78380871  0.31458336  1.0
  Ge  Ge276  1  0.77480219  0.11714205  0.31458336  1.0
  Ge  Ge277  1  0.77480219  0.45047538  0.31458336  1.0
  Ge  Ge278  1  0.77480219  0.78380871  0.31458336  1.0
  Ge  Ge279  1  0.01289743  0.25999919  0.38601193  1.0
  Ge  Ge280  1  0.01289743  0.59333252  0.38601193  1.0
  Ge  Ge281  1  0.01289743  0.92666586  0.38601193  1.0
  Ge  Ge282  1  0.34623076  0.25999919  0.38601193  1.0
  Ge  Ge283  1  0.34623076  0.59333252  0.38601193  1.0
  Ge  Ge284  1  0.34623076  0.92666586  0.38601193  1.0
  Ge  Ge285  1  0.67956410  0.25999919  0.38601193  1.0
  Ge  Ge286  1  0.67956410  0.59333252  0.38601193  1.0
  Ge  Ge287  1  0.67956410  0.92666586  0.38601193  1.0
  Ge  Ge288  1  0.16203586  0.22494271  0.30713486  1.0
  Ge  Ge289  1  0.16203586  0.55827605  0.30713486  1.0
  Ge  Ge290  1  0.16203586  0.89160938  0.30713486  1.0
  Ge  Ge291  1  0.49536919  0.22494271  0.30713486  1.0
  Ge  Ge292  1  0.49536919  0.55827605  0.30713486  1.0
  Ge  Ge293  1  0.49536919  0.89160938  0.30713486  1.0
  Ge  Ge294  1  0.82870252  0.22494271  0.30713486  1.0
  Ge  Ge295  1  0.82870252  0.55827605  0.30713486  1.0
  Ge  Ge296  1  0.82870252  0.89160938  0.30713486  1.0
  Ge  Ge297  1  0.06679776  0.03446652  0.37856343  1.0
  Ge  Ge298  1  0.06679776  0.36779986  0.37856343  1.0
  Ge  Ge299  1  0.06679776  0.70113319  0.37856343  1.0
  Ge  Ge300  1  0.40013110  0.03446652  0.37856343  1.0
  Ge  Ge301  1  0.40013110  0.36779986  0.37856343  1.0
  Ge  Ge302  1  0.40013110  0.70113319  0.37856343  1.0
  Ge  Ge303  1  0.73346443  0.03446652  0.37856343  1.0
  Ge  Ge304  1  0.73346443  0.36779986  0.37856343  1.0
  Ge  Ge305  1  0.73346443  0.70113319  0.37856343  1.0
  Ge  Ge306  1  0.27281686  0.31142938  0.39970236  1.0
  Ge  Ge307  1  0.27281686  0.64476271  0.39970236  1.0
  Ge  Ge308  1  0.27281686  0.97809605  0.39970236  1.0
  Ge  Ge309  1  0.60615019  0.31142938  0.39970236  1.0
  Ge  Ge310  1  0.60615019  0.64476271  0.39970236  1.0
  Ge  Ge311  1  0.60615019  0.97809605  0.39970236  1.0
  Ge  Ge312  1  0.93948352  0.31142938  0.39970236  1.0
  Ge  Ge313  1  0.93948352  0.64476271  0.39970236  1.0
  Ge  Ge314  1  0.93948352  0.97809605  0.39970236  1.0
  Ge  Ge315  1  0.03472162  0.16857224  0.32827379  1.0
  Ge  Ge316  1  0.03472162  0.50190557  0.32827379  1.0
  Ge  Ge317  1  0.03472162  0.83523890  0.32827379  1.0
  Ge  Ge318  1  0.36805495  0.16857224  0.32827379  1.0
  Ge  Ge319  1  0.36805495  0.50190557  0.32827379  1.0
  Ge  Ge320  1  0.36805495  0.83523890  0.32827379  1.0
  Ge  Ge321  1  0.70138829  0.16857224  0.32827379  1.0
  Ge  Ge322  1  0.70138829  0.50190557  0.32827379  1.0
  Ge  Ge323  1  0.70138829  0.83523890  0.32827379  1.0
  Ni  Ni324  1  0.16180114  0.27512695  0.08279714  1.0
  Ni  Ni325  1  0.16180114  0.60846029  0.08279714  1.0
  Ni  Ni326  1  0.16180114  0.94179362  0.08279714  1.0
  Ni  Ni327  1  0.49513448  0.27512695  0.08279714  1.0
  Ni  Ni328  1  0.49513448  0.60846029  0.08279714  1.0
  Ni  Ni329  1  0.49513448  0.94179362  0.08279714  1.0
  Ni  Ni330  1  0.82846781  0.27512695  0.08279714  1.0
  Ni  Ni331  1  0.82846781  0.60846029  0.08279714  1.0
  Ni  Ni332  1  0.82846781  0.94179362  0.08279714  1.0
  Ni  Ni333  1  0.25703924  0.13226981  0.01136857  1.0
  Ni  Ni334  1  0.25703924  0.46560314  0.01136857  1.0
  Ni  Ni335  1  0.25703924  0.79893648  0.01136857  1.0
  Ni  Ni336  1  0.59037257  0.13226981  0.01136857  1.0
  Ni  Ni337  1  0.59037257  0.46560314  0.01136857  1.0
  Ni  Ni338  1  0.59037257  0.79893648  0.01136857  1.0
  Ni  Ni339  1  0.92370590  0.13226981  0.01136857  1.0
  Ni  Ni340  1  0.92370590  0.46560314  0.01136857  1.0
  Ni  Ni341  1  0.92370590  0.79893648  0.01136857  1.0
  Ni  Ni342  1  0.14713971  0.00942143  0.05743671  1.0
  Ni  Ni343  1  0.14713971  0.34275476  0.05743671  1.0
  Ni  Ni344  1  0.14713971  0.67608810  0.05743671  1.0
  Ni  Ni345  1  0.48047305  0.00942143  0.05743671  1.0
  Ni  Ni346  1  0.48047305  0.34275476  0.05743671  1.0
  Ni  Ni347  1  0.48047305  0.67608810  0.05743671  1.0
  Ni  Ni348  1  0.81380638  0.00942143  0.05743671  1.0
  Ni  Ni349  1  0.81380638  0.34275476  0.05743671  1.0
  Ni  Ni350  1  0.81380638  0.67608810  0.05743671  1.0
  Ni  Ni351  1  0.05190162  0.15227857  0.12886529  1.0
  Ni  Ni352  1  0.05190162  0.48561190  0.12886529  1.0
  Ni  Ni353  1  0.05190162  0.81894524  0.12886529  1.0
  Ni  Ni354  1  0.38523495  0.15227857  0.12886529  1.0
  Ni  Ni355  1  0.38523495  0.48561190  0.12886529  1.0
  Ni  Ni356  1  0.38523495  0.81894524  0.12886529  1.0
  Ni  Ni357  1  0.71856829  0.15227857  0.12886529  1.0
  Ni  Ni358  1  0.71856829  0.48561190  0.12886529  1.0
  Ni  Ni359  1  0.71856829  0.81894524  0.12886529  1.0
  Ni  Ni360  1  0.31438933  0.01058733  0.06006000  1.0
  Ni  Ni361  1  0.31438933  0.34392067  0.06006000  1.0
  Ni  Ni362  1  0.31438933  0.67725400  0.06006000  1.0
  Ni  Ni363  1  0.64772267  0.01058733  0.06006000  1.0
  Ni  Ni364  1  0.64772267  0.34392067  0.06006000  1.0
  Ni  Ni365  1  0.64772267  0.67725400  0.06006000  1.0
  Ni  Ni366  1  0.98105600  0.01058733  0.06006000  1.0
  Ni  Ni367  1  0.98105600  0.34392067  0.06006000  1.0
  Ni  Ni368  1  0.98105600  0.67725400  0.06006000  1.0
  Ni  Ni369  1  0.21915124  0.15344448  0.13148857  1.0
  Ni  Ni370  1  0.21915124  0.48677781  0.13148857  1.0
  Ni  Ni371  1  0.21915124  0.82011114  0.13148857  1.0
  Ni  Ni372  1  0.55248457  0.15344448  0.13148857  1.0
  Ni  Ni373  1  0.55248457  0.48677781  0.13148857  1.0
  Ni  Ni374  1  0.55248457  0.82011114  0.13148857  1.0
  Ni  Ni375  1  0.88581790  0.15344448  0.13148857  1.0
  Ni  Ni376  1  0.88581790  0.48677781  0.13148857  1.0
  Ni  Ni377  1  0.88581790  0.82011114  0.13148857  1.0
  Ni  Ni378  1  0.32905076  0.27629286  0.08542043  1.0
  Ni  Ni379  1  0.32905076  0.60962619  0.08542043  1.0
  Ni  Ni380  1  0.32905076  0.94295952  0.08542043  1.0
  Ni  Ni381  1  0.66238410  0.27629286  0.08542043  1.0
  Ni  Ni382  1  0.66238410  0.60962619  0.08542043  1.0
  Ni  Ni383  1  0.66238410  0.94295952  0.08542043  1.0
  Ni  Ni384  1  0.99571743  0.27629286  0.08542043  1.0
  Ni  Ni385  1  0.99571743  0.60962619  0.08542043  1.0
  Ni  Ni386  1  0.99571743  0.94295952  0.08542043  1.0
  Ni  Ni387  1  0.09095552  0.13343571  0.01399186  1.0
  Ni  Ni388  1  0.09095552  0.46676905  0.01399186  1.0
  Ni  Ni389  1  0.09095552  0.80010238  0.01399186  1.0
  Ni  Ni390  1  0.42428886  0.13343571  0.01399186  1.0
  Ni  Ni391  1  0.42428886  0.46676905  0.01399186  1.0
  Ni  Ni392  1  0.42428886  0.80010238  0.01399186  1.0
  Ni  Ni393  1  0.75762219  0.13343571  0.01399186  1.0
  Ni  Ni394  1  0.75762219  0.46676905  0.01399186  1.0
  Ni  Ni395  1  0.75762219  0.80010238  0.01399186  1.0
  Ni  Ni396  1  0.11904762  0.07142857  0.03571429  1.0
  Ni  Ni397  1  0.11904762  0.40476190  0.03571429  1.0
  Ni  Ni398  1  0.11904762  0.73809524  0.03571429  1.0
  Ni  Ni399  1  0.45238095  0.07142857  0.03571429  1.0
  Ni  Ni400  1  0.45238095  0.40476190  0.03571429  1.0
  Ni  Ni401  1  0.45238095  0.73809524  0.03571429  1.0
  Ni  Ni402  1  0.78571429  0.07142857  0.03571429  1.0
  Ni  Ni403  1  0.78571429  0.40476190  0.03571429  1.0
  Ni  Ni404  1  0.78571429  0.73809524  0.03571429  1.0
  Ni  Ni405  1  0.02380952  0.21428571  0.10714286  1.0
  Ni  Ni406  1  0.02380952  0.54761905  0.10714286  1.0
  Ni  Ni407  1  0.02380952  0.88095238  0.10714286  1.0
  Ni  Ni408  1  0.35714286  0.21428571  0.10714286  1.0
  Ni  Ni409  1  0.35714286  0.54761905  0.10714286  1.0
  Ni  Ni410  1  0.35714286  0.88095238  0.10714286  1.0
  Ni  Ni411  1  0.69047619  0.21428571  0.10714286  1.0
  Ni  Ni412  1  0.69047619  0.54761905  0.10714286  1.0
  Ni  Ni413  1  0.69047619  0.88095238  0.10714286  1.0
  Ni  Ni414  1  0.28571429  0.07142857  0.03571429  1.0
  Ni  Ni415  1  0.28571429  0.40476190  0.03571429  1.0
  Ni  Ni416  1  0.28571429  0.73809524  0.03571429  1.0
  Ni  Ni417  1  0.61904762  0.07142857  0.03571429  1.0
  Ni  Ni418  1  0.61904762  0.40476190  0.03571429  1.0
  Ni  Ni419  1  0.61904762  0.73809524  0.03571429  1.0
  Ni  Ni420  1  0.95238095  0.07142857  0.03571429  1.0
  Ni  Ni421  1  0.95238095  0.40476190  0.03571429  1.0
  Ni  Ni422  1  0.95238095  0.73809524  0.03571429  1.0
  Ni  Ni423  1  0.19047619  0.21428571  0.10714286  1.0
  Ni  Ni424  1  0.19047619  0.54761905  0.10714286  1.0
  Ni  Ni425  1  0.19047619  0.88095238  0.10714286  1.0
  Ni  Ni426  1  0.52380952  0.21428571  0.10714286  1.0
  Ni  Ni427  1  0.52380952  0.54761905  0.10714286  1.0
  Ni  Ni428  1  0.52380952  0.88095238  0.10714286  1.0
  Ni  Ni429  1  0.85714286  0.21428571  0.10714286  1.0
  Ni  Ni430  1  0.85714286  0.54761905  0.10714286  1.0
  Ni  Ni431  1  0.85714286  0.88095238  0.10714286  1.0
  Ni  Ni432  1  0.23583029  0.02201957  0.09478329  1.0
  Ni  Ni433  1  0.23583029  0.35535290  0.09478329  1.0
  Ni  Ni434  1  0.23583029  0.68868624  0.09478329  1.0
  Ni  Ni435  1  0.56916362  0.02201957  0.09478329  1.0
  Ni  Ni436  1  0.56916362  0.35535290  0.09478329  1.0
  Ni  Ni437  1  0.56916362  0.68868624  0.09478329  1.0
  Ni  Ni438  1  0.90249695  0.02201957  0.09478329  1.0
  Ni  Ni439  1  0.90249695  0.35535290  0.09478329  1.0
  Ni  Ni440  1  0.90249695  0.68868624  0.09478329  1.0
  Ni  Ni441  1  0.33106838  0.21249576  0.02335471  1.0
  Ni  Ni442  1  0.33106838  0.54582910  0.02335471  1.0
  Ni  Ni443  1  0.33106838  0.87916243  0.02335471  1.0
  Ni  Ni444  1  0.66440171  0.21249576  0.02335471  1.0
  Ni  Ni445  1  0.66440171  0.54582910  0.02335471  1.0
  Ni  Ni446  1  0.66440171  0.87916243  0.02335471  1.0
  Ni  Ni447  1  0.99773505  0.21249576  0.02335471  1.0
  Ni  Ni448  1  0.99773505  0.54582910  0.02335471  1.0
  Ni  Ni449  1  0.99773505  0.87916243  0.02335471  1.0
  Ni  Ni450  1  0.08913757  0.29458281  0.11757207  1.0
  Ni  Ni451  1  0.08913757  0.62791614  0.11757207  1.0
  Ni  Ni452  1  0.08913757  0.96124948  0.11757207  1.0
  Ni  Ni453  1  0.42247090  0.29458281  0.11757207  1.0
  Ni  Ni454  1  0.42247090  0.62791614  0.11757207  1.0
  Ni  Ni455  1  0.42247090  0.96124948  0.11757207  1.0
  Ni  Ni456  1  0.75580424  0.29458281  0.11757207  1.0
  Ni  Ni457  1  0.75580424  0.62791614  0.11757207  1.0
  Ni  Ni458  1  0.75580424  0.96124948  0.11757207  1.0
  Ni  Ni459  1  0.18437567  0.15172567  0.04614350  1.0
  Ni  Ni460  1  0.18437567  0.48505900  0.04614350  1.0
  Ni  Ni461  1  0.18437567  0.81839233  0.04614350  1.0
  Ni  Ni462  1  0.51770900  0.15172567  0.04614350  1.0
  Ni  Ni463  1  0.51770900  0.48505900  0.04614350  1.0
  Ni  Ni464  1  0.51770900  0.81839233  0.04614350  1.0
  Ni  Ni465  1  0.85104233  0.15172567  0.04614350  1.0
  Ni  Ni466  1  0.85104233  0.48505900  0.04614350  1.0
  Ni  Ni467  1  0.85104233  0.81839233  0.04614350  1.0
  Ni  Ni468  1  0.24036019  0.26369471  0.04807386  1.0
  Ni  Ni469  1  0.24036019  0.59702805  0.04807386  1.0
  Ni  Ni470  1  0.24036019  0.93036138  0.04807386  1.0
  Ni  Ni471  1  0.57369352  0.26369471  0.04807386  1.0
  Ni  Ni472  1  0.57369352  0.59702805  0.04807386  1.0
  Ni  Ni473  1  0.57369352  0.93036138  0.04807386  1.0
  Ni  Ni474  1  0.90702686  0.26369471  0.04807386  1.0
  Ni  Ni475  1  0.90702686  0.59702805  0.04807386  1.0
  Ni  Ni476  1  0.90702686  0.93036138  0.04807386  1.0
  Ni  Ni477  1  0.14512210  0.07321852  0.11950243  1.0
  Ni  Ni478  1  0.14512210  0.40655186  0.11950243  1.0
  Ni  Ni479  1  0.14512210  0.73988519  0.11950243  1.0
  Ni  Ni480  1  0.47845543  0.07321852  0.11950243  1.0
  Ni  Ni481  1  0.47845543  0.40655186  0.11950243  1.0
  Ni  Ni482  1  0.47845543  0.73988519  0.11950243  1.0
  Ni  Ni483  1  0.81178876  0.07321852  0.11950243  1.0
  Ni  Ni484  1  0.81178876  0.40655186  0.11950243  1.0
  Ni  Ni485  1  0.81178876  0.73988519  0.11950243  1.0
  Ni  Ni486  1  0.05371957  0.32446481  0.02528507  1.0
  Ni  Ni487  1  0.05371957  0.65779814  0.02528507  1.0
  Ni  Ni488  1  0.05371957  0.99113148  0.02528507  1.0
  Ni  Ni489  1  0.38705290  0.32446481  0.02528507  1.0
  Ni  Ni490  1  0.38705290  0.65779814  0.02528507  1.0
  Ni  Ni491  1  0.38705290  0.99113148  0.02528507  1.0
  Ni  Ni492  1  0.72038624  0.32446481  0.02528507  1.0
  Ni  Ni493  1  0.72038624  0.65779814  0.02528507  1.0
  Ni  Ni494  1  0.72038624  0.99113148  0.02528507  1.0
  Ni  Ni495  1  0.29181481  0.13398862  0.09671364  1.0
  Ni  Ni496  1  0.29181481  0.46732195  0.09671364  1.0
  Ni  Ni497  1  0.29181481  0.80065529  0.09671364  1.0
  Ni  Ni498  1  0.62514814  0.13398862  0.09671364  1.0
  Ni  Ni499  1  0.62514814  0.46732195  0.09671364  1.0
  Ni  Ni500  1  0.62514814  0.80065529  0.09671364  1.0
  Ni  Ni501  1  0.95848148  0.13398862  0.09671364  1.0
  Ni  Ni502  1  0.95848148  0.46732195  0.09671364  1.0
  Ni  Ni503  1  0.95848148  0.80065529  0.09671364  1.0
  Ni  Ni504  1  0.30465829  0.22750790  0.22565429  1.0
  Ni  Ni505  1  0.30465829  0.56084124  0.22565429  1.0
  Ni  Ni506  1  0.30465829  0.89417457  0.22565429  1.0
  Ni  Ni507  1  0.63799162  0.22750790  0.22565429  1.0
  Ni  Ni508  1  0.63799162  0.56084124  0.22565429  1.0
  Ni  Ni509  1  0.63799162  0.89417457  0.22565429  1.0
  Ni  Ni510  1  0.97132495  0.22750790  0.22565429  1.0
  Ni  Ni511  1  0.97132495  0.56084124  0.22565429  1.0
  Ni  Ni512  1  0.97132495  0.89417457  0.22565429  1.0
  Ni  Ni513  1  0.06656305  0.08465076  0.15422571  1.0
  Ni  Ni514  1  0.06656305  0.41798410  0.15422571  1.0
  Ni  Ni515  1  0.06656305  0.75131743  0.15422571  1.0
  Ni  Ni516  1  0.39989638  0.08465076  0.15422571  1.0
  Ni  Ni517  1  0.39989638  0.41798410  0.15422571  1.0
  Ni  Ni518  1  0.39989638  0.75131743  0.15422571  1.0
  Ni  Ni519  1  0.73322971  0.08465076  0.15422571  1.0
  Ni  Ni520  1  0.73322971  0.41798410  0.15422571  1.0
  Ni  Ni521  1  0.73322971  0.75131743  0.15422571  1.0
  Ni  Ni522  1  0.28999686  0.29513571  0.20029386  1.0
  Ni  Ni523  1  0.28999686  0.62846905  0.20029386  1.0
  Ni  Ni524  1  0.28999686  0.96180238  0.20029386  1.0
  Ni  Ni525  1  0.62333019  0.29513571  0.20029386  1.0
  Ni  Ni526  1  0.62333019  0.62846905  0.20029386  1.0
  Ni  Ni527  1  0.62333019  0.96180238  0.20029386  1.0
  Ni  Ni528  1  0.95666352  0.29513571  0.20029386  1.0
  Ni  Ni529  1  0.95666352  0.62846905  0.20029386  1.0
  Ni  Ni530  1  0.95666352  0.96180238  0.20029386  1.0
  Ni  Ni531  1  0.19475876  0.10465952  0.27172243  1.0
  Ni  Ni532  1  0.19475876  0.43799286  0.27172243  1.0
  Ni  Ni533  1  0.19475876  0.77132619  0.27172243  1.0
  Ni  Ni534  1  0.52809210  0.10465952  0.27172243  1.0
  Ni  Ni535  1  0.52809210  0.43799286  0.27172243  1.0
  Ni  Ni536  1  0.52809210  0.77132619  0.27172243  1.0
  Ni  Ni537  1  0.86142543  0.10465952  0.27172243  1.0
  Ni  Ni538  1  0.86142543  0.43799286  0.27172243  1.0
  Ni  Ni539  1  0.86142543  0.77132619  0.27172243  1.0
  Ni  Ni540  1  0.12391314  0.29630162  0.20291714  1.0
  Ni  Ni541  1  0.12391314  0.62963495  0.20291714  1.0
  Ni  Ni542  1  0.12391314  0.96296829  0.20291714  1.0
  Ni  Ni543  1  0.45724648  0.29630162  0.20291714  1.0
  Ni  Ni544  1  0.45724648  0.62963495  0.20291714  1.0
  Ni  Ni545  1  0.45724648  0.96296829  0.20291714  1.0
  Ni  Ni546  1  0.79057981  0.29630162  0.20291714  1.0
  Ni  Ni547  1  0.79057981  0.62963495  0.20291714  1.0
  Ni  Ni548  1  0.79057981  0.96296829  0.20291714  1.0
  Ni  Ni549  1  0.02867505  0.10582543  0.27434571  1.0
  Ni  Ni550  1  0.02867505  0.43915876  0.27434571  1.0
  Ni  Ni551  1  0.02867505  0.77249210  0.27434571  1.0
  Ni  Ni552  1  0.36200838  0.10582543  0.27434571  1.0
  Ni  Ni553  1  0.36200838  0.43915876  0.27434571  1.0
  Ni  Ni554  1  0.36200838  0.77249210  0.27434571  1.0
  Ni  Ni555  1  0.69534171  0.10582543  0.27434571  1.0
  Ni  Ni556  1  0.69534171  0.43915876  0.27434571  1.0
  Ni  Ni557  1  0.69534171  0.77249210  0.27434571  1.0
  Ni  Ni558  1  0.13857457  0.22867381  0.22827757  1.0
  Ni  Ni559  1  0.13857457  0.56200714  0.22827757  1.0
  Ni  Ni560  1  0.13857457  0.89534048  0.22827757  1.0
  Ni  Ni561  1  0.47190790  0.22867381  0.22827757  1.0
  Ni  Ni562  1  0.47190790  0.56200714  0.22827757  1.0
  Ni  Ni563  1  0.47190790  0.89534048  0.22827757  1.0
  Ni  Ni564  1  0.80524124  0.22867381  0.22827757  1.0
  Ni  Ni565  1  0.80524124  0.56200714  0.22827757  1.0
  Ni  Ni566  1  0.80524124  0.89534048  0.22827757  1.0
  Ni  Ni567  1  0.23381267  0.08581667  0.15684900  1.0
  Ni  Ni568  1  0.23381267  0.41915000  0.15684900  1.0
  Ni  Ni569  1  0.23381267  0.75248333  0.15684900  1.0
  Ni  Ni570  1  0.56714600  0.08581667  0.15684900  1.0
  Ni  Ni571  1  0.56714600  0.41915000  0.15684900  1.0
  Ni  Ni572  1  0.56714600  0.75248333  0.15684900  1.0
  Ni  Ni573  1  0.90047933  0.08581667  0.15684900  1.0
  Ni  Ni574  1  0.90047933  0.41915000  0.15684900  1.0
  Ni  Ni575  1  0.90047933  0.75248333  0.15684900  1.0
  Ni  Ni576  1  0.26190476  0.02380952  0.17857143  1.0
  Ni  Ni577  1  0.26190476  0.35714286  0.17857143  1.0
  Ni  Ni578  1  0.26190476  0.69047619  0.17857143  1.0
  Ni  Ni579  1  0.59523810  0.02380952  0.17857143  1.0
  Ni  Ni580  1  0.59523810  0.35714286  0.17857143  1.0
  Ni  Ni581  1  0.59523810  0.69047619  0.17857143  1.0
  Ni  Ni582  1  0.92857143  0.02380952  0.17857143  1.0
  Ni  Ni583  1  0.92857143  0.35714286  0.17857143  1.0
  Ni  Ni584  1  0.92857143  0.69047619  0.17857143  1.0
  Ni  Ni585  1  0.16666667  0.16666667  0.25000000  1.0
  Ni  Ni586  1  0.16666667  0.50000000  0.25000000  1.0
  Ni  Ni587  1  0.16666667  0.83333333  0.25000000  1.0
  Ni  Ni588  1  0.50000000  0.16666667  0.25000000  1.0
  Ni  Ni589  1  0.50000000  0.50000000  0.25000000  1.0
  Ni  Ni590  1  0.50000000  0.83333333  0.25000000  1.0
  Ni  Ni591  1  0.83333333  0.16666667  0.25000000  1.0
  Ni  Ni592  1  0.83333333  0.50000000  0.25000000  1.0
  Ni  Ni593  1  0.83333333  0.83333333  0.25000000  1.0
  Ni  Ni594  1  0.09523810  0.02380952  0.17857143  1.0
  Ni  Ni595  1  0.09523810  0.35714286  0.17857143  1.0
  Ni  Ni596  1  0.09523810  0.69047619  0.17857143  1.0
  Ni  Ni597  1  0.42857143  0.02380952  0.17857143  1.0
  Ni  Ni598  1  0.42857143  0.35714286  0.17857143  1.0
  Ni  Ni599  1  0.42857143  0.69047619  0.17857143  1.0
  Ni  Ni600  1  0.76190476  0.02380952  0.17857143  1.0
  Ni  Ni601  1  0.76190476  0.35714286  0.17857143  1.0
  Ni  Ni602  1  0.76190476  0.69047619  0.17857143  1.0
  Ni  Ni603  1  0.00000000  0.16666667  0.25000000  1.0
  Ni  Ni604  1  0.00000000  0.50000000  0.25000000  1.0
  Ni  Ni605  1  0.00000000  0.83333333  0.25000000  1.0
  Ni  Ni606  1  0.33333333  0.16666667  0.25000000  1.0
  Ni  Ni607  1  0.33333333  0.50000000  0.25000000  1.0
  Ni  Ni608  1  0.33333333  0.83333333  0.25000000  1.0
  Ni  Ni609  1  0.66666667  0.16666667  0.25000000  1.0
  Ni  Ni610  1  0.66666667  0.50000000  0.25000000  1.0
  Ni  Ni611  1  0.66666667  0.83333333  0.25000000  1.0
  Ni  Ni612  1  0.04535410  0.30773386  0.23764043  1.0
  Ni  Ni613  1  0.04535410  0.64106719  0.23764043  1.0
  Ni  Ni614  1  0.04535410  0.97440052  0.23764043  1.0
  Ni  Ni615  1  0.37868743  0.30773386  0.23764043  1.0
  Ni  Ni616  1  0.37868743  0.64106719  0.23764043  1.0
  Ni  Ni617  1  0.37868743  0.97440052  0.23764043  1.0
  Ni  Ni618  1  0.71202076  0.30773386  0.23764043  1.0
  Ni  Ni619  1  0.71202076  0.64106719  0.23764043  1.0
  Ni  Ni620  1  0.71202076  0.97440052  0.23764043  1.0
  Ni  Ni621  1  0.14059219  0.16487671  0.16621186  1.0
  Ni  Ni622  1  0.14059219  0.49821005  0.16621186  1.0
  Ni  Ni623  1  0.14059219  0.83154338  0.16621186  1.0
  Ni  Ni624  1  0.47392552  0.16487671  0.16621186  1.0
  Ni  Ni625  1  0.47392552  0.49821005  0.16621186  1.0
  Ni  Ni626  1  0.47392552  0.83154338  0.16621186  1.0
  Ni  Ni627  1  0.80725886  0.16487671  0.16621186  1.0
  Ni  Ni628  1  0.80725886  0.49821005  0.16621186  1.0
  Ni  Ni629  1  0.80725886  0.83154338  0.16621186  1.0
  Ni  Ni630  1  0.23199471  0.24696376  0.26042921  1.0
  Ni  Ni631  1  0.23199471  0.58029710  0.26042921  1.0
  Ni  Ni632  1  0.23199471  0.91363043  0.26042921  1.0
  Ni  Ni633  1  0.56532805  0.24696376  0.26042921  1.0
  Ni  Ni634  1  0.56532805  0.58029710  0.26042921  1.0
  Ni  Ni635  1  0.56532805  0.91363043  0.26042921  1.0
  Ni  Ni636  1  0.89866138  0.24696376  0.26042921  1.0
  Ni  Ni637  1  0.89866138  0.58029710  0.26042921  1.0
  Ni  Ni638  1  0.89866138  0.91363043  0.26042921  1.0
  Ni  Ni639  1  0.32723281  0.10410662  0.18900064  1.0
  Ni  Ni640  1  0.32723281  0.43743995  0.18900064  1.0
  Ni  Ni641  1  0.32723281  0.77077329  0.18900064  1.0
  Ni  Ni642  1  0.66056614  0.10410662  0.18900064  1.0
  Ni  Ni643  1  0.66056614  0.43743995  0.18900064  1.0
  Ni  Ni644  1  0.66056614  0.77077329  0.18900064  1.0
  Ni  Ni645  1  0.99389948  0.10410662  0.18900064  1.0
  Ni  Ni646  1  0.99389948  0.43743995  0.18900064  1.0
  Ni  Ni647  1  0.99389948  0.77077329  0.18900064  1.0
  Ni  Ni648  1  0.04988400  0.21607567  0.19093100  1.0
  Ni  Ni649  1  0.04988400  0.54940900  0.19093100  1.0
  Ni  Ni650  1  0.04988400  0.88274233  0.19093100  1.0
  Ni  Ni651  1  0.38321733  0.21607567  0.19093100  1.0
  Ni  Ni652  1  0.38321733  0.54940900  0.19093100  1.0
  Ni  Ni653  1  0.38321733  0.88274233  0.19093100  1.0
  Ni  Ni654  1  0.71655067  0.21607567  0.19093100  1.0
  Ni  Ni655  1  0.71655067  0.54940900  0.19093100  1.0
  Ni  Ni656  1  0.71655067  0.88274233  0.19093100  1.0
  Ni  Ni657  1  0.28797924  0.02559948  0.26235957  1.0
  Ni  Ni658  1  0.28797924  0.35893281  0.26235957  1.0
  Ni  Ni659  1  0.28797924  0.69226614  0.26235957  1.0
  Ni  Ni660  1  0.62131257  0.02559948  0.26235957  1.0
  Ni  Ni661  1  0.62131257  0.35893281  0.26235957  1.0
  Ni  Ni662  1  0.62131257  0.69226614  0.26235957  1.0
  Ni  Ni663  1  0.95464590  0.02559948  0.26235957  1.0
  Ni  Ni664  1  0.95464590  0.35893281  0.26235957  1.0
  Ni  Ni665  1  0.95464590  0.69226614  0.26235957  1.0
  Ni  Ni666  1  0.19657671  0.27684576  0.16814221  1.0
  Ni  Ni667  1  0.19657671  0.61017910  0.16814221  1.0
  Ni  Ni668  1  0.19657671  0.94351243  0.16814221  1.0
  Ni  Ni669  1  0.52991005  0.27684576  0.16814221  1.0
  Ni  Ni670  1  0.52991005  0.61017910  0.16814221  1.0
  Ni  Ni671  1  0.52991005  0.94351243  0.16814221  1.0
  Ni  Ni672  1  0.86324338  0.27684576  0.16814221  1.0
  Ni  Ni673  1  0.86324338  0.61017910  0.16814221  1.0
  Ni  Ni674  1  0.86324338  0.94351243  0.16814221  1.0
  Ni  Ni675  1  0.10133862  0.08636957  0.23957079  1.0
  Ni  Ni676  1  0.10133862  0.41970290  0.23957079  1.0
  Ni  Ni677  1  0.10133862  0.75303624  0.23957079  1.0
  Ni  Ni678  1  0.43467195  0.08636957  0.23957079  1.0
  Ni  Ni679  1  0.43467195  0.41970290  0.23957079  1.0
  Ni  Ni680  1  0.43467195  0.75303624  0.23957079  1.0
  Ni  Ni681  1  0.76800529  0.08636957  0.23957079  1.0
  Ni  Ni682  1  0.76800529  0.41970290  0.23957079  1.0
  Ni  Ni683  1  0.76800529  0.75303624  0.23957079  1.0
  Ni  Ni684  1  0.11418210  0.17988886  0.36851143  1.0
  Ni  Ni685  1  0.11418210  0.51322219  0.36851143  1.0
  Ni  Ni686  1  0.11418210  0.84655552  0.36851143  1.0
  Ni  Ni687  1  0.44751543  0.17988886  0.36851143  1.0
  Ni  Ni688  1  0.44751543  0.51322219  0.36851143  1.0
  Ni  Ni689  1  0.44751543  0.84655552  0.36851143  1.0
  Ni  Ni690  1  0.78084876  0.17988886  0.36851143  1.0
  Ni  Ni691  1  0.78084876  0.51322219  0.36851143  1.0
  Ni  Ni692  1  0.78084876  0.84655552  0.36851143  1.0
  Ni  Ni693  1  0.20942019  0.03703171  0.29708286  1.0
  Ni  Ni694  1  0.20942019  0.37036505  0.29708286  1.0
  Ni  Ni695  1  0.20942019  0.70369838  0.29708286  1.0
  Ni  Ni696  1  0.54275352  0.03703171  0.29708286  1.0
  Ni  Ni697  1  0.54275352  0.37036505  0.29708286  1.0
  Ni  Ni698  1  0.54275352  0.70369838  0.29708286  1.0
  Ni  Ni699  1  0.87608686  0.03703171  0.29708286  1.0
  Ni  Ni700  1  0.87608686  0.37036505  0.29708286  1.0
  Ni  Ni701  1  0.87608686  0.70369838  0.29708286  1.0
  Ni  Ni702  1  0.09952067  0.24751667  0.34315100  1.0
  Ni  Ni703  1  0.09952067  0.58085000  0.34315100  1.0
  Ni  Ni704  1  0.09952067  0.91418333  0.34315100  1.0
  Ni  Ni705  1  0.43285400  0.24751667  0.34315100  1.0
  Ni  Ni706  1  0.43285400  0.58085000  0.34315100  1.0
  Ni  Ni707  1  0.43285400  0.91418333  0.34315100  1.0
  Ni  Ni708  1  0.76618733  0.24751667  0.34315100  1.0
  Ni  Ni709  1  0.76618733  0.58085000  0.34315100  1.0
  Ni  Ni710  1  0.76618733  0.91418333  0.34315100  1.0
  Ni  Ni711  1  0.00428257  0.05704048  0.41457957  1.0
  Ni  Ni712  1  0.00428257  0.39037381  0.41457957  1.0
  Ni  Ni713  1  0.00428257  0.72370714  0.41457957  1.0
  Ni  Ni714  1  0.33761590  0.05704048  0.41457957  1.0
  Ni  Ni715  1  0.33761590  0.39037381  0.41457957  1.0
  Ni  Ni716  1  0.33761590  0.72370714  0.41457957  1.0
  Ni  Ni717  1  0.67094924  0.05704048  0.41457957  1.0
  Ni  Ni718  1  0.67094924  0.39037381  0.41457957  1.0
  Ni  Ni719  1  0.67094924  0.72370714  0.41457957  1.0
  Ni  Ni720  1  0.26677029  0.24868257  0.34577429  1.0
  Ni  Ni721  1  0.26677029  0.58201590  0.34577429  1.0
  Ni  Ni722  1  0.26677029  0.91534924  0.34577429  1.0
  Ni  Ni723  1  0.60010362  0.24868257  0.34577429  1.0
  Ni  Ni724  1  0.60010362  0.58201590  0.34577429  1.0
  Ni  Ni725  1  0.60010362  0.91534924  0.34577429  1.0
  Ni  Ni726  1  0.93343695  0.24868257  0.34577429  1.0
  Ni  Ni727  1  0.93343695  0.58201590  0.34577429  1.0
  Ni  Ni728  1  0.93343695  0.91534924  0.34577429  1.0
  Ni  Ni729  1  0.17153219  0.05820638  0.41720286  1.0
  Ni  Ni730  1  0.17153219  0.39153971  0.41720286  1.0
  Ni  Ni731  1  0.17153219  0.72487305  0.41720286  1.0
  Ni  Ni732  1  0.50486552  0.05820638  0.41720286  1.0
  Ni  Ni733  1  0.50486552  0.39153971  0.41720286  1.0
  Ni  Ni734  1  0.50486552  0.72487305  0.41720286  1.0
  Ni  Ni735  1  0.83819886  0.05820638  0.41720286  1.0
  Ni  Ni736  1  0.83819886  0.39153971  0.41720286  1.0
  Ni  Ni737  1  0.83819886  0.72487305  0.41720286  1.0
  Ni  Ni738  1  0.28143171  0.18105476  0.37113471  1.0
  Ni  Ni739  1  0.28143171  0.51438810  0.37113471  1.0
  Ni  Ni740  1  0.28143171  0.84772143  0.37113471  1.0
  Ni  Ni741  1  0.61476505  0.18105476  0.37113471  1.0
  Ni  Ni742  1  0.61476505  0.51438810  0.37113471  1.0
  Ni  Ni743  1  0.61476505  0.84772143  0.37113471  1.0
  Ni  Ni744  1  0.94809838  0.18105476  0.37113471  1.0
  Ni  Ni745  1  0.94809838  0.51438810  0.37113471  1.0
  Ni  Ni746  1  0.94809838  0.84772143  0.37113471  1.0
  Ni  Ni747  1  0.04333648  0.03819762  0.29970614  1.0
  Ni  Ni748  1  0.04333648  0.37153095  0.29970614  1.0
  Ni  Ni749  1  0.04333648  0.70486429  0.29970614  1.0
  Ni  Ni750  1  0.37666981  0.03819762  0.29970614  1.0
  Ni  Ni751  1  0.37666981  0.37153095  0.29970614  1.0
  Ni  Ni752  1  0.37666981  0.70486429  0.29970614  1.0
  Ni  Ni753  1  0.71000314  0.03819762  0.29970614  1.0
  Ni  Ni754  1  0.71000314  0.37153095  0.29970614  1.0
  Ni  Ni755  1  0.71000314  0.70486429  0.29970614  1.0
  Ni  Ni756  1  0.07142857  0.30952381  0.32142857  1.0
  Ni  Ni757  1  0.07142857  0.64285714  0.32142857  1.0
  Ni  Ni758  1  0.07142857  0.97619048  0.32142857  1.0
  Ni  Ni759  1  0.40476190  0.30952381  0.32142857  1.0
  Ni  Ni760  1  0.40476190  0.64285714  0.32142857  1.0
  Ni  Ni761  1  0.40476190  0.97619048  0.32142857  1.0
  Ni  Ni762  1  0.73809524  0.30952381  0.32142857  1.0
  Ni  Ni763  1  0.73809524  0.64285714  0.32142857  1.0
  Ni  Ni764  1  0.73809524  0.97619048  0.32142857  1.0
  Ni  Ni765  1  0.30952381  0.11904762  0.39285714  1.0
  Ni  Ni766  1  0.30952381  0.45238095  0.39285714  1.0
  Ni  Ni767  1  0.30952381  0.78571429  0.39285714  1.0
  Ni  Ni768  1  0.64285714  0.11904762  0.39285714  1.0
  Ni  Ni769  1  0.64285714  0.45238095  0.39285714  1.0
  Ni  Ni770  1  0.64285714  0.78571429  0.39285714  1.0
  Ni  Ni771  1  0.97619048  0.11904762  0.39285714  1.0
  Ni  Ni772  1  0.97619048  0.45238095  0.39285714  1.0
  Ni  Ni773  1  0.97619048  0.78571429  0.39285714  1.0
  Ni  Ni774  1  0.23809524  0.30952381  0.32142857  1.0
  Ni  Ni775  1  0.23809524  0.64285714  0.32142857  1.0
  Ni  Ni776  1  0.23809524  0.97619048  0.32142857  1.0
  Ni  Ni777  1  0.57142857  0.30952381  0.32142857  1.0
  Ni  Ni778  1  0.57142857  0.64285714  0.32142857  1.0
  Ni  Ni779  1  0.57142857  0.97619048  0.32142857  1.0
  Ni  Ni780  1  0.90476190  0.30952381  0.32142857  1.0
  Ni  Ni781  1  0.90476190  0.64285714  0.32142857  1.0
  Ni  Ni782  1  0.90476190  0.97619048  0.32142857  1.0
  Ni  Ni783  1  0.14285714  0.11904762  0.39285714  1.0
  Ni  Ni784  1  0.14285714  0.45238095  0.39285714  1.0
  Ni  Ni785  1  0.14285714  0.78571429  0.39285714  1.0
  Ni  Ni786  1  0.47619048  0.11904762  0.39285714  1.0
  Ni  Ni787  1  0.47619048  0.45238095  0.39285714  1.0
  Ni  Ni788  1  0.47619048  0.78571429  0.39285714  1.0
  Ni  Ni789  1  0.80952381  0.11904762  0.39285714  1.0
  Ni  Ni790  1  0.80952381  0.45238095  0.39285714  1.0
  Ni  Ni791  1  0.80952381  0.78571429  0.39285714  1.0
  Ni  Ni792  1  0.18821124  0.26011481  0.38049757  1.0
  Ni  Ni793  1  0.18821124  0.59344814  0.38049757  1.0
  Ni  Ni794  1  0.18821124  0.92678148  0.38049757  1.0
  Ni  Ni795  1  0.52154457  0.26011481  0.38049757  1.0
  Ni  Ni796  1  0.52154457  0.59344814  0.38049757  1.0
  Ni  Ni797  1  0.52154457  0.92678148  0.38049757  1.0
  Ni  Ni798  1  0.85487790  0.26011481  0.38049757  1.0
  Ni  Ni799  1  0.85487790  0.59344814  0.38049757  1.0
  Ni  Ni800  1  0.85487790  0.92678148  0.38049757  1.0
  Ni  Ni801  1  0.28344933  0.11725767  0.30906900  1.0
  Ni  Ni802  1  0.28344933  0.45059100  0.30906900  1.0
  Ni  Ni803  1  0.28344933  0.78392433  0.30906900  1.0
  Ni  Ni804  1  0.61678267  0.11725767  0.30906900  1.0
  Ni  Ni805  1  0.61678267  0.45059100  0.30906900  1.0
  Ni  Ni806  1  0.61678267  0.78392433  0.30906900  1.0
  Ni  Ni807  1  0.95011600  0.11725767  0.30906900  1.0
  Ni  Ni808  1  0.95011600  0.45059100  0.30906900  1.0
  Ni  Ni809  1  0.95011600  0.78392433  0.30906900  1.0
  Ni  Ni810  1  0.04151852  0.19934471  0.40328636  1.0
  Ni  Ni811  1  0.04151852  0.53267805  0.40328636  1.0
  Ni  Ni812  1  0.04151852  0.86601138  0.40328636  1.0
  Ni  Ni813  1  0.37485186  0.19934471  0.40328636  1.0
  Ni  Ni814  1  0.37485186  0.53267805  0.40328636  1.0
  Ni  Ni815  1  0.37485186  0.86601138  0.40328636  1.0
  Ni  Ni816  1  0.70818519  0.19934471  0.40328636  1.0
  Ni  Ni817  1  0.70818519  0.53267805  0.40328636  1.0
  Ni  Ni818  1  0.70818519  0.86601138  0.40328636  1.0
  Ni  Ni819  1  0.13675662  0.05648757  0.33185779  1.0
  Ni  Ni820  1  0.13675662  0.38982090  0.33185779  1.0
  Ni  Ni821  1  0.13675662  0.72315424  0.33185779  1.0
  Ni  Ni822  1  0.47008995  0.05648757  0.33185779  1.0
  Ni  Ni823  1  0.47008995  0.38982090  0.33185779  1.0
  Ni  Ni824  1  0.47008995  0.72315424  0.33185779  1.0
  Ni  Ni825  1  0.80342329  0.05648757  0.33185779  1.0
  Ni  Ni826  1  0.80342329  0.38982090  0.33185779  1.0
  Ni  Ni827  1  0.80342329  0.72315424  0.33185779  1.0
  Ni  Ni828  1  0.19274114  0.16845662  0.33378814  1.0
  Ni  Ni829  1  0.19274114  0.50178995  0.33378814  1.0
  Ni  Ni830  1  0.19274114  0.83512329  0.33378814  1.0
  Ni  Ni831  1  0.52607448  0.16845662  0.33378814  1.0
  Ni  Ni832  1  0.52607448  0.50178995  0.33378814  1.0
  Ni  Ni833  1  0.52607448  0.83512329  0.33378814  1.0
  Ni  Ni834  1  0.85940781  0.16845662  0.33378814  1.0
  Ni  Ni835  1  0.85940781  0.50178995  0.33378814  1.0
  Ni  Ni836  1  0.85940781  0.83512329  0.33378814  1.0
  Ni  Ni837  1  0.09750305  0.31131376  0.40521671  1.0
  Ni  Ni838  1  0.09750305  0.64464710  0.40521671  1.0
  Ni  Ni839  1  0.09750305  0.97798043  0.40521671  1.0
  Ni  Ni840  1  0.43083638  0.31131376  0.40521671  1.0
  Ni  Ni841  1  0.43083638  0.64464710  0.40521671  1.0
  Ni  Ni842  1  0.43083638  0.97798043  0.40521671  1.0
  Ni  Ni843  1  0.76416971  0.31131376  0.40521671  1.0
  Ni  Ni844  1  0.76416971  0.64464710  0.40521671  1.0
  Ni  Ni845  1  0.76416971  0.97798043  0.40521671  1.0
  Ni  Ni846  1  0.00610052  0.22922671  0.31099936  1.0
  Ni  Ni847  1  0.00610052  0.56256005  0.31099936  1.0
  Ni  Ni848  1  0.00610052  0.89589338  0.31099936  1.0
  Ni  Ni849  1  0.33943386  0.22922671  0.31099936  1.0
  Ni  Ni850  1  0.33943386  0.56256005  0.31099936  1.0
  Ni  Ni851  1  0.33943386  0.89589338  0.31099936  1.0
  Ni  Ni852  1  0.67276719  0.22922671  0.31099936  1.0
  Ni  Ni853  1  0.67276719  0.56256005  0.31099936  1.0
  Ni  Ni854  1  0.67276719  0.89589338  0.31099936  1.0
  Ni  Ni855  1  0.24419576  0.03875052  0.38242793  1.0
  Ni  Ni856  1  0.24419576  0.37208386  0.38242793  1.0
  Ni  Ni857  1  0.24419576  0.70541719  0.38242793  1.0
  Ni  Ni858  1  0.57752910  0.03875052  0.38242793  1.0
  Ni  Ni859  1  0.57752910  0.37208386  0.38242793  1.0
  Ni  Ni860  1  0.57752910  0.70541719  0.38242793  1.0
  Ni  Ni861  1  0.91086243  0.03875052  0.38242793  1.0
  Ni  Ni862  1  0.91086243  0.37208386  0.38242793  1.0
  Ni  Ni863  1  0.91086243  0.70541719  0.38242793  1.0
