# generated using pymatgen
data_Ni5Ge2
_symmetry_space_group_name_H-M   'P 1'
_cell_length_a   35.32458680
_cell_length_b   42.55513009
_cell_length_c   61.18397910
_cell_angle_alpha   76.13551260
_cell_angle_beta   30.00000000
_cell_angle_gamma   65.47785046
_symmetry_Int_Tables_number   1
_chemical_formula_structural   Ni5Ge2
_chemical_formula_sum   'Ni1080 Ge432'
_cell_volume   40361.88514748
_cell_formula_units_Z   216
loop_
 _symmetry_equiv_pos_site_id
 _symmetry_equiv_pos_as_xyz
  1  'x, y, z'
loop_
 _atom_site_type_symbol
 _atom_site_label
 _atom_site_symmetry_multiplicity
 _atom_site_fract_x
 _atom_site_fract_y
 _atom_site_fract_z
 _atom_site_occupancy
  Ni  Ni0  1  0.30945467  0.02387867  0.00333661  1.0
  Ni  Ni1  1  0.30945467  0.35721200  0.00333661  1.0
  Ni  Ni2  1  0.30945467  0.69054533  0.00333661  1.0
  Ni  Ni3  1  0.64278800  0.02387867  0.00333661  1.0
  Ni  Ni4  1  0.64278800  0.35721200  0.00333661  1.0
  Ni  Ni5  1  0.64278800  0.69054533  0.00333661  1.0
  Ni  Ni6  1  0.97612133  0.02387867  0.00333661  1.0
  Ni  Ni7  1  0.97612133  0.35721200  0.00333661  1.0
  Ni  Ni8  1  0.97612133  0.69054533  0.00333661  1.0
  Ni  Ni9  1  0.14278800  0.19054533  0.05889217  1.0
  Ni  Ni10  1  0.14278800  0.52387867  0.05889217  1.0
  Ni  Ni11  1  0.14278800  0.85721200  0.05889217  1.0
  Ni  Ni12  1  0.47612133  0.19054533  0.05889217  1.0
  Ni  Ni13  1  0.47612133  0.52387867  0.05889217  1.0
  Ni  Ni14  1  0.47612133  0.85721200  0.05889217  1.0
  Ni  Ni15  1  0.80945467  0.19054533  0.05889217  1.0
  Ni  Ni16  1  0.80945467  0.52387867  0.05889217  1.0
  Ni  Ni17  1  0.80945467  0.85721200  0.05889217  1.0
  Ni  Ni18  1  0.24646856  0.30908700  0.09840606  1.0
  Ni  Ni19  1  0.24646856  0.64242033  0.09840606  1.0
  Ni  Ni20  1  0.24646856  0.97575367  0.09840606  1.0
  Ni  Ni21  1  0.57980189  0.30908700  0.09840606  1.0
  Ni  Ni22  1  0.57980189  0.64242033  0.09840606  1.0
  Ni  Ni23  1  0.57980189  0.97575367  0.09840606  1.0
  Ni  Ni24  1  0.91313522  0.30908700  0.09840606  1.0
  Ni  Ni25  1  0.91313522  0.64242033  0.09840606  1.0
  Ni  Ni26  1  0.91313522  0.97575367  0.09840606  1.0
  Ni  Ni27  1  0.13535744  0.30908700  0.09840606  1.0
  Ni  Ni28  1  0.13535744  0.64242033  0.09840606  1.0
  Ni  Ni29  1  0.13535744  0.97575367  0.09840606  1.0
  Ni  Ni30  1  0.46869078  0.30908700  0.09840606  1.0
  Ni  Ni31  1  0.46869078  0.64242033  0.09840606  1.0
  Ni  Ni32  1  0.46869078  0.97575367  0.09840606  1.0
  Ni  Ni33  1  0.80202411  0.30908700  0.09840606  1.0
  Ni  Ni34  1  0.80202411  0.64242033  0.09840606  1.0
  Ni  Ni35  1  0.80202411  0.97575367  0.09840606  1.0
  Ni  Ni36  1  0.30202411  0.14242033  0.04285050  1.0
  Ni  Ni37  1  0.30202411  0.47575367  0.04285050  1.0
  Ni  Ni38  1  0.30202411  0.80908700  0.04285050  1.0
  Ni  Ni39  1  0.63535744  0.14242033  0.04285050  1.0
  Ni  Ni40  1  0.63535744  0.47575367  0.04285050  1.0
  Ni  Ni41  1  0.63535744  0.80908700  0.04285050  1.0
  Ni  Ni42  1  0.96869078  0.14242033  0.04285050  1.0
  Ni  Ni43  1  0.96869078  0.47575367  0.04285050  1.0
  Ni  Ni44  1  0.96869078  0.80908700  0.04285050  1.0
  Ni  Ni45  1  0.07980189  0.14242033  0.04285050  1.0
  Ni  Ni46  1  0.07980189  0.47575367  0.04285050  1.0
  Ni  Ni47  1  0.07980189  0.80908700  0.04285050  1.0
  Ni  Ni48  1  0.41313522  0.14242033  0.04285050  1.0
  Ni  Ni49  1  0.41313522  0.47575367  0.04285050  1.0
  Ni  Ni50  1  0.41313522  0.80908700  0.04285050  1.0
  Ni  Ni51  1  0.74646856  0.14242033  0.04285050  1.0
  Ni  Ni52  1  0.74646856  0.47575367  0.04285050  1.0
  Ni  Ni53  1  0.74646856  0.80908700  0.04285050  1.0
  Ni  Ni54  1  0.03222233  0.30111100  0.01405761  1.0
  Ni  Ni55  1  0.03222233  0.63444433  0.01405761  1.0
  Ni  Ni56  1  0.03222233  0.96777767  0.01405761  1.0
  Ni  Ni57  1  0.36555567  0.30111100  0.01405761  1.0
  Ni  Ni58  1  0.36555567  0.63444433  0.01405761  1.0
  Ni  Ni59  1  0.36555567  0.96777767  0.01405761  1.0
  Ni  Ni60  1  0.69888900  0.30111100  0.01405761  1.0
  Ni  Ni61  1  0.69888900  0.63444433  0.01405761  1.0
  Ni  Ni62  1  0.69888900  0.96777767  0.01405761  1.0
  Ni  Ni63  1  0.27729167  0.30111100  0.01405761  1.0
  Ni  Ni64  1  0.27729167  0.63444433  0.01405761  1.0
  Ni  Ni65  1  0.27729167  0.96777767  0.01405761  1.0
  Ni  Ni66  1  0.61062500  0.30111100  0.01405761  1.0
  Ni  Ni67  1  0.61062500  0.63444433  0.01405761  1.0
  Ni  Ni68  1  0.61062500  0.96777767  0.01405761  1.0
  Ni  Ni69  1  0.94395833  0.30111100  0.01405761  1.0
  Ni  Ni70  1  0.94395833  0.63444433  0.01405761  1.0
  Ni  Ni71  1  0.94395833  0.96777767  0.01405761  1.0
  Ni  Ni72  1  0.12048633  0.30111100  0.03690472  1.0
  Ni  Ni73  1  0.12048633  0.63444433  0.03690472  1.0
  Ni  Ni74  1  0.12048633  0.96777767  0.03690472  1.0
  Ni  Ni75  1  0.45381967  0.30111100  0.03690472  1.0
  Ni  Ni76  1  0.45381967  0.63444433  0.03690472  1.0
  Ni  Ni77  1  0.45381967  0.96777767  0.03690472  1.0
  Ni  Ni78  1  0.78715300  0.30111100  0.03690472  1.0
  Ni  Ni79  1  0.78715300  0.63444433  0.03690472  1.0
  Ni  Ni80  1  0.78715300  0.96777767  0.03690472  1.0
  Ni  Ni81  1  0.19888900  0.13444433  0.01077050  1.0
  Ni  Ni82  1  0.19888900  0.46777767  0.01077050  1.0
  Ni  Ni83  1  0.19888900  0.80111100  0.01077050  1.0
  Ni  Ni84  1  0.53222233  0.13444433  0.01077050  1.0
  Ni  Ni85  1  0.53222233  0.46777767  0.01077050  1.0
  Ni  Ni86  1  0.53222233  0.80111100  0.01077050  1.0
  Ni  Ni87  1  0.86555567  0.13444433  0.01077050  1.0
  Ni  Ni88  1  0.86555567  0.46777767  0.01077050  1.0
  Ni  Ni89  1  0.86555567  0.80111100  0.01077050  1.0
  Ni  Ni90  1  0.28715300  0.13444433  0.01077050  1.0
  Ni  Ni91  1  0.28715300  0.46777767  0.01077050  1.0
  Ni  Ni92  1  0.28715300  0.80111100  0.01077050  1.0
  Ni  Ni93  1  0.62048633  0.13444433  0.01077050  1.0
  Ni  Ni94  1  0.62048633  0.46777767  0.01077050  1.0
  Ni  Ni95  1  0.62048633  0.80111100  0.01077050  1.0
  Ni  Ni96  1  0.95381967  0.13444433  0.01077050  1.0
  Ni  Ni97  1  0.95381967  0.46777767  0.01077050  1.0
  Ni  Ni98  1  0.95381967  0.80111100  0.01077050  1.0
  Ni  Ni99  1  0.11062500  0.13444433  0.09903450  1.0
  Ni  Ni100  1  0.11062500  0.46777767  0.09903450  1.0
  Ni  Ni101  1  0.11062500  0.80111100  0.09903450  1.0
  Ni  Ni102  1  0.44395833  0.13444433  0.09903450  1.0
  Ni  Ni103  1  0.44395833  0.46777767  0.09903450  1.0
  Ni  Ni104  1  0.44395833  0.80111100  0.09903450  1.0
  Ni  Ni105  1  0.77729167  0.13444433  0.09903450  1.0
  Ni  Ni106  1  0.77729167  0.46777767  0.09903450  1.0
  Ni  Ni107  1  0.77729167  0.80111100  0.09903450  1.0
  Ni  Ni108  1  0.06415567  0.26917767  0.04357361  1.0
  Ni  Ni109  1  0.06415567  0.60251100  0.04357361  1.0
  Ni  Ni110  1  0.06415567  0.93584433  0.04357361  1.0
  Ni  Ni111  1  0.39748900  0.26917767  0.04357361  1.0
  Ni  Ni112  1  0.39748900  0.60251100  0.04357361  1.0
  Ni  Ni113  1  0.39748900  0.93584433  0.04357361  1.0
  Ni  Ni114  1  0.73082233  0.26917767  0.04357361  1.0
  Ni  Ni115  1  0.73082233  0.60251100  0.04357361  1.0
  Ni  Ni116  1  0.73082233  0.93584433  0.04357361  1.0
  Ni  Ni117  1  0.18874367  0.26917767  0.04357361  1.0
  Ni  Ni118  1  0.18874367  0.60251100  0.04357361  1.0
  Ni  Ni119  1  0.18874367  0.93584433  0.04357361  1.0
  Ni  Ni120  1  0.52207700  0.26917767  0.04357361  1.0
  Ni  Ni121  1  0.52207700  0.60251100  0.04357361  1.0
  Ni  Ni122  1  0.52207700  0.93584433  0.04357361  1.0
  Ni  Ni123  1  0.85541033  0.26917767  0.04357361  1.0
  Ni  Ni124  1  0.85541033  0.60251100  0.04357361  1.0
  Ni  Ni125  1  0.85541033  0.93584433  0.04357361  1.0
  Ni  Ni126  1  0.27290100  0.26917767  0.05705050  1.0
  Ni  Ni127  1  0.27290100  0.60251100  0.05705050  1.0
  Ni  Ni128  1  0.27290100  0.93584433  0.05705050  1.0
  Ni  Ni129  1  0.60623433  0.26917767  0.05705050  1.0
  Ni  Ni130  1  0.60623433  0.60251100  0.05705050  1.0
  Ni  Ni131  1  0.60623433  0.93584433  0.05705050  1.0
  Ni  Ni132  1  0.93956767  0.26917767  0.05705050  1.0
  Ni  Ni133  1  0.93956767  0.60251100  0.05705050  1.0
  Ni  Ni134  1  0.93956767  0.93584433  0.05705050  1.0
  Ni  Ni135  1  0.23082233  0.10251100  0.07107672  1.0
  Ni  Ni136  1  0.23082233  0.43584433  0.07107672  1.0
  Ni  Ni137  1  0.23082233  0.76917767  0.07107672  1.0
  Ni  Ni138  1  0.56415567  0.10251100  0.07107672  1.0
  Ni  Ni139  1  0.56415567  0.43584433  0.07107672  1.0
  Ni  Ni140  1  0.56415567  0.76917767  0.07107672  1.0
  Ni  Ni141  1  0.89748900  0.10251100  0.07107672  1.0
  Ni  Ni142  1  0.89748900  0.43584433  0.07107672  1.0
  Ni  Ni143  1  0.89748900  0.76917767  0.07107672  1.0
  Ni  Ni144  1  0.10623433  0.10251100  0.07107672  1.0
  Ni  Ni145  1  0.10623433  0.43584433  0.07107672  1.0
  Ni  Ni146  1  0.10623433  0.76917767  0.07107672  1.0
  Ni  Ni147  1  0.43956767  0.10251100  0.07107672  1.0
  Ni  Ni148  1  0.43956767  0.43584433  0.07107672  1.0
  Ni  Ni149  1  0.43956767  0.76917767  0.07107672  1.0
  Ni  Ni150  1  0.77290100  0.10251100  0.07107672  1.0
  Ni  Ni151  1  0.77290100  0.43584433  0.07107672  1.0
  Ni  Ni152  1  0.77290100  0.76917767  0.07107672  1.0
  Ni  Ni153  1  0.02207700  0.10251100  0.05759983  1.0
  Ni  Ni154  1  0.02207700  0.43584433  0.05759983  1.0
  Ni  Ni155  1  0.02207700  0.76917767  0.05759983  1.0
  Ni  Ni156  1  0.35541033  0.10251100  0.05759983  1.0
  Ni  Ni157  1  0.35541033  0.43584433  0.05759983  1.0
  Ni  Ni158  1  0.35541033  0.76917767  0.05759983  1.0
  Ni  Ni159  1  0.68874367  0.10251100  0.05759983  1.0
  Ni  Ni160  1  0.68874367  0.43584433  0.05759983  1.0
  Ni  Ni161  1  0.68874367  0.76917767  0.05759983  1.0
  Ni  Ni162  1  0.10141967  0.23191367  0.10693372  1.0
  Ni  Ni163  1  0.10141967  0.56524700  0.10693372  1.0
  Ni  Ni164  1  0.10141967  0.89858033  0.10693372  1.0
  Ni  Ni165  1  0.43475300  0.23191367  0.10693372  1.0
  Ni  Ni166  1  0.43475300  0.56524700  0.10693372  1.0
  Ni  Ni167  1  0.43475300  0.89858033  0.10693372  1.0
  Ni  Ni168  1  0.76808633  0.23191367  0.10693372  1.0
  Ni  Ni169  1  0.76808633  0.56524700  0.10693372  1.0
  Ni  Ni170  1  0.76808633  0.89858033  0.10693372  1.0
  Ni  Ni171  1  0.33199667  0.23191367  0.10693372  1.0
  Ni  Ni172  1  0.33199667  0.56524700  0.10693372  1.0
  Ni  Ni173  1  0.33199667  0.89858033  0.10693372  1.0
  Ni  Ni174  1  0.66533000  0.23191367  0.10693372  1.0
  Ni  Ni175  1  0.66533000  0.56524700  0.10693372  1.0
  Ni  Ni176  1  0.66533000  0.89858033  0.10693372  1.0
  Ni  Ni177  1  0.99866333  0.23191367  0.10693372  1.0
  Ni  Ni178  1  0.99866333  0.56524700  0.10693372  1.0
  Ni  Ni179  1  0.99866333  0.89858033  0.10693372  1.0
  Ni  Ni180  1  0.20417600  0.23191367  0.00417739  1.0
  Ni  Ni181  1  0.20417600  0.56524700  0.00417739  1.0
  Ni  Ni182  1  0.20417600  0.89858033  0.00417739  1.0
  Ni  Ni183  1  0.53750933  0.23191367  0.00417739  1.0
  Ni  Ni184  1  0.53750933  0.56524700  0.00417739  1.0
  Ni  Ni185  1  0.53750933  0.89858033  0.00417739  1.0
  Ni  Ni186  1  0.87084267  0.23191367  0.00417739  1.0
  Ni  Ni187  1  0.87084267  0.56524700  0.00417739  1.0
  Ni  Ni188  1  0.87084267  0.89858033  0.00417739  1.0
  Ni  Ni189  1  0.26808633  0.06524700  0.09398506  1.0
  Ni  Ni190  1  0.26808633  0.39858033  0.09398506  1.0
  Ni  Ni191  1  0.26808633  0.73191367  0.09398506  1.0
  Ni  Ni192  1  0.60141967  0.06524700  0.09398506  1.0
  Ni  Ni193  1  0.60141967  0.39858033  0.09398506  1.0
  Ni  Ni194  1  0.60141967  0.73191367  0.09398506  1.0
  Ni  Ni195  1  0.93475300  0.06524700  0.09398506  1.0
  Ni  Ni196  1  0.93475300  0.39858033  0.09398506  1.0
  Ni  Ni197  1  0.93475300  0.73191367  0.09398506  1.0
  Ni  Ni198  1  0.03750933  0.06524700  0.09398506  1.0
  Ni  Ni199  1  0.03750933  0.39858033  0.09398506  1.0
  Ni  Ni200  1  0.03750933  0.73191367  0.09398506  1.0
  Ni  Ni201  1  0.37084267  0.06524700  0.09398506  1.0
  Ni  Ni202  1  0.37084267  0.39858033  0.09398506  1.0
  Ni  Ni203  1  0.37084267  0.73191367  0.09398506  1.0
  Ni  Ni204  1  0.70417600  0.06524700  0.09398506  1.0
  Ni  Ni205  1  0.70417600  0.39858033  0.09398506  1.0
  Ni  Ni206  1  0.70417600  0.73191367  0.09398506  1.0
  Ni  Ni207  1  0.16533000  0.06524700  0.08563028  1.0
  Ni  Ni208  1  0.16533000  0.39858033  0.08563028  1.0
  Ni  Ni209  1  0.16533000  0.73191367  0.08563028  1.0
  Ni  Ni210  1  0.49866333  0.06524700  0.08563028  1.0
  Ni  Ni211  1  0.49866333  0.39858033  0.08563028  1.0
  Ni  Ni212  1  0.49866333  0.73191367  0.08563028  1.0
  Ni  Ni213  1  0.83199667  0.06524700  0.08563028  1.0
  Ni  Ni214  1  0.83199667  0.39858033  0.08563028  1.0
  Ni  Ni215  1  0.83199667  0.73191367  0.08563028  1.0
  Ni  Ni216  1  0.13389900  0.19943433  0.02106261  1.0
  Ni  Ni217  1  0.13389900  0.53276767  0.02106261  1.0
  Ni  Ni218  1  0.13389900  0.86610100  0.02106261  1.0
  Ni  Ni219  1  0.46723233  0.19943433  0.02106261  1.0
  Ni  Ni220  1  0.46723233  0.53276767  0.02106261  1.0
  Ni  Ni221  1  0.46723233  0.86610100  0.02106261  1.0
  Ni  Ni222  1  0.80056567  0.19943433  0.02106261  1.0
  Ni  Ni223  1  0.80056567  0.53276767  0.02106261  1.0
  Ni  Ni224  1  0.80056567  0.86610100  0.02106261  1.0
  Ni  Ni225  1  0.25627667  0.19943433  0.02106261  1.0
  Ni  Ni226  1  0.25627667  0.53276767  0.02106261  1.0
  Ni  Ni227  1  0.25627667  0.86610100  0.02106261  1.0
  Ni  Ni228  1  0.58961000  0.19943433  0.02106261  1.0
  Ni  Ni229  1  0.58961000  0.53276767  0.02106261  1.0
  Ni  Ni230  1  0.58961000  0.86610100  0.02106261  1.0
  Ni  Ni231  1  0.92294333  0.19943433  0.02106261  1.0
  Ni  Ni232  1  0.92294333  0.53276767  0.02106261  1.0
  Ni  Ni233  1  0.92294333  0.86610100  0.02106261  1.0
  Ni  Ni234  1  0.01152133  0.19943433  0.03232917  1.0
  Ni  Ni235  1  0.01152133  0.53276767  0.03232917  1.0
  Ni  Ni236  1  0.01152133  0.86610100  0.03232917  1.0
  Ni  Ni237  1  0.34485467  0.19943433  0.03232917  1.0
  Ni  Ni238  1  0.34485467  0.53276767  0.03232917  1.0
  Ni  Ni239  1  0.34485467  0.86610100  0.03232917  1.0
  Ni  Ni240  1  0.67818800  0.19943433  0.03232917  1.0
  Ni  Ni241  1  0.67818800  0.53276767  0.03232917  1.0
  Ni  Ni242  1  0.67818800  0.86610100  0.03232917  1.0
  Ni  Ni243  1  0.30056567  0.03276767  0.04709217  1.0
  Ni  Ni244  1  0.30056567  0.36610100  0.04709217  1.0
  Ni  Ni245  1  0.30056567  0.69943433  0.04709217  1.0
  Ni  Ni246  1  0.63389900  0.03276767  0.04709217  1.0
  Ni  Ni247  1  0.63389900  0.36610100  0.04709217  1.0
  Ni  Ni248  1  0.63389900  0.69943433  0.04709217  1.0
  Ni  Ni249  1  0.96723233  0.03276767  0.04709217  1.0
  Ni  Ni250  1  0.96723233  0.36610100  0.04709217  1.0
  Ni  Ni251  1  0.96723233  0.69943433  0.04709217  1.0
  Ni  Ni252  1  0.17818800  0.03276767  0.04709217  1.0
  Ni  Ni253  1  0.17818800  0.36610100  0.04709217  1.0
  Ni  Ni254  1  0.17818800  0.69943433  0.04709217  1.0
  Ni  Ni255  1  0.51152133  0.03276767  0.04709217  1.0
  Ni  Ni256  1  0.51152133  0.36610100  0.04709217  1.0
  Ni  Ni257  1  0.51152133  0.69943433  0.04709217  1.0
  Ni  Ni258  1  0.84485467  0.03276767  0.04709217  1.0
  Ni  Ni259  1  0.84485467  0.36610100  0.04709217  1.0
  Ni  Ni260  1  0.84485467  0.69943433  0.04709217  1.0
  Ni  Ni261  1  0.08961000  0.03276767  0.03582561  1.0
  Ni  Ni262  1  0.08961000  0.36610100  0.03582561  1.0
  Ni  Ni263  1  0.08961000  0.69943433  0.03582561  1.0
  Ni  Ni264  1  0.42294333  0.03276767  0.03582561  1.0
  Ni  Ni265  1  0.42294333  0.36610100  0.03582561  1.0
  Ni  Ni266  1  0.42294333  0.69943433  0.03582561  1.0
  Ni  Ni267  1  0.75627667  0.03276767  0.03582561  1.0
  Ni  Ni268  1  0.75627667  0.36610100  0.03582561  1.0
  Ni  Ni269  1  0.75627667  0.69943433  0.03582561  1.0
  Ge  Ge270  1  0.07493400  0.25839933  0.08151017  1.0
  Ge  Ge271  1  0.07493400  0.59173267  0.08151017  1.0
  Ge  Ge272  1  0.07493400  0.92506600  0.08151017  1.0
  Ge  Ge273  1  0.40826733  0.25839933  0.08151017  1.0
  Ge  Ge274  1  0.40826733  0.59173267  0.08151017  1.0
  Ge  Ge275  1  0.40826733  0.92506600  0.08151017  1.0
  Ge  Ge276  1  0.74160067  0.25839933  0.08151017  1.0
  Ge  Ge277  1  0.74160067  0.59173267  0.08151017  1.0
  Ge  Ge278  1  0.74160067  0.92506600  0.08151017  1.0
  Ge  Ge279  1  0.24160067  0.09173267  0.02595461  1.0
  Ge  Ge280  1  0.24160067  0.42506600  0.02595461  1.0
  Ge  Ge281  1  0.24160067  0.75839933  0.02595461  1.0
  Ge  Ge282  1  0.57493400  0.09173267  0.02595461  1.0
  Ge  Ge283  1  0.57493400  0.42506600  0.02595461  1.0
  Ge  Ge284  1  0.57493400  0.75839933  0.02595461  1.0
  Ge  Ge285  1  0.90826733  0.09173267  0.02595461  1.0
  Ge  Ge286  1  0.90826733  0.42506600  0.02595461  1.0
  Ge  Ge287  1  0.90826733  0.75839933  0.02595461  1.0
  Ge  Ge288  1  0.31527422  0.24028133  0.07547083  1.0
  Ge  Ge289  1  0.31527422  0.57361467  0.07547083  1.0
  Ge  Ge290  1  0.31527422  0.90694800  0.07547083  1.0
  Ge  Ge291  1  0.64860756  0.24028133  0.07547083  1.0
  Ge  Ge292  1  0.64860756  0.57361467  0.07547083  1.0
  Ge  Ge293  1  0.64860756  0.90694800  0.07547083  1.0
  Ge  Ge294  1  0.98194089  0.24028133  0.07547083  1.0
  Ge  Ge295  1  0.98194089  0.57361467  0.07547083  1.0
  Ge  Ge296  1  0.98194089  0.90694800  0.07547083  1.0
  Ge  Ge297  1  0.20416311  0.24028133  0.07547083  1.0
  Ge  Ge298  1  0.20416311  0.57361467  0.07547083  1.0
  Ge  Ge299  1  0.20416311  0.90694800  0.07547083  1.0
  Ge  Ge300  1  0.53749644  0.24028133  0.07547083  1.0
  Ge  Ge301  1  0.53749644  0.57361467  0.07547083  1.0
  Ge  Ge302  1  0.53749644  0.90694800  0.07547083  1.0
  Ge  Ge303  1  0.87082978  0.24028133  0.07547083  1.0
  Ge  Ge304  1  0.87082978  0.57361467  0.07547083  1.0
  Ge  Ge305  1  0.87082978  0.90694800  0.07547083  1.0
  Ge  Ge306  1  0.03749644  0.07361467  0.01991528  1.0
  Ge  Ge307  1  0.03749644  0.40694800  0.01991528  1.0
  Ge  Ge308  1  0.03749644  0.74028133  0.01991528  1.0
  Ge  Ge309  1  0.37082978  0.07361467  0.01991528  1.0
  Ge  Ge310  1  0.37082978  0.40694800  0.01991528  1.0
  Ge  Ge311  1  0.37082978  0.74028133  0.01991528  1.0
  Ge  Ge312  1  0.70416311  0.07361467  0.01991528  1.0
  Ge  Ge313  1  0.70416311  0.40694800  0.01991528  1.0
  Ge  Ge314  1  0.70416311  0.74028133  0.01991528  1.0
  Ge  Ge315  1  0.14860756  0.07361467  0.01991528  1.0
  Ge  Ge316  1  0.14860756  0.40694800  0.01991528  1.0
  Ge  Ge317  1  0.14860756  0.74028133  0.01991528  1.0
  Ge  Ge318  1  0.48194089  0.07361467  0.01991528  1.0
  Ge  Ge319  1  0.48194089  0.40694800  0.01991528  1.0
  Ge  Ge320  1  0.48194089  0.74028133  0.01991528  1.0
  Ge  Ge321  1  0.81527422  0.07361467  0.01991528  1.0
  Ge  Ge322  1  0.81527422  0.40694800  0.01991528  1.0
  Ge  Ge323  1  0.81527422  0.74028133  0.01991528  1.0
  Ge  Ge324  1  0.33230400  0.00102933  0.06966961  1.0
  Ge  Ge325  1  0.33230400  0.33436267  0.06966961  1.0
  Ge  Ge326  1  0.33230400  0.66769600  0.06966961  1.0
  Ge  Ge327  1  0.66563733  0.00102933  0.06966961  1.0
  Ge  Ge328  1  0.66563733  0.33436267  0.06966961  1.0
  Ge  Ge329  1  0.66563733  0.66769600  0.06966961  1.0
  Ge  Ge330  1  0.99897067  0.00102933  0.06966961  1.0
  Ge  Ge331  1  0.99897067  0.33436267  0.06966961  1.0
  Ge  Ge332  1  0.99897067  0.66769600  0.06966961  1.0
  Ge  Ge333  1  0.11045567  0.00102933  0.06966961  1.0
  Ge  Ge334  1  0.11045567  0.33436267  0.06966961  1.0
  Ge  Ge335  1  0.11045567  0.66769600  0.06966961  1.0
  Ge  Ge336  1  0.44378900  0.00102933  0.06966961  1.0
  Ge  Ge337  1  0.44378900  0.33436267  0.06966961  1.0
  Ge  Ge338  1  0.44378900  0.66769600  0.06966961  1.0
  Ge  Ge339  1  0.77712233  0.00102933  0.06966961  1.0
  Ge  Ge340  1  0.77712233  0.33436267  0.06966961  1.0
  Ge  Ge341  1  0.77712233  0.66769600  0.06966961  1.0
  Ge  Ge342  1  0.22081900  0.00102933  0.07004350  1.0
  Ge  Ge343  1  0.22081900  0.33436267  0.07004350  1.0
  Ge  Ge344  1  0.22081900  0.66769600  0.07004350  1.0
  Ge  Ge345  1  0.55415233  0.00102933  0.07004350  1.0
  Ge  Ge346  1  0.55415233  0.33436267  0.07004350  1.0
  Ge  Ge347  1  0.55415233  0.66769600  0.07004350  1.0
  Ge  Ge348  1  0.88748567  0.00102933  0.07004350  1.0
  Ge  Ge349  1  0.88748567  0.33436267  0.07004350  1.0
  Ge  Ge350  1  0.88748567  0.66769600  0.07004350  1.0
  Ge  Ge351  1  0.16563733  0.16769600  0.08843739  1.0
  Ge  Ge352  1  0.16563733  0.50102933  0.08843739  1.0
  Ge  Ge353  1  0.16563733  0.83436267  0.08843739  1.0
  Ge  Ge354  1  0.49897067  0.16769600  0.08843739  1.0
  Ge  Ge355  1  0.49897067  0.50102933  0.08843739  1.0
  Ge  Ge356  1  0.49897067  0.83436267  0.08843739  1.0
  Ge  Ge357  1  0.83230400  0.16769600  0.08843739  1.0
  Ge  Ge358  1  0.83230400  0.50102933  0.08843739  1.0
  Ge  Ge359  1  0.83230400  0.83436267  0.08843739  1.0
  Ge  Ge360  1  0.05415233  0.16769600  0.08843739  1.0
  Ge  Ge361  1  0.05415233  0.50102933  0.08843739  1.0
  Ge  Ge362  1  0.05415233  0.83436267  0.08843739  1.0
  Ge  Ge363  1  0.38748567  0.16769600  0.08843739  1.0
  Ge  Ge364  1  0.38748567  0.50102933  0.08843739  1.0
  Ge  Ge365  1  0.38748567  0.83436267  0.08843739  1.0
  Ge  Ge366  1  0.72081900  0.16769600  0.08843739  1.0
  Ge  Ge367  1  0.72081900  0.50102933  0.08843739  1.0
  Ge  Ge368  1  0.72081900  0.83436267  0.08843739  1.0
  Ge  Ge369  1  0.27712233  0.16769600  0.08806350  1.0
  Ge  Ge370  1  0.27712233  0.50102933  0.08806350  1.0
  Ge  Ge371  1  0.27712233  0.83436267  0.08806350  1.0
  Ge  Ge372  1  0.61045567  0.16769600  0.08806350  1.0
  Ge  Ge373  1  0.61045567  0.50102933  0.08806350  1.0
  Ge  Ge374  1  0.61045567  0.83436267  0.08806350  1.0
  Ge  Ge375  1  0.94378900  0.16769600  0.08806350  1.0
  Ge  Ge376  1  0.94378900  0.50102933  0.08806350  1.0
  Ge  Ge377  1  0.94378900  0.83436267  0.08806350  1.0
  Ni  Ni378  1  0.30945467  0.02387867  0.11444772  1.0
  Ni  Ni379  1  0.30945467  0.35721200  0.11444772  1.0
  Ni  Ni380  1  0.30945467  0.69054533  0.11444772  1.0
  Ni  Ni381  1  0.64278800  0.02387867  0.11444772  1.0
  Ni  Ni382  1  0.64278800  0.35721200  0.11444772  1.0
  Ni  Ni383  1  0.64278800  0.69054533  0.11444772  1.0
  Ni  Ni384  1  0.97612133  0.02387867  0.11444772  1.0
  Ni  Ni385  1  0.97612133  0.35721200  0.11444772  1.0
  Ni  Ni386  1  0.97612133  0.69054533  0.11444772  1.0
  Ni  Ni387  1  0.14278800  0.19054533  0.17000328  1.0
  Ni  Ni388  1  0.14278800  0.52387867  0.17000328  1.0
  Ni  Ni389  1  0.14278800  0.85721200  0.17000328  1.0
  Ni  Ni390  1  0.47612133  0.19054533  0.17000328  1.0
  Ni  Ni391  1  0.47612133  0.52387867  0.17000328  1.0
  Ni  Ni392  1  0.47612133  0.85721200  0.17000328  1.0
  Ni  Ni393  1  0.80945467  0.19054533  0.17000328  1.0
  Ni  Ni394  1  0.80945467  0.52387867  0.17000328  1.0
  Ni  Ni395  1  0.80945467  0.85721200  0.17000328  1.0
  Ni  Ni396  1  0.24646856  0.30908700  0.20951717  1.0
  Ni  Ni397  1  0.24646856  0.64242033  0.20951717  1.0
  Ni  Ni398  1  0.24646856  0.97575367  0.20951717  1.0
  Ni  Ni399  1  0.57980189  0.30908700  0.20951717  1.0
  Ni  Ni400  1  0.57980189  0.64242033  0.20951717  1.0
  Ni  Ni401  1  0.57980189  0.97575367  0.20951717  1.0
  Ni  Ni402  1  0.91313522  0.30908700  0.20951717  1.0
  Ni  Ni403  1  0.91313522  0.64242033  0.20951717  1.0
  Ni  Ni404  1  0.91313522  0.97575367  0.20951717  1.0
  Ni  Ni405  1  0.13535744  0.30908700  0.20951717  1.0
  Ni  Ni406  1  0.13535744  0.64242033  0.20951717  1.0
  Ni  Ni407  1  0.13535744  0.97575367  0.20951717  1.0
  Ni  Ni408  1  0.46869078  0.30908700  0.20951717  1.0
  Ni  Ni409  1  0.46869078  0.64242033  0.20951717  1.0
  Ni  Ni410  1  0.46869078  0.97575367  0.20951717  1.0
  Ni  Ni411  1  0.80202411  0.30908700  0.20951717  1.0
  Ni  Ni412  1  0.80202411  0.64242033  0.20951717  1.0
  Ni  Ni413  1  0.80202411  0.97575367  0.20951717  1.0
  Ni  Ni414  1  0.30202411  0.14242033  0.15396161  1.0
  Ni  Ni415  1  0.30202411  0.47575367  0.15396161  1.0
  Ni  Ni416  1  0.30202411  0.80908700  0.15396161  1.0
  Ni  Ni417  1  0.63535744  0.14242033  0.15396161  1.0
  Ni  Ni418  1  0.63535744  0.47575367  0.15396161  1.0
  Ni  Ni419  1  0.63535744  0.80908700  0.15396161  1.0
  Ni  Ni420  1  0.96869078  0.14242033  0.15396161  1.0
  Ni  Ni421  1  0.96869078  0.47575367  0.15396161  1.0
  Ni  Ni422  1  0.96869078  0.80908700  0.15396161  1.0
  Ni  Ni423  1  0.07980189  0.14242033  0.15396161  1.0
  Ni  Ni424  1  0.07980189  0.47575367  0.15396161  1.0
  Ni  Ni425  1  0.07980189  0.80908700  0.15396161  1.0
  Ni  Ni426  1  0.41313522  0.14242033  0.15396161  1.0
  Ni  Ni427  1  0.41313522  0.47575367  0.15396161  1.0
  Ni  Ni428  1  0.41313522  0.80908700  0.15396161  1.0
  Ni  Ni429  1  0.74646856  0.14242033  0.15396161  1.0
  Ni  Ni430  1  0.74646856  0.47575367  0.15396161  1.0
  Ni  Ni431  1  0.74646856  0.80908700  0.15396161  1.0
  Ni  Ni432  1  0.03222233  0.30111100  0.12516872  1.0
  Ni  Ni433  1  0.03222233  0.63444433  0.12516872  1.0
  Ni  Ni434  1  0.03222233  0.96777767  0.12516872  1.0
  Ni  Ni435  1  0.36555567  0.30111100  0.12516872  1.0
  Ni  Ni436  1  0.36555567  0.63444433  0.12516872  1.0
  Ni  Ni437  1  0.36555567  0.96777767  0.12516872  1.0
  Ni  Ni438  1  0.69888900  0.30111100  0.12516872  1.0
  Ni  Ni439  1  0.69888900  0.63444433  0.12516872  1.0
  Ni  Ni440  1  0.69888900  0.96777767  0.12516872  1.0
  Ni  Ni441  1  0.27729167  0.30111100  0.12516872  1.0
  Ni  Ni442  1  0.27729167  0.63444433  0.12516872  1.0
  Ni  Ni443  1  0.27729167  0.96777767  0.12516872  1.0
  Ni  Ni444  1  0.61062500  0.30111100  0.12516872  1.0
  Ni  Ni445  1  0.61062500  0.63444433  0.12516872  1.0
  Ni  Ni446  1  0.61062500  0.96777767  0.12516872  1.0
  Ni  Ni447  1  0.94395833  0.30111100  0.12516872  1.0
  Ni  Ni448  1  0.94395833  0.63444433  0.12516872  1.0
  Ni  Ni449  1  0.94395833  0.96777767  0.12516872  1.0
  Ni  Ni450  1  0.12048633  0.30111100  0.14801583  1.0
  Ni  Ni451  1  0.12048633  0.63444433  0.14801583  1.0
  Ni  Ni452  1  0.12048633  0.96777767  0.14801583  1.0
  Ni  Ni453  1  0.45381967  0.30111100  0.14801583  1.0
  Ni  Ni454  1  0.45381967  0.63444433  0.14801583  1.0
  Ni  Ni455  1  0.45381967  0.96777767  0.14801583  1.0
  Ni  Ni456  1  0.78715300  0.30111100  0.14801583  1.0
  Ni  Ni457  1  0.78715300  0.63444433  0.14801583  1.0
  Ni  Ni458  1  0.78715300  0.96777767  0.14801583  1.0
  Ni  Ni459  1  0.19888900  0.13444433  0.12188161  1.0
  Ni  Ni460  1  0.19888900  0.46777767  0.12188161  1.0
  Ni  Ni461  1  0.19888900  0.80111100  0.12188161  1.0
  Ni  Ni462  1  0.53222233  0.13444433  0.12188161  1.0
  Ni  Ni463  1  0.53222233  0.46777767  0.12188161  1.0
  Ni  Ni464  1  0.53222233  0.80111100  0.12188161  1.0
  Ni  Ni465  1  0.86555567  0.13444433  0.12188161  1.0
  Ni  Ni466  1  0.86555567  0.46777767  0.12188161  1.0
  Ni  Ni467  1  0.86555567  0.80111100  0.12188161  1.0
  Ni  Ni468  1  0.28715300  0.13444433  0.12188161  1.0
  Ni  Ni469  1  0.28715300  0.46777767  0.12188161  1.0
  Ni  Ni470  1  0.28715300  0.80111100  0.12188161  1.0
  Ni  Ni471  1  0.62048633  0.13444433  0.12188161  1.0
  Ni  Ni472  1  0.62048633  0.46777767  0.12188161  1.0
  Ni  Ni473  1  0.62048633  0.80111100  0.12188161  1.0
  Ni  Ni474  1  0.95381967  0.13444433  0.12188161  1.0
  Ni  Ni475  1  0.95381967  0.46777767  0.12188161  1.0
  Ni  Ni476  1  0.95381967  0.80111100  0.12188161  1.0
  Ni  Ni477  1  0.11062500  0.13444433  0.21014561  1.0
  Ni  Ni478  1  0.11062500  0.46777767  0.21014561  1.0
  Ni  Ni479  1  0.11062500  0.80111100  0.21014561  1.0
  Ni  Ni480  1  0.44395833  0.13444433  0.21014561  1.0
  Ni  Ni481  1  0.44395833  0.46777767  0.21014561  1.0
  Ni  Ni482  1  0.44395833  0.80111100  0.21014561  1.0
  Ni  Ni483  1  0.77729167  0.13444433  0.21014561  1.0
  Ni  Ni484  1  0.77729167  0.46777767  0.21014561  1.0
  Ni  Ni485  1  0.77729167  0.80111100  0.21014561  1.0
  Ni  Ni486  1  0.06415567  0.26917767  0.15468472  1.0
  Ni  Ni487  1  0.06415567  0.60251100  0.15468472  1.0
  Ni  Ni488  1  0.06415567  0.93584433  0.15468472  1.0
  Ni  Ni489  1  0.39748900  0.26917767  0.15468472  1.0
  Ni  Ni490  1  0.39748900  0.60251100  0.15468472  1.0
  Ni  Ni491  1  0.39748900  0.93584433  0.15468472  1.0
  Ni  Ni492  1  0.73082233  0.26917767  0.15468472  1.0
  Ni  Ni493  1  0.73082233  0.60251100  0.15468472  1.0
  Ni  Ni494  1  0.73082233  0.93584433  0.15468472  1.0
  Ni  Ni495  1  0.18874367  0.26917767  0.15468472  1.0
  Ni  Ni496  1  0.18874367  0.60251100  0.15468472  1.0
  Ni  Ni497  1  0.18874367  0.93584433  0.15468472  1.0
  Ni  Ni498  1  0.52207700  0.26917767  0.15468472  1.0
  Ni  Ni499  1  0.52207700  0.60251100  0.15468472  1.0
  Ni  Ni500  1  0.52207700  0.93584433  0.15468472  1.0
  Ni  Ni501  1  0.85541033  0.26917767  0.15468472  1.0
  Ni  Ni502  1  0.85541033  0.60251100  0.15468472  1.0
  Ni  Ni503  1  0.85541033  0.93584433  0.15468472  1.0
  Ni  Ni504  1  0.27290100  0.26917767  0.16816161  1.0
  Ni  Ni505  1  0.27290100  0.60251100  0.16816161  1.0
  Ni  Ni506  1  0.27290100  0.93584433  0.16816161  1.0
  Ni  Ni507  1  0.60623433  0.26917767  0.16816161  1.0
  Ni  Ni508  1  0.60623433  0.60251100  0.16816161  1.0
  Ni  Ni509  1  0.60623433  0.93584433  0.16816161  1.0
  Ni  Ni510  1  0.93956767  0.26917767  0.16816161  1.0
  Ni  Ni511  1  0.93956767  0.60251100  0.16816161  1.0
  Ni  Ni512  1  0.93956767  0.93584433  0.16816161  1.0
  Ni  Ni513  1  0.23082233  0.10251100  0.18218783  1.0
  Ni  Ni514  1  0.23082233  0.43584433  0.18218783  1.0
  Ni  Ni515  1  0.23082233  0.76917767  0.18218783  1.0
  Ni  Ni516  1  0.56415567  0.10251100  0.18218783  1.0
  Ni  Ni517  1  0.56415567  0.43584433  0.18218783  1.0
  Ni  Ni518  1  0.56415567  0.76917767  0.18218783  1.0
  Ni  Ni519  1  0.89748900  0.10251100  0.18218783  1.0
  Ni  Ni520  1  0.89748900  0.43584433  0.18218783  1.0
  Ni  Ni521  1  0.89748900  0.76917767  0.18218783  1.0
  Ni  Ni522  1  0.10623433  0.10251100  0.18218783  1.0
  Ni  Ni523  1  0.10623433  0.43584433  0.18218783  1.0
  Ni  Ni524  1  0.10623433  0.76917767  0.18218783  1.0
  Ni  Ni525  1  0.43956767  0.10251100  0.18218783  1.0
  Ni  Ni526  1  0.43956767  0.43584433  0.18218783  1.0
  Ni  Ni527  1  0.43956767  0.76917767  0.18218783  1.0
  Ni  Ni528  1  0.77290100  0.10251100  0.18218783  1.0
  Ni  Ni529  1  0.77290100  0.43584433  0.18218783  1.0
  Ni  Ni530  1  0.77290100  0.76917767  0.18218783  1.0
  Ni  Ni531  1  0.02207700  0.10251100  0.16871094  1.0
  Ni  Ni532  1  0.02207700  0.43584433  0.16871094  1.0
  Ni  Ni533  1  0.02207700  0.76917767  0.16871094  1.0
  Ni  Ni534  1  0.35541033  0.10251100  0.16871094  1.0
  Ni  Ni535  1  0.35541033  0.43584433  0.16871094  1.0
  Ni  Ni536  1  0.35541033  0.76917767  0.16871094  1.0
  Ni  Ni537  1  0.68874367  0.10251100  0.16871094  1.0
  Ni  Ni538  1  0.68874367  0.43584433  0.16871094  1.0
  Ni  Ni539  1  0.68874367  0.76917767  0.16871094  1.0
  Ni  Ni540  1  0.10141967  0.23191367  0.21804483  1.0
  Ni  Ni541  1  0.10141967  0.56524700  0.21804483  1.0
  Ni  Ni542  1  0.10141967  0.89858033  0.21804483  1.0
  Ni  Ni543  1  0.43475300  0.23191367  0.21804483  1.0
  Ni  Ni544  1  0.43475300  0.56524700  0.21804483  1.0
  Ni  Ni545  1  0.43475300  0.89858033  0.21804483  1.0
  Ni  Ni546  1  0.76808633  0.23191367  0.21804483  1.0
  Ni  Ni547  1  0.76808633  0.56524700  0.21804483  1.0
  Ni  Ni548  1  0.76808633  0.89858033  0.21804483  1.0
  Ni  Ni549  1  0.33199667  0.23191367  0.21804483  1.0
  Ni  Ni550  1  0.33199667  0.56524700  0.21804483  1.0
  Ni  Ni551  1  0.33199667  0.89858033  0.21804483  1.0
  Ni  Ni552  1  0.66533000  0.23191367  0.21804483  1.0
  Ni  Ni553  1  0.66533000  0.56524700  0.21804483  1.0
  Ni  Ni554  1  0.66533000  0.89858033  0.21804483  1.0
  Ni  Ni555  1  0.99866333  0.23191367  0.21804483  1.0
  Ni  Ni556  1  0.99866333  0.56524700  0.21804483  1.0
  Ni  Ni557  1  0.99866333  0.89858033  0.21804483  1.0
  Ni  Ni558  1  0.20417600  0.23191367  0.11528850  1.0
  Ni  Ni559  1  0.20417600  0.56524700  0.11528850  1.0
  Ni  Ni560  1  0.20417600  0.89858033  0.11528850  1.0
  Ni  Ni561  1  0.53750933  0.23191367  0.11528850  1.0
  Ni  Ni562  1  0.53750933  0.56524700  0.11528850  1.0
  Ni  Ni563  1  0.53750933  0.89858033  0.11528850  1.0
  Ni  Ni564  1  0.87084267  0.23191367  0.11528850  1.0
  Ni  Ni565  1  0.87084267  0.56524700  0.11528850  1.0
  Ni  Ni566  1  0.87084267  0.89858033  0.11528850  1.0
  Ni  Ni567  1  0.26808633  0.06524700  0.20509617  1.0
  Ni  Ni568  1  0.26808633  0.39858033  0.20509617  1.0
  Ni  Ni569  1  0.26808633  0.73191367  0.20509617  1.0
  Ni  Ni570  1  0.60141967  0.06524700  0.20509617  1.0
  Ni  Ni571  1  0.60141967  0.39858033  0.20509617  1.0
  Ni  Ni572  1  0.60141967  0.73191367  0.20509617  1.0
  Ni  Ni573  1  0.93475300  0.06524700  0.20509617  1.0
  Ni  Ni574  1  0.93475300  0.39858033  0.20509617  1.0
  Ni  Ni575  1  0.93475300  0.73191367  0.20509617  1.0
  Ni  Ni576  1  0.03750933  0.06524700  0.20509617  1.0
  Ni  Ni577  1  0.03750933  0.39858033  0.20509617  1.0
  Ni  Ni578  1  0.03750933  0.73191367  0.20509617  1.0
  Ni  Ni579  1  0.37084267  0.06524700  0.20509617  1.0
  Ni  Ni580  1  0.37084267  0.39858033  0.20509617  1.0
  Ni  Ni581  1  0.37084267  0.73191367  0.20509617  1.0
  Ni  Ni582  1  0.70417600  0.06524700  0.20509617  1.0
  Ni  Ni583  1  0.70417600  0.39858033  0.20509617  1.0
  Ni  Ni584  1  0.70417600  0.73191367  0.20509617  1.0
  Ni  Ni585  1  0.16533000  0.06524700  0.19674139  1.0
  Ni  Ni586  1  0.16533000  0.39858033  0.19674139  1.0
  Ni  Ni587  1  0.16533000  0.73191367  0.19674139  1.0
  Ni  Ni588  1  0.49866333  0.06524700  0.19674139  1.0
  Ni  Ni589  1  0.49866333  0.39858033  0.19674139  1.0
  Ni  Ni590  1  0.49866333  0.73191367  0.19674139  1.0
  Ni  Ni591  1  0.83199667  0.06524700  0.19674139  1.0
  Ni  Ni592  1  0.83199667  0.39858033  0.19674139  1.0
  Ni  Ni593  1  0.83199667  0.73191367  0.19674139  1.0
  Ni  Ni594  1  0.13389900  0.19943433  0.13217372  1.0
  Ni  Ni595  1  0.13389900  0.53276767  0.13217372  1.0
  Ni  Ni596  1  0.13389900  0.86610100  0.13217372  1.0
  Ni  Ni597  1  0.46723233  0.19943433  0.13217372  1.0
  Ni  Ni598  1  0.46723233  0.53276767  0.13217372  1.0
  Ni  Ni599  1  0.46723233  0.86610100  0.13217372  1.0
  Ni  Ni600  1  0.80056567  0.19943433  0.13217372  1.0
  Ni  Ni601  1  0.80056567  0.53276767  0.13217372  1.0
  Ni  Ni602  1  0.80056567  0.86610100  0.13217372  1.0
  Ni  Ni603  1  0.25627667  0.19943433  0.13217372  1.0
  Ni  Ni604  1  0.25627667  0.53276767  0.13217372  1.0
  Ni  Ni605  1  0.25627667  0.86610100  0.13217372  1.0
  Ni  Ni606  1  0.58961000  0.19943433  0.13217372  1.0
  Ni  Ni607  1  0.58961000  0.53276767  0.13217372  1.0
  Ni  Ni608  1  0.58961000  0.86610100  0.13217372  1.0
  Ni  Ni609  1  0.92294333  0.19943433  0.13217372  1.0
  Ni  Ni610  1  0.92294333  0.53276767  0.13217372  1.0
  Ni  Ni611  1  0.92294333  0.86610100  0.13217372  1.0
  Ni  Ni612  1  0.01152133  0.19943433  0.14344028  1.0
  Ni  Ni613  1  0.01152133  0.53276767  0.14344028  1.0
  Ni  Ni614  1  0.01152133  0.86610100  0.14344028  1.0
  Ni  Ni615  1  0.34485467  0.19943433  0.14344028  1.0
  Ni  Ni616  1  0.34485467  0.53276767  0.14344028  1.0
  Ni  Ni617  1  0.34485467  0.86610100  0.14344028  1.0
  Ni  Ni618  1  0.67818800  0.19943433  0.14344028  1.0
  Ni  Ni619  1  0.67818800  0.53276767  0.14344028  1.0
  Ni  Ni620  1  0.67818800  0.86610100  0.14344028  1.0
  Ni  Ni621  1  0.30056567  0.03276767  0.15820328  1.0
  Ni  Ni622  1  0.30056567  0.36610100  0.15820328  1.0
  Ni  Ni623  1  0.30056567  0.69943433  0.15820328  1.0
  Ni  Ni624  1  0.63389900  0.03276767  0.15820328  1.0
  Ni  Ni625  1  0.63389900  0.36610100  0.15820328  1.0
  Ni  Ni626  1  0.63389900  0.69943433  0.15820328  1.0
  Ni  Ni627  1  0.96723233  0.03276767  0.15820328  1.0
  Ni  Ni628  1  0.96723233  0.36610100  0.15820328  1.0
  Ni  Ni629  1  0.96723233  0.69943433  0.15820328  1.0
  Ni  Ni630  1  0.17818800  0.03276767  0.15820328  1.0
  Ni  Ni631  1  0.17818800  0.36610100  0.15820328  1.0
  Ni  Ni632  1  0.17818800  0.69943433  0.15820328  1.0
  Ni  Ni633  1  0.51152133  0.03276767  0.15820328  1.0
  Ni  Ni634  1  0.51152133  0.36610100  0.15820328  1.0
  Ni  Ni635  1  0.51152133  0.69943433  0.15820328  1.0
  Ni  Ni636  1  0.84485467  0.03276767  0.15820328  1.0
  Ni  Ni637  1  0.84485467  0.36610100  0.15820328  1.0
  Ni  Ni638  1  0.84485467  0.69943433  0.15820328  1.0
  Ni  Ni639  1  0.08961000  0.03276767  0.14693672  1.0
  Ni  Ni640  1  0.08961000  0.36610100  0.14693672  1.0
  Ni  Ni641  1  0.08961000  0.69943433  0.14693672  1.0
  Ni  Ni642  1  0.42294333  0.03276767  0.14693672  1.0
  Ni  Ni643  1  0.42294333  0.36610100  0.14693672  1.0
  Ni  Ni644  1  0.42294333  0.69943433  0.14693672  1.0
  Ni  Ni645  1  0.75627667  0.03276767  0.14693672  1.0
  Ni  Ni646  1  0.75627667  0.36610100  0.14693672  1.0
  Ni  Ni647  1  0.75627667  0.69943433  0.14693672  1.0
  Ge  Ge648  1  0.07493400  0.25839933  0.19262128  1.0
  Ge  Ge649  1  0.07493400  0.59173267  0.19262128  1.0
  Ge  Ge650  1  0.07493400  0.92506600  0.19262128  1.0
  Ge  Ge651  1  0.40826733  0.25839933  0.19262128  1.0
  Ge  Ge652  1  0.40826733  0.59173267  0.19262128  1.0
  Ge  Ge653  1  0.40826733  0.92506600  0.19262128  1.0
  Ge  Ge654  1  0.74160067  0.25839933  0.19262128  1.0
  Ge  Ge655  1  0.74160067  0.59173267  0.19262128  1.0
  Ge  Ge656  1  0.74160067  0.92506600  0.19262128  1.0
  Ge  Ge657  1  0.24160067  0.09173267  0.13706572  1.0
  Ge  Ge658  1  0.24160067  0.42506600  0.13706572  1.0
  Ge  Ge659  1  0.24160067  0.75839933  0.13706572  1.0
  Ge  Ge660  1  0.57493400  0.09173267  0.13706572  1.0
  Ge  Ge661  1  0.57493400  0.42506600  0.13706572  1.0
  Ge  Ge662  1  0.57493400  0.75839933  0.13706572  1.0
  Ge  Ge663  1  0.90826733  0.09173267  0.13706572  1.0
  Ge  Ge664  1  0.90826733  0.42506600  0.13706572  1.0
  Ge  Ge665  1  0.90826733  0.75839933  0.13706572  1.0
  Ge  Ge666  1  0.31527422  0.24028133  0.18658194  1.0
  Ge  Ge667  1  0.31527422  0.57361467  0.18658194  1.0
  Ge  Ge668  1  0.31527422  0.90694800  0.18658194  1.0
  Ge  Ge669  1  0.64860756  0.24028133  0.18658194  1.0
  Ge  Ge670  1  0.64860756  0.57361467  0.18658194  1.0
  Ge  Ge671  1  0.64860756  0.90694800  0.18658194  1.0
  Ge  Ge672  1  0.98194089  0.24028133  0.18658194  1.0
  Ge  Ge673  1  0.98194089  0.57361467  0.18658194  1.0
  Ge  Ge674  1  0.98194089  0.90694800  0.18658194  1.0
  Ge  Ge675  1  0.20416311  0.24028133  0.18658194  1.0
  Ge  Ge676  1  0.20416311  0.57361467  0.18658194  1.0
  Ge  Ge677  1  0.20416311  0.90694800  0.18658194  1.0
  Ge  Ge678  1  0.53749644  0.24028133  0.18658194  1.0
  Ge  Ge679  1  0.53749644  0.57361467  0.18658194  1.0
  Ge  Ge680  1  0.53749644  0.90694800  0.18658194  1.0
  Ge  Ge681  1  0.87082978  0.24028133  0.18658194  1.0
  Ge  Ge682  1  0.87082978  0.57361467  0.18658194  1.0
  Ge  Ge683  1  0.87082978  0.90694800  0.18658194  1.0
  Ge  Ge684  1  0.03749644  0.07361467  0.13102639  1.0
  Ge  Ge685  1  0.03749644  0.40694800  0.13102639  1.0
  Ge  Ge686  1  0.03749644  0.74028133  0.13102639  1.0
  Ge  Ge687  1  0.37082978  0.07361467  0.13102639  1.0
  Ge  Ge688  1  0.37082978  0.40694800  0.13102639  1.0
  Ge  Ge689  1  0.37082978  0.74028133  0.13102639  1.0
  Ge  Ge690  1  0.70416311  0.07361467  0.13102639  1.0
  Ge  Ge691  1  0.70416311  0.40694800  0.13102639  1.0
  Ge  Ge692  1  0.70416311  0.74028133  0.13102639  1.0
  Ge  Ge693  1  0.14860756  0.07361467  0.13102639  1.0
  Ge  Ge694  1  0.14860756  0.40694800  0.13102639  1.0
  Ge  Ge695  1  0.14860756  0.74028133  0.13102639  1.0
  Ge  Ge696  1  0.48194089  0.07361467  0.13102639  1.0
  Ge  Ge697  1  0.48194089  0.40694800  0.13102639  1.0
  Ge  Ge698  1  0.48194089  0.74028133  0.13102639  1.0
  Ge  Ge699  1  0.81527422  0.07361467  0.13102639  1.0
  Ge  Ge700  1  0.81527422  0.40694800  0.13102639  1.0
  Ge  Ge701  1  0.81527422  0.74028133  0.13102639  1.0
  Ge  Ge702  1  0.33230400  0.00102933  0.18078072  1.0
  Ge  Ge703  1  0.33230400  0.33436267  0.18078072  1.0
  Ge  Ge704  1  0.33230400  0.66769600  0.18078072  1.0
  Ge  Ge705  1  0.66563733  0.00102933  0.18078072  1.0
  Ge  Ge706  1  0.66563733  0.33436267  0.18078072  1.0
  Ge  Ge707  1  0.66563733  0.66769600  0.18078072  1.0
  Ge  Ge708  1  0.99897067  0.00102933  0.18078072  1.0
  Ge  Ge709  1  0.99897067  0.33436267  0.18078072  1.0
  Ge  Ge710  1  0.99897067  0.66769600  0.18078072  1.0
  Ge  Ge711  1  0.11045567  0.00102933  0.18078072  1.0
  Ge  Ge712  1  0.11045567  0.33436267  0.18078072  1.0
  Ge  Ge713  1  0.11045567  0.66769600  0.18078072  1.0
  Ge  Ge714  1  0.44378900  0.00102933  0.18078072  1.0
  Ge  Ge715  1  0.44378900  0.33436267  0.18078072  1.0
  Ge  Ge716  1  0.44378900  0.66769600  0.18078072  1.0
  Ge  Ge717  1  0.77712233  0.00102933  0.18078072  1.0
  Ge  Ge718  1  0.77712233  0.33436267  0.18078072  1.0
  Ge  Ge719  1  0.77712233  0.66769600  0.18078072  1.0
  Ge  Ge720  1  0.22081900  0.00102933  0.18115461  1.0
  Ge  Ge721  1  0.22081900  0.33436267  0.18115461  1.0
  Ge  Ge722  1  0.22081900  0.66769600  0.18115461  1.0
  Ge  Ge723  1  0.55415233  0.00102933  0.18115461  1.0
  Ge  Ge724  1  0.55415233  0.33436267  0.18115461  1.0
  Ge  Ge725  1  0.55415233  0.66769600  0.18115461  1.0
  Ge  Ge726  1  0.88748567  0.00102933  0.18115461  1.0
  Ge  Ge727  1  0.88748567  0.33436267  0.18115461  1.0
  Ge  Ge728  1  0.88748567  0.66769600  0.18115461  1.0
  Ge  Ge729  1  0.16563733  0.16769600  0.19954850  1.0
  Ge  Ge730  1  0.16563733  0.50102933  0.19954850  1.0
  Ge  Ge731  1  0.16563733  0.83436267  0.19954850  1.0
  Ge  Ge732  1  0.49897067  0.16769600  0.19954850  1.0
  Ge  Ge733  1  0.49897067  0.50102933  0.19954850  1.0
  Ge  Ge734  1  0.49897067  0.83436267  0.19954850  1.0
  Ge  Ge735  1  0.83230400  0.16769600  0.19954850  1.0
  Ge  Ge736  1  0.83230400  0.50102933  0.19954850  1.0
  Ge  Ge737  1  0.83230400  0.83436267  0.19954850  1.0
  Ge  Ge738  1  0.05415233  0.16769600  0.19954850  1.0
  Ge  Ge739  1  0.05415233  0.50102933  0.19954850  1.0
  Ge  Ge740  1  0.05415233  0.83436267  0.19954850  1.0
  Ge  Ge741  1  0.38748567  0.16769600  0.19954850  1.0
  Ge  Ge742  1  0.38748567  0.50102933  0.19954850  1.0
  Ge  Ge743  1  0.38748567  0.83436267  0.19954850  1.0
  Ge  Ge744  1  0.72081900  0.16769600  0.19954850  1.0
  Ge  Ge745  1  0.72081900  0.50102933  0.19954850  1.0
  Ge  Ge746  1  0.72081900  0.83436267  0.19954850  1.0
  Ge  Ge747  1  0.27712233  0.16769600  0.19917461  1.0
  Ge  Ge748  1  0.27712233  0.50102933  0.19917461  1.0
  Ge  Ge749  1  0.27712233  0.83436267  0.19917461  1.0
  Ge  Ge750  1  0.61045567  0.16769600  0.19917461  1.0
  Ge  Ge751  1  0.61045567  0.50102933  0.19917461  1.0
  Ge  Ge752  1  0.61045567  0.83436267  0.19917461  1.0
  Ge  Ge753  1  0.94378900  0.16769600  0.19917461  1.0
  Ge  Ge754  1  0.94378900  0.50102933  0.19917461  1.0
  Ge  Ge755  1  0.94378900  0.83436267  0.19917461  1.0
  Ni  Ni756  1  0.30945467  0.02387867  0.22555883  1.0
  Ni  Ni757  1  0.30945467  0.35721200  0.22555883  1.0
  Ni  Ni758  1  0.30945467  0.69054533  0.22555883  1.0
  Ni  Ni759  1  0.64278800  0.02387867  0.22555883  1.0
  Ni  Ni760  1  0.64278800  0.35721200  0.22555883  1.0
  Ni  Ni761  1  0.64278800  0.69054533  0.22555883  1.0
  Ni  Ni762  1  0.97612133  0.02387867  0.22555883  1.0
  Ni  Ni763  1  0.97612133  0.35721200  0.22555883  1.0
  Ni  Ni764  1  0.97612133  0.69054533  0.22555883  1.0
  Ni  Ni765  1  0.14278800  0.19054533  0.28111439  1.0
  Ni  Ni766  1  0.14278800  0.52387867  0.28111439  1.0
  Ni  Ni767  1  0.14278800  0.85721200  0.28111439  1.0
  Ni  Ni768  1  0.47612133  0.19054533  0.28111439  1.0
  Ni  Ni769  1  0.47612133  0.52387867  0.28111439  1.0
  Ni  Ni770  1  0.47612133  0.85721200  0.28111439  1.0
  Ni  Ni771  1  0.80945467  0.19054533  0.28111439  1.0
  Ni  Ni772  1  0.80945467  0.52387867  0.28111439  1.0
  Ni  Ni773  1  0.80945467  0.85721200  0.28111439  1.0
  Ni  Ni774  1  0.24646856  0.30908700  0.32062828  1.0
  Ni  Ni775  1  0.24646856  0.64242033  0.32062828  1.0
  Ni  Ni776  1  0.24646856  0.97575367  0.32062828  1.0
  Ni  Ni777  1  0.57980189  0.30908700  0.32062828  1.0
  Ni  Ni778  1  0.57980189  0.64242033  0.32062828  1.0
  Ni  Ni779  1  0.57980189  0.97575367  0.32062828  1.0
  Ni  Ni780  1  0.91313522  0.30908700  0.32062828  1.0
  Ni  Ni781  1  0.91313522  0.64242033  0.32062828  1.0
  Ni  Ni782  1  0.91313522  0.97575367  0.32062828  1.0
  Ni  Ni783  1  0.13535744  0.30908700  0.32062828  1.0
  Ni  Ni784  1  0.13535744  0.64242033  0.32062828  1.0
  Ni  Ni785  1  0.13535744  0.97575367  0.32062828  1.0
  Ni  Ni786  1  0.46869078  0.30908700  0.32062828  1.0
  Ni  Ni787  1  0.46869078  0.64242033  0.32062828  1.0
  Ni  Ni788  1  0.46869078  0.97575367  0.32062828  1.0
  Ni  Ni789  1  0.80202411  0.30908700  0.32062828  1.0
  Ni  Ni790  1  0.80202411  0.64242033  0.32062828  1.0
  Ni  Ni791  1  0.80202411  0.97575367  0.32062828  1.0
  Ni  Ni792  1  0.30202411  0.14242033  0.26507272  1.0
  Ni  Ni793  1  0.30202411  0.47575367  0.26507272  1.0
  Ni  Ni794  1  0.30202411  0.80908700  0.26507272  1.0
  Ni  Ni795  1  0.63535744  0.14242033  0.26507272  1.0
  Ni  Ni796  1  0.63535744  0.47575367  0.26507272  1.0
  Ni  Ni797  1  0.63535744  0.80908700  0.26507272  1.0
  Ni  Ni798  1  0.96869078  0.14242033  0.26507272  1.0
  Ni  Ni799  1  0.96869078  0.47575367  0.26507272  1.0
  Ni  Ni800  1  0.96869078  0.80908700  0.26507272  1.0
  Ni  Ni801  1  0.07980189  0.14242033  0.26507272  1.0
  Ni  Ni802  1  0.07980189  0.47575367  0.26507272  1.0
  Ni  Ni803  1  0.07980189  0.80908700  0.26507272  1.0
  Ni  Ni804  1  0.41313522  0.14242033  0.26507272  1.0
  Ni  Ni805  1  0.41313522  0.47575367  0.26507272  1.0
  Ni  Ni806  1  0.41313522  0.80908700  0.26507272  1.0
  Ni  Ni807  1  0.74646856  0.14242033  0.26507272  1.0
  Ni  Ni808  1  0.74646856  0.47575367  0.26507272  1.0
  Ni  Ni809  1  0.74646856  0.80908700  0.26507272  1.0
  Ni  Ni810  1  0.03222233  0.30111100  0.23627983  1.0
  Ni  Ni811  1  0.03222233  0.63444433  0.23627983  1.0
  Ni  Ni812  1  0.03222233  0.96777767  0.23627983  1.0
  Ni  Ni813  1  0.36555567  0.30111100  0.23627983  1.0
  Ni  Ni814  1  0.36555567  0.63444433  0.23627983  1.0
  Ni  Ni815  1  0.36555567  0.96777767  0.23627983  1.0
  Ni  Ni816  1  0.69888900  0.30111100  0.23627983  1.0
  Ni  Ni817  1  0.69888900  0.63444433  0.23627983  1.0
  Ni  Ni818  1  0.69888900  0.96777767  0.23627983  1.0
  Ni  Ni819  1  0.27729167  0.30111100  0.23627983  1.0
  Ni  Ni820  1  0.27729167  0.63444433  0.23627983  1.0
  Ni  Ni821  1  0.27729167  0.96777767  0.23627983  1.0
  Ni  Ni822  1  0.61062500  0.30111100  0.23627983  1.0
  Ni  Ni823  1  0.61062500  0.63444433  0.23627983  1.0
  Ni  Ni824  1  0.61062500  0.96777767  0.23627983  1.0
  Ni  Ni825  1  0.94395833  0.30111100  0.23627983  1.0
  Ni  Ni826  1  0.94395833  0.63444433  0.23627983  1.0
  Ni  Ni827  1  0.94395833  0.96777767  0.23627983  1.0
  Ni  Ni828  1  0.12048633  0.30111100  0.25912694  1.0
  Ni  Ni829  1  0.12048633  0.63444433  0.25912694  1.0
  Ni  Ni830  1  0.12048633  0.96777767  0.25912694  1.0
  Ni  Ni831  1  0.45381967  0.30111100  0.25912694  1.0
  Ni  Ni832  1  0.45381967  0.63444433  0.25912694  1.0
  Ni  Ni833  1  0.45381967  0.96777767  0.25912694  1.0
  Ni  Ni834  1  0.78715300  0.30111100  0.25912694  1.0
  Ni  Ni835  1  0.78715300  0.63444433  0.25912694  1.0
  Ni  Ni836  1  0.78715300  0.96777767  0.25912694  1.0
  Ni  Ni837  1  0.19888900  0.13444433  0.23299272  1.0
  Ni  Ni838  1  0.19888900  0.46777767  0.23299272  1.0
  Ni  Ni839  1  0.19888900  0.80111100  0.23299272  1.0
  Ni  Ni840  1  0.53222233  0.13444433  0.23299272  1.0
  Ni  Ni841  1  0.53222233  0.46777767  0.23299272  1.0
  Ni  Ni842  1  0.53222233  0.80111100  0.23299272  1.0
  Ni  Ni843  1  0.86555567  0.13444433  0.23299272  1.0
  Ni  Ni844  1  0.86555567  0.46777767  0.23299272  1.0
  Ni  Ni845  1  0.86555567  0.80111100  0.23299272  1.0
  Ni  Ni846  1  0.28715300  0.13444433  0.23299272  1.0
  Ni  Ni847  1  0.28715300  0.46777767  0.23299272  1.0
  Ni  Ni848  1  0.28715300  0.80111100  0.23299272  1.0
  Ni  Ni849  1  0.62048633  0.13444433  0.23299272  1.0
  Ni  Ni850  1  0.62048633  0.46777767  0.23299272  1.0
  Ni  Ni851  1  0.62048633  0.80111100  0.23299272  1.0
  Ni  Ni852  1  0.95381967  0.13444433  0.23299272  1.0
  Ni  Ni853  1  0.95381967  0.46777767  0.23299272  1.0
  Ni  Ni854  1  0.95381967  0.80111100  0.23299272  1.0
  Ni  Ni855  1  0.11062500  0.13444433  0.32125672  1.0
  Ni  Ni856  1  0.11062500  0.46777767  0.32125672  1.0
  Ni  Ni857  1  0.11062500  0.80111100  0.32125672  1.0
  Ni  Ni858  1  0.44395833  0.13444433  0.32125672  1.0
  Ni  Ni859  1  0.44395833  0.46777767  0.32125672  1.0
  Ni  Ni860  1  0.44395833  0.80111100  0.32125672  1.0
  Ni  Ni861  1  0.77729167  0.13444433  0.32125672  1.0
  Ni  Ni862  1  0.77729167  0.46777767  0.32125672  1.0
  Ni  Ni863  1  0.77729167  0.80111100  0.32125672  1.0
  Ni  Ni864  1  0.06415567  0.26917767  0.26579583  1.0
  Ni  Ni865  1  0.06415567  0.60251100  0.26579583  1.0
  Ni  Ni866  1  0.06415567  0.93584433  0.26579583  1.0
  Ni  Ni867  1  0.39748900  0.26917767  0.26579583  1.0
  Ni  Ni868  1  0.39748900  0.60251100  0.26579583  1.0
  Ni  Ni869  1  0.39748900  0.93584433  0.26579583  1.0
  Ni  Ni870  1  0.73082233  0.26917767  0.26579583  1.0
  Ni  Ni871  1  0.73082233  0.60251100  0.26579583  1.0
  Ni  Ni872  1  0.73082233  0.93584433  0.26579583  1.0
  Ni  Ni873  1  0.18874367  0.26917767  0.26579583  1.0
  Ni  Ni874  1  0.18874367  0.60251100  0.26579583  1.0
  Ni  Ni875  1  0.18874367  0.93584433  0.26579583  1.0
  Ni  Ni876  1  0.52207700  0.26917767  0.26579583  1.0
  Ni  Ni877  1  0.52207700  0.60251100  0.26579583  1.0
  Ni  Ni878  1  0.52207700  0.93584433  0.26579583  1.0
  Ni  Ni879  1  0.85541033  0.26917767  0.26579583  1.0
  Ni  Ni880  1  0.85541033  0.60251100  0.26579583  1.0
  Ni  Ni881  1  0.85541033  0.93584433  0.26579583  1.0
  Ni  Ni882  1  0.27290100  0.26917767  0.27927272  1.0
  Ni  Ni883  1  0.27290100  0.60251100  0.27927272  1.0
  Ni  Ni884  1  0.27290100  0.93584433  0.27927272  1.0
  Ni  Ni885  1  0.60623433  0.26917767  0.27927272  1.0
  Ni  Ni886  1  0.60623433  0.60251100  0.27927272  1.0
  Ni  Ni887  1  0.60623433  0.93584433  0.27927272  1.0
  Ni  Ni888  1  0.93956767  0.26917767  0.27927272  1.0
  Ni  Ni889  1  0.93956767  0.60251100  0.27927272  1.0
  Ni  Ni890  1  0.93956767  0.93584433  0.27927272  1.0
  Ni  Ni891  1  0.23082233  0.10251100  0.29329894  1.0
  Ni  Ni892  1  0.23082233  0.43584433  0.29329894  1.0
  Ni  Ni893  1  0.23082233  0.76917767  0.29329894  1.0
  Ni  Ni894  1  0.56415567  0.10251100  0.29329894  1.0
  Ni  Ni895  1  0.56415567  0.43584433  0.29329894  1.0
  Ni  Ni896  1  0.56415567  0.76917767  0.29329894  1.0
  Ni  Ni897  1  0.89748900  0.10251100  0.29329894  1.0
  Ni  Ni898  1  0.89748900  0.43584433  0.29329894  1.0
  Ni  Ni899  1  0.89748900  0.76917767  0.29329894  1.0
  Ni  Ni900  1  0.10623433  0.10251100  0.29329894  1.0
  Ni  Ni901  1  0.10623433  0.43584433  0.29329894  1.0
  Ni  Ni902  1  0.10623433  0.76917767  0.29329894  1.0
  Ni  Ni903  1  0.43956767  0.10251100  0.29329894  1.0
  Ni  Ni904  1  0.43956767  0.43584433  0.29329894  1.0
  Ni  Ni905  1  0.43956767  0.76917767  0.29329894  1.0
  Ni  Ni906  1  0.77290100  0.10251100  0.29329894  1.0
  Ni  Ni907  1  0.77290100  0.43584433  0.29329894  1.0
  Ni  Ni908  1  0.77290100  0.76917767  0.29329894  1.0
  Ni  Ni909  1  0.02207700  0.10251100  0.27982206  1.0
  Ni  Ni910  1  0.02207700  0.43584433  0.27982206  1.0
  Ni  Ni911  1  0.02207700  0.76917767  0.27982206  1.0
  Ni  Ni912  1  0.35541033  0.10251100  0.27982206  1.0
  Ni  Ni913  1  0.35541033  0.43584433  0.27982206  1.0
  Ni  Ni914  1  0.35541033  0.76917767  0.27982206  1.0
  Ni  Ni915  1  0.68874367  0.10251100  0.27982206  1.0
  Ni  Ni916  1  0.68874367  0.43584433  0.27982206  1.0
  Ni  Ni917  1  0.68874367  0.76917767  0.27982206  1.0
  Ni  Ni918  1  0.10141967  0.23191367  0.32915594  1.0
  Ni  Ni919  1  0.10141967  0.56524700  0.32915594  1.0
  Ni  Ni920  1  0.10141967  0.89858033  0.32915594  1.0
  Ni  Ni921  1  0.43475300  0.23191367  0.32915594  1.0
  Ni  Ni922  1  0.43475300  0.56524700  0.32915594  1.0
  Ni  Ni923  1  0.43475300  0.89858033  0.32915594  1.0
  Ni  Ni924  1  0.76808633  0.23191367  0.32915594  1.0
  Ni  Ni925  1  0.76808633  0.56524700  0.32915594  1.0
  Ni  Ni926  1  0.76808633  0.89858033  0.32915594  1.0
  Ni  Ni927  1  0.33199667  0.23191367  0.32915594  1.0
  Ni  Ni928  1  0.33199667  0.56524700  0.32915594  1.0
  Ni  Ni929  1  0.33199667  0.89858033  0.32915594  1.0
  Ni  Ni930  1  0.66533000  0.23191367  0.32915594  1.0
  Ni  Ni931  1  0.66533000  0.56524700  0.32915594  1.0
  Ni  Ni932  1  0.66533000  0.89858033  0.32915594  1.0
  Ni  Ni933  1  0.99866333  0.23191367  0.32915594  1.0
  Ni  Ni934  1  0.99866333  0.56524700  0.32915594  1.0
  Ni  Ni935  1  0.99866333  0.89858033  0.32915594  1.0
  Ni  Ni936  1  0.20417600  0.23191367  0.22639961  1.0
  Ni  Ni937  1  0.20417600  0.56524700  0.22639961  1.0
  Ni  Ni938  1  0.20417600  0.89858033  0.22639961  1.0
  Ni  Ni939  1  0.53750933  0.23191367  0.22639961  1.0
  Ni  Ni940  1  0.53750933  0.56524700  0.22639961  1.0
  Ni  Ni941  1  0.53750933  0.89858033  0.22639961  1.0
  Ni  Ni942  1  0.87084267  0.23191367  0.22639961  1.0
  Ni  Ni943  1  0.87084267  0.56524700  0.22639961  1.0
  Ni  Ni944  1  0.87084267  0.89858033  0.22639961  1.0
  Ni  Ni945  1  0.26808633  0.06524700  0.31620728  1.0
  Ni  Ni946  1  0.26808633  0.39858033  0.31620728  1.0
  Ni  Ni947  1  0.26808633  0.73191367  0.31620728  1.0
  Ni  Ni948  1  0.60141967  0.06524700  0.31620728  1.0
  Ni  Ni949  1  0.60141967  0.39858033  0.31620728  1.0
  Ni  Ni950  1  0.60141967  0.73191367  0.31620728  1.0
  Ni  Ni951  1  0.93475300  0.06524700  0.31620728  1.0
  Ni  Ni952  1  0.93475300  0.39858033  0.31620728  1.0
  Ni  Ni953  1  0.93475300  0.73191367  0.31620728  1.0
  Ni  Ni954  1  0.03750933  0.06524700  0.31620728  1.0
  Ni  Ni955  1  0.03750933  0.39858033  0.31620728  1.0
  Ni  Ni956  1  0.03750933  0.73191367  0.31620728  1.0
  Ni  Ni957  1  0.37084267  0.06524700  0.31620728  1.0
  Ni  Ni958  1  0.37084267  0.39858033  0.31620728  1.0
  Ni  Ni959  1  0.37084267  0.73191367  0.31620728  1.0
  Ni  Ni960  1  0.70417600  0.06524700  0.31620728  1.0
  Ni  Ni961  1  0.70417600  0.39858033  0.31620728  1.0
  Ni  Ni962  1  0.70417600  0.73191367  0.31620728  1.0
  Ni  Ni963  1  0.16533000  0.06524700  0.30785250  1.0
  Ni  Ni964  1  0.16533000  0.39858033  0.30785250  1.0
  Ni  Ni965  1  0.16533000  0.73191367  0.30785250  1.0
  Ni  Ni966  1  0.49866333  0.06524700  0.30785250  1.0
  Ni  Ni967  1  0.49866333  0.39858033  0.30785250  1.0
  Ni  Ni968  1  0.49866333  0.73191367  0.30785250  1.0
  Ni  Ni969  1  0.83199667  0.06524700  0.30785250  1.0
  Ni  Ni970  1  0.83199667  0.39858033  0.30785250  1.0
  Ni  Ni971  1  0.83199667  0.73191367  0.30785250  1.0
  Ni  Ni972  1  0.13389900  0.19943433  0.24328483  1.0
  Ni  Ni973  1  0.13389900  0.53276767  0.24328483  1.0
  Ni  Ni974  1  0.13389900  0.86610100  0.24328483  1.0
  Ni  Ni975  1  0.46723233  0.19943433  0.24328483  1.0
  Ni  Ni976  1  0.46723233  0.53276767  0.24328483  1.0
  Ni  Ni977  1  0.46723233  0.86610100  0.24328483  1.0
  Ni  Ni978  1  0.80056567  0.19943433  0.24328483  1.0
  Ni  Ni979  1  0.80056567  0.53276767  0.24328483  1.0
  Ni  Ni980  1  0.80056567  0.86610100  0.24328483  1.0
  Ni  Ni981  1  0.25627667  0.19943433  0.24328483  1.0
  Ni  Ni982  1  0.25627667  0.53276767  0.24328483  1.0
  Ni  Ni983  1  0.25627667  0.86610100  0.24328483  1.0
  Ni  Ni984  1  0.58961000  0.19943433  0.24328483  1.0
  Ni  Ni985  1  0.58961000  0.53276767  0.24328483  1.0
  Ni  Ni986  1  0.58961000  0.86610100  0.24328483  1.0
  Ni  Ni987  1  0.92294333  0.19943433  0.24328483  1.0
  Ni  Ni988  1  0.92294333  0.53276767  0.24328483  1.0
  Ni  Ni989  1  0.92294333  0.86610100  0.24328483  1.0
  Ni  Ni990  1  0.01152133  0.19943433  0.25455139  1.0
  Ni  Ni991  1  0.01152133  0.53276767  0.25455139  1.0
  Ni  Ni992  1  0.01152133  0.86610100  0.25455139  1.0
  Ni  Ni993  1  0.34485467  0.19943433  0.25455139  1.0
  Ni  Ni994  1  0.34485467  0.53276767  0.25455139  1.0
  Ni  Ni995  1  0.34485467  0.86610100  0.25455139  1.0
  Ni  Ni996  1  0.67818800  0.19943433  0.25455139  1.0
  Ni  Ni997  1  0.67818800  0.53276767  0.25455139  1.0
  Ni  Ni998  1  0.67818800  0.86610100  0.25455139  1.0
  Ni  Ni999  1  0.30056567  0.03276767  0.26931439  1.0
  Ni  Ni1000  1  0.30056567  0.36610100  0.26931439  1.0
  Ni  Ni1001  1  0.30056567  0.69943433  0.26931439  1.0
  Ni  Ni1002  1  0.63389900  0.03276767  0.26931439  1.0
  Ni  Ni1003  1  0.63389900  0.36610100  0.26931439  1.0
  Ni  Ni1004  1  0.63389900  0.69943433  0.26931439  1.0
  Ni  Ni1005  1  0.96723233  0.03276767  0.26931439  1.0
  Ni  Ni1006  1  0.96723233  0.36610100  0.26931439  1.0
  Ni  Ni1007  1  0.96723233  0.69943433  0.26931439  1.0
  Ni  Ni1008  1  0.17818800  0.03276767  0.26931439  1.0
  Ni  Ni1009  1  0.17818800  0.36610100  0.26931439  1.0
  Ni  Ni1010  1  0.17818800  0.69943433  0.26931439  1.0
  Ni  Ni1011  1  0.51152133  0.03276767  0.26931439  1.0
  Ni  Ni1012  1  0.51152133  0.36610100  0.26931439  1.0
  Ni  Ni1013  1  0.51152133  0.69943433  0.26931439  1.0
  Ni  Ni1014  1  0.84485467  0.03276767  0.26931439  1.0
  Ni  Ni1015  1  0.84485467  0.36610100  0.26931439  1.0
  Ni  Ni1016  1  0.84485467  0.69943433  0.26931439  1.0
  Ni  Ni1017  1  0.08961000  0.03276767  0.25804783  1.0
  Ni  Ni1018  1  0.08961000  0.36610100  0.25804783  1.0
  Ni  Ni1019  1  0.08961000  0.69943433  0.25804783  1.0
  Ni  Ni1020  1  0.42294333  0.03276767  0.25804783  1.0
  Ni  Ni1021  1  0.42294333  0.36610100  0.25804783  1.0
  Ni  Ni1022  1  0.42294333  0.69943433  0.25804783  1.0
  Ni  Ni1023  1  0.75627667  0.03276767  0.25804783  1.0
  Ni  Ni1024  1  0.75627667  0.36610100  0.25804783  1.0
  Ni  Ni1025  1  0.75627667  0.69943433  0.25804783  1.0
  Ge  Ge1026  1  0.07493400  0.25839933  0.30373239  1.0
  Ge  Ge1027  1  0.07493400  0.59173267  0.30373239  1.0
  Ge  Ge1028  1  0.07493400  0.92506600  0.30373239  1.0
  Ge  Ge1029  1  0.40826733  0.25839933  0.30373239  1.0
  Ge  Ge1030  1  0.40826733  0.59173267  0.30373239  1.0
  Ge  Ge1031  1  0.40826733  0.92506600  0.30373239  1.0
  Ge  Ge1032  1  0.74160067  0.25839933  0.30373239  1.0
  Ge  Ge1033  1  0.74160067  0.59173267  0.30373239  1.0
  Ge  Ge1034  1  0.74160067  0.92506600  0.30373239  1.0
  Ge  Ge1035  1  0.24160067  0.09173267  0.24817683  1.0
  Ge  Ge1036  1  0.24160067  0.42506600  0.24817683  1.0
  Ge  Ge1037  1  0.24160067  0.75839933  0.24817683  1.0
  Ge  Ge1038  1  0.57493400  0.09173267  0.24817683  1.0
  Ge  Ge1039  1  0.57493400  0.42506600  0.24817683  1.0
  Ge  Ge1040  1  0.57493400  0.75839933  0.24817683  1.0
  Ge  Ge1041  1  0.90826733  0.09173267  0.24817683  1.0
  Ge  Ge1042  1  0.90826733  0.42506600  0.24817683  1.0
  Ge  Ge1043  1  0.90826733  0.75839933  0.24817683  1.0
  Ge  Ge1044  1  0.31527422  0.24028133  0.29769306  1.0
  Ge  Ge1045  1  0.31527422  0.57361467  0.29769306  1.0
  Ge  Ge1046  1  0.31527422  0.90694800  0.29769306  1.0
  Ge  Ge1047  1  0.64860756  0.24028133  0.29769306  1.0
  Ge  Ge1048  1  0.64860756  0.57361467  0.29769306  1.0
  Ge  Ge1049  1  0.64860756  0.90694800  0.29769306  1.0
  Ge  Ge1050  1  0.98194089  0.24028133  0.29769306  1.0
  Ge  Ge1051  1  0.98194089  0.57361467  0.29769306  1.0
  Ge  Ge1052  1  0.98194089  0.90694800  0.29769306  1.0
  Ge  Ge1053  1  0.20416311  0.24028133  0.29769306  1.0
  Ge  Ge1054  1  0.20416311  0.57361467  0.29769306  1.0
  Ge  Ge1055  1  0.20416311  0.90694800  0.29769306  1.0
  Ge  Ge1056  1  0.53749644  0.24028133  0.29769306  1.0
  Ge  Ge1057  1  0.53749644  0.57361467  0.29769306  1.0
  Ge  Ge1058  1  0.53749644  0.90694800  0.29769306  1.0
  Ge  Ge1059  1  0.87082978  0.24028133  0.29769306  1.0
  Ge  Ge1060  1  0.87082978  0.57361467  0.29769306  1.0
  Ge  Ge1061  1  0.87082978  0.90694800  0.29769306  1.0
  Ge  Ge1062  1  0.03749644  0.07361467  0.24213750  1.0
  Ge  Ge1063  1  0.03749644  0.40694800  0.24213750  1.0
  Ge  Ge1064  1  0.03749644  0.74028133  0.24213750  1.0
  Ge  Ge1065  1  0.37082978  0.07361467  0.24213750  1.0
  Ge  Ge1066  1  0.37082978  0.40694800  0.24213750  1.0
  Ge  Ge1067  1  0.37082978  0.74028133  0.24213750  1.0
  Ge  Ge1068  1  0.70416311  0.07361467  0.24213750  1.0
  Ge  Ge1069  1  0.70416311  0.40694800  0.24213750  1.0
  Ge  Ge1070  1  0.70416311  0.74028133  0.24213750  1.0
  Ge  Ge1071  1  0.14860756  0.07361467  0.24213750  1.0
  Ge  Ge1072  1  0.14860756  0.40694800  0.24213750  1.0
  Ge  Ge1073  1  0.14860756  0.74028133  0.24213750  1.0
  Ge  Ge1074  1  0.48194089  0.07361467  0.24213750  1.0
  Ge  Ge1075  1  0.48194089  0.40694800  0.24213750  1.0
  Ge  Ge1076  1  0.48194089  0.74028133  0.24213750  1.0
  Ge  Ge1077  1  0.81527422  0.07361467  0.24213750  1.0
  Ge  Ge1078  1  0.81527422  0.40694800  0.24213750  1.0
  Ge  Ge1079  1  0.81527422  0.74028133  0.24213750  1.0
  Ge  Ge1080  1  0.33230400  0.00102933  0.29189183  1.0
  Ge  Ge1081  1  0.33230400  0.33436267  0.29189183  1.0
  Ge  Ge1082  1  0.33230400  0.66769600  0.29189183  1.0
  Ge  Ge1083  1  0.66563733  0.00102933  0.29189183  1.0
  Ge  Ge1084  1  0.66563733  0.33436267  0.29189183  1.0
  Ge  Ge1085  1  0.66563733  0.66769600  0.29189183  1.0
  Ge  Ge1086  1  0.99897067  0.00102933  0.29189183  1.0
  Ge  Ge1087  1  0.99897067  0.33436267  0.29189183  1.0
  Ge  Ge1088  1  0.99897067  0.66769600  0.29189183  1.0
  Ge  Ge1089  1  0.11045567  0.00102933  0.29189183  1.0
  Ge  Ge1090  1  0.11045567  0.33436267  0.29189183  1.0
  Ge  Ge1091  1  0.11045567  0.66769600  0.29189183  1.0
  Ge  Ge1092  1  0.44378900  0.00102933  0.29189183  1.0
  Ge  Ge1093  1  0.44378900  0.33436267  0.29189183  1.0
  Ge  Ge1094  1  0.44378900  0.66769600  0.29189183  1.0
  Ge  Ge1095  1  0.77712233  0.00102933  0.29189183  1.0
  Ge  Ge1096  1  0.77712233  0.33436267  0.29189183  1.0
  Ge  Ge1097  1  0.77712233  0.66769600  0.29189183  1.0
  Ge  Ge1098  1  0.22081900  0.00102933  0.29226572  1.0
  Ge  Ge1099  1  0.22081900  0.33436267  0.29226572  1.0
  Ge  Ge1100  1  0.22081900  0.66769600  0.29226572  1.0
  Ge  Ge1101  1  0.55415233  0.00102933  0.29226572  1.0
  Ge  Ge1102  1  0.55415233  0.33436267  0.29226572  1.0
  Ge  Ge1103  1  0.55415233  0.66769600  0.29226572  1.0
  Ge  Ge1104  1  0.88748567  0.00102933  0.29226572  1.0
  Ge  Ge1105  1  0.88748567  0.33436267  0.29226572  1.0
  Ge  Ge1106  1  0.88748567  0.66769600  0.29226572  1.0
  Ge  Ge1107  1  0.16563733  0.16769600  0.31065961  1.0
  Ge  Ge1108  1  0.16563733  0.50102933  0.31065961  1.0
  Ge  Ge1109  1  0.16563733  0.83436267  0.31065961  1.0
  Ge  Ge1110  1  0.49897067  0.16769600  0.31065961  1.0
  Ge  Ge1111  1  0.49897067  0.50102933  0.31065961  1.0
  Ge  Ge1112  1  0.49897067  0.83436267  0.31065961  1.0
  Ge  Ge1113  1  0.83230400  0.16769600  0.31065961  1.0
  Ge  Ge1114  1  0.83230400  0.50102933  0.31065961  1.0
  Ge  Ge1115  1  0.83230400  0.83436267  0.31065961  1.0
  Ge  Ge1116  1  0.05415233  0.16769600  0.31065961  1.0
  Ge  Ge1117  1  0.05415233  0.50102933  0.31065961  1.0
  Ge  Ge1118  1  0.05415233  0.83436267  0.31065961  1.0
  Ge  Ge1119  1  0.38748567  0.16769600  0.31065961  1.0
  Ge  Ge1120  1  0.38748567  0.50102933  0.31065961  1.0
  Ge  Ge1121  1  0.38748567  0.83436267  0.31065961  1.0
  Ge  Ge1122  1  0.72081900  0.16769600  0.31065961  1.0
  Ge  Ge1123  1  0.72081900  0.50102933  0.31065961  1.0
  Ge  Ge1124  1  0.72081900  0.83436267  0.31065961  1.0
  Ge  Ge1125  1  0.27712233  0.16769600  0.31028572  1.0
  Ge  Ge1126  1  0.27712233  0.50102933  0.31028572  1.0
  Ge  Ge1127  1  0.27712233  0.83436267  0.31028572  1.0
  Ge  Ge1128  1  0.61045567  0.16769600  0.31028572  1.0
  Ge  Ge1129  1  0.61045567  0.50102933  0.31028572  1.0
  Ge  Ge1130  1  0.61045567  0.83436267  0.31028572  1.0
  Ge  Ge1131  1  0.94378900  0.16769600  0.31028572  1.0
  Ge  Ge1132  1  0.94378900  0.50102933  0.31028572  1.0
  Ge  Ge1133  1  0.94378900  0.83436267  0.31028572  1.0
  Ni  Ni1134  1  0.30945467  0.02387867  0.33666994  1.0
  Ni  Ni1135  1  0.30945467  0.35721200  0.33666994  1.0
  Ni  Ni1136  1  0.30945467  0.69054533  0.33666994  1.0
  Ni  Ni1137  1  0.64278800  0.02387867  0.33666994  1.0
  Ni  Ni1138  1  0.64278800  0.35721200  0.33666994  1.0
  Ni  Ni1139  1  0.64278800  0.69054533  0.33666994  1.0
  Ni  Ni1140  1  0.97612133  0.02387867  0.33666994  1.0
  Ni  Ni1141  1  0.97612133  0.35721200  0.33666994  1.0
  Ni  Ni1142  1  0.97612133  0.69054533  0.33666994  1.0
  Ni  Ni1143  1  0.14278800  0.19054533  0.39222550  1.0
  Ni  Ni1144  1  0.14278800  0.52387867  0.39222550  1.0
  Ni  Ni1145  1  0.14278800  0.85721200  0.39222550  1.0
  Ni  Ni1146  1  0.47612133  0.19054533  0.39222550  1.0
  Ni  Ni1147  1  0.47612133  0.52387867  0.39222550  1.0
  Ni  Ni1148  1  0.47612133  0.85721200  0.39222550  1.0
  Ni  Ni1149  1  0.80945467  0.19054533  0.39222550  1.0
  Ni  Ni1150  1  0.80945467  0.52387867  0.39222550  1.0
  Ni  Ni1151  1  0.80945467  0.85721200  0.39222550  1.0
  Ni  Ni1152  1  0.24646856  0.30908700  0.43173939  1.0
  Ni  Ni1153  1  0.24646856  0.64242033  0.43173939  1.0
  Ni  Ni1154  1  0.24646856  0.97575367  0.43173939  1.0
  Ni  Ni1155  1  0.57980189  0.30908700  0.43173939  1.0
  Ni  Ni1156  1  0.57980189  0.64242033  0.43173939  1.0
  Ni  Ni1157  1  0.57980189  0.97575367  0.43173939  1.0
  Ni  Ni1158  1  0.91313522  0.30908700  0.43173939  1.0
  Ni  Ni1159  1  0.91313522  0.64242033  0.43173939  1.0
  Ni  Ni1160  1  0.91313522  0.97575367  0.43173939  1.0
  Ni  Ni1161  1  0.13535744  0.30908700  0.43173939  1.0
  Ni  Ni1162  1  0.13535744  0.64242033  0.43173939  1.0
  Ni  Ni1163  1  0.13535744  0.97575367  0.43173939  1.0
  Ni  Ni1164  1  0.46869078  0.30908700  0.43173939  1.0
  Ni  Ni1165  1  0.46869078  0.64242033  0.43173939  1.0
  Ni  Ni1166  1  0.46869078  0.97575367  0.43173939  1.0
  Ni  Ni1167  1  0.80202411  0.30908700  0.43173939  1.0
  Ni  Ni1168  1  0.80202411  0.64242033  0.43173939  1.0
  Ni  Ni1169  1  0.80202411  0.97575367  0.43173939  1.0
  Ni  Ni1170  1  0.30202411  0.14242033  0.37618383  1.0
  Ni  Ni1171  1  0.30202411  0.47575367  0.37618383  1.0
  Ni  Ni1172  1  0.30202411  0.80908700  0.37618383  1.0
  Ni  Ni1173  1  0.63535744  0.14242033  0.37618383  1.0
  Ni  Ni1174  1  0.63535744  0.47575367  0.37618383  1.0
  Ni  Ni1175  1  0.63535744  0.80908700  0.37618383  1.0
  Ni  Ni1176  1  0.96869078  0.14242033  0.37618383  1.0
  Ni  Ni1177  1  0.96869078  0.47575367  0.37618383  1.0
  Ni  Ni1178  1  0.96869078  0.80908700  0.37618383  1.0
  Ni  Ni1179  1  0.07980189  0.14242033  0.37618383  1.0
  Ni  Ni1180  1  0.07980189  0.47575367  0.37618383  1.0
  Ni  Ni1181  1  0.07980189  0.80908700  0.37618383  1.0
  Ni  Ni1182  1  0.41313522  0.14242033  0.37618383  1.0
  Ni  Ni1183  1  0.41313522  0.47575367  0.37618383  1.0
  Ni  Ni1184  1  0.41313522  0.80908700  0.37618383  1.0
  Ni  Ni1185  1  0.74646856  0.14242033  0.37618383  1.0
  Ni  Ni1186  1  0.74646856  0.47575367  0.37618383  1.0
  Ni  Ni1187  1  0.74646856  0.80908700  0.37618383  1.0
  Ni  Ni1188  1  0.03222233  0.30111100  0.34739094  1.0
  Ni  Ni1189  1  0.03222233  0.63444433  0.34739094  1.0
  Ni  Ni1190  1  0.03222233  0.96777767  0.34739094  1.0
  Ni  Ni1191  1  0.36555567  0.30111100  0.34739094  1.0
  Ni  Ni1192  1  0.36555567  0.63444433  0.34739094  1.0
  Ni  Ni1193  1  0.36555567  0.96777767  0.34739094  1.0
  Ni  Ni1194  1  0.69888900  0.30111100  0.34739094  1.0
  Ni  Ni1195  1  0.69888900  0.63444433  0.34739094  1.0
  Ni  Ni1196  1  0.69888900  0.96777767  0.34739094  1.0
  Ni  Ni1197  1  0.27729167  0.30111100  0.34739094  1.0
  Ni  Ni1198  1  0.27729167  0.63444433  0.34739094  1.0
  Ni  Ni1199  1  0.27729167  0.96777767  0.34739094  1.0
  Ni  Ni1200  1  0.61062500  0.30111100  0.34739094  1.0
  Ni  Ni1201  1  0.61062500  0.63444433  0.34739094  1.0
  Ni  Ni1202  1  0.61062500  0.96777767  0.34739094  1.0
  Ni  Ni1203  1  0.94395833  0.30111100  0.34739094  1.0
  Ni  Ni1204  1  0.94395833  0.63444433  0.34739094  1.0
  Ni  Ni1205  1  0.94395833  0.96777767  0.34739094  1.0
  Ni  Ni1206  1  0.12048633  0.30111100  0.37023806  1.0
  Ni  Ni1207  1  0.12048633  0.63444433  0.37023806  1.0
  Ni  Ni1208  1  0.12048633  0.96777767  0.37023806  1.0
  Ni  Ni1209  1  0.45381967  0.30111100  0.37023806  1.0
  Ni  Ni1210  1  0.45381967  0.63444433  0.37023806  1.0
  Ni  Ni1211  1  0.45381967  0.96777767  0.37023806  1.0
  Ni  Ni1212  1  0.78715300  0.30111100  0.37023806  1.0
  Ni  Ni1213  1  0.78715300  0.63444433  0.37023806  1.0
  Ni  Ni1214  1  0.78715300  0.96777767  0.37023806  1.0
  Ni  Ni1215  1  0.19888900  0.13444433  0.34410383  1.0
  Ni  Ni1216  1  0.19888900  0.46777767  0.34410383  1.0
  Ni  Ni1217  1  0.19888900  0.80111100  0.34410383  1.0
  Ni  Ni1218  1  0.53222233  0.13444433  0.34410383  1.0
  Ni  Ni1219  1  0.53222233  0.46777767  0.34410383  1.0
  Ni  Ni1220  1  0.53222233  0.80111100  0.34410383  1.0
  Ni  Ni1221  1  0.86555567  0.13444433  0.34410383  1.0
  Ni  Ni1222  1  0.86555567  0.46777767  0.34410383  1.0
  Ni  Ni1223  1  0.86555567  0.80111100  0.34410383  1.0
  Ni  Ni1224  1  0.28715300  0.13444433  0.34410383  1.0
  Ni  Ni1225  1  0.28715300  0.46777767  0.34410383  1.0
  Ni  Ni1226  1  0.28715300  0.80111100  0.34410383  1.0
  Ni  Ni1227  1  0.62048633  0.13444433  0.34410383  1.0
  Ni  Ni1228  1  0.62048633  0.46777767  0.34410383  1.0
  Ni  Ni1229  1  0.62048633  0.80111100  0.34410383  1.0
  Ni  Ni1230  1  0.95381967  0.13444433  0.34410383  1.0
  Ni  Ni1231  1  0.95381967  0.46777767  0.34410383  1.0
  Ni  Ni1232  1  0.95381967  0.80111100  0.34410383  1.0
  Ni  Ni1233  1  0.11062500  0.13444433  0.43236783  1.0
  Ni  Ni1234  1  0.11062500  0.46777767  0.43236783  1.0
  Ni  Ni1235  1  0.11062500  0.80111100  0.43236783  1.0
  Ni  Ni1236  1  0.44395833  0.13444433  0.43236783  1.0
  Ni  Ni1237  1  0.44395833  0.46777767  0.43236783  1.0
  Ni  Ni1238  1  0.44395833  0.80111100  0.43236783  1.0
  Ni  Ni1239  1  0.77729167  0.13444433  0.43236783  1.0
  Ni  Ni1240  1  0.77729167  0.46777767  0.43236783  1.0
  Ni  Ni1241  1  0.77729167  0.80111100  0.43236783  1.0
  Ni  Ni1242  1  0.06415567  0.26917767  0.37690694  1.0
  Ni  Ni1243  1  0.06415567  0.60251100  0.37690694  1.0
  Ni  Ni1244  1  0.06415567  0.93584433  0.37690694  1.0
  Ni  Ni1245  1  0.39748900  0.26917767  0.37690694  1.0
  Ni  Ni1246  1  0.39748900  0.60251100  0.37690694  1.0
  Ni  Ni1247  1  0.39748900  0.93584433  0.37690694  1.0
  Ni  Ni1248  1  0.73082233  0.26917767  0.37690694  1.0
  Ni  Ni1249  1  0.73082233  0.60251100  0.37690694  1.0
  Ni  Ni1250  1  0.73082233  0.93584433  0.37690694  1.0
  Ni  Ni1251  1  0.18874367  0.26917767  0.37690694  1.0
  Ni  Ni1252  1  0.18874367  0.60251100  0.37690694  1.0
  Ni  Ni1253  1  0.18874367  0.93584433  0.37690694  1.0
  Ni  Ni1254  1  0.52207700  0.26917767  0.37690694  1.0
  Ni  Ni1255  1  0.52207700  0.60251100  0.37690694  1.0
  Ni  Ni1256  1  0.52207700  0.93584433  0.37690694  1.0
  Ni  Ni1257  1  0.85541033  0.26917767  0.37690694  1.0
  Ni  Ni1258  1  0.85541033  0.60251100  0.37690694  1.0
  Ni  Ni1259  1  0.85541033  0.93584433  0.37690694  1.0
  Ni  Ni1260  1  0.27290100  0.26917767  0.39038383  1.0
  Ni  Ni1261  1  0.27290100  0.60251100  0.39038383  1.0
  Ni  Ni1262  1  0.27290100  0.93584433  0.39038383  1.0
  Ni  Ni1263  1  0.60623433  0.26917767  0.39038383  1.0
  Ni  Ni1264  1  0.60623433  0.60251100  0.39038383  1.0
  Ni  Ni1265  1  0.60623433  0.93584433  0.39038383  1.0
  Ni  Ni1266  1  0.93956767  0.26917767  0.39038383  1.0
  Ni  Ni1267  1  0.93956767  0.60251100  0.39038383  1.0
  Ni  Ni1268  1  0.93956767  0.93584433  0.39038383  1.0
  Ni  Ni1269  1  0.23082233  0.10251100  0.40441006  1.0
  Ni  Ni1270  1  0.23082233  0.43584433  0.40441006  1.0
  Ni  Ni1271  1  0.23082233  0.76917767  0.40441006  1.0
  Ni  Ni1272  1  0.56415567  0.10251100  0.40441006  1.0
  Ni  Ni1273  1  0.56415567  0.43584433  0.40441006  1.0
  Ni  Ni1274  1  0.56415567  0.76917767  0.40441006  1.0
  Ni  Ni1275  1  0.89748900  0.10251100  0.40441006  1.0
  Ni  Ni1276  1  0.89748900  0.43584433  0.40441006  1.0
  Ni  Ni1277  1  0.89748900  0.76917767  0.40441006  1.0
  Ni  Ni1278  1  0.10623433  0.10251100  0.40441006  1.0
  Ni  Ni1279  1  0.10623433  0.43584433  0.40441006  1.0
  Ni  Ni1280  1  0.10623433  0.76917767  0.40441006  1.0
  Ni  Ni1281  1  0.43956767  0.10251100  0.40441006  1.0
  Ni  Ni1282  1  0.43956767  0.43584433  0.40441006  1.0
  Ni  Ni1283  1  0.43956767  0.76917767  0.40441006  1.0
  Ni  Ni1284  1  0.77290100  0.10251100  0.40441006  1.0
  Ni  Ni1285  1  0.77290100  0.43584433  0.40441006  1.0
  Ni  Ni1286  1  0.77290100  0.76917767  0.40441006  1.0
  Ni  Ni1287  1  0.02207700  0.10251100  0.39093317  1.0
  Ni  Ni1288  1  0.02207700  0.43584433  0.39093317  1.0
  Ni  Ni1289  1  0.02207700  0.76917767  0.39093317  1.0
  Ni  Ni1290  1  0.35541033  0.10251100  0.39093317  1.0
  Ni  Ni1291  1  0.35541033  0.43584433  0.39093317  1.0
  Ni  Ni1292  1  0.35541033  0.76917767  0.39093317  1.0
  Ni  Ni1293  1  0.68874367  0.10251100  0.39093317  1.0
  Ni  Ni1294  1  0.68874367  0.43584433  0.39093317  1.0
  Ni  Ni1295  1  0.68874367  0.76917767  0.39093317  1.0
  Ni  Ni1296  1  0.10141967  0.23191367  0.44026706  1.0
  Ni  Ni1297  1  0.10141967  0.56524700  0.44026706  1.0
  Ni  Ni1298  1  0.10141967  0.89858033  0.44026706  1.0
  Ni  Ni1299  1  0.43475300  0.23191367  0.44026706  1.0
  Ni  Ni1300  1  0.43475300  0.56524700  0.44026706  1.0
  Ni  Ni1301  1  0.43475300  0.89858033  0.44026706  1.0
  Ni  Ni1302  1  0.76808633  0.23191367  0.44026706  1.0
  Ni  Ni1303  1  0.76808633  0.56524700  0.44026706  1.0
  Ni  Ni1304  1  0.76808633  0.89858033  0.44026706  1.0
  Ni  Ni1305  1  0.33199667  0.23191367  0.44026706  1.0
  Ni  Ni1306  1  0.33199667  0.56524700  0.44026706  1.0
  Ni  Ni1307  1  0.33199667  0.89858033  0.44026706  1.0
  Ni  Ni1308  1  0.66533000  0.23191367  0.44026706  1.0
  Ni  Ni1309  1  0.66533000  0.56524700  0.44026706  1.0
  Ni  Ni1310  1  0.66533000  0.89858033  0.44026706  1.0
  Ni  Ni1311  1  0.99866333  0.23191367  0.44026706  1.0
  Ni  Ni1312  1  0.99866333  0.56524700  0.44026706  1.0
  Ni  Ni1313  1  0.99866333  0.89858033  0.44026706  1.0
  Ni  Ni1314  1  0.20417600  0.23191367  0.33751072  1.0
  Ni  Ni1315  1  0.20417600  0.56524700  0.33751072  1.0
  Ni  Ni1316  1  0.20417600  0.89858033  0.33751072  1.0
  Ni  Ni1317  1  0.53750933  0.23191367  0.33751072  1.0
  Ni  Ni1318  1  0.53750933  0.56524700  0.33751072  1.0
  Ni  Ni1319  1  0.53750933  0.89858033  0.33751072  1.0
  Ni  Ni1320  1  0.87084267  0.23191367  0.33751072  1.0
  Ni  Ni1321  1  0.87084267  0.56524700  0.33751072  1.0
  Ni  Ni1322  1  0.87084267  0.89858033  0.33751072  1.0
  Ni  Ni1323  1  0.26808633  0.06524700  0.42731839  1.0
  Ni  Ni1324  1  0.26808633  0.39858033  0.42731839  1.0
  Ni  Ni1325  1  0.26808633  0.73191367  0.42731839  1.0
  Ni  Ni1326  1  0.60141967  0.06524700  0.42731839  1.0
  Ni  Ni1327  1  0.60141967  0.39858033  0.42731839  1.0
  Ni  Ni1328  1  0.60141967  0.73191367  0.42731839  1.0
  Ni  Ni1329  1  0.93475300  0.06524700  0.42731839  1.0
  Ni  Ni1330  1  0.93475300  0.39858033  0.42731839  1.0
  Ni  Ni1331  1  0.93475300  0.73191367  0.42731839  1.0
  Ni  Ni1332  1  0.03750933  0.06524700  0.42731839  1.0
  Ni  Ni1333  1  0.03750933  0.39858033  0.42731839  1.0
  Ni  Ni1334  1  0.03750933  0.73191367  0.42731839  1.0
  Ni  Ni1335  1  0.37084267  0.06524700  0.42731839  1.0
  Ni  Ni1336  1  0.37084267  0.39858033  0.42731839  1.0
  Ni  Ni1337  1  0.37084267  0.73191367  0.42731839  1.0
  Ni  Ni1338  1  0.70417600  0.06524700  0.42731839  1.0
  Ni  Ni1339  1  0.70417600  0.39858033  0.42731839  1.0
  Ni  Ni1340  1  0.70417600  0.73191367  0.42731839  1.0
  Ni  Ni1341  1  0.16533000  0.06524700  0.41896361  1.0
  Ni  Ni1342  1  0.16533000  0.39858033  0.41896361  1.0
  Ni  Ni1343  1  0.16533000  0.73191367  0.41896361  1.0
  Ni  Ni1344  1  0.49866333  0.06524700  0.41896361  1.0
  Ni  Ni1345  1  0.49866333  0.39858033  0.41896361  1.0
  Ni  Ni1346  1  0.49866333  0.73191367  0.41896361  1.0
  Ni  Ni1347  1  0.83199667  0.06524700  0.41896361  1.0
  Ni  Ni1348  1  0.83199667  0.39858033  0.41896361  1.0
  Ni  Ni1349  1  0.83199667  0.73191367  0.41896361  1.0
  Ni  Ni1350  1  0.13389900  0.19943433  0.35439594  1.0
  Ni  Ni1351  1  0.13389900  0.53276767  0.35439594  1.0
  Ni  Ni1352  1  0.13389900  0.86610100  0.35439594  1.0
  Ni  Ni1353  1  0.46723233  0.19943433  0.35439594  1.0
  Ni  Ni1354  1  0.46723233  0.53276767  0.35439594  1.0
  Ni  Ni1355  1  0.46723233  0.86610100  0.35439594  1.0
  Ni  Ni1356  1  0.80056567  0.19943433  0.35439594  1.0
  Ni  Ni1357  1  0.80056567  0.53276767  0.35439594  1.0
  Ni  Ni1358  1  0.80056567  0.86610100  0.35439594  1.0
  Ni  Ni1359  1  0.25627667  0.19943433  0.35439594  1.0
  Ni  Ni1360  1  0.25627667  0.53276767  0.35439594  1.0
  Ni  Ni1361  1  0.25627667  0.86610100  0.35439594  1.0
  Ni  Ni1362  1  0.58961000  0.19943433  0.35439594  1.0
  Ni  Ni1363  1  0.58961000  0.53276767  0.35439594  1.0
  Ni  Ni1364  1  0.58961000  0.86610100  0.35439594  1.0
  Ni  Ni1365  1  0.92294333  0.19943433  0.35439594  1.0
  Ni  Ni1366  1  0.92294333  0.53276767  0.35439594  1.0
  Ni  Ni1367  1  0.92294333  0.86610100  0.35439594  1.0
  Ni  Ni1368  1  0.01152133  0.19943433  0.36566250  1.0
  Ni  Ni1369  1  0.01152133  0.53276767  0.36566250  1.0
  Ni  Ni1370  1  0.01152133  0.86610100  0.36566250  1.0
  Ni  Ni1371  1  0.34485467  0.19943433  0.36566250  1.0
  Ni  Ni1372  1  0.34485467  0.53276767  0.36566250  1.0
  Ni  Ni1373  1  0.34485467  0.86610100  0.36566250  1.0
  Ni  Ni1374  1  0.67818800  0.19943433  0.36566250  1.0
  Ni  Ni1375  1  0.67818800  0.53276767  0.36566250  1.0
  Ni  Ni1376  1  0.67818800  0.86610100  0.36566250  1.0
  Ni  Ni1377  1  0.30056567  0.03276767  0.38042550  1.0
  Ni  Ni1378  1  0.30056567  0.36610100  0.38042550  1.0
  Ni  Ni1379  1  0.30056567  0.69943433  0.38042550  1.0
  Ni  Ni1380  1  0.63389900  0.03276767  0.38042550  1.0
  Ni  Ni1381  1  0.63389900  0.36610100  0.38042550  1.0
  Ni  Ni1382  1  0.63389900  0.69943433  0.38042550  1.0
  Ni  Ni1383  1  0.96723233  0.03276767  0.38042550  1.0
  Ni  Ni1384  1  0.96723233  0.36610100  0.38042550  1.0
  Ni  Ni1385  1  0.96723233  0.69943433  0.38042550  1.0
  Ni  Ni1386  1  0.17818800  0.03276767  0.38042550  1.0
  Ni  Ni1387  1  0.17818800  0.36610100  0.38042550  1.0
  Ni  Ni1388  1  0.17818800  0.69943433  0.38042550  1.0
  Ni  Ni1389  1  0.51152133  0.03276767  0.38042550  1.0
  Ni  Ni1390  1  0.51152133  0.36610100  0.38042550  1.0
  Ni  Ni1391  1  0.51152133  0.69943433  0.38042550  1.0
  Ni  Ni1392  1  0.84485467  0.03276767  0.38042550  1.0
  Ni  Ni1393  1  0.84485467  0.36610100  0.38042550  1.0
  Ni  Ni1394  1  0.84485467  0.69943433  0.38042550  1.0
  Ni  Ni1395  1  0.08961000  0.03276767  0.36915894  1.0
  Ni  Ni1396  1  0.08961000  0.36610100  0.36915894  1.0
  Ni  Ni1397  1  0.08961000  0.69943433  0.36915894  1.0
  Ni  Ni1398  1  0.42294333  0.03276767  0.36915894  1.0
  Ni  Ni1399  1  0.42294333  0.36610100  0.36915894  1.0
  Ni  Ni1400  1  0.42294333  0.69943433  0.36915894  1.0
  Ni  Ni1401  1  0.75627667  0.03276767  0.36915894  1.0
  Ni  Ni1402  1  0.75627667  0.36610100  0.36915894  1.0
  Ni  Ni1403  1  0.75627667  0.69943433  0.36915894  1.0
  Ge  Ge1404  1  0.07493400  0.25839933  0.41484350  1.0
  Ge  Ge1405  1  0.07493400  0.59173267  0.41484350  1.0
  Ge  Ge1406  1  0.07493400  0.92506600  0.41484350  1.0
  Ge  Ge1407  1  0.40826733  0.25839933  0.41484350  1.0
  Ge  Ge1408  1  0.40826733  0.59173267  0.41484350  1.0
  Ge  Ge1409  1  0.40826733  0.92506600  0.41484350  1.0
  Ge  Ge1410  1  0.74160067  0.25839933  0.41484350  1.0
  Ge  Ge1411  1  0.74160067  0.59173267  0.41484350  1.0
  Ge  Ge1412  1  0.74160067  0.92506600  0.41484350  1.0
  Ge  Ge1413  1  0.24160067  0.09173267  0.35928794  1.0
  Ge  Ge1414  1  0.24160067  0.42506600  0.35928794  1.0
  Ge  Ge1415  1  0.24160067  0.75839933  0.35928794  1.0
  Ge  Ge1416  1  0.57493400  0.09173267  0.35928794  1.0
  Ge  Ge1417  1  0.57493400  0.42506600  0.35928794  1.0
  Ge  Ge1418  1  0.57493400  0.75839933  0.35928794  1.0
  Ge  Ge1419  1  0.90826733  0.09173267  0.35928794  1.0
  Ge  Ge1420  1  0.90826733  0.42506600  0.35928794  1.0
  Ge  Ge1421  1  0.90826733  0.75839933  0.35928794  1.0
  Ge  Ge1422  1  0.31527422  0.24028133  0.40880417  1.0
  Ge  Ge1423  1  0.31527422  0.57361467  0.40880417  1.0
  Ge  Ge1424  1  0.31527422  0.90694800  0.40880417  1.0
  Ge  Ge1425  1  0.64860756  0.24028133  0.40880417  1.0
  Ge  Ge1426  1  0.64860756  0.57361467  0.40880417  1.0
  Ge  Ge1427  1  0.64860756  0.90694800  0.40880417  1.0
  Ge  Ge1428  1  0.98194089  0.24028133  0.40880417  1.0
  Ge  Ge1429  1  0.98194089  0.57361467  0.40880417  1.0
  Ge  Ge1430  1  0.98194089  0.90694800  0.40880417  1.0
  Ge  Ge1431  1  0.20416311  0.24028133  0.40880417  1.0
  Ge  Ge1432  1  0.20416311  0.57361467  0.40880417  1.0
  Ge  Ge1433  1  0.20416311  0.90694800  0.40880417  1.0
  Ge  Ge1434  1  0.53749644  0.24028133  0.40880417  1.0
  Ge  Ge1435  1  0.53749644  0.57361467  0.40880417  1.0
  Ge  Ge1436  1  0.53749644  0.90694800  0.40880417  1.0
  Ge  Ge1437  1  0.87082978  0.24028133  0.40880417  1.0
  Ge  Ge1438  1  0.87082978  0.57361467  0.40880417  1.0
  Ge  Ge1439  1  0.87082978  0.90694800  0.40880417  1.0
  Ge  Ge1440  1  0.03749644  0.07361467  0.35324861  1.0
  Ge  Ge1441  1  0.03749644  0.40694800  0.35324861  1.0
  Ge  Ge1442  1  0.03749644  0.74028133  0.35324861  1.0
  Ge  Ge1443  1  0.37082978  0.07361467  0.35324861  1.0
  Ge  Ge1444  1  0.37082978  0.40694800  0.35324861  1.0
  Ge  Ge1445  1  0.37082978  0.74028133  0.35324861  1.0
  Ge  Ge1446  1  0.70416311  0.07361467  0.35324861  1.0
  Ge  Ge1447  1  0.70416311  0.40694800  0.35324861  1.0
  Ge  Ge1448  1  0.70416311  0.74028133  0.35324861  1.0
  Ge  Ge1449  1  0.14860756  0.07361467  0.35324861  1.0
  Ge  Ge1450  1  0.14860756  0.40694800  0.35324861  1.0
  Ge  Ge1451  1  0.14860756  0.74028133  0.35324861  1.0
  Ge  Ge1452  1  0.48194089  0.07361467  0.35324861  1.0
  Ge  Ge1453  1  0.48194089  0.40694800  0.35324861  1.0
  Ge  Ge1454  1  0.48194089  0.74028133  0.35324861  1.0
  Ge  Ge1455  1  0.81527422  0.07361467  0.35324861  1.0
  Ge  Ge1456  1  0.81527422  0.40694800  0.35324861  1.0
  Ge  Ge1457  1  0.81527422  0.74028133  0.35324861  1.0
  Ge  Ge1458  1  0.33230400  0.00102933  0.40300294  1.0
  Ge  Ge1459  1  0.33230400  0.33436267  0.40300294  1.0
  Ge  Ge1460  1  0.33230400  0.66769600  0.40300294  1.0
  Ge  Ge1461  1  0.66563733  0.00102933  0.40300294  1.0
  Ge  Ge1462  1  0.66563733  0.33436267  0.40300294  1.0
  Ge  Ge1463  1  0.66563733  0.66769600  0.40300294  1.0
  Ge  Ge1464  1  0.99897067  0.00102933  0.40300294  1.0
  Ge  Ge1465  1  0.99897067  0.33436267  0.40300294  1.0
  Ge  Ge1466  1  0.99897067  0.66769600  0.40300294  1.0
  Ge  Ge1467  1  0.11045567  0.00102933  0.40300294  1.0
  Ge  Ge1468  1  0.11045567  0.33436267  0.40300294  1.0
  Ge  Ge1469  1  0.11045567  0.66769600  0.40300294  1.0
  Ge  Ge1470  1  0.44378900  0.00102933  0.40300294  1.0
  Ge  Ge1471  1  0.44378900  0.33436267  0.40300294  1.0
  Ge  Ge1472  1  0.44378900  0.66769600  0.40300294  1.0
  Ge  Ge1473  1  0.77712233  0.00102933  0.40300294  1.0
  Ge  Ge1474  1  0.77712233  0.33436267  0.40300294  1.0
  Ge  Ge1475  1  0.77712233  0.66769600  0.40300294  1.0
  Ge  Ge1476  1  0.22081900  0.00102933  0.40337683  1.0
  Ge  Ge1477  1  0.22081900  0.33436267  0.40337683  1.0
  Ge  Ge1478  1  0.22081900  0.66769600  0.40337683  1.0
  Ge  Ge1479  1  0.55415233  0.00102933  0.40337683  1.0
  Ge  Ge1480  1  0.55415233  0.33436267  0.40337683  1.0
  Ge  Ge1481  1  0.55415233  0.66769600  0.40337683  1.0
  Ge  Ge1482  1  0.88748567  0.00102933  0.40337683  1.0
  Ge  Ge1483  1  0.88748567  0.33436267  0.40337683  1.0
  Ge  Ge1484  1  0.88748567  0.66769600  0.40337683  1.0
  Ge  Ge1485  1  0.16563733  0.16769600  0.42177072  1.0
  Ge  Ge1486  1  0.16563733  0.50102933  0.42177072  1.0
  Ge  Ge1487  1  0.16563733  0.83436267  0.42177072  1.0
  Ge  Ge1488  1  0.49897067  0.16769600  0.42177072  1.0
  Ge  Ge1489  1  0.49897067  0.50102933  0.42177072  1.0
  Ge  Ge1490  1  0.49897067  0.83436267  0.42177072  1.0
  Ge  Ge1491  1  0.83230400  0.16769600  0.42177072  1.0
  Ge  Ge1492  1  0.83230400  0.50102933  0.42177072  1.0
  Ge  Ge1493  1  0.83230400  0.83436267  0.42177072  1.0
  Ge  Ge1494  1  0.05415233  0.16769600  0.42177072  1.0
  Ge  Ge1495  1  0.05415233  0.50102933  0.42177072  1.0
  Ge  Ge1496  1  0.05415233  0.83436267  0.42177072  1.0
  Ge  Ge1497  1  0.38748567  0.16769600  0.42177072  1.0
  Ge  Ge1498  1  0.38748567  0.50102933  0.42177072  1.0
  Ge  Ge1499  1  0.38748567  0.83436267  0.42177072  1.0
  Ge  Ge1500  1  0.72081900  0.16769600  0.42177072  1.0
  Ge  Ge1501  1  0.72081900  0.50102933  0.42177072  1.0
  Ge  Ge1502  1  0.72081900  0.83436267  0.42177072  1.0
  Ge  Ge1503  1  0.27712233  0.16769600  0.42139683  1.0
  Ge  Ge1504  1  0.27712233  0.50102933  0.42139683  1.0
  Ge  Ge1505  1  0.27712233  0.83436267  0.42139683  1.0
  Ge  Ge1506  1  0.61045567  0.16769600  0.42139683  1.0
  Ge  Ge1507  1  0.61045567  0.50102933  0.42139683  1.0
  Ge  Ge1508  1  0.61045567  0.83436267  0.42139683  1.0
  Ge  Ge1509  1  0.94378900  0.16769600  0.42139683  1.0
  Ge  Ge1510  1  0.94378900  0.50102933  0.42139683  1.0
  Ge  Ge1511  1  0.94378900  0.83436267  0.42139683  1.0
