# generated using pymatgen
data_Ni5Ge3
_symmetry_space_group_name_H-M   'P 1'
_cell_length_a   20.23933142
_cell_length_b   45.30933650
_cell_length_c   27.67530064
_cell_angle_alpha   79.34274068
_cell_angle_beta   89.70329021
_cell_angle_gamma   89.69527409
_symmetry_Int_Tables_number   1
_chemical_formula_structural   Ni5Ge3
_chemical_formula_sum   'Ni540 Ge324'
_cell_volume   24940.75625265
_cell_formula_units_Z   108
loop_
 _symmetry_equiv_pos_site_id
 _symmetry_equiv_pos_as_xyz
  1  'x, y, z'
loop_
 _atom_site_type_symbol
 _atom_site_label
 _atom_site_symmetry_multiplicity
 _atom_site_fract_x
 _atom_site_fract_y
 _atom_site_fract_z
 _atom_site_occupancy
  Ge  Ge0  1  0.02428383  0.01549298  0.11181371  1.0
  Ge  Ge1  1  0.02428383  0.34882631  0.11181371  1.0
  Ge  Ge2  1  0.02428383  0.68215964  0.11181371  1.0
  Ge  Ge3  1  0.35761717  0.01549298  0.11181371  1.0
  Ge  Ge4  1  0.35761717  0.34882631  0.11181371  1.0
  Ge  Ge5  1  0.35761717  0.68215964  0.11181371  1.0
  Ge  Ge6  1  0.69095050  0.01549298  0.11181371  1.0
  Ge  Ge7  1  0.69095050  0.34882631  0.11181371  1.0
  Ge  Ge8  1  0.69095050  0.68215964  0.11181371  1.0
  Ge  Ge9  1  0.19095050  0.13454060  0.04038514  1.0
  Ge  Ge10  1  0.19095050  0.46787393  0.04038514  1.0
  Ge  Ge11  1  0.19095050  0.80120726  0.04038514  1.0
  Ge  Ge12  1  0.52428383  0.13454060  0.04038514  1.0
  Ge  Ge13  1  0.52428383  0.46787393  0.04038514  1.0
  Ge  Ge14  1  0.52428383  0.80120726  0.04038514  1.0
  Ge  Ge15  1  0.85761717  0.13454060  0.04038514  1.0
  Ge  Ge16  1  0.85761717  0.46787393  0.04038514  1.0
  Ge  Ge17  1  0.85761717  0.80120726  0.04038514  1.0
  Ge  Ge18  1  0.30904950  0.07998331  0.03140071  1.0
  Ge  Ge19  1  0.30904950  0.41331664  0.03140071  1.0
  Ge  Ge20  1  0.30904950  0.74664998  0.03140071  1.0
  Ge  Ge21  1  0.64238283  0.07998331  0.03140071  1.0
  Ge  Ge22  1  0.64238283  0.41331664  0.03140071  1.0
  Ge  Ge23  1  0.64238283  0.74664998  0.03140071  1.0
  Ge  Ge24  1  0.97571617  0.07998331  0.03140071  1.0
  Ge  Ge25  1  0.97571617  0.41331664  0.03140071  1.0
  Ge  Ge26  1  0.97571617  0.74664998  0.03140071  1.0
  Ge  Ge27  1  0.14238283  0.29426902  0.10282929  1.0
  Ge  Ge28  1  0.14238283  0.62760236  0.10282929  1.0
  Ge  Ge29  1  0.14238283  0.96093569  0.10282929  1.0
  Ge  Ge30  1  0.47571617  0.29426902  0.10282929  1.0
  Ge  Ge31  1  0.47571617  0.62760236  0.10282929  1.0
  Ge  Ge32  1  0.47571617  0.96093569  0.10282929  1.0
  Ge  Ge33  1  0.80904950  0.29426902  0.10282929  1.0
  Ge  Ge34  1  0.80904950  0.62760236  0.10282929  1.0
  Ge  Ge35  1  0.80904950  0.96093569  0.10282929  1.0
  Ge  Ge36  1  0.02156767  0.23914190  0.09969436  1.0
  Ge  Ge37  1  0.02156767  0.57247524  0.09969436  1.0
  Ge  Ge38  1  0.02156767  0.90580857  0.09969436  1.0
  Ge  Ge39  1  0.35490100  0.23914190  0.09969436  1.0
  Ge  Ge40  1  0.35490100  0.57247524  0.09969436  1.0
  Ge  Ge41  1  0.35490100  0.90580857  0.09969436  1.0
  Ge  Ge42  1  0.68823433  0.23914190  0.09969436  1.0
  Ge  Ge43  1  0.68823433  0.57247524  0.09969436  1.0
  Ge  Ge44  1  0.68823433  0.90580857  0.09969436  1.0
  Ge  Ge45  1  0.18823433  0.02485619  0.02826579  1.0
  Ge  Ge46  1  0.18823433  0.35818952  0.02826579  1.0
  Ge  Ge47  1  0.18823433  0.69152286  0.02826579  1.0
  Ge  Ge48  1  0.52156767  0.02485619  0.02826579  1.0
  Ge  Ge49  1  0.52156767  0.35818952  0.02826579  1.0
  Ge  Ge50  1  0.52156767  0.69152286  0.02826579  1.0
  Ge  Ge51  1  0.85490100  0.02485619  0.02826579  1.0
  Ge  Ge52  1  0.85490100  0.35818952  0.02826579  1.0
  Ge  Ge53  1  0.85490100  0.69152286  0.02826579  1.0
  Ge  Ge54  1  0.03978117  0.12700326  0.10750014  1.0
  Ge  Ge55  1  0.03978117  0.46033660  0.10750014  1.0
  Ge  Ge56  1  0.03978117  0.79366993  0.10750014  1.0
  Ge  Ge57  1  0.37311450  0.12700326  0.10750014  1.0
  Ge  Ge58  1  0.37311450  0.46033660  0.10750014  1.0
  Ge  Ge59  1  0.37311450  0.79366993  0.10750014  1.0
  Ge  Ge60  1  0.70644783  0.12700326  0.10750014  1.0
  Ge  Ge61  1  0.70644783  0.46033660  0.10750014  1.0
  Ge  Ge62  1  0.70644783  0.79366993  0.10750014  1.0
  Ge  Ge63  1  0.20644783  0.24605088  0.03607157  1.0
  Ge  Ge64  1  0.20644783  0.57938421  0.03607157  1.0
  Ge  Ge65  1  0.20644783  0.91271755  0.03607157  1.0
  Ge  Ge66  1  0.53978117  0.24605088  0.03607157  1.0
  Ge  Ge67  1  0.53978117  0.57938421  0.03607157  1.0
  Ge  Ge68  1  0.53978117  0.91271755  0.03607157  1.0
  Ge  Ge69  1  0.87311450  0.24605088  0.03607157  1.0
  Ge  Ge70  1  0.87311450  0.57938421  0.03607157  1.0
  Ge  Ge71  1  0.87311450  0.91271755  0.03607157  1.0
  Ge  Ge72  1  0.31176567  0.18966771  0.04352007  1.0
  Ge  Ge73  1  0.31176567  0.52300105  0.04352007  1.0
  Ge  Ge74  1  0.31176567  0.85633438  0.04352007  1.0
  Ge  Ge75  1  0.64509900  0.18966771  0.04352007  1.0
  Ge  Ge76  1  0.64509900  0.52300105  0.04352007  1.0
  Ge  Ge77  1  0.64509900  0.85633438  0.04352007  1.0
  Ge  Ge78  1  0.97843233  0.18966771  0.04352007  1.0
  Ge  Ge79  1  0.97843233  0.52300105  0.04352007  1.0
  Ge  Ge80  1  0.97843233  0.85633438  0.04352007  1.0
  Ge  Ge81  1  0.14509900  0.07062010  0.11494864  1.0
  Ge  Ge82  1  0.14509900  0.40395343  0.11494864  1.0
  Ge  Ge83  1  0.14509900  0.73728676  0.11494864  1.0
  Ge  Ge84  1  0.47843233  0.07062010  0.11494864  1.0
  Ge  Ge85  1  0.47843233  0.40395343  0.11494864  1.0
  Ge  Ge86  1  0.47843233  0.73728676  0.11494864  1.0
  Ge  Ge87  1  0.81176567  0.07062010  0.11494864  1.0
  Ge  Ge88  1  0.81176567  0.40395343  0.11494864  1.0
  Ge  Ge89  1  0.81176567  0.73728676  0.11494864  1.0
  Ge  Ge90  1  0.29355217  0.30180636  0.03571429  1.0
  Ge  Ge91  1  0.29355217  0.63513969  0.03571429  1.0
  Ge  Ge92  1  0.29355217  0.96847302  0.03571429  1.0
  Ge  Ge93  1  0.62688550  0.30180636  0.03571429  1.0
  Ge  Ge94  1  0.62688550  0.63513969  0.03571429  1.0
  Ge  Ge95  1  0.62688550  0.96847302  0.03571429  1.0
  Ge  Ge96  1  0.96021883  0.30180636  0.03571429  1.0
  Ge  Ge97  1  0.96021883  0.63513969  0.03571429  1.0
  Ge  Ge98  1  0.96021883  0.96847302  0.03571429  1.0
  Ge  Ge99  1  0.12688550  0.18275874  0.10714286  1.0
  Ge  Ge100  1  0.12688550  0.51609207  0.10714286  1.0
  Ge  Ge101  1  0.12688550  0.84942540  0.10714286  1.0
  Ge  Ge102  1  0.46021883  0.18275874  0.10714286  1.0
  Ge  Ge103  1  0.46021883  0.51609207  0.10714286  1.0
  Ge  Ge104  1  0.46021883  0.84942540  0.10714286  1.0
  Ge  Ge105  1  0.79355217  0.18275874  0.10714286  1.0
  Ge  Ge106  1  0.79355217  0.51609207  0.10714286  1.0
  Ge  Ge107  1  0.79355217  0.84942540  0.10714286  1.0
  Ge  Ge108  1  0.02428383  0.11073107  0.25467086  1.0
  Ge  Ge109  1  0.02428383  0.44406440  0.25467086  1.0
  Ge  Ge110  1  0.02428383  0.77739774  0.25467086  1.0
  Ge  Ge111  1  0.35761717  0.11073107  0.25467086  1.0
  Ge  Ge112  1  0.35761717  0.44406440  0.25467086  1.0
  Ge  Ge113  1  0.35761717  0.77739774  0.25467086  1.0
  Ge  Ge114  1  0.69095050  0.11073107  0.25467086  1.0
  Ge  Ge115  1  0.69095050  0.44406440  0.25467086  1.0
  Ge  Ge116  1  0.69095050  0.77739774  0.25467086  1.0
  Ge  Ge117  1  0.19095050  0.22977869  0.18324229  1.0
  Ge  Ge118  1  0.19095050  0.56311202  0.18324229  1.0
  Ge  Ge119  1  0.19095050  0.89644536  0.18324229  1.0
  Ge  Ge120  1  0.52428383  0.22977869  0.18324229  1.0
  Ge  Ge121  1  0.52428383  0.56311202  0.18324229  1.0
  Ge  Ge122  1  0.52428383  0.89644536  0.18324229  1.0
  Ge  Ge123  1  0.85761717  0.22977869  0.18324229  1.0
  Ge  Ge124  1  0.85761717  0.56311202  0.18324229  1.0
  Ge  Ge125  1  0.85761717  0.89644536  0.18324229  1.0
  Ge  Ge126  1  0.30904950  0.17522140  0.17425786  1.0
  Ge  Ge127  1  0.30904950  0.50855474  0.17425786  1.0
  Ge  Ge128  1  0.30904950  0.84188807  0.17425786  1.0
  Ge  Ge129  1  0.64238283  0.17522140  0.17425786  1.0
  Ge  Ge130  1  0.64238283  0.50855474  0.17425786  1.0
  Ge  Ge131  1  0.64238283  0.84188807  0.17425786  1.0
  Ge  Ge132  1  0.97571617  0.17522140  0.17425786  1.0
  Ge  Ge133  1  0.97571617  0.50855474  0.17425786  1.0
  Ge  Ge134  1  0.97571617  0.84188807  0.17425786  1.0
  Ge  Ge135  1  0.14238283  0.05617379  0.24568643  1.0
  Ge  Ge136  1  0.14238283  0.38950712  0.24568643  1.0
  Ge  Ge137  1  0.14238283  0.72284045  0.24568643  1.0
  Ge  Ge138  1  0.47571617  0.05617379  0.24568643  1.0
  Ge  Ge139  1  0.47571617  0.38950712  0.24568643  1.0
  Ge  Ge140  1  0.47571617  0.72284045  0.24568643  1.0
  Ge  Ge141  1  0.80904950  0.05617379  0.24568643  1.0
  Ge  Ge142  1  0.80904950  0.38950712  0.24568643  1.0
  Ge  Ge143  1  0.80904950  0.72284045  0.24568643  1.0
  Ge  Ge144  1  0.02156767  0.00104667  0.24255150  1.0
  Ge  Ge145  1  0.02156767  0.33438000  0.24255150  1.0
  Ge  Ge146  1  0.02156767  0.66771333  0.24255150  1.0
  Ge  Ge147  1  0.35490100  0.00104667  0.24255150  1.0
  Ge  Ge148  1  0.35490100  0.33438000  0.24255150  1.0
  Ge  Ge149  1  0.35490100  0.66771333  0.24255150  1.0
  Ge  Ge150  1  0.68823433  0.00104667  0.24255150  1.0
  Ge  Ge151  1  0.68823433  0.33438000  0.24255150  1.0
  Ge  Ge152  1  0.68823433  0.66771333  0.24255150  1.0
  Ge  Ge153  1  0.18823433  0.12009429  0.17112293  1.0
  Ge  Ge154  1  0.18823433  0.45342762  0.17112293  1.0
  Ge  Ge155  1  0.18823433  0.78676095  0.17112293  1.0
  Ge  Ge156  1  0.52156767  0.12009429  0.17112293  1.0
  Ge  Ge157  1  0.52156767  0.45342762  0.17112293  1.0
  Ge  Ge158  1  0.52156767  0.78676095  0.17112293  1.0
  Ge  Ge159  1  0.85490100  0.12009429  0.17112293  1.0
  Ge  Ge160  1  0.85490100  0.45342762  0.17112293  1.0
  Ge  Ge161  1  0.85490100  0.78676095  0.17112293  1.0
  Ge  Ge162  1  0.03978117  0.22224136  0.25035729  1.0
  Ge  Ge163  1  0.03978117  0.55557469  0.25035729  1.0
  Ge  Ge164  1  0.03978117  0.88890802  0.25035729  1.0
  Ge  Ge165  1  0.37311450  0.22224136  0.25035729  1.0
  Ge  Ge166  1  0.37311450  0.55557469  0.25035729  1.0
  Ge  Ge167  1  0.37311450  0.88890802  0.25035729  1.0
  Ge  Ge168  1  0.70644783  0.22224136  0.25035729  1.0
  Ge  Ge169  1  0.70644783  0.55557469  0.25035729  1.0
  Ge  Ge170  1  0.70644783  0.88890802  0.25035729  1.0
  Ge  Ge171  1  0.20644783  0.00795564  0.17892871  1.0
  Ge  Ge172  1  0.20644783  0.34128898  0.17892871  1.0
  Ge  Ge173  1  0.20644783  0.67462231  0.17892871  1.0
  Ge  Ge174  1  0.53978117  0.00795564  0.17892871  1.0
  Ge  Ge175  1  0.53978117  0.34128898  0.17892871  1.0
  Ge  Ge176  1  0.53978117  0.67462231  0.17892871  1.0
  Ge  Ge177  1  0.87311450  0.00795564  0.17892871  1.0
  Ge  Ge178  1  0.87311450  0.34128898  0.17892871  1.0
  Ge  Ge179  1  0.87311450  0.67462231  0.17892871  1.0
  Ge  Ge180  1  0.31176567  0.28490581  0.18637721  1.0
  Ge  Ge181  1  0.31176567  0.61823914  0.18637721  1.0
  Ge  Ge182  1  0.31176567  0.95157248  0.18637721  1.0
  Ge  Ge183  1  0.64509900  0.28490581  0.18637721  1.0
  Ge  Ge184  1  0.64509900  0.61823914  0.18637721  1.0
  Ge  Ge185  1  0.64509900  0.95157248  0.18637721  1.0
  Ge  Ge186  1  0.97843233  0.28490581  0.18637721  1.0
  Ge  Ge187  1  0.97843233  0.61823914  0.18637721  1.0
  Ge  Ge188  1  0.97843233  0.95157248  0.18637721  1.0
  Ge  Ge189  1  0.14509900  0.16585819  0.25780579  1.0
  Ge  Ge190  1  0.14509900  0.49919152  0.25780579  1.0
  Ge  Ge191  1  0.14509900  0.83252486  0.25780579  1.0
  Ge  Ge192  1  0.47843233  0.16585819  0.25780579  1.0
  Ge  Ge193  1  0.47843233  0.49919152  0.25780579  1.0
  Ge  Ge194  1  0.47843233  0.83252486  0.25780579  1.0
  Ge  Ge195  1  0.81176567  0.16585819  0.25780579  1.0
  Ge  Ge196  1  0.81176567  0.49919152  0.25780579  1.0
  Ge  Ge197  1  0.81176567  0.83252486  0.25780579  1.0
  Ge  Ge198  1  0.29355217  0.06371112  0.17857143  1.0
  Ge  Ge199  1  0.29355217  0.39704445  0.17857143  1.0
  Ge  Ge200  1  0.29355217  0.73037779  0.17857143  1.0
  Ge  Ge201  1  0.62688550  0.06371112  0.17857143  1.0
  Ge  Ge202  1  0.62688550  0.39704445  0.17857143  1.0
  Ge  Ge203  1  0.62688550  0.73037779  0.17857143  1.0
  Ge  Ge204  1  0.96021883  0.06371112  0.17857143  1.0
  Ge  Ge205  1  0.96021883  0.39704445  0.17857143  1.0
  Ge  Ge206  1  0.96021883  0.73037779  0.17857143  1.0
  Ge  Ge207  1  0.12688550  0.27799683  0.25000000  1.0
  Ge  Ge208  1  0.12688550  0.61133017  0.25000000  1.0
  Ge  Ge209  1  0.12688550  0.94466350  0.25000000  1.0
  Ge  Ge210  1  0.46021883  0.27799683  0.25000000  1.0
  Ge  Ge211  1  0.46021883  0.61133017  0.25000000  1.0
  Ge  Ge212  1  0.46021883  0.94466350  0.25000000  1.0
  Ge  Ge213  1  0.79355217  0.27799683  0.25000000  1.0
  Ge  Ge214  1  0.79355217  0.61133017  0.25000000  1.0
  Ge  Ge215  1  0.79355217  0.94466350  0.25000000  1.0
  Ge  Ge216  1  0.02428383  0.20596917  0.39752800  1.0
  Ge  Ge217  1  0.02428383  0.53930250  0.39752800  1.0
  Ge  Ge218  1  0.02428383  0.87263583  0.39752800  1.0
  Ge  Ge219  1  0.35761717  0.20596917  0.39752800  1.0
  Ge  Ge220  1  0.35761717  0.53930250  0.39752800  1.0
  Ge  Ge221  1  0.35761717  0.87263583  0.39752800  1.0
  Ge  Ge222  1  0.69095050  0.20596917  0.39752800  1.0
  Ge  Ge223  1  0.69095050  0.53930250  0.39752800  1.0
  Ge  Ge224  1  0.69095050  0.87263583  0.39752800  1.0
  Ge  Ge225  1  0.19095050  0.32501679  0.32609943  1.0
  Ge  Ge226  1  0.19095050  0.65835012  0.32609943  1.0
  Ge  Ge227  1  0.19095050  0.99168345  0.32609943  1.0
  Ge  Ge228  1  0.52428383  0.32501679  0.32609943  1.0
  Ge  Ge229  1  0.52428383  0.65835012  0.32609943  1.0
  Ge  Ge230  1  0.52428383  0.99168345  0.32609943  1.0
  Ge  Ge231  1  0.85761717  0.32501679  0.32609943  1.0
  Ge  Ge232  1  0.85761717  0.65835012  0.32609943  1.0
  Ge  Ge233  1  0.85761717  0.99168345  0.32609943  1.0
  Ge  Ge234  1  0.30904950  0.27045950  0.31711500  1.0
  Ge  Ge235  1  0.30904950  0.60379283  0.31711500  1.0
  Ge  Ge236  1  0.30904950  0.93712617  0.31711500  1.0
  Ge  Ge237  1  0.64238283  0.27045950  0.31711500  1.0
  Ge  Ge238  1  0.64238283  0.60379283  0.31711500  1.0
  Ge  Ge239  1  0.64238283  0.93712617  0.31711500  1.0
  Ge  Ge240  1  0.97571617  0.27045950  0.31711500  1.0
  Ge  Ge241  1  0.97571617  0.60379283  0.31711500  1.0
  Ge  Ge242  1  0.97571617  0.93712617  0.31711500  1.0
  Ge  Ge243  1  0.14238283  0.15141188  0.38854357  1.0
  Ge  Ge244  1  0.14238283  0.48474521  0.38854357  1.0
  Ge  Ge245  1  0.14238283  0.81807855  0.38854357  1.0
  Ge  Ge246  1  0.47571617  0.15141188  0.38854357  1.0
  Ge  Ge247  1  0.47571617  0.48474521  0.38854357  1.0
  Ge  Ge248  1  0.47571617  0.81807855  0.38854357  1.0
  Ge  Ge249  1  0.80904950  0.15141188  0.38854357  1.0
  Ge  Ge250  1  0.80904950  0.48474521  0.38854357  1.0
  Ge  Ge251  1  0.80904950  0.81807855  0.38854357  1.0
  Ge  Ge252  1  0.02156767  0.09628476  0.38540864  1.0
  Ge  Ge253  1  0.02156767  0.42961810  0.38540864  1.0
  Ge  Ge254  1  0.02156767  0.76295143  0.38540864  1.0
  Ge  Ge255  1  0.35490100  0.09628476  0.38540864  1.0
  Ge  Ge256  1  0.35490100  0.42961810  0.38540864  1.0
  Ge  Ge257  1  0.35490100  0.76295143  0.38540864  1.0
  Ge  Ge258  1  0.68823433  0.09628476  0.38540864  1.0
  Ge  Ge259  1  0.68823433  0.42961810  0.38540864  1.0
  Ge  Ge260  1  0.68823433  0.76295143  0.38540864  1.0
  Ge  Ge261  1  0.18823433  0.21533238  0.31398007  1.0
  Ge  Ge262  1  0.18823433  0.54866571  0.31398007  1.0
  Ge  Ge263  1  0.18823433  0.88199905  0.31398007  1.0
  Ge  Ge264  1  0.52156767  0.21533238  0.31398007  1.0
  Ge  Ge265  1  0.52156767  0.54866571  0.31398007  1.0
  Ge  Ge266  1  0.52156767  0.88199905  0.31398007  1.0
  Ge  Ge267  1  0.85490100  0.21533238  0.31398007  1.0
  Ge  Ge268  1  0.85490100  0.54866571  0.31398007  1.0
  Ge  Ge269  1  0.85490100  0.88199905  0.31398007  1.0
  Ge  Ge270  1  0.03978117  0.31747945  0.39321443  1.0
  Ge  Ge271  1  0.03978117  0.65081279  0.39321443  1.0
  Ge  Ge272  1  0.03978117  0.98414612  0.39321443  1.0
  Ge  Ge273  1  0.37311450  0.31747945  0.39321443  1.0
  Ge  Ge274  1  0.37311450  0.65081279  0.39321443  1.0
  Ge  Ge275  1  0.37311450  0.98414612  0.39321443  1.0
  Ge  Ge276  1  0.70644783  0.31747945  0.39321443  1.0
  Ge  Ge277  1  0.70644783  0.65081279  0.39321443  1.0
  Ge  Ge278  1  0.70644783  0.98414612  0.39321443  1.0
  Ge  Ge279  1  0.20644783  0.10319374  0.32178586  1.0
  Ge  Ge280  1  0.20644783  0.43652707  0.32178586  1.0
  Ge  Ge281  1  0.20644783  0.76986040  0.32178586  1.0
  Ge  Ge282  1  0.53978117  0.10319374  0.32178586  1.0
  Ge  Ge283  1  0.53978117  0.43652707  0.32178586  1.0
  Ge  Ge284  1  0.53978117  0.76986040  0.32178586  1.0
  Ge  Ge285  1  0.87311450  0.10319374  0.32178586  1.0
  Ge  Ge286  1  0.87311450  0.43652707  0.32178586  1.0
  Ge  Ge287  1  0.87311450  0.76986040  0.32178586  1.0
  Ge  Ge288  1  0.31176567  0.04681057  0.32923436  1.0
  Ge  Ge289  1  0.31176567  0.38014390  0.32923436  1.0
  Ge  Ge290  1  0.31176567  0.71347724  0.32923436  1.0
  Ge  Ge291  1  0.64509900  0.04681057  0.32923436  1.0
  Ge  Ge292  1  0.64509900  0.38014390  0.32923436  1.0
  Ge  Ge293  1  0.64509900  0.71347724  0.32923436  1.0
  Ge  Ge294  1  0.97843233  0.04681057  0.32923436  1.0
  Ge  Ge295  1  0.97843233  0.38014390  0.32923436  1.0
  Ge  Ge296  1  0.97843233  0.71347724  0.32923436  1.0
  Ge  Ge297  1  0.14509900  0.26109629  0.40066293  1.0
  Ge  Ge298  1  0.14509900  0.59442962  0.40066293  1.0
  Ge  Ge299  1  0.14509900  0.92776295  0.40066293  1.0
  Ge  Ge300  1  0.47843233  0.26109629  0.40066293  1.0
  Ge  Ge301  1  0.47843233  0.59442962  0.40066293  1.0
  Ge  Ge302  1  0.47843233  0.92776295  0.40066293  1.0
  Ge  Ge303  1  0.81176567  0.26109629  0.40066293  1.0
  Ge  Ge304  1  0.81176567  0.59442962  0.40066293  1.0
  Ge  Ge305  1  0.81176567  0.92776295  0.40066293  1.0
  Ge  Ge306  1  0.29355217  0.15894921  0.32142857  1.0
  Ge  Ge307  1  0.29355217  0.49228255  0.32142857  1.0
  Ge  Ge308  1  0.29355217  0.82561588  0.32142857  1.0
  Ge  Ge309  1  0.62688550  0.15894921  0.32142857  1.0
  Ge  Ge310  1  0.62688550  0.49228255  0.32142857  1.0
  Ge  Ge311  1  0.62688550  0.82561588  0.32142857  1.0
  Ge  Ge312  1  0.96021883  0.15894921  0.32142857  1.0
  Ge  Ge313  1  0.96021883  0.49228255  0.32142857  1.0
  Ge  Ge314  1  0.96021883  0.82561588  0.32142857  1.0
  Ge  Ge315  1  0.12688550  0.03990160  0.39285714  1.0
  Ge  Ge316  1  0.12688550  0.37323493  0.39285714  1.0
  Ge  Ge317  1  0.12688550  0.70656826  0.39285714  1.0
  Ge  Ge318  1  0.46021883  0.03990160  0.39285714  1.0
  Ge  Ge319  1  0.46021883  0.37323493  0.39285714  1.0
  Ge  Ge320  1  0.46021883  0.70656826  0.39285714  1.0
  Ge  Ge321  1  0.79355217  0.03990160  0.39285714  1.0
  Ge  Ge322  1  0.79355217  0.37323493  0.39285714  1.0
  Ge  Ge323  1  0.79355217  0.70656826  0.39285714  1.0
  Ni  Ni324  1  0.08766267  0.16239081  0.03949721  1.0
  Ni  Ni325  1  0.08766267  0.49572414  0.03949721  1.0
  Ni  Ni326  1  0.08766267  0.82905748  0.03949721  1.0
  Ni  Ni327  1  0.42099600  0.16239081  0.03949721  1.0
  Ni  Ni328  1  0.42099600  0.49572414  0.03949721  1.0
  Ni  Ni329  1  0.42099600  0.82905748  0.03949721  1.0
  Ni  Ni330  1  0.75432933  0.16239081  0.03949721  1.0
  Ni  Ni331  1  0.75432933  0.49572414  0.03949721  1.0
  Ni  Ni332  1  0.75432933  0.82905748  0.03949721  1.0
  Ni  Ni333  1  0.25432933  0.04334319  0.11092579  1.0
  Ni  Ni334  1  0.25432933  0.37667652  0.11092579  1.0
  Ni  Ni335  1  0.25432933  0.71000986  0.11092579  1.0
  Ni  Ni336  1  0.58766267  0.04334319  0.11092579  1.0
  Ni  Ni337  1  0.58766267  0.37667652  0.11092579  1.0
  Ni  Ni338  1  0.58766267  0.71000986  0.11092579  1.0
  Ni  Ni339  1  0.92099600  0.04334319  0.11092579  1.0
  Ni  Ni340  1  0.92099600  0.37667652  0.11092579  1.0
  Ni  Ni341  1  0.92099600  0.71000986  0.11092579  1.0
  Ni  Ni342  1  0.07696367  0.21850829  0.03491193  1.0
  Ni  Ni343  1  0.07696367  0.55184162  0.03491193  1.0
  Ni  Ni344  1  0.07696367  0.88517495  0.03491193  1.0
  Ni  Ni345  1  0.41029700  0.21850829  0.03491193  1.0
  Ni  Ni346  1  0.41029700  0.55184162  0.03491193  1.0
  Ni  Ni347  1  0.41029700  0.88517495  0.03491193  1.0
  Ni  Ni348  1  0.74363033  0.21850829  0.03491193  1.0
  Ni  Ni349  1  0.74363033  0.55184162  0.03491193  1.0
  Ni  Ni350  1  0.74363033  0.88517495  0.03491193  1.0
  Ni  Ni351  1  0.24363033  0.09946067  0.10634050  1.0
  Ni  Ni352  1  0.24363033  0.43279400  0.10634050  1.0
  Ni  Ni353  1  0.24363033  0.76612733  0.10634050  1.0
  Ni  Ni354  1  0.57696367  0.09946067  0.10634050  1.0
  Ni  Ni355  1  0.57696367  0.43279400  0.10634050  1.0
  Ni  Ni356  1  0.57696367  0.76612733  0.10634050  1.0
  Ni  Ni357  1  0.91029700  0.09946067  0.10634050  1.0
  Ni  Ni358  1  0.91029700  0.43279400  0.10634050  1.0
  Ni  Ni359  1  0.91029700  0.76612733  0.10634050  1.0
  Ni  Ni360  1  0.24567067  0.26641881  0.10371721  1.0
  Ni  Ni361  1  0.24567067  0.59975214  0.10371721  1.0
  Ni  Ni362  1  0.24567067  0.93308548  0.10371721  1.0
  Ni  Ni363  1  0.57900400  0.26641881  0.10371721  1.0
  Ni  Ni364  1  0.57900400  0.59975214  0.10371721  1.0
  Ni  Ni365  1  0.57900400  0.93308548  0.10371721  1.0
  Ni  Ni366  1  0.91233733  0.26641881  0.10371721  1.0
  Ni  Ni367  1  0.91233733  0.59975214  0.10371721  1.0
  Ni  Ni368  1  0.91233733  0.93308548  0.10371721  1.0
  Ni  Ni369  1  0.07900400  0.05213310  0.03228864  1.0
  Ni  Ni370  1  0.07900400  0.38546643  0.03228864  1.0
  Ni  Ni371  1  0.07900400  0.71879976  0.03228864  1.0
  Ni  Ni372  1  0.41233733  0.05213310  0.03228864  1.0
  Ni  Ni373  1  0.41233733  0.38546643  0.03228864  1.0
  Ni  Ni374  1  0.41233733  0.71879976  0.03228864  1.0
  Ni  Ni375  1  0.74567067  0.05213310  0.03228864  1.0
  Ni  Ni376  1  0.74567067  0.38546643  0.03228864  1.0
  Ni  Ni377  1  0.74567067  0.71879976  0.03228864  1.0
  Ni  Ni378  1  0.25636967  0.21030133  0.10830250  1.0
  Ni  Ni379  1  0.25636967  0.54363467  0.10830250  1.0
  Ni  Ni380  1  0.25636967  0.87696800  0.10830250  1.0
  Ni  Ni381  1  0.58970300  0.21030133  0.10830250  1.0
  Ni  Ni382  1  0.58970300  0.54363467  0.10830250  1.0
  Ni  Ni383  1  0.58970300  0.87696800  0.10830250  1.0
  Ni  Ni384  1  0.92303633  0.21030133  0.10830250  1.0
  Ni  Ni385  1  0.92303633  0.54363467  0.10830250  1.0
  Ni  Ni386  1  0.92303633  0.87696800  0.10830250  1.0
  Ni  Ni387  1  0.08970300  0.32934895  0.03687393  1.0
  Ni  Ni388  1  0.08970300  0.66268229  0.03687393  1.0
  Ni  Ni389  1  0.08970300  0.99601562  0.03687393  1.0
  Ni  Ni390  1  0.42303633  0.32934895  0.03687393  1.0
  Ni  Ni391  1  0.42303633  0.66268229  0.03687393  1.0
  Ni  Ni392  1  0.42303633  0.99601562  0.03687393  1.0
  Ni  Ni393  1  0.75636967  0.32934895  0.03687393  1.0
  Ni  Ni394  1  0.75636967  0.66268229  0.03687393  1.0
  Ni  Ni395  1  0.75636967  0.99601562  0.03687393  1.0
  Ni  Ni396  1  0.08333333  0.27392862  0.03589293  1.0
  Ni  Ni397  1  0.08333333  0.60726195  0.03589293  1.0
  Ni  Ni398  1  0.08333333  0.94059529  0.03589293  1.0
  Ni  Ni399  1  0.41666667  0.27392862  0.03589293  1.0
  Ni  Ni400  1  0.41666667  0.60726195  0.03589293  1.0
  Ni  Ni401  1  0.41666667  0.94059529  0.03589293  1.0
  Ni  Ni402  1  0.75000000  0.27392862  0.03589293  1.0
  Ni  Ni403  1  0.75000000  0.60726195  0.03589293  1.0
  Ni  Ni404  1  0.75000000  0.94059529  0.03589293  1.0
  Ni  Ni405  1  0.25000000  0.15488100  0.10732150  1.0
  Ni  Ni406  1  0.25000000  0.48821433  0.10732150  1.0
  Ni  Ni407  1  0.25000000  0.82154767  0.10732150  1.0
  Ni  Ni408  1  0.58333333  0.15488100  0.10732150  1.0
  Ni  Ni409  1  0.58333333  0.48821433  0.10732150  1.0
  Ni  Ni410  1  0.58333333  0.82154767  0.10732150  1.0
  Ni  Ni411  1  0.91666667  0.15488100  0.10732150  1.0
  Ni  Ni412  1  0.91666667  0.48821433  0.10732150  1.0
  Ni  Ni413  1  0.91666667  0.82154767  0.10732150  1.0
  Ni  Ni414  1  0.25000000  0.32154767  0.10732150  1.0
  Ni  Ni415  1  0.25000000  0.65488100  0.10732150  1.0
  Ni  Ni416  1  0.25000000  0.98821433  0.10732150  1.0
  Ni  Ni417  1  0.58333333  0.32154767  0.10732150  1.0
  Ni  Ni418  1  0.58333333  0.65488100  0.10732150  1.0
  Ni  Ni419  1  0.58333333  0.98821433  0.10732150  1.0
  Ni  Ni420  1  0.91666667  0.32154767  0.10732150  1.0
  Ni  Ni421  1  0.91666667  0.65488100  0.10732150  1.0
  Ni  Ni422  1  0.91666667  0.98821433  0.10732150  1.0
  Ni  Ni423  1  0.08333333  0.10726195  0.03589293  1.0
  Ni  Ni424  1  0.08333333  0.44059529  0.03589293  1.0
  Ni  Ni425  1  0.08333333  0.77392862  0.03589293  1.0
  Ni  Ni426  1  0.41666667  0.10726195  0.03589293  1.0
  Ni  Ni427  1  0.41666667  0.44059529  0.03589293  1.0
  Ni  Ni428  1  0.41666667  0.77392862  0.03589293  1.0
  Ni  Ni429  1  0.75000000  0.10726195  0.03589293  1.0
  Ni  Ni430  1  0.75000000  0.44059529  0.03589293  1.0
  Ni  Ni431  1  0.75000000  0.77392862  0.03589293  1.0
  Ni  Ni432  1  0.02561967  0.29206967  0.10768350  1.0
  Ni  Ni433  1  0.02561967  0.62540300  0.10768350  1.0
  Ni  Ni434  1  0.02561967  0.95873633  0.10768350  1.0
  Ni  Ni435  1  0.35895300  0.29206967  0.10768350  1.0
  Ni  Ni436  1  0.35895300  0.62540300  0.10768350  1.0
  Ni  Ni437  1  0.35895300  0.95873633  0.10768350  1.0
  Ni  Ni438  1  0.69228633  0.29206967  0.10768350  1.0
  Ni  Ni439  1  0.69228633  0.62540300  0.10768350  1.0
  Ni  Ni440  1  0.69228633  0.95873633  0.10768350  1.0
  Ni  Ni441  1  0.19228633  0.07778395  0.03625493  1.0
  Ni  Ni442  1  0.19228633  0.41111729  0.03625493  1.0
  Ni  Ni443  1  0.19228633  0.74445062  0.03625493  1.0
  Ni  Ni444  1  0.52561967  0.07778395  0.03625493  1.0
  Ni  Ni445  1  0.52561967  0.41111729  0.03625493  1.0
  Ni  Ni446  1  0.52561967  0.74445062  0.03625493  1.0
  Ni  Ni447  1  0.85895300  0.07778395  0.03625493  1.0
  Ni  Ni448  1  0.85895300  0.41111729  0.03625493  1.0
  Ni  Ni449  1  0.85895300  0.74445062  0.03625493  1.0
  Ni  Ni450  1  0.19510117  0.19208102  0.03746129  1.0
  Ni  Ni451  1  0.19510117  0.52541436  0.03746129  1.0
  Ni  Ni452  1  0.19510117  0.85874769  0.03746129  1.0
  Ni  Ni453  1  0.52843450  0.19208102  0.03746129  1.0
  Ni  Ni454  1  0.52843450  0.52541436  0.03746129  1.0
  Ni  Ni455  1  0.52843450  0.85874769  0.03746129  1.0
  Ni  Ni456  1  0.86176783  0.19208102  0.03746129  1.0
  Ni  Ni457  1  0.86176783  0.52541436  0.03746129  1.0
  Ni  Ni458  1  0.86176783  0.85874769  0.03746129  1.0
  Ni  Ni459  1  0.02843450  0.07303340  0.10888986  1.0
  Ni  Ni460  1  0.02843450  0.40636674  0.10888986  1.0
  Ni  Ni461  1  0.02843450  0.73970007  0.10888986  1.0
  Ni  Ni462  1  0.36176783  0.07303340  0.10888986  1.0
  Ni  Ni463  1  0.36176783  0.40636674  0.10888986  1.0
  Ni  Ni464  1  0.36176783  0.73970007  0.10888986  1.0
  Ni  Ni465  1  0.69510117  0.07303340  0.10888986  1.0
  Ni  Ni466  1  0.69510117  0.40636674  0.10888986  1.0
  Ni  Ni467  1  0.69510117  0.73970007  0.10888986  1.0
  Ni  Ni468  1  0.30771367  0.13673995  0.03553093  1.0
  Ni  Ni469  1  0.30771367  0.47007329  0.03553093  1.0
  Ni  Ni470  1  0.30771367  0.80340662  0.03553093  1.0
  Ni  Ni471  1  0.64104700  0.13673995  0.03553093  1.0
  Ni  Ni472  1  0.64104700  0.47007329  0.03553093  1.0
  Ni  Ni473  1  0.64104700  0.80340662  0.03553093  1.0
  Ni  Ni474  1  0.97438033  0.13673995  0.03553093  1.0
  Ni  Ni475  1  0.97438033  0.47007329  0.03553093  1.0
  Ni  Ni476  1  0.97438033  0.80340662  0.03553093  1.0
  Ni  Ni477  1  0.14104700  0.01769233  0.10695950  1.0
  Ni  Ni478  1  0.14104700  0.35102567  0.10695950  1.0
  Ni  Ni479  1  0.14104700  0.68435900  0.10695950  1.0
  Ni  Ni480  1  0.47438033  0.01769233  0.10695950  1.0
  Ni  Ni481  1  0.47438033  0.35102567  0.10695950  1.0
  Ni  Ni482  1  0.47438033  0.68435900  0.10695950  1.0
  Ni  Ni483  1  0.80771367  0.01769233  0.10695950  1.0
  Ni  Ni484  1  0.80771367  0.35102567  0.10695950  1.0
  Ni  Ni485  1  0.80771367  0.68435900  0.10695950  1.0
  Ni  Ni486  1  0.13823217  0.23672860  0.10575314  1.0
  Ni  Ni487  1  0.13823217  0.57006193  0.10575314  1.0
  Ni  Ni488  1  0.13823217  0.90339526  0.10575314  1.0
  Ni  Ni489  1  0.47156550  0.23672860  0.10575314  1.0
  Ni  Ni490  1  0.47156550  0.57006193  0.10575314  1.0
  Ni  Ni491  1  0.47156550  0.90339526  0.10575314  1.0
  Ni  Ni492  1  0.80489883  0.23672860  0.10575314  1.0
  Ni  Ni493  1  0.80489883  0.57006193  0.10575314  1.0
  Ni  Ni494  1  0.80489883  0.90339526  0.10575314  1.0
  Ni  Ni495  1  0.30489883  0.02244288  0.03432457  1.0
  Ni  Ni496  1  0.30489883  0.35577621  0.03432457  1.0
  Ni  Ni497  1  0.30489883  0.68910955  0.03432457  1.0
  Ni  Ni498  1  0.63823217  0.02244288  0.03432457  1.0
  Ni  Ni499  1  0.63823217  0.35577621  0.03432457  1.0
  Ni  Ni500  1  0.63823217  0.68910955  0.03432457  1.0
  Ni  Ni501  1  0.97156550  0.02244288  0.03432457  1.0
  Ni  Ni502  1  0.97156550  0.35577621  0.03432457  1.0
  Ni  Ni503  1  0.97156550  0.68910955  0.03432457  1.0
  Ni  Ni504  1  0.08766267  0.25762890  0.18235436  1.0
  Ni  Ni505  1  0.08766267  0.59096224  0.18235436  1.0
  Ni  Ni506  1  0.08766267  0.92429557  0.18235436  1.0
  Ni  Ni507  1  0.42099600  0.25762890  0.18235436  1.0
  Ni  Ni508  1  0.42099600  0.59096224  0.18235436  1.0
  Ni  Ni509  1  0.42099600  0.92429557  0.18235436  1.0
  Ni  Ni510  1  0.75432933  0.25762890  0.18235436  1.0
  Ni  Ni511  1  0.75432933  0.59096224  0.18235436  1.0
  Ni  Ni512  1  0.75432933  0.92429557  0.18235436  1.0
  Ni  Ni513  1  0.25432933  0.13858129  0.25378293  1.0
  Ni  Ni514  1  0.25432933  0.47191462  0.25378293  1.0
  Ni  Ni515  1  0.25432933  0.80524795  0.25378293  1.0
  Ni  Ni516  1  0.58766267  0.13858129  0.25378293  1.0
  Ni  Ni517  1  0.58766267  0.47191462  0.25378293  1.0
  Ni  Ni518  1  0.58766267  0.80524795  0.25378293  1.0
  Ni  Ni519  1  0.92099600  0.13858129  0.25378293  1.0
  Ni  Ni520  1  0.92099600  0.47191462  0.25378293  1.0
  Ni  Ni521  1  0.92099600  0.80524795  0.25378293  1.0
  Ni  Ni522  1  0.07696367  0.31374638  0.17776907  1.0
  Ni  Ni523  1  0.07696367  0.64707971  0.17776907  1.0
  Ni  Ni524  1  0.07696367  0.98041305  0.17776907  1.0
  Ni  Ni525  1  0.41029700  0.31374638  0.17776907  1.0
  Ni  Ni526  1  0.41029700  0.64707971  0.17776907  1.0
  Ni  Ni527  1  0.41029700  0.98041305  0.17776907  1.0
  Ni  Ni528  1  0.74363033  0.31374638  0.17776907  1.0
  Ni  Ni529  1  0.74363033  0.64707971  0.17776907  1.0
  Ni  Ni530  1  0.74363033  0.98041305  0.17776907  1.0
  Ni  Ni531  1  0.24363033  0.19469876  0.24919764  1.0
  Ni  Ni532  1  0.24363033  0.52803210  0.24919764  1.0
  Ni  Ni533  1  0.24363033  0.86136543  0.24919764  1.0
  Ni  Ni534  1  0.57696367  0.19469876  0.24919764  1.0
  Ni  Ni535  1  0.57696367  0.52803210  0.24919764  1.0
  Ni  Ni536  1  0.57696367  0.86136543  0.24919764  1.0
  Ni  Ni537  1  0.91029700  0.19469876  0.24919764  1.0
  Ni  Ni538  1  0.91029700  0.52803210  0.24919764  1.0
  Ni  Ni539  1  0.91029700  0.86136543  0.24919764  1.0
  Ni  Ni540  1  0.24567067  0.02832357  0.24657436  1.0
  Ni  Ni541  1  0.24567067  0.36165690  0.24657436  1.0
  Ni  Ni542  1  0.24567067  0.69499024  0.24657436  1.0
  Ni  Ni543  1  0.57900400  0.02832357  0.24657436  1.0
  Ni  Ni544  1  0.57900400  0.36165690  0.24657436  1.0
  Ni  Ni545  1  0.57900400  0.69499024  0.24657436  1.0
  Ni  Ni546  1  0.91233733  0.02832357  0.24657436  1.0
  Ni  Ni547  1  0.91233733  0.36165690  0.24657436  1.0
  Ni  Ni548  1  0.91233733  0.69499024  0.24657436  1.0
  Ni  Ni549  1  0.07900400  0.14737119  0.17514579  1.0
  Ni  Ni550  1  0.07900400  0.48070452  0.17514579  1.0
  Ni  Ni551  1  0.07900400  0.81403786  0.17514579  1.0
  Ni  Ni552  1  0.41233733  0.14737119  0.17514579  1.0
  Ni  Ni553  1  0.41233733  0.48070452  0.17514579  1.0
  Ni  Ni554  1  0.41233733  0.81403786  0.17514579  1.0
  Ni  Ni555  1  0.74567067  0.14737119  0.17514579  1.0
  Ni  Ni556  1  0.74567067  0.48070452  0.17514579  1.0
  Ni  Ni557  1  0.74567067  0.81403786  0.17514579  1.0
  Ni  Ni558  1  0.25636967  0.30553943  0.25115964  1.0
  Ni  Ni559  1  0.25636967  0.63887276  0.25115964  1.0
  Ni  Ni560  1  0.25636967  0.97220610  0.25115964  1.0
  Ni  Ni561  1  0.58970300  0.30553943  0.25115964  1.0
  Ni  Ni562  1  0.58970300  0.63887276  0.25115964  1.0
  Ni  Ni563  1  0.58970300  0.97220610  0.25115964  1.0
  Ni  Ni564  1  0.92303633  0.30553943  0.25115964  1.0
  Ni  Ni565  1  0.92303633  0.63887276  0.25115964  1.0
  Ni  Ni566  1  0.92303633  0.97220610  0.25115964  1.0
  Ni  Ni567  1  0.08970300  0.09125371  0.17973107  1.0
  Ni  Ni568  1  0.08970300  0.42458705  0.17973107  1.0
  Ni  Ni569  1  0.08970300  0.75792038  0.17973107  1.0
  Ni  Ni570  1  0.42303633  0.09125371  0.17973107  1.0
  Ni  Ni571  1  0.42303633  0.42458705  0.17973107  1.0
  Ni  Ni572  1  0.42303633  0.75792038  0.17973107  1.0
  Ni  Ni573  1  0.75636967  0.09125371  0.17973107  1.0
  Ni  Ni574  1  0.75636967  0.42458705  0.17973107  1.0
  Ni  Ni575  1  0.75636967  0.75792038  0.17973107  1.0
  Ni  Ni576  1  0.08333333  0.03583338  0.17875007  1.0
  Ni  Ni577  1  0.08333333  0.36916671  0.17875007  1.0
  Ni  Ni578  1  0.08333333  0.70250005  0.17875007  1.0
  Ni  Ni579  1  0.41666667  0.03583338  0.17875007  1.0
  Ni  Ni580  1  0.41666667  0.36916671  0.17875007  1.0
  Ni  Ni581  1  0.41666667  0.70250005  0.17875007  1.0
  Ni  Ni582  1  0.75000000  0.03583338  0.17875007  1.0
  Ni  Ni583  1  0.75000000  0.36916671  0.17875007  1.0
  Ni  Ni584  1  0.75000000  0.70250005  0.17875007  1.0
  Ni  Ni585  1  0.25000000  0.25011910  0.25017864  1.0
  Ni  Ni586  1  0.25000000  0.58345243  0.25017864  1.0
  Ni  Ni587  1  0.25000000  0.91678576  0.25017864  1.0
  Ni  Ni588  1  0.58333333  0.25011910  0.25017864  1.0
  Ni  Ni589  1  0.58333333  0.58345243  0.25017864  1.0
  Ni  Ni590  1  0.58333333  0.91678576  0.25017864  1.0
  Ni  Ni591  1  0.91666667  0.25011910  0.25017864  1.0
  Ni  Ni592  1  0.91666667  0.58345243  0.25017864  1.0
  Ni  Ni593  1  0.91666667  0.91678576  0.25017864  1.0
  Ni  Ni594  1  0.25000000  0.08345243  0.25017864  1.0
  Ni  Ni595  1  0.25000000  0.41678576  0.25017864  1.0
  Ni  Ni596  1  0.25000000  0.75011910  0.25017864  1.0
  Ni  Ni597  1  0.58333333  0.08345243  0.25017864  1.0
  Ni  Ni598  1  0.58333333  0.41678576  0.25017864  1.0
  Ni  Ni599  1  0.58333333  0.75011910  0.25017864  1.0
  Ni  Ni600  1  0.91666667  0.08345243  0.25017864  1.0
  Ni  Ni601  1  0.91666667  0.41678576  0.25017864  1.0
  Ni  Ni602  1  0.91666667  0.75011910  0.25017864  1.0
  Ni  Ni603  1  0.08333333  0.20250005  0.17875007  1.0
  Ni  Ni604  1  0.08333333  0.53583338  0.17875007  1.0
  Ni  Ni605  1  0.08333333  0.86916671  0.17875007  1.0
  Ni  Ni606  1  0.41666667  0.20250005  0.17875007  1.0
  Ni  Ni607  1  0.41666667  0.53583338  0.17875007  1.0
  Ni  Ni608  1  0.41666667  0.86916671  0.17875007  1.0
  Ni  Ni609  1  0.75000000  0.20250005  0.17875007  1.0
  Ni  Ni610  1  0.75000000  0.53583338  0.17875007  1.0
  Ni  Ni611  1  0.75000000  0.86916671  0.17875007  1.0
  Ni  Ni612  1  0.02561967  0.05397443  0.25054064  1.0
  Ni  Ni613  1  0.02561967  0.38730776  0.25054064  1.0
  Ni  Ni614  1  0.02561967  0.72064110  0.25054064  1.0
  Ni  Ni615  1  0.35895300  0.05397443  0.25054064  1.0
  Ni  Ni616  1  0.35895300  0.38730776  0.25054064  1.0
  Ni  Ni617  1  0.35895300  0.72064110  0.25054064  1.0
  Ni  Ni618  1  0.69228633  0.05397443  0.25054064  1.0
  Ni  Ni619  1  0.69228633  0.38730776  0.25054064  1.0
  Ni  Ni620  1  0.69228633  0.72064110  0.25054064  1.0
  Ni  Ni621  1  0.19228633  0.17302205  0.17911207  1.0
  Ni  Ni622  1  0.19228633  0.50635538  0.17911207  1.0
  Ni  Ni623  1  0.19228633  0.83968871  0.17911207  1.0
  Ni  Ni624  1  0.52561967  0.17302205  0.17911207  1.0
  Ni  Ni625  1  0.52561967  0.50635538  0.17911207  1.0
  Ni  Ni626  1  0.52561967  0.83968871  0.17911207  1.0
  Ni  Ni627  1  0.85895300  0.17302205  0.17911207  1.0
  Ni  Ni628  1  0.85895300  0.50635538  0.17911207  1.0
  Ni  Ni629  1  0.85895300  0.83968871  0.17911207  1.0
  Ni  Ni630  1  0.19510117  0.28731912  0.18031843  1.0
  Ni  Ni631  1  0.19510117  0.62065245  0.18031843  1.0
  Ni  Ni632  1  0.19510117  0.95398579  0.18031843  1.0
  Ni  Ni633  1  0.52843450  0.28731912  0.18031843  1.0
  Ni  Ni634  1  0.52843450  0.62065245  0.18031843  1.0
  Ni  Ni635  1  0.52843450  0.95398579  0.18031843  1.0
  Ni  Ni636  1  0.86176783  0.28731912  0.18031843  1.0
  Ni  Ni637  1  0.86176783  0.62065245  0.18031843  1.0
  Ni  Ni638  1  0.86176783  0.95398579  0.18031843  1.0
  Ni  Ni639  1  0.02843450  0.16827150  0.25174700  1.0
  Ni  Ni640  1  0.02843450  0.50160483  0.25174700  1.0
  Ni  Ni641  1  0.02843450  0.83493817  0.25174700  1.0
  Ni  Ni642  1  0.36176783  0.16827150  0.25174700  1.0
  Ni  Ni643  1  0.36176783  0.50160483  0.25174700  1.0
  Ni  Ni644  1  0.36176783  0.83493817  0.25174700  1.0
  Ni  Ni645  1  0.69510117  0.16827150  0.25174700  1.0
  Ni  Ni646  1  0.69510117  0.50160483  0.25174700  1.0
  Ni  Ni647  1  0.69510117  0.83493817  0.25174700  1.0
  Ni  Ni648  1  0.30771367  0.23197805  0.17838807  1.0
  Ni  Ni649  1  0.30771367  0.56531138  0.17838807  1.0
  Ni  Ni650  1  0.30771367  0.89864471  0.17838807  1.0
  Ni  Ni651  1  0.64104700  0.23197805  0.17838807  1.0
  Ni  Ni652  1  0.64104700  0.56531138  0.17838807  1.0
  Ni  Ni653  1  0.64104700  0.89864471  0.17838807  1.0
  Ni  Ni654  1  0.97438033  0.23197805  0.17838807  1.0
  Ni  Ni655  1  0.97438033  0.56531138  0.17838807  1.0
  Ni  Ni656  1  0.97438033  0.89864471  0.17838807  1.0
  Ni  Ni657  1  0.14104700  0.11293043  0.24981664  1.0
  Ni  Ni658  1  0.14104700  0.44626376  0.24981664  1.0
  Ni  Ni659  1  0.14104700  0.77959710  0.24981664  1.0
  Ni  Ni660  1  0.47438033  0.11293043  0.24981664  1.0
  Ni  Ni661  1  0.47438033  0.44626376  0.24981664  1.0
  Ni  Ni662  1  0.47438033  0.77959710  0.24981664  1.0
  Ni  Ni663  1  0.80771367  0.11293043  0.24981664  1.0
  Ni  Ni664  1  0.80771367  0.44626376  0.24981664  1.0
  Ni  Ni665  1  0.80771367  0.77959710  0.24981664  1.0
  Ni  Ni666  1  0.13823217  0.33196669  0.24861029  1.0
  Ni  Ni667  1  0.13823217  0.66530002  0.24861029  1.0
  Ni  Ni668  1  0.13823217  0.99863336  0.24861029  1.0
  Ni  Ni669  1  0.47156550  0.33196669  0.24861029  1.0
  Ni  Ni670  1  0.47156550  0.66530002  0.24861029  1.0
  Ni  Ni671  1  0.47156550  0.99863336  0.24861029  1.0
  Ni  Ni672  1  0.80489883  0.33196669  0.24861029  1.0
  Ni  Ni673  1  0.80489883  0.66530002  0.24861029  1.0
  Ni  Ni674  1  0.80489883  0.99863336  0.24861029  1.0
  Ni  Ni675  1  0.30489883  0.11768098  0.17718171  1.0
  Ni  Ni676  1  0.30489883  0.45101431  0.17718171  1.0
  Ni  Ni677  1  0.30489883  0.78434764  0.17718171  1.0
  Ni  Ni678  1  0.63823217  0.11768098  0.17718171  1.0
  Ni  Ni679  1  0.63823217  0.45101431  0.17718171  1.0
  Ni  Ni680  1  0.63823217  0.78434764  0.17718171  1.0
  Ni  Ni681  1  0.97156550  0.11768098  0.17718171  1.0
  Ni  Ni682  1  0.97156550  0.45101431  0.17718171  1.0
  Ni  Ni683  1  0.97156550  0.78434764  0.17718171  1.0
  Ni  Ni684  1  0.08766267  0.01953367  0.32521150  1.0
  Ni  Ni685  1  0.08766267  0.35286700  0.32521150  1.0
  Ni  Ni686  1  0.08766267  0.68620033  0.32521150  1.0
  Ni  Ni687  1  0.42099600  0.01953367  0.32521150  1.0
  Ni  Ni688  1  0.42099600  0.35286700  0.32521150  1.0
  Ni  Ni689  1  0.42099600  0.68620033  0.32521150  1.0
  Ni  Ni690  1  0.75432933  0.01953367  0.32521150  1.0
  Ni  Ni691  1  0.75432933  0.35286700  0.32521150  1.0
  Ni  Ni692  1  0.75432933  0.68620033  0.32521150  1.0
  Ni  Ni693  1  0.25432933  0.23381938  0.39664007  1.0
  Ni  Ni694  1  0.25432933  0.56715271  0.39664007  1.0
  Ni  Ni695  1  0.25432933  0.90048605  0.39664007  1.0
  Ni  Ni696  1  0.58766267  0.23381938  0.39664007  1.0
  Ni  Ni697  1  0.58766267  0.56715271  0.39664007  1.0
  Ni  Ni698  1  0.58766267  0.90048605  0.39664007  1.0
  Ni  Ni699  1  0.92099600  0.23381938  0.39664007  1.0
  Ni  Ni700  1  0.92099600  0.56715271  0.39664007  1.0
  Ni  Ni701  1  0.92099600  0.90048605  0.39664007  1.0
  Ni  Ni702  1  0.07696367  0.07565114  0.32062621  1.0
  Ni  Ni703  1  0.07696367  0.40898448  0.32062621  1.0
  Ni  Ni704  1  0.07696367  0.74231781  0.32062621  1.0
  Ni  Ni705  1  0.41029700  0.07565114  0.32062621  1.0
  Ni  Ni706  1  0.41029700  0.40898448  0.32062621  1.0
  Ni  Ni707  1  0.41029700  0.74231781  0.32062621  1.0
  Ni  Ni708  1  0.74363033  0.07565114  0.32062621  1.0
  Ni  Ni709  1  0.74363033  0.40898448  0.32062621  1.0
  Ni  Ni710  1  0.74363033  0.74231781  0.32062621  1.0
  Ni  Ni711  1  0.24363033  0.28993686  0.39205479  1.0
  Ni  Ni712  1  0.24363033  0.62327019  0.39205479  1.0
  Ni  Ni713  1  0.24363033  0.95660352  0.39205479  1.0
  Ni  Ni714  1  0.57696367  0.28993686  0.39205479  1.0
  Ni  Ni715  1  0.57696367  0.62327019  0.39205479  1.0
  Ni  Ni716  1  0.57696367  0.95660352  0.39205479  1.0
  Ni  Ni717  1  0.91029700  0.28993686  0.39205479  1.0
  Ni  Ni718  1  0.91029700  0.62327019  0.39205479  1.0
  Ni  Ni719  1  0.91029700  0.95660352  0.39205479  1.0
  Ni  Ni720  1  0.24567067  0.12356167  0.38943150  1.0
  Ni  Ni721  1  0.24567067  0.45689500  0.38943150  1.0
  Ni  Ni722  1  0.24567067  0.79022833  0.38943150  1.0
  Ni  Ni723  1  0.57900400  0.12356167  0.38943150  1.0
  Ni  Ni724  1  0.57900400  0.45689500  0.38943150  1.0
  Ni  Ni725  1  0.57900400  0.79022833  0.38943150  1.0
  Ni  Ni726  1  0.91233733  0.12356167  0.38943150  1.0
  Ni  Ni727  1  0.91233733  0.45689500  0.38943150  1.0
  Ni  Ni728  1  0.91233733  0.79022833  0.38943150  1.0
  Ni  Ni729  1  0.07900400  0.24260929  0.31800293  1.0
  Ni  Ni730  1  0.07900400  0.57594262  0.31800293  1.0
  Ni  Ni731  1  0.07900400  0.90927595  0.31800293  1.0
  Ni  Ni732  1  0.41233733  0.24260929  0.31800293  1.0
  Ni  Ni733  1  0.41233733  0.57594262  0.31800293  1.0
  Ni  Ni734  1  0.41233733  0.90927595  0.31800293  1.0
  Ni  Ni735  1  0.74567067  0.24260929  0.31800293  1.0
  Ni  Ni736  1  0.74567067  0.57594262  0.31800293  1.0
  Ni  Ni737  1  0.74567067  0.90927595  0.31800293  1.0
  Ni  Ni738  1  0.25636967  0.06744419  0.39401679  1.0
  Ni  Ni739  1  0.25636967  0.40077752  0.39401679  1.0
  Ni  Ni740  1  0.25636967  0.73411086  0.39401679  1.0
  Ni  Ni741  1  0.58970300  0.06744419  0.39401679  1.0
  Ni  Ni742  1  0.58970300  0.40077752  0.39401679  1.0
  Ni  Ni743  1  0.58970300  0.73411086  0.39401679  1.0
  Ni  Ni744  1  0.92303633  0.06744419  0.39401679  1.0
  Ni  Ni745  1  0.92303633  0.40077752  0.39401679  1.0
  Ni  Ni746  1  0.92303633  0.73411086  0.39401679  1.0
  Ni  Ni747  1  0.08970300  0.18649181  0.32258821  1.0
  Ni  Ni748  1  0.08970300  0.51982514  0.32258821  1.0
  Ni  Ni749  1  0.08970300  0.85315848  0.32258821  1.0
  Ni  Ni750  1  0.42303633  0.18649181  0.32258821  1.0
  Ni  Ni751  1  0.42303633  0.51982514  0.32258821  1.0
  Ni  Ni752  1  0.42303633  0.85315848  0.32258821  1.0
  Ni  Ni753  1  0.75636967  0.18649181  0.32258821  1.0
  Ni  Ni754  1  0.75636967  0.51982514  0.32258821  1.0
  Ni  Ni755  1  0.75636967  0.85315848  0.32258821  1.0
  Ni  Ni756  1  0.08333333  0.13107148  0.32160721  1.0
  Ni  Ni757  1  0.08333333  0.46440481  0.32160721  1.0
  Ni  Ni758  1  0.08333333  0.79773814  0.32160721  1.0
  Ni  Ni759  1  0.41666667  0.13107148  0.32160721  1.0
  Ni  Ni760  1  0.41666667  0.46440481  0.32160721  1.0
  Ni  Ni761  1  0.41666667  0.79773814  0.32160721  1.0
  Ni  Ni762  1  0.75000000  0.13107148  0.32160721  1.0
  Ni  Ni763  1  0.75000000  0.46440481  0.32160721  1.0
  Ni  Ni764  1  0.75000000  0.79773814  0.32160721  1.0
  Ni  Ni765  1  0.25000000  0.01202386  0.39303579  1.0
  Ni  Ni766  1  0.25000000  0.34535719  0.39303579  1.0
  Ni  Ni767  1  0.25000000  0.67869052  0.39303579  1.0
  Ni  Ni768  1  0.58333333  0.01202386  0.39303579  1.0
  Ni  Ni769  1  0.58333333  0.34535719  0.39303579  1.0
  Ni  Ni770  1  0.58333333  0.67869052  0.39303579  1.0
  Ni  Ni771  1  0.91666667  0.01202386  0.39303579  1.0
  Ni  Ni772  1  0.91666667  0.34535719  0.39303579  1.0
  Ni  Ni773  1  0.91666667  0.67869052  0.39303579  1.0
  Ni  Ni774  1  0.25000000  0.17869052  0.39303579  1.0
  Ni  Ni775  1  0.25000000  0.51202386  0.39303579  1.0
  Ni  Ni776  1  0.25000000  0.84535719  0.39303579  1.0
  Ni  Ni777  1  0.58333333  0.17869052  0.39303579  1.0
  Ni  Ni778  1  0.58333333  0.51202386  0.39303579  1.0
  Ni  Ni779  1  0.58333333  0.84535719  0.39303579  1.0
  Ni  Ni780  1  0.91666667  0.17869052  0.39303579  1.0
  Ni  Ni781  1  0.91666667  0.51202386  0.39303579  1.0
  Ni  Ni782  1  0.91666667  0.84535719  0.39303579  1.0
  Ni  Ni783  1  0.08333333  0.29773814  0.32160721  1.0
  Ni  Ni784  1  0.08333333  0.63107148  0.32160721  1.0
  Ni  Ni785  1  0.08333333  0.96440481  0.32160721  1.0
  Ni  Ni786  1  0.41666667  0.29773814  0.32160721  1.0
  Ni  Ni787  1  0.41666667  0.63107148  0.32160721  1.0
  Ni  Ni788  1  0.41666667  0.96440481  0.32160721  1.0
  Ni  Ni789  1  0.75000000  0.29773814  0.32160721  1.0
  Ni  Ni790  1  0.75000000  0.63107148  0.32160721  1.0
  Ni  Ni791  1  0.75000000  0.96440481  0.32160721  1.0
  Ni  Ni792  1  0.02561967  0.14921252  0.39339779  1.0
  Ni  Ni793  1  0.02561967  0.48254586  0.39339779  1.0
  Ni  Ni794  1  0.02561967  0.81587919  0.39339779  1.0
  Ni  Ni795  1  0.35895300  0.14921252  0.39339779  1.0
  Ni  Ni796  1  0.35895300  0.48254586  0.39339779  1.0
  Ni  Ni797  1  0.35895300  0.81587919  0.39339779  1.0
  Ni  Ni798  1  0.69228633  0.14921252  0.39339779  1.0
  Ni  Ni799  1  0.69228633  0.48254586  0.39339779  1.0
  Ni  Ni800  1  0.69228633  0.81587919  0.39339779  1.0
  Ni  Ni801  1  0.19228633  0.26826014  0.32196921  1.0
  Ni  Ni802  1  0.19228633  0.60159348  0.32196921  1.0
  Ni  Ni803  1  0.19228633  0.93492681  0.32196921  1.0
  Ni  Ni804  1  0.52561967  0.26826014  0.32196921  1.0
  Ni  Ni805  1  0.52561967  0.60159348  0.32196921  1.0
  Ni  Ni806  1  0.52561967  0.93492681  0.32196921  1.0
  Ni  Ni807  1  0.85895300  0.26826014  0.32196921  1.0
  Ni  Ni808  1  0.85895300  0.60159348  0.32196921  1.0
  Ni  Ni809  1  0.85895300  0.93492681  0.32196921  1.0
  Ni  Ni810  1  0.19510117  0.04922388  0.32317557  1.0
  Ni  Ni811  1  0.19510117  0.38255721  0.32317557  1.0
  Ni  Ni812  1  0.19510117  0.71589055  0.32317557  1.0
  Ni  Ni813  1  0.52843450  0.04922388  0.32317557  1.0
  Ni  Ni814  1  0.52843450  0.38255721  0.32317557  1.0
  Ni  Ni815  1  0.52843450  0.71589055  0.32317557  1.0
  Ni  Ni816  1  0.86176783  0.04922388  0.32317557  1.0
  Ni  Ni817  1  0.86176783  0.38255721  0.32317557  1.0
  Ni  Ni818  1  0.86176783  0.71589055  0.32317557  1.0
  Ni  Ni819  1  0.02843450  0.26350960  0.39460414  1.0
  Ni  Ni820  1  0.02843450  0.59684293  0.39460414  1.0
  Ni  Ni821  1  0.02843450  0.93017626  0.39460414  1.0
  Ni  Ni822  1  0.36176783  0.26350960  0.39460414  1.0
  Ni  Ni823  1  0.36176783  0.59684293  0.39460414  1.0
  Ni  Ni824  1  0.36176783  0.93017626  0.39460414  1.0
  Ni  Ni825  1  0.69510117  0.26350960  0.39460414  1.0
  Ni  Ni826  1  0.69510117  0.59684293  0.39460414  1.0
  Ni  Ni827  1  0.69510117  0.93017626  0.39460414  1.0
  Ni  Ni828  1  0.30771367  0.32721614  0.32124521  1.0
  Ni  Ni829  1  0.30771367  0.66054948  0.32124521  1.0
  Ni  Ni830  1  0.30771367  0.99388281  0.32124521  1.0
  Ni  Ni831  1  0.64104700  0.32721614  0.32124521  1.0
  Ni  Ni832  1  0.64104700  0.66054948  0.32124521  1.0
  Ni  Ni833  1  0.64104700  0.99388281  0.32124521  1.0
  Ni  Ni834  1  0.97438033  0.32721614  0.32124521  1.0
  Ni  Ni835  1  0.97438033  0.66054948  0.32124521  1.0
  Ni  Ni836  1  0.97438033  0.99388281  0.32124521  1.0
  Ni  Ni837  1  0.14104700  0.20816852  0.39267379  1.0
  Ni  Ni838  1  0.14104700  0.54150186  0.39267379  1.0
  Ni  Ni839  1  0.14104700  0.87483519  0.39267379  1.0
  Ni  Ni840  1  0.47438033  0.20816852  0.39267379  1.0
  Ni  Ni841  1  0.47438033  0.54150186  0.39267379  1.0
  Ni  Ni842  1  0.47438033  0.87483519  0.39267379  1.0
  Ni  Ni843  1  0.80771367  0.20816852  0.39267379  1.0
  Ni  Ni844  1  0.80771367  0.54150186  0.39267379  1.0
  Ni  Ni845  1  0.80771367  0.87483519  0.39267379  1.0
  Ni  Ni846  1  0.13823217  0.09387145  0.39146743  1.0
  Ni  Ni847  1  0.13823217  0.42720479  0.39146743  1.0
  Ni  Ni848  1  0.13823217  0.76053812  0.39146743  1.0
  Ni  Ni849  1  0.47156550  0.09387145  0.39146743  1.0
  Ni  Ni850  1  0.47156550  0.42720479  0.39146743  1.0
  Ni  Ni851  1  0.47156550  0.76053812  0.39146743  1.0
  Ni  Ni852  1  0.80489883  0.09387145  0.39146743  1.0
  Ni  Ni853  1  0.80489883  0.42720479  0.39146743  1.0
  Ni  Ni854  1  0.80489883  0.76053812  0.39146743  1.0
  Ni  Ni855  1  0.30489883  0.21291907  0.32003886  1.0
  Ni  Ni856  1  0.30489883  0.54625240  0.32003886  1.0
  Ni  Ni857  1  0.30489883  0.87958574  0.32003886  1.0
  Ni  Ni858  1  0.63823217  0.21291907  0.32003886  1.0
  Ni  Ni859  1  0.63823217  0.54625240  0.32003886  1.0
  Ni  Ni860  1  0.63823217  0.87958574  0.32003886  1.0
  Ni  Ni861  1  0.97156550  0.21291907  0.32003886  1.0
  Ni  Ni862  1  0.97156550  0.54625240  0.32003886  1.0
  Ni  Ni863  1  0.97156550  0.87958574  0.32003886  1.0
