# generated using pymatgen
data_Ni5Ge2
_symmetry_space_group_name_H-M   'P 1'
_cell_length_a   20.39465970
_cell_length_b   55.30610753
_cell_length_c   49.79954400
_cell_angle_alpha   47.52052100
_cell_angle_beta   90.00000000
_cell_angle_gamma   68.36085928
_symmetry_Int_Tables_number   1
_chemical_formula_structural   Ni5Ge2
_chemical_formula_sum   'Ni1080 Ge432'
_cell_volume   35877.23124221
_cell_formula_units_Z   216
loop_
 _symmetry_equiv_pos_site_id
 _symmetry_equiv_pos_as_xyz
  1  'x, y, z'
loop_
 _atom_site_type_symbol
 _atom_site_label
 _atom_site_symmetry_multiplicity
 _atom_site_fract_x
 _atom_site_fract_y
 _atom_site_fract_z
 _atom_site_occupancy
  Ni  Ni0  1  0.00000000  0.16666667  0.13732219  1.0
  Ni  Ni1  1  0.00000000  0.50000000  0.13732219  1.0
  Ni  Ni2  1  1.00000000  0.83333333  0.13732219  1.0
  Ni  Ni3  1  0.33333333  0.16666667  0.13732219  1.0
  Ni  Ni4  1  0.33333333  0.50000000  0.13732219  1.0
  Ni  Ni5  1  0.33333333  0.83333333  0.13732219  1.0
  Ni  Ni6  1  0.66666667  0.16666667  0.13732219  1.0
  Ni  Ni7  1  0.66666667  0.50000000  0.13732219  1.0
  Ni  Ni8  1  0.66666667  0.83333333  0.13732219  1.0
  Ni  Ni9  1  0.00000000  0.00000000  0.01232219  1.0
  Ni  Ni10  1  0.00000000  0.33333333  0.01232219  1.0
  Ni  Ni11  1  0.00000000  0.66666667  0.01232219  1.0
  Ni  Ni12  1  0.33333333  0.00000000  0.01232219  1.0
  Ni  Ni13  1  0.33333333  0.33333333  0.01232219  1.0
  Ni  Ni14  1  0.33333333  0.66666667  0.01232219  1.0
  Ni  Ni15  1  0.66666667  0.00000000  0.01232219  1.0
  Ni  Ni16  1  0.66666667  0.33333333  0.01232219  1.0
  Ni  Ni17  1  0.66666667  0.66666667  0.01232219  1.0
  Ni  Ni18  1  0.00000000  0.16666667  0.01232219  1.0
  Ni  Ni19  1  0.00000000  0.50000000  0.01232219  1.0
  Ni  Ni20  1  1.00000000  0.83333333  0.01232219  1.0
  Ni  Ni21  1  0.33333333  0.16666667  0.01232219  1.0
  Ni  Ni22  1  0.33333333  0.50000000  0.01232219  1.0
  Ni  Ni23  1  0.33333333  0.83333333  0.01232219  1.0
  Ni  Ni24  1  0.66666667  0.16666667  0.01232219  1.0
  Ni  Ni25  1  0.66666667  0.50000000  0.01232219  1.0
  Ni  Ni26  1  0.66666667  0.83333333  0.01232219  1.0
  Ni  Ni27  1  0.00000000  0.00000000  0.13732219  1.0
  Ni  Ni28  1  0.00000000  0.33333333  0.13732219  1.0
  Ni  Ni29  1  0.00000000  0.66666667  0.13732219  1.0
  Ni  Ni30  1  0.33333333  0.00000000  0.13732219  1.0
  Ni  Ni31  1  0.33333333  0.33333333  0.13732219  1.0
  Ni  Ni32  1  0.33333333  0.66666667  0.13732219  1.0
  Ni  Ni33  1  0.66666667  0.00000000  0.13732219  1.0
  Ni  Ni34  1  0.66666667  0.33333333  0.13732219  1.0
  Ni  Ni35  1  0.66666667  0.66666667  0.13732219  1.0
  Ni  Ni36  1  0.22222222  0.11111111  0.14289510  1.0
  Ni  Ni37  1  0.22222222  0.44444444  0.14289510  1.0
  Ni  Ni38  1  0.22222222  0.77777778  0.14289510  1.0
  Ni  Ni39  1  0.55555556  0.11111111  0.14289510  1.0
  Ni  Ni40  1  0.55555556  0.44444444  0.14289510  1.0
  Ni  Ni41  1  0.55555556  0.77777778  0.14289510  1.0
  Ni  Ni42  1  0.88888889  0.11111111  0.14289510  1.0
  Ni  Ni43  1  0.88888889  0.44444444  0.14289510  1.0
  Ni  Ni44  1  0.88888889  0.77777778  0.14289510  1.0
  Ni  Ni45  1  0.22222222  0.27777778  0.01789510  1.0
  Ni  Ni46  1  0.22222222  0.61111111  0.01789510  1.0
  Ni  Ni47  1  0.22222222  0.94444444  0.01789510  1.0
  Ni  Ni48  1  0.55555556  0.27777778  0.01789510  1.0
  Ni  Ni49  1  0.55555556  0.61111111  0.01789510  1.0
  Ni  Ni50  1  0.55555556  0.94444444  0.01789510  1.0
  Ni  Ni51  1  0.88888889  0.27777778  0.01789510  1.0
  Ni  Ni52  1  0.88888889  0.61111111  0.01789510  1.0
  Ni  Ni53  1  0.88888889  0.94444444  0.01789510  1.0
  Ni  Ni54  1  0.11111111  0.05555556  0.18456177  1.0
  Ni  Ni55  1  0.11111111  0.38888889  0.18456177  1.0
  Ni  Ni56  1  0.11111111  0.72222222  0.18456177  1.0
  Ni  Ni57  1  0.44444444  0.05555556  0.18456177  1.0
  Ni  Ni58  1  0.44444444  0.38888889  0.18456177  1.0
  Ni  Ni59  1  0.44444444  0.72222222  0.18456177  1.0
  Ni  Ni60  1  0.77777778  0.05555556  0.18456177  1.0
  Ni  Ni61  1  0.77777778  0.38888889  0.18456177  1.0
  Ni  Ni62  1  0.77777778  0.72222222  0.18456177  1.0
  Ni  Ni63  1  0.11111111  0.22222222  0.05956177  1.0
  Ni  Ni64  1  0.11111111  0.55555556  0.05956177  1.0
  Ni  Ni65  1  0.11111111  0.88888889  0.05956177  1.0
  Ni  Ni66  1  0.44444444  0.22222222  0.05956177  1.0
  Ni  Ni67  1  0.44444444  0.55555556  0.05956177  1.0
  Ni  Ni68  1  0.44444444  0.88888889  0.05956177  1.0
  Ni  Ni69  1  0.77777778  0.22222222  0.05956177  1.0
  Ni  Ni70  1  0.77777778  0.55555556  0.05956177  1.0
  Ni  Ni71  1  0.77777778  0.88888889  0.05956177  1.0
  Ni  Ni72  1  0.11111111  0.05555556  0.05956177  1.0
  Ni  Ni73  1  0.11111111  0.38888889  0.05956177  1.0
  Ni  Ni74  1  0.11111111  0.72222222  0.05956177  1.0
  Ni  Ni75  1  0.44444444  0.05555556  0.05956177  1.0
  Ni  Ni76  1  0.44444444  0.38888889  0.05956177  1.0
  Ni  Ni77  1  0.44444444  0.72222222  0.05956177  1.0
  Ni  Ni78  1  0.77777778  0.05555556  0.05956177  1.0
  Ni  Ni79  1  0.77777778  0.38888889  0.05956177  1.0
  Ni  Ni80  1  0.77777778  0.72222222  0.05956177  1.0
  Ni  Ni81  1  0.11111111  0.22222222  0.18456177  1.0
  Ni  Ni82  1  0.11111111  0.55555556  0.18456177  1.0
  Ni  Ni83  1  0.11111111  0.88888889  0.18456177  1.0
  Ni  Ni84  1  0.44444444  0.22222222  0.18456177  1.0
  Ni  Ni85  1  0.44444444  0.55555556  0.18456177  1.0
  Ni  Ni86  1  0.44444444  0.88888889  0.18456177  1.0
  Ni  Ni87  1  0.77777778  0.22222222  0.18456177  1.0
  Ni  Ni88  1  0.77777778  0.55555556  0.18456177  1.0
  Ni  Ni89  1  0.77777778  0.88888889  0.18456177  1.0
  Ni  Ni90  1  0.22222222  0.11111111  0.01789510  1.0
  Ni  Ni91  1  0.22222222  0.44444444  0.01789510  1.0
  Ni  Ni92  1  0.22222222  0.77777778  0.01789510  1.0
  Ni  Ni93  1  0.55555556  0.11111111  0.01789510  1.0
  Ni  Ni94  1  0.55555556  0.44444444  0.01789510  1.0
  Ni  Ni95  1  0.55555556  0.77777778  0.01789510  1.0
  Ni  Ni96  1  0.88888889  0.11111111  0.01789510  1.0
  Ni  Ni97  1  0.88888889  0.44444444  0.01789510  1.0
  Ni  Ni98  1  0.88888889  0.77777778  0.01789510  1.0
  Ni  Ni99  1  0.22222222  0.27777778  0.14289510  1.0
  Ni  Ni100  1  0.22222222  0.61111111  0.14289510  1.0
  Ni  Ni101  1  0.22222222  0.94444444  0.14289510  1.0
  Ni  Ni102  1  0.55555556  0.27777778  0.14289510  1.0
  Ni  Ni103  1  0.55555556  0.61111111  0.14289510  1.0
  Ni  Ni104  1  0.55555556  0.94444444  0.14289510  1.0
  Ni  Ni105  1  0.88888889  0.27777778  0.14289510  1.0
  Ni  Ni106  1  0.88888889  0.61111111  0.14289510  1.0
  Ni  Ni107  1  0.88888889  0.94444444  0.14289510  1.0
  Ni  Ni108  1  0.08826400  0.16666667  0.09524644  1.0
  Ni  Ni109  1  0.08826400  0.50000000  0.09524644  1.0
  Ni  Ni110  1  0.08826400  0.83333333  0.09524644  1.0
  Ni  Ni111  1  0.42159733  0.16666667  0.09524644  1.0
  Ni  Ni112  1  0.42159733  0.50000000  0.09524644  1.0
  Ni  Ni113  1  0.42159733  0.83333333  0.09524644  1.0
  Ni  Ni114  1  0.75493067  0.16666667  0.09524644  1.0
  Ni  Ni115  1  0.75493067  0.50000000  0.09524644  1.0
  Ni  Ni116  1  0.75493067  0.83333333  0.09524644  1.0
  Ni  Ni117  1  0.08826400  0.00000000  0.22024644  1.0
  Ni  Ni118  1  0.08826400  0.33333333  0.22024644  1.0
  Ni  Ni119  1  0.08826400  0.66666667  0.22024644  1.0
  Ni  Ni120  1  0.42159733  0.00000000  0.22024644  1.0
  Ni  Ni121  1  0.42159733  0.33333333  0.22024644  1.0
  Ni  Ni122  1  0.42159733  0.66666667  0.22024644  1.0
  Ni  Ni123  1  0.75493067  0.00000000  0.22024644  1.0
  Ni  Ni124  1  0.75493067  0.33333333  0.22024644  1.0
  Ni  Ni125  1  0.75493067  0.66666667  0.22024644  1.0
  Ni  Ni126  1  0.00000000  0.12253467  0.12834544  1.0
  Ni  Ni127  1  0.00000000  0.45586800  0.12834544  1.0
  Ni  Ni128  1  0.00000000  0.78920133  0.12834544  1.0
  Ni  Ni129  1  0.33333333  0.12253467  0.12834544  1.0
  Ni  Ni130  1  0.33333333  0.45586800  0.12834544  1.0
  Ni  Ni131  1  0.33333333  0.78920133  0.12834544  1.0
  Ni  Ni132  1  0.66666667  0.12253467  0.12834544  1.0
  Ni  Ni133  1  0.66666667  0.45586800  0.12834544  1.0
  Ni  Ni134  1  0.66666667  0.78920133  0.12834544  1.0
  Ni  Ni135  1  0.00000000  0.28920133  0.00334544  1.0
  Ni  Ni136  1  0.00000000  0.62253467  0.00334544  1.0
  Ni  Ni137  1  0.00000000  0.95586800  0.00334544  1.0
  Ni  Ni138  1  0.33333333  0.28920133  0.00334544  1.0
  Ni  Ni139  1  0.33333333  0.62253467  0.00334544  1.0
  Ni  Ni140  1  0.33333333  0.95586800  0.00334544  1.0
  Ni  Ni141  1  0.66666667  0.28920133  0.00334544  1.0
  Ni  Ni142  1  0.66666667  0.62253467  0.00334544  1.0
  Ni  Ni143  1  0.66666667  0.95586800  0.00334544  1.0
  Ni  Ni144  1  0.24506933  0.04413200  0.18714744  1.0
  Ni  Ni145  1  0.24506933  0.37746533  0.18714744  1.0
  Ni  Ni146  1  0.24506933  0.71079867  0.18714744  1.0
  Ni  Ni147  1  0.57840267  0.04413200  0.18714744  1.0
  Ni  Ni148  1  0.57840267  0.37746533  0.18714744  1.0
  Ni  Ni149  1  0.57840267  0.71079867  0.18714744  1.0
  Ni  Ni150  1  0.91173600  0.04413200  0.18714744  1.0
  Ni  Ni151  1  0.91173600  0.37746533  0.18714744  1.0
  Ni  Ni152  1  0.91173600  0.71079867  0.18714744  1.0
  Ni  Ni153  1  0.24506933  0.21079867  0.06214744  1.0
  Ni  Ni154  1  0.24506933  0.54413200  0.06214744  1.0
  Ni  Ni155  1  0.24506933  0.87746533  0.06214744  1.0
  Ni  Ni156  1  0.57840267  0.21079867  0.06214744  1.0
  Ni  Ni157  1  0.57840267  0.54413200  0.06214744  1.0
  Ni  Ni158  1  0.57840267  0.87746533  0.06214744  1.0
  Ni  Ni159  1  0.91173600  0.21079867  0.06214744  1.0
  Ni  Ni160  1  0.91173600  0.54413200  0.06214744  1.0
  Ni  Ni161  1  0.91173600  0.87746533  0.06214744  1.0
  Ni  Ni162  1  0.24506933  0.16666667  0.22024644  1.0
  Ni  Ni163  1  0.24506933  0.50000000  0.22024644  1.0
  Ni  Ni164  1  0.24506933  0.83333333  0.22024644  1.0
  Ni  Ni165  1  0.57840267  0.16666667  0.22024644  1.0
  Ni  Ni166  1  0.57840267  0.50000000  0.22024644  1.0
  Ni  Ni167  1  0.57840267  0.83333333  0.22024644  1.0
  Ni  Ni168  1  0.91173600  0.16666667  0.22024644  1.0
  Ni  Ni169  1  0.91173600  0.50000000  0.22024644  1.0
  Ni  Ni170  1  0.91173600  0.83333333  0.22024644  1.0
  Ni  Ni171  1  0.24506933  0.00000000  0.09524644  1.0
  Ni  Ni172  1  0.24506933  0.33333333  0.09524644  1.0
  Ni  Ni173  1  0.24506933  0.66666667  0.09524644  1.0
  Ni  Ni174  1  0.57840267  0.00000000  0.09524644  1.0
  Ni  Ni175  1  0.57840267  0.33333333  0.09524644  1.0
  Ni  Ni176  1  0.57840267  0.66666667  0.09524644  1.0
  Ni  Ni177  1  0.91173600  0.00000000  0.09524644  1.0
  Ni  Ni178  1  0.91173600  0.33333333  0.09524644  1.0
  Ni  Ni179  1  0.91173600  0.66666667  0.09524644  1.0
  Ni  Ni180  1  0.00000000  0.04413200  0.06214744  1.0
  Ni  Ni181  1  0.00000000  0.37746533  0.06214744  1.0
  Ni  Ni182  1  0.00000000  0.71079867  0.06214744  1.0
  Ni  Ni183  1  0.33333333  0.04413200  0.06214744  1.0
  Ni  Ni184  1  0.33333333  0.37746533  0.06214744  1.0
  Ni  Ni185  1  0.33333333  0.71079867  0.06214744  1.0
  Ni  Ni186  1  0.66666667  0.04413200  0.06214744  1.0
  Ni  Ni187  1  0.66666667  0.37746533  0.06214744  1.0
  Ni  Ni188  1  0.66666667  0.71079867  0.06214744  1.0
  Ni  Ni189  1  0.00000000  0.21079867  0.18714744  1.0
  Ni  Ni190  1  0.00000000  0.54413200  0.18714744  1.0
  Ni  Ni191  1  0.00000000  0.87746533  0.18714744  1.0
  Ni  Ni192  1  0.33333333  0.21079867  0.18714744  1.0
  Ni  Ni193  1  0.33333333  0.54413200  0.18714744  1.0
  Ni  Ni194  1  0.33333333  0.87746533  0.18714744  1.0
  Ni  Ni195  1  0.66666667  0.21079867  0.18714744  1.0
  Ni  Ni196  1  0.66666667  0.54413200  0.18714744  1.0
  Ni  Ni197  1  0.66666667  0.87746533  0.18714744  1.0
  Ni  Ni198  1  0.08826400  0.12253467  0.00334544  1.0
  Ni  Ni199  1  0.08826400  0.45586800  0.00334544  1.0
  Ni  Ni200  1  0.08826400  0.78920133  0.00334544  1.0
  Ni  Ni201  1  0.42159733  0.12253467  0.00334544  1.0
  Ni  Ni202  1  0.42159733  0.45586800  0.00334544  1.0
  Ni  Ni203  1  0.42159733  0.78920133  0.00334544  1.0
  Ni  Ni204  1  0.75493067  0.12253467  0.00334544  1.0
  Ni  Ni205  1  0.75493067  0.45586800  0.00334544  1.0
  Ni  Ni206  1  0.75493067  0.78920133  0.00334544  1.0
  Ni  Ni207  1  0.08826400  0.28920133  0.12834544  1.0
  Ni  Ni208  1  0.08826400  0.62253467  0.12834544  1.0
  Ni  Ni209  1  0.08826400  0.95586800  0.12834544  1.0
  Ni  Ni210  1  0.42159733  0.28920133  0.12834544  1.0
  Ni  Ni211  1  0.42159733  0.62253467  0.12834544  1.0
  Ni  Ni212  1  0.42159733  0.95586800  0.12834544  1.0
  Ni  Ni213  1  0.75493067  0.28920133  0.12834544  1.0
  Ni  Ni214  1  0.75493067  0.62253467  0.12834544  1.0
  Ni  Ni215  1  0.75493067  0.95586800  0.12834544  1.0
  Ni  Ni216  1  0.20874533  0.16666667  0.07129644  1.0
  Ni  Ni217  1  0.20874533  0.50000000  0.07129644  1.0
  Ni  Ni218  1  0.20874533  0.83333333  0.07129644  1.0
  Ni  Ni219  1  0.54207867  0.16666667  0.07129644  1.0
  Ni  Ni220  1  0.54207867  0.50000000  0.07129644  1.0
  Ni  Ni221  1  0.54207867  0.83333333  0.07129644  1.0
  Ni  Ni222  1  0.87541200  0.16666667  0.07129644  1.0
  Ni  Ni223  1  0.87541200  0.50000000  0.07129644  1.0
  Ni  Ni224  1  0.87541200  0.83333333  0.07129644  1.0
  Ni  Ni225  1  0.20874533  0.00000000  0.19629644  1.0
  Ni  Ni226  1  0.20874533  0.33333333  0.19629644  1.0
  Ni  Ni227  1  0.20874533  0.66666667  0.19629644  1.0
  Ni  Ni228  1  0.54207867  0.00000000  0.19629644  1.0
  Ni  Ni229  1  0.54207867  0.33333333  0.19629644  1.0
  Ni  Ni230  1  0.54207867  0.66666667  0.19629644  1.0
  Ni  Ni231  1  0.87541200  0.00000000  0.19629644  1.0
  Ni  Ni232  1  0.87541200  0.33333333  0.19629644  1.0
  Ni  Ni233  1  0.87541200  0.66666667  0.19629644  1.0
  Ni  Ni234  1  0.00000000  0.06229400  0.14957594  1.0
  Ni  Ni235  1  0.00000000  0.39562733  0.14957594  1.0
  Ni  Ni236  1  0.00000000  0.72896067  0.14957594  1.0
  Ni  Ni237  1  0.33333333  0.06229400  0.14957594  1.0
  Ni  Ni238  1  0.33333333  0.39562733  0.14957594  1.0
  Ni  Ni239  1  0.33333333  0.72896067  0.14957594  1.0
  Ni  Ni240  1  0.66666667  0.06229400  0.14957594  1.0
  Ni  Ni241  1  0.66666667  0.39562733  0.14957594  1.0
  Ni  Ni242  1  0.66666667  0.72896067  0.14957594  1.0
  Ni  Ni243  1  0.00000000  0.22896067  0.02457594  1.0
  Ni  Ni244  1  0.00000000  0.56229400  0.02457594  1.0
  Ni  Ni245  1  1.00000000  0.89562733  0.02457594  1.0
  Ni  Ni246  1  0.33333333  0.22896067  0.02457594  1.0
  Ni  Ni247  1  0.33333333  0.56229400  0.02457594  1.0
  Ni  Ni248  1  0.33333333  0.89562733  0.02457594  1.0
  Ni  Ni249  1  0.66666667  0.22896067  0.02457594  1.0
  Ni  Ni250  1  0.66666667  0.56229400  0.02457594  1.0
  Ni  Ni251  1  0.66666667  0.89562733  0.02457594  1.0
  Ni  Ni252  1  0.12458800  0.10437267  0.11801694  1.0
  Ni  Ni253  1  0.12458800  0.43770600  0.11801694  1.0
  Ni  Ni254  1  0.12458800  0.77103933  0.11801694  1.0
  Ni  Ni255  1  0.45792133  0.10437267  0.11801694  1.0
  Ni  Ni256  1  0.45792133  0.43770600  0.11801694  1.0
  Ni  Ni257  1  0.45792133  0.77103933  0.11801694  1.0
  Ni  Ni258  1  0.79125467  0.10437267  0.11801694  1.0
  Ni  Ni259  1  0.79125467  0.43770600  0.11801694  1.0
  Ni  Ni260  1  0.79125467  0.77103933  0.11801694  1.0
  Ni  Ni261  1  0.12458800  0.27103933  0.24301694  1.0
  Ni  Ni262  1  0.12458800  0.60437267  0.24301694  1.0
  Ni  Ni263  1  0.12458800  0.93770600  0.24301694  1.0
  Ni  Ni264  1  0.45792133  0.27103933  0.24301694  1.0
  Ni  Ni265  1  0.45792133  0.60437267  0.24301694  1.0
  Ni  Ni266  1  0.45792133  0.93770600  0.24301694  1.0
  Ni  Ni267  1  0.79125467  0.27103933  0.24301694  1.0
  Ni  Ni268  1  0.79125467  0.60437267  0.24301694  1.0
  Ni  Ni269  1  0.79125467  0.93770600  0.24301694  1.0
  Ni  Ni270  1  0.12458800  0.16666667  0.19629644  1.0
  Ni  Ni271  1  0.12458800  0.50000000  0.19629644  1.0
  Ni  Ni272  1  0.12458800  0.83333333  0.19629644  1.0
  Ni  Ni273  1  0.45792133  0.16666667  0.19629644  1.0
  Ni  Ni274  1  0.45792133  0.50000000  0.19629644  1.0
  Ni  Ni275  1  0.45792133  0.83333333  0.19629644  1.0
  Ni  Ni276  1  0.79125467  0.16666667  0.19629644  1.0
  Ni  Ni277  1  0.79125467  0.50000000  0.19629644  1.0
  Ni  Ni278  1  0.79125467  0.83333333  0.19629644  1.0
  Ni  Ni279  1  0.12458800  0.00000000  0.07129644  1.0
  Ni  Ni280  1  0.12458800  0.33333333  0.07129644  1.0
  Ni  Ni281  1  0.12458800  0.66666667  0.07129644  1.0
  Ni  Ni282  1  0.45792133  0.00000000  0.07129644  1.0
  Ni  Ni283  1  0.45792133  0.33333333  0.07129644  1.0
  Ni  Ni284  1  0.45792133  0.66666667  0.07129644  1.0
  Ni  Ni285  1  0.79125467  0.00000000  0.07129644  1.0
  Ni  Ni286  1  0.79125467  0.33333333  0.07129644  1.0
  Ni  Ni287  1  0.79125467  0.66666667  0.07129644  1.0
  Ni  Ni288  1  0.00000000  0.10437267  0.24301694  1.0
  Ni  Ni289  1  0.00000000  0.43770600  0.24301694  1.0
  Ni  Ni290  1  0.00000000  0.77103933  0.24301694  1.0
  Ni  Ni291  1  0.33333333  0.10437267  0.24301694  1.0
  Ni  Ni292  1  0.33333333  0.43770600  0.24301694  1.0
  Ni  Ni293  1  0.33333333  0.77103933  0.24301694  1.0
  Ni  Ni294  1  0.66666667  0.10437267  0.24301694  1.0
  Ni  Ni295  1  0.66666667  0.43770600  0.24301694  1.0
  Ni  Ni296  1  0.66666667  0.77103933  0.24301694  1.0
  Ni  Ni297  1  0.00000000  0.27103933  0.11801694  1.0
  Ni  Ni298  1  0.00000000  0.60437267  0.11801694  1.0
  Ni  Ni299  1  0.00000000  0.93770600  0.11801694  1.0
  Ni  Ni300  1  0.33333333  0.27103933  0.11801694  1.0
  Ni  Ni301  1  0.33333333  0.60437267  0.11801694  1.0
  Ni  Ni302  1  0.33333333  0.93770600  0.11801694  1.0
  Ni  Ni303  1  0.66666667  0.27103933  0.11801694  1.0
  Ni  Ni304  1  0.66666667  0.60437267  0.11801694  1.0
  Ni  Ni305  1  0.66666667  0.93770600  0.11801694  1.0
  Ni  Ni306  1  0.20874533  0.06229400  0.02457594  1.0
  Ni  Ni307  1  0.20874533  0.39562733  0.02457594  1.0
  Ni  Ni308  1  0.20874533  0.72896067  0.02457594  1.0
  Ni  Ni309  1  0.54207867  0.06229400  0.02457594  1.0
  Ni  Ni310  1  0.54207867  0.39562733  0.02457594  1.0
  Ni  Ni311  1  0.54207867  0.72896067  0.02457594  1.0
  Ni  Ni312  1  0.87541200  0.06229400  0.02457594  1.0
  Ni  Ni313  1  0.87541200  0.39562733  0.02457594  1.0
  Ni  Ni314  1  0.87541200  0.72896067  0.02457594  1.0
  Ni  Ni315  1  0.20874533  0.22896067  0.14957594  1.0
  Ni  Ni316  1  0.20874533  0.56229400  0.14957594  1.0
  Ni  Ni317  1  0.20874533  0.89562733  0.14957594  1.0
  Ni  Ni318  1  0.54207867  0.22896067  0.14957594  1.0
  Ni  Ni319  1  0.54207867  0.56229400  0.14957594  1.0
  Ni  Ni320  1  0.54207867  0.89562733  0.14957594  1.0
  Ni  Ni321  1  0.87541200  0.22896067  0.14957594  1.0
  Ni  Ni322  1  0.87541200  0.56229400  0.14957594  1.0
  Ni  Ni323  1  0.87541200  0.89562733  0.14957594  1.0
  Ni  Ni324  1  0.10275633  0.16666667  0.04334844  1.0
  Ni  Ni325  1  0.10275633  0.50000000  0.04334844  1.0
  Ni  Ni326  1  0.10275633  0.83333333  0.04334844  1.0
  Ni  Ni327  1  0.43608967  0.16666667  0.04334844  1.0
  Ni  Ni328  1  0.43608967  0.50000000  0.04334844  1.0
  Ni  Ni329  1  0.43608967  0.83333333  0.04334844  1.0
  Ni  Ni330  1  0.76942300  0.16666667  0.04334844  1.0
  Ni  Ni331  1  0.76942300  0.50000000  0.04334844  1.0
  Ni  Ni332  1  0.76942300  0.83333333  0.04334844  1.0
  Ni  Ni333  1  0.10275633  0.00000000  0.16834844  1.0
  Ni  Ni334  1  0.10275633  0.33333333  0.16834844  1.0
  Ni  Ni335  1  0.10275633  0.66666667  0.16834844  1.0
  Ni  Ni336  1  0.43608967  0.00000000  0.16834844  1.0
  Ni  Ni337  1  0.43608967  0.33333333  0.16834844  1.0
  Ni  Ni338  1  0.43608967  0.66666667  0.16834844  1.0
  Ni  Ni339  1  0.76942300  0.00000000  0.16834844  1.0
  Ni  Ni340  1  0.76942300  0.33333333  0.16834844  1.0
  Ni  Ni341  1  0.76942300  0.66666667  0.16834844  1.0
  Ni  Ni342  1  0.00000000  0.11528850  0.08188206  1.0
  Ni  Ni343  1  0.00000000  0.44862183  0.08188206  1.0
  Ni  Ni344  1  1.00000000  0.78195517  0.08188206  1.0
  Ni  Ni345  1  0.33333333  0.11528850  0.08188206  1.0
  Ni  Ni346  1  0.33333333  0.44862183  0.08188206  1.0
  Ni  Ni347  1  0.33333333  0.78195517  0.08188206  1.0
  Ni  Ni348  1  0.66666667  0.11528850  0.08188206  1.0
  Ni  Ni349  1  0.66666667  0.44862183  0.08188206  1.0
  Ni  Ni350  1  0.66666667  0.78195517  0.08188206  1.0
  Ni  Ni351  1  0.00000000  0.28195517  0.20688206  1.0
  Ni  Ni352  1  1.00000000  0.61528850  0.20688206  1.0
  Ni  Ni353  1  0.00000000  0.94862183  0.20688206  1.0
  Ni  Ni354  1  0.33333333  0.28195517  0.20688206  1.0
  Ni  Ni355  1  0.33333333  0.61528850  0.20688206  1.0
  Ni  Ni356  1  0.33333333  0.94862183  0.20688206  1.0
  Ni  Ni357  1  0.66666667  0.28195517  0.20688206  1.0
  Ni  Ni358  1  0.66666667  0.61528850  0.20688206  1.0
  Ni  Ni359  1  0.66666667  0.94862183  0.20688206  1.0
  Ni  Ni360  1  0.23057700  0.05137817  0.12981481  1.0
  Ni  Ni361  1  0.23057700  0.38471150  0.12981481  1.0
  Ni  Ni362  1  0.23057700  0.71804483  0.12981481  1.0
  Ni  Ni363  1  0.56391033  0.05137817  0.12981481  1.0
  Ni  Ni364  1  0.56391033  0.38471150  0.12981481  1.0
  Ni  Ni365  1  0.56391033  0.71804483  0.12981481  1.0
  Ni  Ni366  1  0.89724367  0.05137817  0.12981481  1.0
  Ni  Ni367  1  0.89724367  0.38471150  0.12981481  1.0
  Ni  Ni368  1  0.89724367  0.71804483  0.12981481  1.0
  Ni  Ni369  1  0.23057700  0.21804483  0.00481481  1.0
  Ni  Ni370  1  0.23057700  0.55137817  0.00481481  1.0
  Ni  Ni371  1  0.23057700  0.88471150  0.00481481  1.0
  Ni  Ni372  1  0.56391033  0.21804483  0.00481481  1.0
  Ni  Ni373  1  0.56391033  0.55137817  0.00481481  1.0
  Ni  Ni374  1  0.56391033  0.88471150  0.00481481  1.0
  Ni  Ni375  1  0.89724367  0.21804483  0.00481481  1.0
  Ni  Ni376  1  0.89724367  0.55137817  0.00481481  1.0
  Ni  Ni377  1  0.89724367  0.88471150  0.00481481  1.0
  Ni  Ni378  1  0.23057700  0.16666667  0.16834844  1.0
  Ni  Ni379  1  0.23057700  0.50000000  0.16834844  1.0
  Ni  Ni380  1  0.23057700  0.83333333  0.16834844  1.0
  Ni  Ni381  1  0.56391033  0.16666667  0.16834844  1.0
  Ni  Ni382  1  0.56391033  0.50000000  0.16834844  1.0
  Ni  Ni383  1  0.56391033  0.83333333  0.16834844  1.0
  Ni  Ni384  1  0.89724367  0.16666667  0.16834844  1.0
  Ni  Ni385  1  0.89724367  0.50000000  0.16834844  1.0
  Ni  Ni386  1  0.89724367  0.83333333  0.16834844  1.0
  Ni  Ni387  1  0.23057700  0.00000000  0.04334844  1.0
  Ni  Ni388  1  0.23057700  0.33333333  0.04334844  1.0
  Ni  Ni389  1  0.23057700  0.66666667  0.04334844  1.0
  Ni  Ni390  1  0.56391033  0.00000000  0.04334844  1.0
  Ni  Ni391  1  0.56391033  0.33333333  0.04334844  1.0
  Ni  Ni392  1  0.56391033  0.66666667  0.04334844  1.0
  Ni  Ni393  1  0.89724367  0.00000000  0.04334844  1.0
  Ni  Ni394  1  0.89724367  0.33333333  0.04334844  1.0
  Ni  Ni395  1  0.89724367  0.66666667  0.04334844  1.0
  Ni  Ni396  1  0.00000000  0.05137817  0.00481481  1.0
  Ni  Ni397  1  0.00000000  0.38471150  0.00481481  1.0
  Ni  Ni398  1  0.00000000  0.71804483  0.00481481  1.0
  Ni  Ni399  1  0.33333333  0.05137817  0.00481481  1.0
  Ni  Ni400  1  0.33333333  0.38471150  0.00481481  1.0
  Ni  Ni401  1  0.33333333  0.71804483  0.00481481  1.0
  Ni  Ni402  1  0.66666667  0.05137817  0.00481481  1.0
  Ni  Ni403  1  0.66666667  0.38471150  0.00481481  1.0
  Ni  Ni404  1  0.66666667  0.71804483  0.00481481  1.0
  Ni  Ni405  1  0.00000000  0.21804483  0.12981481  1.0
  Ni  Ni406  1  0.00000000  0.55137817  0.12981481  1.0
  Ni  Ni407  1  0.00000000  0.88471150  0.12981481  1.0
  Ni  Ni408  1  0.33333333  0.21804483  0.12981481  1.0
  Ni  Ni409  1  0.33333333  0.55137817  0.12981481  1.0
  Ni  Ni410  1  0.33333333  0.88471150  0.12981481  1.0
  Ni  Ni411  1  0.66666667  0.21804483  0.12981481  1.0
  Ni  Ni412  1  0.66666667  0.55137817  0.12981481  1.0
  Ni  Ni413  1  0.66666667  0.88471150  0.12981481  1.0
  Ni  Ni414  1  0.10275633  0.11528850  0.20688206  1.0
  Ni  Ni415  1  0.10275633  0.44862183  0.20688206  1.0
  Ni  Ni416  1  0.10275633  0.78195517  0.20688206  1.0
  Ni  Ni417  1  0.43608967  0.11528850  0.20688206  1.0
  Ni  Ni418  1  0.43608967  0.44862183  0.20688206  1.0
  Ni  Ni419  1  0.43608967  0.78195517  0.20688206  1.0
  Ni  Ni420  1  0.76942300  0.11528850  0.20688206  1.0
  Ni  Ni421  1  0.76942300  0.44862183  0.20688206  1.0
  Ni  Ni422  1  0.76942300  0.78195517  0.20688206  1.0
  Ni  Ni423  1  0.10275633  0.28195517  0.08188206  1.0
  Ni  Ni424  1  0.10275633  0.61528850  0.08188206  1.0
  Ni  Ni425  1  0.10275633  0.94862183  0.08188206  1.0
  Ni  Ni426  1  0.43608967  0.28195517  0.08188206  1.0
  Ni  Ni427  1  0.43608967  0.61528850  0.08188206  1.0
  Ni  Ni428  1  0.43608967  0.94862183  0.08188206  1.0
  Ni  Ni429  1  0.76942300  0.28195517  0.08188206  1.0
  Ni  Ni430  1  0.76942300  0.61528850  0.08188206  1.0
  Ni  Ni431  1  0.76942300  0.94862183  0.08188206  1.0
  Ni  Ni432  1  0.21095567  0.16666667  0.01898894  1.0
  Ni  Ni433  1  0.21095567  0.50000000  0.01898894  1.0
  Ni  Ni434  1  0.21095567  0.83333333  0.01898894  1.0
  Ni  Ni435  1  0.54428900  0.16666667  0.01898894  1.0
  Ni  Ni436  1  0.54428900  0.50000000  0.01898894  1.0
  Ni  Ni437  1  0.54428900  0.83333333  0.01898894  1.0
  Ni  Ni438  1  0.87762233  0.16666667  0.01898894  1.0
  Ni  Ni439  1  0.87762233  0.50000000  0.01898894  1.0
  Ni  Ni440  1  0.87762233  0.83333333  0.01898894  1.0
  Ni  Ni441  1  0.21095567  0.00000000  0.14398894  1.0
  Ni  Ni442  1  0.21095567  0.33333333  0.14398894  1.0
  Ni  Ni443  1  0.21095567  0.66666667  0.14398894  1.0
  Ni  Ni444  1  0.54428900  0.00000000  0.14398894  1.0
  Ni  Ni445  1  0.54428900  0.33333333  0.14398894  1.0
  Ni  Ni446  1  0.54428900  0.66666667  0.14398894  1.0
  Ni  Ni447  1  0.87762233  0.00000000  0.14398894  1.0
  Ni  Ni448  1  0.87762233  0.33333333  0.14398894  1.0
  Ni  Ni449  1  0.87762233  0.66666667  0.14398894  1.0
  Ni  Ni450  1  0.00000000  0.06118883  0.09809731  1.0
  Ni  Ni451  1  0.00000000  0.39452217  0.09809731  1.0
  Ni  Ni452  1  0.00000000  0.72785550  0.09809731  1.0
  Ni  Ni453  1  0.33333333  0.06118883  0.09809731  1.0
  Ni  Ni454  1  0.33333333  0.39452217  0.09809731  1.0
  Ni  Ni455  1  0.33333333  0.72785550  0.09809731  1.0
  Ni  Ni456  1  0.66666667  0.06118883  0.09809731  1.0
  Ni  Ni457  1  0.66666667  0.39452217  0.09809731  1.0
  Ni  Ni458  1  0.66666667  0.72785550  0.09809731  1.0
  Ni  Ni459  1  0.00000000  0.22785550  0.22309731  1.0
  Ni  Ni460  1  0.00000000  0.56118883  0.22309731  1.0
  Ni  Ni461  1  0.00000000  0.89452217  0.22309731  1.0
  Ni  Ni462  1  0.33333333  0.22785550  0.22309731  1.0
  Ni  Ni463  1  0.33333333  0.56118883  0.22309731  1.0
  Ni  Ni464  1  0.33333333  0.89452217  0.22309731  1.0
  Ni  Ni465  1  0.66666667  0.22785550  0.22309731  1.0
  Ni  Ni466  1  0.66666667  0.56118883  0.22309731  1.0
  Ni  Ni467  1  0.66666667  0.89452217  0.22309731  1.0
  Ni  Ni468  1  0.12237767  0.10547783  0.06488056  1.0
  Ni  Ni469  1  0.12237767  0.43881117  0.06488056  1.0
  Ni  Ni470  1  0.12237767  0.77214450  0.06488056  1.0
  Ni  Ni471  1  0.45571100  0.10547783  0.06488056  1.0
  Ni  Ni472  1  0.45571100  0.43881117  0.06488056  1.0
  Ni  Ni473  1  0.45571100  0.77214450  0.06488056  1.0
  Ni  Ni474  1  0.78904433  0.10547783  0.06488056  1.0
  Ni  Ni475  1  0.78904433  0.43881117  0.06488056  1.0
  Ni  Ni476  1  0.78904433  0.77214450  0.06488056  1.0
  Ni  Ni477  1  0.12237767  0.27214450  0.18988056  1.0
  Ni  Ni478  1  0.12237767  0.60547783  0.18988056  1.0
  Ni  Ni479  1  0.12237767  0.93881117  0.18988056  1.0
  Ni  Ni480  1  0.45571100  0.27214450  0.18988056  1.0
  Ni  Ni481  1  0.45571100  0.60547783  0.18988056  1.0
  Ni  Ni482  1  0.45571100  0.93881117  0.18988056  1.0
  Ni  Ni483  1  0.78904433  0.27214450  0.18988056  1.0
  Ni  Ni484  1  0.78904433  0.60547783  0.18988056  1.0
  Ni  Ni485  1  0.78904433  0.93881117  0.18988056  1.0
  Ni  Ni486  1  0.12237767  0.16666667  0.14398894  1.0
  Ni  Ni487  1  0.12237767  0.50000000  0.14398894  1.0
  Ni  Ni488  1  0.12237767  0.83333333  0.14398894  1.0
  Ni  Ni489  1  0.45571100  0.16666667  0.14398894  1.0
  Ni  Ni490  1  0.45571100  0.50000000  0.14398894  1.0
  Ni  Ni491  1  0.45571100  0.83333333  0.14398894  1.0
  Ni  Ni492  1  0.78904433  0.16666667  0.14398894  1.0
  Ni  Ni493  1  0.78904433  0.50000000  0.14398894  1.0
  Ni  Ni494  1  0.78904433  0.83333333  0.14398894  1.0
  Ni  Ni495  1  0.12237767  0.00000000  0.01898894  1.0
  Ni  Ni496  1  0.12237767  0.33333333  0.01898894  1.0
  Ni  Ni497  1  0.12237767  0.66666667  0.01898894  1.0
  Ni  Ni498  1  0.45571100  0.00000000  0.01898894  1.0
  Ni  Ni499  1  0.45571100  0.33333333  0.01898894  1.0
  Ni  Ni500  1  0.45571100  0.66666667  0.01898894  1.0
  Ni  Ni501  1  0.78904433  0.00000000  0.01898894  1.0
  Ni  Ni502  1  0.78904433  0.33333333  0.01898894  1.0
  Ni  Ni503  1  0.78904433  0.66666667  0.01898894  1.0
  Ni  Ni504  1  0.00000000  0.10547783  0.18988056  1.0
  Ni  Ni505  1  0.00000000  0.43881117  0.18988056  1.0
  Ni  Ni506  1  0.00000000  0.77214450  0.18988056  1.0
  Ni  Ni507  1  0.33333333  0.10547783  0.18988056  1.0
  Ni  Ni508  1  0.33333333  0.43881117  0.18988056  1.0
  Ni  Ni509  1  0.33333333  0.77214450  0.18988056  1.0
  Ni  Ni510  1  0.66666667  0.10547783  0.18988056  1.0
  Ni  Ni511  1  0.66666667  0.43881117  0.18988056  1.0
  Ni  Ni512  1  0.66666667  0.77214450  0.18988056  1.0
  Ni  Ni513  1  0.00000000  0.27214450  0.06488056  1.0
  Ni  Ni514  1  0.00000000  0.60547783  0.06488056  1.0
  Ni  Ni515  1  0.00000000  0.93881117  0.06488056  1.0
  Ni  Ni516  1  0.33333333  0.27214450  0.06488056  1.0
  Ni  Ni517  1  0.33333333  0.60547783  0.06488056  1.0
  Ni  Ni518  1  0.33333333  0.93881117  0.06488056  1.0
  Ni  Ni519  1  0.66666667  0.27214450  0.06488056  1.0
  Ni  Ni520  1  0.66666667  0.60547783  0.06488056  1.0
  Ni  Ni521  1  0.66666667  0.93881117  0.06488056  1.0
  Ni  Ni522  1  0.21095567  0.06118883  0.22309731  1.0
  Ni  Ni523  1  0.21095567  0.39452217  0.22309731  1.0
  Ni  Ni524  1  0.21095567  0.72785550  0.22309731  1.0
  Ni  Ni525  1  0.54428900  0.06118883  0.22309731  1.0
  Ni  Ni526  1  0.54428900  0.39452217  0.22309731  1.0
  Ni  Ni527  1  0.54428900  0.72785550  0.22309731  1.0
  Ni  Ni528  1  0.87762233  0.06118883  0.22309731  1.0
  Ni  Ni529  1  0.87762233  0.39452217  0.22309731  1.0
  Ni  Ni530  1  0.87762233  0.72785550  0.22309731  1.0
  Ni  Ni531  1  0.21095567  0.22785550  0.09809731  1.0
  Ni  Ni532  1  0.21095567  0.56118883  0.09809731  1.0
  Ni  Ni533  1  0.21095567  0.89452217  0.09809731  1.0
  Ni  Ni534  1  0.54428900  0.22785550  0.09809731  1.0
  Ni  Ni535  1  0.54428900  0.56118883  0.09809731  1.0
  Ni  Ni536  1  0.54428900  0.89452217  0.09809731  1.0
  Ni  Ni537  1  0.87762233  0.22785550  0.09809731  1.0
  Ni  Ni538  1  0.87762233  0.56118883  0.09809731  1.0
  Ni  Ni539  1  0.87762233  0.89452217  0.09809731  1.0
  Ge  Ge540  1  0.00000000  0.16666667  0.06321269  1.0
  Ge  Ge541  1  0.00000000  0.50000000  0.06321269  1.0
  Ge  Ge542  1  1.00000000  0.83333333  0.06321269  1.0
  Ge  Ge543  1  0.33333333  0.16666667  0.06321269  1.0
  Ge  Ge544  1  0.33333333  0.50000000  0.06321269  1.0
  Ge  Ge545  1  0.33333333  0.83333333  0.06321269  1.0
  Ge  Ge546  1  0.66666667  0.16666667  0.06321269  1.0
  Ge  Ge547  1  0.66666667  0.50000000  0.06321269  1.0
  Ge  Ge548  1  0.66666667  0.83333333  0.06321269  1.0
  Ge  Ge549  1  0.00000000  0.00000000  0.18821269  1.0
  Ge  Ge550  1  0.00000000  0.33333333  0.18821269  1.0
  Ge  Ge551  1  0.00000000  0.66666667  0.18821269  1.0
  Ge  Ge552  1  0.33333333  0.00000000  0.18821269  1.0
  Ge  Ge553  1  0.33333333  0.33333333  0.18821269  1.0
  Ge  Ge554  1  0.33333333  0.66666667  0.18821269  1.0
  Ge  Ge555  1  0.66666667  0.00000000  0.18821269  1.0
  Ge  Ge556  1  0.66666667  0.33333333  0.18821269  1.0
  Ge  Ge557  1  0.66666667  0.66666667  0.18821269  1.0
  Ge  Ge558  1  0.00000000  0.16666667  0.18821269  1.0
  Ge  Ge559  1  0.00000000  0.50000000  0.18821269  1.0
  Ge  Ge560  1  1.00000000  0.83333333  0.18821269  1.0
  Ge  Ge561  1  0.33333333  0.16666667  0.18821269  1.0
  Ge  Ge562  1  0.33333333  0.50000000  0.18821269  1.0
  Ge  Ge563  1  0.33333333  0.83333333  0.18821269  1.0
  Ge  Ge564  1  0.66666667  0.16666667  0.18821269  1.0
  Ge  Ge565  1  0.66666667  0.50000000  0.18821269  1.0
  Ge  Ge566  1  0.66666667  0.83333333  0.18821269  1.0
  Ge  Ge567  1  0.00000000  0.00000000  0.06321269  1.0
  Ge  Ge568  1  0.00000000  0.33333333  0.06321269  1.0
  Ge  Ge569  1  0.00000000  0.66666667  0.06321269  1.0
  Ge  Ge570  1  0.33333333  0.00000000  0.06321269  1.0
  Ge  Ge571  1  0.33333333  0.33333333  0.06321269  1.0
  Ge  Ge572  1  0.33333333  0.66666667  0.06321269  1.0
  Ge  Ge573  1  0.66666667  0.00000000  0.06321269  1.0
  Ge  Ge574  1  0.66666667  0.33333333  0.06321269  1.0
  Ge  Ge575  1  0.66666667  0.66666667  0.06321269  1.0
  Ge  Ge576  1  0.22222222  0.11111111  0.09129085  1.0
  Ge  Ge577  1  0.22222222  0.44444444  0.09129085  1.0
  Ge  Ge578  1  0.22222222  0.77777778  0.09129085  1.0
  Ge  Ge579  1  0.55555556  0.11111111  0.09129085  1.0
  Ge  Ge580  1  0.55555556  0.44444444  0.09129085  1.0
  Ge  Ge581  1  0.55555556  0.77777778  0.09129085  1.0
  Ge  Ge582  1  0.88888889  0.11111111  0.09129085  1.0
  Ge  Ge583  1  0.88888889  0.44444444  0.09129085  1.0
  Ge  Ge584  1  0.88888889  0.77777778  0.09129085  1.0
  Ge  Ge585  1  0.22222222  0.27777778  0.21629085  1.0
  Ge  Ge586  1  0.22222222  0.61111111  0.21629085  1.0
  Ge  Ge587  1  0.22222222  0.94444444  0.21629085  1.0
  Ge  Ge588  1  0.55555556  0.27777778  0.21629085  1.0
  Ge  Ge589  1  0.55555556  0.61111111  0.21629085  1.0
  Ge  Ge590  1  0.55555556  0.94444444  0.21629085  1.0
  Ge  Ge591  1  0.88888889  0.27777778  0.21629085  1.0
  Ge  Ge592  1  0.88888889  0.61111111  0.21629085  1.0
  Ge  Ge593  1  0.88888889  0.94444444  0.21629085  1.0
  Ge  Ge594  1  0.11111111  0.05555556  0.13295752  1.0
  Ge  Ge595  1  0.11111111  0.38888889  0.13295752  1.0
  Ge  Ge596  1  0.11111111  0.72222222  0.13295752  1.0
  Ge  Ge597  1  0.44444444  0.05555556  0.13295752  1.0
  Ge  Ge598  1  0.44444444  0.38888889  0.13295752  1.0
  Ge  Ge599  1  0.44444444  0.72222222  0.13295752  1.0
  Ge  Ge600  1  0.77777778  0.05555556  0.13295752  1.0
  Ge  Ge601  1  0.77777778  0.38888889  0.13295752  1.0
  Ge  Ge602  1  0.77777778  0.72222222  0.13295752  1.0
  Ge  Ge603  1  0.11111111  0.22222222  0.00795752  1.0
  Ge  Ge604  1  0.11111111  0.55555556  0.00795752  1.0
  Ge  Ge605  1  0.11111111  0.88888889  0.00795752  1.0
  Ge  Ge606  1  0.44444444  0.22222222  0.00795752  1.0
  Ge  Ge607  1  0.44444444  0.55555556  0.00795752  1.0
  Ge  Ge608  1  0.44444444  0.88888889  0.00795752  1.0
  Ge  Ge609  1  0.77777778  0.22222222  0.00795752  1.0
  Ge  Ge610  1  0.77777778  0.55555556  0.00795752  1.0
  Ge  Ge611  1  0.77777778  0.88888889  0.00795752  1.0
  Ge  Ge612  1  0.11111111  0.05555556  0.00795752  1.0
  Ge  Ge613  1  0.11111111  0.38888889  0.00795752  1.0
  Ge  Ge614  1  0.11111111  0.72222222  0.00795752  1.0
  Ge  Ge615  1  0.44444444  0.05555556  0.00795752  1.0
  Ge  Ge616  1  0.44444444  0.38888889  0.00795752  1.0
  Ge  Ge617  1  0.44444444  0.72222222  0.00795752  1.0
  Ge  Ge618  1  0.77777778  0.05555556  0.00795752  1.0
  Ge  Ge619  1  0.77777778  0.38888889  0.00795752  1.0
  Ge  Ge620  1  0.77777778  0.72222222  0.00795752  1.0
  Ge  Ge621  1  0.11111111  0.22222222  0.13295752  1.0
  Ge  Ge622  1  0.11111111  0.55555556  0.13295752  1.0
  Ge  Ge623  1  0.11111111  0.88888889  0.13295752  1.0
  Ge  Ge624  1  0.44444444  0.22222222  0.13295752  1.0
  Ge  Ge625  1  0.44444444  0.55555556  0.13295752  1.0
  Ge  Ge626  1  0.44444444  0.88888889  0.13295752  1.0
  Ge  Ge627  1  0.77777778  0.22222222  0.13295752  1.0
  Ge  Ge628  1  0.77777778  0.55555556  0.13295752  1.0
  Ge  Ge629  1  0.77777778  0.88888889  0.13295752  1.0
  Ge  Ge630  1  0.22222222  0.11111111  0.21629085  1.0
  Ge  Ge631  1  0.22222222  0.44444444  0.21629085  1.0
  Ge  Ge632  1  0.22222222  0.77777778  0.21629085  1.0
  Ge  Ge633  1  0.55555556  0.11111111  0.21629085  1.0
  Ge  Ge634  1  0.55555556  0.44444444  0.21629085  1.0
  Ge  Ge635  1  0.55555556  0.77777778  0.21629085  1.0
  Ge  Ge636  1  0.88888889  0.11111111  0.21629085  1.0
  Ge  Ge637  1  0.88888889  0.44444444  0.21629085  1.0
  Ge  Ge638  1  0.88888889  0.77777778  0.21629085  1.0
  Ge  Ge639  1  0.22222222  0.27777778  0.09129085  1.0
  Ge  Ge640  1  0.22222222  0.61111111  0.09129085  1.0
  Ge  Ge641  1  0.22222222  0.94444444  0.09129085  1.0
  Ge  Ge642  1  0.55555556  0.27777778  0.09129085  1.0
  Ge  Ge643  1  0.55555556  0.61111111  0.09129085  1.0
  Ge  Ge644  1  0.55555556  0.94444444  0.09129085  1.0
  Ge  Ge645  1  0.88888889  0.27777778  0.09129085  1.0
  Ge  Ge646  1  0.88888889  0.61111111  0.09129085  1.0
  Ge  Ge647  1  0.88888889  0.94444444  0.09129085  1.0
  Ge  Ge648  1  0.22184833  0.16666667  0.12018519  1.0
  Ge  Ge649  1  0.22184833  0.50000000  0.12018519  1.0
  Ge  Ge650  1  0.22184833  0.83333333  0.12018519  1.0
  Ge  Ge651  1  0.55518167  0.16666667  0.12018519  1.0
  Ge  Ge652  1  0.55518167  0.50000000  0.12018519  1.0
  Ge  Ge653  1  0.55518167  0.83333333  0.12018519  1.0
  Ge  Ge654  1  0.88851500  0.16666667  0.12018519  1.0
  Ge  Ge655  1  0.88851500  0.50000000  0.12018519  1.0
  Ge  Ge656  1  0.88851500  0.83333333  0.12018519  1.0
  Ge  Ge657  1  0.22184833  0.00000000  0.24518519  1.0
  Ge  Ge658  1  0.22184833  0.33333333  0.24518519  1.0
  Ge  Ge659  1  0.22184833  0.66666667  0.24518519  1.0
  Ge  Ge660  1  0.55518167  0.00000000  0.24518519  1.0
  Ge  Ge661  1  0.55518167  0.33333333  0.24518519  1.0
  Ge  Ge662  1  0.55518167  0.66666667  0.24518519  1.0
  Ge  Ge663  1  0.88851500  0.00000000  0.24518519  1.0
  Ge  Ge664  1  0.88851500  0.33333333  0.24518519  1.0
  Ge  Ge665  1  0.88851500  0.66666667  0.24518519  1.0
  Ge  Ge666  1  0.00000000  0.05574250  0.20337831  1.0
  Ge  Ge667  1  0.00000000  0.38907583  0.20337831  1.0
  Ge  Ge668  1  0.00000000  0.72240917  0.20337831  1.0
  Ge  Ge669  1  0.33333333  0.05574250  0.20337831  1.0
  Ge  Ge670  1  0.33333333  0.38907583  0.20337831  1.0
  Ge  Ge671  1  0.33333333  0.72240917  0.20337831  1.0
  Ge  Ge672  1  0.66666667  0.05574250  0.20337831  1.0
  Ge  Ge673  1  0.66666667  0.38907583  0.20337831  1.0
  Ge  Ge674  1  0.66666667  0.72240917  0.20337831  1.0
  Ge  Ge675  1  0.00000000  0.22240917  0.07837831  1.0
  Ge  Ge676  1  0.00000000  0.55574250  0.07837831  1.0
  Ge  Ge677  1  0.00000000  0.88907583  0.07837831  1.0
  Ge  Ge678  1  0.33333333  0.22240917  0.07837831  1.0
  Ge  Ge679  1  0.33333333  0.55574250  0.07837831  1.0
  Ge  Ge680  1  0.33333333  0.88907583  0.07837831  1.0
  Ge  Ge681  1  0.66666667  0.22240917  0.07837831  1.0
  Ge  Ge682  1  0.66666667  0.55574250  0.07837831  1.0
  Ge  Ge683  1  0.66666667  0.88907583  0.07837831  1.0
  Ge  Ge684  1  0.11148500  0.11092417  0.16199206  1.0
  Ge  Ge685  1  0.11148500  0.44425750  0.16199206  1.0
  Ge  Ge686  1  0.11148500  0.77759083  0.16199206  1.0
  Ge  Ge687  1  0.44481833  0.11092417  0.16199206  1.0
  Ge  Ge688  1  0.44481833  0.44425750  0.16199206  1.0
  Ge  Ge689  1  0.44481833  0.77759083  0.16199206  1.0
  Ge  Ge690  1  0.77815167  0.11092417  0.16199206  1.0
  Ge  Ge691  1  0.77815167  0.44425750  0.16199206  1.0
  Ge  Ge692  1  0.77815167  0.77759083  0.16199206  1.0
  Ge  Ge693  1  0.11148500  0.27759083  0.03699206  1.0
  Ge  Ge694  1  0.11148500  0.61092417  0.03699206  1.0
  Ge  Ge695  1  0.11148500  0.94425750  0.03699206  1.0
  Ge  Ge696  1  0.44481833  0.27759083  0.03699206  1.0
  Ge  Ge697  1  0.44481833  0.61092417  0.03699206  1.0
  Ge  Ge698  1  0.44481833  0.94425750  0.03699206  1.0
  Ge  Ge699  1  0.77815167  0.27759083  0.03699206  1.0
  Ge  Ge700  1  0.77815167  0.61092417  0.03699206  1.0
  Ge  Ge701  1  0.77815167  0.94425750  0.03699206  1.0
  Ge  Ge702  1  0.11148500  0.16666667  0.24518519  1.0
  Ge  Ge703  1  0.11148500  0.50000000  0.24518519  1.0
  Ge  Ge704  1  0.11148500  0.83333333  0.24518519  1.0
  Ge  Ge705  1  0.44481833  0.16666667  0.24518519  1.0
  Ge  Ge706  1  0.44481833  0.50000000  0.24518519  1.0
  Ge  Ge707  1  0.44481833  0.83333333  0.24518519  1.0
  Ge  Ge708  1  0.77815167  0.16666667  0.24518519  1.0
  Ge  Ge709  1  0.77815167  0.50000000  0.24518519  1.0
  Ge  Ge710  1  0.77815167  0.83333333  0.24518519  1.0
  Ge  Ge711  1  0.11148500  0.00000000  0.12018519  1.0
  Ge  Ge712  1  0.11148500  0.33333333  0.12018519  1.0
  Ge  Ge713  1  0.11148500  0.66666667  0.12018519  1.0
  Ge  Ge714  1  0.44481833  0.00000000  0.12018519  1.0
  Ge  Ge715  1  0.44481833  0.33333333  0.12018519  1.0
  Ge  Ge716  1  0.44481833  0.66666667  0.12018519  1.0
  Ge  Ge717  1  0.77815167  0.00000000  0.12018519  1.0
  Ge  Ge718  1  0.77815167  0.33333333  0.12018519  1.0
  Ge  Ge719  1  0.77815167  0.66666667  0.12018519  1.0
  Ge  Ge720  1  0.00000000  0.11092417  0.03699206  1.0
  Ge  Ge721  1  0.00000000  0.44425750  0.03699206  1.0
  Ge  Ge722  1  0.00000000  0.77759083  0.03699206  1.0
  Ge  Ge723  1  0.33333333  0.11092417  0.03699206  1.0
  Ge  Ge724  1  0.33333333  0.44425750  0.03699206  1.0
  Ge  Ge725  1  0.33333333  0.77759083  0.03699206  1.0
  Ge  Ge726  1  0.66666667  0.11092417  0.03699206  1.0
  Ge  Ge727  1  0.66666667  0.44425750  0.03699206  1.0
  Ge  Ge728  1  0.66666667  0.77759083  0.03699206  1.0
  Ge  Ge729  1  0.00000000  0.27759083  0.16199206  1.0
  Ge  Ge730  1  0.00000000  0.61092417  0.16199206  1.0
  Ge  Ge731  1  0.00000000  0.94425750  0.16199206  1.0
  Ge  Ge732  1  0.33333333  0.27759083  0.16199206  1.0
  Ge  Ge733  1  0.33333333  0.61092417  0.16199206  1.0
  Ge  Ge734  1  0.33333333  0.94425750  0.16199206  1.0
  Ge  Ge735  1  0.66666667  0.27759083  0.16199206  1.0
  Ge  Ge736  1  0.66666667  0.61092417  0.16199206  1.0
  Ge  Ge737  1  0.66666667  0.94425750  0.16199206  1.0
  Ge  Ge738  1  0.22184833  0.05574250  0.07837831  1.0
  Ge  Ge739  1  0.22184833  0.38907583  0.07837831  1.0
  Ge  Ge740  1  0.22184833  0.72240917  0.07837831  1.0
  Ge  Ge741  1  0.55518167  0.05574250  0.07837831  1.0
  Ge  Ge742  1  0.55518167  0.38907583  0.07837831  1.0
  Ge  Ge743  1  0.55518167  0.72240917  0.07837831  1.0
  Ge  Ge744  1  0.88851500  0.05574250  0.07837831  1.0
  Ge  Ge745  1  0.88851500  0.38907583  0.07837831  1.0
  Ge  Ge746  1  0.88851500  0.72240917  0.07837831  1.0
  Ge  Ge747  1  0.22184833  0.22240917  0.20337831  1.0
  Ge  Ge748  1  0.22184833  0.55574250  0.20337831  1.0
  Ge  Ge749  1  0.22184833  0.88907583  0.20337831  1.0
  Ge  Ge750  1  0.55518167  0.22240917  0.20337831  1.0
  Ge  Ge751  1  0.55518167  0.55574250  0.20337831  1.0
  Ge  Ge752  1  0.55518167  0.88907583  0.20337831  1.0
  Ge  Ge753  1  0.88851500  0.22240917  0.20337831  1.0
  Ge  Ge754  1  0.88851500  0.55574250  0.20337831  1.0
  Ge  Ge755  1  0.88851500  0.88907583  0.20337831  1.0
  Ni  Ni756  1  0.00000000  0.16666667  0.38732219  1.0
  Ni  Ni757  1  0.00000000  0.50000000  0.38732219  1.0
  Ni  Ni758  1  1.00000000  0.83333333  0.38732219  1.0
  Ni  Ni759  1  0.33333333  0.16666667  0.38732219  1.0
  Ni  Ni760  1  0.33333333  0.50000000  0.38732219  1.0
  Ni  Ni761  1  0.33333333  0.83333333  0.38732219  1.0
  Ni  Ni762  1  0.66666667  0.16666667  0.38732219  1.0
  Ni  Ni763  1  0.66666667  0.50000000  0.38732219  1.0
  Ni  Ni764  1  0.66666667  0.83333333  0.38732219  1.0
  Ni  Ni765  1  0.00000000  0.00000000  0.26232219  1.0
  Ni  Ni766  1  0.00000000  0.33333333  0.26232219  1.0
  Ni  Ni767  1  0.00000000  0.66666667  0.26232219  1.0
  Ni  Ni768  1  0.33333333  0.00000000  0.26232219  1.0
  Ni  Ni769  1  0.33333333  0.33333333  0.26232219  1.0
  Ni  Ni770  1  0.33333333  0.66666667  0.26232219  1.0
  Ni  Ni771  1  0.66666667  0.00000000  0.26232219  1.0
  Ni  Ni772  1  0.66666667  0.33333333  0.26232219  1.0
  Ni  Ni773  1  0.66666667  0.66666667  0.26232219  1.0
  Ni  Ni774  1  0.00000000  0.16666667  0.26232219  1.0
  Ni  Ni775  1  0.00000000  0.50000000  0.26232219  1.0
  Ni  Ni776  1  1.00000000  0.83333333  0.26232219  1.0
  Ni  Ni777  1  0.33333333  0.16666667  0.26232219  1.0
  Ni  Ni778  1  0.33333333  0.50000000  0.26232219  1.0
  Ni  Ni779  1  0.33333333  0.83333333  0.26232219  1.0
  Ni  Ni780  1  0.66666667  0.16666667  0.26232219  1.0
  Ni  Ni781  1  0.66666667  0.50000000  0.26232219  1.0
  Ni  Ni782  1  0.66666667  0.83333333  0.26232219  1.0
  Ni  Ni783  1  0.00000000  0.00000000  0.38732219  1.0
  Ni  Ni784  1  0.00000000  0.33333333  0.38732219  1.0
  Ni  Ni785  1  0.00000000  0.66666667  0.38732219  1.0
  Ni  Ni786  1  0.33333333  0.00000000  0.38732219  1.0
  Ni  Ni787  1  0.33333333  0.33333333  0.38732219  1.0
  Ni  Ni788  1  0.33333333  0.66666667  0.38732219  1.0
  Ni  Ni789  1  0.66666667  0.00000000  0.38732219  1.0
  Ni  Ni790  1  0.66666667  0.33333333  0.38732219  1.0
  Ni  Ni791  1  0.66666667  0.66666667  0.38732219  1.0
  Ni  Ni792  1  0.22222222  0.11111111  0.39289510  1.0
  Ni  Ni793  1  0.22222222  0.44444444  0.39289510  1.0
  Ni  Ni794  1  0.22222222  0.77777778  0.39289510  1.0
  Ni  Ni795  1  0.55555556  0.11111111  0.39289510  1.0
  Ni  Ni796  1  0.55555556  0.44444444  0.39289510  1.0
  Ni  Ni797  1  0.55555556  0.77777778  0.39289510  1.0
  Ni  Ni798  1  0.88888889  0.11111111  0.39289510  1.0
  Ni  Ni799  1  0.88888889  0.44444444  0.39289510  1.0
  Ni  Ni800  1  0.88888889  0.77777778  0.39289510  1.0
  Ni  Ni801  1  0.22222222  0.27777778  0.26789510  1.0
  Ni  Ni802  1  0.22222222  0.61111111  0.26789510  1.0
  Ni  Ni803  1  0.22222222  0.94444444  0.26789510  1.0
  Ni  Ni804  1  0.55555556  0.27777778  0.26789510  1.0
  Ni  Ni805  1  0.55555556  0.61111111  0.26789510  1.0
  Ni  Ni806  1  0.55555556  0.94444444  0.26789510  1.0
  Ni  Ni807  1  0.88888889  0.27777778  0.26789510  1.0
  Ni  Ni808  1  0.88888889  0.61111111  0.26789510  1.0
  Ni  Ni809  1  0.88888889  0.94444444  0.26789510  1.0
  Ni  Ni810  1  0.11111111  0.05555556  0.43456177  1.0
  Ni  Ni811  1  0.11111111  0.38888889  0.43456177  1.0
  Ni  Ni812  1  0.11111111  0.72222222  0.43456177  1.0
  Ni  Ni813  1  0.44444444  0.05555556  0.43456177  1.0
  Ni  Ni814  1  0.44444444  0.38888889  0.43456177  1.0
  Ni  Ni815  1  0.44444444  0.72222222  0.43456177  1.0
  Ni  Ni816  1  0.77777778  0.05555556  0.43456177  1.0
  Ni  Ni817  1  0.77777778  0.38888889  0.43456177  1.0
  Ni  Ni818  1  0.77777778  0.72222222  0.43456177  1.0
  Ni  Ni819  1  0.11111111  0.22222222  0.30956177  1.0
  Ni  Ni820  1  0.11111111  0.55555556  0.30956177  1.0
  Ni  Ni821  1  0.11111111  0.88888889  0.30956177  1.0
  Ni  Ni822  1  0.44444444  0.22222222  0.30956177  1.0
  Ni  Ni823  1  0.44444444  0.55555556  0.30956177  1.0
  Ni  Ni824  1  0.44444444  0.88888889  0.30956177  1.0
  Ni  Ni825  1  0.77777778  0.22222222  0.30956177  1.0
  Ni  Ni826  1  0.77777778  0.55555556  0.30956177  1.0
  Ni  Ni827  1  0.77777778  0.88888889  0.30956177  1.0
  Ni  Ni828  1  0.11111111  0.05555556  0.30956177  1.0
  Ni  Ni829  1  0.11111111  0.38888889  0.30956177  1.0
  Ni  Ni830  1  0.11111111  0.72222222  0.30956177  1.0
  Ni  Ni831  1  0.44444444  0.05555556  0.30956177  1.0
  Ni  Ni832  1  0.44444444  0.38888889  0.30956177  1.0
  Ni  Ni833  1  0.44444444  0.72222222  0.30956177  1.0
  Ni  Ni834  1  0.77777778  0.05555556  0.30956177  1.0
  Ni  Ni835  1  0.77777778  0.38888889  0.30956177  1.0
  Ni  Ni836  1  0.77777778  0.72222222  0.30956177  1.0
  Ni  Ni837  1  0.11111111  0.22222222  0.43456177  1.0
  Ni  Ni838  1  0.11111111  0.55555556  0.43456177  1.0
  Ni  Ni839  1  0.11111111  0.88888889  0.43456177  1.0
  Ni  Ni840  1  0.44444444  0.22222222  0.43456177  1.0
  Ni  Ni841  1  0.44444444  0.55555556  0.43456177  1.0
  Ni  Ni842  1  0.44444444  0.88888889  0.43456177  1.0
  Ni  Ni843  1  0.77777778  0.22222222  0.43456177  1.0
  Ni  Ni844  1  0.77777778  0.55555556  0.43456177  1.0
  Ni  Ni845  1  0.77777778  0.88888889  0.43456177  1.0
  Ni  Ni846  1  0.22222222  0.11111111  0.26789510  1.0
  Ni  Ni847  1  0.22222222  0.44444444  0.26789510  1.0
  Ni  Ni848  1  0.22222222  0.77777778  0.26789510  1.0
  Ni  Ni849  1  0.55555556  0.11111111  0.26789510  1.0
  Ni  Ni850  1  0.55555556  0.44444444  0.26789510  1.0
  Ni  Ni851  1  0.55555556  0.77777778  0.26789510  1.0
  Ni  Ni852  1  0.88888889  0.11111111  0.26789510  1.0
  Ni  Ni853  1  0.88888889  0.44444444  0.26789510  1.0
  Ni  Ni854  1  0.88888889  0.77777778  0.26789510  1.0
  Ni  Ni855  1  0.22222222  0.27777778  0.39289510  1.0
  Ni  Ni856  1  0.22222222  0.61111111  0.39289510  1.0
  Ni  Ni857  1  0.22222222  0.94444444  0.39289510  1.0
  Ni  Ni858  1  0.55555556  0.27777778  0.39289510  1.0
  Ni  Ni859  1  0.55555556  0.61111111  0.39289510  1.0
  Ni  Ni860  1  0.55555556  0.94444444  0.39289510  1.0
  Ni  Ni861  1  0.88888889  0.27777778  0.39289510  1.0
  Ni  Ni862  1  0.88888889  0.61111111  0.39289510  1.0
  Ni  Ni863  1  0.88888889  0.94444444  0.39289510  1.0
  Ni  Ni864  1  0.08826400  0.16666667  0.34524644  1.0
  Ni  Ni865  1  0.08826400  0.50000000  0.34524644  1.0
  Ni  Ni866  1  0.08826400  0.83333333  0.34524644  1.0
  Ni  Ni867  1  0.42159733  0.16666667  0.34524644  1.0
  Ni  Ni868  1  0.42159733  0.50000000  0.34524644  1.0
  Ni  Ni869  1  0.42159733  0.83333333  0.34524644  1.0
  Ni  Ni870  1  0.75493067  0.16666667  0.34524644  1.0
  Ni  Ni871  1  0.75493067  0.50000000  0.34524644  1.0
  Ni  Ni872  1  0.75493067  0.83333333  0.34524644  1.0
  Ni  Ni873  1  0.08826400  0.00000000  0.47024644  1.0
  Ni  Ni874  1  0.08826400  0.33333333  0.47024644  1.0
  Ni  Ni875  1  0.08826400  0.66666667  0.47024644  1.0
  Ni  Ni876  1  0.42159733  0.00000000  0.47024644  1.0
  Ni  Ni877  1  0.42159733  0.33333333  0.47024644  1.0
  Ni  Ni878  1  0.42159733  0.66666667  0.47024644  1.0
  Ni  Ni879  1  0.75493067  0.00000000  0.47024644  1.0
  Ni  Ni880  1  0.75493067  0.33333333  0.47024644  1.0
  Ni  Ni881  1  0.75493067  0.66666667  0.47024644  1.0
  Ni  Ni882  1  0.00000000  0.12253467  0.37834544  1.0
  Ni  Ni883  1  0.00000000  0.45586800  0.37834544  1.0
  Ni  Ni884  1  0.00000000  0.78920133  0.37834544  1.0
  Ni  Ni885  1  0.33333333  0.12253467  0.37834544  1.0
  Ni  Ni886  1  0.33333333  0.45586800  0.37834544  1.0
  Ni  Ni887  1  0.33333333  0.78920133  0.37834544  1.0
  Ni  Ni888  1  0.66666667  0.12253467  0.37834544  1.0
  Ni  Ni889  1  0.66666667  0.45586800  0.37834544  1.0
  Ni  Ni890  1  0.66666667  0.78920133  0.37834544  1.0
  Ni  Ni891  1  0.00000000  0.28920133  0.25334544  1.0
  Ni  Ni892  1  0.00000000  0.62253467  0.25334544  1.0
  Ni  Ni893  1  0.00000000  0.95586800  0.25334544  1.0
  Ni  Ni894  1  0.33333333  0.28920133  0.25334544  1.0
  Ni  Ni895  1  0.33333333  0.62253467  0.25334544  1.0
  Ni  Ni896  1  0.33333333  0.95586800  0.25334544  1.0
  Ni  Ni897  1  0.66666667  0.28920133  0.25334544  1.0
  Ni  Ni898  1  0.66666667  0.62253467  0.25334544  1.0
  Ni  Ni899  1  0.66666667  0.95586800  0.25334544  1.0
  Ni  Ni900  1  0.24506933  0.04413200  0.43714744  1.0
  Ni  Ni901  1  0.24506933  0.37746533  0.43714744  1.0
  Ni  Ni902  1  0.24506933  0.71079867  0.43714744  1.0
  Ni  Ni903  1  0.57840267  0.04413200  0.43714744  1.0
  Ni  Ni904  1  0.57840267  0.37746533  0.43714744  1.0
  Ni  Ni905  1  0.57840267  0.71079867  0.43714744  1.0
  Ni  Ni906  1  0.91173600  0.04413200  0.43714744  1.0
  Ni  Ni907  1  0.91173600  0.37746533  0.43714744  1.0
  Ni  Ni908  1  0.91173600  0.71079867  0.43714744  1.0
  Ni  Ni909  1  0.24506933  0.21079867  0.31214744  1.0
  Ni  Ni910  1  0.24506933  0.54413200  0.31214744  1.0
  Ni  Ni911  1  0.24506933  0.87746533  0.31214744  1.0
  Ni  Ni912  1  0.57840267  0.21079867  0.31214744  1.0
  Ni  Ni913  1  0.57840267  0.54413200  0.31214744  1.0
  Ni  Ni914  1  0.57840267  0.87746533  0.31214744  1.0
  Ni  Ni915  1  0.91173600  0.21079867  0.31214744  1.0
  Ni  Ni916  1  0.91173600  0.54413200  0.31214744  1.0
  Ni  Ni917  1  0.91173600  0.87746533  0.31214744  1.0
  Ni  Ni918  1  0.24506933  0.16666667  0.47024644  1.0
  Ni  Ni919  1  0.24506933  0.50000000  0.47024644  1.0
  Ni  Ni920  1  0.24506933  0.83333333  0.47024644  1.0
  Ni  Ni921  1  0.57840267  0.16666667  0.47024644  1.0
  Ni  Ni922  1  0.57840267  0.50000000  0.47024644  1.0
  Ni  Ni923  1  0.57840267  0.83333333  0.47024644  1.0
  Ni  Ni924  1  0.91173600  0.16666667  0.47024644  1.0
  Ni  Ni925  1  0.91173600  0.50000000  0.47024644  1.0
  Ni  Ni926  1  0.91173600  0.83333333  0.47024644  1.0
  Ni  Ni927  1  0.24506933  0.00000000  0.34524644  1.0
  Ni  Ni928  1  0.24506933  0.33333333  0.34524644  1.0
  Ni  Ni929  1  0.24506933  0.66666667  0.34524644  1.0
  Ni  Ni930  1  0.57840267  0.00000000  0.34524644  1.0
  Ni  Ni931  1  0.57840267  0.33333333  0.34524644  1.0
  Ni  Ni932  1  0.57840267  0.66666667  0.34524644  1.0
  Ni  Ni933  1  0.91173600  0.00000000  0.34524644  1.0
  Ni  Ni934  1  0.91173600  0.33333333  0.34524644  1.0
  Ni  Ni935  1  0.91173600  0.66666667  0.34524644  1.0
  Ni  Ni936  1  0.00000000  0.04413200  0.31214744  1.0
  Ni  Ni937  1  0.00000000  0.37746533  0.31214744  1.0
  Ni  Ni938  1  0.00000000  0.71079867  0.31214744  1.0
  Ni  Ni939  1  0.33333333  0.04413200  0.31214744  1.0
  Ni  Ni940  1  0.33333333  0.37746533  0.31214744  1.0
  Ni  Ni941  1  0.33333333  0.71079867  0.31214744  1.0
  Ni  Ni942  1  0.66666667  0.04413200  0.31214744  1.0
  Ni  Ni943  1  0.66666667  0.37746533  0.31214744  1.0
  Ni  Ni944  1  0.66666667  0.71079867  0.31214744  1.0
  Ni  Ni945  1  0.00000000  0.21079867  0.43714744  1.0
  Ni  Ni946  1  0.00000000  0.54413200  0.43714744  1.0
  Ni  Ni947  1  0.00000000  0.87746533  0.43714744  1.0
  Ni  Ni948  1  0.33333333  0.21079867  0.43714744  1.0
  Ni  Ni949  1  0.33333333  0.54413200  0.43714744  1.0
  Ni  Ni950  1  0.33333333  0.87746533  0.43714744  1.0
  Ni  Ni951  1  0.66666667  0.21079867  0.43714744  1.0
  Ni  Ni952  1  0.66666667  0.54413200  0.43714744  1.0
  Ni  Ni953  1  0.66666667  0.87746533  0.43714744  1.0
  Ni  Ni954  1  0.08826400  0.12253467  0.25334544  1.0
  Ni  Ni955  1  0.08826400  0.45586800  0.25334544  1.0
  Ni  Ni956  1  0.08826400  0.78920133  0.25334544  1.0
  Ni  Ni957  1  0.42159733  0.12253467  0.25334544  1.0
  Ni  Ni958  1  0.42159733  0.45586800  0.25334544  1.0
  Ni  Ni959  1  0.42159733  0.78920133  0.25334544  1.0
  Ni  Ni960  1  0.75493067  0.12253467  0.25334544  1.0
  Ni  Ni961  1  0.75493067  0.45586800  0.25334544  1.0
  Ni  Ni962  1  0.75493067  0.78920133  0.25334544  1.0
  Ni  Ni963  1  0.08826400  0.28920133  0.37834544  1.0
  Ni  Ni964  1  0.08826400  0.62253467  0.37834544  1.0
  Ni  Ni965  1  0.08826400  0.95586800  0.37834544  1.0
  Ni  Ni966  1  0.42159733  0.28920133  0.37834544  1.0
  Ni  Ni967  1  0.42159733  0.62253467  0.37834544  1.0
  Ni  Ni968  1  0.42159733  0.95586800  0.37834544  1.0
  Ni  Ni969  1  0.75493067  0.28920133  0.37834544  1.0
  Ni  Ni970  1  0.75493067  0.62253467  0.37834544  1.0
  Ni  Ni971  1  0.75493067  0.95586800  0.37834544  1.0
  Ni  Ni972  1  0.20874533  0.16666667  0.32129644  1.0
  Ni  Ni973  1  0.20874533  0.50000000  0.32129644  1.0
  Ni  Ni974  1  0.20874533  0.83333333  0.32129644  1.0
  Ni  Ni975  1  0.54207867  0.16666667  0.32129644  1.0
  Ni  Ni976  1  0.54207867  0.50000000  0.32129644  1.0
  Ni  Ni977  1  0.54207867  0.83333333  0.32129644  1.0
  Ni  Ni978  1  0.87541200  0.16666667  0.32129644  1.0
  Ni  Ni979  1  0.87541200  0.50000000  0.32129644  1.0
  Ni  Ni980  1  0.87541200  0.83333333  0.32129644  1.0
  Ni  Ni981  1  0.20874533  0.00000000  0.44629644  1.0
  Ni  Ni982  1  0.20874533  0.33333333  0.44629644  1.0
  Ni  Ni983  1  0.20874533  0.66666667  0.44629644  1.0
  Ni  Ni984  1  0.54207867  0.00000000  0.44629644  1.0
  Ni  Ni985  1  0.54207867  0.33333333  0.44629644  1.0
  Ni  Ni986  1  0.54207867  0.66666667  0.44629644  1.0
  Ni  Ni987  1  0.87541200  0.00000000  0.44629644  1.0
  Ni  Ni988  1  0.87541200  0.33333333  0.44629644  1.0
  Ni  Ni989  1  0.87541200  0.66666667  0.44629644  1.0
  Ni  Ni990  1  0.00000000  0.06229400  0.39957594  1.0
  Ni  Ni991  1  0.00000000  0.39562733  0.39957594  1.0
  Ni  Ni992  1  0.00000000  0.72896067  0.39957594  1.0
  Ni  Ni993  1  0.33333333  0.06229400  0.39957594  1.0
  Ni  Ni994  1  0.33333333  0.39562733  0.39957594  1.0
  Ni  Ni995  1  0.33333333  0.72896067  0.39957594  1.0
  Ni  Ni996  1  0.66666667  0.06229400  0.39957594  1.0
  Ni  Ni997  1  0.66666667  0.39562733  0.39957594  1.0
  Ni  Ni998  1  0.66666667  0.72896067  0.39957594  1.0
  Ni  Ni999  1  0.00000000  0.22896067  0.27457594  1.0
  Ni  Ni1000  1  0.00000000  0.56229400  0.27457594  1.0
  Ni  Ni1001  1  1.00000000  0.89562733  0.27457594  1.0
  Ni  Ni1002  1  0.33333333  0.22896067  0.27457594  1.0
  Ni  Ni1003  1  0.33333333  0.56229400  0.27457594  1.0
  Ni  Ni1004  1  0.33333333  0.89562733  0.27457594  1.0
  Ni  Ni1005  1  0.66666667  0.22896067  0.27457594  1.0
  Ni  Ni1006  1  0.66666667  0.56229400  0.27457594  1.0
  Ni  Ni1007  1  0.66666667  0.89562733  0.27457594  1.0
  Ni  Ni1008  1  0.12458800  0.10437267  0.36801694  1.0
  Ni  Ni1009  1  0.12458800  0.43770600  0.36801694  1.0
  Ni  Ni1010  1  0.12458800  0.77103933  0.36801694  1.0
  Ni  Ni1011  1  0.45792133  0.10437267  0.36801694  1.0
  Ni  Ni1012  1  0.45792133  0.43770600  0.36801694  1.0
  Ni  Ni1013  1  0.45792133  0.77103933  0.36801694  1.0
  Ni  Ni1014  1  0.79125467  0.10437267  0.36801694  1.0
  Ni  Ni1015  1  0.79125467  0.43770600  0.36801694  1.0
  Ni  Ni1016  1  0.79125467  0.77103933  0.36801694  1.0
  Ni  Ni1017  1  0.12458800  0.27103933  0.49301694  1.0
  Ni  Ni1018  1  0.12458800  0.60437267  0.49301694  1.0
  Ni  Ni1019  1  0.12458800  0.93770600  0.49301694  1.0
  Ni  Ni1020  1  0.45792133  0.27103933  0.49301694  1.0
  Ni  Ni1021  1  0.45792133  0.60437267  0.49301694  1.0
  Ni  Ni1022  1  0.45792133  0.93770600  0.49301694  1.0
  Ni  Ni1023  1  0.79125467  0.27103933  0.49301694  1.0
  Ni  Ni1024  1  0.79125467  0.60437267  0.49301694  1.0
  Ni  Ni1025  1  0.79125467  0.93770600  0.49301694  1.0
  Ni  Ni1026  1  0.12458800  0.16666667  0.44629644  1.0
  Ni  Ni1027  1  0.12458800  0.50000000  0.44629644  1.0
  Ni  Ni1028  1  0.12458800  0.83333333  0.44629644  1.0
  Ni  Ni1029  1  0.45792133  0.16666667  0.44629644  1.0
  Ni  Ni1030  1  0.45792133  0.50000000  0.44629644  1.0
  Ni  Ni1031  1  0.45792133  0.83333333  0.44629644  1.0
  Ni  Ni1032  1  0.79125467  0.16666667  0.44629644  1.0
  Ni  Ni1033  1  0.79125467  0.50000000  0.44629644  1.0
  Ni  Ni1034  1  0.79125467  0.83333333  0.44629644  1.0
  Ni  Ni1035  1  0.12458800  0.00000000  0.32129644  1.0
  Ni  Ni1036  1  0.12458800  0.33333333  0.32129644  1.0
  Ni  Ni1037  1  0.12458800  0.66666667  0.32129644  1.0
  Ni  Ni1038  1  0.45792133  0.00000000  0.32129644  1.0
  Ni  Ni1039  1  0.45792133  0.33333333  0.32129644  1.0
  Ni  Ni1040  1  0.45792133  0.66666667  0.32129644  1.0
  Ni  Ni1041  1  0.79125467  0.00000000  0.32129644  1.0
  Ni  Ni1042  1  0.79125467  0.33333333  0.32129644  1.0
  Ni  Ni1043  1  0.79125467  0.66666667  0.32129644  1.0
  Ni  Ni1044  1  0.00000000  0.10437267  0.49301694  1.0
  Ni  Ni1045  1  0.00000000  0.43770600  0.49301694  1.0
  Ni  Ni1046  1  0.00000000  0.77103933  0.49301694  1.0
  Ni  Ni1047  1  0.33333333  0.10437267  0.49301694  1.0
  Ni  Ni1048  1  0.33333333  0.43770600  0.49301694  1.0
  Ni  Ni1049  1  0.33333333  0.77103933  0.49301694  1.0
  Ni  Ni1050  1  0.66666667  0.10437267  0.49301694  1.0
  Ni  Ni1051  1  0.66666667  0.43770600  0.49301694  1.0
  Ni  Ni1052  1  0.66666667  0.77103933  0.49301694  1.0
  Ni  Ni1053  1  0.00000000  0.27103933  0.36801694  1.0
  Ni  Ni1054  1  0.00000000  0.60437267  0.36801694  1.0
  Ni  Ni1055  1  0.00000000  0.93770600  0.36801694  1.0
  Ni  Ni1056  1  0.33333333  0.27103933  0.36801694  1.0
  Ni  Ni1057  1  0.33333333  0.60437267  0.36801694  1.0
  Ni  Ni1058  1  0.33333333  0.93770600  0.36801694  1.0
  Ni  Ni1059  1  0.66666667  0.27103933  0.36801694  1.0
  Ni  Ni1060  1  0.66666667  0.60437267  0.36801694  1.0
  Ni  Ni1061  1  0.66666667  0.93770600  0.36801694  1.0
  Ni  Ni1062  1  0.20874533  0.06229400  0.27457594  1.0
  Ni  Ni1063  1  0.20874533  0.39562733  0.27457594  1.0
  Ni  Ni1064  1  0.20874533  0.72896067  0.27457594  1.0
  Ni  Ni1065  1  0.54207867  0.06229400  0.27457594  1.0
  Ni  Ni1066  1  0.54207867  0.39562733  0.27457594  1.0
  Ni  Ni1067  1  0.54207867  0.72896067  0.27457594  1.0
  Ni  Ni1068  1  0.87541200  0.06229400  0.27457594  1.0
  Ni  Ni1069  1  0.87541200  0.39562733  0.27457594  1.0
  Ni  Ni1070  1  0.87541200  0.72896067  0.27457594  1.0
  Ni  Ni1071  1  0.20874533  0.22896067  0.39957594  1.0
  Ni  Ni1072  1  0.20874533  0.56229400  0.39957594  1.0
  Ni  Ni1073  1  0.20874533  0.89562733  0.39957594  1.0
  Ni  Ni1074  1  0.54207867  0.22896067  0.39957594  1.0
  Ni  Ni1075  1  0.54207867  0.56229400  0.39957594  1.0
  Ni  Ni1076  1  0.54207867  0.89562733  0.39957594  1.0
  Ni  Ni1077  1  0.87541200  0.22896067  0.39957594  1.0
  Ni  Ni1078  1  0.87541200  0.56229400  0.39957594  1.0
  Ni  Ni1079  1  0.87541200  0.89562733  0.39957594  1.0
  Ni  Ni1080  1  0.10275633  0.16666667  0.29334844  1.0
  Ni  Ni1081  1  0.10275633  0.50000000  0.29334844  1.0
  Ni  Ni1082  1  0.10275633  0.83333333  0.29334844  1.0
  Ni  Ni1083  1  0.43608967  0.16666667  0.29334844  1.0
  Ni  Ni1084  1  0.43608967  0.50000000  0.29334844  1.0
  Ni  Ni1085  1  0.43608967  0.83333333  0.29334844  1.0
  Ni  Ni1086  1  0.76942300  0.16666667  0.29334844  1.0
  Ni  Ni1087  1  0.76942300  0.50000000  0.29334844  1.0
  Ni  Ni1088  1  0.76942300  0.83333333  0.29334844  1.0
  Ni  Ni1089  1  0.10275633  0.00000000  0.41834844  1.0
  Ni  Ni1090  1  0.10275633  0.33333333  0.41834844  1.0
  Ni  Ni1091  1  0.10275633  0.66666667  0.41834844  1.0
  Ni  Ni1092  1  0.43608967  0.00000000  0.41834844  1.0
  Ni  Ni1093  1  0.43608967  0.33333333  0.41834844  1.0
  Ni  Ni1094  1  0.43608967  0.66666667  0.41834844  1.0
  Ni  Ni1095  1  0.76942300  0.00000000  0.41834844  1.0
  Ni  Ni1096  1  0.76942300  0.33333333  0.41834844  1.0
  Ni  Ni1097  1  0.76942300  0.66666667  0.41834844  1.0
  Ni  Ni1098  1  0.00000000  0.11528850  0.33188206  1.0
  Ni  Ni1099  1  0.00000000  0.44862183  0.33188206  1.0
  Ni  Ni1100  1  1.00000000  0.78195517  0.33188206  1.0
  Ni  Ni1101  1  0.33333333  0.11528850  0.33188206  1.0
  Ni  Ni1102  1  0.33333333  0.44862183  0.33188206  1.0
  Ni  Ni1103  1  0.33333333  0.78195517  0.33188206  1.0
  Ni  Ni1104  1  0.66666667  0.11528850  0.33188206  1.0
  Ni  Ni1105  1  0.66666667  0.44862183  0.33188206  1.0
  Ni  Ni1106  1  0.66666667  0.78195517  0.33188206  1.0
  Ni  Ni1107  1  0.00000000  0.28195517  0.45688206  1.0
  Ni  Ni1108  1  1.00000000  0.61528850  0.45688206  1.0
  Ni  Ni1109  1  0.00000000  0.94862183  0.45688206  1.0
  Ni  Ni1110  1  0.33333333  0.28195517  0.45688206  1.0
  Ni  Ni1111  1  0.33333333  0.61528850  0.45688206  1.0
  Ni  Ni1112  1  0.33333333  0.94862183  0.45688206  1.0
  Ni  Ni1113  1  0.66666667  0.28195517  0.45688206  1.0
  Ni  Ni1114  1  0.66666667  0.61528850  0.45688206  1.0
  Ni  Ni1115  1  0.66666667  0.94862183  0.45688206  1.0
  Ni  Ni1116  1  0.23057700  0.05137817  0.37981481  1.0
  Ni  Ni1117  1  0.23057700  0.38471150  0.37981481  1.0
  Ni  Ni1118  1  0.23057700  0.71804483  0.37981481  1.0
  Ni  Ni1119  1  0.56391033  0.05137817  0.37981481  1.0
  Ni  Ni1120  1  0.56391033  0.38471150  0.37981481  1.0
  Ni  Ni1121  1  0.56391033  0.71804483  0.37981481  1.0
  Ni  Ni1122  1  0.89724367  0.05137817  0.37981481  1.0
  Ni  Ni1123  1  0.89724367  0.38471150  0.37981481  1.0
  Ni  Ni1124  1  0.89724367  0.71804483  0.37981481  1.0
  Ni  Ni1125  1  0.23057700  0.21804483  0.25481481  1.0
  Ni  Ni1126  1  0.23057700  0.55137817  0.25481481  1.0
  Ni  Ni1127  1  0.23057700  0.88471150  0.25481481  1.0
  Ni  Ni1128  1  0.56391033  0.21804483  0.25481481  1.0
  Ni  Ni1129  1  0.56391033  0.55137817  0.25481481  1.0
  Ni  Ni1130  1  0.56391033  0.88471150  0.25481481  1.0
  Ni  Ni1131  1  0.89724367  0.21804483  0.25481481  1.0
  Ni  Ni1132  1  0.89724367  0.55137817  0.25481481  1.0
  Ni  Ni1133  1  0.89724367  0.88471150  0.25481481  1.0
  Ni  Ni1134  1  0.23057700  0.16666667  0.41834844  1.0
  Ni  Ni1135  1  0.23057700  0.50000000  0.41834844  1.0
  Ni  Ni1136  1  0.23057700  0.83333333  0.41834844  1.0
  Ni  Ni1137  1  0.56391033  0.16666667  0.41834844  1.0
  Ni  Ni1138  1  0.56391033  0.50000000  0.41834844  1.0
  Ni  Ni1139  1  0.56391033  0.83333333  0.41834844  1.0
  Ni  Ni1140  1  0.89724367  0.16666667  0.41834844  1.0
  Ni  Ni1141  1  0.89724367  0.50000000  0.41834844  1.0
  Ni  Ni1142  1  0.89724367  0.83333333  0.41834844  1.0
  Ni  Ni1143  1  0.23057700  0.00000000  0.29334844  1.0
  Ni  Ni1144  1  0.23057700  0.33333333  0.29334844  1.0
  Ni  Ni1145  1  0.23057700  0.66666667  0.29334844  1.0
  Ni  Ni1146  1  0.56391033  0.00000000  0.29334844  1.0
  Ni  Ni1147  1  0.56391033  0.33333333  0.29334844  1.0
  Ni  Ni1148  1  0.56391033  0.66666667  0.29334844  1.0
  Ni  Ni1149  1  0.89724367  0.00000000  0.29334844  1.0
  Ni  Ni1150  1  0.89724367  0.33333333  0.29334844  1.0
  Ni  Ni1151  1  0.89724367  0.66666667  0.29334844  1.0
  Ni  Ni1152  1  0.00000000  0.05137817  0.25481481  1.0
  Ni  Ni1153  1  0.00000000  0.38471150  0.25481481  1.0
  Ni  Ni1154  1  0.00000000  0.71804483  0.25481481  1.0
  Ni  Ni1155  1  0.33333333  0.05137817  0.25481481  1.0
  Ni  Ni1156  1  0.33333333  0.38471150  0.25481481  1.0
  Ni  Ni1157  1  0.33333333  0.71804483  0.25481481  1.0
  Ni  Ni1158  1  0.66666667  0.05137817  0.25481481  1.0
  Ni  Ni1159  1  0.66666667  0.38471150  0.25481481  1.0
  Ni  Ni1160  1  0.66666667  0.71804483  0.25481481  1.0
  Ni  Ni1161  1  0.00000000  0.21804483  0.37981481  1.0
  Ni  Ni1162  1  0.00000000  0.55137817  0.37981481  1.0
  Ni  Ni1163  1  0.00000000  0.88471150  0.37981481  1.0
  Ni  Ni1164  1  0.33333333  0.21804483  0.37981481  1.0
  Ni  Ni1165  1  0.33333333  0.55137817  0.37981481  1.0
  Ni  Ni1166  1  0.33333333  0.88471150  0.37981481  1.0
  Ni  Ni1167  1  0.66666667  0.21804483  0.37981481  1.0
  Ni  Ni1168  1  0.66666667  0.55137817  0.37981481  1.0
  Ni  Ni1169  1  0.66666667  0.88471150  0.37981481  1.0
  Ni  Ni1170  1  0.10275633  0.11528850  0.45688206  1.0
  Ni  Ni1171  1  0.10275633  0.44862183  0.45688206  1.0
  Ni  Ni1172  1  0.10275633  0.78195517  0.45688206  1.0
  Ni  Ni1173  1  0.43608967  0.11528850  0.45688206  1.0
  Ni  Ni1174  1  0.43608967  0.44862183  0.45688206  1.0
  Ni  Ni1175  1  0.43608967  0.78195517  0.45688206  1.0
  Ni  Ni1176  1  0.76942300  0.11528850  0.45688206  1.0
  Ni  Ni1177  1  0.76942300  0.44862183  0.45688206  1.0
  Ni  Ni1178  1  0.76942300  0.78195517  0.45688206  1.0
  Ni  Ni1179  1  0.10275633  0.28195517  0.33188206  1.0
  Ni  Ni1180  1  0.10275633  0.61528850  0.33188206  1.0
  Ni  Ni1181  1  0.10275633  0.94862183  0.33188206  1.0
  Ni  Ni1182  1  0.43608967  0.28195517  0.33188206  1.0
  Ni  Ni1183  1  0.43608967  0.61528850  0.33188206  1.0
  Ni  Ni1184  1  0.43608967  0.94862183  0.33188206  1.0
  Ni  Ni1185  1  0.76942300  0.28195517  0.33188206  1.0
  Ni  Ni1186  1  0.76942300  0.61528850  0.33188206  1.0
  Ni  Ni1187  1  0.76942300  0.94862183  0.33188206  1.0
  Ni  Ni1188  1  0.21095567  0.16666667  0.26898894  1.0
  Ni  Ni1189  1  0.21095567  0.50000000  0.26898894  1.0
  Ni  Ni1190  1  0.21095567  0.83333333  0.26898894  1.0
  Ni  Ni1191  1  0.54428900  0.16666667  0.26898894  1.0
  Ni  Ni1192  1  0.54428900  0.50000000  0.26898894  1.0
  Ni  Ni1193  1  0.54428900  0.83333333  0.26898894  1.0
  Ni  Ni1194  1  0.87762233  0.16666667  0.26898894  1.0
  Ni  Ni1195  1  0.87762233  0.50000000  0.26898894  1.0
  Ni  Ni1196  1  0.87762233  0.83333333  0.26898894  1.0
  Ni  Ni1197  1  0.21095567  0.00000000  0.39398894  1.0
  Ni  Ni1198  1  0.21095567  0.33333333  0.39398894  1.0
  Ni  Ni1199  1  0.21095567  0.66666667  0.39398894  1.0
  Ni  Ni1200  1  0.54428900  0.00000000  0.39398894  1.0
  Ni  Ni1201  1  0.54428900  0.33333333  0.39398894  1.0
  Ni  Ni1202  1  0.54428900  0.66666667  0.39398894  1.0
  Ni  Ni1203  1  0.87762233  0.00000000  0.39398894  1.0
  Ni  Ni1204  1  0.87762233  0.33333333  0.39398894  1.0
  Ni  Ni1205  1  0.87762233  0.66666667  0.39398894  1.0
  Ni  Ni1206  1  0.00000000  0.06118883  0.34809731  1.0
  Ni  Ni1207  1  0.00000000  0.39452217  0.34809731  1.0
  Ni  Ni1208  1  0.00000000  0.72785550  0.34809731  1.0
  Ni  Ni1209  1  0.33333333  0.06118883  0.34809731  1.0
  Ni  Ni1210  1  0.33333333  0.39452217  0.34809731  1.0
  Ni  Ni1211  1  0.33333333  0.72785550  0.34809731  1.0
  Ni  Ni1212  1  0.66666667  0.06118883  0.34809731  1.0
  Ni  Ni1213  1  0.66666667  0.39452217  0.34809731  1.0
  Ni  Ni1214  1  0.66666667  0.72785550  0.34809731  1.0
  Ni  Ni1215  1  0.00000000  0.22785550  0.47309731  1.0
  Ni  Ni1216  1  0.00000000  0.56118883  0.47309731  1.0
  Ni  Ni1217  1  0.00000000  0.89452217  0.47309731  1.0
  Ni  Ni1218  1  0.33333333  0.22785550  0.47309731  1.0
  Ni  Ni1219  1  0.33333333  0.56118883  0.47309731  1.0
  Ni  Ni1220  1  0.33333333  0.89452217  0.47309731  1.0
  Ni  Ni1221  1  0.66666667  0.22785550  0.47309731  1.0
  Ni  Ni1222  1  0.66666667  0.56118883  0.47309731  1.0
  Ni  Ni1223  1  0.66666667  0.89452217  0.47309731  1.0
  Ni  Ni1224  1  0.12237767  0.10547783  0.31488056  1.0
  Ni  Ni1225  1  0.12237767  0.43881117  0.31488056  1.0
  Ni  Ni1226  1  0.12237767  0.77214450  0.31488056  1.0
  Ni  Ni1227  1  0.45571100  0.10547783  0.31488056  1.0
  Ni  Ni1228  1  0.45571100  0.43881117  0.31488056  1.0
  Ni  Ni1229  1  0.45571100  0.77214450  0.31488056  1.0
  Ni  Ni1230  1  0.78904433  0.10547783  0.31488056  1.0
  Ni  Ni1231  1  0.78904433  0.43881117  0.31488056  1.0
  Ni  Ni1232  1  0.78904433  0.77214450  0.31488056  1.0
  Ni  Ni1233  1  0.12237767  0.27214450  0.43988056  1.0
  Ni  Ni1234  1  0.12237767  0.60547783  0.43988056  1.0
  Ni  Ni1235  1  0.12237767  0.93881117  0.43988056  1.0
  Ni  Ni1236  1  0.45571100  0.27214450  0.43988056  1.0
  Ni  Ni1237  1  0.45571100  0.60547783  0.43988056  1.0
  Ni  Ni1238  1  0.45571100  0.93881117  0.43988056  1.0
  Ni  Ni1239  1  0.78904433  0.27214450  0.43988056  1.0
  Ni  Ni1240  1  0.78904433  0.60547783  0.43988056  1.0
  Ni  Ni1241  1  0.78904433  0.93881117  0.43988056  1.0
  Ni  Ni1242  1  0.12237767  0.16666667  0.39398894  1.0
  Ni  Ni1243  1  0.12237767  0.50000000  0.39398894  1.0
  Ni  Ni1244  1  0.12237767  0.83333333  0.39398894  1.0
  Ni  Ni1245  1  0.45571100  0.16666667  0.39398894  1.0
  Ni  Ni1246  1  0.45571100  0.50000000  0.39398894  1.0
  Ni  Ni1247  1  0.45571100  0.83333333  0.39398894  1.0
  Ni  Ni1248  1  0.78904433  0.16666667  0.39398894  1.0
  Ni  Ni1249  1  0.78904433  0.50000000  0.39398894  1.0
  Ni  Ni1250  1  0.78904433  0.83333333  0.39398894  1.0
  Ni  Ni1251  1  0.12237767  0.00000000  0.26898894  1.0
  Ni  Ni1252  1  0.12237767  0.33333333  0.26898894  1.0
  Ni  Ni1253  1  0.12237767  0.66666667  0.26898894  1.0
  Ni  Ni1254  1  0.45571100  0.00000000  0.26898894  1.0
  Ni  Ni1255  1  0.45571100  0.33333333  0.26898894  1.0
  Ni  Ni1256  1  0.45571100  0.66666667  0.26898894  1.0
  Ni  Ni1257  1  0.78904433  0.00000000  0.26898894  1.0
  Ni  Ni1258  1  0.78904433  0.33333333  0.26898894  1.0
  Ni  Ni1259  1  0.78904433  0.66666667  0.26898894  1.0
  Ni  Ni1260  1  0.00000000  0.10547783  0.43988056  1.0
  Ni  Ni1261  1  0.00000000  0.43881117  0.43988056  1.0
  Ni  Ni1262  1  0.00000000  0.77214450  0.43988056  1.0
  Ni  Ni1263  1  0.33333333  0.10547783  0.43988056  1.0
  Ni  Ni1264  1  0.33333333  0.43881117  0.43988056  1.0
  Ni  Ni1265  1  0.33333333  0.77214450  0.43988056  1.0
  Ni  Ni1266  1  0.66666667  0.10547783  0.43988056  1.0
  Ni  Ni1267  1  0.66666667  0.43881117  0.43988056  1.0
  Ni  Ni1268  1  0.66666667  0.77214450  0.43988056  1.0
  Ni  Ni1269  1  0.00000000  0.27214450  0.31488056  1.0
  Ni  Ni1270  1  0.00000000  0.60547783  0.31488056  1.0
  Ni  Ni1271  1  0.00000000  0.93881117  0.31488056  1.0
  Ni  Ni1272  1  0.33333333  0.27214450  0.31488056  1.0
  Ni  Ni1273  1  0.33333333  0.60547783  0.31488056  1.0
  Ni  Ni1274  1  0.33333333  0.93881117  0.31488056  1.0
  Ni  Ni1275  1  0.66666667  0.27214450  0.31488056  1.0
  Ni  Ni1276  1  0.66666667  0.60547783  0.31488056  1.0
  Ni  Ni1277  1  0.66666667  0.93881117  0.31488056  1.0
  Ni  Ni1278  1  0.21095567  0.06118883  0.47309731  1.0
  Ni  Ni1279  1  0.21095567  0.39452217  0.47309731  1.0
  Ni  Ni1280  1  0.21095567  0.72785550  0.47309731  1.0
  Ni  Ni1281  1  0.54428900  0.06118883  0.47309731  1.0
  Ni  Ni1282  1  0.54428900  0.39452217  0.47309731  1.0
  Ni  Ni1283  1  0.54428900  0.72785550  0.47309731  1.0
  Ni  Ni1284  1  0.87762233  0.06118883  0.47309731  1.0
  Ni  Ni1285  1  0.87762233  0.39452217  0.47309731  1.0
  Ni  Ni1286  1  0.87762233  0.72785550  0.47309731  1.0
  Ni  Ni1287  1  0.21095567  0.22785550  0.34809731  1.0
  Ni  Ni1288  1  0.21095567  0.56118883  0.34809731  1.0
  Ni  Ni1289  1  0.21095567  0.89452217  0.34809731  1.0
  Ni  Ni1290  1  0.54428900  0.22785550  0.34809731  1.0
  Ni  Ni1291  1  0.54428900  0.56118883  0.34809731  1.0
  Ni  Ni1292  1  0.54428900  0.89452217  0.34809731  1.0
  Ni  Ni1293  1  0.87762233  0.22785550  0.34809731  1.0
  Ni  Ni1294  1  0.87762233  0.56118883  0.34809731  1.0
  Ni  Ni1295  1  0.87762233  0.89452217  0.34809731  1.0
  Ge  Ge1296  1  0.00000000  0.16666667  0.31321269  1.0
  Ge  Ge1297  1  0.00000000  0.50000000  0.31321269  1.0
  Ge  Ge1298  1  1.00000000  0.83333333  0.31321269  1.0
  Ge  Ge1299  1  0.33333333  0.16666667  0.31321269  1.0
  Ge  Ge1300  1  0.33333333  0.50000000  0.31321269  1.0
  Ge  Ge1301  1  0.33333333  0.83333333  0.31321269  1.0
  Ge  Ge1302  1  0.66666667  0.16666667  0.31321269  1.0
  Ge  Ge1303  1  0.66666667  0.50000000  0.31321269  1.0
  Ge  Ge1304  1  0.66666667  0.83333333  0.31321269  1.0
  Ge  Ge1305  1  0.00000000  0.00000000  0.43821269  1.0
  Ge  Ge1306  1  0.00000000  0.33333333  0.43821269  1.0
  Ge  Ge1307  1  0.00000000  0.66666667  0.43821269  1.0
  Ge  Ge1308  1  0.33333333  0.00000000  0.43821269  1.0
  Ge  Ge1309  1  0.33333333  0.33333333  0.43821269  1.0
  Ge  Ge1310  1  0.33333333  0.66666667  0.43821269  1.0
  Ge  Ge1311  1  0.66666667  0.00000000  0.43821269  1.0
  Ge  Ge1312  1  0.66666667  0.33333333  0.43821269  1.0
  Ge  Ge1313  1  0.66666667  0.66666667  0.43821269  1.0
  Ge  Ge1314  1  0.00000000  0.16666667  0.43821269  1.0
  Ge  Ge1315  1  0.00000000  0.50000000  0.43821269  1.0
  Ge  Ge1316  1  1.00000000  0.83333333  0.43821269  1.0
  Ge  Ge1317  1  0.33333333  0.16666667  0.43821269  1.0
  Ge  Ge1318  1  0.33333333  0.50000000  0.43821269  1.0
  Ge  Ge1319  1  0.33333333  0.83333333  0.43821269  1.0
  Ge  Ge1320  1  0.66666667  0.16666667  0.43821269  1.0
  Ge  Ge1321  1  0.66666667  0.50000000  0.43821269  1.0
  Ge  Ge1322  1  0.66666667  0.83333333  0.43821269  1.0
  Ge  Ge1323  1  0.00000000  0.00000000  0.31321269  1.0
  Ge  Ge1324  1  0.00000000  0.33333333  0.31321269  1.0
  Ge  Ge1325  1  0.00000000  0.66666667  0.31321269  1.0
  Ge  Ge1326  1  0.33333333  0.00000000  0.31321269  1.0
  Ge  Ge1327  1  0.33333333  0.33333333  0.31321269  1.0
  Ge  Ge1328  1  0.33333333  0.66666667  0.31321269  1.0
  Ge  Ge1329  1  0.66666667  0.00000000  0.31321269  1.0
  Ge  Ge1330  1  0.66666667  0.33333333  0.31321269  1.0
  Ge  Ge1331  1  0.66666667  0.66666667  0.31321269  1.0
  Ge  Ge1332  1  0.22222222  0.11111111  0.34129085  1.0
  Ge  Ge1333  1  0.22222222  0.44444444  0.34129085  1.0
  Ge  Ge1334  1  0.22222222  0.77777778  0.34129085  1.0
  Ge  Ge1335  1  0.55555556  0.11111111  0.34129085  1.0
  Ge  Ge1336  1  0.55555556  0.44444444  0.34129085  1.0
  Ge  Ge1337  1  0.55555556  0.77777778  0.34129085  1.0
  Ge  Ge1338  1  0.88888889  0.11111111  0.34129085  1.0
  Ge  Ge1339  1  0.88888889  0.44444444  0.34129085  1.0
  Ge  Ge1340  1  0.88888889  0.77777778  0.34129085  1.0
  Ge  Ge1341  1  0.22222222  0.27777778  0.46629085  1.0
  Ge  Ge1342  1  0.22222222  0.61111111  0.46629085  1.0
  Ge  Ge1343  1  0.22222222  0.94444444  0.46629085  1.0
  Ge  Ge1344  1  0.55555556  0.27777778  0.46629085  1.0
  Ge  Ge1345  1  0.55555556  0.61111111  0.46629085  1.0
  Ge  Ge1346  1  0.55555556  0.94444444  0.46629085  1.0
  Ge  Ge1347  1  0.88888889  0.27777778  0.46629085  1.0
  Ge  Ge1348  1  0.88888889  0.61111111  0.46629085  1.0
  Ge  Ge1349  1  0.88888889  0.94444444  0.46629085  1.0
  Ge  Ge1350  1  0.11111111  0.05555556  0.38295752  1.0
  Ge  Ge1351  1  0.11111111  0.38888889  0.38295752  1.0
  Ge  Ge1352  1  0.11111111  0.72222222  0.38295752  1.0
  Ge  Ge1353  1  0.44444444  0.05555556  0.38295752  1.0
  Ge  Ge1354  1  0.44444444  0.38888889  0.38295752  1.0
  Ge  Ge1355  1  0.44444444  0.72222222  0.38295752  1.0
  Ge  Ge1356  1  0.77777778  0.05555556  0.38295752  1.0
  Ge  Ge1357  1  0.77777778  0.38888889  0.38295752  1.0
  Ge  Ge1358  1  0.77777778  0.72222222  0.38295752  1.0
  Ge  Ge1359  1  0.11111111  0.22222222  0.25795752  1.0
  Ge  Ge1360  1  0.11111111  0.55555556  0.25795752  1.0
  Ge  Ge1361  1  0.11111111  0.88888889  0.25795752  1.0
  Ge  Ge1362  1  0.44444444  0.22222222  0.25795752  1.0
  Ge  Ge1363  1  0.44444444  0.55555556  0.25795752  1.0
  Ge  Ge1364  1  0.44444444  0.88888889  0.25795752  1.0
  Ge  Ge1365  1  0.77777778  0.22222222  0.25795752  1.0
  Ge  Ge1366  1  0.77777778  0.55555556  0.25795752  1.0
  Ge  Ge1367  1  0.77777778  0.88888889  0.25795752  1.0
  Ge  Ge1368  1  0.11111111  0.05555556  0.25795752  1.0
  Ge  Ge1369  1  0.11111111  0.38888889  0.25795752  1.0
  Ge  Ge1370  1  0.11111111  0.72222222  0.25795752  1.0
  Ge  Ge1371  1  0.44444444  0.05555556  0.25795752  1.0
  Ge  Ge1372  1  0.44444444  0.38888889  0.25795752  1.0
  Ge  Ge1373  1  0.44444444  0.72222222  0.25795752  1.0
  Ge  Ge1374  1  0.77777778  0.05555556  0.25795752  1.0
  Ge  Ge1375  1  0.77777778  0.38888889  0.25795752  1.0
  Ge  Ge1376  1  0.77777778  0.72222222  0.25795752  1.0
  Ge  Ge1377  1  0.11111111  0.22222222  0.38295752  1.0
  Ge  Ge1378  1  0.11111111  0.55555556  0.38295752  1.0
  Ge  Ge1379  1  0.11111111  0.88888889  0.38295752  1.0
  Ge  Ge1380  1  0.44444444  0.22222222  0.38295752  1.0
  Ge  Ge1381  1  0.44444444  0.55555556  0.38295752  1.0
  Ge  Ge1382  1  0.44444444  0.88888889  0.38295752  1.0
  Ge  Ge1383  1  0.77777778  0.22222222  0.38295752  1.0
  Ge  Ge1384  1  0.77777778  0.55555556  0.38295752  1.0
  Ge  Ge1385  1  0.77777778  0.88888889  0.38295752  1.0
  Ge  Ge1386  1  0.22222222  0.11111111  0.46629085  1.0
  Ge  Ge1387  1  0.22222222  0.44444444  0.46629085  1.0
  Ge  Ge1388  1  0.22222222  0.77777778  0.46629085  1.0
  Ge  Ge1389  1  0.55555556  0.11111111  0.46629085  1.0
  Ge  Ge1390  1  0.55555556  0.44444444  0.46629085  1.0
  Ge  Ge1391  1  0.55555556  0.77777778  0.46629085  1.0
  Ge  Ge1392  1  0.88888889  0.11111111  0.46629085  1.0
  Ge  Ge1393  1  0.88888889  0.44444444  0.46629085  1.0
  Ge  Ge1394  1  0.88888889  0.77777778  0.46629085  1.0
  Ge  Ge1395  1  0.22222222  0.27777778  0.34129085  1.0
  Ge  Ge1396  1  0.22222222  0.61111111  0.34129085  1.0
  Ge  Ge1397  1  0.22222222  0.94444444  0.34129085  1.0
  Ge  Ge1398  1  0.55555556  0.27777778  0.34129085  1.0
  Ge  Ge1399  1  0.55555556  0.61111111  0.34129085  1.0
  Ge  Ge1400  1  0.55555556  0.94444444  0.34129085  1.0
  Ge  Ge1401  1  0.88888889  0.27777778  0.34129085  1.0
  Ge  Ge1402  1  0.88888889  0.61111111  0.34129085  1.0
  Ge  Ge1403  1  0.88888889  0.94444444  0.34129085  1.0
  Ge  Ge1404  1  0.22184833  0.16666667  0.37018519  1.0
  Ge  Ge1405  1  0.22184833  0.50000000  0.37018519  1.0
  Ge  Ge1406  1  0.22184833  0.83333333  0.37018519  1.0
  Ge  Ge1407  1  0.55518167  0.16666667  0.37018519  1.0
  Ge  Ge1408  1  0.55518167  0.50000000  0.37018519  1.0
  Ge  Ge1409  1  0.55518167  0.83333333  0.37018519  1.0
  Ge  Ge1410  1  0.88851500  0.16666667  0.37018519  1.0
  Ge  Ge1411  1  0.88851500  0.50000000  0.37018519  1.0
  Ge  Ge1412  1  0.88851500  0.83333333  0.37018519  1.0
  Ge  Ge1413  1  0.22184833  0.00000000  0.49518519  1.0
  Ge  Ge1414  1  0.22184833  0.33333333  0.49518519  1.0
  Ge  Ge1415  1  0.22184833  0.66666667  0.49518519  1.0
  Ge  Ge1416  1  0.55518167  0.00000000  0.49518519  1.0
  Ge  Ge1417  1  0.55518167  0.33333333  0.49518519  1.0
  Ge  Ge1418  1  0.55518167  0.66666667  0.49518519  1.0
  Ge  Ge1419  1  0.88851500  0.00000000  0.49518519  1.0
  Ge  Ge1420  1  0.88851500  0.33333333  0.49518519  1.0
  Ge  Ge1421  1  0.88851500  0.66666667  0.49518519  1.0
  Ge  Ge1422  1  0.00000000  0.05574250  0.45337831  1.0
  Ge  Ge1423  1  0.00000000  0.38907583  0.45337831  1.0
  Ge  Ge1424  1  0.00000000  0.72240917  0.45337831  1.0
  Ge  Ge1425  1  0.33333333  0.05574250  0.45337831  1.0
  Ge  Ge1426  1  0.33333333  0.38907583  0.45337831  1.0
  Ge  Ge1427  1  0.33333333  0.72240917  0.45337831  1.0
  Ge  Ge1428  1  0.66666667  0.05574250  0.45337831  1.0
  Ge  Ge1429  1  0.66666667  0.38907583  0.45337831  1.0
  Ge  Ge1430  1  0.66666667  0.72240917  0.45337831  1.0
  Ge  Ge1431  1  0.00000000  0.22240917  0.32837831  1.0
  Ge  Ge1432  1  0.00000000  0.55574250  0.32837831  1.0
  Ge  Ge1433  1  0.00000000  0.88907583  0.32837831  1.0
  Ge  Ge1434  1  0.33333333  0.22240917  0.32837831  1.0
  Ge  Ge1435  1  0.33333333  0.55574250  0.32837831  1.0
  Ge  Ge1436  1  0.33333333  0.88907583  0.32837831  1.0
  Ge  Ge1437  1  0.66666667  0.22240917  0.32837831  1.0
  Ge  Ge1438  1  0.66666667  0.55574250  0.32837831  1.0
  Ge  Ge1439  1  0.66666667  0.88907583  0.32837831  1.0
  Ge  Ge1440  1  0.11148500  0.11092417  0.41199206  1.0
  Ge  Ge1441  1  0.11148500  0.44425750  0.41199206  1.0
  Ge  Ge1442  1  0.11148500  0.77759083  0.41199206  1.0
  Ge  Ge1443  1  0.44481833  0.11092417  0.41199206  1.0
  Ge  Ge1444  1  0.44481833  0.44425750  0.41199206  1.0
  Ge  Ge1445  1  0.44481833  0.77759083  0.41199206  1.0
  Ge  Ge1446  1  0.77815167  0.11092417  0.41199206  1.0
  Ge  Ge1447  1  0.77815167  0.44425750  0.41199206  1.0
  Ge  Ge1448  1  0.77815167  0.77759083  0.41199206  1.0
  Ge  Ge1449  1  0.11148500  0.27759083  0.28699206  1.0
  Ge  Ge1450  1  0.11148500  0.61092417  0.28699206  1.0
  Ge  Ge1451  1  0.11148500  0.94425750  0.28699206  1.0
  Ge  Ge1452  1  0.44481833  0.27759083  0.28699206  1.0
  Ge  Ge1453  1  0.44481833  0.61092417  0.28699206  1.0
  Ge  Ge1454  1  0.44481833  0.94425750  0.28699206  1.0
  Ge  Ge1455  1  0.77815167  0.27759083  0.28699206  1.0
  Ge  Ge1456  1  0.77815167  0.61092417  0.28699206  1.0
  Ge  Ge1457  1  0.77815167  0.94425750  0.28699206  1.0
  Ge  Ge1458  1  0.11148500  0.16666667  0.49518519  1.0
  Ge  Ge1459  1  0.11148500  0.50000000  0.49518519  1.0
  Ge  Ge1460  1  0.11148500  0.83333333  0.49518519  1.0
  Ge  Ge1461  1  0.44481833  0.16666667  0.49518519  1.0
  Ge  Ge1462  1  0.44481833  0.50000000  0.49518519  1.0
  Ge  Ge1463  1  0.44481833  0.83333333  0.49518519  1.0
  Ge  Ge1464  1  0.77815167  0.16666667  0.49518519  1.0
  Ge  Ge1465  1  0.77815167  0.50000000  0.49518519  1.0
  Ge  Ge1466  1  0.77815167  0.83333333  0.49518519  1.0
  Ge  Ge1467  1  0.11148500  0.00000000  0.37018519  1.0
  Ge  Ge1468  1  0.11148500  0.33333333  0.37018519  1.0
  Ge  Ge1469  1  0.11148500  0.66666667  0.37018519  1.0
  Ge  Ge1470  1  0.44481833  0.00000000  0.37018519  1.0
  Ge  Ge1471  1  0.44481833  0.33333333  0.37018519  1.0
  Ge  Ge1472  1  0.44481833  0.66666667  0.37018519  1.0
  Ge  Ge1473  1  0.77815167  0.00000000  0.37018519  1.0
  Ge  Ge1474  1  0.77815167  0.33333333  0.37018519  1.0
  Ge  Ge1475  1  0.77815167  0.66666667  0.37018519  1.0
  Ge  Ge1476  1  0.00000000  0.11092417  0.28699206  1.0
  Ge  Ge1477  1  0.00000000  0.44425750  0.28699206  1.0
  Ge  Ge1478  1  0.00000000  0.77759083  0.28699206  1.0
  Ge  Ge1479  1  0.33333333  0.11092417  0.28699206  1.0
  Ge  Ge1480  1  0.33333333  0.44425750  0.28699206  1.0
  Ge  Ge1481  1  0.33333333  0.77759083  0.28699206  1.0
  Ge  Ge1482  1  0.66666667  0.11092417  0.28699206  1.0
  Ge  Ge1483  1  0.66666667  0.44425750  0.28699206  1.0
  Ge  Ge1484  1  0.66666667  0.77759083  0.28699206  1.0
  Ge  Ge1485  1  0.00000000  0.27759083  0.41199206  1.0
  Ge  Ge1486  1  0.00000000  0.61092417  0.41199206  1.0
  Ge  Ge1487  1  0.00000000  0.94425750  0.41199206  1.0
  Ge  Ge1488  1  0.33333333  0.27759083  0.41199206  1.0
  Ge  Ge1489  1  0.33333333  0.61092417  0.41199206  1.0
  Ge  Ge1490  1  0.33333333  0.94425750  0.41199206  1.0
  Ge  Ge1491  1  0.66666667  0.27759083  0.41199206  1.0
  Ge  Ge1492  1  0.66666667  0.61092417  0.41199206  1.0
  Ge  Ge1493  1  0.66666667  0.94425750  0.41199206  1.0
  Ge  Ge1494  1  0.22184833  0.05574250  0.32837831  1.0
  Ge  Ge1495  1  0.22184833  0.38907583  0.32837831  1.0
  Ge  Ge1496  1  0.22184833  0.72240917  0.32837831  1.0
  Ge  Ge1497  1  0.55518167  0.05574250  0.32837831  1.0
  Ge  Ge1498  1  0.55518167  0.38907583  0.32837831  1.0
  Ge  Ge1499  1  0.55518167  0.72240917  0.32837831  1.0
  Ge  Ge1500  1  0.88851500  0.05574250  0.32837831  1.0
  Ge  Ge1501  1  0.88851500  0.38907583  0.32837831  1.0
  Ge  Ge1502  1  0.88851500  0.72240917  0.32837831  1.0
  Ge  Ge1503  1  0.22184833  0.22240917  0.45337831  1.0
  Ge  Ge1504  1  0.22184833  0.55574250  0.45337831  1.0
  Ge  Ge1505  1  0.22184833  0.88907583  0.45337831  1.0
  Ge  Ge1506  1  0.55518167  0.22240917  0.45337831  1.0
  Ge  Ge1507  1  0.55518167  0.55574250  0.45337831  1.0
  Ge  Ge1508  1  0.55518167  0.88907583  0.45337831  1.0
  Ge  Ge1509  1  0.88851500  0.22240917  0.45337831  1.0
  Ge  Ge1510  1  0.88851500  0.55574250  0.45337831  1.0
  Ge  Ge1511  1  0.88851500  0.88907583  0.45337831  1.0
