# generated using pymatgen
data_Ni5Ge2
_symmetry_space_group_name_H-M   'P 1'
_cell_length_a   42.55513009
_cell_length_b   51.40839801
_cell_length_c   31.15335728
_cell_angle_alpha   82.53869454
_cell_angle_beta   80.97460265
_cell_angle_gamma   69.36186240
_symmetry_Int_Tables_number   1
_chemical_formula_structural   Ni5Ge2
_chemical_formula_sum   'Ni1620 Ge648'
_cell_volume   62785.15467386
_cell_formula_units_Z   324
loop_
 _symmetry_equiv_pos_site_id
 _symmetry_equiv_pos_as_xyz
  1  'x, y, z'
loop_
 _atom_site_type_symbol
 _atom_site_label
 _atom_site_symmetry_multiplicity
 _atom_site_fract_x
 _atom_site_fract_y
 _atom_site_fract_z
 _atom_site_occupancy
  Ge  Ge0  1  0.16186502  0.09653431  0.95100196  1.0
  Ge  Ge1  1  0.16186502  0.42986764  0.95100196  1.0
  Ge  Ge2  1  0.16186502  0.76320098  0.95100196  1.0
  Ge  Ge3  1  0.49519836  0.09653431  0.95100196  1.0
  Ge  Ge4  1  0.49519836  0.42986764  0.95100196  1.0
  Ge  Ge5  1  0.49519836  0.76320098  0.95100196  1.0
  Ge  Ge6  1  0.82853169  0.09653431  0.95100196  1.0
  Ge  Ge7  1  0.82853169  0.42986764  0.95100196  1.0
  Ge  Ge8  1  0.82853169  0.76320098  0.95100196  1.0
  Ge  Ge9  1  0.04281740  0.21558193  0.87957339  1.0
  Ge  Ge10  1  0.04281740  0.54891526  0.87957339  1.0
  Ge  Ge11  1  0.04281740  0.88224860  0.87957339  1.0
  Ge  Ge12  1  0.37615074  0.21558193  0.87957339  1.0
  Ge  Ge13  1  0.37615074  0.54891526  0.87957339  1.0
  Ge  Ge14  1  0.37615074  0.88224860  0.87957339  1.0
  Ge  Ge15  1  0.70948407  0.21558193  0.87957339  1.0
  Ge  Ge16  1  0.70948407  0.54891526  0.87957339  1.0
  Ge  Ge17  1  0.70948407  0.88224860  0.87957339  1.0
  Ge  Ge18  1  0.05472217  0.03701050  0.98671625  1.0
  Ge  Ge19  1  0.05472217  0.37034383  0.98671625  1.0
  Ge  Ge20  1  0.05472217  0.70367717  0.98671625  1.0
  Ge  Ge21  1  0.38805550  0.03701050  0.98671625  1.0
  Ge  Ge22  1  0.38805550  0.37034383  0.98671625  1.0
  Ge  Ge23  1  0.38805550  0.70367717  0.98671625  1.0
  Ge  Ge24  1  0.72138883  0.03701050  0.98671625  1.0
  Ge  Ge25  1  0.72138883  0.37034383  0.98671625  1.0
  Ge  Ge26  1  0.72138883  0.70367717  0.98671625  1.0
  Ge  Ge27  1  0.26900788  0.15605812  0.91528768  1.0
  Ge  Ge28  1  0.26900788  0.48939145  0.91528768  1.0
  Ge  Ge29  1  0.26900788  0.82272479  0.91528768  1.0
  Ge  Ge30  1  0.60234121  0.15605812  0.91528768  1.0
  Ge  Ge31  1  0.60234121  0.48939145  0.91528768  1.0
  Ge  Ge32  1  0.60234121  0.82272479  0.91528768  1.0
  Ge  Ge33  1  0.93567455  0.15605812  0.91528768  1.0
  Ge  Ge34  1  0.93567455  0.48939145  0.91528768  1.0
  Ge  Ge35  1  0.93567455  0.82272479  0.91528768  1.0
  Ge  Ge36  1  0.10259869  0.13768264  0.85964630  1.0
  Ge  Ge37  1  0.10259869  0.47101598  0.85964630  1.0
  Ge  Ge38  1  0.10259869  0.80434931  0.85964630  1.0
  Ge  Ge39  1  0.43593202  0.13768264  0.85964630  1.0
  Ge  Ge40  1  0.43593202  0.47101598  0.85964630  1.0
  Ge  Ge41  1  0.43593202  0.80434931  0.85964630  1.0
  Ge  Ge42  1  0.76926536  0.13768264  0.85964630  1.0
  Ge  Ge43  1  0.76926536  0.47101598  0.85964630  1.0
  Ge  Ge44  1  0.76926536  0.80434931  0.85964630  1.0
  Ge  Ge45  1  0.22164631  0.01863502  0.93107487  1.0
  Ge  Ge46  1  0.22164631  0.35196836  0.93107487  1.0
  Ge  Ge47  1  0.22164631  0.68530169  0.93107487  1.0
  Ge  Ge48  1  0.55497964  0.01863502  0.93107487  1.0
  Ge  Ge49  1  0.55497964  0.35196836  0.93107487  1.0
  Ge  Ge50  1  0.55497964  0.68530169  0.93107487  1.0
  Ge  Ge51  1  0.88831298  0.01863502  0.93107487  1.0
  Ge  Ge52  1  0.88831298  0.35196836  0.93107487  1.0
  Ge  Ge53  1  0.88831298  0.68530169  0.93107487  1.0
  Ge  Ge54  1  0.07878917  0.16149217  0.97869392  1.0
  Ge  Ge55  1  0.07878917  0.49482550  0.97869392  1.0
  Ge  Ge56  1  0.07878917  0.82815883  0.97869392  1.0
  Ge  Ge57  1  0.41212250  0.16149217  0.97869392  1.0
  Ge  Ge58  1  0.41212250  0.49482550  0.97869392  1.0
  Ge  Ge59  1  0.41212250  0.82815883  0.97869392  1.0
  Ge  Ge60  1  0.74545583  0.16149217  0.97869392  1.0
  Ge  Ge61  1  0.74545583  0.49482550  0.97869392  1.0
  Ge  Ge62  1  0.74545583  0.82815883  0.97869392  1.0
  Ge  Ge63  1  0.29307488  0.28053979  0.90726535  1.0
  Ge  Ge64  1  0.29307488  0.61387312  0.90726535  1.0
  Ge  Ge65  1  0.29307488  0.94720645  0.90726535  1.0
  Ge  Ge66  1  0.62640821  0.28053979  0.90726535  1.0
  Ge  Ge67  1  0.62640821  0.61387312  0.90726535  1.0
  Ge  Ge68  1  0.62640821  0.94720645  0.90726535  1.0
  Ge  Ge69  1  0.95974155  0.28053979  0.90726535  1.0
  Ge  Ge70  1  0.95974155  0.61387312  0.90726535  1.0
  Ge  Ge71  1  0.95974155  0.94720645  0.90726535  1.0
  Ge  Ge72  1  0.06688440  0.00673026  0.87155106  1.0
  Ge  Ge73  1  0.06688440  0.34006360  0.87155106  1.0
  Ge  Ge74  1  0.06688440  0.67339693  0.87155106  1.0
  Ge  Ge75  1  0.40021774  0.00673026  0.87155106  1.0
  Ge  Ge76  1  0.40021774  0.34006360  0.87155106  1.0
  Ge  Ge77  1  0.40021774  0.67339693  0.87155106  1.0
  Ge  Ge78  1  0.73355107  0.00673026  0.87155106  1.0
  Ge  Ge79  1  0.73355107  0.34006360  0.87155106  1.0
  Ge  Ge80  1  0.73355107  0.67339693  0.87155106  1.0
  Ge  Ge81  1  0.18593202  0.22101598  0.94297963  1.0
  Ge  Ge82  1  0.18593202  0.55434931  0.94297963  1.0
  Ge  Ge83  1  0.18593202  0.88768264  0.94297963  1.0
  Ge  Ge84  1  0.51926536  0.22101598  0.94297963  1.0
  Ge  Ge85  1  0.51926536  0.55434931  0.94297963  1.0
  Ge  Ge86  1  0.51926536  0.88768264  0.94297963  1.0
  Ge  Ge87  1  0.85259869  0.22101598  0.94297963  1.0
  Ge  Ge88  1  0.85259869  0.55434931  0.94297963  1.0
  Ge  Ge89  1  0.85259869  0.88768264  0.94297963  1.0
  Ge  Ge90  1  0.32878917  0.07815883  0.89536058  1.0
  Ge  Ge91  1  0.32878917  0.41149217  0.89536058  1.0
  Ge  Ge92  1  0.32878917  0.74482550  0.89536058  1.0
  Ge  Ge93  1  0.66212250  0.07815883  0.89536058  1.0
  Ge  Ge94  1  0.66212250  0.41149217  0.89536058  1.0
  Ge  Ge95  1  0.66212250  0.74482550  0.89536058  1.0
  Ge  Ge96  1  0.99545583  0.07815883  0.89536058  1.0
  Ge  Ge97  1  0.99545583  0.41149217  0.89536058  1.0
  Ge  Ge98  1  0.99545583  0.74482550  0.89536058  1.0
  Ge  Ge99  1  0.11450345  0.29244455  0.96678915  1.0
  Ge  Ge100  1  0.11450345  0.62577788  0.96678915  1.0
  Ge  Ge101  1  0.11450345  0.95911121  0.96678915  1.0
  Ge  Ge102  1  0.44783679  0.29244455  0.96678915  1.0
  Ge  Ge103  1  0.44783679  0.62577788  0.96678915  1.0
  Ge  Ge104  1  0.44783679  0.95911121  0.96678915  1.0
  Ge  Ge105  1  0.78117012  0.29244455  0.96678915  1.0
  Ge  Ge106  1  0.78117012  0.62577788  0.96678915  1.0
  Ge  Ge107  1  0.78117012  0.95911121  0.96678915  1.0
  Ge  Ge108  1  0.25051467  0.08384800  0.95861375  1.0
  Ge  Ge109  1  0.25051467  0.41718133  0.95861375  1.0
  Ge  Ge110  1  0.25051467  0.75051467  0.95861375  1.0
  Ge  Ge111  1  0.58384800  0.08384800  0.95861375  1.0
  Ge  Ge112  1  0.58384800  0.41718133  0.95861375  1.0
  Ge  Ge113  1  0.58384800  0.75051467  0.95861375  1.0
  Ge  Ge114  1  0.91718133  0.08384800  0.95861375  1.0
  Ge  Ge115  1  0.91718133  0.41718133  0.95861375  1.0
  Ge  Ge116  1  0.91718133  0.75051467  0.95861375  1.0
  Ge  Ge117  1  0.13146705  0.20289562  0.88718518  1.0
  Ge  Ge118  1  0.13146705  0.53622895  0.88718518  1.0
  Ge  Ge119  1  0.13146705  0.86956229  0.88718518  1.0
  Ge  Ge120  1  0.46480038  0.20289562  0.88718518  1.0
  Ge  Ge121  1  0.46480038  0.53622895  0.88718518  1.0
  Ge  Ge122  1  0.46480038  0.86956229  0.88718518  1.0
  Ge  Ge123  1  0.79813371  0.20289562  0.88718518  1.0
  Ge  Ge124  1  0.79813371  0.53622895  0.88718518  1.0
  Ge  Ge125  1  0.79813371  0.86956229  0.88718518  1.0
  Ge  Ge126  1  0.05979812  0.27456455  0.91107482  1.0
  Ge  Ge127  1  0.05979812  0.60789788  0.91107482  1.0
  Ge  Ge128  1  0.05979812  0.94123121  0.91107482  1.0
  Ge  Ge129  1  0.39313145  0.27456455  0.91107482  1.0
  Ge  Ge130  1  0.39313145  0.60789788  0.91107482  1.0
  Ge  Ge131  1  0.39313145  0.94123121  0.91107482  1.0
  Ge  Ge132  1  0.72646479  0.27456455  0.91107482  1.0
  Ge  Ge133  1  0.72646479  0.60789788  0.91107482  1.0
  Ge  Ge134  1  0.72646479  0.94123121  0.91107482  1.0
  Ge  Ge135  1  0.17884574  0.15551693  0.98250339  1.0
  Ge  Ge136  1  0.17884574  0.48885026  0.98250339  1.0
  Ge  Ge137  1  0.17884574  0.82218360  0.98250339  1.0
  Ge  Ge138  1  0.51217907  0.15551693  0.98250339  1.0
  Ge  Ge139  1  0.51217907  0.48885026  0.98250339  1.0
  Ge  Ge140  1  0.51217907  0.82218360  0.98250339  1.0
  Ge  Ge141  1  0.84551240  0.15551693  0.98250339  1.0
  Ge  Ge142  1  0.84551240  0.48885026  0.98250339  1.0
  Ge  Ge143  1  0.84551240  0.82218360  0.98250339  1.0
  Ge  Ge144  1  0.32178300  0.01257967  0.93448375  1.0
  Ge  Ge145  1  0.32178300  0.34591300  0.93448375  1.0
  Ge  Ge146  1  0.32178300  0.67924633  0.93448375  1.0
  Ge  Ge147  1  0.65511633  0.01257967  0.93448375  1.0
  Ge  Ge148  1  0.65511633  0.34591300  0.93448375  1.0
  Ge  Ge149  1  0.65511633  0.67924633  0.93448375  1.0
  Ge  Ge150  1  0.98844967  0.01257967  0.93448375  1.0
  Ge  Ge151  1  0.98844967  0.34591300  0.93448375  1.0
  Ge  Ge152  1  0.98844967  0.67924633  0.93448375  1.0
  Ge  Ge153  1  0.20273538  0.13162729  0.86305518  1.0
  Ge  Ge154  1  0.20273538  0.46496062  0.86305518  1.0
  Ge  Ge155  1  0.20273538  0.79829395  0.86305518  1.0
  Ge  Ge156  1  0.53606871  0.13162729  0.86305518  1.0
  Ge  Ge157  1  0.53606871  0.46496062  0.86305518  1.0
  Ge  Ge158  1  0.53606871  0.79829395  0.86305518  1.0
  Ge  Ge159  1  0.86940205  0.13162729  0.86305518  1.0
  Ge  Ge160  1  0.86940205  0.46496062  0.86305518  1.0
  Ge  Ge161  1  0.86940205  0.79829395  0.86305518  1.0
  Ge  Ge162  1  0.06373967  0.10395633  0.94654875  1.0
  Ge  Ge163  1  0.06373967  0.43728967  0.94654875  1.0
  Ge  Ge164  1  0.06373967  0.77062300  0.94654875  1.0
  Ge  Ge165  1  0.39707300  0.10395633  0.94654875  1.0
  Ge  Ge166  1  0.39707300  0.43728967  0.94654875  1.0
  Ge  Ge167  1  0.39707300  0.77062300  0.94654875  1.0
  Ge  Ge168  1  0.73040633  0.10395633  0.94654875  1.0
  Ge  Ge169  1  0.73040633  0.43728967  0.94654875  1.0
  Ge  Ge170  1  0.73040633  0.77062300  0.94654875  1.0
  Ge  Ge171  1  0.27802538  0.22300395  0.87512018  1.0
  Ge  Ge172  1  0.27802538  0.55633729  0.87512018  1.0
  Ge  Ge173  1  0.27802538  0.88967062  0.87512018  1.0
  Ge  Ge174  1  0.61135871  0.22300395  0.87512018  1.0
  Ge  Ge175  1  0.61135871  0.55633729  0.87512018  1.0
  Ge  Ge176  1  0.61135871  0.88967062  0.87512018  1.0
  Ge  Ge177  1  0.94469205  0.22300395  0.87512018  1.0
  Ge  Ge178  1  0.94469205  0.55633729  0.87512018  1.0
  Ge  Ge179  1  0.94469205  0.88967062  0.87512018  1.0
  Ge  Ge180  1  0.13540860  0.03228740  0.92265911  1.0
  Ge  Ge181  1  0.13540860  0.36562074  0.92265911  1.0
  Ge  Ge182  1  0.13540860  0.69895407  0.92265911  1.0
  Ge  Ge183  1  0.46874193  0.03228740  0.92265911  1.0
  Ge  Ge184  1  0.46874193  0.36562074  0.92265911  1.0
  Ge  Ge185  1  0.46874193  0.69895407  0.92265911  1.0
  Ge  Ge186  1  0.80207526  0.03228740  0.92265911  1.0
  Ge  Ge187  1  0.80207526  0.36562074  0.92265911  1.0
  Ge  Ge188  1  0.80207526  0.69895407  0.92265911  1.0
  Ge  Ge189  1  0.25445621  0.24657312  0.99408768  1.0
  Ge  Ge190  1  0.25445621  0.57990645  0.99408768  1.0
  Ge  Ge191  1  0.25445621  0.91323979  0.99408768  1.0
  Ge  Ge192  1  0.58778955  0.24657312  0.99408768  1.0
  Ge  Ge193  1  0.58778955  0.57990645  0.99408768  1.0
  Ge  Ge194  1  0.58778955  0.91323979  0.99408768  1.0
  Ge  Ge195  1  0.92112288  0.24657312  0.99408768  1.0
  Ge  Ge196  1  0.92112288  0.57990645  0.99408768  1.0
  Ge  Ge197  1  0.92112288  0.91323979  0.99408768  1.0
  Ge  Ge198  1  0.32580467  0.17522467  0.97067875  1.0
  Ge  Ge199  1  0.32580467  0.50855800  0.97067875  1.0
  Ge  Ge200  1  0.32580467  0.84189133  0.97067875  1.0
  Ge  Ge201  1  0.65913800  0.17522467  0.97067875  1.0
  Ge  Ge202  1  0.65913800  0.50855800  0.97067875  1.0
  Ge  Ge203  1  0.65913800  0.84189133  0.97067875  1.0
  Ge  Ge204  1  0.99247133  0.17522467  0.97067875  1.0
  Ge  Ge205  1  0.99247133  0.50855800  0.97067875  1.0
  Ge  Ge206  1  0.99247133  0.84189133  0.97067875  1.0
  Ge  Ge207  1  0.20675705  0.29427229  0.89925018  1.0
  Ge  Ge208  1  0.20675705  0.62760562  0.89925018  1.0
  Ge  Ge209  1  0.20675705  0.96093895  0.89925018  1.0
  Ge  Ge210  1  0.54009038  0.29427229  0.89925018  1.0
  Ge  Ge211  1  0.54009038  0.62760562  0.89925018  1.0
  Ge  Ge212  1  0.54009038  0.96093895  0.89925018  1.0
  Ge  Ge213  1  0.87342371  0.29427229  0.89925018  1.0
  Ge  Ge214  1  0.87342371  0.62760562  0.89925018  1.0
  Ge  Ge215  1  0.87342371  0.96093895  0.89925018  1.0
  Ge  Ge216  1  0.25710312  0.00129621  0.80814482  1.0
  Ge  Ge217  1  0.25710312  0.33462955  0.80814482  1.0
  Ge  Ge218  1  0.25710312  0.66796288  0.80814482  1.0
  Ge  Ge219  1  0.59043645  0.00129621  0.80814482  1.0
  Ge  Ge220  1  0.59043645  0.33462955  0.80814482  1.0
  Ge  Ge221  1  0.59043645  0.66796288  0.80814482  1.0
  Ge  Ge222  1  0.92376979  0.00129621  0.80814482  1.0
  Ge  Ge223  1  0.92376979  0.33462955  0.80814482  1.0
  Ge  Ge224  1  0.92376979  0.66796288  0.80814482  1.0
  Ge  Ge225  1  0.13805550  0.12034383  0.73671625  1.0
  Ge  Ge226  1  0.13805550  0.45367717  0.73671625  1.0
  Ge  Ge227  1  0.13805550  0.78701050  0.73671625  1.0
  Ge  Ge228  1  0.47138883  0.12034383  0.73671625  1.0
  Ge  Ge229  1  0.47138883  0.45367717  0.73671625  1.0
  Ge  Ge230  1  0.47138883  0.78701050  0.73671625  1.0
  Ge  Ge231  1  0.80472217  0.12034383  0.73671625  1.0
  Ge  Ge232  1  0.80472217  0.45367717  0.73671625  1.0
  Ge  Ge233  1  0.80472217  0.78701050  0.73671625  1.0
  Ge  Ge234  1  0.14996026  0.27510574  0.84385911  1.0
  Ge  Ge235  1  0.14996026  0.60843907  0.84385911  1.0
  Ge  Ge236  1  0.14996026  0.94177240  0.84385911  1.0
  Ge  Ge237  1  0.48329360  0.27510574  0.84385911  1.0
  Ge  Ge238  1  0.48329360  0.60843907  0.84385911  1.0
  Ge  Ge239  1  0.48329360  0.94177240  0.84385911  1.0
  Ge  Ge240  1  0.81662693  0.27510574  0.84385911  1.0
  Ge  Ge241  1  0.81662693  0.60843907  0.84385911  1.0
  Ge  Ge242  1  0.81662693  0.94177240  0.84385911  1.0
  Ge  Ge243  1  0.03091264  0.06082002  0.77243054  1.0
  Ge  Ge244  1  0.03091264  0.39415336  0.77243054  1.0
  Ge  Ge245  1  0.03091264  0.72748669  0.77243054  1.0
  Ge  Ge246  1  0.36424598  0.06082002  0.77243054  1.0
  Ge  Ge247  1  0.36424598  0.39415336  0.77243054  1.0
  Ge  Ge248  1  0.36424598  0.72748669  0.77243054  1.0
  Ge  Ge249  1  0.69757931  0.06082002  0.77243054  1.0
  Ge  Ge250  1  0.69757931  0.39415336  0.77243054  1.0
  Ge  Ge251  1  0.69757931  0.72748669  0.77243054  1.0
  Ge  Ge252  1  0.19783679  0.04244455  0.71678915  1.0
  Ge  Ge253  1  0.19783679  0.37577788  0.71678915  1.0
  Ge  Ge254  1  0.19783679  0.70911121  0.71678915  1.0
  Ge  Ge255  1  0.53117012  0.04244455  0.71678915  1.0
  Ge  Ge256  1  0.53117012  0.37577788  0.71678915  1.0
  Ge  Ge257  1  0.53117012  0.70911121  0.71678915  1.0
  Ge  Ge258  1  0.86450345  0.04244455  0.71678915  1.0
  Ge  Ge259  1  0.86450345  0.37577788  0.71678915  1.0
  Ge  Ge260  1  0.86450345  0.70911121  0.71678915  1.0
  Ge  Ge261  1  0.31688440  0.25673026  0.78821773  1.0
  Ge  Ge262  1  0.31688440  0.59006360  0.78821773  1.0
  Ge  Ge263  1  0.31688440  0.92339693  0.78821773  1.0
  Ge  Ge264  1  0.65021774  0.25673026  0.78821773  1.0
  Ge  Ge265  1  0.65021774  0.59006360  0.78821773  1.0
  Ge  Ge266  1  0.65021774  0.92339693  0.78821773  1.0
  Ge  Ge267  1  0.98355107  0.25673026  0.78821773  1.0
  Ge  Ge268  1  0.98355107  0.59006360  0.78821773  1.0
  Ge  Ge269  1  0.98355107  0.92339693  0.78821773  1.0
  Ge  Ge270  1  0.17402726  0.06625407  0.83583677  1.0
  Ge  Ge271  1  0.17402726  0.39958740  0.83583677  1.0
  Ge  Ge272  1  0.17402726  0.73292074  0.83583677  1.0
  Ge  Ge273  1  0.50736060  0.06625407  0.83583677  1.0
  Ge  Ge274  1  0.50736060  0.39958740  0.83583677  1.0
  Ge  Ge275  1  0.50736060  0.73292074  0.83583677  1.0
  Ge  Ge276  1  0.84069393  0.06625407  0.83583677  1.0
  Ge  Ge277  1  0.84069393  0.39958740  0.83583677  1.0
  Ge  Ge278  1  0.84069393  0.73292074  0.83583677  1.0
  Ge  Ge279  1  0.05497964  0.18530169  0.76440820  1.0
  Ge  Ge280  1  0.05497964  0.51863502  0.76440820  1.0
  Ge  Ge281  1  0.05497964  0.85196836  0.76440820  1.0
  Ge  Ge282  1  0.38831298  0.18530169  0.76440820  1.0
  Ge  Ge283  1  0.38831298  0.51863502  0.76440820  1.0
  Ge  Ge284  1  0.38831298  0.85196836  0.76440820  1.0
  Ge  Ge285  1  0.72164631  0.18530169  0.76440820  1.0
  Ge  Ge286  1  0.72164631  0.51863502  0.76440820  1.0
  Ge  Ge287  1  0.72164631  0.85196836  0.76440820  1.0
  Ge  Ge288  1  0.16212250  0.24482550  0.72869392  1.0
  Ge  Ge289  1  0.16212250  0.57815883  0.72869392  1.0
  Ge  Ge290  1  0.16212250  0.91149217  0.72869392  1.0
  Ge  Ge291  1  0.49545583  0.24482550  0.72869392  1.0
  Ge  Ge292  1  0.49545583  0.57815883  0.72869392  1.0
  Ge  Ge293  1  0.49545583  0.91149217  0.72869392  1.0
  Ge  Ge294  1  0.82878917  0.24482550  0.72869392  1.0
  Ge  Ge295  1  0.82878917  0.57815883  0.72869392  1.0
  Ge  Ge296  1  0.82878917  0.91149217  0.72869392  1.0
  Ge  Ge297  1  0.28117012  0.12577788  0.80012249  1.0
  Ge  Ge298  1  0.28117012  0.45911121  0.80012249  1.0
  Ge  Ge299  1  0.28117012  0.79244455  0.80012249  1.0
  Ge  Ge300  1  0.61450345  0.12577788  0.80012249  1.0
  Ge  Ge301  1  0.61450345  0.45911121  0.80012249  1.0
  Ge  Ge302  1  0.61450345  0.79244455  0.80012249  1.0
  Ge  Ge303  1  0.94783679  0.12577788  0.80012249  1.0
  Ge  Ge304  1  0.94783679  0.45911121  0.80012249  1.0
  Ge  Ge305  1  0.94783679  0.79244455  0.80012249  1.0
  Ge  Ge306  1  0.09069393  0.31625407  0.75250344  1.0
  Ge  Ge307  1  0.09069393  0.64958740  0.75250344  1.0
  Ge  Ge308  1  0.09069393  0.98292074  0.75250344  1.0
  Ge  Ge309  1  0.42402726  0.31625407  0.75250344  1.0
  Ge  Ge310  1  0.42402726  0.64958740  0.75250344  1.0
  Ge  Ge311  1  0.42402726  0.98292074  0.75250344  1.0
  Ge  Ge312  1  0.75736060  0.31625407  0.75250344  1.0
  Ge  Ge313  1  0.75736060  0.64958740  0.75250344  1.0
  Ge  Ge314  1  0.75736060  0.98292074  0.75250344  1.0
  Ge  Ge315  1  0.20974155  0.19720645  0.82393201  1.0
  Ge  Ge316  1  0.20974155  0.53053979  0.82393201  1.0
  Ge  Ge317  1  0.20974155  0.86387312  0.82393201  1.0
  Ge  Ge318  1  0.54307488  0.19720645  0.82393201  1.0
  Ge  Ge319  1  0.54307488  0.53053979  0.82393201  1.0
  Ge  Ge320  1  0.54307488  0.86387312  0.82393201  1.0
  Ge  Ge321  1  0.87640821  0.19720645  0.82393201  1.0
  Ge  Ge322  1  0.87640821  0.53053979  0.82393201  1.0
  Ge  Ge323  1  0.87640821  0.86387312  0.82393201  1.0
  Ge  Ge324  1  0.01241943  0.32194324  0.81575661  1.0
  Ge  Ge325  1  0.01241943  0.65527657  0.81575661  1.0
  Ge  Ge326  1  0.01241943  0.98860990  0.81575661  1.0
  Ge  Ge327  1  0.34575276  0.32194324  0.81575661  1.0
  Ge  Ge328  1  0.34575276  0.65527657  0.81575661  1.0
  Ge  Ge329  1  0.34575276  0.98860990  0.81575661  1.0
  Ge  Ge330  1  0.67908610  0.32194324  0.81575661  1.0
  Ge  Ge331  1  0.67908610  0.65527657  0.81575661  1.0
  Ge  Ge332  1  0.67908610  0.98860990  0.81575661  1.0
  Ge  Ge333  1  0.22670514  0.10765752  0.74432804  1.0
  Ge  Ge334  1  0.22670514  0.44099086  0.74432804  1.0
  Ge  Ge335  1  0.22670514  0.77432419  0.74432804  1.0
  Ge  Ge336  1  0.56003848  0.10765752  0.74432804  1.0
  Ge  Ge337  1  0.56003848  0.44099086  0.74432804  1.0
  Ge  Ge338  1  0.56003848  0.77432419  0.74432804  1.0
  Ge  Ge339  1  0.89337181  0.10765752  0.74432804  1.0
  Ge  Ge340  1  0.89337181  0.44099086  0.74432804  1.0
  Ge  Ge341  1  0.89337181  0.77432419  0.74432804  1.0
  Ge  Ge342  1  0.15503621  0.17932645  0.76821768  1.0
  Ge  Ge343  1  0.15503621  0.51265979  0.76821768  1.0
  Ge  Ge344  1  0.15503621  0.84599312  0.76821768  1.0
  Ge  Ge345  1  0.48836955  0.17932645  0.76821768  1.0
  Ge  Ge346  1  0.48836955  0.51265979  0.76821768  1.0
  Ge  Ge347  1  0.48836955  0.84599312  0.76821768  1.0
  Ge  Ge348  1  0.82170288  0.17932645  0.76821768  1.0
  Ge  Ge349  1  0.82170288  0.51265979  0.76821768  1.0
  Ge  Ge350  1  0.82170288  0.84599312  0.76821768  1.0
  Ge  Ge351  1  0.27408383  0.06027883  0.83964625  1.0
  Ge  Ge352  1  0.27408383  0.39361217  0.83964625  1.0
  Ge  Ge353  1  0.27408383  0.72694550  0.83964625  1.0
  Ge  Ge354  1  0.60741717  0.06027883  0.83964625  1.0
  Ge  Ge355  1  0.60741717  0.39361217  0.83964625  1.0
  Ge  Ge356  1  0.60741717  0.72694550  0.83964625  1.0
  Ge  Ge357  1  0.94075050  0.06027883  0.83964625  1.0
  Ge  Ge358  1  0.94075050  0.39361217  0.83964625  1.0
  Ge  Ge359  1  0.94075050  0.72694550  0.83964625  1.0
  Ge  Ge360  1  0.08368776  0.25067490  0.79162661  1.0
  Ge  Ge361  1  0.08368776  0.58400824  0.79162661  1.0
  Ge  Ge362  1  0.08368776  0.91734157  0.79162661  1.0
  Ge  Ge363  1  0.41702110  0.25067490  0.79162661  1.0
  Ge  Ge364  1  0.41702110  0.58400824  0.79162661  1.0
  Ge  Ge365  1  0.41702110  0.91734157  0.79162661  1.0
  Ge  Ge366  1  0.75035443  0.25067490  0.79162661  1.0
  Ge  Ge367  1  0.75035443  0.58400824  0.79162661  1.0
  Ge  Ge368  1  0.75035443  0.91734157  0.79162661  1.0
  Ge  Ge369  1  0.29797348  0.03638919  0.72019804  1.0
  Ge  Ge370  1  0.29797348  0.36972252  0.72019804  1.0
  Ge  Ge371  1  0.29797348  0.70305586  0.72019804  1.0
  Ge  Ge372  1  0.63130681  0.03638919  0.72019804  1.0
  Ge  Ge373  1  0.63130681  0.36972252  0.72019804  1.0
  Ge  Ge374  1  0.63130681  0.70305586  0.72019804  1.0
  Ge  Ge375  1  0.96464014  0.03638919  0.72019804  1.0
  Ge  Ge376  1  0.96464014  0.36972252  0.72019804  1.0
  Ge  Ge377  1  0.96464014  0.70305586  0.72019804  1.0
  Ge  Ge378  1  0.15897776  0.00871824  0.80369161  1.0
  Ge  Ge379  1  0.15897776  0.34205157  0.80369161  1.0
  Ge  Ge380  1  0.15897776  0.67538490  0.80369161  1.0
  Ge  Ge381  1  0.49231110  0.00871824  0.80369161  1.0
  Ge  Ge382  1  0.49231110  0.34205157  0.80369161  1.0
  Ge  Ge383  1  0.49231110  0.67538490  0.80369161  1.0
  Ge  Ge384  1  0.82564443  0.00871824  0.80369161  1.0
  Ge  Ge385  1  0.82564443  0.34205157  0.80369161  1.0
  Ge  Ge386  1  0.82564443  0.67538490  0.80369161  1.0
  Ge  Ge387  1  0.03993014  0.12776586  0.73226304  1.0
  Ge  Ge388  1  0.03993014  0.46109919  0.73226304  1.0
  Ge  Ge389  1  0.03993014  0.79443252  0.73226304  1.0
  Ge  Ge390  1  0.37326348  0.12776586  0.73226304  1.0
  Ge  Ge391  1  0.37326348  0.46109919  0.73226304  1.0
  Ge  Ge392  1  0.37326348  0.79443252  0.73226304  1.0
  Ge  Ge393  1  0.70659681  0.12776586  0.73226304  1.0
  Ge  Ge394  1  0.70659681  0.46109919  0.73226304  1.0
  Ge  Ge395  1  0.70659681  0.79443252  0.73226304  1.0
  Ge  Ge396  1  0.23064669  0.27038264  0.77980196  1.0
  Ge  Ge397  1  0.23064669  0.60371598  0.77980196  1.0
  Ge  Ge398  1  0.23064669  0.93704931  0.77980196  1.0
  Ge  Ge399  1  0.56398002  0.27038264  0.77980196  1.0
  Ge  Ge400  1  0.56398002  0.60371598  0.77980196  1.0
  Ge  Ge401  1  0.56398002  0.93704931  0.77980196  1.0
  Ge  Ge402  1  0.89731336  0.27038264  0.77980196  1.0
  Ge  Ge403  1  0.89731336  0.60371598  0.77980196  1.0
  Ge  Ge404  1  0.89731336  0.93704931  0.77980196  1.0
  Ge  Ge405  1  0.01636098  0.15133502  0.85123054  1.0
  Ge  Ge406  1  0.01636098  0.48466836  0.85123054  1.0
  Ge  Ge407  1  0.01636098  0.81800169  0.85123054  1.0
  Ge  Ge408  1  0.34969431  0.15133502  0.85123054  1.0
  Ge  Ge409  1  0.34969431  0.48466836  0.85123054  1.0
  Ge  Ge410  1  0.34969431  0.81800169  0.85123054  1.0
  Ge  Ge411  1  0.68302764  0.15133502  0.85123054  1.0
  Ge  Ge412  1  0.68302764  0.48466836  0.85123054  1.0
  Ge  Ge413  1  0.68302764  0.81800169  0.85123054  1.0
  Ge  Ge414  1  0.08770943  0.07998657  0.82782161  1.0
  Ge  Ge415  1  0.08770943  0.41331990  0.82782161  1.0
  Ge  Ge416  1  0.08770943  0.74665324  0.82782161  1.0
  Ge  Ge417  1  0.42104276  0.07998657  0.82782161  1.0
  Ge  Ge418  1  0.42104276  0.41331990  0.82782161  1.0
  Ge  Ge419  1  0.42104276  0.74665324  0.82782161  1.0
  Ge  Ge420  1  0.75437610  0.07998657  0.82782161  1.0
  Ge  Ge421  1  0.75437610  0.41331990  0.82782161  1.0
  Ge  Ge422  1  0.75437610  0.74665324  0.82782161  1.0
  Ge  Ge423  1  0.30199514  0.19903419  0.75639304  1.0
  Ge  Ge424  1  0.30199514  0.53236752  0.75639304  1.0
  Ge  Ge425  1  0.30199514  0.86570086  0.75639304  1.0
  Ge  Ge426  1  0.63532848  0.19903419  0.75639304  1.0
  Ge  Ge427  1  0.63532848  0.53236752  0.75639304  1.0
  Ge  Ge428  1  0.63532848  0.86570086  0.75639304  1.0
  Ge  Ge429  1  0.96866181  0.19903419  0.75639304  1.0
  Ge  Ge430  1  0.96866181  0.53236752  0.75639304  1.0
  Ge  Ge431  1  0.96866181  0.86570086  0.75639304  1.0
  Ge  Ge432  1  0.01900788  0.23939145  0.66528768  1.0
  Ge  Ge433  1  0.01900788  0.57272479  0.66528768  1.0
  Ge  Ge434  1  0.01900788  0.90605812  0.66528768  1.0
  Ge  Ge435  1  0.35234121  0.23939145  0.66528768  1.0
  Ge  Ge436  1  0.35234121  0.57272479  0.66528768  1.0
  Ge  Ge437  1  0.35234121  0.90605812  0.66528768  1.0
  Ge  Ge438  1  0.68567455  0.23939145  0.66528768  1.0
  Ge  Ge439  1  0.68567455  0.57272479  0.66528768  1.0
  Ge  Ge440  1  0.68567455  0.90605812  0.66528768  1.0
  Ge  Ge441  1  0.23329360  0.02510574  0.59385911  1.0
  Ge  Ge442  1  0.23329360  0.35843907  0.59385911  1.0
  Ge  Ge443  1  0.23329360  0.69177240  0.59385911  1.0
  Ge  Ge444  1  0.56662693  0.02510574  0.59385911  1.0
  Ge  Ge445  1  0.56662693  0.35843907  0.59385911  1.0
  Ge  Ge446  1  0.56662693  0.69177240  0.59385911  1.0
  Ge  Ge447  1  0.89996026  0.02510574  0.59385911  1.0
  Ge  Ge448  1  0.89996026  0.35843907  0.59385911  1.0
  Ge  Ge449  1  0.89996026  0.69177240  0.59385911  1.0
  Ge  Ge450  1  0.24519836  0.17986764  0.70100196  1.0
  Ge  Ge451  1  0.24519836  0.51320098  0.70100196  1.0
  Ge  Ge452  1  0.24519836  0.84653431  0.70100196  1.0
  Ge  Ge453  1  0.57853169  0.17986764  0.70100196  1.0
  Ge  Ge454  1  0.57853169  0.51320098  0.70100196  1.0
  Ge  Ge455  1  0.57853169  0.84653431  0.70100196  1.0
  Ge  Ge456  1  0.91186502  0.17986764  0.70100196  1.0
  Ge  Ge457  1  0.91186502  0.51320098  0.70100196  1.0
  Ge  Ge458  1  0.91186502  0.84653431  0.70100196  1.0
  Ge  Ge459  1  0.12615074  0.29891526  0.62957339  1.0
  Ge  Ge460  1  0.12615074  0.63224860  0.62957339  1.0
  Ge  Ge461  1  0.12615074  0.96558193  0.62957339  1.0
  Ge  Ge462  1  0.45948407  0.29891526  0.62957339  1.0
  Ge  Ge463  1  0.45948407  0.63224860  0.62957339  1.0
  Ge  Ge464  1  0.45948407  0.96558193  0.62957339  1.0
  Ge  Ge465  1  0.79281740  0.29891526  0.62957339  1.0
  Ge  Ge466  1  0.79281740  0.63224860  0.62957339  1.0
  Ge  Ge467  1  0.79281740  0.96558193  0.62957339  1.0
  Ge  Ge468  1  0.29307488  0.28053979  0.57393201  1.0
  Ge  Ge469  1  0.29307488  0.61387312  0.57393201  1.0
  Ge  Ge470  1  0.29307488  0.94720645  0.57393201  1.0
  Ge  Ge471  1  0.62640821  0.28053979  0.57393201  1.0
  Ge  Ge472  1  0.62640821  0.61387312  0.57393201  1.0
  Ge  Ge473  1  0.62640821  0.94720645  0.57393201  1.0
  Ge  Ge474  1  0.95974155  0.28053979  0.57393201  1.0
  Ge  Ge475  1  0.95974155  0.61387312  0.57393201  1.0
  Ge  Ge476  1  0.95974155  0.94720645  0.57393201  1.0
  Ge  Ge477  1  0.07878917  0.16149217  0.64536058  1.0
  Ge  Ge478  1  0.07878917  0.49482550  0.64536058  1.0
  Ge  Ge479  1  0.07878917  0.82815883  0.64536058  1.0
  Ge  Ge480  1  0.41212250  0.16149217  0.64536058  1.0
  Ge  Ge481  1  0.41212250  0.49482550  0.64536058  1.0
  Ge  Ge482  1  0.41212250  0.82815883  0.64536058  1.0
  Ge  Ge483  1  0.74545583  0.16149217  0.64536058  1.0
  Ge  Ge484  1  0.74545583  0.49482550  0.64536058  1.0
  Ge  Ge485  1  0.74545583  0.82815883  0.64536058  1.0
  Ge  Ge486  1  0.26926536  0.30434931  0.69297963  1.0
  Ge  Ge487  1  0.26926536  0.63768264  0.69297963  1.0
  Ge  Ge488  1  0.26926536  0.97101598  0.69297963  1.0
  Ge  Ge489  1  0.60259869  0.30434931  0.69297963  1.0
  Ge  Ge490  1  0.60259869  0.63768264  0.69297963  1.0
  Ge  Ge491  1  0.60259869  0.97101598  0.69297963  1.0
  Ge  Ge492  1  0.93593202  0.30434931  0.69297963  1.0
  Ge  Ge493  1  0.93593202  0.63768264  0.69297963  1.0
  Ge  Ge494  1  0.93593202  0.97101598  0.69297963  1.0
  Ge  Ge495  1  0.15021774  0.09006360  0.62155106  1.0
  Ge  Ge496  1  0.15021774  0.42339693  0.62155106  1.0
  Ge  Ge497  1  0.15021774  0.75673026  0.62155106  1.0
  Ge  Ge498  1  0.48355107  0.09006360  0.62155106  1.0
  Ge  Ge499  1  0.48355107  0.42339693  0.62155106  1.0
  Ge  Ge500  1  0.48355107  0.75673026  0.62155106  1.0
  Ge  Ge501  1  0.81688440  0.09006360  0.62155106  1.0
  Ge  Ge502  1  0.81688440  0.42339693  0.62155106  1.0
  Ge  Ge503  1  0.81688440  0.75673026  0.62155106  1.0
  Ge  Ge504  1  0.25736060  0.14958740  0.58583677  1.0
  Ge  Ge505  1  0.25736060  0.48292074  0.58583677  1.0
  Ge  Ge506  1  0.25736060  0.81625407  0.58583677  1.0
  Ge  Ge507  1  0.59069393  0.14958740  0.58583677  1.0
  Ge  Ge508  1  0.59069393  0.48292074  0.58583677  1.0
  Ge  Ge509  1  0.59069393  0.81625407  0.58583677  1.0
  Ge  Ge510  1  0.92402726  0.14958740  0.58583677  1.0
  Ge  Ge511  1  0.92402726  0.48292074  0.58583677  1.0
  Ge  Ge512  1  0.92402726  0.81625407  0.58583677  1.0
  Ge  Ge513  1  0.04307488  0.03053979  0.65726535  1.0
  Ge  Ge514  1  0.04307488  0.36387312  0.65726535  1.0
  Ge  Ge515  1  0.04307488  0.69720645  0.65726535  1.0
  Ge  Ge516  1  0.37640821  0.03053979  0.65726535  1.0
  Ge  Ge517  1  0.37640821  0.36387312  0.65726535  1.0
  Ge  Ge518  1  0.37640821  0.69720645  0.65726535  1.0
  Ge  Ge519  1  0.70974155  0.03053979  0.65726535  1.0
  Ge  Ge520  1  0.70974155  0.36387312  0.65726535  1.0
  Ge  Ge521  1  0.70974155  0.69720645  0.65726535  1.0
  Ge  Ge522  1  0.18593202  0.22101598  0.60964630  1.0
  Ge  Ge523  1  0.18593202  0.55434931  0.60964630  1.0
  Ge  Ge524  1  0.18593202  0.88768264  0.60964630  1.0
  Ge  Ge525  1  0.51926536  0.22101598  0.60964630  1.0
  Ge  Ge526  1  0.51926536  0.55434931  0.60964630  1.0
  Ge  Ge527  1  0.51926536  0.88768264  0.60964630  1.0
  Ge  Ge528  1  0.85259869  0.22101598  0.60964630  1.0
  Ge  Ge529  1  0.85259869  0.55434931  0.60964630  1.0
  Ge  Ge530  1  0.85259869  0.88768264  0.60964630  1.0
  Ge  Ge531  1  0.30497964  0.10196836  0.68107487  1.0
  Ge  Ge532  1  0.30497964  0.43530169  0.68107487  1.0
  Ge  Ge533  1  0.30497964  0.76863502  0.68107487  1.0
  Ge  Ge534  1  0.63831298  0.10196836  0.68107487  1.0
  Ge  Ge535  1  0.63831298  0.43530169  0.68107487  1.0
  Ge  Ge536  1  0.63831298  0.76863502  0.68107487  1.0
  Ge  Ge537  1  0.97164631  0.10196836  0.68107487  1.0
  Ge  Ge538  1  0.97164631  0.43530169  0.68107487  1.0
  Ge  Ge539  1  0.97164631  0.76863502  0.68107487  1.0
  Ge  Ge540  1  0.10765752  0.22670514  0.67289946  1.0
  Ge  Ge541  1  0.10765752  0.56003848  0.67289946  1.0
  Ge  Ge542  1  0.10765752  0.89337181  0.67289946  1.0
  Ge  Ge543  1  0.44099086  0.22670514  0.67289946  1.0
  Ge  Ge544  1  0.44099086  0.56003848  0.67289946  1.0
  Ge  Ge545  1  0.44099086  0.89337181  0.67289946  1.0
  Ge  Ge546  1  0.77432419  0.22670514  0.67289946  1.0
  Ge  Ge547  1  0.77432419  0.56003848  0.67289946  1.0
  Ge  Ge548  1  0.77432419  0.89337181  0.67289946  1.0
  Ge  Ge549  1  0.32194324  0.01241943  0.60147089  1.0
  Ge  Ge550  1  0.32194324  0.34575276  0.60147089  1.0
  Ge  Ge551  1  0.32194324  0.67908610  0.60147089  1.0
  Ge  Ge552  1  0.65527657  0.01241943  0.60147089  1.0
  Ge  Ge553  1  0.65527657  0.34575276  0.60147089  1.0
  Ge  Ge554  1  0.65527657  0.67908610  0.60147089  1.0
  Ge  Ge555  1  0.98860990  0.01241943  0.60147089  1.0
  Ge  Ge556  1  0.98860990  0.34575276  0.60147089  1.0
  Ge  Ge557  1  0.98860990  0.67908610  0.60147089  1.0
  Ge  Ge558  1  0.25027431  0.08408836  0.62536054  1.0
  Ge  Ge559  1  0.25027431  0.41742169  0.62536054  1.0
  Ge  Ge560  1  0.25027431  0.75075502  0.62536054  1.0
  Ge  Ge561  1  0.58360764  0.08408836  0.62536054  1.0
  Ge  Ge562  1  0.58360764  0.41742169  0.62536054  1.0
  Ge  Ge563  1  0.58360764  0.75075502  0.62536054  1.0
  Ge  Ge564  1  0.91694098  0.08408836  0.62536054  1.0
  Ge  Ge565  1  0.91694098  0.41742169  0.62536054  1.0
  Ge  Ge566  1  0.91694098  0.75075502  0.62536054  1.0
  Ge  Ge567  1  0.03598860  0.29837407  0.69678911  1.0
  Ge  Ge568  1  0.03598860  0.63170740  0.69678911  1.0
  Ge  Ge569  1  0.03598860  0.96504074  0.69678911  1.0
  Ge  Ge570  1  0.36932193  0.29837407  0.69678911  1.0
  Ge  Ge571  1  0.36932193  0.63170740  0.69678911  1.0
  Ge  Ge572  1  0.36932193  0.96504074  0.69678911  1.0
  Ge  Ge573  1  0.70265526  0.29837407  0.69678911  1.0
  Ge  Ge574  1  0.70265526  0.63170740  0.69678911  1.0
  Ge  Ge575  1  0.70265526  0.96504074  0.69678911  1.0
  Ge  Ge576  1  0.17892586  0.15543681  0.64876946  1.0
  Ge  Ge577  1  0.17892586  0.48877014  0.64876946  1.0
  Ge  Ge578  1  0.17892586  0.82210348  0.64876946  1.0
  Ge  Ge579  1  0.51225919  0.15543681  0.64876946  1.0
  Ge  Ge580  1  0.51225919  0.48877014  0.64876946  1.0
  Ge  Ge581  1  0.51225919  0.82210348  0.64876946  1.0
  Ge  Ge582  1  0.84559252  0.15543681  0.64876946  1.0
  Ge  Ge583  1  0.84559252  0.48877014  0.64876946  1.0
  Ge  Ge584  1  0.84559252  0.82210348  0.64876946  1.0
  Ge  Ge585  1  0.05987824  0.27448443  0.57734089  1.0
  Ge  Ge586  1  0.05987824  0.60781776  0.57734089  1.0
  Ge  Ge587  1  0.05987824  0.94115110  0.57734089  1.0
  Ge  Ge588  1  0.39321157  0.27448443  0.57734089  1.0
  Ge  Ge589  1  0.39321157  0.60781776  0.57734089  1.0
  Ge  Ge590  1  0.39321157  0.94115110  0.57734089  1.0
  Ge  Ge591  1  0.72654490  0.27448443  0.57734089  1.0
  Ge  Ge592  1  0.72654490  0.60781776  0.57734089  1.0
  Ge  Ge593  1  0.72654490  0.94115110  0.57734089  1.0
  Ge  Ge594  1  0.25421586  0.24681348  0.66083446  1.0
  Ge  Ge595  1  0.25421586  0.58014681  0.66083446  1.0
  Ge  Ge596  1  0.25421586  0.91348014  0.66083446  1.0
  Ge  Ge597  1  0.58754919  0.24681348  0.66083446  1.0
  Ge  Ge598  1  0.58754919  0.58014681  0.66083446  1.0
  Ge  Ge599  1  0.58754919  0.91348014  0.66083446  1.0
  Ge  Ge600  1  0.92088252  0.24681348  0.66083446  1.0
  Ge  Ge601  1  0.92088252  0.58014681  0.66083446  1.0
  Ge  Ge602  1  0.92088252  0.91348014  0.66083446  1.0
  Ge  Ge603  1  0.13516824  0.03252776  0.58940589  1.0
  Ge  Ge604  1  0.13516824  0.36586110  0.58940589  1.0
  Ge  Ge605  1  0.13516824  0.69919443  0.58940589  1.0
  Ge  Ge606  1  0.46850157  0.03252776  0.58940589  1.0
  Ge  Ge607  1  0.46850157  0.36586110  0.58940589  1.0
  Ge  Ge608  1  0.46850157  0.69919443  0.58940589  1.0
  Ge  Ge609  1  0.80183490  0.03252776  0.58940589  1.0
  Ge  Ge610  1  0.80183490  0.36586110  0.58940589  1.0
  Ge  Ge611  1  0.80183490  0.69919443  0.58940589  1.0
  Ge  Ge612  1  0.32588479  0.17514455  0.63694482  1.0
  Ge  Ge613  1  0.32588479  0.50847788  0.63694482  1.0
  Ge  Ge614  1  0.32588479  0.84181121  0.63694482  1.0
  Ge  Ge615  1  0.65921812  0.17514455  0.63694482  1.0
  Ge  Ge616  1  0.65921812  0.50847788  0.63694482  1.0
  Ge  Ge617  1  0.65921812  0.84181121  0.63694482  1.0
  Ge  Ge618  1  0.99255145  0.17514455  0.63694482  1.0
  Ge  Ge619  1  0.99255145  0.50847788  0.63694482  1.0
  Ge  Ge620  1  0.99255145  0.84181121  0.63694482  1.0
  Ge  Ge621  1  0.11159907  0.05609693  0.70837339  1.0
  Ge  Ge622  1  0.11159907  0.38943026  0.70837339  1.0
  Ge  Ge623  1  0.11159907  0.72276360  0.70837339  1.0
  Ge  Ge624  1  0.44493240  0.05609693  0.70837339  1.0
  Ge  Ge625  1  0.44493240  0.38943026  0.70837339  1.0
  Ge  Ge626  1  0.44493240  0.72276360  0.70837339  1.0
  Ge  Ge627  1  0.77826574  0.05609693  0.70837339  1.0
  Ge  Ge628  1  0.77826574  0.38943026  0.70837339  1.0
  Ge  Ge629  1  0.77826574  0.72276360  0.70837339  1.0
  Ge  Ge630  1  0.18294752  0.31808181  0.68496446  1.0
  Ge  Ge631  1  0.18294752  0.65141514  0.68496446  1.0
  Ge  Ge632  1  0.18294752  0.98474848  0.68496446  1.0
  Ge  Ge633  1  0.51628086  0.31808181  0.68496446  1.0
  Ge  Ge634  1  0.51628086  0.65141514  0.68496446  1.0
  Ge  Ge635  1  0.51628086  0.98474848  0.68496446  1.0
  Ge  Ge636  1  0.84961419  0.31808181  0.68496446  1.0
  Ge  Ge637  1  0.84961419  0.65141514  0.68496446  1.0
  Ge  Ge638  1  0.84961419  0.98474848  0.68496446  1.0
  Ge  Ge639  1  0.06389990  0.10379610  0.61353589  1.0
  Ge  Ge640  1  0.06389990  0.43712943  0.61353589  1.0
  Ge  Ge641  1  0.06389990  0.77046276  0.61353589  1.0
  Ge  Ge642  1  0.39723324  0.10379610  0.61353589  1.0
  Ge  Ge643  1  0.39723324  0.43712943  0.61353589  1.0
  Ge  Ge644  1  0.39723324  0.77046276  0.61353589  1.0
  Ge  Ge645  1  0.73056657  0.10379610  0.61353589  1.0
  Ge  Ge646  1  0.73056657  0.43712943  0.61353589  1.0
  Ge  Ge647  1  0.73056657  0.77046276  0.61353589  1.0
  Ni  Ni648  1  0.10633983  0.25087217  0.85839925  1.0
  Ni  Ni649  1  0.10633983  0.58420550  0.85839925  1.0
  Ni  Ni650  1  0.10633983  0.91753883  0.85839925  1.0
  Ni  Ni651  1  0.43967317  0.25087217  0.85839925  1.0
  Ni  Ni652  1  0.43967317  0.58420550  0.85839925  1.0
  Ni  Ni653  1  0.43967317  0.91753883  0.85839925  1.0
  Ni  Ni654  1  0.77300650  0.25087217  0.85839925  1.0
  Ni  Ni655  1  0.77300650  0.58420550  0.85839925  1.0
  Ni  Ni656  1  0.77300650  0.91753883  0.85839925  1.0
  Ni  Ni657  1  0.22538745  0.13182455  0.92982782  1.0
  Ni  Ni658  1  0.22538745  0.46515788  0.92982782  1.0
  Ni  Ni659  1  0.22538745  0.79849121  0.92982782  1.0
  Ni  Ni660  1  0.55872079  0.13182455  0.92982782  1.0
  Ni  Ni661  1  0.55872079  0.46515788  0.92982782  1.0
  Ni  Ni662  1  0.55872079  0.79849121  0.92982782  1.0
  Ni  Ni663  1  0.89205412  0.13182455  0.92982782  1.0
  Ni  Ni664  1  0.89205412  0.46515788  0.92982782  1.0
  Ni  Ni665  1  0.89205412  0.79849121  0.92982782  1.0
  Ni  Ni666  1  0.11824460  0.07230074  0.96554211  1.0
  Ni  Ni667  1  0.11824460  0.40563407  0.96554211  1.0
  Ni  Ni668  1  0.11824460  0.73896740  0.96554211  1.0
  Ni  Ni669  1  0.45157793  0.07230074  0.96554211  1.0
  Ni  Ni670  1  0.45157793  0.40563407  0.96554211  1.0
  Ni  Ni671  1  0.45157793  0.73896740  0.96554211  1.0
  Ni  Ni672  1  0.78491126  0.07230074  0.96554211  1.0
  Ni  Ni673  1  0.78491126  0.40563407  0.96554211  1.0
  Ni  Ni674  1  0.78491126  0.73896740  0.96554211  1.0
  Ni  Ni675  1  0.33253031  0.19134836  0.89411354  1.0
  Ni  Ni676  1  0.33253031  0.52468169  0.89411354  1.0
  Ni  Ni677  1  0.33253031  0.85801502  0.89411354  1.0
  Ni  Ni678  1  0.66586364  0.19134836  0.89411354  1.0
  Ni  Ni679  1  0.66586364  0.52468169  0.89411354  1.0
  Ni  Ni680  1  0.66586364  0.85801502  0.89411354  1.0
  Ni  Ni681  1  0.99919698  0.19134836  0.89411354  1.0
  Ni  Ni682  1  0.99919698  0.52468169  0.89411354  1.0
  Ni  Ni683  1  0.99919698  0.85801502  0.89411354  1.0
  Ni  Ni684  1  0.05159281  0.25749419  0.98775937  1.0
  Ni  Ni685  1  0.05159281  0.59082752  0.98775937  1.0
  Ni  Ni686  1  0.05159281  0.92416086  0.98775937  1.0
  Ni  Ni687  1  0.38492614  0.25749419  0.98775937  1.0
  Ni  Ni688  1  0.38492614  0.59082752  0.98775937  1.0
  Ni  Ni689  1  0.38492614  0.92416086  0.98775937  1.0
  Ni  Ni690  1  0.71825948  0.25749419  0.98775937  1.0
  Ni  Ni691  1  0.71825948  0.59082752  0.98775937  1.0
  Ni  Ni692  1  0.71825948  0.92416086  0.98775937  1.0
  Ni  Ni693  1  0.26587852  0.04320848  0.91633080  1.0
  Ni  Ni694  1  0.26587852  0.37654181  0.91633080  1.0
  Ni  Ni695  1  0.26587852  0.70987514  0.91633080  1.0
  Ni  Ni696  1  0.59921186  0.04320848  0.91633080  1.0
  Ni  Ni697  1  0.59921186  0.37654181  0.91633080  1.0
  Ni  Ni698  1  0.59921186  0.70987514  0.91633080  1.0
  Ni  Ni699  1  0.93254519  0.04320848  0.91633080  1.0
  Ni  Ni700  1  0.93254519  0.37654181  0.91633080  1.0
  Ni  Ni701  1  0.93254519  0.70987514  0.91633080  1.0
  Ni  Ni702  1  0.12302138  0.18606562  0.96394985  1.0
  Ni  Ni703  1  0.12302138  0.51939895  0.96394985  1.0
  Ni  Ni704  1  0.12302138  0.85273229  0.96394985  1.0
  Ni  Ni705  1  0.45635471  0.18606562  0.96394985  1.0
  Ni  Ni706  1  0.45635471  0.51939895  0.96394985  1.0
  Ni  Ni707  1  0.45635471  0.85273229  0.96394985  1.0
  Ni  Ni708  1  0.78968805  0.18606562  0.96394985  1.0
  Ni  Ni709  1  0.78968805  0.51939895  0.96394985  1.0
  Ni  Ni710  1  0.78968805  0.85273229  0.96394985  1.0
  Ni  Ni711  1  0.00397376  0.30511324  0.89252127  1.0
  Ni  Ni712  1  0.00397376  0.63844657  0.89252127  1.0
  Ni  Ni713  1  0.00397376  0.97177990  0.89252127  1.0
  Ni  Ni714  1  0.33730710  0.30511324  0.89252127  1.0
  Ni  Ni715  1  0.33730710  0.63844657  0.89252127  1.0
  Ni  Ni716  1  0.33730710  0.97177990  0.89252127  1.0
  Ni  Ni717  1  0.67064043  0.30511324  0.89252127  1.0
  Ni  Ni718  1  0.67064043  0.63844657  0.89252127  1.0
  Ni  Ni719  1  0.67064043  0.97177990  0.89252127  1.0
  Ni  Ni720  1  0.01587852  0.12654181  0.99966413  1.0
  Ni  Ni721  1  0.01587852  0.45987514  0.99966413  1.0
  Ni  Ni722  1  0.01587852  0.79320848  0.99966413  1.0
  Ni  Ni723  1  0.34921186  0.12654181  0.99966413  1.0
  Ni  Ni724  1  0.34921186  0.45987514  0.99966413  1.0
  Ni  Ni725  1  0.34921186  0.79320848  0.99966413  1.0
  Ni  Ni726  1  0.68254519  0.12654181  0.99966413  1.0
  Ni  Ni727  1  0.68254519  0.45987514  0.99966413  1.0
  Ni  Ni728  1  0.68254519  0.79320848  0.99966413  1.0
  Ni  Ni729  1  0.23016424  0.24558943  0.92823556  1.0
  Ni  Ni730  1  0.23016424  0.57892276  0.92823556  1.0
  Ni  Ni731  1  0.23016424  0.91225610  0.92823556  1.0
  Ni  Ni732  1  0.56349757  0.24558943  0.92823556  1.0
  Ni  Ni733  1  0.56349757  0.57892276  0.92823556  1.0
  Ni  Ni734  1  0.56349757  0.91225610  0.92823556  1.0
  Ni  Ni735  1  0.89683090  0.24558943  0.92823556  1.0
  Ni  Ni736  1  0.89683090  0.57892276  0.92823556  1.0
  Ni  Ni737  1  0.89683090  0.91225610  0.92823556  1.0
  Ni  Ni738  1  0.03968805  0.10273229  0.88061651  1.0
  Ni  Ni739  1  0.03968805  0.43606562  0.88061651  1.0
  Ni  Ni740  1  0.03968805  0.76939895  0.88061651  1.0
  Ni  Ni741  1  0.37302138  0.10273229  0.88061651  1.0
  Ni  Ni742  1  0.37302138  0.43606562  0.88061651  1.0
  Ni  Ni743  1  0.37302138  0.76939895  0.88061651  1.0
  Ni  Ni744  1  0.70635471  0.10273229  0.88061651  1.0
  Ni  Ni745  1  0.70635471  0.43606562  0.88061651  1.0
  Ni  Ni746  1  0.70635471  0.76939895  0.88061651  1.0
  Ni  Ni747  1  0.15873567  0.31701800  0.95204508  1.0
  Ni  Ni748  1  0.15873567  0.65035133  0.95204508  1.0
  Ni  Ni749  1  0.15873567  0.98368467  0.95204508  1.0
  Ni  Ni750  1  0.49206900  0.31701800  0.95204508  1.0
  Ni  Ni751  1  0.49206900  0.65035133  0.95204508  1.0
  Ni  Ni752  1  0.49206900  0.98368467  0.95204508  1.0
  Ni  Ni753  1  0.82540233  0.31701800  0.95204508  1.0
  Ni  Ni754  1  0.82540233  0.65035133  0.95204508  1.0
  Ni  Ni755  1  0.82540233  0.98368467  0.95204508  1.0
  Ni  Ni756  1  0.15779967  0.14331133  0.92293575  1.0
  Ni  Ni757  1  0.15779967  0.47664467  0.92293575  1.0
  Ni  Ni758  1  0.15779967  0.80997800  0.92293575  1.0
  Ni  Ni759  1  0.49113300  0.14331133  0.92293575  1.0
  Ni  Ni760  1  0.49113300  0.47664467  0.92293575  1.0
  Ni  Ni761  1  0.49113300  0.80997800  0.92293575  1.0
  Ni  Ni762  1  0.82446633  0.14331133  0.92293575  1.0
  Ni  Ni763  1  0.82446633  0.47664467  0.92293575  1.0
  Ni  Ni764  1  0.82446633  0.80997800  0.92293575  1.0
  Ni  Ni765  1  0.27684729  0.02426371  0.99436432  1.0
  Ni  Ni766  1  0.27684729  0.35759705  0.99436432  1.0
  Ni  Ni767  1  0.27684729  0.69093038  0.99436432  1.0
  Ni  Ni768  1  0.61018062  0.02426371  0.99436432  1.0
  Ni  Ni769  1  0.61018062  0.35759705  0.99436432  1.0
  Ni  Ni770  1  0.61018062  0.69093038  0.99436432  1.0
  Ni  Ni771  1  0.94351395  0.02426371  0.99436432  1.0
  Ni  Ni772  1  0.94351395  0.35759705  0.99436432  1.0
  Ni  Ni773  1  0.94351395  0.69093038  0.99436432  1.0
  Ni  Ni774  1  0.21454081  0.08657019  0.90402204  1.0
  Ni  Ni775  1  0.21454081  0.41990352  0.90402204  1.0
  Ni  Ni776  1  0.21454081  0.75323686  0.90402204  1.0
  Ni  Ni777  1  0.54787414  0.08657019  0.90402204  1.0
  Ni  Ni778  1  0.54787414  0.41990352  0.90402204  1.0
  Ni  Ni779  1  0.54787414  0.75323686  0.90402204  1.0
  Ni  Ni780  1  0.88120748  0.08657019  0.90402204  1.0
  Ni  Ni781  1  0.88120748  0.41990352  0.90402204  1.0
  Ni  Ni782  1  0.88120748  0.75323686  0.90402204  1.0
  Ni  Ni783  1  0.00025510  0.30085590  0.97545061  1.0
  Ni  Ni784  1  0.00025510  0.63418924  0.97545061  1.0
  Ni  Ni785  1  0.00025510  0.96752257  0.97545061  1.0
  Ni  Ni786  1  0.33358843  0.30085590  0.97545061  1.0
  Ni  Ni787  1  0.33358843  0.63418924  0.97545061  1.0
  Ni  Ni788  1  0.33358843  0.96752257  0.97545061  1.0
  Ni  Ni789  1  0.66692176  0.30085590  0.97545061  1.0
  Ni  Ni790  1  0.66692176  0.63418924  0.97545061  1.0
  Ni  Ni791  1  0.66692176  0.96752257  0.97545061  1.0
  Ni  Ni792  1  0.07657948  0.22453152  0.92716204  1.0
  Ni  Ni793  1  0.07657948  0.55786486  0.92716204  1.0
  Ni  Ni794  1  0.07657948  0.89119819  0.92716204  1.0
  Ni  Ni795  1  0.40991281  0.22453152  0.92716204  1.0
  Ni  Ni796  1  0.40991281  0.55786486  0.92716204  1.0
  Ni  Ni797  1  0.40991281  0.89119819  0.92716204  1.0
  Ni  Ni798  1  0.74324614  0.22453152  0.92716204  1.0
  Ni  Ni799  1  0.74324614  0.55786486  0.92716204  1.0
  Ni  Ni800  1  0.74324614  0.89119819  0.92716204  1.0
  Ni  Ni801  1  0.19562710  0.10548390  0.99859061  1.0
  Ni  Ni802  1  0.19562710  0.43881724  0.99859061  1.0
  Ni  Ni803  1  0.19562710  0.77215057  0.99859061  1.0
  Ni  Ni804  1  0.52896043  0.10548390  0.99859061  1.0
  Ni  Ni805  1  0.52896043  0.43881724  0.99859061  1.0
  Ni  Ni806  1  0.52896043  0.77215057  0.99859061  1.0
  Ni  Ni807  1  0.86229376  0.10548390  0.99859061  1.0
  Ni  Ni808  1  0.86229376  0.43881724  0.99859061  1.0
  Ni  Ni809  1  0.86229376  0.77215057  0.99859061  1.0
  Ni  Ni810  1  0.32798824  0.13978943  0.92504889  1.0
  Ni  Ni811  1  0.32798824  0.47312276  0.92504889  1.0
  Ni  Ni812  1  0.32798824  0.80645610  0.92504889  1.0
  Ni  Ni813  1  0.66132157  0.13978943  0.92504889  1.0
  Ni  Ni814  1  0.66132157  0.47312276  0.92504889  1.0
  Ni  Ni815  1  0.66132157  0.80645610  0.92504889  1.0
  Ni  Ni816  1  0.99465490  0.13978943  0.92504889  1.0
  Ni  Ni817  1  0.99465490  0.47312276  0.92504889  1.0
  Ni  Ni818  1  0.99465490  0.80645610  0.92504889  1.0
  Ni  Ni819  1  0.11370252  0.02074181  0.99647746  1.0
  Ni  Ni820  1  0.11370252  0.35407514  0.99647746  1.0
  Ni  Ni821  1  0.11370252  0.68740848  0.99647746  1.0
  Ni  Ni822  1  0.44703586  0.02074181  0.99647746  1.0
  Ni  Ni823  1  0.44703586  0.35407514  0.99647746  1.0
  Ni  Ni824  1  0.44703586  0.68740848  0.99647746  1.0
  Ni  Ni825  1  0.78036919  0.02074181  0.99647746  1.0
  Ni  Ni826  1  0.78036919  0.35407514  0.99647746  1.0
  Ni  Ni827  1  0.78036919  0.68740848  0.99647746  1.0
  Ni  Ni828  1  0.15219948  0.31557819  0.87253404  1.0
  Ni  Ni829  1  0.15219948  0.64891152  0.87253404  1.0
  Ni  Ni830  1  0.15219948  0.98224486  0.87253404  1.0
  Ni  Ni831  1  0.48553281  0.31557819  0.87253404  1.0
  Ni  Ni832  1  0.48553281  0.64891152  0.87253404  1.0
  Ni  Ni833  1  0.48553281  0.98224486  0.87253404  1.0
  Ni  Ni834  1  0.81886614  0.31557819  0.87253404  1.0
  Ni  Ni835  1  0.81886614  0.64891152  0.87253404  1.0
  Ni  Ni836  1  0.81886614  0.98224486  0.87253404  1.0
  Ni  Ni837  1  0.27124710  0.19653057  0.94396261  1.0
  Ni  Ni838  1  0.27124710  0.52986390  0.94396261  1.0
  Ni  Ni839  1  0.27124710  0.86319724  0.94396261  1.0
  Ni  Ni840  1  0.60458043  0.19653057  0.94396261  1.0
  Ni  Ni841  1  0.60458043  0.52986390  0.94396261  1.0
  Ni  Ni842  1  0.60458043  0.86319724  0.94396261  1.0
  Ni  Ni843  1  0.93791376  0.19653057  0.94396261  1.0
  Ni  Ni844  1  0.93791376  0.52986390  0.94396261  1.0
  Ni  Ni845  1  0.93791376  0.86319724  0.94396261  1.0
  Ni  Ni846  1  0.07587510  0.05856924  0.92082261  1.0
  Ni  Ni847  1  0.07587510  0.39190257  0.92082261  1.0
  Ni  Ni848  1  0.07587510  0.72523590  0.92082261  1.0
  Ni  Ni849  1  0.40920843  0.05856924  0.92082261  1.0
  Ni  Ni850  1  0.40920843  0.39190257  0.92082261  1.0
  Ni  Ni851  1  0.40920843  0.72523590  0.92082261  1.0
  Ni  Ni852  1  0.74254176  0.05856924  0.92082261  1.0
  Ni  Ni853  1  0.74254176  0.39190257  0.92082261  1.0
  Ni  Ni854  1  0.74254176  0.72523590  0.92082261  1.0
  Ni  Ni855  1  0.19492271  0.27285495  0.99225118  1.0
  Ni  Ni856  1  0.19492271  0.60618829  0.99225118  1.0
  Ni  Ni857  1  0.19492271  0.93952162  0.99225118  1.0
  Ni  Ni858  1  0.52825605  0.27285495  0.99225118  1.0
  Ni  Ni859  1  0.52825605  0.60618829  0.99225118  1.0
  Ni  Ni860  1  0.52825605  0.93952162  0.99225118  1.0
  Ni  Ni861  1  0.86158938  0.27285495  0.99225118  1.0
  Ni  Ni862  1  0.86158938  0.60618829  0.99225118  1.0
  Ni  Ni863  1  0.86158938  0.93952162  0.99225118  1.0
  Ni  Ni864  1  0.09424205  0.17493562  0.90396118  1.0
  Ni  Ni865  1  0.09424205  0.50826895  0.90396118  1.0
  Ni  Ni866  1  0.09424205  0.84160229  0.90396118  1.0
  Ni  Ni867  1  0.42757538  0.17493562  0.90396118  1.0
  Ni  Ni868  1  0.42757538  0.50826895  0.90396118  1.0
  Ni  Ni869  1  0.42757538  0.84160229  0.90396118  1.0
  Ni  Ni870  1  0.76090871  0.17493562  0.90396118  1.0
  Ni  Ni871  1  0.76090871  0.50826895  0.90396118  1.0
  Ni  Ni872  1  0.76090871  0.84160229  0.90396118  1.0
  Ni  Ni873  1  0.21328967  0.05588800  0.97538975  1.0
  Ni  Ni874  1  0.21328967  0.38922133  0.97538975  1.0
  Ni  Ni875  1  0.21328967  0.72255467  0.97538975  1.0
  Ni  Ni876  1  0.54662300  0.05588800  0.97538975  1.0
  Ni  Ni877  1  0.54662300  0.38922133  0.97538975  1.0
  Ni  Ni878  1  0.54662300  0.72255467  0.97538975  1.0
  Ni  Ni879  1  0.87995633  0.05588800  0.97538975  1.0
  Ni  Ni880  1  0.87995633  0.38922133  0.97538975  1.0
  Ni  Ni881  1  0.87995633  0.72255467  0.97538975  1.0
  Ni  Ni882  1  0.22843548  0.04074219  0.85923004  1.0
  Ni  Ni883  1  0.22843548  0.37407552  0.85923004  1.0
  Ni  Ni884  1  0.22843548  0.70740886  0.85923004  1.0
  Ni  Ni885  1  0.56176881  0.04074219  0.85923004  1.0
  Ni  Ni886  1  0.56176881  0.37407552  0.85923004  1.0
  Ni  Ni887  1  0.56176881  0.70740886  0.85923004  1.0
  Ni  Ni888  1  0.89510214  0.04074219  0.85923004  1.0
  Ni  Ni889  1  0.89510214  0.37407552  0.85923004  1.0
  Ni  Ni890  1  0.89510214  0.70740886  0.85923004  1.0
  Ni  Ni891  1  0.01414976  0.25502790  0.93065861  1.0
  Ni  Ni892  1  0.01414976  0.58836124  0.93065861  1.0
  Ni  Ni893  1  0.01414976  0.92169457  0.93065861  1.0
  Ni  Ni894  1  0.34748310  0.25502790  0.93065861  1.0
  Ni  Ni895  1  0.34748310  0.58836124  0.93065861  1.0
  Ni  Ni896  1  0.34748310  0.92169457  0.93065861  1.0
  Ni  Ni897  1  0.68081643  0.25502790  0.93065861  1.0
  Ni  Ni898  1  0.68081643  0.58836124  0.93065861  1.0
  Ni  Ni899  1  0.68081643  0.92169457  0.93065861  1.0
  Ni  Ni900  1  0.15989481  0.10928286  0.86860004  1.0
  Ni  Ni901  1  0.15989481  0.44261619  0.86860004  1.0
  Ni  Ni902  1  0.15989481  0.77594952  0.86860004  1.0
  Ni  Ni903  1  0.49322814  0.10928286  0.86860004  1.0
  Ni  Ni904  1  0.49322814  0.44261619  0.86860004  1.0
  Ni  Ni905  1  0.49322814  0.77594952  0.86860004  1.0
  Ni  Ni906  1  0.82656148  0.10928286  0.86860004  1.0
  Ni  Ni907  1  0.82656148  0.44261619  0.86860004  1.0
  Ni  Ni908  1  0.82656148  0.77594952  0.86860004  1.0
  Ni  Ni909  1  0.27894243  0.32356857  0.94002861  1.0
  Ni  Ni910  1  0.27894243  0.65690190  0.94002861  1.0
  Ni  Ni911  1  0.27894243  0.99023524  0.94002861  1.0
  Ni  Ni912  1  0.61227576  0.32356857  0.94002861  1.0
  Ni  Ni913  1  0.61227576  0.65690190  0.94002861  1.0
  Ni  Ni914  1  0.61227576  0.99023524  0.94002861  1.0
  Ni  Ni915  1  0.94560910  0.32356857  0.94002861  1.0
  Ni  Ni916  1  0.94560910  0.65690190  0.94002861  1.0
  Ni  Ni917  1  0.94560910  0.99023524  0.94002861  1.0
  Ni  Ni918  1  0.01715538  0.08535562  0.95770918  1.0
  Ni  Ni919  1  0.01715538  0.41868895  0.95770918  1.0
  Ni  Ni920  1  0.01715538  0.75202229  0.95770918  1.0
  Ni  Ni921  1  0.35048871  0.08535562  0.95770918  1.0
  Ni  Ni922  1  0.35048871  0.41868895  0.95770918  1.0
  Ni  Ni923  1  0.35048871  0.75202229  0.95770918  1.0
  Ni  Ni924  1  0.68382205  0.08535562  0.95770918  1.0
  Ni  Ni925  1  0.68382205  0.41868895  0.95770918  1.0
  Ni  Ni926  1  0.68382205  0.75202229  0.95770918  1.0
  Ni  Ni927  1  0.23144110  0.20440324  0.88628061  1.0
  Ni  Ni928  1  0.23144110  0.53773657  0.88628061  1.0
  Ni  Ni929  1  0.23144110  0.87106990  0.88628061  1.0
  Ni  Ni930  1  0.56477443  0.20440324  0.88628061  1.0
  Ni  Ni931  1  0.56477443  0.53773657  0.88628061  1.0
  Ni  Ni932  1  0.56477443  0.87106990  0.88628061  1.0
  Ni  Ni933  1  0.89810776  0.20440324  0.88628061  1.0
  Ni  Ni934  1  0.89810776  0.53773657  0.88628061  1.0
  Ni  Ni935  1  0.89810776  0.87106990  0.88628061  1.0
  Ni  Ni936  1  0.09724767  0.00526333  0.93101175  1.0
  Ni  Ni937  1  0.09724767  0.33859667  0.93101175  1.0
  Ni  Ni938  1  0.09724767  0.67193000  0.93101175  1.0
  Ni  Ni939  1  0.43058100  0.00526333  0.93101175  1.0
  Ni  Ni940  1  0.43058100  0.33859667  0.93101175  1.0
  Ni  Ni941  1  0.43058100  0.67193000  0.93101175  1.0
  Ni  Ni942  1  0.76391433  0.00526333  0.93101175  1.0
  Ni  Ni943  1  0.76391433  0.33859667  0.93101175  1.0
  Ni  Ni944  1  0.76391433  0.67193000  0.93101175  1.0
  Ni  Ni945  1  0.31153338  0.12431095  0.85958318  1.0
  Ni  Ni946  1  0.31153338  0.45764429  0.85958318  1.0
  Ni  Ni947  1  0.31153338  0.79097762  0.85958318  1.0
  Ni  Ni948  1  0.64486671  0.12431095  0.85958318  1.0
  Ni  Ni949  1  0.64486671  0.45764429  0.85958318  1.0
  Ni  Ni950  1  0.64486671  0.79097762  0.85958318  1.0
  Ni  Ni951  1  0.97820005  0.12431095  0.85958318  1.0
  Ni  Ni952  1  0.97820005  0.45764429  0.85958318  1.0
  Ni  Ni953  1  0.97820005  0.79097762  0.85958318  1.0
  Ni  Ni954  1  0.28483595  0.15100838  0.99307032  1.0
  Ni  Ni955  1  0.28483595  0.48434171  0.99307032  1.0
  Ni  Ni956  1  0.28483595  0.81767505  0.99307032  1.0
  Ni  Ni957  1  0.61816929  0.15100838  0.99307032  1.0
  Ni  Ni958  1  0.61816929  0.48434171  0.99307032  1.0
  Ni  Ni959  1  0.61816929  0.81767505  0.99307032  1.0
  Ni  Ni960  1  0.95150262  0.15100838  0.99307032  1.0
  Ni  Ni961  1  0.95150262  0.48434171  0.99307032  1.0
  Ni  Ni962  1  0.95150262  0.81767505  0.99307032  1.0
  Ni  Ni963  1  0.16578833  0.27005600  0.92164175  1.0
  Ni  Ni964  1  0.16578833  0.60338933  0.92164175  1.0
  Ni  Ni965  1  0.16578833  0.93672267  0.92164175  1.0
  Ni  Ni966  1  0.49912167  0.27005600  0.92164175  1.0
  Ni  Ni967  1  0.49912167  0.60338933  0.92164175  1.0
  Ni  Ni968  1  0.49912167  0.93672267  0.92164175  1.0
  Ni  Ni969  1  0.83245500  0.27005600  0.92164175  1.0
  Ni  Ni970  1  0.83245500  0.60338933  0.92164175  1.0
  Ni  Ni971  1  0.83245500  0.93672267  0.92164175  1.0
  Ni  Ni972  1  0.10813983  0.12377383  0.93465825  1.0
  Ni  Ni973  1  0.10813983  0.45710717  0.93465825  1.0
  Ni  Ni974  1  0.10813983  0.79044050  0.93465825  1.0
  Ni  Ni975  1  0.44147317  0.12377383  0.93465825  1.0
  Ni  Ni976  1  0.44147317  0.45710717  0.93465825  1.0
  Ni  Ni977  1  0.44147317  0.79044050  0.93465825  1.0
  Ni  Ni978  1  0.77480650  0.12377383  0.93465825  1.0
  Ni  Ni979  1  0.77480650  0.45710717  0.93465825  1.0
  Ni  Ni980  1  0.77480650  0.79044050  0.93465825  1.0
  Ni  Ni981  1  0.32242555  0.24282145  0.86322968  1.0
  Ni  Ni982  1  0.32242555  0.57615479  0.86322968  1.0
  Ni  Ni983  1  0.32242555  0.90948812  0.86322968  1.0
  Ni  Ni984  1  0.65575888  0.24282145  0.86322968  1.0
  Ni  Ni985  1  0.65575888  0.57615479  0.86322968  1.0
  Ni  Ni986  1  0.65575888  0.90948812  0.86322968  1.0
  Ni  Ni987  1  0.98909221  0.24282145  0.86322968  1.0
  Ni  Ni988  1  0.98909221  0.57615479  0.86322968  1.0
  Ni  Ni989  1  0.98909221  0.90948812  0.86322968  1.0
  Ni  Ni990  1  0.17419748  0.05771619  0.91263904  1.0
  Ni  Ni991  1  0.17419748  0.39104952  0.91263904  1.0
  Ni  Ni992  1  0.17419748  0.72438286  0.91263904  1.0
  Ni  Ni993  1  0.50753081  0.05771619  0.91263904  1.0
  Ni  Ni994  1  0.50753081  0.39104952  0.91263904  1.0
  Ni  Ni995  1  0.50753081  0.72438286  0.91263904  1.0
  Ni  Ni996  1  0.84086414  0.05771619  0.91263904  1.0
  Ni  Ni997  1  0.84086414  0.39104952  0.91263904  1.0
  Ni  Ni998  1  0.84086414  0.72438286  0.91263904  1.0
  Ni  Ni999  1  0.29324510  0.27200190  0.98406761  1.0
  Ni  Ni1000  1  0.29324510  0.60533524  0.98406761  1.0
  Ni  Ni1001  1  0.29324510  0.93866857  0.98406761  1.0
  Ni  Ni1002  1  0.62657843  0.27200190  0.98406761  1.0
  Ni  Ni1003  1  0.62657843  0.60533524  0.98406761  1.0
  Ni  Ni1004  1  0.62657843  0.93866857  0.98406761  1.0
  Ni  Ni1005  1  0.95991176  0.27200190  0.98406761  1.0
  Ni  Ni1006  1  0.95991176  0.60533524  0.98406761  1.0
  Ni  Ni1007  1  0.95991176  0.93866857  0.98406761  1.0
  Ni  Ni1008  1  0.03313064  0.19878302  0.95130654  1.0
  Ni  Ni1009  1  0.03313064  0.53211636  0.95130654  1.0
  Ni  Ni1010  1  0.03313064  0.86544969  0.95130654  1.0
  Ni  Ni1011  1  0.36646398  0.19878302  0.95130654  1.0
  Ni  Ni1012  1  0.36646398  0.53211636  0.95130654  1.0
  Ni  Ni1013  1  0.36646398  0.86544969  0.95130654  1.0
  Ni  Ni1014  1  0.69979731  0.19878302  0.95130654  1.0
  Ni  Ni1015  1  0.69979731  0.53211636  0.95130654  1.0
  Ni  Ni1016  1  0.69979731  0.86544969  0.95130654  1.0
  Ni  Ni1017  1  0.24741636  0.31783064  0.87987796  1.0
  Ni  Ni1018  1  0.24741636  0.65116398  0.87987796  1.0
  Ni  Ni1019  1  0.24741636  0.98449731  0.87987796  1.0
  Ni  Ni1020  1  0.58074969  0.31783064  0.87987796  1.0
  Ni  Ni1021  1  0.58074969  0.65116398  0.87987796  1.0
  Ni  Ni1022  1  0.58074969  0.98449731  0.87987796  1.0
  Ni  Ni1023  1  0.91408302  0.31783064  0.87987796  1.0
  Ni  Ni1024  1  0.91408302  0.65116398  0.87987796  1.0
  Ni  Ni1025  1  0.91408302  0.98449731  0.87987796  1.0
  Ni  Ni1026  1  0.28868007  0.10990026  0.94298239  1.0
  Ni  Ni1027  1  0.28868007  0.44323360  0.94298239  1.0
  Ni  Ni1028  1  0.28868007  0.77656693  0.94298239  1.0
  Ni  Ni1029  1  0.62201340  0.10990026  0.94298239  1.0
  Ni  Ni1030  1  0.62201340  0.44323360  0.94298239  1.0
  Ni  Ni1031  1  0.62201340  0.77656693  0.94298239  1.0
  Ni  Ni1032  1  0.95534674  0.10990026  0.94298239  1.0
  Ni  Ni1033  1  0.95534674  0.44323360  0.94298239  1.0
  Ni  Ni1034  1  0.95534674  0.77656693  0.94298239  1.0
  Ni  Ni1035  1  0.16963245  0.22894788  0.87155382  1.0
  Ni  Ni1036  1  0.16963245  0.56228121  0.87155382  1.0
  Ni  Ni1037  1  0.16963245  0.89561455  0.87155382  1.0
  Ni  Ni1038  1  0.50296579  0.22894788  0.87155382  1.0
  Ni  Ni1039  1  0.50296579  0.56228121  0.87155382  1.0
  Ni  Ni1040  1  0.50296579  0.89561455  0.87155382  1.0
  Ni  Ni1041  1  0.83629912  0.22894788  0.87155382  1.0
  Ni  Ni1042  1  0.83629912  0.56228121  0.87155382  1.0
  Ni  Ni1043  1  0.83629912  0.89561455  0.87155382  1.0
  Ni  Ni1044  1  0.10357481  0.29500552  0.89357304  1.0
  Ni  Ni1045  1  0.10357481  0.62833886  0.89357304  1.0
  Ni  Ni1046  1  0.10357481  0.96167219  0.89357304  1.0
  Ni  Ni1047  1  0.43690814  0.29500552  0.89357304  1.0
  Ni  Ni1048  1  0.43690814  0.62833886  0.89357304  1.0
  Ni  Ni1049  1  0.43690814  0.96167219  0.89357304  1.0
  Ni  Ni1050  1  0.77024148  0.29500552  0.89357304  1.0
  Ni  Ni1051  1  0.77024148  0.62833886  0.89357304  1.0
  Ni  Ni1052  1  0.77024148  0.96167219  0.89357304  1.0
  Ni  Ni1053  1  0.22262243  0.17595790  0.96500161  1.0
  Ni  Ni1054  1  0.22262243  0.50929124  0.96500161  1.0
  Ni  Ni1055  1  0.22262243  0.84262457  0.96500161  1.0
  Ni  Ni1056  1  0.55595576  0.17595790  0.96500161  1.0
  Ni  Ni1057  1  0.55595576  0.50929124  0.96500161  1.0
  Ni  Ni1058  1  0.55595576  0.84262457  0.96500161  1.0
  Ni  Ni1059  1  0.88928910  0.17595790  0.96500161  1.0
  Ni  Ni1060  1  0.88928910  0.50929124  0.96500161  1.0
  Ni  Ni1061  1  0.88928910  0.84262457  0.96500161  1.0
  Ni  Ni1062  1  0.03035593  0.03489107  0.92633411  1.0
  Ni  Ni1063  1  0.03035593  0.36822440  0.92633411  1.0
  Ni  Ni1064  1  0.03035593  0.70155774  0.92633411  1.0
  Ni  Ni1065  1  0.36368926  0.03489107  0.92633411  1.0
  Ni  Ni1066  1  0.36368926  0.36822440  0.92633411  1.0
  Ni  Ni1067  1  0.36368926  0.70155774  0.92633411  1.0
  Ni  Ni1068  1  0.69702260  0.03489107  0.92633411  1.0
  Ni  Ni1069  1  0.69702260  0.36822440  0.92633411  1.0
  Ni  Ni1070  1  0.69702260  0.70155774  0.92633411  1.0
  Ni  Ni1071  1  0.14940355  0.24917679  0.99776268  1.0
  Ni  Ni1072  1  0.14940355  0.58251012  0.99776268  1.0
  Ni  Ni1073  1  0.14940355  0.91584345  0.99776268  1.0
  Ni  Ni1074  1  0.48273688  0.24917679  0.99776268  1.0
  Ni  Ni1075  1  0.48273688  0.58251012  0.99776268  1.0
  Ni  Ni1076  1  0.48273688  0.91584345  0.99776268  1.0
  Ni  Ni1077  1  0.81607021  0.24917679  0.99776268  1.0
  Ni  Ni1078  1  0.81607021  0.58251012  0.99776268  1.0
  Ni  Ni1079  1  0.81607021  0.91584345  0.99776268  1.0
  Ni  Ni1080  1  0.04861764  0.15081669  0.91843254  1.0
  Ni  Ni1081  1  0.04861764  0.48415002  0.91843254  1.0
  Ni  Ni1082  1  0.04861764  0.81748336  0.91843254  1.0
  Ni  Ni1083  1  0.38195098  0.15081669  0.91843254  1.0
  Ni  Ni1084  1  0.38195098  0.48415002  0.91843254  1.0
  Ni  Ni1085  1  0.38195098  0.81748336  0.91843254  1.0
  Ni  Ni1086  1  0.71528431  0.15081669  0.91843254  1.0
  Ni  Ni1087  1  0.71528431  0.48415002  0.91843254  1.0
  Ni  Ni1088  1  0.71528431  0.81748336  0.91843254  1.0
  Ni  Ni1089  1  0.16766526  0.03176907  0.98986111  1.0
  Ni  Ni1090  1  0.16766526  0.36510240  0.98986111  1.0
  Ni  Ni1091  1  0.16766526  0.69843574  0.98986111  1.0
  Ni  Ni1092  1  0.50099860  0.03176907  0.98986111  1.0
  Ni  Ni1093  1  0.50099860  0.36510240  0.98986111  1.0
  Ni  Ni1094  1  0.50099860  0.69843574  0.98986111  1.0
  Ni  Ni1095  1  0.83433193  0.03176907  0.98986111  1.0
  Ni  Ni1096  1  0.83433193  0.36510240  0.98986111  1.0
  Ni  Ni1097  1  0.83433193  0.69843574  0.98986111  1.0
  Ni  Ni1098  1  0.18423200  0.01520233  0.87322775  1.0
  Ni  Ni1099  1  0.18423200  0.34853567  0.87322775  1.0
  Ni  Ni1100  1  0.18423200  0.68186900  0.87322775  1.0
  Ni  Ni1101  1  0.51756533  0.01520233  0.87322775  1.0
  Ni  Ni1102  1  0.51756533  0.34853567  0.87322775  1.0
  Ni  Ni1103  1  0.51756533  0.68186900  0.87322775  1.0
  Ni  Ni1104  1  0.85089867  0.01520233  0.87322775  1.0
  Ni  Ni1105  1  0.85089867  0.34853567  0.87322775  1.0
  Ni  Ni1106  1  0.85089867  0.68186900  0.87322775  1.0
  Ni  Ni1107  1  0.30327962  0.22948805  0.94465632  1.0
  Ni  Ni1108  1  0.30327962  0.56282138  0.94465632  1.0
  Ni  Ni1109  1  0.30327962  0.89615471  0.94465632  1.0
  Ni  Ni1110  1  0.63661295  0.22948805  0.94465632  1.0
  Ni  Ni1111  1  0.63661295  0.56282138  0.94465632  1.0
  Ni  Ni1112  1  0.63661295  0.89615471  0.94465632  1.0
  Ni  Ni1113  1  0.96994629  0.22948805  0.94465632  1.0
  Ni  Ni1114  1  0.96994629  0.56282138  0.94465632  1.0
  Ni  Ni1115  1  0.96994629  0.89615471  0.94465632  1.0
  Ni  Ni1116  1  0.11521769  0.08421664  0.88496596  1.0
  Ni  Ni1117  1  0.11521769  0.41754998  0.88496596  1.0
  Ni  Ni1118  1  0.11521769  0.75088331  0.88496596  1.0
  Ni  Ni1119  1  0.44855102  0.08421664  0.88496596  1.0
  Ni  Ni1120  1  0.44855102  0.41754998  0.88496596  1.0
  Ni  Ni1121  1  0.44855102  0.75088331  0.88496596  1.0
  Ni  Ni1122  1  0.78188436  0.08421664  0.88496596  1.0
  Ni  Ni1123  1  0.78188436  0.41754998  0.88496596  1.0
  Ni  Ni1124  1  0.78188436  0.75088331  0.88496596  1.0
  Ni  Ni1125  1  0.23426531  0.29850236  0.95639454  1.0
  Ni  Ni1126  1  0.23426531  0.63183569  0.95639454  1.0
  Ni  Ni1127  1  0.23426531  0.96516902  0.95639454  1.0
  Ni  Ni1128  1  0.56759864  0.29850236  0.95639454  1.0
  Ni  Ni1129  1  0.56759864  0.63183569  0.95639454  1.0
  Ni  Ni1130  1  0.56759864  0.96516902  0.95639454  1.0
  Ni  Ni1131  1  0.90093198  0.29850236  0.95639454  1.0
  Ni  Ni1132  1  0.90093198  0.63183569  0.95639454  1.0
  Ni  Ni1133  1  0.90093198  0.96516902  0.95639454  1.0
  Ni  Ni1134  1  0.30644312  0.05965788  0.97312782  1.0
  Ni  Ni1135  1  0.30644312  0.39299121  0.97312782  1.0
  Ni  Ni1136  1  0.30644312  0.72632455  0.97312782  1.0
  Ni  Ni1137  1  0.63977645  0.05965788  0.97312782  1.0
  Ni  Ni1138  1  0.63977645  0.39299121  0.97312782  1.0
  Ni  Ni1139  1  0.63977645  0.72632455  0.97312782  1.0
  Ni  Ni1140  1  0.97310979  0.05965788  0.97312782  1.0
  Ni  Ni1141  1  0.97310979  0.39299121  0.97312782  1.0
  Ni  Ni1142  1  0.97310979  0.72632455  0.97312782  1.0
  Ni  Ni1143  1  0.18739550  0.17870550  0.90169925  1.0
  Ni  Ni1144  1  0.18739550  0.51203883  0.90169925  1.0
  Ni  Ni1145  1  0.18739550  0.84537217  0.90169925  1.0
  Ni  Ni1146  1  0.52072883  0.17870550  0.90169925  1.0
  Ni  Ni1147  1  0.52072883  0.51203883  0.90169925  1.0
  Ni  Ni1148  1  0.52072883  0.84537217  0.90169925  1.0
  Ni  Ni1149  1  0.85406217  0.17870550  0.90169925  1.0
  Ni  Ni1150  1  0.85406217  0.51203883  0.90169925  1.0
  Ni  Ni1151  1  0.85406217  0.84537217  0.90169925  1.0
  Ni  Ni1152  1  0.05178114  0.31431986  0.94690404  1.0
  Ni  Ni1153  1  0.05178114  0.64765319  0.94690404  1.0
  Ni  Ni1154  1  0.05178114  0.98098652  0.94690404  1.0
  Ni  Ni1155  1  0.38511448  0.31431986  0.94690404  1.0
  Ni  Ni1156  1  0.38511448  0.64765319  0.94690404  1.0
  Ni  Ni1157  1  0.38511448  0.98098652  0.94690404  1.0
  Ni  Ni1158  1  0.71844781  0.31431986  0.94690404  1.0
  Ni  Ni1159  1  0.71844781  0.64765319  0.94690404  1.0
  Ni  Ni1160  1  0.71844781  0.98098652  0.94690404  1.0
  Ni  Ni1161  1  0.26606686  0.10003414  0.87547546  1.0
  Ni  Ni1162  1  0.26606686  0.43336748  0.87547546  1.0
  Ni  Ni1163  1  0.26606686  0.76670081  0.87547546  1.0
  Ni  Ni1164  1  0.59940019  0.10003414  0.87547546  1.0
  Ni  Ni1165  1  0.59940019  0.43336748  0.87547546  1.0
  Ni  Ni1166  1  0.59940019  0.76670081  0.87547546  1.0
  Ni  Ni1167  1  0.93273352  0.10003414  0.87547546  1.0
  Ni  Ni1168  1  0.93273352  0.43336748  0.87547546  1.0
  Ni  Ni1169  1  0.93273352  0.76670081  0.87547546  1.0
  Ni  Ni1170  1  0.00174783  0.03101983  0.86373725  1.0
  Ni  Ni1171  1  0.00174783  0.36435317  0.86373725  1.0
  Ni  Ni1172  1  0.00174783  0.69768650  0.86373725  1.0
  Ni  Ni1173  1  0.33508117  0.03101983  0.86373725  1.0
  Ni  Ni1174  1  0.33508117  0.36435317  0.86373725  1.0
  Ni  Ni1175  1  0.33508117  0.69768650  0.86373725  1.0
  Ni  Ni1176  1  0.66841450  0.03101983  0.86373725  1.0
  Ni  Ni1177  1  0.66841450  0.36435317  0.86373725  1.0
  Ni  Ni1178  1  0.66841450  0.69768650  0.86373725  1.0
  Ni  Ni1179  1  0.12079545  0.24530555  0.93516582  1.0
  Ni  Ni1180  1  0.12079545  0.57863888  0.93516582  1.0
  Ni  Ni1181  1  0.12079545  0.91197221  0.93516582  1.0
  Ni  Ni1182  1  0.45412879  0.24530555  0.93516582  1.0
  Ni  Ni1183  1  0.45412879  0.57863888  0.93516582  1.0
  Ni  Ni1184  1  0.45412879  0.91197221  0.93516582  1.0
  Ni  Ni1185  1  0.78746212  0.24530555  0.93516582  1.0
  Ni  Ni1186  1  0.78746212  0.57863888  0.93516582  1.0
  Ni  Ni1187  1  0.78746212  0.91197221  0.93516582  1.0
  Ni  Ni1188  1  0.20157793  0.15563407  0.71554211  1.0
  Ni  Ni1189  1  0.20157793  0.48896740  0.71554211  1.0
  Ni  Ni1190  1  0.20157793  0.82230074  0.71554211  1.0
  Ni  Ni1191  1  0.53491126  0.15563407  0.71554211  1.0
  Ni  Ni1192  1  0.53491126  0.48896740  0.71554211  1.0
  Ni  Ni1193  1  0.53491126  0.82230074  0.71554211  1.0
  Ni  Ni1194  1  0.86824460  0.15563407  0.71554211  1.0
  Ni  Ni1195  1  0.86824460  0.48896740  0.71554211  1.0
  Ni  Ni1196  1  0.86824460  0.82230074  0.71554211  1.0
  Ni  Ni1197  1  0.32062555  0.03658645  0.78697068  1.0
  Ni  Ni1198  1  0.32062555  0.36991979  0.78697068  1.0
  Ni  Ni1199  1  0.32062555  0.70325312  0.78697068  1.0
  Ni  Ni1200  1  0.65395888  0.03658645  0.78697068  1.0
  Ni  Ni1201  1  0.65395888  0.36991979  0.78697068  1.0
  Ni  Ni1202  1  0.65395888  0.70325312  0.78697068  1.0
  Ni  Ni1203  1  0.98729221  0.03658645  0.78697068  1.0
  Ni  Ni1204  1  0.98729221  0.36991979  0.78697068  1.0
  Ni  Ni1205  1  0.98729221  0.70325312  0.78697068  1.0
  Ni  Ni1206  1  0.21348269  0.31039598  0.82268496  1.0
  Ni  Ni1207  1  0.21348269  0.64372931  0.82268496  1.0
  Ni  Ni1208  1  0.21348269  0.97706264  0.82268496  1.0
  Ni  Ni1209  1  0.54681602  0.31039598  0.82268496  1.0
  Ni  Ni1210  1  0.54681602  0.64372931  0.82268496  1.0
  Ni  Ni1211  1  0.54681602  0.97706264  0.82268496  1.0
  Ni  Ni1212  1  0.88014936  0.31039598  0.82268496  1.0
  Ni  Ni1213  1  0.88014936  0.64372931  0.82268496  1.0
  Ni  Ni1214  1  0.88014936  0.97706264  0.82268496  1.0
  Ni  Ni1215  1  0.09443507  0.09611026  0.75125639  1.0
  Ni  Ni1216  1  0.09443507  0.42944360  0.75125639  1.0
  Ni  Ni1217  1  0.09443507  0.76277693  0.75125639  1.0
  Ni  Ni1218  1  0.42776840  0.09611026  0.75125639  1.0
  Ni  Ni1219  1  0.42776840  0.42944360  0.75125639  1.0
  Ni  Ni1220  1  0.42776840  0.76277693  0.75125639  1.0
  Ni  Ni1221  1  0.76110174  0.09611026  0.75125639  1.0
  Ni  Ni1222  1  0.76110174  0.42944360  0.75125639  1.0
  Ni  Ni1223  1  0.76110174  0.76277693  0.75125639  1.0
  Ni  Ni1224  1  0.14683090  0.16225610  0.84490223  1.0
  Ni  Ni1225  1  0.14683090  0.49558943  0.84490223  1.0
  Ni  Ni1226  1  0.14683090  0.82892276  0.84490223  1.0
  Ni  Ni1227  1  0.48016424  0.16225610  0.84490223  1.0
  Ni  Ni1228  1  0.48016424  0.49558943  0.84490223  1.0
  Ni  Ni1229  1  0.48016424  0.82892276  0.84490223  1.0
  Ni  Ni1230  1  0.81349757  0.16225610  0.84490223  1.0
  Ni  Ni1231  1  0.81349757  0.49558943  0.84490223  1.0
  Ni  Ni1232  1  0.81349757  0.82892276  0.84490223  1.0
  Ni  Ni1233  1  0.02778329  0.28130371  0.77347365  1.0
  Ni  Ni1234  1  0.02778329  0.61463705  0.77347365  1.0
  Ni  Ni1235  1  0.02778329  0.94797038  0.77347365  1.0
  Ni  Ni1236  1  0.36111662  0.28130371  0.77347365  1.0
  Ni  Ni1237  1  0.36111662  0.61463705  0.77347365  1.0
  Ni  Ni1238  1  0.36111662  0.94797038  0.77347365  1.0
  Ni  Ni1239  1  0.69444995  0.28130371  0.77347365  1.0
  Ni  Ni1240  1  0.69444995  0.61463705  0.77347365  1.0
  Ni  Ni1241  1  0.69444995  0.94797038  0.77347365  1.0
  Ni  Ni1242  1  0.21825948  0.09082752  0.82109270  1.0
  Ni  Ni1243  1  0.21825948  0.42416086  0.82109270  1.0
  Ni  Ni1244  1  0.21825948  0.75749419  0.82109270  1.0
  Ni  Ni1245  1  0.55159281  0.09082752  0.82109270  1.0
  Ni  Ni1246  1  0.55159281  0.42416086  0.82109270  1.0
  Ni  Ni1247  1  0.55159281  0.75749419  0.82109270  1.0
  Ni  Ni1248  1  0.88492614  0.09082752  0.82109270  1.0
  Ni  Ni1249  1  0.88492614  0.42416086  0.82109270  1.0
  Ni  Ni1250  1  0.88492614  0.75749419  0.82109270  1.0
  Ni  Ni1251  1  0.09921186  0.20987514  0.74966413  1.0
  Ni  Ni1252  1  0.09921186  0.54320848  0.74966413  1.0
  Ni  Ni1253  1  0.09921186  0.87654181  0.74966413  1.0
  Ni  Ni1254  1  0.43254519  0.20987514  0.74966413  1.0
  Ni  Ni1255  1  0.43254519  0.54320848  0.74966413  1.0
  Ni  Ni1256  1  0.43254519  0.87654181  0.74966413  1.0
  Ni  Ni1257  1  0.76587852  0.20987514  0.74966413  1.0
  Ni  Ni1258  1  0.76587852  0.54320848  0.74966413  1.0
  Ni  Ni1259  1  0.76587852  0.87654181  0.74966413  1.0
  Ni  Ni1260  1  0.11111662  0.03130371  0.85680699  1.0
  Ni  Ni1261  1  0.11111662  0.36463705  0.85680699  1.0
  Ni  Ni1262  1  0.11111662  0.69797038  0.85680699  1.0
  Ni  Ni1263  1  0.44444995  0.03130371  0.85680699  1.0
  Ni  Ni1264  1  0.44444995  0.36463705  0.85680699  1.0
  Ni  Ni1265  1  0.44444995  0.69797038  0.85680699  1.0
  Ni  Ni1266  1  0.77778329  0.03130371  0.85680699  1.0
  Ni  Ni1267  1  0.77778329  0.36463705  0.85680699  1.0
  Ni  Ni1268  1  0.77778329  0.69797038  0.85680699  1.0
  Ni  Ni1269  1  0.32540233  0.15035133  0.78537842  1.0
  Ni  Ni1270  1  0.32540233  0.48368467  0.78537842  1.0
  Ni  Ni1271  1  0.32540233  0.81701800  0.78537842  1.0
  Ni  Ni1272  1  0.65873567  0.15035133  0.78537842  1.0
  Ni  Ni1273  1  0.65873567  0.48368467  0.78537842  1.0
  Ni  Ni1274  1  0.65873567  0.81701800  0.78537842  1.0
  Ni  Ni1275  1  0.99206900  0.15035133  0.78537842  1.0
  Ni  Ni1276  1  0.99206900  0.48368467  0.78537842  1.0
  Ni  Ni1277  1  0.99206900  0.81701800  0.78537842  1.0
  Ni  Ni1278  1  0.13492614  0.00749419  0.73775937  1.0
  Ni  Ni1279  1  0.13492614  0.34082752  0.73775937  1.0
  Ni  Ni1280  1  0.13492614  0.67416086  0.73775937  1.0
  Ni  Ni1281  1  0.46825948  0.00749419  0.73775937  1.0
  Ni  Ni1282  1  0.46825948  0.34082752  0.73775937  1.0
  Ni  Ni1283  1  0.46825948  0.67416086  0.73775937  1.0
  Ni  Ni1284  1  0.80159281  0.00749419  0.73775937  1.0
  Ni  Ni1285  1  0.80159281  0.34082752  0.73775937  1.0
  Ni  Ni1286  1  0.80159281  0.67416086  0.73775937  1.0
  Ni  Ni1287  1  0.25397376  0.22177990  0.80918794  1.0
  Ni  Ni1288  1  0.25397376  0.55511324  0.80918794  1.0
  Ni  Ni1289  1  0.25397376  0.88844657  0.80918794  1.0
  Ni  Ni1290  1  0.58730710  0.22177990  0.80918794  1.0
  Ni  Ni1291  1  0.58730710  0.55511324  0.80918794  1.0
  Ni  Ni1292  1  0.58730710  0.88844657  0.80918794  1.0
  Ni  Ni1293  1  0.92064043  0.22177990  0.80918794  1.0
  Ni  Ni1294  1  0.92064043  0.55511324  0.80918794  1.0
  Ni  Ni1295  1  0.92064043  0.88844657  0.80918794  1.0
  Ni  Ni1296  1  0.25303776  0.04807324  0.78007861  1.0
  Ni  Ni1297  1  0.25303776  0.38140657  0.78007861  1.0
  Ni  Ni1298  1  0.25303776  0.71473990  0.78007861  1.0
  Ni  Ni1299  1  0.58637110  0.04807324  0.78007861  1.0
  Ni  Ni1300  1  0.58637110  0.38140657  0.78007861  1.0
  Ni  Ni1301  1  0.58637110  0.71473990  0.78007861  1.0
  Ni  Ni1302  1  0.91970443  0.04807324  0.78007861  1.0
  Ni  Ni1303  1  0.91970443  0.38140657  0.78007861  1.0
  Ni  Ni1304  1  0.91970443  0.71473990  0.78007861  1.0
  Ni  Ni1305  1  0.03875205  0.26235895  0.85150718  1.0
  Ni  Ni1306  1  0.03875205  0.59569229  0.85150718  1.0
  Ni  Ni1307  1  0.03875205  0.92902562  0.85150718  1.0
  Ni  Ni1308  1  0.37208538  0.26235895  0.85150718  1.0
  Ni  Ni1309  1  0.37208538  0.59569229  0.85150718  1.0
  Ni  Ni1310  1  0.37208538  0.92902562  0.85150718  1.0
  Ni  Ni1311  1  0.70541871  0.26235895  0.85150718  1.0
  Ni  Ni1312  1  0.70541871  0.59569229  0.85150718  1.0
  Ni  Ni1313  1  0.70541871  0.92902562  0.85150718  1.0
  Ni  Ni1314  1  0.30977890  0.32466543  0.76116489  1.0
  Ni  Ni1315  1  0.30977890  0.65799876  0.76116489  1.0
  Ni  Ni1316  1  0.30977890  0.99133210  0.76116489  1.0
  Ni  Ni1317  1  0.64311224  0.32466543  0.76116489  1.0
  Ni  Ni1318  1  0.64311224  0.65799876  0.76116489  1.0
  Ni  Ni1319  1  0.64311224  0.99133210  0.76116489  1.0
  Ni  Ni1320  1  0.97644557  0.32466543  0.76116489  1.0
  Ni  Ni1321  1  0.97644557  0.65799876  0.76116489  1.0
  Ni  Ni1322  1  0.97644557  0.99133210  0.76116489  1.0
  Ni  Ni1323  1  0.09549319  0.20561781  0.83259346  1.0
  Ni  Ni1324  1  0.09549319  0.53895114  0.83259346  1.0
  Ni  Ni1325  1  0.09549319  0.87228448  0.83259346  1.0
  Ni  Ni1326  1  0.42882652  0.20561781  0.83259346  1.0
  Ni  Ni1327  1  0.42882652  0.53895114  0.83259346  1.0
  Ni  Ni1328  1  0.42882652  0.87228448  0.83259346  1.0
  Ni  Ni1329  1  0.76215986  0.20561781  0.83259346  1.0
  Ni  Ni1330  1  0.76215986  0.53895114  0.83259346  1.0
  Ni  Ni1331  1  0.76215986  0.87228448  0.83259346  1.0
  Ni  Ni1332  1  0.17181757  0.12929343  0.78430489  1.0
  Ni  Ni1333  1  0.17181757  0.46262676  0.78430489  1.0
  Ni  Ni1334  1  0.17181757  0.79596010  0.78430489  1.0
  Ni  Ni1335  1  0.50515090  0.12929343  0.78430489  1.0
  Ni  Ni1336  1  0.50515090  0.46262676  0.78430489  1.0
  Ni  Ni1337  1  0.50515090  0.79596010  0.78430489  1.0
  Ni  Ni1338  1  0.83848424  0.12929343  0.78430489  1.0
  Ni  Ni1339  1  0.83848424  0.46262676  0.78430489  1.0
  Ni  Ni1340  1  0.83848424  0.79596010  0.78430489  1.0
  Ni  Ni1341  1  0.29086519  0.01024581  0.85573346  1.0
  Ni  Ni1342  1  0.29086519  0.34357914  0.85573346  1.0
  Ni  Ni1343  1  0.29086519  0.67691248  0.85573346  1.0
  Ni  Ni1344  1  0.62419852  0.01024581  0.85573346  1.0
  Ni  Ni1345  1  0.62419852  0.34357914  0.85573346  1.0
  Ni  Ni1346  1  0.62419852  0.67691248  0.85573346  1.0
  Ni  Ni1347  1  0.95753186  0.01024581  0.85573346  1.0
  Ni  Ni1348  1  0.95753186  0.34357914  0.85573346  1.0
  Ni  Ni1349  1  0.95753186  0.67691248  0.85573346  1.0
  Ni  Ni1350  1  0.08989300  0.04455133  0.78219175  1.0
  Ni  Ni1351  1  0.08989300  0.37788467  0.78219175  1.0
  Ni  Ni1352  1  0.08989300  0.71121800  0.78219175  1.0
  Ni  Ni1353  1  0.42322633  0.04455133  0.78219175  1.0
  Ni  Ni1354  1  0.42322633  0.37788467  0.78219175  1.0
  Ni  Ni1355  1  0.42322633  0.71121800  0.78219175  1.0
  Ni  Ni1356  1  0.75655967  0.04455133  0.78219175  1.0
  Ni  Ni1357  1  0.75655967  0.37788467  0.78219175  1.0
  Ni  Ni1358  1  0.75655967  0.71121800  0.78219175  1.0
  Ni  Ni1359  1  0.20894062  0.25883705  0.85362032  1.0
  Ni  Ni1360  1  0.20894062  0.59217038  0.85362032  1.0
  Ni  Ni1361  1  0.20894062  0.92550371  0.85362032  1.0
  Ni  Ni1362  1  0.54227395  0.25883705  0.85362032  1.0
  Ni  Ni1363  1  0.54227395  0.59217038  0.85362032  1.0
  Ni  Ni1364  1  0.54227395  0.92550371  0.85362032  1.0
  Ni  Ni1365  1  0.87560729  0.25883705  0.85362032  1.0
  Ni  Ni1366  1  0.87560729  0.59217038  0.85362032  1.0
  Ni  Ni1367  1  0.87560729  0.92550371  0.85362032  1.0
  Ni  Ni1368  1  0.24743757  0.22034010  0.72967689  1.0
  Ni  Ni1369  1  0.24743757  0.55367343  0.72967689  1.0
  Ni  Ni1370  1  0.24743757  0.88700676  0.72967689  1.0
  Ni  Ni1371  1  0.58077090  0.22034010  0.72967689  1.0
  Ni  Ni1372  1  0.58077090  0.55367343  0.72967689  1.0
  Ni  Ni1373  1  0.58077090  0.88700676  0.72967689  1.0
  Ni  Ni1374  1  0.91410424  0.22034010  0.72967689  1.0
  Ni  Ni1375  1  0.91410424  0.55367343  0.72967689  1.0
  Ni  Ni1376  1  0.91410424  0.88700676  0.72967689  1.0
  Ni  Ni1377  1  0.03315186  0.10129248  0.80110546  1.0
  Ni  Ni1378  1  0.03315186  0.43462581  0.80110546  1.0
  Ni  Ni1379  1  0.03315186  0.76795914  0.80110546  1.0
  Ni  Ni1380  1  0.36648519  0.10129248  0.80110546  1.0
  Ni  Ni1381  1  0.36648519  0.43462581  0.80110546  1.0
  Ni  Ni1382  1  0.36648519  0.76795914  0.80110546  1.0
  Ni  Ni1383  1  0.69981852  0.10129248  0.80110546  1.0
  Ni  Ni1384  1  0.69981852  0.43462581  0.80110546  1.0
  Ni  Ni1385  1  0.69981852  0.76795914  0.80110546  1.0
  Ni  Ni1386  1  0.17111319  0.29666448  0.77796546  1.0
  Ni  Ni1387  1  0.17111319  0.62999781  0.77796546  1.0
  Ni  Ni1388  1  0.17111319  0.96333114  0.77796546  1.0
  Ni  Ni1389  1  0.50444652  0.29666448  0.77796546  1.0
  Ni  Ni1390  1  0.50444652  0.62999781  0.77796546  1.0
  Ni  Ni1391  1  0.50444652  0.96333114  0.77796546  1.0
  Ni  Ni1392  1  0.83777986  0.29666448  0.77796546  1.0
  Ni  Ni1393  1  0.83777986  0.62999781  0.77796546  1.0
  Ni  Ni1394  1  0.83777986  0.96333114  0.77796546  1.0
  Ni  Ni1395  1  0.29016081  0.17761686  0.84939404  1.0
  Ni  Ni1396  1  0.29016081  0.51095019  0.84939404  1.0
  Ni  Ni1397  1  0.29016081  0.84428352  0.84939404  1.0
  Ni  Ni1398  1  0.62349414  0.17761686  0.84939404  1.0
  Ni  Ni1399  1  0.62349414  0.51095019  0.84939404  1.0
  Ni  Ni1400  1  0.62349414  0.84428352  0.84939404  1.0
  Ni  Ni1401  1  0.95682748  0.17761686  0.84939404  1.0
  Ni  Ni1402  1  0.95682748  0.51095019  0.84939404  1.0
  Ni  Ni1403  1  0.95682748  0.84428352  0.84939404  1.0
  Ni  Ni1404  1  0.18948014  0.07969752  0.76110404  1.0
  Ni  Ni1405  1  0.18948014  0.41303086  0.76110404  1.0
  Ni  Ni1406  1  0.18948014  0.74636419  0.76110404  1.0
  Ni  Ni1407  1  0.52281348  0.07969752  0.76110404  1.0
  Ni  Ni1408  1  0.52281348  0.41303086  0.76110404  1.0
  Ni  Ni1409  1  0.52281348  0.74636419  0.76110404  1.0
  Ni  Ni1410  1  0.85614681  0.07969752  0.76110404  1.0
  Ni  Ni1411  1  0.85614681  0.41303086  0.76110404  1.0
  Ni  Ni1412  1  0.85614681  0.74636419  0.76110404  1.0
  Ni  Ni1413  1  0.30852776  0.29398324  0.83253261  1.0
  Ni  Ni1414  1  0.30852776  0.62731657  0.83253261  1.0
  Ni  Ni1415  1  0.30852776  0.96064990  0.83253261  1.0
  Ni  Ni1416  1  0.64186110  0.29398324  0.83253261  1.0
  Ni  Ni1417  1  0.64186110  0.62731657  0.83253261  1.0
  Ni  Ni1418  1  0.64186110  0.96064990  0.83253261  1.0
  Ni  Ni1419  1  0.97519443  0.29398324  0.83253261  1.0
  Ni  Ni1420  1  0.97519443  0.62731657  0.83253261  1.0
  Ni  Ni1421  1  0.97519443  0.96064990  0.83253261  1.0
  Ni  Ni1422  1  0.32367357  0.27883743  0.71637289  1.0
  Ni  Ni1423  1  0.32367357  0.61217076  0.71637289  1.0
  Ni  Ni1424  1  0.32367357  0.94550410  0.71637289  1.0
  Ni  Ni1425  1  0.65700690  0.27883743  0.71637289  1.0
  Ni  Ni1426  1  0.65700690  0.61217076  0.71637289  1.0
  Ni  Ni1427  1  0.65700690  0.94550410  0.71637289  1.0
  Ni  Ni1428  1  0.99034024  0.27883743  0.71637289  1.0
  Ni  Ni1429  1  0.99034024  0.61217076  0.71637289  1.0
  Ni  Ni1430  1  0.99034024  0.94550410  0.71637289  1.0
  Ni  Ni1431  1  0.10938786  0.15978981  0.78780146  1.0
  Ni  Ni1432  1  0.10938786  0.49312314  0.78780146  1.0
  Ni  Ni1433  1  0.10938786  0.82645648  0.78780146  1.0
  Ni  Ni1434  1  0.44272119  0.15978981  0.78780146  1.0
  Ni  Ni1435  1  0.44272119  0.49312314  0.78780146  1.0
  Ni  Ni1436  1  0.44272119  0.82645648  0.78780146  1.0
  Ni  Ni1437  1  0.77605452  0.15978981  0.78780146  1.0
  Ni  Ni1438  1  0.77605452  0.49312314  0.78780146  1.0
  Ni  Ni1439  1  0.77605452  0.82645648  0.78780146  1.0
  Ni  Ni1440  1  0.25513290  0.01404476  0.72574289  1.0
  Ni  Ni1441  1  0.25513290  0.34737810  0.72574289  1.0
  Ni  Ni1442  1  0.25513290  0.68071143  0.72574289  1.0
  Ni  Ni1443  1  0.58846624  0.01404476  0.72574289  1.0
  Ni  Ni1444  1  0.58846624  0.34737810  0.72574289  1.0
  Ni  Ni1445  1  0.58846624  0.68071143  0.72574289  1.0
  Ni  Ni1446  1  0.92179957  0.01404476  0.72574289  1.0
  Ni  Ni1447  1  0.92179957  0.34737810  0.72574289  1.0
  Ni  Ni1448  1  0.92179957  0.68071143  0.72574289  1.0
  Ni  Ni1449  1  0.04084719  0.22833048  0.79717146  1.0
  Ni  Ni1450  1  0.04084719  0.56166381  0.79717146  1.0
  Ni  Ni1451  1  0.04084719  0.89499714  0.79717146  1.0
  Ni  Ni1452  1  0.37418052  0.22833048  0.79717146  1.0
  Ni  Ni1453  1  0.37418052  0.56166381  0.79717146  1.0
  Ni  Ni1454  1  0.37418052  0.89499714  0.79717146  1.0
  Ni  Ni1455  1  0.70751386  0.22833048  0.79717146  1.0
  Ni  Ni1456  1  0.70751386  0.56166381  0.79717146  1.0
  Ni  Ni1457  1  0.70751386  0.89499714  0.79717146  1.0
  Ni  Ni1458  1  0.11239348  0.32345086  0.81485204  1.0
  Ni  Ni1459  1  0.11239348  0.65678419  0.81485204  1.0
  Ni  Ni1460  1  0.11239348  0.99011752  0.81485204  1.0
  Ni  Ni1461  1  0.44572681  0.32345086  0.81485204  1.0
  Ni  Ni1462  1  0.44572681  0.65678419  0.81485204  1.0
  Ni  Ni1463  1  0.44572681  0.99011752  0.81485204  1.0
  Ni  Ni1464  1  0.77906014  0.32345086  0.81485204  1.0
  Ni  Ni1465  1  0.77906014  0.65678419  0.81485204  1.0
  Ni  Ni1466  1  0.77906014  0.99011752  0.81485204  1.0
  Ni  Ni1467  1  0.32667919  0.10916514  0.74342346  1.0
  Ni  Ni1468  1  0.32667919  0.44249848  0.74342346  1.0
  Ni  Ni1469  1  0.32667919  0.77583181  0.74342346  1.0
  Ni  Ni1470  1  0.66001252  0.10916514  0.74342346  1.0
  Ni  Ni1471  1  0.66001252  0.44249848  0.74342346  1.0
  Ni  Ni1472  1  0.66001252  0.77583181  0.74342346  1.0
  Ni  Ni1473  1  0.99334586  0.10916514  0.74342346  1.0
  Ni  Ni1474  1  0.99334586  0.44249848  0.74342346  1.0
  Ni  Ni1475  1  0.99334586  0.77583181  0.74342346  1.0
  Ni  Ni1476  1  0.19248576  0.24335857  0.78815461  1.0
  Ni  Ni1477  1  0.19248576  0.57669190  0.78815461  1.0
  Ni  Ni1478  1  0.19248576  0.91002524  0.78815461  1.0
  Ni  Ni1479  1  0.52581910  0.24335857  0.78815461  1.0
  Ni  Ni1480  1  0.52581910  0.57669190  0.78815461  1.0
  Ni  Ni1481  1  0.52581910  0.91002524  0.78815461  1.0
  Ni  Ni1482  1  0.85915243  0.24335857  0.78815461  1.0
  Ni  Ni1483  1  0.85915243  0.57669190  0.78815461  1.0
  Ni  Ni1484  1  0.85915243  0.91002524  0.78815461  1.0
  Ni  Ni1485  1  0.07343814  0.02907286  0.71672604  1.0
  Ni  Ni1486  1  0.07343814  0.36240619  0.71672604  1.0
  Ni  Ni1487  1  0.07343814  0.69573952  0.71672604  1.0
  Ni  Ni1488  1  0.40677148  0.02907286  0.71672604  1.0
  Ni  Ni1489  1  0.40677148  0.36240619  0.71672604  1.0
  Ni  Ni1490  1  0.40677148  0.69573952  0.71672604  1.0
  Ni  Ni1491  1  0.74010481  0.02907286  0.71672604  1.0
  Ni  Ni1492  1  0.74010481  0.36240619  0.71672604  1.0
  Ni  Ni1493  1  0.74010481  0.69573952  0.71672604  1.0
  Ni  Ni1494  1  0.04674071  0.05577029  0.85021318  1.0
  Ni  Ni1495  1  0.04674071  0.38910362  0.85021318  1.0
  Ni  Ni1496  1  0.04674071  0.72243695  0.85021318  1.0
  Ni  Ni1497  1  0.38007405  0.05577029  0.85021318  1.0
  Ni  Ni1498  1  0.38007405  0.38910362  0.85021318  1.0
  Ni  Ni1499  1  0.38007405  0.72243695  0.85021318  1.0
  Ni  Ni1500  1  0.71340738  0.05577029  0.85021318  1.0
  Ni  Ni1501  1  0.71340738  0.38910362  0.85021318  1.0
  Ni  Ni1502  1  0.71340738  0.72243695  0.85021318  1.0
  Ni  Ni1503  1  0.26102643  0.17481790  0.77878461  1.0
  Ni  Ni1504  1  0.26102643  0.50815124  0.77878461  1.0
  Ni  Ni1505  1  0.26102643  0.84148457  0.77878461  1.0
  Ni  Ni1506  1  0.59435976  0.17481790  0.77878461  1.0
  Ni  Ni1507  1  0.59435976  0.50815124  0.77878461  1.0
  Ni  Ni1508  1  0.59435976  0.84148457  0.77878461  1.0
  Ni  Ni1509  1  0.92769310  0.17481790  0.77878461  1.0
  Ni  Ni1510  1  0.92769310  0.50815124  0.77878461  1.0
  Ni  Ni1511  1  0.92769310  0.84148457  0.77878461  1.0
  Ni  Ni1512  1  0.20337793  0.02853574  0.79180111  1.0
  Ni  Ni1513  1  0.20337793  0.36186907  0.79180111  1.0
  Ni  Ni1514  1  0.20337793  0.69520240  0.79180111  1.0
  Ni  Ni1515  1  0.53671126  0.02853574  0.79180111  1.0
  Ni  Ni1516  1  0.53671126  0.36186907  0.79180111  1.0
  Ni  Ni1517  1  0.53671126  0.69520240  0.79180111  1.0
  Ni  Ni1518  1  0.87004460  0.02853574  0.79180111  1.0
  Ni  Ni1519  1  0.87004460  0.36186907  0.79180111  1.0
  Ni  Ni1520  1  0.87004460  0.69520240  0.79180111  1.0
  Ni  Ni1521  1  0.08433031  0.14758336  0.72037254  1.0
  Ni  Ni1522  1  0.08433031  0.48091669  0.72037254  1.0
  Ni  Ni1523  1  0.08433031  0.81425002  0.72037254  1.0
  Ni  Ni1524  1  0.41766364  0.14758336  0.72037254  1.0
  Ni  Ni1525  1  0.41766364  0.48091669  0.72037254  1.0
  Ni  Ni1526  1  0.41766364  0.81425002  0.72037254  1.0
  Ni  Ni1527  1  0.75099698  0.14758336  0.72037254  1.0
  Ni  Ni1528  1  0.75099698  0.48091669  0.72037254  1.0
  Ni  Ni1529  1  0.75099698  0.81425002  0.72037254  1.0
  Ni  Ni1530  1  0.26943557  0.29581143  0.76978189  1.0
  Ni  Ni1531  1  0.26943557  0.62914476  0.76978189  1.0
  Ni  Ni1532  1  0.26943557  0.96247810  0.76978189  1.0
  Ni  Ni1533  1  0.60276890  0.29581143  0.76978189  1.0
  Ni  Ni1534  1  0.60276890  0.62914476  0.76978189  1.0
  Ni  Ni1535  1  0.60276890  0.96247810  0.76978189  1.0
  Ni  Ni1536  1  0.93610224  0.29581143  0.76978189  1.0
  Ni  Ni1537  1  0.93610224  0.62914476  0.76978189  1.0
  Ni  Ni1538  1  0.93610224  0.96247810  0.76978189  1.0
  Ni  Ni1539  1  0.05514986  0.17676381  0.84121046  1.0
  Ni  Ni1540  1  0.05514986  0.51009714  0.84121046  1.0
  Ni  Ni1541  1  0.05514986  0.84343048  0.84121046  1.0
  Ni  Ni1542  1  0.38848319  0.17676381  0.84121046  1.0
  Ni  Ni1543  1  0.38848319  0.51009714  0.84121046  1.0
  Ni  Ni1544  1  0.38848319  0.84343048  0.84121046  1.0
  Ni  Ni1545  1  0.72181652  0.17676381  0.84121046  1.0
  Ni  Ni1546  1  0.72181652  0.51009714  0.84121046  1.0
  Ni  Ni1547  1  0.72181652  0.84343048  0.84121046  1.0
  Ni  Ni1548  1  0.12836874  0.10354493  0.80844939  1.0
  Ni  Ni1549  1  0.12836874  0.43687826  0.80844939  1.0
  Ni  Ni1550  1  0.12836874  0.77021160  0.80844939  1.0
  Ni  Ni1551  1  0.46170207  0.10354493  0.80844939  1.0
  Ni  Ni1552  1  0.46170207  0.43687826  0.80844939  1.0
  Ni  Ni1553  1  0.46170207  0.77021160  0.80844939  1.0
  Ni  Ni1554  1  0.79503540  0.10354493  0.80844939  1.0
  Ni  Ni1555  1  0.79503540  0.43687826  0.80844939  1.0
  Ni  Ni1556  1  0.79503540  0.77021160  0.80844939  1.0
  Ni  Ni1557  1  0.00932112  0.22259255  0.73702082  1.0
  Ni  Ni1558  1  0.00932112  0.55592588  0.73702082  1.0
  Ni  Ni1559  1  0.00932112  0.88925921  0.73702082  1.0
  Ni  Ni1560  1  0.34265445  0.22259255  0.73702082  1.0
  Ni  Ni1561  1  0.34265445  0.55592588  0.73702082  1.0
  Ni  Ni1562  1  0.34265445  0.88925921  0.73702082  1.0
  Ni  Ni1563  1  0.67598779  0.22259255  0.73702082  1.0
  Ni  Ni1564  1  0.67598779  0.55592588  0.73702082  1.0
  Ni  Ni1565  1  0.67598779  0.88925921  0.73702082  1.0
  Ni  Ni1566  1  0.05058483  0.01466217  0.80012525  1.0
  Ni  Ni1567  1  0.05058483  0.34799550  0.80012525  1.0
  Ni  Ni1568  1  0.05058483  0.68132883  0.80012525  1.0
  Ni  Ni1569  1  0.38391817  0.01466217  0.80012525  1.0
  Ni  Ni1570  1  0.38391817  0.34799550  0.80012525  1.0
  Ni  Ni1571  1  0.38391817  0.68132883  0.80012525  1.0
  Ni  Ni1572  1  0.71725150  0.01466217  0.80012525  1.0
  Ni  Ni1573  1  0.71725150  0.34799550  0.80012525  1.0
  Ni  Ni1574  1  0.71725150  0.68132883  0.80012525  1.0
  Ni  Ni1575  1  0.26487055  0.13370979  0.72869668  1.0
  Ni  Ni1576  1  0.26487055  0.46704312  0.72869668  1.0
  Ni  Ni1577  1  0.26487055  0.80037645  0.72869668  1.0
  Ni  Ni1578  1  0.59820388  0.13370979  0.72869668  1.0
  Ni  Ni1579  1  0.59820388  0.46704312  0.72869668  1.0
  Ni  Ni1580  1  0.59820388  0.80037645  0.72869668  1.0
  Ni  Ni1581  1  0.93153721  0.13370979  0.72869668  1.0
  Ni  Ni1582  1  0.93153721  0.46704312  0.72869668  1.0
  Ni  Ni1583  1  0.93153721  0.80037645  0.72869668  1.0
  Ni  Ni1584  1  0.19881290  0.19976743  0.75071589  1.0
  Ni  Ni1585  1  0.19881290  0.53310076  0.75071589  1.0
  Ni  Ni1586  1  0.19881290  0.86643410  0.75071589  1.0
  Ni  Ni1587  1  0.53214624  0.19976743  0.75071589  1.0
  Ni  Ni1588  1  0.53214624  0.53310076  0.75071589  1.0
  Ni  Ni1589  1  0.53214624  0.86643410  0.75071589  1.0
  Ni  Ni1590  1  0.86547957  0.19976743  0.75071589  1.0
  Ni  Ni1591  1  0.86547957  0.53310076  0.75071589  1.0
  Ni  Ni1592  1  0.86547957  0.86643410  0.75071589  1.0
  Ni  Ni1593  1  0.31786052  0.08071981  0.82214446  1.0
  Ni  Ni1594  1  0.31786052  0.41405314  0.82214446  1.0
  Ni  Ni1595  1  0.31786052  0.74738648  0.82214446  1.0
  Ni  Ni1596  1  0.65119386  0.08071981  0.82214446  1.0
  Ni  Ni1597  1  0.65119386  0.41405314  0.82214446  1.0
  Ni  Ni1598  1  0.65119386  0.74738648  0.82214446  1.0
  Ni  Ni1599  1  0.98452719  0.08071981  0.82214446  1.0
  Ni  Ni1600  1  0.98452719  0.41405314  0.82214446  1.0
  Ni  Ni1601  1  0.98452719  0.74738648  0.82214446  1.0
  Ni  Ni1602  1  0.12559402  0.27298631  0.78347696  1.0
  Ni  Ni1603  1  0.12559402  0.60631964  0.78347696  1.0
  Ni  Ni1604  1  0.12559402  0.93965298  0.78347696  1.0
  Ni  Ni1605  1  0.45892736  0.27298631  0.78347696  1.0
  Ni  Ni1606  1  0.45892736  0.60631964  0.78347696  1.0
  Ni  Ni1607  1  0.45892736  0.93965298  0.78347696  1.0
  Ni  Ni1608  1  0.79226069  0.27298631  0.78347696  1.0
  Ni  Ni1609  1  0.79226069  0.60631964  0.78347696  1.0
  Ni  Ni1610  1  0.79226069  0.93965298  0.78347696  1.0
  Ni  Ni1611  1  0.24464164  0.15393869  0.85490554  1.0
  Ni  Ni1612  1  0.24464164  0.48727202  0.85490554  1.0
  Ni  Ni1613  1  0.24464164  0.82060536  0.85490554  1.0
  Ni  Ni1614  1  0.57797498  0.15393869  0.85490554  1.0
  Ni  Ni1615  1  0.57797498  0.48727202  0.85490554  1.0
  Ni  Ni1616  1  0.57797498  0.82060536  0.85490554  1.0
  Ni  Ni1617  1  0.91130831  0.15393869  0.85490554  1.0
  Ni  Ni1618  1  0.91130831  0.48727202  0.85490554  1.0
  Ni  Ni1619  1  0.91130831  0.82060536  0.85490554  1.0
  Ni  Ni1620  1  0.14385574  0.05557860  0.77557539  1.0
  Ni  Ni1621  1  0.14385574  0.38891193  0.77557539  1.0
  Ni  Ni1622  1  0.14385574  0.72224526  0.77557539  1.0
  Ni  Ni1623  1  0.47718907  0.05557860  0.77557539  1.0
  Ni  Ni1624  1  0.47718907  0.38891193  0.77557539  1.0
  Ni  Ni1625  1  0.47718907  0.72224526  0.77557539  1.0
  Ni  Ni1626  1  0.81052240  0.05557860  0.77557539  1.0
  Ni  Ni1627  1  0.81052240  0.38891193  0.77557539  1.0
  Ni  Ni1628  1  0.81052240  0.72224526  0.77557539  1.0
  Ni  Ni1629  1  0.26290336  0.26986431  0.84700396  1.0
  Ni  Ni1630  1  0.26290336  0.60319764  0.84700396  1.0
  Ni  Ni1631  1  0.26290336  0.93653098  0.84700396  1.0
  Ni  Ni1632  1  0.59623669  0.26986431  0.84700396  1.0
  Ni  Ni1633  1  0.59623669  0.60319764  0.84700396  1.0
  Ni  Ni1634  1  0.59623669  0.93653098  0.84700396  1.0
  Ni  Ni1635  1  0.92957002  0.26986431  0.84700396  1.0
  Ni  Ni1636  1  0.92957002  0.60319764  0.84700396  1.0
  Ni  Ni1637  1  0.92957002  0.93653098  0.84700396  1.0
  Ni  Ni1638  1  0.27947010  0.25329757  0.73037061  1.0
  Ni  Ni1639  1  0.27947010  0.58663090  0.73037061  1.0
  Ni  Ni1640  1  0.27947010  0.91996424  0.73037061  1.0
  Ni  Ni1641  1  0.61280343  0.25329757  0.73037061  1.0
  Ni  Ni1642  1  0.61280343  0.58663090  0.73037061  1.0
  Ni  Ni1643  1  0.61280343  0.91996424  0.73037061  1.0
  Ni  Ni1644  1  0.94613676  0.25329757  0.73037061  1.0
  Ni  Ni1645  1  0.94613676  0.58663090  0.73037061  1.0
  Ni  Ni1646  1  0.94613676  0.91996424  0.73037061  1.0
  Ni  Ni1647  1  0.06518438  0.13424995  0.80179918  1.0
  Ni  Ni1648  1  0.06518438  0.46758329  0.80179918  1.0
  Ni  Ni1649  1  0.06518438  0.80091662  0.80179918  1.0
  Ni  Ni1650  1  0.39851771  0.13424995  0.80179918  1.0
  Ni  Ni1651  1  0.39851771  0.46758329  0.80179918  1.0
  Ni  Ni1652  1  0.39851771  0.80091662  0.80179918  1.0
  Ni  Ni1653  1  0.73185105  0.13424995  0.80179918  1.0
  Ni  Ni1654  1  0.73185105  0.46758329  0.80179918  1.0
  Ni  Ni1655  1  0.73185105  0.80091662  0.80179918  1.0
  Ni  Ni1656  1  0.21045579  0.32231188  0.74210882  1.0
  Ni  Ni1657  1  0.21045579  0.65564521  0.74210882  1.0
  Ni  Ni1658  1  0.21045579  0.98897855  0.74210882  1.0
  Ni  Ni1659  1  0.54378912  0.32231188  0.74210882  1.0
  Ni  Ni1660  1  0.54378912  0.65564521  0.74210882  1.0
  Ni  Ni1661  1  0.54378912  0.98897855  0.74210882  1.0
  Ni  Ni1662  1  0.87712245  0.32231188  0.74210882  1.0
  Ni  Ni1663  1  0.87712245  0.65564521  0.74210882  1.0
  Ni  Ni1664  1  0.87712245  0.98897855  0.74210882  1.0
  Ni  Ni1665  1  0.32950340  0.20326426  0.81353739  1.0
  Ni  Ni1666  1  0.32950340  0.53659760  0.81353739  1.0
  Ni  Ni1667  1  0.32950340  0.86993093  0.81353739  1.0
  Ni  Ni1668  1  0.66283674  0.20326426  0.81353739  1.0
  Ni  Ni1669  1  0.66283674  0.53659760  0.81353739  1.0
  Ni  Ni1670  1  0.66283674  0.86993093  0.81353739  1.0
  Ni  Ni1671  1  0.99617007  0.20326426  0.81353739  1.0
  Ni  Ni1672  1  0.99617007  0.53659760  0.81353739  1.0
  Ni  Ni1673  1  0.99617007  0.86993093  0.81353739  1.0
  Ni  Ni1674  1  0.06834788  0.29775312  0.83027068  1.0
  Ni  Ni1675  1  0.06834788  0.63108645  0.83027068  1.0
  Ni  Ni1676  1  0.06834788  0.96441979  0.83027068  1.0
  Ni  Ni1677  1  0.40168121  0.29775312  0.83027068  1.0
  Ni  Ni1678  1  0.40168121  0.63108645  0.83027068  1.0
  Ni  Ni1679  1  0.40168121  0.96441979  0.83027068  1.0
  Ni  Ni1680  1  0.73501455  0.29775312  0.83027068  1.0
  Ni  Ni1681  1  0.73501455  0.63108645  0.83027068  1.0
  Ni  Ni1682  1  0.73501455  0.96441979  0.83027068  1.0
  Ni  Ni1683  1  0.28263360  0.08346740  0.75884211  1.0
  Ni  Ni1684  1  0.28263360  0.41680074  0.75884211  1.0
  Ni  Ni1685  1  0.28263360  0.75013407  0.75884211  1.0
  Ni  Ni1686  1  0.61596693  0.08346740  0.75884211  1.0
  Ni  Ni1687  1  0.61596693  0.41680074  0.75884211  1.0
  Ni  Ni1688  1  0.61596693  0.75013407  0.75884211  1.0
  Ni  Ni1689  1  0.94930026  0.08346740  0.75884211  1.0
  Ni  Ni1690  1  0.94930026  0.41680074  0.75884211  1.0
  Ni  Ni1691  1  0.94930026  0.75013407  0.75884211  1.0
  Ni  Ni1692  1  0.14701924  0.21908176  0.80404689  1.0
  Ni  Ni1693  1  0.14701924  0.55241510  0.80404689  1.0
  Ni  Ni1694  1  0.14701924  0.88574843  0.80404689  1.0
  Ni  Ni1695  1  0.48035257  0.21908176  0.80404689  1.0
  Ni  Ni1696  1  0.48035257  0.55241510  0.80404689  1.0
  Ni  Ni1697  1  0.48035257  0.88574843  0.80404689  1.0
  Ni  Ni1698  1  0.81368590  0.21908176  0.80404689  1.0
  Ni  Ni1699  1  0.81368590  0.55241510  0.80404689  1.0
  Ni  Ni1700  1  0.81368590  0.88574843  0.80404689  1.0
  Ni  Ni1701  1  0.02797162  0.00479605  0.73261832  1.0
  Ni  Ni1702  1  0.02797162  0.33812938  0.73261832  1.0
  Ni  Ni1703  1  0.02797162  0.67146271  0.73261832  1.0
  Ni  Ni1704  1  0.36130495  0.00479605  0.73261832  1.0
  Ni  Ni1705  1  0.36130495  0.33812938  0.73261832  1.0
  Ni  Ni1706  1  0.36130495  0.67146271  0.73261832  1.0
  Ni  Ni1707  1  0.69463829  0.00479605  0.73261832  1.0
  Ni  Ni1708  1  0.69463829  0.33812938  0.73261832  1.0
  Ni  Ni1709  1  0.69463829  0.67146271  0.73261832  1.0
  Ni  Ni1710  1  0.09698593  0.26911507  0.72088011  1.0
  Ni  Ni1711  1  0.09698593  0.60244840  0.72088011  1.0
  Ni  Ni1712  1  0.09698593  0.93578174  0.72088011  1.0
  Ni  Ni1713  1  0.43031926  0.26911507  0.72088011  1.0
  Ni  Ni1714  1  0.43031926  0.60244840  0.72088011  1.0
  Ni  Ni1715  1  0.43031926  0.93578174  0.72088011  1.0
  Ni  Ni1716  1  0.76365260  0.26911507  0.72088011  1.0
  Ni  Ni1717  1  0.76365260  0.60244840  0.72088011  1.0
  Ni  Ni1718  1  0.76365260  0.93578174  0.72088011  1.0
  Ni  Ni1719  1  0.21603355  0.15006745  0.79230868  1.0
  Ni  Ni1720  1  0.21603355  0.48340079  0.79230868  1.0
  Ni  Ni1721  1  0.21603355  0.81673412  0.79230868  1.0
  Ni  Ni1722  1  0.54936688  0.15006745  0.79230868  1.0
  Ni  Ni1723  1  0.54936688  0.48340079  0.79230868  1.0
  Ni  Ni1724  1  0.54936688  0.81673412  0.79230868  1.0
  Ni  Ni1725  1  0.88270021  0.15006745  0.79230868  1.0
  Ni  Ni1726  1  0.88270021  0.48340079  0.79230868  1.0
  Ni  Ni1727  1  0.88270021  0.81673412  0.79230868  1.0
  Ni  Ni1728  1  0.29681602  0.06039598  0.57268496  1.0
  Ni  Ni1729  1  0.29681602  0.39372931  0.57268496  1.0
  Ni  Ni1730  1  0.29681602  0.72706264  0.57268496  1.0
  Ni  Ni1731  1  0.63014936  0.06039598  0.57268496  1.0
  Ni  Ni1732  1  0.63014936  0.39372931  0.57268496  1.0
  Ni  Ni1733  1  0.63014936  0.72706264  0.57268496  1.0
  Ni  Ni1734  1  0.96348269  0.06039598  0.57268496  1.0
  Ni  Ni1735  1  0.96348269  0.39372931  0.57268496  1.0
  Ni  Ni1736  1  0.96348269  0.72706264  0.57268496  1.0
  Ni  Ni1737  1  0.08253031  0.27468169  0.64411354  1.0
  Ni  Ni1738  1  0.08253031  0.60801502  0.64411354  1.0
  Ni  Ni1739  1  0.08253031  0.94134836  0.64411354  1.0
  Ni  Ni1740  1  0.41586364  0.27468169  0.64411354  1.0
  Ni  Ni1741  1  0.41586364  0.60801502  0.64411354  1.0
  Ni  Ni1742  1  0.41586364  0.94134836  0.64411354  1.0
  Ni  Ni1743  1  0.74919698  0.27468169  0.64411354  1.0
  Ni  Ni1744  1  0.74919698  0.60801502  0.64411354  1.0
  Ni  Ni1745  1  0.74919698  0.94134836  0.64411354  1.0
  Ni  Ni1746  1  0.30872079  0.21515788  0.67982782  1.0
  Ni  Ni1747  1  0.30872079  0.54849121  0.67982782  1.0
  Ni  Ni1748  1  0.30872079  0.88182455  0.67982782  1.0
  Ni  Ni1749  1  0.64205412  0.21515788  0.67982782  1.0
  Ni  Ni1750  1  0.64205412  0.54849121  0.67982782  1.0
  Ni  Ni1751  1  0.64205412  0.88182455  0.67982782  1.0
  Ni  Ni1752  1  0.97538745  0.21515788  0.67982782  1.0
  Ni  Ni1753  1  0.97538745  0.54849121  0.67982782  1.0
  Ni  Ni1754  1  0.97538745  0.88182455  0.67982782  1.0
  Ni  Ni1755  1  0.18967317  0.00087217  0.60839925  1.0
  Ni  Ni1756  1  0.18967317  0.33420550  0.60839925  1.0
  Ni  Ni1757  1  0.18967317  0.66753883  0.60839925  1.0
  Ni  Ni1758  1  0.52300650  0.00087217  0.60839925  1.0
  Ni  Ni1759  1  0.52300650  0.33420550  0.60839925  1.0
  Ni  Ni1760  1  0.52300650  0.66753883  0.60839925  1.0
  Ni  Ni1761  1  0.85633983  0.00087217  0.60839925  1.0
  Ni  Ni1762  1  0.85633983  0.33420550  0.60839925  1.0
  Ni  Ni1763  1  0.85633983  0.66753883  0.60839925  1.0
  Ni  Ni1764  1  0.24206900  0.06701800  0.70204508  1.0
  Ni  Ni1765  1  0.24206900  0.40035133  0.70204508  1.0
  Ni  Ni1766  1  0.24206900  0.73368467  0.70204508  1.0
  Ni  Ni1767  1  0.57540233  0.06701800  0.70204508  1.0
  Ni  Ni1768  1  0.57540233  0.40035133  0.70204508  1.0
  Ni  Ni1769  1  0.57540233  0.73368467  0.70204508  1.0
  Ni  Ni1770  1  0.90873567  0.06701800  0.70204508  1.0
  Ni  Ni1771  1  0.90873567  0.40035133  0.70204508  1.0
  Ni  Ni1772  1  0.90873567  0.73368467  0.70204508  1.0
  Ni  Ni1773  1  0.12302138  0.18606562  0.63061651  1.0
  Ni  Ni1774  1  0.12302138  0.51939895  0.63061651  1.0
  Ni  Ni1775  1  0.12302138  0.85273229  0.63061651  1.0
  Ni  Ni1776  1  0.45635471  0.18606562  0.63061651  1.0
  Ni  Ni1777  1  0.45635471  0.51939895  0.63061651  1.0
  Ni  Ni1778  1  0.45635471  0.85273229  0.63061651  1.0
  Ni  Ni1779  1  0.78968805  0.18606562  0.63061651  1.0
  Ni  Ni1780  1  0.78968805  0.51939895  0.63061651  1.0
  Ni  Ni1781  1  0.78968805  0.85273229  0.63061651  1.0
  Ni  Ni1782  1  0.31349757  0.32892276  0.67823556  1.0
  Ni  Ni1783  1  0.31349757  0.66225610  0.67823556  1.0
  Ni  Ni1784  1  0.31349757  0.99558943  0.67823556  1.0
  Ni  Ni1785  1  0.64683090  0.32892276  0.67823556  1.0
  Ni  Ni1786  1  0.64683090  0.66225610  0.67823556  1.0
  Ni  Ni1787  1  0.64683090  0.99558943  0.67823556  1.0
  Ni  Ni1788  1  0.98016424  0.32892276  0.67823556  1.0
  Ni  Ni1789  1  0.98016424  0.66225610  0.67823556  1.0
  Ni  Ni1790  1  0.98016424  0.99558943  0.67823556  1.0
  Ni  Ni1791  1  0.19444995  0.11463705  0.60680699  1.0
  Ni  Ni1792  1  0.19444995  0.44797038  0.60680699  1.0
  Ni  Ni1793  1  0.19444995  0.78130371  0.60680699  1.0
  Ni  Ni1794  1  0.52778329  0.11463705  0.60680699  1.0
  Ni  Ni1795  1  0.52778329  0.44797038  0.60680699  1.0
  Ni  Ni1796  1  0.52778329  0.78130371  0.60680699  1.0
  Ni  Ni1797  1  0.86111662  0.11463705  0.60680699  1.0
  Ni  Ni1798  1  0.86111662  0.44797038  0.60680699  1.0
  Ni  Ni1799  1  0.86111662  0.78130371  0.60680699  1.0
  Ni  Ni1800  1  0.20635471  0.26939895  0.71394985  1.0
  Ni  Ni1801  1  0.20635471  0.60273229  0.71394985  1.0
  Ni  Ni1802  1  0.20635471  0.93606562  0.71394985  1.0
  Ni  Ni1803  1  0.53968805  0.26939895  0.71394985  1.0
  Ni  Ni1804  1  0.53968805  0.60273229  0.71394985  1.0
  Ni  Ni1805  1  0.53968805  0.93606562  0.71394985  1.0
  Ni  Ni1806  1  0.87302138  0.26939895  0.71394985  1.0
  Ni  Ni1807  1  0.87302138  0.60273229  0.71394985  1.0
  Ni  Ni1808  1  0.87302138  0.93606562  0.71394985  1.0
  Ni  Ni1809  1  0.08730710  0.05511324  0.64252127  1.0
  Ni  Ni1810  1  0.08730710  0.38844657  0.64252127  1.0
  Ni  Ni1811  1  0.08730710  0.72177990  0.64252127  1.0
  Ni  Ni1812  1  0.42064043  0.05511324  0.64252127  1.0
  Ni  Ni1813  1  0.42064043  0.38844657  0.64252127  1.0
  Ni  Ni1814  1  0.42064043  0.72177990  0.64252127  1.0
  Ni  Ni1815  1  0.75397376  0.05511324  0.64252127  1.0
  Ni  Ni1816  1  0.75397376  0.38844657  0.64252127  1.0
  Ni  Ni1817  1  0.75397376  0.72177990  0.64252127  1.0
  Ni  Ni1818  1  0.23016424  0.24558943  0.59490223  1.0
  Ni  Ni1819  1  0.23016424  0.57892276  0.59490223  1.0
  Ni  Ni1820  1  0.23016424  0.91225610  0.59490223  1.0
  Ni  Ni1821  1  0.56349757  0.24558943  0.59490223  1.0
  Ni  Ni1822  1  0.56349757  0.57892276  0.59490223  1.0
  Ni  Ni1823  1  0.56349757  0.91225610  0.59490223  1.0
  Ni  Ni1824  1  0.89683090  0.24558943  0.59490223  1.0
  Ni  Ni1825  1  0.89683090  0.57892276  0.59490223  1.0
  Ni  Ni1826  1  0.89683090  0.91225610  0.59490223  1.0
  Ni  Ni1827  1  0.01587852  0.12654181  0.66633080  1.0
  Ni  Ni1828  1  0.01587852  0.45987514  0.66633080  1.0
  Ni  Ni1829  1  0.01587852  0.79320848  0.66633080  1.0
  Ni  Ni1830  1  0.34921186  0.12654181  0.66633080  1.0
  Ni  Ni1831  1  0.34921186  0.45987514  0.66633080  1.0
  Ni  Ni1832  1  0.34921186  0.79320848  0.66633080  1.0
  Ni  Ni1833  1  0.68254519  0.12654181  0.66633080  1.0
  Ni  Ni1834  1  0.68254519  0.45987514  0.66633080  1.0
  Ni  Ni1835  1  0.68254519  0.79320848  0.66633080  1.0
  Ni  Ni1836  1  0.01494252  0.28616848  0.63722146  1.0
  Ni  Ni1837  1  0.01494252  0.61950181  0.63722146  1.0
  Ni  Ni1838  1  0.01494252  0.95283514  0.63722146  1.0
  Ni  Ni1839  1  0.34827586  0.28616848  0.63722146  1.0
  Ni  Ni1840  1  0.34827586  0.61950181  0.63722146  1.0
  Ni  Ni1841  1  0.34827586  0.95283514  0.63722146  1.0
  Ni  Ni1842  1  0.68160919  0.28616848  0.63722146  1.0
  Ni  Ni1843  1  0.68160919  0.61950181  0.63722146  1.0
  Ni  Ni1844  1  0.68160919  0.95283514  0.63722146  1.0
  Ni  Ni1845  1  0.13399014  0.16712086  0.70865004  1.0
  Ni  Ni1846  1  0.13399014  0.50045419  0.70865004  1.0
  Ni  Ni1847  1  0.13399014  0.83378752  0.70865004  1.0
  Ni  Ni1848  1  0.46732348  0.16712086  0.70865004  1.0
  Ni  Ni1849  1  0.46732348  0.50045419  0.70865004  1.0
  Ni  Ni1850  1  0.46732348  0.83378752  0.70865004  1.0
  Ni  Ni1851  1  0.80065681  0.16712086  0.70865004  1.0
  Ni  Ni1852  1  0.80065681  0.50045419  0.70865004  1.0
  Ni  Ni1853  1  0.80065681  0.83378752  0.70865004  1.0
  Ni  Ni1854  1  0.07168367  0.22942733  0.61830775  1.0
  Ni  Ni1855  1  0.07168367  0.56276067  0.61830775  1.0
  Ni  Ni1856  1  0.07168367  0.89609400  0.61830775  1.0
  Ni  Ni1857  1  0.40501700  0.22942733  0.61830775  1.0
  Ni  Ni1858  1  0.40501700  0.56276067  0.61830775  1.0
  Ni  Ni1859  1  0.40501700  0.89609400  0.61830775  1.0
  Ni  Ni1860  1  0.73835033  0.22942733  0.61830775  1.0
  Ni  Ni1861  1  0.73835033  0.56276067  0.61830775  1.0
  Ni  Ni1862  1  0.73835033  0.89609400  0.61830775  1.0
  Ni  Ni1863  1  0.19073129  0.11037971  0.68973632  1.0
  Ni  Ni1864  1  0.19073129  0.44371305  0.68973632  1.0
  Ni  Ni1865  1  0.19073129  0.77704638  0.68973632  1.0
  Ni  Ni1866  1  0.52406462  0.11037971  0.68973632  1.0
  Ni  Ni1867  1  0.52406462  0.44371305  0.68973632  1.0
  Ni  Ni1868  1  0.52406462  0.77704638  0.68973632  1.0
  Ni  Ni1869  1  0.85739795  0.11037971  0.68973632  1.0
  Ni  Ni1870  1  0.85739795  0.44371305  0.68973632  1.0
  Ni  Ni1871  1  0.85739795  0.77704638  0.68973632  1.0
  Ni  Ni1872  1  0.26705567  0.03405533  0.64144775  1.0
  Ni  Ni1873  1  0.26705567  0.36738867  0.64144775  1.0
  Ni  Ni1874  1  0.26705567  0.70072200  0.64144775  1.0
  Ni  Ni1875  1  0.60038900  0.03405533  0.64144775  1.0
  Ni  Ni1876  1  0.60038900  0.36738867  0.64144775  1.0
  Ni  Ni1877  1  0.60038900  0.70072200  0.64144775  1.0
  Ni  Ni1878  1  0.93372233  0.03405533  0.64144775  1.0
  Ni  Ni1879  1  0.93372233  0.36738867  0.64144775  1.0
  Ni  Ni1880  1  0.93372233  0.70072200  0.64144775  1.0
  Ni  Ni1881  1  0.05276995  0.24834105  0.71287632  1.0
  Ni  Ni1882  1  0.05276995  0.58167438  0.71287632  1.0
  Ni  Ni1883  1  0.05276995  0.91500771  0.71287632  1.0
  Ni  Ni1884  1  0.38610329  0.24834105  0.71287632  1.0
  Ni  Ni1885  1  0.38610329  0.58167438  0.71287632  1.0
  Ni  Ni1886  1  0.38610329  0.91500771  0.71287632  1.0
  Ni  Ni1887  1  0.71943662  0.24834105  0.71287632  1.0
  Ni  Ni1888  1  0.71943662  0.58167438  0.71287632  1.0
  Ni  Ni1889  1  0.71943662  0.91500771  0.71287632  1.0
  Ni  Ni1890  1  0.18513110  0.28264657  0.63933461  1.0
  Ni  Ni1891  1  0.18513110  0.61597990  0.63933461  1.0
  Ni  Ni1892  1  0.18513110  0.94931324  0.63933461  1.0
  Ni  Ni1893  1  0.51846443  0.28264657  0.63933461  1.0
  Ni  Ni1894  1  0.51846443  0.61597990  0.63933461  1.0
  Ni  Ni1895  1  0.51846443  0.94931324  0.63933461  1.0
  Ni  Ni1896  1  0.85179776  0.28264657  0.63933461  1.0
  Ni  Ni1897  1  0.85179776  0.61597990  0.63933461  1.0
  Ni  Ni1898  1  0.85179776  0.94931324  0.63933461  1.0
  Ni  Ni1899  1  0.30417871  0.16359895  0.71076318  1.0
  Ni  Ni1900  1  0.30417871  0.49693229  0.71076318  1.0
  Ni  Ni1901  1  0.30417871  0.83026562  0.71076318  1.0
  Ni  Ni1902  1  0.63751205  0.16359895  0.71076318  1.0
  Ni  Ni1903  1  0.63751205  0.49693229  0.71076318  1.0
  Ni  Ni1904  1  0.63751205  0.83026562  0.71076318  1.0
  Ni  Ni1905  1  0.97084538  0.16359895  0.71076318  1.0
  Ni  Ni1906  1  0.97084538  0.49693229  0.71076318  1.0
  Ni  Ni1907  1  0.97084538  0.83026562  0.71076318  1.0
  Ni  Ni1908  1  0.00934233  0.12510200  0.58681975  1.0
  Ni  Ni1909  1  0.00934233  0.45843533  0.58681975  1.0
  Ni  Ni1910  1  0.00934233  0.79176867  0.58681975  1.0
  Ni  Ni1911  1  0.34267567  0.12510200  0.58681975  1.0
  Ni  Ni1912  1  0.34267567  0.45843533  0.58681975  1.0
  Ni  Ni1913  1  0.34267567  0.79176867  0.58681975  1.0
  Ni  Ni1914  1  0.67600900  0.12510200  0.58681975  1.0
  Ni  Ni1915  1  0.67600900  0.45843533  0.58681975  1.0
  Ni  Ni1916  1  0.67600900  0.79176867  0.58681975  1.0
  Ni  Ni1917  1  0.12838995  0.00605438  0.65824832  1.0
  Ni  Ni1918  1  0.12838995  0.33938771  0.65824832  1.0
  Ni  Ni1919  1  0.12838995  0.67272105  0.65824832  1.0
  Ni  Ni1920  1  0.46172329  0.00605438  0.65824832  1.0
  Ni  Ni1921  1  0.46172329  0.33938771  0.65824832  1.0
  Ni  Ni1922  1  0.46172329  0.67272105  0.65824832  1.0
  Ni  Ni1923  1  0.79505662  0.00605438  0.65824832  1.0
  Ni  Ni1924  1  0.79505662  0.33938771  0.65824832  1.0
  Ni  Ni1925  1  0.79505662  0.67272105  0.65824832  1.0
  Ni  Ni1926  1  0.26635129  0.20142638  0.63510832  1.0
  Ni  Ni1927  1  0.26635129  0.53475971  0.63510832  1.0
  Ni  Ni1928  1  0.26635129  0.86809305  0.63510832  1.0
  Ni  Ni1929  1  0.59968462  0.20142638  0.63510832  1.0
  Ni  Ni1930  1  0.59968462  0.53475971  0.63510832  1.0
  Ni  Ni1931  1  0.59968462  0.86809305  0.63510832  1.0
  Ni  Ni1932  1  0.93301795  0.20142638  0.63510832  1.0
  Ni  Ni1933  1  0.93301795  0.53475971  0.63510832  1.0
  Ni  Ni1934  1  0.93301795  0.86809305  0.63510832  1.0
  Ni  Ni1935  1  0.05206557  0.08237876  0.70653689  1.0
  Ni  Ni1936  1  0.05206557  0.41571210  0.70653689  1.0
  Ni  Ni1937  1  0.05206557  0.74904543  0.70653689  1.0
  Ni  Ni1938  1  0.38539890  0.08237876  0.70653689  1.0
  Ni  Ni1939  1  0.38539890  0.41571210  0.70653689  1.0
  Ni  Ni1940  1  0.38539890  0.74904543  0.70653689  1.0
  Ni  Ni1941  1  0.71873224  0.08237876  0.70653689  1.0
  Ni  Ni1942  1  0.71873224  0.41571210  0.70653689  1.0
  Ni  Ni1943  1  0.71873224  0.74904543  0.70653689  1.0
  Ni  Ni1944  1  0.28471824  0.31779276  0.61824689  1.0
  Ni  Ni1945  1  0.28471824  0.65112610  0.61824689  1.0
  Ni  Ni1946  1  0.28471824  0.98445943  0.61824689  1.0
  Ni  Ni1947  1  0.61805157  0.31779276  0.61824689  1.0
  Ni  Ni1948  1  0.61805157  0.65112610  0.61824689  1.0
  Ni  Ni1949  1  0.61805157  0.98445943  0.61824689  1.0
  Ni  Ni1950  1  0.95138490  0.31779276  0.61824689  1.0
  Ni  Ni1951  1  0.95138490  0.65112610  0.61824689  1.0
  Ni  Ni1952  1  0.95138490  0.98445943  0.61824689  1.0
  Ni  Ni1953  1  0.07043252  0.19874514  0.68967546  1.0
  Ni  Ni1954  1  0.07043252  0.53207848  0.68967546  1.0
  Ni  Ni1955  1  0.07043252  0.86541181  0.68967546  1.0
  Ni  Ni1956  1  0.40376586  0.19874514  0.68967546  1.0
  Ni  Ni1957  1  0.40376586  0.53207848  0.68967546  1.0
  Ni  Ni1958  1  0.40376586  0.86541181  0.68967546  1.0
  Ni  Ni1959  1  0.73709919  0.19874514  0.68967546  1.0
  Ni  Ni1960  1  0.73709919  0.53207848  0.68967546  1.0
  Ni  Ni1961  1  0.73709919  0.86541181  0.68967546  1.0
  Ni  Ni1962  1  0.08557833  0.18359933  0.57351575  1.0
  Ni  Ni1963  1  0.08557833  0.51693267  0.57351575  1.0
  Ni  Ni1964  1  0.08557833  0.85026600  0.57351575  1.0
  Ni  Ni1965  1  0.41891167  0.18359933  0.57351575  1.0
  Ni  Ni1966  1  0.41891167  0.51693267  0.57351575  1.0
  Ni  Ni1967  1  0.41891167  0.85026600  0.57351575  1.0
  Ni  Ni1968  1  0.75224500  0.18359933  0.57351575  1.0
  Ni  Ni1969  1  0.75224500  0.51693267  0.57351575  1.0
  Ni  Ni1970  1  0.75224500  0.85026600  0.57351575  1.0
  Ni  Ni1971  1  0.20462595  0.06455171  0.64494432  1.0
  Ni  Ni1972  1  0.20462595  0.39788505  0.64494432  1.0
  Ni  Ni1973  1  0.20462595  0.73121838  0.64494432  1.0
  Ni  Ni1974  1  0.53795929  0.06455171  0.64494432  1.0
  Ni  Ni1975  1  0.53795929  0.39788505  0.64494432  1.0
  Ni  Ni1976  1  0.53795929  0.73121838  0.64494432  1.0
  Ni  Ni1977  1  0.87129262  0.06455171  0.64494432  1.0
  Ni  Ni1978  1  0.87129262  0.39788505  0.64494432  1.0
  Ni  Ni1979  1  0.87129262  0.73121838  0.64494432  1.0
  Ni  Ni1980  1  0.01703767  0.25214000  0.58288575  1.0
  Ni  Ni1981  1  0.01703767  0.58547333  0.58288575  1.0
  Ni  Ni1982  1  0.01703767  0.91880667  0.58288575  1.0
  Ni  Ni1983  1  0.35037100  0.25214000  0.58288575  1.0
  Ni  Ni1984  1  0.35037100  0.58547333  0.58288575  1.0
  Ni  Ni1985  1  0.35037100  0.91880667  0.58288575  1.0
  Ni  Ni1986  1  0.68370433  0.25214000  0.58288575  1.0
  Ni  Ni1987  1  0.68370433  0.58547333  0.58288575  1.0
  Ni  Ni1988  1  0.68370433  0.91880667  0.58288575  1.0
  Ni  Ni1989  1  0.13608529  0.13309238  0.65431432  1.0
  Ni  Ni1990  1  0.13608529  0.46642571  0.65431432  1.0
  Ni  Ni1991  1  0.13608529  0.79975905  0.65431432  1.0
  Ni  Ni1992  1  0.46941862  0.13309238  0.65431432  1.0
  Ni  Ni1993  1  0.46941862  0.46642571  0.65431432  1.0
  Ni  Ni1994  1  0.46941862  0.79975905  0.65431432  1.0
  Ni  Ni1995  1  0.80275195  0.13309238  0.65431432  1.0
  Ni  Ni1996  1  0.80275195  0.46642571  0.65431432  1.0
  Ni  Ni1997  1  0.80275195  0.79975905  0.65431432  1.0
  Ni  Ni1998  1  0.20763157  0.22821276  0.67199489  1.0
  Ni  Ni1999  1  0.20763157  0.56154610  0.67199489  1.0
  Ni  Ni2000  1  0.20763157  0.89487943  0.67199489  1.0
  Ni  Ni2001  1  0.54096490  0.22821276  0.67199489  1.0
  Ni  Ni2002  1  0.54096490  0.56154610  0.67199489  1.0
  Ni  Ni2003  1  0.54096490  0.89487943  0.67199489  1.0
  Ni  Ni2004  1  0.87429824  0.22821276  0.67199489  1.0
  Ni  Ni2005  1  0.87429824  0.56154610  0.67199489  1.0
  Ni  Ni2006  1  0.87429824  0.89487943  0.67199489  1.0
  Ni  Ni2007  1  0.08858395  0.01392705  0.60056632  1.0
  Ni  Ni2008  1  0.08858395  0.34726038  0.60056632  1.0
  Ni  Ni2009  1  0.08858395  0.68059371  0.60056632  1.0
  Ni  Ni2010  1  0.42191729  0.01392705  0.60056632  1.0
  Ni  Ni2011  1  0.42191729  0.34726038  0.60056632  1.0
  Ni  Ni2012  1  0.42191729  0.68059371  0.60056632  1.0
  Ni  Ni2013  1  0.75525062  0.01392705  0.60056632  1.0
  Ni  Ni2014  1  0.75525062  0.34726038  0.60056632  1.0
  Ni  Ni2015  1  0.75525062  0.68059371  0.60056632  1.0
  Ni  Ni2016  1  0.28772386  0.14812048  0.64529746  1.0
  Ni  Ni2017  1  0.28772386  0.48145381  0.64529746  1.0
  Ni  Ni2018  1  0.28772386  0.81478714  0.64529746  1.0
  Ni  Ni2019  1  0.62105719  0.14812048  0.64529746  1.0
  Ni  Ni2020  1  0.62105719  0.48145381  0.64529746  1.0
  Ni  Ni2021  1  0.62105719  0.81478714  0.64529746  1.0
  Ni  Ni2022  1  0.95439052  0.14812048  0.64529746  1.0
  Ni  Ni2023  1  0.95439052  0.48145381  0.64529746  1.0
  Ni  Ni2024  1  0.95439052  0.81478714  0.64529746  1.0
  Ni  Ni2025  1  0.16867624  0.26716810  0.57386889  1.0
  Ni  Ni2026  1  0.16867624  0.60050143  0.57386889  1.0
  Ni  Ni2027  1  0.16867624  0.93383476  0.57386889  1.0
  Ni  Ni2028  1  0.50200957  0.26716810  0.57386889  1.0
  Ni  Ni2029  1  0.50200957  0.60050143  0.57386889  1.0
  Ni  Ni2030  1  0.50200957  0.93383476  0.57386889  1.0
  Ni  Ni2031  1  0.83534290  0.26716810  0.57386889  1.0
  Ni  Ni2032  1  0.83534290  0.60050143  0.57386889  1.0
  Ni  Ni2033  1  0.83534290  0.93383476  0.57386889  1.0
  Ni  Ni2034  1  0.14197881  0.29386552  0.70735604  1.0
  Ni  Ni2035  1  0.14197881  0.62719886  0.70735604  1.0
  Ni  Ni2036  1  0.14197881  0.96053219  0.70735604  1.0
  Ni  Ni2037  1  0.47531214  0.29386552  0.70735604  1.0
  Ni  Ni2038  1  0.47531214  0.62719886  0.70735604  1.0
  Ni  Ni2039  1  0.47531214  0.96053219  0.70735604  1.0
  Ni  Ni2040  1  0.80864548  0.29386552  0.70735604  1.0
  Ni  Ni2041  1  0.80864548  0.62719886  0.70735604  1.0
  Ni  Ni2042  1  0.80864548  0.96053219  0.70735604  1.0
  Ni  Ni2043  1  0.02293119  0.07957981  0.63592746  1.0
  Ni  Ni2044  1  0.02293119  0.41291314  0.63592746  1.0
  Ni  Ni2045  1  0.02293119  0.74624648  0.63592746  1.0
  Ni  Ni2046  1  0.35626452  0.07957981  0.63592746  1.0
  Ni  Ni2047  1  0.35626452  0.41291314  0.63592746  1.0
  Ni  Ni2048  1  0.35626452  0.74624648  0.63592746  1.0
  Ni  Ni2049  1  0.68959786  0.07957981  0.63592746  1.0
  Ni  Ni2050  1  0.68959786  0.41291314  0.63592746  1.0
  Ni  Ni2051  1  0.68959786  0.74624648  0.63592746  1.0
  Ni  Ni2052  1  0.29861602  0.26663098  0.64894396  1.0
  Ni  Ni2053  1  0.29861602  0.59996431  0.64894396  1.0
  Ni  Ni2054  1  0.29861602  0.93329764  0.64894396  1.0
  Ni  Ni2055  1  0.63194936  0.26663098  0.64894396  1.0
  Ni  Ni2056  1  0.63194936  0.59996431  0.64894396  1.0
  Ni  Ni2057  1  0.63194936  0.93329764  0.64894396  1.0
  Ni  Ni2058  1  0.96528269  0.26663098  0.64894396  1.0
  Ni  Ni2059  1  0.96528269  0.59996431  0.64894396  1.0
  Ni  Ni2060  1  0.96528269  0.93329764  0.64894396  1.0
  Ni  Ni2061  1  0.17956840  0.05234526  0.57751539  1.0
  Ni  Ni2062  1  0.17956840  0.38567860  0.57751539  1.0
  Ni  Ni2063  1  0.17956840  0.71901193  0.57751539  1.0
  Ni  Ni2064  1  0.51290174  0.05234526  0.57751539  1.0
  Ni  Ni2065  1  0.51290174  0.38567860  0.57751539  1.0
  Ni  Ni2066  1  0.51290174  0.71901193  0.57751539  1.0
  Ni  Ni2067  1  0.84623507  0.05234526  0.57751539  1.0
  Ni  Ni2068  1  0.84623507  0.38567860  0.57751539  1.0
  Ni  Ni2069  1  0.84623507  0.71901193  0.57751539  1.0
  Ni  Ni2070  1  0.03134033  0.20057333  0.62692475  1.0
  Ni  Ni2071  1  0.03134033  0.53390667  0.62692475  1.0
  Ni  Ni2072  1  0.03134033  0.86724000  0.62692475  1.0
  Ni  Ni2073  1  0.36467367  0.20057333  0.62692475  1.0
  Ni  Ni2074  1  0.36467367  0.53390667  0.62692475  1.0
  Ni  Ni2075  1  0.36467367  0.86724000  0.62692475  1.0
  Ni  Ni2076  1  0.69800700  0.20057333  0.62692475  1.0
  Ni  Ni2077  1  0.69800700  0.53390667  0.62692475  1.0
  Ni  Ni2078  1  0.69800700  0.86724000  0.62692475  1.0
  Ni  Ni2079  1  0.15038795  0.08152571  0.69835332  1.0
  Ni  Ni2080  1  0.15038795  0.41485905  0.69835332  1.0
  Ni  Ni2081  1  0.15038795  0.74819238  0.69835332  1.0
  Ni  Ni2082  1  0.48372129  0.08152571  0.69835332  1.0
  Ni  Ni2083  1  0.48372129  0.41485905  0.69835332  1.0
  Ni  Ni2084  1  0.48372129  0.74819238  0.69835332  1.0
  Ni  Ni2085  1  0.81705462  0.08152571  0.69835332  1.0
  Ni  Ni2086  1  0.81705462  0.41485905  0.69835332  1.0
  Ni  Ni2087  1  0.81705462  0.74819238  0.69835332  1.0
  Ni  Ni2088  1  0.22360683  0.00830683  0.66559225  1.0
  Ni  Ni2089  1  0.22360683  0.34164017  0.66559225  1.0
  Ni  Ni2090  1  0.22360683  0.67497350  0.66559225  1.0
  Ni  Ni2091  1  0.55694017  0.00830683  0.66559225  1.0
  Ni  Ni2092  1  0.55694017  0.34164017  0.66559225  1.0
  Ni  Ni2093  1  0.55694017  0.67497350  0.66559225  1.0
  Ni  Ni2094  1  0.89027350  0.00830683  0.66559225  1.0
  Ni  Ni2095  1  0.89027350  0.34164017  0.66559225  1.0
  Ni  Ni2096  1  0.89027350  0.67497350  0.66559225  1.0
  Ni  Ni2097  1  0.10455921  0.12735445  0.59416368  1.0
  Ni  Ni2098  1  0.10455921  0.46068779  0.59416368  1.0
  Ni  Ni2099  1  0.10455921  0.79402112  0.59416368  1.0
  Ni  Ni2100  1  0.43789255  0.12735445  0.59416368  1.0
  Ni  Ni2101  1  0.43789255  0.46068779  0.59416368  1.0
  Ni  Ni2102  1  0.43789255  0.79402112  0.59416368  1.0
  Ni  Ni2103  1  0.77122588  0.12735445  0.59416368  1.0
  Ni  Ni2104  1  0.77122588  0.46068779  0.59416368  1.0
  Ni  Ni2105  1  0.77122588  0.79402112  0.59416368  1.0
  Ni  Ni2106  1  0.14582293  0.25275740  0.65726811  1.0
  Ni  Ni2107  1  0.14582293  0.58609074  0.65726811  1.0
  Ni  Ni2108  1  0.14582293  0.91942407  0.65726811  1.0
  Ni  Ni2109  1  0.47915626  0.25275740  0.65726811  1.0
  Ni  Ni2110  1  0.47915626  0.58609074  0.65726811  1.0
  Ni  Ni2111  1  0.47915626  0.91942407  0.65726811  1.0
  Ni  Ni2112  1  0.81248960  0.25275740  0.65726811  1.0
  Ni  Ni2113  1  0.81248960  0.58609074  0.65726811  1.0
  Ni  Ni2114  1  0.81248960  0.91942407  0.65726811  1.0
  Ni  Ni2115  1  0.02677531  0.03847169  0.58583954  1.0
  Ni  Ni2116  1  0.02677531  0.37180502  0.58583954  1.0
  Ni  Ni2117  1  0.02677531  0.70513836  0.58583954  1.0
  Ni  Ni2118  1  0.36010864  0.03847169  0.58583954  1.0
  Ni  Ni2119  1  0.36010864  0.37180502  0.58583954  1.0
  Ni  Ni2120  1  0.36010864  0.70513836  0.58583954  1.0
  Ni  Ni2121  1  0.69344198  0.03847169  0.58583954  1.0
  Ni  Ni2122  1  0.69344198  0.37180502  0.58583954  1.0
  Ni  Ni2123  1  0.69344198  0.70513836  0.58583954  1.0
  Ni  Ni2124  1  0.29405100  0.10452933  0.60785875  1.0
  Ni  Ni2125  1  0.29405100  0.43786267  0.60785875  1.0
  Ni  Ni2126  1  0.29405100  0.77119600  0.60785875  1.0
  Ni  Ni2127  1  0.62738433  0.10452933  0.60785875  1.0
  Ni  Ni2128  1  0.62738433  0.43786267  0.60785875  1.0
  Ni  Ni2129  1  0.62738433  0.77119600  0.60785875  1.0
  Ni  Ni2130  1  0.96071767  0.10452933  0.60785875  1.0
  Ni  Ni2131  1  0.96071767  0.43786267  0.60785875  1.0
  Ni  Ni2132  1  0.96071767  0.77119600  0.60785875  1.0
  Ni  Ni2133  1  0.07976529  0.31881505  0.67928732  1.0
  Ni  Ni2134  1  0.07976529  0.65214838  0.67928732  1.0
  Ni  Ni2135  1  0.07976529  0.98548171  0.67928732  1.0
  Ni  Ni2136  1  0.41309862  0.31881505  0.67928732  1.0
  Ni  Ni2137  1  0.41309862  0.65214838  0.67928732  1.0
  Ni  Ni2138  1  0.41309862  0.98548171  0.67928732  1.0
  Ni  Ni2139  1  0.74643195  0.31881505  0.67928732  1.0
  Ni  Ni2140  1  0.74643195  0.65214838  0.67928732  1.0
  Ni  Ni2141  1  0.74643195  0.98548171  0.67928732  1.0
  Ni  Ni2142  1  0.22083212  0.17774821  0.64061982  1.0
  Ni  Ni2143  1  0.22083212  0.51108155  0.64061982  1.0
  Ni  Ni2144  1  0.22083212  0.84441488  0.64061982  1.0
  Ni  Ni2145  1  0.55416545  0.17774821  0.64061982  1.0
  Ni  Ni2146  1  0.55416545  0.51108155  0.64061982  1.0
  Ni  Ni2147  1  0.55416545  0.84441488  0.64061982  1.0
  Ni  Ni2148  1  0.88749879  0.17774821  0.64061982  1.0
  Ni  Ni2149  1  0.88749879  0.51108155  0.64061982  1.0
  Ni  Ni2150  1  0.88749879  0.84441488  0.64061982  1.0
  Ni  Ni2151  1  0.00654640  0.05870060  0.71204839  1.0
  Ni  Ni2152  1  0.00654640  0.39203393  0.71204839  1.0
  Ni  Ni2153  1  0.00654640  0.72536726  0.71204839  1.0
  Ni  Ni2154  1  0.33987974  0.05870060  0.71204839  1.0
  Ni  Ni2155  1  0.33987974  0.39203393  0.71204839  1.0
  Ni  Ni2156  1  0.33987974  0.72536726  0.71204839  1.0
  Ni  Ni2157  1  0.67321307  0.05870060  0.71204839  1.0
  Ni  Ni2158  1  0.67321307  0.39203393  0.71204839  1.0
  Ni  Ni2159  1  0.67321307  0.72536726  0.71204839  1.0
  Ni  Ni2160  1  0.23909383  0.29367383  0.63271825  1.0
  Ni  Ni2161  1  0.23909383  0.62700717  0.63271825  1.0
  Ni  Ni2162  1  0.23909383  0.96034050  0.63271825  1.0
  Ni  Ni2163  1  0.57242717  0.29367383  0.63271825  1.0
  Ni  Ni2164  1  0.57242717  0.62700717  0.63271825  1.0
  Ni  Ni2165  1  0.57242717  0.96034050  0.63271825  1.0
  Ni  Ni2166  1  0.90576050  0.29367383  0.63271825  1.0
  Ni  Ni2167  1  0.90576050  0.62700717  0.63271825  1.0
  Ni  Ni2168  1  0.90576050  0.96034050  0.63271825  1.0
  Ni  Ni2169  1  0.02480812  0.17462621  0.70414682  1.0
  Ni  Ni2170  1  0.02480812  0.50795955  0.70414682  1.0
  Ni  Ni2171  1  0.02480812  0.84129288  0.70414682  1.0
  Ni  Ni2172  1  0.35814145  0.17462621  0.70414682  1.0
  Ni  Ni2173  1  0.35814145  0.50795955  0.70414682  1.0
  Ni  Ni2174  1  0.35814145  0.84129288  0.70414682  1.0
  Ni  Ni2175  1  0.69147479  0.17462621  0.70414682  1.0
  Ni  Ni2176  1  0.69147479  0.50795955  0.70414682  1.0
  Ni  Ni2177  1  0.69147479  0.84129288  0.70414682  1.0
  Ni  Ni2178  1  0.04137486  0.15805948  0.58751346  1.0
  Ni  Ni2179  1  0.04137486  0.49139281  0.58751346  1.0
  Ni  Ni2180  1  0.04137486  0.82472614  0.58751346  1.0
  Ni  Ni2181  1  0.37470819  0.15805948  0.58751346  1.0
  Ni  Ni2182  1  0.37470819  0.49139281  0.58751346  1.0
  Ni  Ni2183  1  0.37470819  0.82472614  0.58751346  1.0
  Ni  Ni2184  1  0.70804152  0.15805948  0.58751346  1.0
  Ni  Ni2185  1  0.70804152  0.49139281  0.58751346  1.0
  Ni  Ni2186  1  0.70804152  0.82472614  0.58751346  1.0
  Ni  Ni2187  1  0.16042248  0.03901186  0.65894204  1.0
  Ni  Ni2188  1  0.16042248  0.37234519  0.65894204  1.0
  Ni  Ni2189  1  0.16042248  0.70567852  0.65894204  1.0
  Ni  Ni2190  1  0.49375581  0.03901186  0.65894204  1.0
  Ni  Ni2191  1  0.49375581  0.37234519  0.65894204  1.0
  Ni  Ni2192  1  0.49375581  0.70567852  0.65894204  1.0
  Ni  Ni2193  1  0.82708914  0.03901186  0.65894204  1.0
  Ni  Ni2194  1  0.82708914  0.37234519  0.65894204  1.0
  Ni  Ni2195  1  0.82708914  0.70567852  0.65894204  1.0
  Ni  Ni2196  1  0.30569388  0.22707379  0.59925168  1.0
  Ni  Ni2197  1  0.30569388  0.56040712  0.59925168  1.0
  Ni  Ni2198  1  0.30569388  0.89374045  0.59925168  1.0
  Ni  Ni2199  1  0.63902721  0.22707379  0.59925168  1.0
  Ni  Ni2200  1  0.63902721  0.56040712  0.59925168  1.0
  Ni  Ni2201  1  0.63902721  0.89374045  0.59925168  1.0
  Ni  Ni2202  1  0.97236055  0.22707379  0.59925168  1.0
  Ni  Ni2203  1  0.97236055  0.56040712  0.59925168  1.0
  Ni  Ni2204  1  0.97236055  0.89374045  0.59925168  1.0
  Ni  Ni2205  1  0.09140817  0.10802617  0.67068025  1.0
  Ni  Ni2206  1  0.09140817  0.44135950  0.67068025  1.0
  Ni  Ni2207  1  0.09140817  0.77469283  0.67068025  1.0
  Ni  Ni2208  1  0.42474150  0.10802617  0.67068025  1.0
  Ni  Ni2209  1  0.42474150  0.44135950  0.67068025  1.0
  Ni  Ni2210  1  0.42474150  0.77469283  0.67068025  1.0
  Ni  Ni2211  1  0.75807483  0.10802617  0.67068025  1.0
  Ni  Ni2212  1  0.75807483  0.44135950  0.67068025  1.0
  Ni  Ni2213  1  0.75807483  0.77469283  0.67068025  1.0
  Ni  Ni2214  1  0.16358598  0.20251502  0.68741354  1.0
  Ni  Ni2215  1  0.16358598  0.53584836  0.68741354  1.0
  Ni  Ni2216  1  0.16358598  0.86918169  0.68741354  1.0
  Ni  Ni2217  1  0.49691931  0.20251502  0.68741354  1.0
  Ni  Ni2218  1  0.49691931  0.53584836  0.68741354  1.0
  Ni  Ni2219  1  0.49691931  0.86918169  0.68741354  1.0
  Ni  Ni2220  1  0.83025264  0.20251502  0.68741354  1.0
  Ni  Ni2221  1  0.83025264  0.53584836  0.68741354  1.0
  Ni  Ni2222  1  0.83025264  0.86918169  0.68741354  1.0
  Ni  Ni2223  1  0.04453836  0.32156264  0.61598496  1.0
  Ni  Ni2224  1  0.04453836  0.65489598  0.61598496  1.0
  Ni  Ni2225  1  0.04453836  0.98822931  0.61598496  1.0
  Ni  Ni2226  1  0.37787169  0.32156264  0.61598496  1.0
  Ni  Ni2227  1  0.37787169  0.65489598  0.61598496  1.0
  Ni  Ni2228  1  0.37787169  0.98822931  0.61598496  1.0
  Ni  Ni2229  1  0.71120502  0.32156264  0.61598496  1.0
  Ni  Ni2230  1  0.71120502  0.65489598  0.61598496  1.0
  Ni  Ni2231  1  0.71120502  0.98822931  0.61598496  1.0
  Ni  Ni2232  1  0.24225733  0.12384367  0.66118975  1.0
  Ni  Ni2233  1  0.24225733  0.45717700  0.66118975  1.0
  Ni  Ni2234  1  0.24225733  0.79051033  0.66118975  1.0
  Ni  Ni2235  1  0.57559067  0.12384367  0.66118975  1.0
  Ni  Ni2236  1  0.57559067  0.45717700  0.66118975  1.0
  Ni  Ni2237  1  0.57559067  0.79051033  0.66118975  1.0
  Ni  Ni2238  1  0.90892400  0.12384367  0.66118975  1.0
  Ni  Ni2239  1  0.90892400  0.45717700  0.66118975  1.0
  Ni  Ni2240  1  0.90892400  0.79051033  0.66118975  1.0
  Ni  Ni2241  1  0.12320971  0.24289129  0.58976118  1.0
  Ni  Ni2242  1  0.12320971  0.57622462  0.58976118  1.0
  Ni  Ni2243  1  0.12320971  0.90955795  0.58976118  1.0
  Ni  Ni2244  1  0.45654305  0.24289129  0.58976118  1.0
  Ni  Ni2245  1  0.45654305  0.57622462  0.58976118  1.0
  Ni  Ni2246  1  0.45654305  0.90955795  0.58976118  1.0
  Ni  Ni2247  1  0.78987638  0.24289129  0.58976118  1.0
  Ni  Ni2248  1  0.78987638  0.57622462  0.58976118  1.0
  Ni  Ni2249  1  0.78987638  0.90955795  0.58976118  1.0
  Ni  Ni2250  1  0.19222402  0.17387698  0.57802296  1.0
  Ni  Ni2251  1  0.19222402  0.50721031  0.57802296  1.0
  Ni  Ni2252  1  0.19222402  0.84054364  0.57802296  1.0
  Ni  Ni2253  1  0.52555736  0.17387698  0.57802296  1.0
  Ni  Ni2254  1  0.52555736  0.50721031  0.57802296  1.0
  Ni  Ni2255  1  0.52555736  0.84054364  0.57802296  1.0
  Ni  Ni2256  1  0.85889069  0.17387698  0.57802296  1.0
  Ni  Ni2257  1  0.85889069  0.50721031  0.57802296  1.0
  Ni  Ni2258  1  0.85889069  0.84054364  0.57802296  1.0
  Ni  Ni2259  1  0.31127164  0.05482936  0.64945154  1.0
  Ni  Ni2260  1  0.31127164  0.38816269  0.64945154  1.0
  Ni  Ni2261  1  0.31127164  0.72149602  0.64945154  1.0
  Ni  Ni2262  1  0.64460498  0.05482936  0.64945154  1.0
  Ni  Ni2263  1  0.64460498  0.38816269  0.64945154  1.0
  Ni  Ni2264  1  0.64460498  0.72149602  0.64945154  1.0
  Ni  Ni2265  1  0.97793831  0.05482936  0.64945154  1.0
  Ni  Ni2266  1  0.97793831  0.38816269  0.64945154  1.0
  Ni  Ni2267  1  0.97793831  0.72149602  0.64945154  1.0
