# generated using pymatgen
data_Ni5Sb2
_symmetry_space_group_name_H-M   'P 1'
_cell_length_a   33.45792645
_cell_length_b   33.64232533
_cell_length_c   27.77119498
_cell_angle_alpha   86.95908086
_cell_angle_beta   86.85740588
_cell_angle_gamma   61.64291793
_symmetry_Int_Tables_number   1
_chemical_formula_structural   Ni5Sb2
_chemical_formula_sum   'Ni540 Sb216'
_cell_volume   27454.00157928
_cell_formula_units_Z   108
loop_
 _symmetry_equiv_pos_site_id
 _symmetry_equiv_pos_as_xyz
  1  'x, y, z'
loop_
 _atom_site_type_symbol
 _atom_site_label
 _atom_site_symmetry_multiplicity
 _atom_site_fract_x
 _atom_site_fract_y
 _atom_site_fract_z
 _atom_site_occupancy
  Ni  Ni0  1  0.32816673  0.32816673  0.95350056  1.0
  Ni  Ni1  1  0.32816673  0.66150006  0.95350056  1.0
  Ni  Ni2  1  0.32816673  0.99483340  0.95350056  1.0
  Ni  Ni3  1  0.66150006  0.32816673  0.95350056  1.0
  Ni  Ni4  1  0.66150006  0.66150006  0.95350056  1.0
  Ni  Ni5  1  0.66150006  0.99483340  0.95350056  1.0
  Ni  Ni6  1  0.99483340  0.32816673  0.95350056  1.0
  Ni  Ni7  1  0.99483340  0.66150006  0.95350056  1.0
  Ni  Ni8  1  0.99483340  0.99483340  0.95350056  1.0
  Ni  Ni9  1  0.09900006  0.09900006  0.89100056  1.0
  Ni  Ni10  1  0.09900006  0.43233340  0.89100056  1.0
  Ni  Ni11  1  0.09900006  0.76566673  0.89100056  1.0
  Ni  Ni12  1  0.43233340  0.09900006  0.89100056  1.0
  Ni  Ni13  1  0.43233340  0.43233340  0.89100056  1.0
  Ni  Ni14  1  0.43233340  0.76566673  0.89100056  1.0
  Ni  Ni15  1  0.76566673  0.09900006  0.89100056  1.0
  Ni  Ni16  1  0.76566673  0.43233340  0.89100056  1.0
  Ni  Ni17  1  0.76566673  0.76566673  0.89100056  1.0
  Ni  Ni18  1  0.10933327  0.10933327  0.98399944  1.0
  Ni  Ni19  1  0.10933327  0.44266660  0.98399944  1.0
  Ni  Ni20  1  0.10933327  0.77599994  0.98399944  1.0
  Ni  Ni21  1  0.44266660  0.10933327  0.98399944  1.0
  Ni  Ni22  1  0.44266660  0.44266660  0.98399944  1.0
  Ni  Ni23  1  0.44266660  0.77599994  0.98399944  1.0
  Ni  Ni24  1  0.77599994  0.10933327  0.98399944  1.0
  Ni  Ni25  1  0.77599994  0.44266660  0.98399944  1.0
  Ni  Ni26  1  0.77599994  0.77599994  0.98399944  1.0
  Ni  Ni27  1  0.21349994  0.21349994  0.92149944  1.0
  Ni  Ni28  1  0.21349994  0.54683327  0.92149944  1.0
  Ni  Ni29  1  0.21349994  0.88016660  0.92149944  1.0
  Ni  Ni30  1  0.54683327  0.21349994  0.92149944  1.0
  Ni  Ni31  1  0.54683327  0.54683327  0.92149944  1.0
  Ni  Ni32  1  0.54683327  0.88016660  0.92149944  1.0
  Ni  Ni33  1  0.88016660  0.21349994  0.92149944  1.0
  Ni  Ni34  1  0.88016660  0.54683327  0.92149944  1.0
  Ni  Ni35  1  0.88016660  0.88016660  0.92149944  1.0
  Ni  Ni36  1  0.14726733  0.23246267  0.98608100  1.0
  Ni  Ni37  1  0.14726733  0.56579600  0.98608100  1.0
  Ni  Ni38  1  0.14726733  0.89912933  0.98608100  1.0
  Ni  Ni39  1  0.48060067  0.23246267  0.98608100  1.0
  Ni  Ni40  1  0.48060067  0.56579600  0.98608100  1.0
  Ni  Ni41  1  0.48060067  0.89912933  0.98608100  1.0
  Ni  Ni42  1  0.81393400  0.23246267  0.98608100  1.0
  Ni  Ni43  1  0.81393400  0.56579600  0.98608100  1.0
  Ni  Ni44  1  0.81393400  0.89912933  0.98608100  1.0
  Ni  Ni45  1  0.25143400  0.00329600  0.92358100  1.0
  Ni  Ni46  1  0.25143400  0.33662933  0.92358100  1.0
  Ni  Ni47  1  0.25143400  0.66996267  0.92358100  1.0
  Ni  Ni48  1  0.58476733  0.00329600  0.92358100  1.0
  Ni  Ni49  1  0.58476733  0.33662933  0.92358100  1.0
  Ni  Ni50  1  0.58476733  0.66996267  0.92358100  1.0
  Ni  Ni51  1  0.91810067  0.00329600  0.92358100  1.0
  Ni  Ni52  1  0.91810067  0.33662933  0.92358100  1.0
  Ni  Ni53  1  0.91810067  0.66996267  0.92358100  1.0
  Ni  Ni54  1  0.06106600  0.30920400  0.88891900  1.0
  Ni  Ni55  1  0.06106600  0.64253733  0.88891900  1.0
  Ni  Ni56  1  0.06106600  0.97587067  0.88891900  1.0
  Ni  Ni57  1  0.39439933  0.30920400  0.88891900  1.0
  Ni  Ni58  1  0.39439933  0.64253733  0.88891900  1.0
  Ni  Ni59  1  0.39439933  0.97587067  0.88891900  1.0
  Ni  Ni60  1  0.72773267  0.30920400  0.88891900  1.0
  Ni  Ni61  1  0.72773267  0.64253733  0.88891900  1.0
  Ni  Ni62  1  0.72773267  0.97587067  0.88891900  1.0
  Ni  Ni63  1  0.29023267  0.20503733  0.95141900  1.0
  Ni  Ni64  1  0.29023267  0.53837067  0.95141900  1.0
  Ni  Ni65  1  0.29023267  0.87170400  0.95141900  1.0
  Ni  Ni66  1  0.62356600  0.20503733  0.95141900  1.0
  Ni  Ni67  1  0.62356600  0.53837067  0.95141900  1.0
  Ni  Ni68  1  0.62356600  0.87170400  0.95141900  1.0
  Ni  Ni69  1  0.95689933  0.20503733  0.95141900  1.0
  Ni  Ni70  1  0.95689933  0.53837067  0.95141900  1.0
  Ni  Ni71  1  0.95689933  0.87170400  0.95141900  1.0
  Ni  Ni72  1  0.33099638  0.06555238  0.98103538  1.0
  Ni  Ni73  1  0.33099638  0.39888571  0.98103537  1.0
  Ni  Ni74  1  0.33099638  0.73221904  0.98103538  1.0
  Ni  Ni75  1  0.66432971  0.06555238  0.98103538  1.0
  Ni  Ni76  1  0.66432971  0.39888571  0.98103538  1.0
  Ni  Ni77  1  0.66432971  0.73221904  0.98103538  1.0
  Ni  Ni78  1  0.99766304  0.06555238  0.98103537  1.0
  Ni  Ni79  1  0.99766304  0.39888571  0.98103538  1.0
  Ni  Ni80  1  0.99766304  0.73221904  0.98103537  1.0
  Ni  Ni81  1  0.10182971  0.16971904  0.91853537  1.0
  Ni  Ni82  1  0.10182971  0.50305238  0.91853538  1.0
  Ni  Ni83  1  0.10182971  0.83638571  0.91853537  1.0
  Ni  Ni84  1  0.43516304  0.16971904  0.91853537  1.0
  Ni  Ni85  1  0.43516304  0.50305238  0.91853537  1.0
  Ni  Ni86  1  0.43516304  0.83638571  0.91853537  1.0
  Ni  Ni87  1  0.76849638  0.16971904  0.91853537  1.0
  Ni  Ni88  1  0.76849638  0.50305238  0.91853538  1.0
  Ni  Ni89  1  0.76849638  0.83638571  0.91853537  1.0
  Ni  Ni90  1  0.21067029  0.14278096  0.89396462  1.0
  Ni  Ni91  1  0.21067029  0.47611429  0.89396463  1.0
  Ni  Ni92  1  0.21067029  0.80944763  0.89396462  1.0
  Ni  Ni93  1  0.54400362  0.14278096  0.89396462  1.0
  Ni  Ni94  1  0.54400363  0.47611429  0.89396462  1.0
  Ni  Ni95  1  0.54400362  0.80944763  0.89396462  1.0
  Ni  Ni96  1  0.87733696  0.14278096  0.89396462  1.0
  Ni  Ni97  1  0.87733696  0.47611429  0.89396463  1.0
  Ni  Ni98  1  0.87733696  0.80944763  0.89396462  1.0
  Ni  Ni99  1  0.10650363  0.03861429  0.95646462  1.0
  Ni  Ni100  1  0.10650363  0.37194763  0.95646462  1.0
  Ni  Ni101  1  0.10650362  0.70528096  0.95646462  1.0
  Ni  Ni102  1  0.43983696  0.03861429  0.95646462  1.0
  Ni  Ni103  1  0.43983696  0.37194763  0.95646462  1.0
  Ni  Ni104  1  0.43983696  0.70528096  0.95646462  1.0
  Ni  Ni105  1  0.77317029  0.03861429  0.95646462  1.0
  Ni  Ni106  1  0.77317029  0.37194763  0.95646463  1.0
  Ni  Ni107  1  0.77317029  0.70528096  0.95646462  1.0
  Ni  Ni108  1  0.25492577  0.07426577  0.95178394  1.0
  Ni  Ni109  1  0.25492577  0.40759910  0.95178394  1.0
  Ni  Ni110  1  0.25492577  0.74093244  0.95178394  1.0
  Ni  Ni111  1  0.58825910  0.07426577  0.95178394  1.0
  Ni  Ni112  1  0.58825910  0.40759910  0.95178394  1.0
  Ni  Ni113  1  0.58825910  0.74093244  0.95178394  1.0
  Ni  Ni114  1  0.92159244  0.07426577  0.95178394  1.0
  Ni  Ni115  1  0.92159244  0.40759910  0.95178394  1.0
  Ni  Ni116  1  0.92159244  0.74093244  0.95178394  1.0
  Ni  Ni117  1  0.02575910  0.17843244  0.88928394  1.0
  Ni  Ni118  1  0.02575910  0.51176577  0.88928394  1.0
  Ni  Ni119  1  0.02575910  0.84509910  0.88928394  1.0
  Ni  Ni120  1  0.35909244  0.17843244  0.88928394  1.0
  Ni  Ni121  1  0.35909244  0.51176577  0.88928394  1.0
  Ni  Ni122  1  0.35909244  0.84509910  0.88928394  1.0
  Ni  Ni123  1  0.69242577  0.17843244  0.88928394  1.0
  Ni  Ni124  1  0.69242577  0.51176577  0.88928394  1.0
  Ni  Ni125  1  0.69242577  0.84509910  0.88928394  1.0
  Ni  Ni126  1  0.17227035  0.01959702  0.89298119  1.0
  Ni  Ni127  1  0.17227035  0.35293035  0.89298119  1.0
  Ni  Ni128  1  0.17227035  0.68626369  0.89298119  1.0
  Ni  Ni129  1  0.50560369  0.01959702  0.89298119  1.0
  Ni  Ni130  1  0.50560369  0.35293035  0.89298119  1.0
  Ni  Ni131  1  0.50560369  0.68626369  0.89298119  1.0
  Ni  Ni132  1  0.83893702  0.01959702  0.89298119  1.0
  Ni  Ni133  1  0.83893702  0.35293035  0.89298119  1.0
  Ni  Ni134  1  0.83893702  0.68626369  0.89298119  1.0
  Ni  Ni135  1  0.06810369  0.24876369  0.95548119  1.0
  Ni  Ni136  1  0.06810369  0.58209702  0.95548119  1.0
  Ni  Ni137  1  0.06810369  0.91543035  0.95548119  1.0
  Ni  Ni138  1  0.40143702  0.24876369  0.95548119  1.0
  Ni  Ni139  1  0.40143702  0.58209702  0.95548119  1.0
  Ni  Ni140  1  0.40143702  0.91543035  0.95548119  1.0
  Ni  Ni141  1  0.73477035  0.24876369  0.95548119  1.0
  Ni  Ni142  1  0.73477035  0.58209702  0.95548119  1.0
  Ni  Ni143  1  0.73477035  0.91543035  0.95548119  1.0
  Ni  Ni144  1  0.03606298  0.18873631  0.98201881  1.0
  Ni  Ni145  1  0.03606298  0.52206965  0.98201881  1.0
  Ni  Ni146  1  0.03606298  0.85540298  0.98201881  1.0
  Ni  Ni147  1  0.36939631  0.18873631  0.98201881  1.0
  Ni  Ni148  1  0.36939631  0.52206965  0.98201881  1.0
  Ni  Ni149  1  0.36939631  0.85540298  0.98201881  1.0
  Ni  Ni150  1  0.70272965  0.18873631  0.98201881  1.0
  Ni  Ni151  1  0.70272965  0.52206965  0.98201881  1.0
  Ni  Ni152  1  0.70272965  0.85540298  0.98201881  1.0
  Ni  Ni153  1  0.14022965  0.29290298  0.91951881  1.0
  Ni  Ni154  1  0.14022965  0.62623631  0.91951881  1.0
  Ni  Ni155  1  0.14022965  0.95956965  0.91951881  1.0
  Ni  Ni156  1  0.47356298  0.29290298  0.91951881  1.0
  Ni  Ni157  1  0.47356298  0.62623631  0.91951881  1.0
  Ni  Ni158  1  0.47356298  0.95956965  0.91951881  1.0
  Ni  Ni159  1  0.80689631  0.29290298  0.91951881  1.0
  Ni  Ni160  1  0.80689631  0.62623631  0.91951881  1.0
  Ni  Ni161  1  0.80689631  0.95956965  0.91951881  1.0
  Ni  Ni162  1  0.28674090  0.13406756  0.92321606  1.0
  Ni  Ni163  1  0.28674090  0.46740090  0.92321606  1.0
  Ni  Ni164  1  0.28674090  0.80073423  0.92321606  1.0
  Ni  Ni165  1  0.62007423  0.13406756  0.92321606  1.0
  Ni  Ni166  1  0.62007423  0.46740090  0.92321606  1.0
  Ni  Ni167  1  0.62007423  0.80073423  0.92321606  1.0
  Ni  Ni168  1  0.95340756  0.13406756  0.92321606  1.0
  Ni  Ni169  1  0.95340756  0.46740090  0.92321606  1.0
  Ni  Ni170  1  0.95340756  0.80073423  0.92321606  1.0
  Ni  Ni171  1  0.18257423  0.02990090  0.98571606  1.0
  Ni  Ni172  1  0.18257423  0.36323423  0.98571606  1.0
  Ni  Ni173  1  0.18257423  0.69656756  0.98571606  1.0
  Ni  Ni174  1  0.51590756  0.02990090  0.98571606  1.0
  Ni  Ni175  1  0.51590756  0.36323423  0.98571606  1.0
  Ni  Ni176  1  0.51590756  0.69656756  0.98571606  1.0
  Ni  Ni177  1  0.84924090  0.02990090  0.98571606  1.0
  Ni  Ni178  1  0.84924090  0.36323423  0.98571606  1.0
  Ni  Ni179  1  0.84924090  0.69656756  0.98571606  1.0
  Ni  Ni180  1  0.20316673  0.20316673  0.82850056  1.0
  Ni  Ni181  1  0.20316673  0.53650006  0.82850056  1.0
  Ni  Ni182  1  0.20316673  0.86983340  0.82850056  1.0
  Ni  Ni183  1  0.53650006  0.20316673  0.82850056  1.0
  Ni  Ni184  1  0.53650006  0.53650006  0.82850056  1.0
  Ni  Ni185  1  0.53650006  0.86983340  0.82850056  1.0
  Ni  Ni186  1  0.86983340  0.20316673  0.82850056  1.0
  Ni  Ni187  1  0.86983340  0.53650006  0.82850056  1.0
  Ni  Ni188  1  0.86983340  0.86983340  0.82850056  1.0
  Ni  Ni189  1  0.30733340  0.30733340  0.76600056  1.0
  Ni  Ni190  1  0.30733340  0.64066673  0.76600056  1.0
  Ni  Ni191  1  0.30733340  0.97400006  0.76600056  1.0
  Ni  Ni192  1  0.64066673  0.30733340  0.76600056  1.0
  Ni  Ni193  1  0.64066673  0.64066673  0.76600056  1.0
  Ni  Ni194  1  0.64066673  0.97400006  0.76600056  1.0
  Ni  Ni195  1  0.97400006  0.30733340  0.76600056  1.0
  Ni  Ni196  1  0.97400006  0.64066673  0.76600056  1.0
  Ni  Ni197  1  0.97400006  0.97400006  0.76600056  1.0
  Ni  Ni198  1  0.31766660  0.31766660  0.85899944  1.0
  Ni  Ni199  1  0.31766660  0.65099994  0.85899944  1.0
  Ni  Ni200  1  0.31766660  0.98433327  0.85899944  1.0
  Ni  Ni201  1  0.65099994  0.31766660  0.85899944  1.0
  Ni  Ni202  1  0.65099994  0.65099994  0.85899944  1.0
  Ni  Ni203  1  0.65099994  0.98433327  0.85899944  1.0
  Ni  Ni204  1  0.98433327  0.31766660  0.85899944  1.0
  Ni  Ni205  1  0.98433327  0.65099994  0.85899944  1.0
  Ni  Ni206  1  0.98433327  0.98433327  0.85899944  1.0
  Ni  Ni207  1  0.08849994  0.08849994  0.79649944  1.0
  Ni  Ni208  1  0.08849994  0.42183327  0.79649944  1.0
  Ni  Ni209  1  0.08849994  0.75516660  0.79649944  1.0
  Ni  Ni210  1  0.42183327  0.08849994  0.79649944  1.0
  Ni  Ni211  1  0.42183327  0.42183327  0.79649944  1.0
  Ni  Ni212  1  0.42183327  0.75516660  0.79649944  1.0
  Ni  Ni213  1  0.75516660  0.08849994  0.79649944  1.0
  Ni  Ni214  1  0.75516660  0.42183327  0.79649944  1.0
  Ni  Ni215  1  0.75516660  0.75516660  0.79649944  1.0
  Ni  Ni216  1  0.02226733  0.10746267  0.86108100  1.0
  Ni  Ni217  1  0.02226733  0.44079600  0.86108100  1.0
  Ni  Ni218  1  0.02226733  0.77412933  0.86108100  1.0
  Ni  Ni219  1  0.35560067  0.10746267  0.86108100  1.0
  Ni  Ni220  1  0.35560067  0.44079600  0.86108100  1.0
  Ni  Ni221  1  0.35560067  0.77412933  0.86108100  1.0
  Ni  Ni222  1  0.68893400  0.10746267  0.86108100  1.0
  Ni  Ni223  1  0.68893400  0.44079600  0.86108100  1.0
  Ni  Ni224  1  0.68893400  0.77412933  0.86108100  1.0
  Ni  Ni225  1  0.12643400  0.21162933  0.79858100  1.0
  Ni  Ni226  1  0.12643400  0.54496267  0.79858100  1.0
  Ni  Ni227  1  0.12643400  0.87829600  0.79858100  1.0
  Ni  Ni228  1  0.45976733  0.21162933  0.79858100  1.0
  Ni  Ni229  1  0.45976733  0.54496267  0.79858100  1.0
  Ni  Ni230  1  0.45976733  0.87829600  0.79858100  1.0
  Ni  Ni231  1  0.79310067  0.21162933  0.79858100  1.0
  Ni  Ni232  1  0.79310067  0.54496267  0.79858100  1.0
  Ni  Ni233  1  0.79310067  0.87829600  0.79858100  1.0
  Ni  Ni234  1  0.26939933  0.18420400  0.76391900  1.0
  Ni  Ni235  1  0.26939933  0.51753733  0.76391900  1.0
  Ni  Ni236  1  0.26939933  0.85087067  0.76391900  1.0
  Ni  Ni237  1  0.60273267  0.18420400  0.76391900  1.0
  Ni  Ni238  1  0.60273267  0.51753733  0.76391900  1.0
  Ni  Ni239  1  0.60273267  0.85087067  0.76391900  1.0
  Ni  Ni240  1  0.93606600  0.18420400  0.76391900  1.0
  Ni  Ni241  1  0.93606600  0.51753733  0.76391900  1.0
  Ni  Ni242  1  0.93606600  0.85087067  0.76391900  1.0
  Ni  Ni243  1  0.16523267  0.08003733  0.82641900  1.0
  Ni  Ni244  1  0.16523267  0.41337067  0.82641900  1.0
  Ni  Ni245  1  0.16523267  0.74670400  0.82641900  1.0
  Ni  Ni246  1  0.49856600  0.08003733  0.82641900  1.0
  Ni  Ni247  1  0.49856600  0.41337067  0.82641900  1.0
  Ni  Ni248  1  0.49856600  0.74670400  0.82641900  1.0
  Ni  Ni249  1  0.83189933  0.08003733  0.82641900  1.0
  Ni  Ni250  1  0.83189933  0.41337067  0.82641900  1.0
  Ni  Ni251  1  0.83189933  0.74670400  0.82641900  1.0
  Ni  Ni252  1  0.20599638  0.27388571  0.85603538  1.0
  Ni  Ni253  1  0.20599638  0.60721904  0.85603538  1.0
  Ni  Ni254  1  0.20599638  0.94055238  0.85603537  1.0
  Ni  Ni255  1  0.53932971  0.27388571  0.85603537  1.0
  Ni  Ni256  1  0.53932971  0.60721904  0.85603538  1.0
  Ni  Ni257  1  0.53932971  0.94055238  0.85603537  1.0
  Ni  Ni258  1  0.87266304  0.27388571  0.85603538  1.0
  Ni  Ni259  1  0.87266304  0.60721904  0.85603537  1.0
  Ni  Ni260  1  0.87266304  0.94055238  0.85603537  1.0
  Ni  Ni261  1  0.31016304  0.04471904  0.79353538  1.0
  Ni  Ni262  1  0.31016304  0.37805238  0.79353538  1.0
  Ni  Ni263  1  0.31016304  0.71138571  0.79353537  1.0
  Ni  Ni264  1  0.64349638  0.04471904  0.79353537  1.0
  Ni  Ni265  1  0.64349638  0.37805238  0.79353538  1.0
  Ni  Ni266  1  0.64349638  0.71138571  0.79353537  1.0
  Ni  Ni267  1  0.97682971  0.04471904  0.79353538  1.0
  Ni  Ni268  1  0.97682971  0.37805238  0.79353537  1.0
  Ni  Ni269  1  0.97682971  0.71138571  0.79353537  1.0
  Ni  Ni270  1  0.08567029  0.01778096  0.76896463  1.0
  Ni  Ni271  1  0.08567029  0.35111429  0.76896462  1.0
  Ni  Ni272  1  0.08567029  0.68444763  0.76896462  1.0
  Ni  Ni273  1  0.41900363  0.01778096  0.76896462  1.0
  Ni  Ni274  1  0.41900363  0.35111429  0.76896463  1.0
  Ni  Ni275  1  0.41900362  0.68444763  0.76896462  1.0
  Ni  Ni276  1  0.75233696  0.01778096  0.76896462  1.0
  Ni  Ni277  1  0.75233696  0.35111429  0.76896463  1.0
  Ni  Ni278  1  0.75233696  0.68444763  0.76896462  1.0
  Ni  Ni279  1  0.31483696  0.24694763  0.83146462  1.0
  Ni  Ni280  1  0.31483696  0.58028096  0.83146462  1.0
  Ni  Ni281  1  0.31483696  0.91361429  0.83146462  1.0
  Ni  Ni282  1  0.64817029  0.24694763  0.83146462  1.0
  Ni  Ni283  1  0.64817029  0.58028096  0.83146462  1.0
  Ni  Ni284  1  0.64817029  0.91361429  0.83146462  1.0
  Ni  Ni285  1  0.98150363  0.24694763  0.83146462  1.0
  Ni  Ni286  1  0.98150363  0.58028096  0.83146462  1.0
  Ni  Ni287  1  0.98150363  0.91361429  0.83146462  1.0
  Ni  Ni288  1  0.12992577  0.28259910  0.82678394  1.0
  Ni  Ni289  1  0.12992577  0.61593244  0.82678394  1.0
  Ni  Ni290  1  0.12992577  0.94926577  0.82678394  1.0
  Ni  Ni291  1  0.46325910  0.28259910  0.82678394  1.0
  Ni  Ni292  1  0.46325910  0.61593244  0.82678394  1.0
  Ni  Ni293  1  0.46325910  0.94926577  0.82678394  1.0
  Ni  Ni294  1  0.79659244  0.28259910  0.82678394  1.0
  Ni  Ni295  1  0.79659244  0.61593244  0.82678394  1.0
  Ni  Ni296  1  0.79659244  0.94926577  0.82678394  1.0
  Ni  Ni297  1  0.23409244  0.05343244  0.76428394  1.0
  Ni  Ni298  1  0.23409244  0.38676577  0.76428394  1.0
  Ni  Ni299  1  0.23409244  0.72009910  0.76428394  1.0
  Ni  Ni300  1  0.56742577  0.05343244  0.76428394  1.0
  Ni  Ni301  1  0.56742577  0.38676577  0.76428394  1.0
  Ni  Ni302  1  0.56742577  0.72009910  0.76428394  1.0
  Ni  Ni303  1  0.90075910  0.05343244  0.76428394  1.0
  Ni  Ni304  1  0.90075910  0.38676577  0.76428394  1.0
  Ni  Ni305  1  0.90075910  0.72009910  0.76428394  1.0
  Ni  Ni306  1  0.04727035  0.22793035  0.76798119  1.0
  Ni  Ni307  1  0.04727035  0.56126369  0.76798119  1.0
  Ni  Ni308  1  0.04727035  0.89459702  0.76798119  1.0
  Ni  Ni309  1  0.38060369  0.22793035  0.76798119  1.0
  Ni  Ni310  1  0.38060369  0.56126369  0.76798119  1.0
  Ni  Ni311  1  0.38060369  0.89459702  0.76798119  1.0
  Ni  Ni312  1  0.71393702  0.22793035  0.76798119  1.0
  Ni  Ni313  1  0.71393702  0.56126369  0.76798119  1.0
  Ni  Ni314  1  0.71393702  0.89459702  0.76798119  1.0
  Ni  Ni315  1  0.27643702  0.12376369  0.83048119  1.0
  Ni  Ni316  1  0.27643702  0.45709702  0.83048119  1.0
  Ni  Ni317  1  0.27643702  0.79043035  0.83048119  1.0
  Ni  Ni318  1  0.60977035  0.12376369  0.83048119  1.0
  Ni  Ni319  1  0.60977035  0.45709702  0.83048119  1.0
  Ni  Ni320  1  0.60977035  0.79043035  0.83048119  1.0
  Ni  Ni321  1  0.94310369  0.12376369  0.83048119  1.0
  Ni  Ni322  1  0.94310369  0.45709702  0.83048119  1.0
  Ni  Ni323  1  0.94310369  0.79043035  0.83048119  1.0
  Ni  Ni324  1  0.24439631  0.06373631  0.85701881  1.0
  Ni  Ni325  1  0.24439631  0.39706965  0.85701881  1.0
  Ni  Ni326  1  0.24439631  0.73040298  0.85701881  1.0
  Ni  Ni327  1  0.57772965  0.06373631  0.85701881  1.0
  Ni  Ni328  1  0.57772965  0.39706965  0.85701881  1.0
  Ni  Ni329  1  0.57772965  0.73040298  0.85701881  1.0
  Ni  Ni330  1  0.91106298  0.06373631  0.85701881  1.0
  Ni  Ni331  1  0.91106298  0.39706965  0.85701881  1.0
  Ni  Ni332  1  0.91106298  0.73040298  0.85701881  1.0
  Ni  Ni333  1  0.01522965  0.16790298  0.79451881  1.0
  Ni  Ni334  1  0.01522965  0.50123631  0.79451881  1.0
  Ni  Ni335  1  0.01522965  0.83456965  0.79451881  1.0
  Ni  Ni336  1  0.34856298  0.16790298  0.79451881  1.0
  Ni  Ni337  1  0.34856298  0.50123631  0.79451881  1.0
  Ni  Ni338  1  0.34856298  0.83456965  0.79451881  1.0
  Ni  Ni339  1  0.68189631  0.16790298  0.79451881  1.0
  Ni  Ni340  1  0.68189631  0.50123631  0.79451881  1.0
  Ni  Ni341  1  0.68189631  0.83456965  0.79451881  1.0
  Ni  Ni342  1  0.16174090  0.00906756  0.79821606  1.0
  Ni  Ni343  1  0.16174090  0.34240090  0.79821606  1.0
  Ni  Ni344  1  0.16174090  0.67573423  0.79821606  1.0
  Ni  Ni345  1  0.49507423  0.00906756  0.79821606  1.0
  Ni  Ni346  1  0.49507423  0.34240090  0.79821606  1.0
  Ni  Ni347  1  0.49507423  0.67573423  0.79821606  1.0
  Ni  Ni348  1  0.82840756  0.00906756  0.79821606  1.0
  Ni  Ni349  1  0.82840756  0.34240090  0.79821606  1.0
  Ni  Ni350  1  0.82840756  0.67573423  0.79821606  1.0
  Ni  Ni351  1  0.05757423  0.23823423  0.86071606  1.0
  Ni  Ni352  1  0.05757423  0.57156756  0.86071606  1.0
  Ni  Ni353  1  0.05757423  0.90490090  0.86071606  1.0
  Ni  Ni354  1  0.39090756  0.23823423  0.86071606  1.0
  Ni  Ni355  1  0.39090756  0.57156756  0.86071606  1.0
  Ni  Ni356  1  0.39090756  0.90490090  0.86071606  1.0
  Ni  Ni357  1  0.72424090  0.23823423  0.86071606  1.0
  Ni  Ni358  1  0.72424090  0.57156756  0.86071606  1.0
  Ni  Ni359  1  0.72424090  0.90490090  0.86071606  1.0
  Ni  Ni360  1  0.07816673  0.07816673  0.70350056  1.0
  Ni  Ni361  1  0.07816673  0.41150006  0.70350056  1.0
  Ni  Ni362  1  0.07816673  0.74483340  0.70350056  1.0
  Ni  Ni363  1  0.41150006  0.07816673  0.70350056  1.0
  Ni  Ni364  1  0.41150006  0.41150006  0.70350056  1.0
  Ni  Ni365  1  0.41150006  0.74483340  0.70350056  1.0
  Ni  Ni366  1  0.74483340  0.07816673  0.70350056  1.0
  Ni  Ni367  1  0.74483340  0.41150006  0.70350056  1.0
  Ni  Ni368  1  0.74483340  0.74483340  0.70350056  1.0
  Ni  Ni369  1  0.18233340  0.18233340  0.64100056  1.0
  Ni  Ni370  1  0.18233340  0.51566673  0.64100056  1.0
  Ni  Ni371  1  0.18233340  0.84900006  0.64100056  1.0
  Ni  Ni372  1  0.51566673  0.18233340  0.64100056  1.0
  Ni  Ni373  1  0.51566673  0.51566673  0.64100056  1.0
  Ni  Ni374  1  0.51566673  0.84900006  0.64100056  1.0
  Ni  Ni375  1  0.84900006  0.18233340  0.64100056  1.0
  Ni  Ni376  1  0.84900006  0.51566673  0.64100056  1.0
  Ni  Ni377  1  0.84900006  0.84900006  0.64100056  1.0
  Ni  Ni378  1  0.19266660  0.19266660  0.73399944  1.0
  Ni  Ni379  1  0.19266660  0.52599994  0.73399944  1.0
  Ni  Ni380  1  0.19266660  0.85933327  0.73399944  1.0
  Ni  Ni381  1  0.52599994  0.19266660  0.73399944  1.0
  Ni  Ni382  1  0.52599994  0.52599994  0.73399944  1.0
  Ni  Ni383  1  0.52599994  0.85933327  0.73399944  1.0
  Ni  Ni384  1  0.85933327  0.19266660  0.73399944  1.0
  Ni  Ni385  1  0.85933327  0.52599994  0.73399944  1.0
  Ni  Ni386  1  0.85933327  0.85933327  0.73399944  1.0
  Ni  Ni387  1  0.29683327  0.29683327  0.67149944  1.0
  Ni  Ni388  1  0.29683327  0.63016660  0.67149944  1.0
  Ni  Ni389  1  0.29683327  0.96349994  0.67149944  1.0
  Ni  Ni390  1  0.63016660  0.29683327  0.67149944  1.0
  Ni  Ni391  1  0.63016660  0.63016660  0.67149944  1.0
  Ni  Ni392  1  0.63016660  0.96349994  0.67149944  1.0
  Ni  Ni393  1  0.96349994  0.29683327  0.67149944  1.0
  Ni  Ni394  1  0.96349994  0.63016660  0.67149944  1.0
  Ni  Ni395  1  0.96349994  0.96349994  0.67149944  1.0
  Ni  Ni396  1  0.23060067  0.31579600  0.73608100  1.0
  Ni  Ni397  1  0.23060067  0.64912933  0.73608100  1.0
  Ni  Ni398  1  0.23060067  0.98246267  0.73608100  1.0
  Ni  Ni399  1  0.56393400  0.31579600  0.73608100  1.0
  Ni  Ni400  1  0.56393400  0.64912933  0.73608100  1.0
  Ni  Ni401  1  0.56393400  0.98246267  0.73608100  1.0
  Ni  Ni402  1  0.89726733  0.31579600  0.73608100  1.0
  Ni  Ni403  1  0.89726733  0.64912933  0.73608100  1.0
  Ni  Ni404  1  0.89726733  0.98246267  0.73608100  1.0
  Ni  Ni405  1  0.00143400  0.08662933  0.67358100  1.0
  Ni  Ni406  1  0.00143400  0.41996267  0.67358100  1.0
  Ni  Ni407  1  0.00143400  0.75329600  0.67358100  1.0
  Ni  Ni408  1  0.33476733  0.08662933  0.67358100  1.0
  Ni  Ni409  1  0.33476733  0.41996267  0.67358100  1.0
  Ni  Ni410  1  0.33476733  0.75329600  0.67358100  1.0
  Ni  Ni411  1  0.66810067  0.08662933  0.67358100  1.0
  Ni  Ni412  1  0.66810067  0.41996267  0.67358100  1.0
  Ni  Ni413  1  0.66810067  0.75329600  0.67358100  1.0
  Ni  Ni414  1  0.14439933  0.05920400  0.63891900  1.0
  Ni  Ni415  1  0.14439933  0.39253733  0.63891900  1.0
  Ni  Ni416  1  0.14439933  0.72587067  0.63891900  1.0
  Ni  Ni417  1  0.47773267  0.05920400  0.63891900  1.0
  Ni  Ni418  1  0.47773267  0.39253733  0.63891900  1.0
  Ni  Ni419  1  0.47773267  0.72587067  0.63891900  1.0
  Ni  Ni420  1  0.81106600  0.05920400  0.63891900  1.0
  Ni  Ni421  1  0.81106600  0.39253733  0.63891900  1.0
  Ni  Ni422  1  0.81106600  0.72587067  0.63891900  1.0
  Ni  Ni423  1  0.04023267  0.28837067  0.70141900  1.0
  Ni  Ni424  1  0.04023267  0.62170400  0.70141900  1.0
  Ni  Ni425  1  0.04023267  0.95503733  0.70141900  1.0
  Ni  Ni426  1  0.37356600  0.28837067  0.70141900  1.0
  Ni  Ni427  1  0.37356600  0.62170400  0.70141900  1.0
  Ni  Ni428  1  0.37356600  0.95503733  0.70141900  1.0
  Ni  Ni429  1  0.70689933  0.28837067  0.70141900  1.0
  Ni  Ni430  1  0.70689933  0.62170400  0.70141900  1.0
  Ni  Ni431  1  0.70689933  0.95503733  0.70141900  1.0
  Ni  Ni432  1  0.08099638  0.14888571  0.73103538  1.0
  Ni  Ni433  1  0.08099638  0.48221904  0.73103538  1.0
  Ni  Ni434  1  0.08099638  0.81555238  0.73103538  1.0
  Ni  Ni435  1  0.41432971  0.14888571  0.73103538  1.0
  Ni  Ni436  1  0.41432971  0.48221904  0.73103538  1.0
  Ni  Ni437  1  0.41432971  0.81555238  0.73103537  1.0
  Ni  Ni438  1  0.74766304  0.14888571  0.73103538  1.0
  Ni  Ni439  1  0.74766304  0.48221904  0.73103538  1.0
  Ni  Ni440  1  0.74766304  0.81555238  0.73103538  1.0
  Ni  Ni441  1  0.18516304  0.25305238  0.66853538  1.0
  Ni  Ni442  1  0.18516304  0.58638571  0.66853538  1.0
  Ni  Ni443  1  0.18516304  0.91971904  0.66853538  1.0
  Ni  Ni444  1  0.51849638  0.25305238  0.66853538  1.0
  Ni  Ni445  1  0.51849638  0.58638571  0.66853538  1.0
  Ni  Ni446  1  0.51849638  0.91971904  0.66853538  1.0
  Ni  Ni447  1  0.85182971  0.25305238  0.66853538  1.0
  Ni  Ni448  1  0.85182971  0.58638571  0.66853538  1.0
  Ni  Ni449  1  0.85182971  0.91971904  0.66853537  1.0
  Ni  Ni450  1  0.29400363  0.22611429  0.64396463  1.0
  Ni  Ni451  1  0.29400363  0.55944763  0.64396463  1.0
  Ni  Ni452  1  0.29400363  0.89278096  0.64396463  1.0
  Ni  Ni453  1  0.62733696  0.22611429  0.64396463  1.0
  Ni  Ni454  1  0.62733696  0.55944763  0.64396463  1.0
  Ni  Ni455  1  0.62733696  0.89278096  0.64396463  1.0
  Ni  Ni456  1  0.96067029  0.22611429  0.64396463  1.0
  Ni  Ni457  1  0.96067029  0.55944763  0.64396463  1.0
  Ni  Ni458  1  0.96067029  0.89278096  0.64396463  1.0
  Ni  Ni459  1  0.18983696  0.12194763  0.70646462  1.0
  Ni  Ni460  1  0.18983696  0.45528096  0.70646463  1.0
  Ni  Ni461  1  0.18983696  0.78861429  0.70646462  1.0
  Ni  Ni462  1  0.52317029  0.12194763  0.70646463  1.0
  Ni  Ni463  1  0.52317029  0.45528096  0.70646463  1.0
  Ni  Ni464  1  0.52317029  0.78861429  0.70646462  1.0
  Ni  Ni465  1  0.85650363  0.12194763  0.70646462  1.0
  Ni  Ni466  1  0.85650363  0.45528096  0.70646463  1.0
  Ni  Ni467  1  0.85650363  0.78861429  0.70646462  1.0
  Ni  Ni468  1  0.00492577  0.15759910  0.70178394  1.0
  Ni  Ni469  1  0.00492577  0.49093244  0.70178394  1.0
  Ni  Ni470  1  0.00492577  0.82426577  0.70178394  1.0
  Ni  Ni471  1  0.33825910  0.15759910  0.70178394  1.0
  Ni  Ni472  1  0.33825910  0.49093244  0.70178394  1.0
  Ni  Ni473  1  0.33825910  0.82426577  0.70178394  1.0
  Ni  Ni474  1  0.67159244  0.15759910  0.70178394  1.0
  Ni  Ni475  1  0.67159244  0.49093244  0.70178394  1.0
  Ni  Ni476  1  0.67159244  0.82426577  0.70178394  1.0
  Ni  Ni477  1  0.10909244  0.26176577  0.63928394  1.0
  Ni  Ni478  1  0.10909244  0.59509910  0.63928394  1.0
  Ni  Ni479  1  0.10909244  0.92843244  0.63928394  1.0
  Ni  Ni480  1  0.44242577  0.26176577  0.63928394  1.0
  Ni  Ni481  1  0.44242577  0.59509910  0.63928394  1.0
  Ni  Ni482  1  0.44242577  0.92843244  0.63928394  1.0
  Ni  Ni483  1  0.77575910  0.26176577  0.63928394  1.0
  Ni  Ni484  1  0.77575910  0.59509910  0.63928394  1.0
  Ni  Ni485  1  0.77575910  0.92843244  0.63928394  1.0
  Ni  Ni486  1  0.25560369  0.10293035  0.64298119  1.0
  Ni  Ni487  1  0.25560369  0.43626369  0.64298119  1.0
  Ni  Ni488  1  0.25560369  0.76959702  0.64298119  1.0
  Ni  Ni489  1  0.58893702  0.10293035  0.64298119  1.0
  Ni  Ni490  1  0.58893702  0.43626369  0.64298119  1.0
  Ni  Ni491  1  0.58893702  0.76959702  0.64298119  1.0
  Ni  Ni492  1  0.92227035  0.10293035  0.64298119  1.0
  Ni  Ni493  1  0.92227035  0.43626369  0.64298119  1.0
  Ni  Ni494  1  0.92227035  0.76959702  0.64298119  1.0
  Ni  Ni495  1  0.15143702  0.33209702  0.70548119  1.0
  Ni  Ni496  1  0.15143702  0.66543035  0.70548119  1.0
  Ni  Ni497  1  0.15143702  0.99876369  0.70548119  1.0
  Ni  Ni498  1  0.48477035  0.33209702  0.70548119  1.0
  Ni  Ni499  1  0.48477035  0.66543035  0.70548119  1.0
  Ni  Ni500  1  0.48477035  0.99876369  0.70548119  1.0
  Ni  Ni501  1  0.81810369  0.33209702  0.70548119  1.0
  Ni  Ni502  1  0.81810369  0.66543035  0.70548119  1.0
  Ni  Ni503  1  0.81810369  0.99876369  0.70548119  1.0
  Ni  Ni504  1  0.11939631  0.27206965  0.73201881  1.0
  Ni  Ni505  1  0.11939631  0.60540298  0.73201881  1.0
  Ni  Ni506  1  0.11939631  0.93873631  0.73201881  1.0
  Ni  Ni507  1  0.45272965  0.27206965  0.73201881  1.0
  Ni  Ni508  1  0.45272965  0.60540298  0.73201881  1.0
  Ni  Ni509  1  0.45272965  0.93873631  0.73201881  1.0
  Ni  Ni510  1  0.78606298  0.27206965  0.73201881  1.0
  Ni  Ni511  1  0.78606298  0.60540298  0.73201881  1.0
  Ni  Ni512  1  0.78606298  0.93873631  0.73201881  1.0
  Ni  Ni513  1  0.22356298  0.04290298  0.66951881  1.0
  Ni  Ni514  1  0.22356298  0.37623631  0.66951881  1.0
  Ni  Ni515  1  0.22356298  0.70956965  0.66951881  1.0
  Ni  Ni516  1  0.55689631  0.04290298  0.66951881  1.0
  Ni  Ni517  1  0.55689631  0.37623631  0.66951881  1.0
  Ni  Ni518  1  0.55689631  0.70956965  0.66951881  1.0
  Ni  Ni519  1  0.89022965  0.04290298  0.66951881  1.0
  Ni  Ni520  1  0.89022965  0.37623631  0.66951881  1.0
  Ni  Ni521  1  0.89022965  0.70956965  0.66951881  1.0
  Ni  Ni522  1  0.03674090  0.21740090  0.67321606  1.0
  Ni  Ni523  1  0.03674090  0.55073423  0.67321606  1.0
  Ni  Ni524  1  0.03674090  0.88406756  0.67321606  1.0
  Ni  Ni525  1  0.37007423  0.21740090  0.67321606  1.0
  Ni  Ni526  1  0.37007423  0.55073423  0.67321606  1.0
  Ni  Ni527  1  0.37007423  0.88406756  0.67321606  1.0
  Ni  Ni528  1  0.70340756  0.21740090  0.67321606  1.0
  Ni  Ni529  1  0.70340756  0.55073423  0.67321606  1.0
  Ni  Ni530  1  0.70340756  0.88406756  0.67321606  1.0
  Ni  Ni531  1  0.26590756  0.11323423  0.73571606  1.0
  Ni  Ni532  1  0.26590756  0.44656756  0.73571606  1.0
  Ni  Ni533  1  0.26590756  0.77990090  0.73571606  1.0
  Ni  Ni534  1  0.59924090  0.11323423  0.73571606  1.0
  Ni  Ni535  1  0.59924090  0.44656756  0.73571606  1.0
  Ni  Ni536  1  0.59924090  0.77990090  0.73571606  1.0
  Ni  Ni537  1  0.93257423  0.11323423  0.73571606  1.0
  Ni  Ni538  1  0.93257423  0.44656756  0.73571606  1.0
  Ni  Ni539  1  0.93257423  0.77990090  0.73571606  1.0
  Sb  Sb540  1  0.03295683  0.11756483  0.95484350  1.0
  Sb  Sb541  1  0.03295683  0.45089817  0.95484350  1.0
  Sb  Sb542  1  0.03295683  0.78423150  0.95484350  1.0
  Sb  Sb543  1  0.36629017  0.11756483  0.95484350  1.0
  Sb  Sb544  1  0.36629017  0.45089817  0.95484350  1.0
  Sb  Sb545  1  0.36629017  0.78423150  0.95484350  1.0
  Sb  Sb546  1  0.69962350  0.11756483  0.95484350  1.0
  Sb  Sb547  1  0.69962350  0.45089817  0.95484350  1.0
  Sb  Sb548  1  0.69962350  0.78423150  0.95484350  1.0
  Sb  Sb549  1  0.13712350  0.22173150  0.89234350  1.0
  Sb  Sb550  1  0.13712350  0.55506483  0.89234350  1.0
  Sb  Sb551  1  0.13712350  0.88839817  0.89234350  1.0
  Sb  Sb552  1  0.47045683  0.22173150  0.89234350  1.0
  Sb  Sb553  1  0.47045683  0.55506483  0.89234350  1.0
  Sb  Sb554  1  0.47045683  0.88839817  0.89234350  1.0
  Sb  Sb555  1  0.80379017  0.22173150  0.89234350  1.0
  Sb  Sb556  1  0.80379017  0.55506483  0.89234350  1.0
  Sb  Sb557  1  0.80379017  0.88839817  0.89234350  1.0
  Sb  Sb558  1  0.17537650  0.09076850  0.92015650  1.0
  Sb  Sb559  1  0.17537650  0.42410183  0.92015650  1.0
  Sb  Sb560  1  0.17537650  0.75743517  0.92015650  1.0
  Sb  Sb561  1  0.50870983  0.09076850  0.92015650  1.0
  Sb  Sb562  1  0.50870983  0.42410183  0.92015650  1.0
  Sb  Sb563  1  0.50870983  0.75743517  0.92015650  1.0
  Sb  Sb564  1  0.84204317  0.09076850  0.92015650  1.0
  Sb  Sb565  1  0.84204317  0.42410183  0.92015650  1.0
  Sb  Sb566  1  0.84204317  0.75743517  0.92015650  1.0
  Sb  Sb567  1  0.07120983  0.31993517  0.98265650  1.0
  Sb  Sb568  1  0.07120983  0.65326850  0.98265650  1.0
  Sb  Sb569  1  0.07120983  0.98660183  0.98265650  1.0
  Sb  Sb570  1  0.40454317  0.31993517  0.98265650  1.0
  Sb  Sb571  1  0.40454317  0.65326850  0.98265650  1.0
  Sb  Sb572  1  0.40454317  0.98660183  0.98265650  1.0
  Sb  Sb573  1  0.73787650  0.31993517  0.98265650  1.0
  Sb  Sb574  1  0.73787650  0.65326850  0.98265650  1.0
  Sb  Sb575  1  0.73787650  0.98660183  0.98265650  1.0
  Sb  Sb576  1  0.31987171  0.05509038  0.88751137  1.0
  Sb  Sb577  1  0.31987171  0.38842371  0.88751138  1.0
  Sb  Sb578  1  0.31987171  0.72175704  0.88751137  1.0
  Sb  Sb579  1  0.65320504  0.05509038  0.88751137  1.0
  Sb  Sb580  1  0.65320504  0.38842371  0.88751138  1.0
  Sb  Sb581  1  0.65320504  0.72175704  0.88751138  1.0
  Sb  Sb582  1  0.98653838  0.05509038  0.88751137  1.0
  Sb  Sb583  1  0.98653838  0.38842371  0.88751138  1.0
  Sb  Sb584  1  0.98653838  0.72175704  0.88751137  1.0
  Sb  Sb585  1  0.21570504  0.28425704  0.95001137  1.0
  Sb  Sb586  1  0.21570504  0.61759038  0.95001137  1.0
  Sb  Sb587  1  0.21570504  0.95092371  0.95001137  1.0
  Sb  Sb588  1  0.54903838  0.28425704  0.95001137  1.0
  Sb  Sb589  1  0.54903838  0.61759038  0.95001137  1.0
  Sb  Sb590  1  0.54903837  0.95092371  0.95001137  1.0
  Sb  Sb591  1  0.88237171  0.28425704  0.95001137  1.0
  Sb  Sb592  1  0.88237171  0.61759038  0.95001137  1.0
  Sb  Sb593  1  0.88237171  0.95092371  0.95001137  1.0
  Sb  Sb594  1  0.22179496  0.15324296  0.98748863  1.0
  Sb  Sb595  1  0.22179496  0.48657629  0.98748863  1.0
  Sb  Sb596  1  0.22179496  0.81990962  0.98748863  1.0
  Sb  Sb597  1  0.55512829  0.15324296  0.98748863  1.0
  Sb  Sb598  1  0.55512829  0.48657629  0.98748863  1.0
  Sb  Sb599  1  0.55512829  0.81990962  0.98748863  1.0
  Sb  Sb600  1  0.88846162  0.15324296  0.98748863  1.0
  Sb  Sb601  1  0.88846163  0.48657629  0.98748863  1.0
  Sb  Sb602  1  0.88846163  0.81990962  0.98748862  1.0
  Sb  Sb603  1  0.32596163  0.25740963  0.92498863  1.0
  Sb  Sb604  1  0.32596163  0.59074296  0.92498863  1.0
  Sb  Sb605  1  0.32596162  0.92407629  0.92498863  1.0
  Sb  Sb606  1  0.65929496  0.25740963  0.92498863  1.0
  Sb  Sb607  1  0.65929496  0.59074296  0.92498863  1.0
  Sb  Sb608  1  0.65929496  0.92407629  0.92498863  1.0
  Sb  Sb609  1  0.99262829  0.25740963  0.92498863  1.0
  Sb  Sb610  1  0.99262829  0.59074296  0.92498863  1.0
  Sb  Sb611  1  0.99262829  0.92407629  0.92498863  1.0
  Sb  Sb612  1  0.24129017  0.32589817  0.82984350  1.0
  Sb  Sb613  1  0.24129017  0.65923150  0.82984350  1.0
  Sb  Sb614  1  0.24129017  0.99256483  0.82984350  1.0
  Sb  Sb615  1  0.57462350  0.32589817  0.82984350  1.0
  Sb  Sb616  1  0.57462350  0.65923150  0.82984350  1.0
  Sb  Sb617  1  0.57462350  0.99256483  0.82984350  1.0
  Sb  Sb618  1  0.90795683  0.32589817  0.82984350  1.0
  Sb  Sb619  1  0.90795683  0.65923150  0.82984350  1.0
  Sb  Sb620  1  0.90795683  0.99256483  0.82984350  1.0
  Sb  Sb621  1  0.01212350  0.09673150  0.76734350  1.0
  Sb  Sb622  1  0.01212350  0.43006483  0.76734350  1.0
  Sb  Sb623  1  0.01212350  0.76339817  0.76734350  1.0
  Sb  Sb624  1  0.34545683  0.09673150  0.76734350  1.0
  Sb  Sb625  1  0.34545683  0.43006483  0.76734350  1.0
  Sb  Sb626  1  0.34545683  0.76339817  0.76734350  1.0
  Sb  Sb627  1  0.67879017  0.09673150  0.76734350  1.0
  Sb  Sb628  1  0.67879017  0.43006483  0.76734350  1.0
  Sb  Sb629  1  0.67879017  0.76339817  0.76734350  1.0
  Sb  Sb630  1  0.05037650  0.29910183  0.79515650  1.0
  Sb  Sb631  1  0.05037650  0.63243517  0.79515650  1.0
  Sb  Sb632  1  0.05037650  0.96576850  0.79515650  1.0
  Sb  Sb633  1  0.38370983  0.29910183  0.79515650  1.0
  Sb  Sb634  1  0.38370983  0.63243517  0.79515650  1.0
  Sb  Sb635  1  0.38370983  0.96576850  0.79515650  1.0
  Sb  Sb636  1  0.71704317  0.29910183  0.79515650  1.0
  Sb  Sb637  1  0.71704317  0.63243517  0.79515650  1.0
  Sb  Sb638  1  0.71704317  0.96576850  0.79515650  1.0
  Sb  Sb639  1  0.27954317  0.19493517  0.85765650  1.0
  Sb  Sb640  1  0.27954317  0.52826850  0.85765650  1.0
  Sb  Sb641  1  0.27954317  0.86160183  0.85765650  1.0
  Sb  Sb642  1  0.61287650  0.19493517  0.85765650  1.0
  Sb  Sb643  1  0.61287650  0.52826850  0.85765650  1.0
  Sb  Sb644  1  0.61287650  0.86160183  0.85765650  1.0
  Sb  Sb645  1  0.94620983  0.19493517  0.85765650  1.0
  Sb  Sb646  1  0.94620983  0.52826850  0.85765650  1.0
  Sb  Sb647  1  0.94620983  0.86160183  0.85765650  1.0
  Sb  Sb648  1  0.19487171  0.26342371  0.76251138  1.0
  Sb  Sb649  1  0.19487171  0.59675704  0.76251138  1.0
  Sb  Sb650  1  0.19487171  0.93009038  0.76251138  1.0
  Sb  Sb651  1  0.52820504  0.26342371  0.76251138  1.0
  Sb  Sb652  1  0.52820504  0.59675704  0.76251138  1.0
  Sb  Sb653  1  0.52820504  0.93009038  0.76251138  1.0
  Sb  Sb654  1  0.86153838  0.26342371  0.76251137  1.0
  Sb  Sb655  1  0.86153838  0.59675704  0.76251138  1.0
  Sb  Sb656  1  0.86153838  0.93009038  0.76251138  1.0
  Sb  Sb657  1  0.09070504  0.15925704  0.82501137  1.0
  Sb  Sb658  1  0.09070504  0.49259038  0.82501137  1.0
  Sb  Sb659  1  0.09070504  0.82592371  0.82501137  1.0
  Sb  Sb660  1  0.42403838  0.15925704  0.82501137  1.0
  Sb  Sb661  1  0.42403838  0.49259038  0.82501137  1.0
  Sb  Sb662  1  0.42403837  0.82592371  0.82501137  1.0
  Sb  Sb663  1  0.75737171  0.15925704  0.82501137  1.0
  Sb  Sb664  1  0.75737171  0.49259038  0.82501137  1.0
  Sb  Sb665  1  0.75737171  0.82592371  0.82501137  1.0
  Sb  Sb666  1  0.09679496  0.02824296  0.86248863  1.0
  Sb  Sb667  1  0.09679496  0.36157629  0.86248863  1.0
  Sb  Sb668  1  0.09679496  0.69490962  0.86248863  1.0
  Sb  Sb669  1  0.43012829  0.02824296  0.86248863  1.0
  Sb  Sb670  1  0.43012829  0.36157629  0.86248863  1.0
  Sb  Sb671  1  0.43012829  0.69490962  0.86248863  1.0
  Sb  Sb672  1  0.76346163  0.02824296  0.86248863  1.0
  Sb  Sb673  1  0.76346163  0.36157629  0.86248863  1.0
  Sb  Sb674  1  0.76346163  0.69490962  0.86248863  1.0
  Sb  Sb675  1  0.20096163  0.13240963  0.79998863  1.0
  Sb  Sb676  1  0.20096163  0.46574296  0.79998863  1.0
  Sb  Sb677  1  0.20096163  0.79907629  0.79998863  1.0
  Sb  Sb678  1  0.53429496  0.13240963  0.79998863  1.0
  Sb  Sb679  1  0.53429496  0.46574296  0.79998863  1.0
  Sb  Sb680  1  0.53429496  0.79907629  0.79998862  1.0
  Sb  Sb681  1  0.86762829  0.13240963  0.79998863  1.0
  Sb  Sb682  1  0.86762829  0.46574296  0.79998863  1.0
  Sb  Sb683  1  0.86762829  0.79907629  0.79998863  1.0
  Sb  Sb684  1  0.11629017  0.20089817  0.70484350  1.0
  Sb  Sb685  1  0.11629017  0.53423150  0.70484350  1.0
  Sb  Sb686  1  0.11629017  0.86756483  0.70484350  1.0
  Sb  Sb687  1  0.44962350  0.20089817  0.70484350  1.0
  Sb  Sb688  1  0.44962350  0.53423150  0.70484350  1.0
  Sb  Sb689  1  0.44962350  0.86756483  0.70484350  1.0
  Sb  Sb690  1  0.78295683  0.20089817  0.70484350  1.0
  Sb  Sb691  1  0.78295683  0.53423150  0.70484350  1.0
  Sb  Sb692  1  0.78295683  0.86756483  0.70484350  1.0
  Sb  Sb693  1  0.22045683  0.30506483  0.64234350  1.0
  Sb  Sb694  1  0.22045683  0.63839817  0.64234350  1.0
  Sb  Sb695  1  0.22045683  0.97173150  0.64234350  1.0
  Sb  Sb696  1  0.55379017  0.30506483  0.64234350  1.0
  Sb  Sb697  1  0.55379017  0.63839817  0.64234350  1.0
  Sb  Sb698  1  0.55379017  0.97173150  0.64234350  1.0
  Sb  Sb699  1  0.88712350  0.30506483  0.64234350  1.0
  Sb  Sb700  1  0.88712350  0.63839817  0.64234350  1.0
  Sb  Sb701  1  0.88712350  0.97173150  0.64234350  1.0
  Sb  Sb702  1  0.25870983  0.17410183  0.67015650  1.0
  Sb  Sb703  1  0.25870983  0.50743517  0.67015650  1.0
  Sb  Sb704  1  0.25870983  0.84076850  0.67015650  1.0
  Sb  Sb705  1  0.59204317  0.17410183  0.67015650  1.0
  Sb  Sb706  1  0.59204317  0.50743517  0.67015650  1.0
  Sb  Sb707  1  0.59204317  0.84076850  0.67015650  1.0
  Sb  Sb708  1  0.92537650  0.17410183  0.67015650  1.0
  Sb  Sb709  1  0.92537650  0.50743517  0.67015650  1.0
  Sb  Sb710  1  0.92537650  0.84076850  0.67015650  1.0
  Sb  Sb711  1  0.15454317  0.06993517  0.73265650  1.0
  Sb  Sb712  1  0.15454317  0.40326850  0.73265650  1.0
  Sb  Sb713  1  0.15454317  0.73660183  0.73265650  1.0
  Sb  Sb714  1  0.48787650  0.06993517  0.73265650  1.0
  Sb  Sb715  1  0.48787650  0.40326850  0.73265650  1.0
  Sb  Sb716  1  0.48787650  0.73660183  0.73265650  1.0
  Sb  Sb717  1  0.82120983  0.06993517  0.73265650  1.0
  Sb  Sb718  1  0.82120983  0.40326850  0.73265650  1.0
  Sb  Sb719  1  0.82120983  0.73660183  0.73265650  1.0
  Sb  Sb720  1  0.06987171  0.13842371  0.63751138  1.0
  Sb  Sb721  1  0.06987171  0.47175704  0.63751138  1.0
  Sb  Sb722  1  0.06987171  0.80509038  0.63751138  1.0
  Sb  Sb723  1  0.40320504  0.13842371  0.63751138  1.0
  Sb  Sb724  1  0.40320504  0.47175704  0.63751138  1.0
  Sb  Sb725  1  0.40320504  0.80509038  0.63751138  1.0
  Sb  Sb726  1  0.73653838  0.13842371  0.63751138  1.0
  Sb  Sb727  1  0.73653838  0.47175704  0.63751138  1.0
  Sb  Sb728  1  0.73653838  0.80509038  0.63751138  1.0
  Sb  Sb729  1  0.29903838  0.03425704  0.70001138  1.0
  Sb  Sb730  1  0.29903838  0.36759038  0.70001138  1.0
  Sb  Sb731  1  0.29903838  0.70092371  0.70001137  1.0
  Sb  Sb732  1  0.63237171  0.03425704  0.70001138  1.0
  Sb  Sb733  1  0.63237171  0.36759038  0.70001138  1.0
  Sb  Sb734  1  0.63237171  0.70092371  0.70001138  1.0
  Sb  Sb735  1  0.96570504  0.03425704  0.70001138  1.0
  Sb  Sb736  1  0.96570504  0.36759038  0.70001138  1.0
  Sb  Sb737  1  0.96570504  0.70092371  0.70001137  1.0
  Sb  Sb738  1  0.30512829  0.23657629  0.73748863  1.0
  Sb  Sb739  1  0.30512829  0.56990963  0.73748863  1.0
  Sb  Sb740  1  0.30512829  0.90324296  0.73748863  1.0
  Sb  Sb741  1  0.63846163  0.23657629  0.73748863  1.0
  Sb  Sb742  1  0.63846163  0.56990963  0.73748863  1.0
  Sb  Sb743  1  0.63846163  0.90324296  0.73748863  1.0
  Sb  Sb744  1  0.97179496  0.23657629  0.73748863  1.0
  Sb  Sb745  1  0.97179496  0.56990963  0.73748863  1.0
  Sb  Sb746  1  0.97179496  0.90324296  0.73748862  1.0
  Sb  Sb747  1  0.07596163  0.00740963  0.67498863  1.0
  Sb  Sb748  1  0.07596163  0.34074296  0.67498863  1.0
  Sb  Sb749  1  0.07596163  0.67407629  0.67498863  1.0
  Sb  Sb750  1  0.40929496  0.00740963  0.67498863  1.0
  Sb  Sb751  1  0.40929496  0.34074296  0.67498863  1.0
  Sb  Sb752  1  0.40929496  0.67407629  0.67498863  1.0
  Sb  Sb753  1  0.74262829  0.00740963  0.67498863  1.0
  Sb  Sb754  1  0.74262829  0.34074296  0.67498863  1.0
  Sb  Sb755  1  0.74262829  0.67407629  0.67498863  1.0
