# generated using pymatgen
data_Ni5Sb2
_symmetry_space_group_name_H-M   'P 1'
_cell_length_a   24.56958184
_cell_length_b   31.18455905
_cell_length_c   33.05365113
_cell_angle_alpha   94.27475126
_cell_angle_beta   93.30459159
_cell_angle_gamma   107.33979196
_symmetry_Int_Tables_number   1
_chemical_formula_structural   Ni5Sb2
_chemical_formula_sum   'Ni540 Sb216'
_cell_volume   24022.25138187
_cell_formula_units_Z   108
loop_
 _symmetry_equiv_pos_site_id
 _symmetry_equiv_pos_as_xyz
  1  'x, y, z'
loop_
 _atom_site_type_symbol
 _atom_site_label
 _atom_site_symmetry_multiplicity
 _atom_site_fract_x
 _atom_site_fract_y
 _atom_site_fract_z
 _atom_site_occupancy
  Ni  Ni0  1  0.30971457  0.02952345  0.01771407  1.0
  Ni  Ni1  1  0.30971457  0.36285679  0.01771407  1.0
  Ni  Ni2  1  0.30971457  0.69619012  0.01771407  1.0
  Ni  Ni3  1  0.64304790  0.02952345  0.01771407  1.0
  Ni  Ni4  1  0.64304790  0.36285679  0.01771407  1.0
  Ni  Ni5  1  0.64304790  0.69619012  0.01771407  1.0
  Ni  Ni6  1  0.97638124  0.02952345  0.01771407  1.0
  Ni  Ni7  1  0.97638124  0.36285679  0.01771407  1.0
  Ni  Ni8  1  0.97638124  0.69619012  0.01771407  1.0
  Ni  Ni9  1  0.21447648  0.14857107  0.08914264  1.0
  Ni  Ni10  1  0.21447648  0.48190440  0.08914264  1.0
  Ni  Ni11  1  0.21447648  0.81523774  0.08914264  1.0
  Ni  Ni12  1  0.54780981  0.14857107  0.08914264  1.0
  Ni  Ni13  1  0.54780981  0.48190440  0.08914264  1.0
  Ni  Ni14  1  0.54780981  0.81523774  0.08914264  1.0
  Ni  Ni15  1  0.88114314  0.14857107  0.08914264  1.0
  Ni  Ni16  1  0.88114314  0.48190440  0.08914264  1.0
  Ni  Ni17  1  0.88114314  0.81523774  0.08914264  1.0
  Ni  Ni18  1  0.26171400  0.08952417  0.05371450  1.0
  Ni  Ni19  1  0.26171400  0.42285750  0.05371450  1.0
  Ni  Ni20  1  0.26171400  0.75619083  0.05371450  1.0
  Ni  Ni21  1  0.59504733  0.08952417  0.05371450  1.0
  Ni  Ni22  1  0.59504733  0.42285750  0.05371450  1.0
  Ni  Ni23  1  0.59504733  0.75619083  0.05371450  1.0
  Ni  Ni24  1  0.92838067  0.08952417  0.05371450  1.0
  Ni  Ni25  1  0.92838067  0.42285750  0.05371450  1.0
  Ni  Ni26  1  0.92838067  0.75619083  0.05371450  1.0
  Ni  Ni27  1  0.16647590  0.20857179  0.12514307  1.0
  Ni  Ni28  1  0.16647590  0.54190512  0.12514307  1.0
  Ni  Ni29  1  0.16647590  0.87523845  0.12514307  1.0
  Ni  Ni30  1  0.49980924  0.20857179  0.12514307  1.0
  Ni  Ni31  1  0.49980924  0.54190512  0.12514307  1.0
  Ni  Ni32  1  0.49980924  0.87523845  0.12514307  1.0
  Ni  Ni33  1  0.83314257  0.20857179  0.12514307  1.0
  Ni  Ni34  1  0.83314257  0.54190512  0.12514307  1.0
  Ni  Ni35  1  0.83314257  0.87523845  0.12514307  1.0
  Ni  Ni36  1  0.26258443  0.23592438  0.09043743  1.0
  Ni  Ni37  1  0.26258443  0.56925771  0.09043743  1.0
  Ni  Ni38  1  0.26258443  0.90259105  0.09043743  1.0
  Ni  Ni39  1  0.59591776  0.23592438  0.09043743  1.0
  Ni  Ni40  1  0.59591776  0.56925771  0.09043743  1.0
  Ni  Ni41  1  0.59591776  0.90259105  0.09043743  1.0
  Ni  Ni42  1  0.92925110  0.23592438  0.09043743  1.0
  Ni  Ni43  1  0.92925110  0.56925771  0.09043743  1.0
  Ni  Ni44  1  0.92925110  0.90259105  0.09043743  1.0
  Ni  Ni45  1  0.02448919  0.11687676  0.01900886  1.0
  Ni  Ni46  1  0.02448919  0.45021010  0.01900886  1.0
  Ni  Ni47  1  0.02448919  0.78354343  0.01900886  1.0
  Ni  Ni48  1  0.35782252  0.11687676  0.01900886  1.0
  Ni  Ni49  1  0.35782252  0.45021010  0.01900886  1.0
  Ni  Ni50  1  0.35782252  0.78354343  0.01900886  1.0
  Ni  Ni51  1  0.69115586  0.11687676  0.01900886  1.0
  Ni  Ni52  1  0.69115586  0.45021010  0.01900886  1.0
  Ni  Ni53  1  0.69115586  0.78354343  0.01900886  1.0
  Ni  Ni54  1  0.21360605  0.00217086  0.05241971  1.0
  Ni  Ni55  1  0.21360605  0.33550419  0.05241971  1.0
  Ni  Ni56  1  0.21360605  0.66883752  0.05241971  1.0
  Ni  Ni57  1  0.54693938  0.00217086  0.05241971  1.0
  Ni  Ni58  1  0.54693938  0.33550419  0.05241971  1.0
  Ni  Ni59  1  0.54693938  0.66883752  0.05241971  1.0
  Ni  Ni60  1  0.88027271  0.00217086  0.05241971  1.0
  Ni  Ni61  1  0.88027271  0.33550419  0.05241971  1.0
  Ni  Ni62  1  0.88027271  0.66883752  0.05241971  1.0
  Ni  Ni63  1  0.11836795  0.12121848  0.12384829  1.0
  Ni  Ni64  1  0.11836795  0.45455181  0.12384829  1.0
  Ni  Ni65  1  0.11836795  0.78788514  0.12384829  1.0
  Ni  Ni66  1  0.45170129  0.12121848  0.12384829  1.0
  Ni  Ni67  1  0.45170129  0.45455181  0.12384829  1.0
  Ni  Ni68  1  0.45170129  0.78788514  0.12384829  1.0
  Ni  Ni69  1  0.78503462  0.12121848  0.12384829  1.0
  Ni  Ni70  1  0.78503462  0.45455181  0.12384829  1.0
  Ni  Ni71  1  0.78503462  0.78788514  0.12384829  1.0
  Ni  Ni72  1  0.07546019  0.22136910  0.09208786  1.0
  Ni  Ni73  1  0.07546019  0.55470243  0.09208786  1.0
  Ni  Ni74  1  0.07546019  0.88803576  0.09208786  1.0
  Ni  Ni75  1  0.40879352  0.22136910  0.09208786  1.0
  Ni  Ni76  1  0.40879352  0.55470243  0.09208786  1.0
  Ni  Ni77  1  0.40879352  0.88803576  0.09208786  1.0
  Ni  Ni78  1  0.74212686  0.22136910  0.09208786  1.0
  Ni  Ni79  1  0.74212686  0.55470243  0.09208786  1.0
  Ni  Ni80  1  0.74212686  0.88803576  0.09208786  1.0
  Ni  Ni81  1  0.17069829  0.10232148  0.02065929  1.0
  Ni  Ni82  1  0.17069829  0.43565481  0.02065929  1.0
  Ni  Ni83  1  0.17069829  0.76898814  0.02065929  1.0
  Ni  Ni84  1  0.50403162  0.10232148  0.02065929  1.0
  Ni  Ni85  1  0.50403162  0.43565481  0.02065929  1.0
  Ni  Ni86  1  0.50403162  0.76898814  0.02065929  1.0
  Ni  Ni87  1  0.83736495  0.10232148  0.02065929  1.0
  Ni  Ni88  1  0.83736495  0.43565481  0.02065929  1.0
  Ni  Ni89  1  0.83736495  0.76898814  0.02065929  1.0
  Ni  Ni90  1  0.06739695  0.01672614  0.05076929  1.0
  Ni  Ni91  1  0.06739695  0.35005948  0.05076929  1.0
  Ni  Ni92  1  0.06739695  0.68339281  0.05076929  1.0
  Ni  Ni93  1  0.40073029  0.01672614  0.05076929  1.0
  Ni  Ni94  1  0.40073029  0.35005948  0.05076929  1.0
  Ni  Ni95  1  0.40073029  0.68339281  0.05076929  1.0
  Ni  Ni96  1  0.73406362  0.01672614  0.05076929  1.0
  Ni  Ni97  1  0.73406362  0.35005948  0.05076929  1.0
  Ni  Ni98  1  0.73406362  0.68339281  0.05076929  1.0
  Ni  Ni99  1  0.30549219  0.13577376  0.12219786  1.0
  Ni  Ni100  1  0.30549219  0.46910710  0.12219786  1.0
  Ni  Ni101  1  0.30549219  0.80244043  0.12219786  1.0
  Ni  Ni102  1  0.63882552  0.13577376  0.12219786  1.0
  Ni  Ni103  1  0.63882552  0.46910710  0.12219786  1.0
  Ni  Ni104  1  0.63882552  0.80244043  0.12219786  1.0
  Ni  Ni105  1  0.97215886  0.13577376  0.12219786  1.0
  Ni  Ni106  1  0.97215886  0.46910710  0.12219786  1.0
  Ni  Ni107  1  0.97215886  0.80244043  0.12219786  1.0
  Ni  Ni108  1  0.12316829  0.30763464  0.09297679  1.0
  Ni  Ni109  1  0.12316829  0.64096798  0.09297679  1.0
  Ni  Ni110  1  0.12316829  0.97430131  0.09297679  1.0
  Ni  Ni111  1  0.45650162  0.30763464  0.09297679  1.0
  Ni  Ni112  1  0.45650162  0.64096798  0.09297679  1.0
  Ni  Ni113  1  0.45650162  0.97430131  0.09297679  1.0
  Ni  Ni114  1  0.78983495  0.30763464  0.09297679  1.0
  Ni  Ni115  1  0.78983495  0.64096798  0.09297679  1.0
  Ni  Ni116  1  0.78983495  0.97430131  0.09297679  1.0
  Ni  Ni117  1  0.21840638  0.18858702  0.02154821  1.0
  Ni  Ni118  1  0.21840638  0.52192036  0.02154821  1.0
  Ni  Ni119  1  0.21840638  0.85525369  0.02154821  1.0
  Ni  Ni120  1  0.55173971  0.18858702  0.02154821  1.0
  Ni  Ni121  1  0.55173971  0.52192036  0.02154821  1.0
  Ni  Ni122  1  0.55173971  0.85525369  0.02154821  1.0
  Ni  Ni123  1  0.88507305  0.18858702  0.02154821  1.0
  Ni  Ni124  1  0.88507305  0.52192036  0.02154821  1.0
  Ni  Ni125  1  0.88507305  0.85525369  0.02154821  1.0
  Ni  Ni126  1  0.06782352  0.20362560  0.01377936  1.0
  Ni  Ni127  1  0.06782352  0.53695893  0.01377936  1.0
  Ni  Ni128  1  0.06782352  0.87029226  0.01377936  1.0
  Ni  Ni129  1  0.40115686  0.20362560  0.01377936  1.0
  Ni  Ni130  1  0.40115686  0.53695893  0.01377936  1.0
  Ni  Ni131  1  0.40115686  0.87029226  0.01377936  1.0
  Ni  Ni132  1  0.73449019  0.20362560  0.01377936  1.0
  Ni  Ni133  1  0.73449019  0.53695893  0.01377936  1.0
  Ni  Ni134  1  0.73449019  0.87029226  0.01377936  1.0
  Ni  Ni135  1  0.30591876  0.32267321  0.08520793  1.0
  Ni  Ni136  1  0.30591876  0.65600655  0.08520793  1.0
  Ni  Ni137  1  0.30591876  0.98933988  0.08520793  1.0
  Ni  Ni138  1  0.63925210  0.32267321  0.08520793  1.0
  Ni  Ni139  1  0.63925210  0.65600655  0.08520793  1.0
  Ni  Ni140  1  0.63925210  0.98933988  0.08520793  1.0
  Ni  Ni141  1  0.97258543  0.32267321  0.08520793  1.0
  Ni  Ni142  1  0.97258543  0.65600655  0.08520793  1.0
  Ni  Ni143  1  0.97258543  0.98933988  0.08520793  1.0
  Ni  Ni144  1  0.07503362  0.03446964  0.12907779  1.0
  Ni  Ni145  1  0.07503362  0.36780298  0.12907779  1.0
  Ni  Ni146  1  0.07503362  0.70113631  0.12907779  1.0
  Ni  Ni147  1  0.40836695  0.03446964  0.12907779  1.0
  Ni  Ni148  1  0.40836695  0.36780298  0.12907779  1.0
  Ni  Ni149  1  0.40836695  0.70113631  0.12907779  1.0
  Ni  Ni150  1  0.74170029  0.03446964  0.12907779  1.0
  Ni  Ni151  1  0.74170029  0.36780298  0.12907779  1.0
  Ni  Ni152  1  0.74170029  0.70113631  0.12907779  1.0
  Ni  Ni153  1  0.17027171  0.24875536  0.05764921  1.0
  Ni  Ni154  1  0.17027171  0.58208869  0.05764921  1.0
  Ni  Ni155  1  0.17027171  0.91542202  0.05764921  1.0
  Ni  Ni156  1  0.50360505  0.24875536  0.05764921  1.0
  Ni  Ni157  1  0.50360505  0.58208869  0.05764921  1.0
  Ni  Ni158  1  0.50360505  0.91542202  0.05764921  1.0
  Ni  Ni159  1  0.83693838  0.24875536  0.05764921  1.0
  Ni  Ni160  1  0.83693838  0.58208869  0.05764921  1.0
  Ni  Ni161  1  0.83693838  0.91542202  0.05764921  1.0
  Ni  Ni162  1  0.01968886  0.26379393  0.04988036  1.0
  Ni  Ni163  1  0.01968886  0.59712726  0.04988036  1.0
  Ni  Ni164  1  0.01968886  0.93046060  0.04988036  1.0
  Ni  Ni165  1  0.35302219  0.26379393  0.04988036  1.0
  Ni  Ni166  1  0.35302219  0.59712726  0.04988036  1.0
  Ni  Ni167  1  0.35302219  0.93046060  0.04988036  1.0
  Ni  Ni168  1  0.68635552  0.26379393  0.04988036  1.0
  Ni  Ni169  1  0.68635552  0.59712726  0.04988036  1.0
  Ni  Ni170  1  0.68635552  0.93046060  0.04988036  1.0
  Ni  Ni171  1  0.25778410  0.04950821  0.12130893  1.0
  Ni  Ni172  1  0.25778410  0.38284155  0.12130893  1.0
  Ni  Ni173  1  0.25778410  0.71617488  0.12130893  1.0
  Ni  Ni174  1  0.59111743  0.04950821  0.12130893  1.0
  Ni  Ni175  1  0.59111743  0.38284155  0.12130893  1.0
  Ni  Ni176  1  0.59111743  0.71617488  0.12130893  1.0
  Ni  Ni177  1  0.92445076  0.04950821  0.12130893  1.0
  Ni  Ni178  1  0.92445076  0.38284155  0.12130893  1.0
  Ni  Ni179  1  0.92445076  0.71617488  0.12130893  1.0
  Ni  Ni180  1  0.11923838  0.26761869  0.16057121  1.0
  Ni  Ni181  1  0.11923838  0.60095202  0.16057121  1.0
  Ni  Ni182  1  0.11923838  0.93428536  0.16057121  1.0
  Ni  Ni183  1  0.45257171  0.26761869  0.16057121  1.0
  Ni  Ni184  1  0.45257171  0.60095202  0.16057121  1.0
  Ni  Ni185  1  0.45257171  0.93428536  0.16057121  1.0
  Ni  Ni186  1  0.78590505  0.26761869  0.16057121  1.0
  Ni  Ni187  1  0.78590505  0.60095202  0.16057121  1.0
  Ni  Ni188  1  0.78590505  0.93428536  0.16057121  1.0
  Ni  Ni189  1  0.02400029  0.05333298  0.23199979  1.0
  Ni  Ni190  1  0.02400029  0.38666631  0.23199979  1.0
  Ni  Ni191  1  0.02400029  0.71999964  0.23199979  1.0
  Ni  Ni192  1  0.35733362  0.05333298  0.23199979  1.0
  Ni  Ni193  1  0.35733362  0.38666631  0.23199979  1.0
  Ni  Ni194  1  0.35733362  0.71999964  0.23199979  1.0
  Ni  Ni195  1  0.69066695  0.05333298  0.23199979  1.0
  Ni  Ni196  1  0.69066695  0.38666631  0.23199979  1.0
  Ni  Ni197  1  0.69066695  0.71999964  0.23199979  1.0
  Ni  Ni198  1  0.07123781  0.32761940  0.19657164  1.0
  Ni  Ni199  1  0.07123781  0.66095274  0.19657164  1.0
  Ni  Ni200  1  0.07123781  0.99428607  0.19657164  1.0
  Ni  Ni201  1  0.40457114  0.32761940  0.19657164  1.0
  Ni  Ni202  1  0.40457114  0.66095274  0.19657164  1.0
  Ni  Ni203  1  0.40457114  0.99428607  0.19657164  1.0
  Ni  Ni204  1  0.73790448  0.32761940  0.19657164  1.0
  Ni  Ni205  1  0.73790448  0.66095274  0.19657164  1.0
  Ni  Ni206  1  0.73790448  0.99428607  0.19657164  1.0
  Ni  Ni207  1  0.30933305  0.11333369  0.26800021  1.0
  Ni  Ni208  1  0.30933305  0.44666702  0.26800021  1.0
  Ni  Ni209  1  0.30933305  0.78000036  0.26800021  1.0
  Ni  Ni210  1  0.64266638  0.11333369  0.26800021  1.0
  Ni  Ni211  1  0.64266638  0.44666702  0.26800021  1.0
  Ni  Ni212  1  0.64266638  0.78000036  0.26800021  1.0
  Ni  Ni213  1  0.97599971  0.11333369  0.26800021  1.0
  Ni  Ni214  1  0.97599971  0.44666702  0.26800021  1.0
  Ni  Ni215  1  0.97599971  0.78000036  0.26800021  1.0
  Ni  Ni216  1  0.07210824  0.14068629  0.23329457  1.0
  Ni  Ni217  1  0.07210824  0.47401962  0.23329457  1.0
  Ni  Ni218  1  0.07210824  0.80735295  0.23329457  1.0
  Ni  Ni219  1  0.40544157  0.14068629  0.23329457  1.0
  Ni  Ni220  1  0.40544157  0.47401962  0.23329457  1.0
  Ni  Ni221  1  0.40544157  0.80735295  0.23329457  1.0
  Ni  Ni222  1  0.73877490  0.14068629  0.23329457  1.0
  Ni  Ni223  1  0.73877490  0.47401962  0.23329457  1.0
  Ni  Ni224  1  0.73877490  0.80735295  0.23329457  1.0
  Ni  Ni225  1  0.16734633  0.02163867  0.16186600  1.0
  Ni  Ni226  1  0.16734633  0.35497200  0.16186600  1.0
  Ni  Ni227  1  0.16734633  0.68830533  0.16186600  1.0
  Ni  Ni228  1  0.50067967  0.02163867  0.16186600  1.0
  Ni  Ni229  1  0.50067967  0.35497200  0.16186600  1.0
  Ni  Ni230  1  0.50067967  0.68830533  0.16186600  1.0
  Ni  Ni231  1  0.83401300  0.02163867  0.16186600  1.0
  Ni  Ni232  1  0.83401300  0.35497200  0.16186600  1.0
  Ni  Ni233  1  0.83401300  0.68830533  0.16186600  1.0
  Ni  Ni234  1  0.02312986  0.24026610  0.19527686  1.0
  Ni  Ni235  1  0.02312986  0.57359943  0.19527686  1.0
  Ni  Ni236  1  0.02312986  0.90693276  0.19527686  1.0
  Ni  Ni237  1  0.35646319  0.24026610  0.19527686  1.0
  Ni  Ni238  1  0.35646319  0.57359943  0.19527686  1.0
  Ni  Ni239  1  0.35646319  0.90693276  0.19527686  1.0
  Ni  Ni240  1  0.68979652  0.24026610  0.19527686  1.0
  Ni  Ni241  1  0.68979652  0.57359943  0.19527686  1.0
  Ni  Ni242  1  0.68979652  0.90693276  0.19527686  1.0
  Ni  Ni243  1  0.26122510  0.02598038  0.26670543  1.0
  Ni  Ni244  1  0.26122510  0.35931371  0.26670543  1.0
  Ni  Ni245  1  0.26122510  0.69264705  0.26670543  1.0
  Ni  Ni246  1  0.59455843  0.02598038  0.26670543  1.0
  Ni  Ni247  1  0.59455843  0.35931371  0.26670543  1.0
  Ni  Ni248  1  0.59455843  0.69264705  0.26670543  1.0
  Ni  Ni249  1  0.92789176  0.02598038  0.26670543  1.0
  Ni  Ni250  1  0.92789176  0.35931371  0.26670543  1.0
  Ni  Ni251  1  0.92789176  0.69264705  0.26670543  1.0
  Ni  Ni252  1  0.21831733  0.12613100  0.23494500  1.0
  Ni  Ni253  1  0.21831733  0.45946433  0.23494500  1.0
  Ni  Ni254  1  0.21831733  0.79279767  0.23494500  1.0
  Ni  Ni255  1  0.55165067  0.12613100  0.23494500  1.0
  Ni  Ni256  1  0.55165067  0.45946433  0.23494500  1.0
  Ni  Ni257  1  0.55165067  0.79279767  0.23494500  1.0
  Ni  Ni258  1  0.88498400  0.12613100  0.23494500  1.0
  Ni  Ni259  1  0.88498400  0.45946433  0.23494500  1.0
  Ni  Ni260  1  0.88498400  0.79279767  0.23494500  1.0
  Ni  Ni261  1  0.31355543  0.00708338  0.16351643  1.0
  Ni  Ni262  1  0.31355543  0.34041671  0.16351643  1.0
  Ni  Ni263  1  0.31355543  0.67375005  0.16351643  1.0
  Ni  Ni264  1  0.64688876  0.00708338  0.16351643  1.0
  Ni  Ni265  1  0.64688876  0.34041671  0.16351643  1.0
  Ni  Ni266  1  0.64688876  0.67375005  0.16351643  1.0
  Ni  Ni267  1  0.98022210  0.00708338  0.16351643  1.0
  Ni  Ni268  1  0.98022210  0.34041671  0.16351643  1.0
  Ni  Ni269  1  0.98022210  0.67375005  0.16351643  1.0
  Ni  Ni270  1  0.21025410  0.25482138  0.19362643  1.0
  Ni  Ni271  1  0.21025410  0.58815471  0.19362643  1.0
  Ni  Ni272  1  0.21025410  0.92148805  0.19362643  1.0
  Ni  Ni273  1  0.54358743  0.25482138  0.19362643  1.0
  Ni  Ni274  1  0.54358743  0.58815471  0.19362643  1.0
  Ni  Ni275  1  0.54358743  0.92148805  0.19362643  1.0
  Ni  Ni276  1  0.87692076  0.25482138  0.19362643  1.0
  Ni  Ni277  1  0.87692076  0.58815471  0.19362643  1.0
  Ni  Ni278  1  0.87692076  0.92148805  0.19362643  1.0
  Ni  Ni279  1  0.11501600  0.04053567  0.26505500  1.0
  Ni  Ni280  1  0.11501600  0.37386900  0.26505500  1.0
  Ni  Ni281  1  0.11501600  0.70720233  0.26505500  1.0
  Ni  Ni282  1  0.44834933  0.04053567  0.26505500  1.0
  Ni  Ni283  1  0.44834933  0.37386900  0.26505500  1.0
  Ni  Ni284  1  0.44834933  0.70720233  0.26505500  1.0
  Ni  Ni285  1  0.78168267  0.04053567  0.26505500  1.0
  Ni  Ni286  1  0.78168267  0.37386900  0.26505500  1.0
  Ni  Ni287  1  0.78168267  0.70720233  0.26505500  1.0
  Ni  Ni288  1  0.26602543  0.21239655  0.23583393  1.0
  Ni  Ni289  1  0.26602543  0.54572988  0.23583393  1.0
  Ni  Ni290  1  0.26602543  0.87906321  0.23583393  1.0
  Ni  Ni291  1  0.59935876  0.21239655  0.23583393  1.0
  Ni  Ni292  1  0.59935876  0.54572988  0.23583393  1.0
  Ni  Ni293  1  0.59935876  0.87906321  0.23583393  1.0
  Ni  Ni294  1  0.93269210  0.21239655  0.23583393  1.0
  Ni  Ni295  1  0.93269210  0.54572988  0.23583393  1.0
  Ni  Ni296  1  0.93269210  0.87906321  0.23583393  1.0
  Ni  Ni297  1  0.02793019  0.09334893  0.16440536  1.0
  Ni  Ni298  1  0.02793019  0.42668226  0.16440536  1.0
  Ni  Ni299  1  0.02793019  0.76001560  0.16440536  1.0
  Ni  Ni300  1  0.36126352  0.09334893  0.16440536  1.0
  Ni  Ni301  1  0.36126352  0.42668226  0.16440536  1.0
  Ni  Ni302  1  0.36126352  0.76001560  0.16440536  1.0
  Ni  Ni303  1  0.69459686  0.09334893  0.16440536  1.0
  Ni  Ni304  1  0.69459686  0.42668226  0.16440536  1.0
  Ni  Ni305  1  0.69459686  0.76001560  0.16440536  1.0
  Ni  Ni306  1  0.21068067  0.10838750  0.15663650  1.0
  Ni  Ni307  1  0.21068067  0.44172083  0.15663650  1.0
  Ni  Ni308  1  0.21068067  0.77505417  0.15663650  1.0
  Ni  Ni309  1  0.54401400  0.10838750  0.15663650  1.0
  Ni  Ni310  1  0.54401400  0.44172083  0.15663650  1.0
  Ni  Ni311  1  0.54401400  0.77505417  0.15663650  1.0
  Ni  Ni312  1  0.87734733  0.10838750  0.15663650  1.0
  Ni  Ni313  1  0.87734733  0.44172083  0.15663650  1.0
  Ni  Ni314  1  0.87734733  0.77505417  0.15663650  1.0
  Ni  Ni315  1  0.11544257  0.22743512  0.22806507  1.0
  Ni  Ni316  1  0.11544257  0.56076845  0.22806507  1.0
  Ni  Ni317  1  0.11544257  0.89410179  0.22806507  1.0
  Ni  Ni318  1  0.44877590  0.22743512  0.22806507  1.0
  Ni  Ni319  1  0.44877590  0.56076845  0.22806507  1.0
  Ni  Ni320  1  0.44877590  0.89410179  0.22806507  1.0
  Ni  Ni321  1  0.78210924  0.22743512  0.22806507  1.0
  Ni  Ni322  1  0.78210924  0.56076845  0.22806507  1.0
  Ni  Ni323  1  0.78210924  0.89410179  0.22806507  1.0
  Ni  Ni324  1  0.21789076  0.27256488  0.27193493  1.0
  Ni  Ni325  1  0.21789076  0.60589821  0.27193493  1.0
  Ni  Ni326  1  0.21789076  0.93923155  0.27193493  1.0
  Ni  Ni327  1  0.55122410  0.27256488  0.27193493  1.0
  Ni  Ni328  1  0.55122410  0.60589821  0.27193493  1.0
  Ni  Ni329  1  0.55122410  0.93923155  0.27193493  1.0
  Ni  Ni330  1  0.88455743  0.27256488  0.27193493  1.0
  Ni  Ni331  1  0.88455743  0.60589821  0.27193493  1.0
  Ni  Ni332  1  0.88455743  0.93923155  0.27193493  1.0
  Ni  Ni333  1  0.31312886  0.15351726  0.20050636  1.0
  Ni  Ni334  1  0.31312886  0.48685060  0.20050636  1.0
  Ni  Ni335  1  0.31312886  0.82018393  0.20050636  1.0
  Ni  Ni336  1  0.64646219  0.15351726  0.20050636  1.0
  Ni  Ni337  1  0.64646219  0.48685060  0.20050636  1.0
  Ni  Ni338  1  0.64646219  0.82018393  0.20050636  1.0
  Ni  Ni339  1  0.97979552  0.15351726  0.20050636  1.0
  Ni  Ni340  1  0.97979552  0.48685060  0.20050636  1.0
  Ni  Ni341  1  0.97979552  0.82018393  0.20050636  1.0
  Ni  Ni342  1  0.16254600  0.16855583  0.19273750  1.0
  Ni  Ni343  1  0.16254600  0.50188917  0.19273750  1.0
  Ni  Ni344  1  0.16254600  0.83522250  0.19273750  1.0
  Ni  Ni345  1  0.49587933  0.16855583  0.19273750  1.0
  Ni  Ni346  1  0.49587933  0.50188917  0.19273750  1.0
  Ni  Ni347  1  0.49587933  0.83522250  0.19273750  1.0
  Ni  Ni348  1  0.82921267  0.16855583  0.19273750  1.0
  Ni  Ni349  1  0.82921267  0.50188917  0.19273750  1.0
  Ni  Ni350  1  0.82921267  0.83522250  0.19273750  1.0
  Ni  Ni351  1  0.06730790  0.28760345  0.26416607  1.0
  Ni  Ni352  1  0.06730790  0.62093679  0.26416607  1.0
  Ni  Ni353  1  0.06730790  0.95427012  0.26416607  1.0
  Ni  Ni354  1  0.40064124  0.28760345  0.26416607  1.0
  Ni  Ni355  1  0.40064124  0.62093679  0.26416607  1.0
  Ni  Ni356  1  0.40064124  0.95427012  0.26416607  1.0
  Ni  Ni357  1  0.73397457  0.28760345  0.26416607  1.0
  Ni  Ni358  1  0.73397457  0.62093679  0.26416607  1.0
  Ni  Ni359  1  0.73397457  0.95427012  0.26416607  1.0
  Ni  Ni360  1  0.26209552  0.17238060  0.30342836  1.0
  Ni  Ni361  1  0.26209552  0.50571393  0.30342836  1.0
  Ni  Ni362  1  0.26209552  0.83904726  0.30342836  1.0
  Ni  Ni363  1  0.59542886  0.17238060  0.30342836  1.0
  Ni  Ni364  1  0.59542886  0.50571393  0.30342836  1.0
  Ni  Ni365  1  0.59542886  0.83904726  0.30342836  1.0
  Ni  Ni366  1  0.92876219  0.17238060  0.30342836  1.0
  Ni  Ni367  1  0.92876219  0.50571393  0.30342836  1.0
  Ni  Ni368  1  0.92876219  0.83904726  0.30342836  1.0
  Ni  Ni369  1  0.16685743  0.29142821  0.37485693  1.0
  Ni  Ni370  1  0.16685743  0.62476155  0.37485693  1.0
  Ni  Ni371  1  0.16685743  0.95809488  0.37485693  1.0
  Ni  Ni372  1  0.50019076  0.29142821  0.37485693  1.0
  Ni  Ni373  1  0.50019076  0.62476155  0.37485693  1.0
  Ni  Ni374  1  0.50019076  0.95809488  0.37485693  1.0
  Ni  Ni375  1  0.83352410  0.29142821  0.37485693  1.0
  Ni  Ni376  1  0.83352410  0.62476155  0.37485693  1.0
  Ni  Ni377  1  0.83352410  0.95809488  0.37485693  1.0
  Ni  Ni378  1  0.21409495  0.23238131  0.33942879  1.0
  Ni  Ni379  1  0.21409495  0.56571464  0.33942879  1.0
  Ni  Ni380  1  0.21409495  0.89904798  0.33942879  1.0
  Ni  Ni381  1  0.54742829  0.23238131  0.33942879  1.0
  Ni  Ni382  1  0.54742829  0.56571464  0.33942879  1.0
  Ni  Ni383  1  0.54742829  0.89904798  0.33942879  1.0
  Ni  Ni384  1  0.88076162  0.23238131  0.33942879  1.0
  Ni  Ni385  1  0.88076162  0.56571464  0.33942879  1.0
  Ni  Ni386  1  0.88076162  0.89904798  0.33942879  1.0
  Ni  Ni387  1  0.11885686  0.01809560  0.41085736  1.0
  Ni  Ni388  1  0.11885686  0.35142893  0.41085736  1.0
  Ni  Ni389  1  0.11885686  0.68476226  0.41085736  1.0
  Ni  Ni390  1  0.45219019  0.01809560  0.41085736  1.0
  Ni  Ni391  1  0.45219019  0.35142893  0.41085736  1.0
  Ni  Ni392  1  0.45219019  0.68476226  0.41085736  1.0
  Ni  Ni393  1  0.78552352  0.01809560  0.41085736  1.0
  Ni  Ni394  1  0.78552352  0.35142893  0.41085736  1.0
  Ni  Ni395  1  0.78552352  0.68476226  0.41085736  1.0
  Ni  Ni396  1  0.21496538  0.04544819  0.37615171  1.0
  Ni  Ni397  1  0.21496538  0.37878152  0.37615171  1.0
  Ni  Ni398  1  0.21496538  0.71211486  0.37615171  1.0
  Ni  Ni399  1  0.54829871  0.04544819  0.37615171  1.0
  Ni  Ni400  1  0.54829871  0.37878152  0.37615171  1.0
  Ni  Ni401  1  0.54829871  0.71211486  0.37615171  1.0
  Ni  Ni402  1  0.88163205  0.04544819  0.37615171  1.0
  Ni  Ni403  1  0.88163205  0.37878152  0.37615171  1.0
  Ni  Ni404  1  0.88163205  0.71211486  0.37615171  1.0
  Ni  Ni405  1  0.31020348  0.25973390  0.30472314  1.0
  Ni  Ni406  1  0.31020348  0.59306724  0.30472314  1.0
  Ni  Ni407  1  0.31020348  0.92640057  0.30472314  1.0
  Ni  Ni408  1  0.64353681  0.25973390  0.30472314  1.0
  Ni  Ni409  1  0.64353681  0.59306724  0.30472314  1.0
  Ni  Ni410  1  0.64353681  0.92640057  0.30472314  1.0
  Ni  Ni411  1  0.97687014  0.25973390  0.30472314  1.0
  Ni  Ni412  1  0.97687014  0.59306724  0.30472314  1.0
  Ni  Ni413  1  0.97687014  0.92640057  0.30472314  1.0
  Ni  Ni414  1  0.16598700  0.14502800  0.33813400  1.0
  Ni  Ni415  1  0.16598700  0.47836133  0.33813400  1.0
  Ni  Ni416  1  0.16598700  0.81169467  0.33813400  1.0
  Ni  Ni417  1  0.49932033  0.14502800  0.33813400  1.0
  Ni  Ni418  1  0.49932033  0.47836133  0.33813400  1.0
  Ni  Ni419  1  0.49932033  0.81169467  0.33813400  1.0
  Ni  Ni420  1  0.83265367  0.14502800  0.33813400  1.0
  Ni  Ni421  1  0.83265367  0.47836133  0.33813400  1.0
  Ni  Ni422  1  0.83265367  0.81169467  0.33813400  1.0
  Ni  Ni423  1  0.07074890  0.26407562  0.40956257  1.0
  Ni  Ni424  1  0.07074890  0.59740895  0.40956257  1.0
  Ni  Ni425  1  0.07074890  0.93074229  0.40956257  1.0
  Ni  Ni426  1  0.40408224  0.26407562  0.40956257  1.0
  Ni  Ni427  1  0.40408224  0.59740895  0.40956257  1.0
  Ni  Ni428  1  0.40408224  0.93074229  0.40956257  1.0
  Ni  Ni429  1  0.73741557  0.26407562  0.40956257  1.0
  Ni  Ni430  1  0.73741557  0.59740895  0.40956257  1.0
  Ni  Ni431  1  0.73741557  0.93074229  0.40956257  1.0
  Ni  Ni432  1  0.02784114  0.03089290  0.37780214  1.0
  Ni  Ni433  1  0.02784114  0.36422624  0.37780214  1.0
  Ni  Ni434  1  0.02784114  0.69755957  0.37780214  1.0
  Ni  Ni435  1  0.36117448  0.03089290  0.37780214  1.0
  Ni  Ni436  1  0.36117448  0.36422624  0.37780214  1.0
  Ni  Ni437  1  0.36117448  0.69755957  0.37780214  1.0
  Ni  Ni438  1  0.69450781  0.03089290  0.37780214  1.0
  Ni  Ni439  1  0.69450781  0.36422624  0.37780214  1.0
  Ni  Ni440  1  0.69450781  0.69755957  0.37780214  1.0
  Ni  Ni441  1  0.12307924  0.24517862  0.30637357  1.0
  Ni  Ni442  1  0.12307924  0.57851195  0.30637357  1.0
  Ni  Ni443  1  0.12307924  0.91184529  0.30637357  1.0
  Ni  Ni444  1  0.45641257  0.24517862  0.30637357  1.0
  Ni  Ni445  1  0.45641257  0.57851195  0.30637357  1.0
  Ni  Ni446  1  0.45641257  0.91184529  0.30637357  1.0
  Ni  Ni447  1  0.78974590  0.24517862  0.30637357  1.0
  Ni  Ni448  1  0.78974590  0.57851195  0.30637357  1.0
  Ni  Ni449  1  0.78974590  0.91184529  0.30637357  1.0
  Ni  Ni450  1  0.01977790  0.15958329  0.33648357  1.0
  Ni  Ni451  1  0.01977790  0.49291662  0.33648357  1.0
  Ni  Ni452  1  0.01977790  0.82624995  0.33648357  1.0
  Ni  Ni453  1  0.35311124  0.15958329  0.33648357  1.0
  Ni  Ni454  1  0.35311124  0.49291662  0.33648357  1.0
  Ni  Ni455  1  0.35311124  0.82624995  0.33648357  1.0
  Ni  Ni456  1  0.68644457  0.15958329  0.33648357  1.0
  Ni  Ni457  1  0.68644457  0.49291662  0.33648357  1.0
  Ni  Ni458  1  0.68644457  0.82624995  0.33648357  1.0
  Ni  Ni459  1  0.25787314  0.27863090  0.40791214  1.0
  Ni  Ni460  1  0.25787314  0.61196424  0.40791214  1.0
  Ni  Ni461  1  0.25787314  0.94529757  0.40791214  1.0
  Ni  Ni462  1  0.59120648  0.27863090  0.40791214  1.0
  Ni  Ni463  1  0.59120648  0.61196424  0.40791214  1.0
  Ni  Ni464  1  0.59120648  0.94529757  0.40791214  1.0
  Ni  Ni465  1  0.92453981  0.27863090  0.40791214  1.0
  Ni  Ni466  1  0.92453981  0.61196424  0.40791214  1.0
  Ni  Ni467  1  0.92453981  0.94529757  0.40791214  1.0
  Ni  Ni468  1  0.07554924  0.11715845  0.37869107  1.0
  Ni  Ni469  1  0.07554924  0.45049179  0.37869107  1.0
  Ni  Ni470  1  0.07554924  0.78382512  0.37869107  1.0
  Ni  Ni471  1  0.40888257  0.11715845  0.37869107  1.0
  Ni  Ni472  1  0.40888257  0.45049179  0.37869107  1.0
  Ni  Ni473  1  0.40888257  0.78382512  0.37869107  1.0
  Ni  Ni474  1  0.74221590  0.11715845  0.37869107  1.0
  Ni  Ni475  1  0.74221590  0.45049179  0.37869107  1.0
  Ni  Ni476  1  0.74221590  0.78382512  0.37869107  1.0
  Ni  Ni477  1  0.17078733  0.33144417  0.30726250  1.0
  Ni  Ni478  1  0.17078733  0.66477750  0.30726250  1.0
  Ni  Ni479  1  0.17078733  0.99811083  0.30726250  1.0
  Ni  Ni480  1  0.50412067  0.33144417  0.30726250  1.0
  Ni  Ni481  1  0.50412067  0.66477750  0.30726250  1.0
  Ni  Ni482  1  0.50412067  0.99811083  0.30726250  1.0
  Ni  Ni483  1  0.83745400  0.33144417  0.30726250  1.0
  Ni  Ni484  1  0.83745400  0.66477750  0.30726250  1.0
  Ni  Ni485  1  0.83745400  0.99811083  0.30726250  1.0
  Ni  Ni486  1  0.02020448  0.01314940  0.29949364  1.0
  Ni  Ni487  1  0.02020448  0.34648274  0.29949364  1.0
  Ni  Ni488  1  0.02020448  0.67981607  0.29949364  1.0
  Ni  Ni489  1  0.35353781  0.01314940  0.29949364  1.0
  Ni  Ni490  1  0.35353781  0.34648274  0.29949364  1.0
  Ni  Ni491  1  0.35353781  0.67981607  0.29949364  1.0
  Ni  Ni492  1  0.68687114  0.01314940  0.29949364  1.0
  Ni  Ni493  1  0.68687114  0.34648274  0.29949364  1.0
  Ni  Ni494  1  0.68687114  0.67981607  0.29949364  1.0
  Ni  Ni495  1  0.25829971  0.13219702  0.37092221  1.0
  Ni  Ni496  1  0.25829971  0.46553036  0.37092221  1.0
  Ni  Ni497  1  0.25829971  0.79886369  0.37092221  1.0
  Ni  Ni498  1  0.59163305  0.13219702  0.37092221  1.0
  Ni  Ni499  1  0.59163305  0.46553036  0.37092221  1.0
  Ni  Ni500  1  0.59163305  0.79886369  0.37092221  1.0
  Ni  Ni501  1  0.92496638  0.13219702  0.37092221  1.0
  Ni  Ni502  1  0.92496638  0.46553036  0.37092221  1.0
  Ni  Ni503  1  0.92496638  0.79886369  0.37092221  1.0
  Ni  Ni504  1  0.02741457  0.17732679  0.41479207  1.0
  Ni  Ni505  1  0.02741457  0.51066012  0.41479207  1.0
  Ni  Ni506  1  0.02741457  0.84399345  0.41479207  1.0
  Ni  Ni507  1  0.36074790  0.17732679  0.41479207  1.0
  Ni  Ni508  1  0.36074790  0.51066012  0.41479207  1.0
  Ni  Ni509  1  0.36074790  0.84399345  0.41479207  1.0
  Ni  Ni510  1  0.69408124  0.17732679  0.41479207  1.0
  Ni  Ni511  1  0.69408124  0.51066012  0.41479207  1.0
  Ni  Ni512  1  0.69408124  0.84399345  0.41479207  1.0
  Ni  Ni513  1  0.12265267  0.05827917  0.34336350  1.0
  Ni  Ni514  1  0.12265267  0.39161250  0.34336350  1.0
  Ni  Ni515  1  0.12265267  0.72494583  0.34336350  1.0
  Ni  Ni516  1  0.45598600  0.05827917  0.34336350  1.0
  Ni  Ni517  1  0.45598600  0.39161250  0.34336350  1.0
  Ni  Ni518  1  0.45598600  0.72494583  0.34336350  1.0
  Ni  Ni519  1  0.78931933  0.05827917  0.34336350  1.0
  Ni  Ni520  1  0.78931933  0.39161250  0.34336350  1.0
  Ni  Ni521  1  0.78931933  0.72494583  0.34336350  1.0
  Ni  Ni522  1  0.30540314  0.07331774  0.33559464  1.0
  Ni  Ni523  1  0.30540314  0.40665107  0.33559464  1.0
  Ni  Ni524  1  0.30540314  0.73998440  0.33559464  1.0
  Ni  Ni525  1  0.63873648  0.07331774  0.33559464  1.0
  Ni  Ni526  1  0.63873648  0.40665107  0.33559464  1.0
  Ni  Ni527  1  0.63873648  0.73998440  0.33559464  1.0
  Ni  Ni528  1  0.97206981  0.07331774  0.33559464  1.0
  Ni  Ni529  1  0.97206981  0.40665107  0.33559464  1.0
  Ni  Ni530  1  0.97206981  0.73998440  0.33559464  1.0
  Ni  Ni531  1  0.21016505  0.19236536  0.40702321  1.0
  Ni  Ni532  1  0.21016505  0.52569869  0.40702321  1.0
  Ni  Ni533  1  0.21016505  0.85903202  0.40702321  1.0
  Ni  Ni534  1  0.54349838  0.19236536  0.40702321  1.0
  Ni  Ni535  1  0.54349838  0.52569869  0.40702321  1.0
  Ni  Ni536  1  0.54349838  0.85903202  0.40702321  1.0
  Ni  Ni537  1  0.87683171  0.19236536  0.40702321  1.0
  Ni  Ni538  1  0.87683171  0.52569869  0.40702321  1.0
  Ni  Ni539  1  0.87683171  0.85903202  0.40702321  1.0
  Sb  Sb540  1  0.31020914  0.17625657  0.05498914  1.0
  Sb  Sb541  1  0.31020914  0.50958990  0.05498914  1.0
  Sb  Sb542  1  0.31020914  0.84292324  0.05498914  1.0
  Sb  Sb543  1  0.64354248  0.17625657  0.05498914  1.0
  Sb  Sb544  1  0.64354248  0.50958990  0.05498914  1.0
  Sb  Sb545  1  0.64354248  0.84292324  0.05498914  1.0
  Sb  Sb546  1  0.97687581  0.17625657  0.05498914  1.0
  Sb  Sb547  1  0.97687581  0.50958990  0.05498914  1.0
  Sb  Sb548  1  0.97687581  0.84292324  0.05498914  1.0
  Sb  Sb549  1  0.21497105  0.29530419  0.12641771  1.0
  Sb  Sb550  1  0.21497105  0.62863752  0.12641771  1.0
  Sb  Sb551  1  0.21497105  0.96197086  0.12641771  1.0
  Sb  Sb552  1  0.54830438  0.29530419  0.12641771  1.0
  Sb  Sb553  1  0.54830438  0.62863752  0.12641771  1.0
  Sb  Sb554  1  0.54830438  0.96197086  0.12641771  1.0
  Sb  Sb555  1  0.88163771  0.29530419  0.12641771  1.0
  Sb  Sb556  1  0.88163771  0.62863752  0.12641771  1.0
  Sb  Sb557  1  0.88163771  0.96197086  0.12641771  1.0
  Sb  Sb558  1  0.16598133  0.06183867  0.08786800  1.0
  Sb  Sb559  1  0.16598133  0.39517200  0.08786800  1.0
  Sb  Sb560  1  0.16598133  0.72850533  0.08786800  1.0
  Sb  Sb561  1  0.49931467  0.06183867  0.08786800  1.0
  Sb  Sb562  1  0.49931467  0.39517200  0.08786800  1.0
  Sb  Sb563  1  0.49931467  0.72850533  0.08786800  1.0
  Sb  Sb564  1  0.83264800  0.06183867  0.08786800  1.0
  Sb  Sb565  1  0.83264800  0.39517200  0.08786800  1.0
  Sb  Sb566  1  0.83264800  0.72850533  0.08786800  1.0
  Sb  Sb567  1  0.26121943  0.27612438  0.01643943  1.0
  Sb  Sb568  1  0.26121943  0.60945771  0.01643943  1.0
  Sb  Sb569  1  0.26121943  0.94279105  0.01643943  1.0
  Sb  Sb570  1  0.59455276  0.27612438  0.01643943  1.0
  Sb  Sb571  1  0.59455276  0.60945771  0.01643943  1.0
  Sb  Sb572  1  0.59455276  0.94279105  0.01643943  1.0
  Sb  Sb573  1  0.92788610  0.27612438  0.01643943  1.0
  Sb  Sb574  1  0.92788610  0.60945771  0.01643943  1.0
  Sb  Sb575  1  0.92788610  0.94279105  0.01643943  1.0
  Sb  Sb576  1  0.02874943  0.28151271  0.12777643  1.0
  Sb  Sb577  1  0.02874943  0.61484605  0.12777643  1.0
  Sb  Sb578  1  0.02874943  0.94817938  0.12777643  1.0
  Sb  Sb579  1  0.36208276  0.28151271  0.12777643  1.0
  Sb  Sb580  1  0.36208276  0.61484605  0.12777643  1.0
  Sb  Sb581  1  0.36208276  0.94817938  0.12777643  1.0
  Sb  Sb582  1  0.69541610  0.28151271  0.12777643  1.0
  Sb  Sb583  1  0.69541610  0.61484605  0.12777643  1.0
  Sb  Sb584  1  0.69541610  0.94817938  0.12777643  1.0
  Sb  Sb585  1  0.12398752  0.16246510  0.05634786  1.0
  Sb  Sb586  1  0.12398752  0.49579843  0.05634786  1.0
  Sb  Sb587  1  0.12398752  0.82913176  0.05634786  1.0
  Sb  Sb588  1  0.45732086  0.16246510  0.05634786  1.0
  Sb  Sb589  1  0.45732086  0.49579843  0.05634786  1.0
  Sb  Sb590  1  0.45732086  0.82913176  0.05634786  1.0
  Sb  Sb591  1  0.79065419  0.16246510  0.05634786  1.0
  Sb  Sb592  1  0.79065419  0.49579843  0.05634786  1.0
  Sb  Sb593  1  0.79065419  0.82913176  0.05634786  1.0
  Sb  Sb594  1  0.11410771  0.28991586  0.01508071  1.0
  Sb  Sb595  1  0.11410771  0.62324919  0.01508071  1.0
  Sb  Sb596  1  0.11410771  0.95658252  0.01508071  1.0
  Sb  Sb597  1  0.44744105  0.28991586  0.01508071  1.0
  Sb  Sb598  1  0.44744105  0.62324919  0.01508071  1.0
  Sb  Sb599  1  0.44744105  0.95658252  0.01508071  1.0
  Sb  Sb600  1  0.78077438  0.28991586  0.01508071  1.0
  Sb  Sb601  1  0.78077438  0.62324919  0.01508071  1.0
  Sb  Sb602  1  0.78077438  0.95658252  0.01508071  1.0
  Sb  Sb603  1  0.01886962  0.07563014  0.08650929  1.0
  Sb  Sb604  1  0.01886962  0.40896348  0.08650929  1.0
  Sb  Sb605  1  0.01886962  0.74229681  0.08650929  1.0
  Sb  Sb606  1  0.35220295  0.07563014  0.08650929  1.0
  Sb  Sb607  1  0.35220295  0.40896348  0.08650929  1.0
  Sb  Sb608  1  0.35220295  0.74229681  0.08650929  1.0
  Sb  Sb609  1  0.68553629  0.07563014  0.08650929  1.0
  Sb  Sb610  1  0.68553629  0.40896348  0.08650929  1.0
  Sb  Sb611  1  0.68553629  0.74229681  0.08650929  1.0
  Sb  Sb612  1  0.11973295  0.08101848  0.19784629  1.0
  Sb  Sb613  1  0.11973295  0.41435181  0.19784629  1.0
  Sb  Sb614  1  0.11973295  0.74768514  0.19784629  1.0
  Sb  Sb615  1  0.45306629  0.08101848  0.19784629  1.0
  Sb  Sb616  1  0.45306629  0.41435181  0.19784629  1.0
  Sb  Sb617  1  0.45306629  0.74768514  0.19784629  1.0
  Sb  Sb618  1  0.78639962  0.08101848  0.19784629  1.0
  Sb  Sb619  1  0.78639962  0.41435181  0.19784629  1.0
  Sb  Sb620  1  0.78639962  0.74768514  0.19784629  1.0
  Sb  Sb621  1  0.02449486  0.20006610  0.26927486  1.0
  Sb  Sb622  1  0.02449486  0.53339943  0.26927486  1.0
  Sb  Sb623  1  0.02449486  0.86673276  0.26927486  1.0
  Sb  Sb624  1  0.35782819  0.20006610  0.26927486  1.0
  Sb  Sb625  1  0.35782819  0.53339943  0.26927486  1.0
  Sb  Sb626  1  0.35782819  0.86673276  0.26927486  1.0
  Sb  Sb627  1  0.69116152  0.20006610  0.26927486  1.0
  Sb  Sb628  1  0.69116152  0.53339943  0.26927486  1.0
  Sb  Sb629  1  0.69116152  0.86673276  0.26927486  1.0
  Sb  Sb630  1  0.30883848  0.29993390  0.23072514  1.0
  Sb  Sb631  1  0.30883848  0.63326724  0.23072514  1.0
  Sb  Sb632  1  0.30883848  0.96660057  0.23072514  1.0
  Sb  Sb633  1  0.64217181  0.29993390  0.23072514  1.0
  Sb  Sb634  1  0.64217181  0.63326724  0.23072514  1.0
  Sb  Sb635  1  0.64217181  0.96660057  0.23072514  1.0
  Sb  Sb636  1  0.97550514  0.29993390  0.23072514  1.0
  Sb  Sb637  1  0.97550514  0.63326724  0.23072514  1.0
  Sb  Sb638  1  0.97550514  0.96660057  0.23072514  1.0
  Sb  Sb639  1  0.07074324  0.18088629  0.15929657  1.0
  Sb  Sb640  1  0.07074324  0.51421962  0.15929657  1.0
  Sb  Sb641  1  0.07074324  0.84755295  0.15929657  1.0
  Sb  Sb642  1  0.40407657  0.18088629  0.15929657  1.0
  Sb  Sb643  1  0.40407657  0.51421962  0.15929657  1.0
  Sb  Sb644  1  0.40407657  0.84755295  0.15929657  1.0
  Sb  Sb645  1  0.73740990  0.18088629  0.15929657  1.0
  Sb  Sb646  1  0.73740990  0.51421962  0.15929657  1.0
  Sb  Sb647  1  0.73740990  0.84755295  0.15929657  1.0
  Sb  Sb648  1  0.17160657  0.18627462  0.27063357  1.0
  Sb  Sb649  1  0.17160657  0.51960795  0.27063357  1.0
  Sb  Sb650  1  0.17160657  0.85294129  0.27063357  1.0
  Sb  Sb651  1  0.50493990  0.18627462  0.27063357  1.0
  Sb  Sb652  1  0.50493990  0.51960795  0.27063357  1.0
  Sb  Sb653  1  0.50493990  0.85294129  0.27063357  1.0
  Sb  Sb654  1  0.83827324  0.18627462  0.27063357  1.0
  Sb  Sb655  1  0.83827324  0.51960795  0.27063357  1.0
  Sb  Sb656  1  0.83827324  0.85294129  0.27063357  1.0
  Sb  Sb657  1  0.26684467  0.06722700  0.19920500  1.0
  Sb  Sb658  1  0.26684467  0.40056033  0.19920500  1.0
  Sb  Sb659  1  0.26684467  0.73389367  0.19920500  1.0
  Sb  Sb660  1  0.60017800  0.06722700  0.19920500  1.0
  Sb  Sb661  1  0.60017800  0.40056033  0.19920500  1.0
  Sb  Sb662  1  0.60017800  0.73389367  0.19920500  1.0
  Sb  Sb663  1  0.93351133  0.06722700  0.19920500  1.0
  Sb  Sb664  1  0.93351133  0.40056033  0.19920500  1.0
  Sb  Sb665  1  0.93351133  0.73389367  0.19920500  1.0
  Sb  Sb666  1  0.25696486  0.19467776  0.15793786  1.0
  Sb  Sb667  1  0.25696486  0.52801110  0.15793786  1.0
  Sb  Sb668  1  0.25696486  0.86134443  0.15793786  1.0
  Sb  Sb669  1  0.59029819  0.19467776  0.15793786  1.0
  Sb  Sb670  1  0.59029819  0.52801110  0.15793786  1.0
  Sb  Sb671  1  0.59029819  0.86134443  0.15793786  1.0
  Sb  Sb672  1  0.92363152  0.19467776  0.15793786  1.0
  Sb  Sb673  1  0.92363152  0.52801110  0.15793786  1.0
  Sb  Sb674  1  0.92363152  0.86134443  0.15793786  1.0
  Sb  Sb675  1  0.16172676  0.31372538  0.22936643  1.0
  Sb  Sb676  1  0.16172676  0.64705871  0.22936643  1.0
  Sb  Sb677  1  0.16172676  0.98039205  0.22936643  1.0
  Sb  Sb678  1  0.49506010  0.31372538  0.22936643  1.0
  Sb  Sb679  1  0.49506010  0.64705871  0.22936643  1.0
  Sb  Sb680  1  0.49506010  0.98039205  0.22936643  1.0
  Sb  Sb681  1  0.82839343  0.31372538  0.22936643  1.0
  Sb  Sb682  1  0.82839343  0.64705871  0.22936643  1.0
  Sb  Sb683  1  0.82839343  0.98039205  0.22936643  1.0
  Sb  Sb684  1  0.26259010  0.31911371  0.34070343  1.0
  Sb  Sb685  1  0.26259010  0.65244705  0.34070343  1.0
  Sb  Sb686  1  0.26259010  0.98578038  0.34070343  1.0
  Sb  Sb687  1  0.59592343  0.31911371  0.34070343  1.0
  Sb  Sb688  1  0.59592343  0.65244705  0.34070343  1.0
  Sb  Sb689  1  0.59592343  0.98578038  0.34070343  1.0
  Sb  Sb690  1  0.92925676  0.31911371  0.34070343  1.0
  Sb  Sb691  1  0.92925676  0.65244705  0.34070343  1.0
  Sb  Sb692  1  0.92925676  0.98578038  0.34070343  1.0
  Sb  Sb693  1  0.16735200  0.10482800  0.41213200  1.0
  Sb  Sb694  1  0.16735200  0.43816133  0.41213200  1.0
  Sb  Sb695  1  0.16735200  0.77149467  0.41213200  1.0
  Sb  Sb696  1  0.50068533  0.10482800  0.41213200  1.0
  Sb  Sb697  1  0.50068533  0.43816133  0.41213200  1.0
  Sb  Sb698  1  0.50068533  0.77149467  0.41213200  1.0
  Sb  Sb699  1  0.83401867  0.10482800  0.41213200  1.0
  Sb  Sb700  1  0.83401867  0.43816133  0.41213200  1.0
  Sb  Sb701  1  0.83401867  0.77149467  0.41213200  1.0
  Sb  Sb702  1  0.11836229  0.20469581  0.37358229  1.0
  Sb  Sb703  1  0.11836229  0.53802914  0.37358229  1.0
  Sb  Sb704  1  0.11836229  0.87136248  0.37358229  1.0
  Sb  Sb705  1  0.45169562  0.20469581  0.37358229  1.0
  Sb  Sb706  1  0.45169562  0.53802914  0.37358229  1.0
  Sb  Sb707  1  0.45169562  0.87136248  0.37358229  1.0
  Sb  Sb708  1  0.78502895  0.20469581  0.37358229  1.0
  Sb  Sb709  1  0.78502895  0.53802914  0.37358229  1.0
  Sb  Sb710  1  0.78502895  0.87136248  0.37358229  1.0
  Sb  Sb711  1  0.21360038  0.08564819  0.30215371  1.0
  Sb  Sb712  1  0.21360038  0.41898152  0.30215371  1.0
  Sb  Sb713  1  0.21360038  0.75231486  0.30215371  1.0
  Sb  Sb714  1  0.54693371  0.08564819  0.30215371  1.0
  Sb  Sb715  1  0.54693371  0.41898152  0.30215371  1.0
  Sb  Sb716  1  0.54693371  0.75231486  0.30215371  1.0
  Sb  Sb717  1  0.88026705  0.08564819  0.30215371  1.0
  Sb  Sb718  1  0.88026705  0.41898152  0.30215371  1.0
  Sb  Sb719  1  0.88026705  0.75231486  0.30215371  1.0
  Sb  Sb720  1  0.31446371  0.09103652  0.41349071  1.0
  Sb  Sb721  1  0.31446371  0.42436986  0.41349071  1.0
  Sb  Sb722  1  0.31446371  0.75770319  0.41349071  1.0
  Sb  Sb723  1  0.64779705  0.09103652  0.41349071  1.0
  Sb  Sb724  1  0.64779705  0.42436986  0.41349071  1.0
  Sb  Sb725  1  0.64779705  0.75770319  0.41349071  1.0
  Sb  Sb726  1  0.98113038  0.09103652  0.41349071  1.0
  Sb  Sb727  1  0.98113038  0.42436986  0.41349071  1.0
  Sb  Sb728  1  0.98113038  0.75770319  0.41349071  1.0
  Sb  Sb729  1  0.07636848  0.30532224  0.34206214  1.0
  Sb  Sb730  1  0.07636848  0.63865557  0.34206214  1.0
  Sb  Sb731  1  0.07636848  0.97198890  0.34206214  1.0
  Sb  Sb732  1  0.40970181  0.30532224  0.34206214  1.0
  Sb  Sb733  1  0.40970181  0.63865557  0.34206214  1.0
  Sb  Sb734  1  0.40970181  0.97198890  0.34206214  1.0
  Sb  Sb735  1  0.74303514  0.30532224  0.34206214  1.0
  Sb  Sb736  1  0.74303514  0.63865557  0.34206214  1.0
  Sb  Sb737  1  0.74303514  0.97198890  0.34206214  1.0
  Sb  Sb738  1  0.06648867  0.09943967  0.30079500  1.0
  Sb  Sb739  1  0.06648867  0.43277300  0.30079500  1.0
  Sb  Sb740  1  0.06648867  0.76610633  0.30079500  1.0
  Sb  Sb741  1  0.39982200  0.09943967  0.30079500  1.0
  Sb  Sb742  1  0.39982200  0.43277300  0.30079500  1.0
  Sb  Sb743  1  0.39982200  0.76610633  0.30079500  1.0
  Sb  Sb744  1  0.73315533  0.09943967  0.30079500  1.0
  Sb  Sb745  1  0.73315533  0.43277300  0.30079500  1.0
  Sb  Sb746  1  0.73315533  0.76610633  0.30079500  1.0
  Sb  Sb747  1  0.30458390  0.21848729  0.37222357  1.0
  Sb  Sb748  1  0.30458390  0.55182062  0.37222357  1.0
  Sb  Sb749  1  0.30458390  0.88515395  0.37222357  1.0
  Sb  Sb750  1  0.63791724  0.21848729  0.37222357  1.0
  Sb  Sb751  1  0.63791724  0.55182062  0.37222357  1.0
  Sb  Sb752  1  0.63791724  0.88515395  0.37222357  1.0
  Sb  Sb753  1  0.97125057  0.21848729  0.37222357  1.0
  Sb  Sb754  1  0.97125057  0.55182062  0.37222357  1.0
  Sb  Sb755  1  0.97125057  0.88515395  0.37222357  1.0
