# generated using pymatgen
data_Ni5Sb2
_symmetry_space_group_name_H-M   'P 1'
_cell_length_a   58.91561430
_cell_length_b   33.45792645
_cell_length_c   61.42767260
_cell_angle_alpha   34.62980687
_cell_angle_beta   62.38752206
_cell_angle_gamma   37.09904482
_symmetry_Int_Tables_number   1
_chemical_formula_structural   Ni5Sb2
_chemical_formula_sum   'Ni720 Sb288'
_cell_volume   34317.50197410
_cell_formula_units_Z   144
loop_
 _symmetry_equiv_pos_site_id
 _symmetry_equiv_pos_as_xyz
  1  'x, y, z'
loop_
 _atom_site_type_symbol
 _atom_site_label
 _atom_site_symmetry_multiplicity
 _atom_site_fract_x
 _atom_site_fract_y
 _atom_site_fract_z
 _atom_site_occupancy
  Ni  Ni0  1  0.29200050  0.12399850  0.06071738  1.0
  Ni  Ni1  1  0.29200050  0.45733183  0.06071737  1.0
  Ni  Ni2  1  0.29200050  0.79066517  0.06071737  1.0
  Ni  Ni3  1  0.62533383  0.12399850  0.06071738  1.0
  Ni  Ni4  1  0.62533383  0.45733183  0.06071737  1.0
  Ni  Ni5  1  0.62533383  0.79066517  0.06071737  1.0
  Ni  Ni6  1  0.95866717  0.12399850  0.06071737  1.0
  Ni  Ni7  1  0.95866717  0.45733183  0.06071737  1.0
  Ni  Ni8  1  0.95866717  0.79066517  0.06071737  1.0
  Ni  Ni9  1  0.12533383  0.29066517  0.01071737  1.0
  Ni  Ni10  1  0.12533383  0.62399850  0.01071737  1.0
  Ni  Ni11  1  0.12533383  0.95733183  0.01071737  1.0
  Ni  Ni12  1  0.45866717  0.29066517  0.01071737  1.0
  Ni  Ni13  1  0.45866717  0.62399850  0.01071737  1.0
  Ni  Ni14  1  0.45866717  0.95733183  0.01071738  1.0
  Ni  Ni15  1  0.79200050  0.29066517  0.01071737  1.0
  Ni  Ni16  1  0.79200050  0.62399850  0.01071737  1.0
  Ni  Ni17  1  0.79200050  0.95733183  0.01071737  1.0
  Ni  Ni18  1  0.20799950  0.04266817  0.08511647  1.0
  Ni  Ni19  1  0.20799950  0.37600150  0.08511647  1.0
  Ni  Ni20  1  0.20799950  0.70933483  0.08511647  1.0
  Ni  Ni21  1  0.54133283  0.04266817  0.08511647  1.0
  Ni  Ni22  1  0.54133283  0.37600150  0.08511647  1.0
  Ni  Ni23  1  0.54133283  0.70933483  0.08511647  1.0
  Ni  Ni24  1  0.87466617  0.04266817  0.08511647  1.0
  Ni  Ni25  1  0.87466617  0.37600150  0.08511647  1.0
  Ni  Ni26  1  0.87466617  0.70933483  0.08511647  1.0
  Ni  Ni27  1  0.04133283  0.20933483  0.03511647  1.0
  Ni  Ni28  1  0.04133283  0.54266817  0.03511647  1.0
  Ni  Ni29  1  0.04133283  0.87600150  0.03511647  1.0
  Ni  Ni30  1  0.37466617  0.20933483  0.03511647  1.0
  Ni  Ni31  1  0.37466617  0.54266817  0.03511647  1.0
  Ni  Ni32  1  0.37466617  0.87600150  0.03511648  1.0
  Ni  Ni33  1  0.70799950  0.20933483  0.03511648  1.0
  Ni  Ni34  1  0.70799950  0.54266817  0.03511647  1.0
  Ni  Ni35  1  0.70799950  0.87600150  0.03511647  1.0
  Ni  Ni36  1  0.22870117  0.22870117  0.01435628  1.0
  Ni  Ni37  1  0.22870117  0.56203450  0.01435627  1.0
  Ni  Ni38  1  0.22870117  0.89536783  0.01435628  1.0
  Ni  Ni39  1  0.56203450  0.22870117  0.01435628  1.0
  Ni  Ni40  1  0.56203450  0.56203450  0.01435627  1.0
  Ni  Ni41  1  0.56203450  0.89536783  0.01435627  1.0
  Ni  Ni42  1  0.89536783  0.22870117  0.01435628  1.0
  Ni  Ni43  1  0.89536783  0.56203450  0.01435628  1.0
  Ni  Ni44  1  0.89536783  0.89536783  0.01435627  1.0
  Ni  Ni45  1  0.06203450  0.06203450  0.06435627  1.0
  Ni  Ni46  1  0.06203450  0.39536783  0.06435627  1.0
  Ni  Ni47  1  0.06203450  0.72870117  0.06435627  1.0
  Ni  Ni48  1  0.39536783  0.06203450  0.06435627  1.0
  Ni  Ni49  1  0.39536783  0.39536783  0.06435627  1.0
  Ni  Ni50  1  0.39536783  0.72870117  0.06435628  1.0
  Ni  Ni51  1  0.72870117  0.06203450  0.06435628  1.0
  Ni  Ni52  1  0.72870117  0.39536783  0.06435627  1.0
  Ni  Ni53  1  0.72870117  0.72870117  0.06435627  1.0
  Ni  Ni54  1  0.27129883  0.27129883  0.03147758  1.0
  Ni  Ni55  1  0.27129883  0.60463217  0.03147758  1.0
  Ni  Ni56  1  0.27129883  0.93796550  0.03147758  1.0
  Ni  Ni57  1  0.60463217  0.27129883  0.03147757  1.0
  Ni  Ni58  1  0.60463217  0.60463217  0.03147758  1.0
  Ni  Ni59  1  0.60463217  0.93796550  0.03147758  1.0
  Ni  Ni60  1  0.93796550  0.27129883  0.03147758  1.0
  Ni  Ni61  1  0.93796550  0.60463217  0.03147758  1.0
  Ni  Ni62  1  0.93796550  0.93796550  0.03147758  1.0
  Ni  Ni63  1  0.10463217  0.10463217  0.08147757  1.0
  Ni  Ni64  1  0.10463217  0.43796550  0.08147757  1.0
  Ni  Ni65  1  0.10463217  0.77129883  0.08147758  1.0
  Ni  Ni66  1  0.43796550  0.10463217  0.08147758  1.0
  Ni  Ni67  1  0.43796550  0.43796550  0.08147758  1.0
  Ni  Ni68  1  0.43796550  0.77129883  0.08147757  1.0
  Ni  Ni69  1  0.77129883  0.10463217  0.08147758  1.0
  Ni  Ni70  1  0.77129883  0.43796550  0.08147758  1.0
  Ni  Ni71  1  0.77129883  0.77129883  0.08147757  1.0
  Ni  Ni72  1  0.31636100  0.31636100  0.04353543  1.0
  Ni  Ni73  1  0.31636100  0.64969433  0.04353542  1.0
  Ni  Ni74  1  0.31636100  0.98302767  0.04353543  1.0
  Ni  Ni75  1  0.64969433  0.31636100  0.04353543  1.0
  Ni  Ni76  1  0.64969433  0.64969433  0.04353542  1.0
  Ni  Ni77  1  0.64969433  0.98302767  0.04353542  1.0
  Ni  Ni78  1  0.98302767  0.31636100  0.04353542  1.0
  Ni  Ni79  1  0.98302767  0.64969433  0.04353542  1.0
  Ni  Ni80  1  0.98302767  0.98302767  0.04353542  1.0
  Ni  Ni81  1  0.14969433  0.14969433  0.09353543  1.0
  Ni  Ni82  1  0.14969433  0.48302767  0.09353542  1.0
  Ni  Ni83  1  0.14969433  0.81636100  0.09353543  1.0
  Ni  Ni84  1  0.48302767  0.14969433  0.09353542  1.0
  Ni  Ni85  1  0.48302767  0.48302767  0.09353542  1.0
  Ni  Ni86  1  0.48302767  0.81636100  0.09353543  1.0
  Ni  Ni87  1  0.81636100  0.14969433  0.09353543  1.0
  Ni  Ni88  1  0.81636100  0.48302767  0.09353543  1.0
  Ni  Ni89  1  0.81636100  0.81636100  0.09353543  1.0
  Ni  Ni90  1  0.18363900  0.18363900  0.00229842  1.0
  Ni  Ni91  1  0.18363900  0.51697233  0.00229843  1.0
  Ni  Ni92  1  0.18363900  0.85030567  0.00229842  1.0
  Ni  Ni93  1  0.51697233  0.18363900  0.00229842  1.0
  Ni  Ni94  1  0.51697233  0.51697233  0.00229842  1.0
  Ni  Ni95  1  0.51697233  0.85030567  0.00229843  1.0
  Ni  Ni96  1  0.85030567  0.18363900  0.00229843  1.0
  Ni  Ni97  1  0.85030567  0.51697233  0.00229842  1.0
  Ni  Ni98  1  0.85030567  0.85030567  0.00229842  1.0
  Ni  Ni99  1  0.01697233  0.01697233  0.05229842  1.0
  Ni  Ni100  1  0.01697233  0.35030567  0.05229842  1.0
  Ni  Ni101  1  0.01697233  0.68363900  0.05229842  1.0
  Ni  Ni102  1  0.35030567  0.01697233  0.05229843  1.0
  Ni  Ni103  1  0.35030567  0.35030567  0.05229842  1.0
  Ni  Ni104  1  0.35030567  0.68363900  0.05229843  1.0
  Ni  Ni105  1  0.68363900  0.01697233  0.05229842  1.0
  Ni  Ni106  1  0.68363900  0.35030567  0.05229842  1.0
  Ni  Ni107  1  0.68363900  0.68363900  0.05229842  1.0
  Ni  Ni108  1  0.25394950  0.08547817  0.09813228  1.0
  Ni  Ni109  1  0.25394950  0.41881150  0.09813228  1.0
  Ni  Ni110  1  0.25394950  0.75214483  0.09813228  1.0
  Ni  Ni111  1  0.58728283  0.08547817  0.09813228  1.0
  Ni  Ni112  1  0.58728283  0.41881150  0.09813227  1.0
  Ni  Ni113  1  0.58728283  0.75214483  0.09813228  1.0
  Ni  Ni114  1  0.92061617  0.08547817  0.09813227  1.0
  Ni  Ni115  1  0.92061617  0.41881150  0.09813227  1.0
  Ni  Ni116  1  0.92061617  0.75214483  0.09813227  1.0
  Ni  Ni117  1  0.08728283  0.25214483  0.04813227  1.0
  Ni  Ni118  1  0.08728283  0.58547817  0.04813228  1.0
  Ni  Ni119  1  0.08728283  0.91881150  0.04813228  1.0
  Ni  Ni120  1  0.42061617  0.25214483  0.04813227  1.0
  Ni  Ni121  1  0.42061617  0.58547817  0.04813227  1.0
  Ni  Ni122  1  0.42061617  0.91881150  0.04813228  1.0
  Ni  Ni123  1  0.75394950  0.25214483  0.04813227  1.0
  Ni  Ni124  1  0.75394950  0.58547817  0.04813228  1.0
  Ni  Ni125  1  0.75394950  0.91881150  0.04813227  1.0
  Ni  Ni126  1  0.33028617  0.16181483  0.02351367  1.0
  Ni  Ni127  1  0.33028617  0.49514817  0.02351368  1.0
  Ni  Ni128  1  0.33028617  0.82848150  0.02351368  1.0
  Ni  Ni129  1  0.66361950  0.16181483  0.02351368  1.0
  Ni  Ni130  1  0.66361950  0.49514817  0.02351367  1.0
  Ni  Ni131  1  0.66361950  0.82848150  0.02351368  1.0
  Ni  Ni132  1  0.99695283  0.16181483  0.02351368  1.0
  Ni  Ni133  1  0.99695283  0.49514817  0.02351368  1.0
  Ni  Ni134  1  0.99695283  0.82848150  0.02351367  1.0
  Ni  Ni135  1  0.16361950  0.32848150  0.07351367  1.0
  Ni  Ni136  1  0.16361950  0.66181483  0.07351367  1.0
  Ni  Ni137  1  0.16361950  0.99514817  0.07351368  1.0
  Ni  Ni138  1  0.49695283  0.32848150  0.07351368  1.0
  Ni  Ni139  1  0.49695283  0.66181483  0.07351367  1.0
  Ni  Ni140  1  0.49695283  0.99514817  0.07351367  1.0
  Ni  Ni141  1  0.83028617  0.32848150  0.07351368  1.0
  Ni  Ni142  1  0.83028617  0.66181483  0.07351367  1.0
  Ni  Ni143  1  0.83028617  0.99514817  0.07351367  1.0
  Ni  Ni144  1  0.16971383  0.00485183  0.02232018  1.0
  Ni  Ni145  1  0.16971383  0.33818517  0.02232018  1.0
  Ni  Ni146  1  0.16971383  0.67151850  0.02232017  1.0
  Ni  Ni147  1  0.50304717  0.00485183  0.02232018  1.0
  Ni  Ni148  1  0.50304717  0.33818517  0.02232017  1.0
  Ni  Ni149  1  0.50304717  0.67151850  0.02232018  1.0
  Ni  Ni150  1  0.83638050  0.00485183  0.02232017  1.0
  Ni  Ni151  1  0.83638050  0.33818517  0.02232018  1.0
  Ni  Ni152  1  0.83638050  0.67151850  0.02232017  1.0
  Ni  Ni153  1  0.00304717  0.17151850  0.07232018  1.0
  Ni  Ni154  1  0.00304717  0.50485183  0.07232018  1.0
  Ni  Ni155  1  0.00304717  0.83818517  0.07232017  1.0
  Ni  Ni156  1  0.33638050  0.17151850  0.07232017  1.0
  Ni  Ni157  1  0.33638050  0.50485183  0.07232017  1.0
  Ni  Ni158  1  0.33638050  0.83818517  0.07232017  1.0
  Ni  Ni159  1  0.66971383  0.17151850  0.07232017  1.0
  Ni  Ni160  1  0.66971383  0.50485183  0.07232017  1.0
  Ni  Ni161  1  0.66971383  0.83818517  0.07232017  1.0
  Ni  Ni162  1  0.24605050  0.08118850  0.04770157  1.0
  Ni  Ni163  1  0.24605050  0.41452183  0.04770157  1.0
  Ni  Ni164  1  0.24605050  0.74785517  0.04770157  1.0
  Ni  Ni165  1  0.57938383  0.08118850  0.04770157  1.0
  Ni  Ni166  1  0.57938383  0.41452183  0.04770157  1.0
  Ni  Ni167  1  0.57938383  0.74785517  0.04770157  1.0
  Ni  Ni168  1  0.91271717  0.08118850  0.04770157  1.0
  Ni  Ni169  1  0.91271717  0.41452183  0.04770158  1.0
  Ni  Ni170  1  0.91271717  0.74785517  0.04770157  1.0
  Ni  Ni171  1  0.07938383  0.24785517  0.09770158  1.0
  Ni  Ni172  1  0.07938383  0.58118850  0.09770157  1.0
  Ni  Ni173  1  0.07938383  0.91452183  0.09770158  1.0
  Ni  Ni174  1  0.41271717  0.24785517  0.09770158  1.0
  Ni  Ni175  1  0.41271717  0.58118850  0.09770157  1.0
  Ni  Ni176  1  0.41271717  0.91452183  0.09770157  1.0
  Ni  Ni177  1  0.74605050  0.24785517  0.09770157  1.0
  Ni  Ni178  1  0.74605050  0.58118850  0.09770158  1.0
  Ni  Ni179  1  0.74605050  0.91452183  0.09770157  1.0
  Sb  Sb180  1  0.31218133  0.31218133  0.08920412  1.0
  Sb  Sb181  1  0.31218133  0.64551467  0.08920412  1.0
  Sb  Sb182  1  0.31218133  0.97884800  0.08920412  1.0
  Sb  Sb183  1  0.64551467  0.31218133  0.08920412  1.0
  Sb  Sb184  1  0.64551467  0.64551467  0.08920412  1.0
  Sb  Sb185  1  0.64551467  0.97884800  0.08920412  1.0
  Sb  Sb186  1  0.97884800  0.31218133  0.08920412  1.0
  Sb  Sb187  1  0.97884800  0.64551467  0.08920412  1.0
  Sb  Sb188  1  0.97884800  0.97884800  0.08920412  1.0
  Sb  Sb189  1  0.14551467  0.14551467  0.03920412  1.0
  Sb  Sb190  1  0.14551467  0.47884800  0.03920412  1.0
  Sb  Sb191  1  0.14551467  0.81218133  0.03920412  1.0
  Sb  Sb192  1  0.47884800  0.14551467  0.03920412  1.0
  Sb  Sb193  1  0.47884800  0.47884800  0.03920412  1.0
  Sb  Sb194  1  0.47884800  0.81218133  0.03920412  1.0
  Sb  Sb195  1  0.81218133  0.14551467  0.03920413  1.0
  Sb  Sb196  1  0.81218133  0.47884800  0.03920413  1.0
  Sb  Sb197  1  0.81218133  0.81218133  0.03920412  1.0
  Sb  Sb198  1  0.18781867  0.18781867  0.05662972  1.0
  Sb  Sb199  1  0.18781867  0.52115200  0.05662972  1.0
  Sb  Sb200  1  0.18781867  0.85448533  0.05662972  1.0
  Sb  Sb201  1  0.52115200  0.18781867  0.05662973  1.0
  Sb  Sb202  1  0.52115200  0.52115200  0.05662972  1.0
  Sb  Sb203  1  0.52115200  0.85448533  0.05662972  1.0
  Sb  Sb204  1  0.85448533  0.18781867  0.05662972  1.0
  Sb  Sb205  1  0.85448533  0.52115200  0.05662972  1.0
  Sb  Sb206  1  0.85448533  0.85448533  0.05662972  1.0
  Sb  Sb207  1  0.02115200  0.02115200  0.00662972  1.0
  Sb  Sb208  1  0.02115200  0.35448533  0.00662972  1.0
  Sb  Sb209  1  0.02115200  0.68781867  0.00662972  1.0
  Sb  Sb210  1  0.35448533  0.02115200  0.00662972  1.0
  Sb  Sb211  1  0.35448533  0.35448533  0.00662972  1.0
  Sb  Sb212  1  0.35448533  0.68781867  0.00662972  1.0
  Sb  Sb213  1  0.68781867  0.02115200  0.00662972  1.0
  Sb  Sb214  1  0.68781867  0.35448533  0.00662972  1.0
  Sb  Sb215  1  0.68781867  0.68781867  0.00662973  1.0
  Sb  Sb216  1  0.23286200  0.23286200  0.06832292  1.0
  Sb  Sb217  1  0.23286200  0.56619533  0.06832292  1.0
  Sb  Sb218  1  0.23286200  0.89952867  0.06832292  1.0
  Sb  Sb219  1  0.56619533  0.23286200  0.06832292  1.0
  Sb  Sb220  1  0.56619533  0.56619533  0.06832292  1.0
  Sb  Sb221  1  0.56619533  0.89952867  0.06832292  1.0
  Sb  Sb222  1  0.89952867  0.23286200  0.06832293  1.0
  Sb  Sb223  1  0.89952867  0.56619533  0.06832292  1.0
  Sb  Sb224  1  0.89952867  0.89952867  0.06832292  1.0
  Sb  Sb225  1  0.06619533  0.06619533  0.01832292  1.0
  Sb  Sb226  1  0.06619533  0.39952867  0.01832292  1.0
  Sb  Sb227  1  0.06619533  0.73286200  0.01832293  1.0
  Sb  Sb228  1  0.39952867  0.06619533  0.01832292  1.0
  Sb  Sb229  1  0.39952867  0.39952867  0.01832292  1.0
  Sb  Sb230  1  0.39952867  0.73286200  0.01832293  1.0
  Sb  Sb231  1  0.73286200  0.06619533  0.01832292  1.0
  Sb  Sb232  1  0.73286200  0.39952867  0.01832292  1.0
  Sb  Sb233  1  0.73286200  0.73286200  0.01832292  1.0
  Sb  Sb234  1  0.26713800  0.26713800  0.07751093  1.0
  Sb  Sb235  1  0.26713800  0.60047133  0.07751093  1.0
  Sb  Sb236  1  0.26713800  0.93380467  0.07751093  1.0
  Sb  Sb237  1  0.60047133  0.26713800  0.07751093  1.0
  Sb  Sb238  1  0.60047133  0.60047133  0.07751092  1.0
  Sb  Sb239  1  0.60047133  0.93380467  0.07751092  1.0
  Sb  Sb240  1  0.93380467  0.26713800  0.07751092  1.0
  Sb  Sb241  1  0.93380467  0.60047133  0.07751093  1.0
  Sb  Sb242  1  0.93380467  0.93380467  0.07751092  1.0
  Sb  Sb243  1  0.10047133  0.10047133  0.02751093  1.0
  Sb  Sb244  1  0.10047133  0.43380467  0.02751093  1.0
  Sb  Sb245  1  0.10047133  0.76713800  0.02751093  1.0
  Sb  Sb246  1  0.43380467  0.10047133  0.02751093  1.0
  Sb  Sb247  1  0.43380467  0.43380467  0.02751093  1.0
  Sb  Sb248  1  0.43380467  0.76713800  0.02751093  1.0
  Sb  Sb249  1  0.76713800  0.10047133  0.02751093  1.0
  Sb  Sb250  1  0.76713800  0.43380467  0.02751093  1.0
  Sb  Sb251  1  0.76713800  0.76713800  0.02751093  1.0
  Ni  Ni252  1  0.29200050  0.12399850  0.16071738  1.0
  Ni  Ni253  1  0.29200050  0.45733183  0.16071737  1.0
  Ni  Ni254  1  0.29200050  0.79066517  0.16071738  1.0
  Ni  Ni255  1  0.62533383  0.12399850  0.16071738  1.0
  Ni  Ni256  1  0.62533383  0.45733183  0.16071737  1.0
  Ni  Ni257  1  0.62533383  0.79066517  0.16071737  1.0
  Ni  Ni258  1  0.95866717  0.12399850  0.16071737  1.0
  Ni  Ni259  1  0.95866717  0.45733183  0.16071738  1.0
  Ni  Ni260  1  0.95866717  0.79066517  0.16071737  1.0
  Ni  Ni261  1  0.12533383  0.29066517  0.11071737  1.0
  Ni  Ni262  1  0.12533383  0.62399850  0.11071737  1.0
  Ni  Ni263  1  0.12533383  0.95733183  0.11071737  1.0
  Ni  Ni264  1  0.45866717  0.29066517  0.11071737  1.0
  Ni  Ni265  1  0.45866717  0.62399850  0.11071737  1.0
  Ni  Ni266  1  0.45866717  0.95733183  0.11071738  1.0
  Ni  Ni267  1  0.79200050  0.29066517  0.11071737  1.0
  Ni  Ni268  1  0.79200050  0.62399850  0.11071737  1.0
  Ni  Ni269  1  0.79200050  0.95733183  0.11071737  1.0
  Ni  Ni270  1  0.20799950  0.04266817  0.18511648  1.0
  Ni  Ni271  1  0.20799950  0.37600150  0.18511648  1.0
  Ni  Ni272  1  0.20799950  0.70933483  0.18511648  1.0
  Ni  Ni273  1  0.54133283  0.04266817  0.18511647  1.0
  Ni  Ni274  1  0.54133283  0.37600150  0.18511648  1.0
  Ni  Ni275  1  0.54133283  0.70933483  0.18511647  1.0
  Ni  Ni276  1  0.87466617  0.04266817  0.18511647  1.0
  Ni  Ni277  1  0.87466617  0.37600150  0.18511647  1.0
  Ni  Ni278  1  0.87466617  0.70933483  0.18511647  1.0
  Ni  Ni279  1  0.04133283  0.20933483  0.13511647  1.0
  Ni  Ni280  1  0.04133283  0.54266817  0.13511647  1.0
  Ni  Ni281  1  0.04133283  0.87600150  0.13511647  1.0
  Ni  Ni282  1  0.37466617  0.20933483  0.13511647  1.0
  Ni  Ni283  1  0.37466617  0.54266817  0.13511647  1.0
  Ni  Ni284  1  0.37466617  0.87600150  0.13511648  1.0
  Ni  Ni285  1  0.70799950  0.20933483  0.13511648  1.0
  Ni  Ni286  1  0.70799950  0.54266817  0.13511647  1.0
  Ni  Ni287  1  0.70799950  0.87600150  0.13511647  1.0
  Ni  Ni288  1  0.22870117  0.22870117  0.11435628  1.0
  Ni  Ni289  1  0.22870117  0.56203450  0.11435627  1.0
  Ni  Ni290  1  0.22870117  0.89536783  0.11435628  1.0
  Ni  Ni291  1  0.56203450  0.22870117  0.11435628  1.0
  Ni  Ni292  1  0.56203450  0.56203450  0.11435627  1.0
  Ni  Ni293  1  0.56203450  0.89536783  0.11435627  1.0
  Ni  Ni294  1  0.89536783  0.22870117  0.11435628  1.0
  Ni  Ni295  1  0.89536783  0.56203450  0.11435628  1.0
  Ni  Ni296  1  0.89536783  0.89536783  0.11435627  1.0
  Ni  Ni297  1  0.06203450  0.06203450  0.16435627  1.0
  Ni  Ni298  1  0.06203450  0.39536783  0.16435627  1.0
  Ni  Ni299  1  0.06203450  0.72870117  0.16435628  1.0
  Ni  Ni300  1  0.39536783  0.06203450  0.16435627  1.0
  Ni  Ni301  1  0.39536783  0.39536783  0.16435627  1.0
  Ni  Ni302  1  0.39536783  0.72870117  0.16435628  1.0
  Ni  Ni303  1  0.72870117  0.06203450  0.16435627  1.0
  Ni  Ni304  1  0.72870117  0.39536783  0.16435627  1.0
  Ni  Ni305  1  0.72870117  0.72870117  0.16435627  1.0
  Ni  Ni306  1  0.27129883  0.27129883  0.13147758  1.0
  Ni  Ni307  1  0.27129883  0.60463217  0.13147758  1.0
  Ni  Ni308  1  0.27129883  0.93796550  0.13147758  1.0
  Ni  Ni309  1  0.60463217  0.27129883  0.13147758  1.0
  Ni  Ni310  1  0.60463217  0.60463217  0.13147758  1.0
  Ni  Ni311  1  0.60463217  0.93796550  0.13147758  1.0
  Ni  Ni312  1  0.93796550  0.27129883  0.13147758  1.0
  Ni  Ni313  1  0.93796550  0.60463217  0.13147758  1.0
  Ni  Ni314  1  0.93796550  0.93796550  0.13147758  1.0
  Ni  Ni315  1  0.10463217  0.10463217  0.18147758  1.0
  Ni  Ni316  1  0.10463217  0.43796550  0.18147758  1.0
  Ni  Ni317  1  0.10463217  0.77129883  0.18147758  1.0
  Ni  Ni318  1  0.43796550  0.10463217  0.18147758  1.0
  Ni  Ni319  1  0.43796550  0.43796550  0.18147758  1.0
  Ni  Ni320  1  0.43796550  0.77129883  0.18147758  1.0
  Ni  Ni321  1  0.77129883  0.10463217  0.18147758  1.0
  Ni  Ni322  1  0.77129883  0.43796550  0.18147758  1.0
  Ni  Ni323  1  0.77129883  0.77129883  0.18147758  1.0
  Ni  Ni324  1  0.31636100  0.31636100  0.14353542  1.0
  Ni  Ni325  1  0.31636100  0.64969433  0.14353542  1.0
  Ni  Ni326  1  0.31636100  0.98302767  0.14353543  1.0
  Ni  Ni327  1  0.64969433  0.31636100  0.14353542  1.0
  Ni  Ni328  1  0.64969433  0.64969433  0.14353542  1.0
  Ni  Ni329  1  0.64969433  0.98302767  0.14353542  1.0
  Ni  Ni330  1  0.98302767  0.31636100  0.14353543  1.0
  Ni  Ni331  1  0.98302767  0.64969433  0.14353542  1.0
  Ni  Ni332  1  0.98302767  0.98302767  0.14353542  1.0
  Ni  Ni333  1  0.14969433  0.14969433  0.19353543  1.0
  Ni  Ni334  1  0.14969433  0.48302767  0.19353542  1.0
  Ni  Ni335  1  0.14969433  0.81636100  0.19353542  1.0
  Ni  Ni336  1  0.48302767  0.14969433  0.19353542  1.0
  Ni  Ni337  1  0.48302767  0.48302767  0.19353542  1.0
  Ni  Ni338  1  0.48302767  0.81636100  0.19353542  1.0
  Ni  Ni339  1  0.81636100  0.14969433  0.19353542  1.0
  Ni  Ni340  1  0.81636100  0.48302767  0.19353543  1.0
  Ni  Ni341  1  0.81636100  0.81636100  0.19353542  1.0
  Ni  Ni342  1  0.18363900  0.18363900  0.10229843  1.0
  Ni  Ni343  1  0.18363900  0.51697233  0.10229843  1.0
  Ni  Ni344  1  0.18363900  0.85030567  0.10229843  1.0
  Ni  Ni345  1  0.51697233  0.18363900  0.10229843  1.0
  Ni  Ni346  1  0.51697233  0.51697233  0.10229843  1.0
  Ni  Ni347  1  0.51697233  0.85030567  0.10229843  1.0
  Ni  Ni348  1  0.85030567  0.18363900  0.10229843  1.0
  Ni  Ni349  1  0.85030567  0.51697233  0.10229843  1.0
  Ni  Ni350  1  0.85030567  0.85030567  0.10229842  1.0
  Ni  Ni351  1  0.01697233  0.01697233  0.15229842  1.0
  Ni  Ni352  1  0.01697233  0.35030567  0.15229842  1.0
  Ni  Ni353  1  0.01697233  0.68363900  0.15229842  1.0
  Ni  Ni354  1  0.35030567  0.01697233  0.15229843  1.0
  Ni  Ni355  1  0.35030567  0.35030567  0.15229842  1.0
  Ni  Ni356  1  0.35030567  0.68363900  0.15229843  1.0
  Ni  Ni357  1  0.68363900  0.01697233  0.15229842  1.0
  Ni  Ni358  1  0.68363900  0.35030567  0.15229843  1.0
  Ni  Ni359  1  0.68363900  0.68363900  0.15229842  1.0
  Ni  Ni360  1  0.25394950  0.08547817  0.19813228  1.0
  Ni  Ni361  1  0.25394950  0.41881150  0.19813228  1.0
  Ni  Ni362  1  0.25394950  0.75214483  0.19813228  1.0
  Ni  Ni363  1  0.58728283  0.08547817  0.19813228  1.0
  Ni  Ni364  1  0.58728283  0.41881150  0.19813228  1.0
  Ni  Ni365  1  0.58728283  0.75214483  0.19813228  1.0
  Ni  Ni366  1  0.92061617  0.08547817  0.19813227  1.0
  Ni  Ni367  1  0.92061617  0.41881150  0.19813227  1.0
  Ni  Ni368  1  0.92061617  0.75214483  0.19813227  1.0
  Ni  Ni369  1  0.08728283  0.25214483  0.14813228  1.0
  Ni  Ni370  1  0.08728283  0.58547817  0.14813227  1.0
  Ni  Ni371  1  0.08728283  0.91881150  0.14813227  1.0
  Ni  Ni372  1  0.42061617  0.25214483  0.14813228  1.0
  Ni  Ni373  1  0.42061617  0.58547817  0.14813228  1.0
  Ni  Ni374  1  0.42061617  0.91881150  0.14813228  1.0
  Ni  Ni375  1  0.75394950  0.25214483  0.14813228  1.0
  Ni  Ni376  1  0.75394950  0.58547817  0.14813228  1.0
  Ni  Ni377  1  0.75394950  0.91881150  0.14813227  1.0
  Ni  Ni378  1  0.33028617  0.16181483  0.12351368  1.0
  Ni  Ni379  1  0.33028617  0.49514817  0.12351367  1.0
  Ni  Ni380  1  0.33028617  0.82848150  0.12351368  1.0
  Ni  Ni381  1  0.66361950  0.16181483  0.12351367  1.0
  Ni  Ni382  1  0.66361950  0.49514817  0.12351367  1.0
  Ni  Ni383  1  0.66361950  0.82848150  0.12351367  1.0
  Ni  Ni384  1  0.99695283  0.16181483  0.12351368  1.0
  Ni  Ni385  1  0.99695283  0.49514817  0.12351367  1.0
  Ni  Ni386  1  0.99695283  0.82848150  0.12351367  1.0
  Ni  Ni387  1  0.16361950  0.32848150  0.17351367  1.0
  Ni  Ni388  1  0.16361950  0.66181483  0.17351367  1.0
  Ni  Ni389  1  0.16361950  0.99514817  0.17351368  1.0
  Ni  Ni390  1  0.49695283  0.32848150  0.17351368  1.0
  Ni  Ni391  1  0.49695283  0.66181483  0.17351367  1.0
  Ni  Ni392  1  0.49695283  0.99514817  0.17351367  1.0
  Ni  Ni393  1  0.83028617  0.32848150  0.17351368  1.0
  Ni  Ni394  1  0.83028617  0.66181483  0.17351367  1.0
  Ni  Ni395  1  0.83028617  0.99514817  0.17351367  1.0
  Ni  Ni396  1  0.16971383  0.00485183  0.12232018  1.0
  Ni  Ni397  1  0.16971383  0.33818517  0.12232018  1.0
  Ni  Ni398  1  0.16971383  0.67151850  0.12232018  1.0
  Ni  Ni399  1  0.50304717  0.00485183  0.12232018  1.0
  Ni  Ni400  1  0.50304717  0.33818517  0.12232017  1.0
  Ni  Ni401  1  0.50304717  0.67151850  0.12232018  1.0
  Ni  Ni402  1  0.83638050  0.00485183  0.12232017  1.0
  Ni  Ni403  1  0.83638050  0.33818517  0.12232018  1.0
  Ni  Ni404  1  0.83638050  0.67151850  0.12232017  1.0
  Ni  Ni405  1  0.00304717  0.17151850  0.17232018  1.0
  Ni  Ni406  1  0.00304717  0.50485183  0.17232018  1.0
  Ni  Ni407  1  0.00304717  0.83818517  0.17232017  1.0
  Ni  Ni408  1  0.33638050  0.17151850  0.17232017  1.0
  Ni  Ni409  1  0.33638050  0.50485183  0.17232017  1.0
  Ni  Ni410  1  0.33638050  0.83818517  0.17232017  1.0
  Ni  Ni411  1  0.66971383  0.17151850  0.17232018  1.0
  Ni  Ni412  1  0.66971383  0.50485183  0.17232018  1.0
  Ni  Ni413  1  0.66971383  0.83818517  0.17232017  1.0
  Ni  Ni414  1  0.24605050  0.08118850  0.14770157  1.0
  Ni  Ni415  1  0.24605050  0.41452183  0.14770157  1.0
  Ni  Ni416  1  0.24605050  0.74785517  0.14770158  1.0
  Ni  Ni417  1  0.57938383  0.08118850  0.14770157  1.0
  Ni  Ni418  1  0.57938383  0.41452183  0.14770157  1.0
  Ni  Ni419  1  0.57938383  0.74785517  0.14770157  1.0
  Ni  Ni420  1  0.91271717  0.08118850  0.14770158  1.0
  Ni  Ni421  1  0.91271717  0.41452183  0.14770158  1.0
  Ni  Ni422  1  0.91271717  0.74785517  0.14770157  1.0
  Ni  Ni423  1  0.07938383  0.24785517  0.19770157  1.0
  Ni  Ni424  1  0.07938383  0.58118850  0.19770158  1.0
  Ni  Ni425  1  0.07938383  0.91452183  0.19770158  1.0
  Ni  Ni426  1  0.41271717  0.24785517  0.19770158  1.0
  Ni  Ni427  1  0.41271717  0.58118850  0.19770157  1.0
  Ni  Ni428  1  0.41271717  0.91452183  0.19770157  1.0
  Ni  Ni429  1  0.74605050  0.24785517  0.19770158  1.0
  Ni  Ni430  1  0.74605050  0.58118850  0.19770158  1.0
  Ni  Ni431  1  0.74605050  0.91452183  0.19770157  1.0
  Sb  Sb432  1  0.31218133  0.31218133  0.18920413  1.0
  Sb  Sb433  1  0.31218133  0.64551467  0.18920413  1.0
  Sb  Sb434  1  0.31218133  0.97884800  0.18920413  1.0
  Sb  Sb435  1  0.64551467  0.31218133  0.18920413  1.0
  Sb  Sb436  1  0.64551467  0.64551467  0.18920413  1.0
  Sb  Sb437  1  0.64551467  0.97884800  0.18920412  1.0
  Sb  Sb438  1  0.97884800  0.31218133  0.18920412  1.0
  Sb  Sb439  1  0.97884800  0.64551467  0.18920412  1.0
  Sb  Sb440  1  0.97884800  0.97884800  0.18920412  1.0
  Sb  Sb441  1  0.14551467  0.14551467  0.13920412  1.0
  Sb  Sb442  1  0.14551467  0.47884800  0.13920413  1.0
  Sb  Sb443  1  0.14551467  0.81218133  0.13920412  1.0
  Sb  Sb444  1  0.47884800  0.14551467  0.13920412  1.0
  Sb  Sb445  1  0.47884800  0.47884800  0.13920412  1.0
  Sb  Sb446  1  0.47884800  0.81218133  0.13920413  1.0
  Sb  Sb447  1  0.81218133  0.14551467  0.13920412  1.0
  Sb  Sb448  1  0.81218133  0.47884800  0.13920413  1.0
  Sb  Sb449  1  0.81218133  0.81218133  0.13920412  1.0
  Sb  Sb450  1  0.18781867  0.18781867  0.15662972  1.0
  Sb  Sb451  1  0.18781867  0.52115200  0.15662972  1.0
  Sb  Sb452  1  0.18781867  0.85448533  0.15662973  1.0
  Sb  Sb453  1  0.52115200  0.18781867  0.15662972  1.0
  Sb  Sb454  1  0.52115200  0.52115200  0.15662972  1.0
  Sb  Sb455  1  0.52115200  0.85448533  0.15662972  1.0
  Sb  Sb456  1  0.85448533  0.18781867  0.15662973  1.0
  Sb  Sb457  1  0.85448533  0.52115200  0.15662972  1.0
  Sb  Sb458  1  0.85448533  0.85448533  0.15662972  1.0
  Sb  Sb459  1  0.02115200  0.02115200  0.10662972  1.0
  Sb  Sb460  1  0.02115200  0.35448533  0.10662973  1.0
  Sb  Sb461  1  0.02115200  0.68781867  0.10662972  1.0
  Sb  Sb462  1  0.35448533  0.02115200  0.10662972  1.0
  Sb  Sb463  1  0.35448533  0.35448533  0.10662972  1.0
  Sb  Sb464  1  0.35448533  0.68781867  0.10662973  1.0
  Sb  Sb465  1  0.68781867  0.02115200  0.10662972  1.0
  Sb  Sb466  1  0.68781867  0.35448533  0.10662973  1.0
  Sb  Sb467  1  0.68781867  0.68781867  0.10662973  1.0
  Sb  Sb468  1  0.23286200  0.23286200  0.16832293  1.0
  Sb  Sb469  1  0.23286200  0.56619533  0.16832293  1.0
  Sb  Sb470  1  0.23286200  0.89952867  0.16832292  1.0
  Sb  Sb471  1  0.56619533  0.23286200  0.16832293  1.0
  Sb  Sb472  1  0.56619533  0.56619533  0.16832292  1.0
  Sb  Sb473  1  0.56619533  0.89952867  0.16832292  1.0
  Sb  Sb474  1  0.89952867  0.23286200  0.16832293  1.0
  Sb  Sb475  1  0.89952867  0.56619533  0.16832292  1.0
  Sb  Sb476  1  0.89952867  0.89952867  0.16832292  1.0
  Sb  Sb477  1  0.06619533  0.06619533  0.11832292  1.0
  Sb  Sb478  1  0.06619533  0.39952867  0.11832293  1.0
  Sb  Sb479  1  0.06619533  0.73286200  0.11832293  1.0
  Sb  Sb480  1  0.39952867  0.06619533  0.11832293  1.0
  Sb  Sb481  1  0.39952867  0.39952867  0.11832292  1.0
  Sb  Sb482  1  0.39952867  0.73286200  0.11832293  1.0
  Sb  Sb483  1  0.73286200  0.06619533  0.11832293  1.0
  Sb  Sb484  1  0.73286200  0.39952867  0.11832293  1.0
  Sb  Sb485  1  0.73286200  0.73286200  0.11832292  1.0
  Sb  Sb486  1  0.26713800  0.26713800  0.17751092  1.0
  Sb  Sb487  1  0.26713800  0.60047133  0.17751092  1.0
  Sb  Sb488  1  0.26713800  0.93380467  0.17751092  1.0
  Sb  Sb489  1  0.60047133  0.26713800  0.17751092  1.0
  Sb  Sb490  1  0.60047133  0.60047133  0.17751092  1.0
  Sb  Sb491  1  0.60047133  0.93380467  0.17751092  1.0
  Sb  Sb492  1  0.93380467  0.26713800  0.17751092  1.0
  Sb  Sb493  1  0.93380467  0.60047133  0.17751092  1.0
  Sb  Sb494  1  0.93380467  0.93380467  0.17751092  1.0
  Sb  Sb495  1  0.10047133  0.10047133  0.12751093  1.0
  Sb  Sb496  1  0.10047133  0.43380467  0.12751093  1.0
  Sb  Sb497  1  0.10047133  0.76713800  0.12751093  1.0
  Sb  Sb498  1  0.43380467  0.10047133  0.12751092  1.0
  Sb  Sb499  1  0.43380467  0.43380467  0.12751092  1.0
  Sb  Sb500  1  0.43380467  0.76713800  0.12751093  1.0
  Sb  Sb501  1  0.76713800  0.10047133  0.12751093  1.0
  Sb  Sb502  1  0.76713800  0.43380467  0.12751093  1.0
  Sb  Sb503  1  0.76713800  0.76713800  0.12751093  1.0
  Ni  Ni504  1  0.29200050  0.12399850  0.26071738  1.0
  Ni  Ni505  1  0.29200050  0.45733183  0.26071737  1.0
  Ni  Ni506  1  0.29200050  0.79066517  0.26071738  1.0
  Ni  Ni507  1  0.62533383  0.12399850  0.26071738  1.0
  Ni  Ni508  1  0.62533383  0.45733183  0.26071737  1.0
  Ni  Ni509  1  0.62533383  0.79066517  0.26071738  1.0
  Ni  Ni510  1  0.95866717  0.12399850  0.26071737  1.0
  Ni  Ni511  1  0.95866717  0.45733183  0.26071738  1.0
  Ni  Ni512  1  0.95866717  0.79066517  0.26071738  1.0
  Ni  Ni513  1  0.12533383  0.29066517  0.21071737  1.0
  Ni  Ni514  1  0.12533383  0.62399850  0.21071738  1.0
  Ni  Ni515  1  0.12533383  0.95733183  0.21071737  1.0
  Ni  Ni516  1  0.45866717  0.29066517  0.21071738  1.0
  Ni  Ni517  1  0.45866717  0.62399850  0.21071738  1.0
  Ni  Ni518  1  0.45866717  0.95733183  0.21071737  1.0
  Ni  Ni519  1  0.79200050  0.29066517  0.21071737  1.0
  Ni  Ni520  1  0.79200050  0.62399850  0.21071737  1.0
  Ni  Ni521  1  0.79200050  0.95733183  0.21071737  1.0
  Ni  Ni522  1  0.20799950  0.04266817  0.28511648  1.0
  Ni  Ni523  1  0.20799950  0.37600150  0.28511648  1.0
  Ni  Ni524  1  0.20799950  0.70933483  0.28511648  1.0
  Ni  Ni525  1  0.54133283  0.04266817  0.28511648  1.0
  Ni  Ni526  1  0.54133283  0.37600150  0.28511648  1.0
  Ni  Ni527  1  0.54133283  0.70933483  0.28511647  1.0
  Ni  Ni528  1  0.87466617  0.04266817  0.28511648  1.0
  Ni  Ni529  1  0.87466617  0.37600150  0.28511648  1.0
  Ni  Ni530  1  0.87466617  0.70933483  0.28511647  1.0
  Ni  Ni531  1  0.04133283  0.20933483  0.23511648  1.0
  Ni  Ni532  1  0.04133283  0.54266817  0.23511648  1.0
  Ni  Ni533  1  0.04133283  0.87600150  0.23511647  1.0
  Ni  Ni534  1  0.37466617  0.20933483  0.23511647  1.0
  Ni  Ni535  1  0.37466617  0.54266817  0.23511648  1.0
  Ni  Ni536  1  0.37466617  0.87600150  0.23511647  1.0
  Ni  Ni537  1  0.70799950  0.20933483  0.23511647  1.0
  Ni  Ni538  1  0.70799950  0.54266817  0.23511647  1.0
  Ni  Ni539  1  0.70799950  0.87600150  0.23511647  1.0
  Ni  Ni540  1  0.22870117  0.22870117  0.21435628  1.0
  Ni  Ni541  1  0.22870117  0.56203450  0.21435628  1.0
  Ni  Ni542  1  0.22870117  0.89536783  0.21435628  1.0
  Ni  Ni543  1  0.56203450  0.22870117  0.21435627  1.0
  Ni  Ni544  1  0.56203450  0.56203450  0.21435627  1.0
  Ni  Ni545  1  0.56203450  0.89536783  0.21435628  1.0
  Ni  Ni546  1  0.89536783  0.22870117  0.21435628  1.0
  Ni  Ni547  1  0.89536783  0.56203450  0.21435628  1.0
  Ni  Ni548  1  0.89536783  0.89536783  0.21435628  1.0
  Ni  Ni549  1  0.06203450  0.06203450  0.26435628  1.0
  Ni  Ni550  1  0.06203450  0.39536783  0.26435628  1.0
  Ni  Ni551  1  0.06203450  0.72870117  0.26435628  1.0
  Ni  Ni552  1  0.39536783  0.06203450  0.26435628  1.0
  Ni  Ni553  1  0.39536783  0.39536783  0.26435628  1.0
  Ni  Ni554  1  0.39536783  0.72870117  0.26435628  1.0
  Ni  Ni555  1  0.72870117  0.06203450  0.26435628  1.0
  Ni  Ni556  1  0.72870117  0.39536783  0.26435628  1.0
  Ni  Ni557  1  0.72870117  0.72870117  0.26435628  1.0
  Ni  Ni558  1  0.27129883  0.27129883  0.23147757  1.0
  Ni  Ni559  1  0.27129883  0.60463217  0.23147758  1.0
  Ni  Ni560  1  0.27129883  0.93796550  0.23147758  1.0
  Ni  Ni561  1  0.60463217  0.27129883  0.23147757  1.0
  Ni  Ni562  1  0.60463217  0.60463217  0.23147757  1.0
  Ni  Ni563  1  0.60463217  0.93796550  0.23147758  1.0
  Ni  Ni564  1  0.93796550  0.27129883  0.23147757  1.0
  Ni  Ni565  1  0.93796550  0.60463217  0.23147758  1.0
  Ni  Ni566  1  0.93796550  0.93796550  0.23147758  1.0
  Ni  Ni567  1  0.10463217  0.10463217  0.28147757  1.0
  Ni  Ni568  1  0.10463217  0.43796550  0.28147757  1.0
  Ni  Ni569  1  0.10463217  0.77129883  0.28147758  1.0
  Ni  Ni570  1  0.43796550  0.10463217  0.28147758  1.0
  Ni  Ni571  1  0.43796550  0.43796550  0.28147758  1.0
  Ni  Ni572  1  0.43796550  0.77129883  0.28147758  1.0
  Ni  Ni573  1  0.77129883  0.10463217  0.28147758  1.0
  Ni  Ni574  1  0.77129883  0.43796550  0.28147758  1.0
  Ni  Ni575  1  0.77129883  0.77129883  0.28147758  1.0
  Ni  Ni576  1  0.31636100  0.31636100  0.24353543  1.0
  Ni  Ni577  1  0.31636100  0.64969433  0.24353542  1.0
  Ni  Ni578  1  0.31636100  0.98302767  0.24353543  1.0
  Ni  Ni579  1  0.64969433  0.31636100  0.24353542  1.0
  Ni  Ni580  1  0.64969433  0.64969433  0.24353542  1.0
  Ni  Ni581  1  0.64969433  0.98302767  0.24353542  1.0
  Ni  Ni582  1  0.98302767  0.31636100  0.24353543  1.0
  Ni  Ni583  1  0.98302767  0.64969433  0.24353542  1.0
  Ni  Ni584  1  0.98302767  0.98302767  0.24353542  1.0
  Ni  Ni585  1  0.14969433  0.14969433  0.29353542  1.0
  Ni  Ni586  1  0.14969433  0.48302767  0.29353542  1.0
  Ni  Ni587  1  0.14969433  0.81636100  0.29353542  1.0
  Ni  Ni588  1  0.48302767  0.14969433  0.29353542  1.0
  Ni  Ni589  1  0.48302767  0.48302767  0.29353542  1.0
  Ni  Ni590  1  0.48302767  0.81636100  0.29353542  1.0
  Ni  Ni591  1  0.81636100  0.14969433  0.29353542  1.0
  Ni  Ni592  1  0.81636100  0.48302767  0.29353543  1.0
  Ni  Ni593  1  0.81636100  0.81636100  0.29353542  1.0
  Ni  Ni594  1  0.18363900  0.18363900  0.20229843  1.0
  Ni  Ni595  1  0.18363900  0.51697233  0.20229843  1.0
  Ni  Ni596  1  0.18363900  0.85030567  0.20229843  1.0
  Ni  Ni597  1  0.51697233  0.18363900  0.20229843  1.0
  Ni  Ni598  1  0.51697233  0.51697233  0.20229843  1.0
  Ni  Ni599  1  0.51697233  0.85030567  0.20229843  1.0
  Ni  Ni600  1  0.85030567  0.18363900  0.20229843  1.0
  Ni  Ni601  1  0.85030567  0.51697233  0.20229843  1.0
  Ni  Ni602  1  0.85030567  0.85030567  0.20229842  1.0
  Ni  Ni603  1  0.01697233  0.01697233  0.25229842  1.0
  Ni  Ni604  1  0.01697233  0.35030567  0.25229842  1.0
  Ni  Ni605  1  0.01697233  0.68363900  0.25229842  1.0
  Ni  Ni606  1  0.35030567  0.01697233  0.25229843  1.0
  Ni  Ni607  1  0.35030567  0.35030567  0.25229842  1.0
  Ni  Ni608  1  0.35030567  0.68363900  0.25229843  1.0
  Ni  Ni609  1  0.68363900  0.01697233  0.25229842  1.0
  Ni  Ni610  1  0.68363900  0.35030567  0.25229842  1.0
  Ni  Ni611  1  0.68363900  0.68363900  0.25229842  1.0
  Ni  Ni612  1  0.25394950  0.08547817  0.29813228  1.0
  Ni  Ni613  1  0.25394950  0.41881150  0.29813228  1.0
  Ni  Ni614  1  0.25394950  0.75214483  0.29813228  1.0
  Ni  Ni615  1  0.58728283  0.08547817  0.29813228  1.0
  Ni  Ni616  1  0.58728283  0.41881150  0.29813228  1.0
  Ni  Ni617  1  0.58728283  0.75214483  0.29813228  1.0
  Ni  Ni618  1  0.92061617  0.08547817  0.29813228  1.0
  Ni  Ni619  1  0.92061617  0.41881150  0.29813228  1.0
  Ni  Ni620  1  0.92061617  0.75214483  0.29813228  1.0
  Ni  Ni621  1  0.08728283  0.25214483  0.24813228  1.0
  Ni  Ni622  1  0.08728283  0.58547817  0.24813227  1.0
  Ni  Ni623  1  0.08728283  0.91881150  0.24813228  1.0
  Ni  Ni624  1  0.42061617  0.25214483  0.24813228  1.0
  Ni  Ni625  1  0.42061617  0.58547817  0.24813228  1.0
  Ni  Ni626  1  0.42061617  0.91881150  0.24813228  1.0
  Ni  Ni627  1  0.75394950  0.25214483  0.24813228  1.0
  Ni  Ni628  1  0.75394950  0.58547817  0.24813228  1.0
  Ni  Ni629  1  0.75394950  0.91881150  0.24813228  1.0
  Ni  Ni630  1  0.33028617  0.16181483  0.22351367  1.0
  Ni  Ni631  1  0.33028617  0.49514817  0.22351367  1.0
  Ni  Ni632  1  0.33028617  0.82848150  0.22351368  1.0
  Ni  Ni633  1  0.66361950  0.16181483  0.22351367  1.0
  Ni  Ni634  1  0.66361950  0.49514817  0.22351367  1.0
  Ni  Ni635  1  0.66361950  0.82848150  0.22351367  1.0
  Ni  Ni636  1  0.99695283  0.16181483  0.22351368  1.0
  Ni  Ni637  1  0.99695283  0.49514817  0.22351367  1.0
  Ni  Ni638  1  0.99695283  0.82848150  0.22351367  1.0
  Ni  Ni639  1  0.16361950  0.32848150  0.27351368  1.0
  Ni  Ni640  1  0.16361950  0.66181483  0.27351367  1.0
  Ni  Ni641  1  0.16361950  0.99514817  0.27351368  1.0
  Ni  Ni642  1  0.49695283  0.32848150  0.27351368  1.0
  Ni  Ni643  1  0.49695283  0.66181483  0.27351368  1.0
  Ni  Ni644  1  0.49695283  0.99514817  0.27351367  1.0
  Ni  Ni645  1  0.83028617  0.32848150  0.27351368  1.0
  Ni  Ni646  1  0.83028617  0.66181483  0.27351367  1.0
  Ni  Ni647  1  0.83028617  0.99514817  0.27351368  1.0
  Ni  Ni648  1  0.16971383  0.00485183  0.22232018  1.0
  Ni  Ni649  1  0.16971383  0.33818517  0.22232018  1.0
  Ni  Ni650  1  0.16971383  0.67151850  0.22232018  1.0
  Ni  Ni651  1  0.50304717  0.00485183  0.22232018  1.0
  Ni  Ni652  1  0.50304717  0.33818517  0.22232018  1.0
  Ni  Ni653  1  0.50304717  0.67151850  0.22232018  1.0
  Ni  Ni654  1  0.83638050  0.00485183  0.22232018  1.0
  Ni  Ni655  1  0.83638050  0.33818517  0.22232018  1.0
  Ni  Ni656  1  0.83638050  0.67151850  0.22232017  1.0
  Ni  Ni657  1  0.00304717  0.17151850  0.27232017  1.0
  Ni  Ni658  1  0.00304717  0.50485183  0.27232018  1.0
  Ni  Ni659  1  0.00304717  0.83818517  0.27232017  1.0
  Ni  Ni660  1  0.33638050  0.17151850  0.27232018  1.0
  Ni  Ni661  1  0.33638050  0.50485183  0.27232017  1.0
  Ni  Ni662  1  0.33638050  0.83818517  0.27232017  1.0
  Ni  Ni663  1  0.66971383  0.17151850  0.27232018  1.0
  Ni  Ni664  1  0.66971383  0.50485183  0.27232018  1.0
  Ni  Ni665  1  0.66971383  0.83818517  0.27232017  1.0
  Ni  Ni666  1  0.24605050  0.08118850  0.24770157  1.0
  Ni  Ni667  1  0.24605050  0.41452183  0.24770157  1.0
  Ni  Ni668  1  0.24605050  0.74785517  0.24770158  1.0
  Ni  Ni669  1  0.57938383  0.08118850  0.24770157  1.0
  Ni  Ni670  1  0.57938383  0.41452183  0.24770157  1.0
  Ni  Ni671  1  0.57938383  0.74785517  0.24770157  1.0
  Ni  Ni672  1  0.91271717  0.08118850  0.24770158  1.0
  Ni  Ni673  1  0.91271717  0.41452183  0.24770158  1.0
  Ni  Ni674  1  0.91271717  0.74785517  0.24770157  1.0
  Ni  Ni675  1  0.07938383  0.24785517  0.29770157  1.0
  Ni  Ni676  1  0.07938383  0.58118850  0.29770157  1.0
  Ni  Ni677  1  0.07938383  0.91452183  0.29770158  1.0
  Ni  Ni678  1  0.41271717  0.24785517  0.29770157  1.0
  Ni  Ni679  1  0.41271717  0.58118850  0.29770157  1.0
  Ni  Ni680  1  0.41271717  0.91452183  0.29770157  1.0
  Ni  Ni681  1  0.74605050  0.24785517  0.29770157  1.0
  Ni  Ni682  1  0.74605050  0.58118850  0.29770158  1.0
  Ni  Ni683  1  0.74605050  0.91452183  0.29770157  1.0
  Sb  Sb684  1  0.31218133  0.31218133  0.28920412  1.0
  Sb  Sb685  1  0.31218133  0.64551467  0.28920412  1.0
  Sb  Sb686  1  0.31218133  0.97884800  0.28920412  1.0
  Sb  Sb687  1  0.64551467  0.31218133  0.28920413  1.0
  Sb  Sb688  1  0.64551467  0.64551467  0.28920412  1.0
  Sb  Sb689  1  0.64551467  0.97884800  0.28920412  1.0
  Sb  Sb690  1  0.97884800  0.31218133  0.28920412  1.0
  Sb  Sb691  1  0.97884800  0.64551467  0.28920413  1.0
  Sb  Sb692  1  0.97884800  0.97884800  0.28920412  1.0
  Sb  Sb693  1  0.14551467  0.14551467  0.23920412  1.0
  Sb  Sb694  1  0.14551467  0.47884800  0.23920412  1.0
  Sb  Sb695  1  0.14551467  0.81218133  0.23920412  1.0
  Sb  Sb696  1  0.47884800  0.14551467  0.23920412  1.0
  Sb  Sb697  1  0.47884800  0.47884800  0.23920412  1.0
  Sb  Sb698  1  0.47884800  0.81218133  0.23920412  1.0
  Sb  Sb699  1  0.81218133  0.14551467  0.23920413  1.0
  Sb  Sb700  1  0.81218133  0.47884800  0.23920412  1.0
  Sb  Sb701  1  0.81218133  0.81218133  0.23920412  1.0
  Sb  Sb702  1  0.18781867  0.18781867  0.25662972  1.0
  Sb  Sb703  1  0.18781867  0.52115200  0.25662972  1.0
  Sb  Sb704  1  0.18781867  0.85448533  0.25662973  1.0
  Sb  Sb705  1  0.52115200  0.18781867  0.25662972  1.0
  Sb  Sb706  1  0.52115200  0.52115200  0.25662972  1.0
  Sb  Sb707  1  0.52115200  0.85448533  0.25662972  1.0
  Sb  Sb708  1  0.85448533  0.18781867  0.25662973  1.0
  Sb  Sb709  1  0.85448533  0.52115200  0.25662972  1.0
  Sb  Sb710  1  0.85448533  0.85448533  0.25662972  1.0
  Sb  Sb711  1  0.02115200  0.02115200  0.20662973  1.0
  Sb  Sb712  1  0.02115200  0.35448533  0.20662972  1.0
  Sb  Sb713  1  0.02115200  0.68781867  0.20662973  1.0
  Sb  Sb714  1  0.35448533  0.02115200  0.20662972  1.0
  Sb  Sb715  1  0.35448533  0.35448533  0.20662972  1.0
  Sb  Sb716  1  0.35448533  0.68781867  0.20662972  1.0
  Sb  Sb717  1  0.68781867  0.02115200  0.20662973  1.0
  Sb  Sb718  1  0.68781867  0.35448533  0.20662972  1.0
  Sb  Sb719  1  0.68781867  0.68781867  0.20662972  1.0
  Sb  Sb720  1  0.23286200  0.23286200  0.26832293  1.0
  Sb  Sb721  1  0.23286200  0.56619533  0.26832293  1.0
  Sb  Sb722  1  0.23286200  0.89952867  0.26832292  1.0
  Sb  Sb723  1  0.56619533  0.23286200  0.26832293  1.0
  Sb  Sb724  1  0.56619533  0.56619533  0.26832292  1.0
  Sb  Sb725  1  0.56619533  0.89952867  0.26832292  1.0
  Sb  Sb726  1  0.89952867  0.23286200  0.26832292  1.0
  Sb  Sb727  1  0.89952867  0.56619533  0.26832292  1.0
  Sb  Sb728  1  0.89952867  0.89952867  0.26832292  1.0
  Sb  Sb729  1  0.06619533  0.06619533  0.21832293  1.0
  Sb  Sb730  1  0.06619533  0.39952867  0.21832293  1.0
  Sb  Sb731  1  0.06619533  0.73286200  0.21832293  1.0
  Sb  Sb732  1  0.39952867  0.06619533  0.21832293  1.0
  Sb  Sb733  1  0.39952867  0.39952867  0.21832292  1.0
  Sb  Sb734  1  0.39952867  0.73286200  0.21832293  1.0
  Sb  Sb735  1  0.73286200  0.06619533  0.21832293  1.0
  Sb  Sb736  1  0.73286200  0.39952867  0.21832293  1.0
  Sb  Sb737  1  0.73286200  0.73286200  0.21832292  1.0
  Sb  Sb738  1  0.26713800  0.26713800  0.27751093  1.0
  Sb  Sb739  1  0.26713800  0.60047133  0.27751092  1.0
  Sb  Sb740  1  0.26713800  0.93380467  0.27751092  1.0
  Sb  Sb741  1  0.60047133  0.26713800  0.27751092  1.0
  Sb  Sb742  1  0.60047133  0.60047133  0.27751092  1.0
  Sb  Sb743  1  0.60047133  0.93380467  0.27751092  1.0
  Sb  Sb744  1  0.93380467  0.26713800  0.27751092  1.0
  Sb  Sb745  1  0.93380467  0.60047133  0.27751092  1.0
  Sb  Sb746  1  0.93380467  0.93380467  0.27751092  1.0
  Sb  Sb747  1  0.10047133  0.10047133  0.22751093  1.0
  Sb  Sb748  1  0.10047133  0.43380467  0.22751093  1.0
  Sb  Sb749  1  0.10047133  0.76713800  0.22751093  1.0
  Sb  Sb750  1  0.43380467  0.10047133  0.22751093  1.0
  Sb  Sb751  1  0.43380467  0.43380467  0.22751092  1.0
  Sb  Sb752  1  0.43380467  0.76713800  0.22751093  1.0
  Sb  Sb753  1  0.76713800  0.10047133  0.22751093  1.0
  Sb  Sb754  1  0.76713800  0.43380467  0.22751093  1.0
  Sb  Sb755  1  0.76713800  0.76713800  0.22751093  1.0
  Ni  Ni756  1  0.29200050  0.12399850  0.36071738  1.0
  Ni  Ni757  1  0.29200050  0.45733183  0.36071737  1.0
  Ni  Ni758  1  0.29200050  0.79066517  0.36071738  1.0
  Ni  Ni759  1  0.62533383  0.12399850  0.36071738  1.0
  Ni  Ni760  1  0.62533383  0.45733183  0.36071737  1.0
  Ni  Ni761  1  0.62533383  0.79066517  0.36071738  1.0
  Ni  Ni762  1  0.95866717  0.12399850  0.36071738  1.0
  Ni  Ni763  1  0.95866717  0.45733183  0.36071738  1.0
  Ni  Ni764  1  0.95866717  0.79066517  0.36071738  1.0
  Ni  Ni765  1  0.12533383  0.29066517  0.31071737  1.0
  Ni  Ni766  1  0.12533383  0.62399850  0.31071737  1.0
  Ni  Ni767  1  0.12533383  0.95733183  0.31071737  1.0
  Ni  Ni768  1  0.45866717  0.29066517  0.31071737  1.0
  Ni  Ni769  1  0.45866717  0.62399850  0.31071737  1.0
  Ni  Ni770  1  0.45866717  0.95733183  0.31071738  1.0
  Ni  Ni771  1  0.79200050  0.29066517  0.31071737  1.0
  Ni  Ni772  1  0.79200050  0.62399850  0.31071737  1.0
  Ni  Ni773  1  0.79200050  0.95733183  0.31071737  1.0
  Ni  Ni774  1  0.20799950  0.04266817  0.38511647  1.0
  Ni  Ni775  1  0.20799950  0.37600150  0.38511647  1.0
  Ni  Ni776  1  0.20799950  0.70933483  0.38511647  1.0
  Ni  Ni777  1  0.54133283  0.04266817  0.38511647  1.0
  Ni  Ni778  1  0.54133283  0.37600150  0.38511647  1.0
  Ni  Ni779  1  0.54133283  0.70933483  0.38511648  1.0
  Ni  Ni780  1  0.87466617  0.04266817  0.38511647  1.0
  Ni  Ni781  1  0.87466617  0.37600150  0.38511648  1.0
  Ni  Ni782  1  0.87466617  0.70933483  0.38511647  1.0
  Ni  Ni783  1  0.04133283  0.20933483  0.33511648  1.0
  Ni  Ni784  1  0.04133283  0.54266817  0.33511648  1.0
  Ni  Ni785  1  0.04133283  0.87600150  0.33511647  1.0
  Ni  Ni786  1  0.37466617  0.20933483  0.33511648  1.0
  Ni  Ni787  1  0.37466617  0.54266817  0.33511648  1.0
  Ni  Ni788  1  0.37466617  0.87600150  0.33511647  1.0
  Ni  Ni789  1  0.70799950  0.20933483  0.33511647  1.0
  Ni  Ni790  1  0.70799950  0.54266817  0.33511647  1.0
  Ni  Ni791  1  0.70799950  0.87600150  0.33511647  1.0
  Ni  Ni792  1  0.22870117  0.22870117  0.31435628  1.0
  Ni  Ni793  1  0.22870117  0.56203450  0.31435628  1.0
  Ni  Ni794  1  0.22870117  0.89536783  0.31435628  1.0
  Ni  Ni795  1  0.56203450  0.22870117  0.31435627  1.0
  Ni  Ni796  1  0.56203450  0.56203450  0.31435627  1.0
  Ni  Ni797  1  0.56203450  0.89536783  0.31435628  1.0
  Ni  Ni798  1  0.89536783  0.22870117  0.31435628  1.0
  Ni  Ni799  1  0.89536783  0.56203450  0.31435628  1.0
  Ni  Ni800  1  0.89536783  0.89536783  0.31435627  1.0
  Ni  Ni801  1  0.06203450  0.06203450  0.36435628  1.0
  Ni  Ni802  1  0.06203450  0.39536783  0.36435628  1.0
  Ni  Ni803  1  0.06203450  0.72870117  0.36435628  1.0
  Ni  Ni804  1  0.39536783  0.06203450  0.36435628  1.0
  Ni  Ni805  1  0.39536783  0.39536783  0.36435628  1.0
  Ni  Ni806  1  0.39536783  0.72870117  0.36435628  1.0
  Ni  Ni807  1  0.72870117  0.06203450  0.36435628  1.0
  Ni  Ni808  1  0.72870117  0.39536783  0.36435628  1.0
  Ni  Ni809  1  0.72870117  0.72870117  0.36435627  1.0
  Ni  Ni810  1  0.27129883  0.27129883  0.33147758  1.0
  Ni  Ni811  1  0.27129883  0.60463217  0.33147758  1.0
  Ni  Ni812  1  0.27129883  0.93796550  0.33147758  1.0
  Ni  Ni813  1  0.60463217  0.27129883  0.33147757  1.0
  Ni  Ni814  1  0.60463217  0.60463217  0.33147757  1.0
  Ni  Ni815  1  0.60463217  0.93796550  0.33147758  1.0
  Ni  Ni816  1  0.93796550  0.27129883  0.33147758  1.0
  Ni  Ni817  1  0.93796550  0.60463217  0.33147758  1.0
  Ni  Ni818  1  0.93796550  0.93796550  0.33147758  1.0
  Ni  Ni819  1  0.10463217  0.10463217  0.38147758  1.0
  Ni  Ni820  1  0.10463217  0.43796550  0.38147758  1.0
  Ni  Ni821  1  0.10463217  0.77129883  0.38147758  1.0
  Ni  Ni822  1  0.43796550  0.10463217  0.38147758  1.0
  Ni  Ni823  1  0.43796550  0.43796550  0.38147758  1.0
  Ni  Ni824  1  0.43796550  0.77129883  0.38147758  1.0
  Ni  Ni825  1  0.77129883  0.10463217  0.38147758  1.0
  Ni  Ni826  1  0.77129883  0.43796550  0.38147758  1.0
  Ni  Ni827  1  0.77129883  0.77129883  0.38147758  1.0
  Ni  Ni828  1  0.31636100  0.31636100  0.34353543  1.0
  Ni  Ni829  1  0.31636100  0.64969433  0.34353542  1.0
  Ni  Ni830  1  0.31636100  0.98302767  0.34353543  1.0
  Ni  Ni831  1  0.64969433  0.31636100  0.34353542  1.0
  Ni  Ni832  1  0.64969433  0.64969433  0.34353543  1.0
  Ni  Ni833  1  0.64969433  0.98302767  0.34353542  1.0
  Ni  Ni834  1  0.98302767  0.31636100  0.34353543  1.0
  Ni  Ni835  1  0.98302767  0.64969433  0.34353542  1.0
  Ni  Ni836  1  0.98302767  0.98302767  0.34353542  1.0
  Ni  Ni837  1  0.14969433  0.14969433  0.39353543  1.0
  Ni  Ni838  1  0.14969433  0.48302767  0.39353542  1.0
  Ni  Ni839  1  0.14969433  0.81636100  0.39353542  1.0
  Ni  Ni840  1  0.48302767  0.14969433  0.39353542  1.0
  Ni  Ni841  1  0.48302767  0.48302767  0.39353542  1.0
  Ni  Ni842  1  0.48302767  0.81636100  0.39353543  1.0
  Ni  Ni843  1  0.81636100  0.14969433  0.39353542  1.0
  Ni  Ni844  1  0.81636100  0.48302767  0.39353543  1.0
  Ni  Ni845  1  0.81636100  0.81636100  0.39353543  1.0
  Ni  Ni846  1  0.18363900  0.18363900  0.30229842  1.0
  Ni  Ni847  1  0.18363900  0.51697233  0.30229843  1.0
  Ni  Ni848  1  0.18363900  0.85030567  0.30229842  1.0
  Ni  Ni849  1  0.51697233  0.18363900  0.30229843  1.0
  Ni  Ni850  1  0.51697233  0.51697233  0.30229842  1.0
  Ni  Ni851  1  0.51697233  0.85030567  0.30229843  1.0
  Ni  Ni852  1  0.85030567  0.18363900  0.30229842  1.0
  Ni  Ni853  1  0.85030567  0.51697233  0.30229843  1.0
  Ni  Ni854  1  0.85030567  0.85030567  0.30229842  1.0
  Ni  Ni855  1  0.01697233  0.01697233  0.35229842  1.0
  Ni  Ni856  1  0.01697233  0.35030567  0.35229842  1.0
  Ni  Ni857  1  0.01697233  0.68363900  0.35229842  1.0
  Ni  Ni858  1  0.35030567  0.01697233  0.35229843  1.0
  Ni  Ni859  1  0.35030567  0.35030567  0.35229842  1.0
  Ni  Ni860  1  0.35030567  0.68363900  0.35229843  1.0
  Ni  Ni861  1  0.68363900  0.01697233  0.35229842  1.0
  Ni  Ni862  1  0.68363900  0.35030567  0.35229842  1.0
  Ni  Ni863  1  0.68363900  0.68363900  0.35229842  1.0
  Ni  Ni864  1  0.25394950  0.08547817  0.39813228  1.0
  Ni  Ni865  1  0.25394950  0.41881150  0.39813228  1.0
  Ni  Ni866  1  0.25394950  0.75214483  0.39813228  1.0
  Ni  Ni867  1  0.58728283  0.08547817  0.39813228  1.0
  Ni  Ni868  1  0.58728283  0.41881150  0.39813228  1.0
  Ni  Ni869  1  0.58728283  0.75214483  0.39813228  1.0
  Ni  Ni870  1  0.92061617  0.08547817  0.39813228  1.0
  Ni  Ni871  1  0.92061617  0.41881150  0.39813228  1.0
  Ni  Ni872  1  0.92061617  0.75214483  0.39813228  1.0
  Ni  Ni873  1  0.08728283  0.25214483  0.34813227  1.0
  Ni  Ni874  1  0.08728283  0.58547817  0.34813227  1.0
  Ni  Ni875  1  0.08728283  0.91881150  0.34813227  1.0
  Ni  Ni876  1  0.42061617  0.25214483  0.34813227  1.0
  Ni  Ni877  1  0.42061617  0.58547817  0.34813227  1.0
  Ni  Ni878  1  0.42061617  0.91881150  0.34813227  1.0
  Ni  Ni879  1  0.75394950  0.25214483  0.34813227  1.0
  Ni  Ni880  1  0.75394950  0.58547817  0.34813227  1.0
  Ni  Ni881  1  0.75394950  0.91881150  0.34813227  1.0
  Ni  Ni882  1  0.33028617  0.16181483  0.32351367  1.0
  Ni  Ni883  1  0.33028617  0.49514817  0.32351367  1.0
  Ni  Ni884  1  0.33028617  0.82848150  0.32351368  1.0
  Ni  Ni885  1  0.66361950  0.16181483  0.32351367  1.0
  Ni  Ni886  1  0.66361950  0.49514817  0.32351367  1.0
  Ni  Ni887  1  0.66361950  0.82848150  0.32351367  1.0
  Ni  Ni888  1  0.99695283  0.16181483  0.32351368  1.0
  Ni  Ni889  1  0.99695283  0.49514817  0.32351367  1.0
  Ni  Ni890  1  0.99695283  0.82848150  0.32351368  1.0
  Ni  Ni891  1  0.16361950  0.32848150  0.37351367  1.0
  Ni  Ni892  1  0.16361950  0.66181483  0.37351367  1.0
  Ni  Ni893  1  0.16361950  0.99514817  0.37351368  1.0
  Ni  Ni894  1  0.49695283  0.32848150  0.37351367  1.0
  Ni  Ni895  1  0.49695283  0.66181483  0.37351367  1.0
  Ni  Ni896  1  0.49695283  0.99514817  0.37351367  1.0
  Ni  Ni897  1  0.83028617  0.32848150  0.37351367  1.0
  Ni  Ni898  1  0.83028617  0.66181483  0.37351367  1.0
  Ni  Ni899  1  0.83028617  0.99514817  0.37351367  1.0
  Ni  Ni900  1  0.16971383  0.00485183  0.32232018  1.0
  Ni  Ni901  1  0.16971383  0.33818517  0.32232018  1.0
  Ni  Ni902  1  0.16971383  0.67151850  0.32232018  1.0
  Ni  Ni903  1  0.50304717  0.00485183  0.32232018  1.0
  Ni  Ni904  1  0.50304717  0.33818517  0.32232018  1.0
  Ni  Ni905  1  0.50304717  0.67151850  0.32232018  1.0
  Ni  Ni906  1  0.83638050  0.00485183  0.32232017  1.0
  Ni  Ni907  1  0.83638050  0.33818517  0.32232017  1.0
  Ni  Ni908  1  0.83638050  0.67151850  0.32232017  1.0
  Ni  Ni909  1  0.00304717  0.17151850  0.37232017  1.0
  Ni  Ni910  1  0.00304717  0.50485183  0.37232018  1.0
  Ni  Ni911  1  0.00304717  0.83818517  0.37232018  1.0
  Ni  Ni912  1  0.33638050  0.17151850  0.37232017  1.0
  Ni  Ni913  1  0.33638050  0.50485183  0.37232017  1.0
  Ni  Ni914  1  0.33638050  0.83818517  0.37232017  1.0
  Ni  Ni915  1  0.66971383  0.17151850  0.37232018  1.0
  Ni  Ni916  1  0.66971383  0.50485183  0.37232018  1.0
  Ni  Ni917  1  0.66971383  0.83818517  0.37232017  1.0
  Ni  Ni918  1  0.24605050  0.08118850  0.34770157  1.0
  Ni  Ni919  1  0.24605050  0.41452183  0.34770157  1.0
  Ni  Ni920  1  0.24605050  0.74785517  0.34770157  1.0
  Ni  Ni921  1  0.57938383  0.08118850  0.34770157  1.0
  Ni  Ni922  1  0.57938383  0.41452183  0.34770157  1.0
  Ni  Ni923  1  0.57938383  0.74785517  0.34770157  1.0
  Ni  Ni924  1  0.91271717  0.08118850  0.34770157  1.0
  Ni  Ni925  1  0.91271717  0.41452183  0.34770157  1.0
  Ni  Ni926  1  0.91271717  0.74785517  0.34770158  1.0
  Ni  Ni927  1  0.07938383  0.24785517  0.39770158  1.0
  Ni  Ni928  1  0.07938383  0.58118850  0.39770157  1.0
  Ni  Ni929  1  0.07938383  0.91452183  0.39770158  1.0
  Ni  Ni930  1  0.41271717  0.24785517  0.39770157  1.0
  Ni  Ni931  1  0.41271717  0.58118850  0.39770158  1.0
  Ni  Ni932  1  0.41271717  0.91452183  0.39770157  1.0
  Ni  Ni933  1  0.74605050  0.24785517  0.39770157  1.0
  Ni  Ni934  1  0.74605050  0.58118850  0.39770158  1.0
  Ni  Ni935  1  0.74605050  0.91452183  0.39770157  1.0
  Sb  Sb936  1  0.31218133  0.31218133  0.38920412  1.0
  Sb  Sb937  1  0.31218133  0.64551467  0.38920413  1.0
  Sb  Sb938  1  0.31218133  0.97884800  0.38920412  1.0
  Sb  Sb939  1  0.64551467  0.31218133  0.38920413  1.0
  Sb  Sb940  1  0.64551467  0.64551467  0.38920412  1.0
  Sb  Sb941  1  0.64551467  0.97884800  0.38920413  1.0
  Sb  Sb942  1  0.97884800  0.31218133  0.38920412  1.0
  Sb  Sb943  1  0.97884800  0.64551467  0.38920412  1.0
  Sb  Sb944  1  0.97884800  0.97884800  0.38920412  1.0
  Sb  Sb945  1  0.14551467  0.14551467  0.33920412  1.0
  Sb  Sb946  1  0.14551467  0.47884800  0.33920412  1.0
  Sb  Sb947  1  0.14551467  0.81218133  0.33920412  1.0
  Sb  Sb948  1  0.47884800  0.14551467  0.33920412  1.0
  Sb  Sb949  1  0.47884800  0.47884800  0.33920413  1.0
  Sb  Sb950  1  0.47884800  0.81218133  0.33920412  1.0
  Sb  Sb951  1  0.81218133  0.14551467  0.33920413  1.0
  Sb  Sb952  1  0.81218133  0.47884800  0.33920412  1.0
  Sb  Sb953  1  0.81218133  0.81218133  0.33920412  1.0
  Sb  Sb954  1  0.18781867  0.18781867  0.35662972  1.0
  Sb  Sb955  1  0.18781867  0.52115200  0.35662972  1.0
  Sb  Sb956  1  0.18781867  0.85448533  0.35662973  1.0
  Sb  Sb957  1  0.52115200  0.18781867  0.35662972  1.0
  Sb  Sb958  1  0.52115200  0.52115200  0.35662972  1.0
  Sb  Sb959  1  0.52115200  0.85448533  0.35662972  1.0
  Sb  Sb960  1  0.85448533  0.18781867  0.35662972  1.0
  Sb  Sb961  1  0.85448533  0.52115200  0.35662972  1.0
  Sb  Sb962  1  0.85448533  0.85448533  0.35662972  1.0
  Sb  Sb963  1  0.02115200  0.02115200  0.30662972  1.0
  Sb  Sb964  1  0.02115200  0.35448533  0.30662972  1.0
  Sb  Sb965  1  0.02115200  0.68781867  0.30662972  1.0
  Sb  Sb966  1  0.35448533  0.02115200  0.30662972  1.0
  Sb  Sb967  1  0.35448533  0.35448533  0.30662972  1.0
  Sb  Sb968  1  0.35448533  0.68781867  0.30662972  1.0
  Sb  Sb969  1  0.68781867  0.02115200  0.30662972  1.0
  Sb  Sb970  1  0.68781867  0.35448533  0.30662972  1.0
  Sb  Sb971  1  0.68781867  0.68781867  0.30662972  1.0
  Sb  Sb972  1  0.23286200  0.23286200  0.36832293  1.0
  Sb  Sb973  1  0.23286200  0.56619533  0.36832292  1.0
  Sb  Sb974  1  0.23286200  0.89952867  0.36832292  1.0
  Sb  Sb975  1  0.56619533  0.23286200  0.36832292  1.0
  Sb  Sb976  1  0.56619533  0.56619533  0.36832292  1.0
  Sb  Sb977  1  0.56619533  0.89952867  0.36832292  1.0
  Sb  Sb978  1  0.89952867  0.23286200  0.36832292  1.0
  Sb  Sb979  1  0.89952867  0.56619533  0.36832292  1.0
  Sb  Sb980  1  0.89952867  0.89952867  0.36832292  1.0
  Sb  Sb981  1  0.06619533  0.06619533  0.31832292  1.0
  Sb  Sb982  1  0.06619533  0.39952867  0.31832292  1.0
  Sb  Sb983  1  0.06619533  0.73286200  0.31832293  1.0
  Sb  Sb984  1  0.39952867  0.06619533  0.31832292  1.0
  Sb  Sb985  1  0.39952867  0.39952867  0.31832292  1.0
  Sb  Sb986  1  0.39952867  0.73286200  0.31832292  1.0
  Sb  Sb987  1  0.73286200  0.06619533  0.31832292  1.0
  Sb  Sb988  1  0.73286200  0.39952867  0.31832292  1.0
  Sb  Sb989  1  0.73286200  0.73286200  0.31832292  1.0
  Sb  Sb990  1  0.26713800  0.26713800  0.37751092  1.0
  Sb  Sb991  1  0.26713800  0.60047133  0.37751092  1.0
  Sb  Sb992  1  0.26713800  0.93380467  0.37751092  1.0
  Sb  Sb993  1  0.60047133  0.26713800  0.37751092  1.0
  Sb  Sb994  1  0.60047133  0.60047133  0.37751092  1.0
  Sb  Sb995  1  0.60047133  0.93380467  0.37751092  1.0
  Sb  Sb996  1  0.93380467  0.26713800  0.37751092  1.0
  Sb  Sb997  1  0.93380467  0.60047133  0.37751093  1.0
  Sb  Sb998  1  0.93380467  0.93380467  0.37751093  1.0
  Sb  Sb999  1  0.10047133  0.10047133  0.32751093  1.0
  Sb  Sb1000  1  0.10047133  0.43380467  0.32751093  1.0
  Sb  Sb1001  1  0.10047133  0.76713800  0.32751093  1.0
  Sb  Sb1002  1  0.43380467  0.10047133  0.32751093  1.0
  Sb  Sb1003  1  0.43380467  0.43380467  0.32751092  1.0
  Sb  Sb1004  1  0.43380467  0.76713800  0.32751093  1.0
  Sb  Sb1005  1  0.76713800  0.10047133  0.32751093  1.0
  Sb  Sb1006  1  0.76713800  0.43380467  0.32751093  1.0
  Sb  Sb1007  1  0.76713800  0.76713800  0.32751092  1.0
