# generated using pymatgen
data_Ni5Sb2
_symmetry_space_group_name_H-M   'P 1'
_cell_length_a   21.17727643
_cell_length_b   49.73648223
_cell_length_c   30.05808678
_cell_angle_alpha   95.03858628
_cell_angle_beta   93.14496952
_cell_angle_gamma   100.89850382
_symmetry_Int_Tables_number   1
_chemical_formula_structural   Ni5Sb2
_chemical_formula_sum   'Ni720 Sb288'
_cell_volume   30885.75177669
_cell_formula_units_Z   144
loop_
 _symmetry_equiv_pos_site_id
 _symmetry_equiv_pos_as_xyz
  1  'x, y, z'
loop_
 _atom_site_type_symbol
 _atom_site_label
 _atom_site_symmetry_multiplicity
 _atom_site_fract_x
 _atom_site_fract_y
 _atom_site_fract_z
 _atom_site_occupancy
  Ni  Ni0  1  0.24091911  0.11802242  0.00731142  1.0
  Ni  Ni1  1  0.24091911  0.45135575  0.00731142  1.0
  Ni  Ni2  1  0.24091911  0.78468908  0.00731142  1.0
  Ni  Ni3  1  0.57425244  0.11802242  0.00731142  1.0
  Ni  Ni4  1  0.57425244  0.45135575  0.00731142  1.0
  Ni  Ni5  1  0.57425244  0.78468908  0.00731142  1.0
  Ni  Ni6  1  0.90758578  0.11802242  0.00731142  1.0
  Ni  Ni7  1  0.90758578  0.45135575  0.00731142  1.0
  Ni  Ni8  1  0.90758578  0.78468908  0.00731142  1.0
  Ni  Ni9  1  0.16684504  0.22913353  0.06286697  1.0
  Ni  Ni10  1  0.16684504  0.56246686  0.06286697  1.0
  Ni  Ni11  1  0.16684504  0.89580019  0.06286697  1.0
  Ni  Ni12  1  0.50017837  0.22913353  0.06286697  1.0
  Ni  Ni13  1  0.50017837  0.56246686  0.06286697  1.0
  Ni  Ni14  1  0.50017837  0.89580019  0.06286697  1.0
  Ni  Ni15  1  0.83351170  0.22913353  0.06286697  1.0
  Ni  Ni16  1  0.83351170  0.56246686  0.06286697  1.0
  Ni  Ni17  1  0.83351170  0.89580019  0.06286697  1.0
  Ni  Ni18  1  0.03677030  0.00691131  0.03442153  1.0
  Ni  Ni19  1  0.03677030  0.34024464  0.03442153  1.0
  Ni  Ni20  1  0.03677030  0.67357797  0.03442153  1.0
  Ni  Ni21  1  0.37010363  0.00691131  0.03442153  1.0
  Ni  Ni22  1  0.37010363  0.34024464  0.03442153  1.0
  Ni  Ni23  1  0.37010363  0.67357797  0.03442153  1.0
  Ni  Ni24  1  0.70343696  0.00691131  0.03442153  1.0
  Ni  Ni25  1  0.70343696  0.34024464  0.03442153  1.0
  Ni  Ni26  1  0.70343696  0.67357797  0.03442153  1.0
  Ni  Ni27  1  0.29602956  0.11802242  0.08997708  1.0
  Ni  Ni28  1  0.29602956  0.45135575  0.08997708  1.0
  Ni  Ni29  1  0.29602956  0.78468908  0.08997708  1.0
  Ni  Ni30  1  0.62936289  0.11802242  0.08997708  1.0
  Ni  Ni31  1  0.62936289  0.45135575  0.08997708  1.0
  Ni  Ni32  1  0.62936289  0.78468908  0.08997708  1.0
  Ni  Ni33  1  0.96269622  0.11802242  0.08997708  1.0
  Ni  Ni34  1  0.96269622  0.45135575  0.08997708  1.0
  Ni  Ni35  1  0.96269622  0.78468908  0.08997708  1.0
  Ni  Ni36  1  0.09785519  0.18412364  0.01966036  1.0
  Ni  Ni37  1  0.09785519  0.51745697  0.01966036  1.0
  Ni  Ni38  1  0.09785519  0.85079031  0.01966036  1.0
  Ni  Ni39  1  0.43118852  0.18412364  0.01966036  1.0
  Ni  Ni40  1  0.43118852  0.51745697  0.01966036  1.0
  Ni  Ni41  1  0.43118852  0.85079031  0.01966036  1.0
  Ni  Ni42  1  0.76452185  0.18412364  0.01966036  1.0
  Ni  Ni43  1  0.76452185  0.51745697  0.01966036  1.0
  Ni  Ni44  1  0.76452185  0.85079031  0.01966036  1.0
  Ni  Ni45  1  0.02378111  0.29523475  0.07521592  1.0
  Ni  Ni46  1  0.02378111  0.62856808  0.07521592  1.0
  Ni  Ni47  1  0.02378111  0.96190142  0.07521592  1.0
  Ni  Ni48  1  0.35711444  0.29523475  0.07521592  1.0
  Ni  Ni49  1  0.35711444  0.62856808  0.07521592  1.0
  Ni  Ni50  1  0.35711444  0.96190142  0.07521592  1.0
  Ni  Ni51  1  0.69044778  0.29523475  0.07521592  1.0
  Ni  Ni52  1  0.69044778  0.62856808  0.07521592  1.0
  Ni  Ni53  1  0.69044778  0.96190142  0.07521592  1.0
  Ni  Ni54  1  0.10576015  0.05192119  0.07762814  1.0
  Ni  Ni55  1  0.10576015  0.38525453  0.07762814  1.0
  Ni  Ni56  1  0.10576015  0.71858786  0.07762814  1.0
  Ni  Ni57  1  0.43909348  0.05192119  0.07762814  1.0
  Ni  Ni58  1  0.43909348  0.38525453  0.07762814  1.0
  Ni  Ni59  1  0.43909348  0.71858786  0.07762814  1.0
  Ni  Ni60  1  0.77242681  0.05192119  0.07762814  1.0
  Ni  Ni61  1  0.77242681  0.38525453  0.07762814  1.0
  Ni  Ni62  1  0.77242681  0.71858786  0.07762814  1.0
  Ni  Ni63  1  0.17983422  0.27414342  0.02207258  1.0
  Ni  Ni64  1  0.17983422  0.60747675  0.02207258  1.0
  Ni  Ni65  1  0.17983422  0.94081008  0.02207258  1.0
  Ni  Ni66  1  0.51316756  0.27414342  0.02207258  1.0
  Ni  Ni67  1  0.51316756  0.60747675  0.02207258  1.0
  Ni  Ni68  1  0.51316756  0.94081008  0.02207258  1.0
  Ni  Ni69  1  0.84650089  0.27414342  0.02207258  1.0
  Ni  Ni70  1  0.84650089  0.60747675  0.02207258  1.0
  Ni  Ni71  1  0.84650089  0.94081008  0.02207258  1.0
  Ni  Ni72  1  0.19696656  0.14042242  0.07681658  1.0
  Ni  Ni73  1  0.19696656  0.47375575  0.07681658  1.0
  Ni  Ni74  1  0.19696656  0.80708908  0.07681658  1.0
  Ni  Ni75  1  0.53029989  0.14042242  0.07681658  1.0
  Ni  Ni76  1  0.53029989  0.47375575  0.07681658  1.0
  Ni  Ni77  1  0.53029989  0.80708908  0.07681658  1.0
  Ni  Ni78  1  0.86363322  0.14042242  0.07681658  1.0
  Ni  Ni79  1  0.86363322  0.47375575  0.07681658  1.0
  Ni  Ni80  1  0.86363322  0.80708908  0.07681658  1.0
  Ni  Ni81  1  0.27104063  0.02931131  0.02126103  1.0
  Ni  Ni82  1  0.27104063  0.36264464  0.02126103  1.0
  Ni  Ni83  1  0.27104063  0.69597797  0.02126103  1.0
  Ni  Ni84  1  0.60437396  0.02931131  0.02126103  1.0
  Ni  Ni85  1  0.60437396  0.36264464  0.02126103  1.0
  Ni  Ni86  1  0.60437396  0.69597797  0.02126103  1.0
  Ni  Ni87  1  0.93770730  0.02931131  0.02126103  1.0
  Ni  Ni88  1  0.93770730  0.36264464  0.02126103  1.0
  Ni  Ni89  1  0.93770730  0.69597797  0.02126103  1.0
  Ni  Ni90  1  0.00664878  0.09562242  0.02047192  1.0
  Ni  Ni91  1  0.00664878  0.42895575  0.02047192  1.0
  Ni  Ni92  1  0.00664878  0.76228908  0.02047192  1.0
  Ni  Ni93  1  0.33998211  0.09562242  0.02047192  1.0
  Ni  Ni94  1  0.33998211  0.42895575  0.02047192  1.0
  Ni  Ni95  1  0.33998211  0.76228908  0.02047192  1.0
  Ni  Ni96  1  0.67331544  0.09562242  0.02047192  1.0
  Ni  Ni97  1  0.67331544  0.42895575  0.02047192  1.0
  Ni  Ni98  1  0.67331544  0.76228908  0.02047192  1.0
  Ni  Ni99  1  0.26590804  0.20673353  0.07602747  1.0
  Ni  Ni100  1  0.26590804  0.54006686  0.07602747  1.0
  Ni  Ni101  1  0.26590804  0.87340019  0.07602747  1.0
  Ni  Ni102  1  0.59924137  0.20673353  0.07602747  1.0
  Ni  Ni103  1  0.59924137  0.54006686  0.07602747  1.0
  Ni  Ni104  1  0.59924137  0.87340019  0.07602747  1.0
  Ni  Ni105  1  0.93257470  0.20673353  0.07602747  1.0
  Ni  Ni106  1  0.93257470  0.54006686  0.07602747  1.0
  Ni  Ni107  1  0.93257470  0.87340019  0.07602747  1.0
  Ni  Ni108  1  0.12854230  0.09586331  0.03451753  1.0
  Ni  Ni109  1  0.12854230  0.42919664  0.03451753  1.0
  Ni  Ni110  1  0.12854230  0.76252997  0.03451753  1.0
  Ni  Ni111  1  0.46187563  0.09586331  0.03451753  1.0
  Ni  Ni112  1  0.46187563  0.42919664  0.03451753  1.0
  Ni  Ni113  1  0.46187563  0.76252997  0.03451753  1.0
  Ni  Ni114  1  0.79520896  0.09586331  0.03451753  1.0
  Ni  Ni115  1  0.79520896  0.42919664  0.03451753  1.0
  Ni  Ni116  1  0.79520896  0.76252997  0.03451753  1.0
  Ni  Ni117  1  0.05446822  0.20697442  0.09007308  1.0
  Ni  Ni118  1  0.05446822  0.54030775  0.09007308  1.0
  Ni  Ni119  1  0.05446822  0.87364108  0.09007308  1.0
  Ni  Ni120  1  0.38780156  0.20697442  0.09007308  1.0
  Ni  Ni121  1  0.38780156  0.54030775  0.09007308  1.0
  Ni  Ni122  1  0.38780156  0.87364108  0.09007308  1.0
  Ni  Ni123  1  0.72113489  0.20697442  0.09007308  1.0
  Ni  Ni124  1  0.72113489  0.54030775  0.09007308  1.0
  Ni  Ni125  1  0.72113489  0.87364108  0.09007308  1.0
  Ni  Ni126  1  0.27937830  0.25129264  0.03589553  1.0
  Ni  Ni127  1  0.27937830  0.58462597  0.03589553  1.0
  Ni  Ni128  1  0.27937830  0.91795931  0.03589553  1.0
  Ni  Ni129  1  0.61271163  0.25129264  0.03589553  1.0
  Ni  Ni130  1  0.61271163  0.58462597  0.03589553  1.0
  Ni  Ni131  1  0.61271163  0.91795931  0.03589553  1.0
  Ni  Ni132  1  0.94604496  0.25129264  0.03589553  1.0
  Ni  Ni133  1  0.94604496  0.58462597  0.03589553  1.0
  Ni  Ni134  1  0.94604496  0.91795931  0.03589553  1.0
  Ni  Ni135  1  0.20530422  0.02907042  0.09145108  1.0
  Ni  Ni136  1  0.20530422  0.36240375  0.09145108  1.0
  Ni  Ni137  1  0.20530422  0.69573708  0.09145108  1.0
  Ni  Ni138  1  0.53863756  0.02907042  0.09145108  1.0
  Ni  Ni139  1  0.53863756  0.36240375  0.09145108  1.0
  Ni  Ni140  1  0.53863756  0.69573708  0.09145108  1.0
  Ni  Ni141  1  0.87197089  0.02907042  0.09145108  1.0
  Ni  Ni142  1  0.87197089  0.36240375  0.09145108  1.0
  Ni  Ni143  1  0.87197089  0.69573708  0.09145108  1.0
  Ni  Ni144  1  0.25757037  0.31808553  0.06139297  1.0
  Ni  Ni145  1  0.25757037  0.65141886  0.06139297  1.0
  Ni  Ni146  1  0.25757037  0.98475219  0.06139297  1.0
  Ni  Ni147  1  0.59090370  0.31808553  0.06139297  1.0
  Ni  Ni148  1  0.59090370  0.65141886  0.06139297  1.0
  Ni  Ni149  1  0.59090370  0.98475219  0.06139297  1.0
  Ni  Ni150  1  0.92423704  0.31808553  0.06139297  1.0
  Ni  Ni151  1  0.92423704  0.65141886  0.06139297  1.0
  Ni  Ni152  1  0.92423704  0.98475219  0.06139297  1.0
  Ni  Ni153  1  0.33164444  0.20697442  0.00583742  1.0
  Ni  Ni154  1  0.33164444  0.54030775  0.00583742  1.0
  Ni  Ni155  1  0.33164444  0.87364108  0.00583742  1.0
  Ni  Ni156  1  0.66497778  0.20697442  0.00583742  1.0
  Ni  Ni157  1  0.66497778  0.54030775  0.00583742  1.0
  Ni  Ni158  1  0.66497778  0.87364108  0.00583742  1.0
  Ni  Ni159  1  0.99831111  0.20697442  0.00583742  1.0
  Ni  Ni160  1  0.99831111  0.54030775  0.00583742  1.0
  Ni  Ni161  1  0.99831111  0.87364108  0.00583742  1.0
  Ni  Ni162  1  0.07507304  0.14018153  0.06277097  1.0
  Ni  Ni163  1  0.07507304  0.47351486  0.06277097  1.0
  Ni  Ni164  1  0.07507304  0.80684819  0.06277097  1.0
  Ni  Ni165  1  0.40840637  0.14018153  0.06277097  1.0
  Ni  Ni166  1  0.40840637  0.47351486  0.06277097  1.0
  Ni  Ni167  1  0.40840637  0.80684819  0.06277097  1.0
  Ni  Ni168  1  0.74173970  0.14018153  0.06277097  1.0
  Ni  Ni169  1  0.74173970  0.47351486  0.06277097  1.0
  Ni  Ni170  1  0.74173970  0.80684819  0.06277097  1.0
  Ni  Ni171  1  0.14914711  0.02907042  0.00721542  1.0
  Ni  Ni172  1  0.14914711  0.36240375  0.00721542  1.0
  Ni  Ni173  1  0.14914711  0.69573708  0.00721542  1.0
  Ni  Ni174  1  0.48248044  0.02907042  0.00721542  1.0
  Ni  Ni175  1  0.48248044  0.36240375  0.00721542  1.0
  Ni  Ni176  1  0.48248044  0.69573708  0.00721542  1.0
  Ni  Ni177  1  0.81581378  0.02907042  0.00721542  1.0
  Ni  Ni178  1  0.81581378  0.36240375  0.00721542  1.0
  Ni  Ni179  1  0.81581378  0.69573708  0.00721542  1.0
  Ni  Ni180  1  0.09277096  0.00691131  0.11842253  1.0
  Ni  Ni181  1  0.09277096  0.34024464  0.11842253  1.0
  Ni  Ni182  1  0.09277096  0.67357797  0.11842253  1.0
  Ni  Ni183  1  0.42610430  0.00691131  0.11842253  1.0
  Ni  Ni184  1  0.42610430  0.34024464  0.11842253  1.0
  Ni  Ni185  1  0.42610430  0.67357797  0.11842253  1.0
  Ni  Ni186  1  0.75943763  0.00691131  0.11842253  1.0
  Ni  Ni187  1  0.75943763  0.34024464  0.11842253  1.0
  Ni  Ni188  1  0.75943763  0.67357797  0.11842253  1.0
  Ni  Ni189  1  0.01869689  0.11802242  0.17397808  1.0
  Ni  Ni190  1  0.01869689  0.45135575  0.17397808  1.0
  Ni  Ni191  1  0.01869689  0.78468908  0.17397808  1.0
  Ni  Ni192  1  0.35203022  0.11802242  0.17397808  1.0
  Ni  Ni193  1  0.35203022  0.45135575  0.17397808  1.0
  Ni  Ni194  1  0.35203022  0.78468908  0.17397808  1.0
  Ni  Ni195  1  0.68536356  0.11802242  0.17397808  1.0
  Ni  Ni196  1  0.68536356  0.45135575  0.17397808  1.0
  Ni  Ni197  1  0.68536356  0.78468908  0.17397808  1.0
  Ni  Ni198  1  0.22195548  0.22913353  0.14553264  1.0
  Ni  Ni199  1  0.22195548  0.56246686  0.14553264  1.0
  Ni  Ni200  1  0.22195548  0.89580019  0.14553264  1.0
  Ni  Ni201  1  0.55528881  0.22913353  0.14553264  1.0
  Ni  Ni202  1  0.55528881  0.56246686  0.14553264  1.0
  Ni  Ni203  1  0.55528881  0.89580019  0.14553264  1.0
  Ni  Ni204  1  0.88862215  0.22913353  0.14553264  1.0
  Ni  Ni205  1  0.88862215  0.56246686  0.14553264  1.0
  Ni  Ni206  1  0.88862215  0.89580019  0.14553264  1.0
  Ni  Ni207  1  0.14788141  0.00691131  0.20108819  1.0
  Ni  Ni208  1  0.14788141  0.34024464  0.20108819  1.0
  Ni  Ni209  1  0.14788141  0.67357797  0.20108819  1.0
  Ni  Ni210  1  0.48121474  0.00691131  0.20108819  1.0
  Ni  Ni211  1  0.48121474  0.34024464  0.20108819  1.0
  Ni  Ni212  1  0.48121474  0.67357797  0.20108819  1.0
  Ni  Ni213  1  0.81454807  0.00691131  0.20108819  1.0
  Ni  Ni214  1  0.81454807  0.34024464  0.20108819  1.0
  Ni  Ni215  1  0.81454807  0.67357797  0.20108819  1.0
  Ni  Ni216  1  0.28304037  0.07301253  0.13077147  1.0
  Ni  Ni217  1  0.28304037  0.40634586  0.13077147  1.0
  Ni  Ni218  1  0.28304037  0.73967919  0.13077147  1.0
  Ni  Ni219  1  0.61637370  0.07301253  0.13077147  1.0
  Ni  Ni220  1  0.61637370  0.40634586  0.13077147  1.0
  Ni  Ni221  1  0.61637370  0.73967919  0.13077147  1.0
  Ni  Ni222  1  0.94970704  0.07301253  0.13077147  1.0
  Ni  Ni223  1  0.94970704  0.40634586  0.13077147  1.0
  Ni  Ni224  1  0.94970704  0.73967919  0.13077147  1.0
  Ni  Ni225  1  0.20896630  0.18412364  0.18632703  1.0
  Ni  Ni226  1  0.20896630  0.51745697  0.18632703  1.0
  Ni  Ni227  1  0.20896630  0.85079031  0.18632703  1.0
  Ni  Ni228  1  0.54229963  0.18412364  0.18632703  1.0
  Ni  Ni229  1  0.54229963  0.51745697  0.18632703  1.0
  Ni  Ni230  1  0.54229963  0.85079031  0.18632703  1.0
  Ni  Ni231  1  0.87563296  0.18412364  0.18632703  1.0
  Ni  Ni232  1  0.87563296  0.51745697  0.18632703  1.0
  Ni  Ni233  1  0.87563296  0.85079031  0.18632703  1.0
  Ni  Ni234  1  0.29094533  0.27414342  0.18873925  1.0
  Ni  Ni235  1  0.29094533  0.60747675  0.18873925  1.0
  Ni  Ni236  1  0.29094533  0.94081008  0.18873925  1.0
  Ni  Ni237  1  0.62427867  0.27414342  0.18873925  1.0
  Ni  Ni238  1  0.62427867  0.60747675  0.18873925  1.0
  Ni  Ni239  1  0.62427867  0.94081008  0.18873925  1.0
  Ni  Ni240  1  0.95761200  0.27414342  0.18873925  1.0
  Ni  Ni241  1  0.95761200  0.60747675  0.18873925  1.0
  Ni  Ni242  1  0.95761200  0.94081008  0.18873925  1.0
  Ni  Ni243  1  0.03168607  0.16303231  0.13318369  1.0
  Ni  Ni244  1  0.03168607  0.49636564  0.13318369  1.0
  Ni  Ni245  1  0.03168607  0.82969897  0.13318369  1.0
  Ni  Ni246  1  0.36501941  0.16303231  0.13318369  1.0
  Ni  Ni247  1  0.36501941  0.49636564  0.13318369  1.0
  Ni  Ni248  1  0.36501941  0.82969897  0.13318369  1.0
  Ni  Ni249  1  0.69835274  0.16303231  0.13318369  1.0
  Ni  Ni250  1  0.69835274  0.49636564  0.13318369  1.0
  Ni  Ni251  1  0.69835274  0.82969897  0.13318369  1.0
  Ni  Ni252  1  0.04881841  0.02931131  0.18792769  1.0
  Ni  Ni253  1  0.04881841  0.36264464  0.18792769  1.0
  Ni  Ni254  1  0.04881841  0.69597797  0.18792769  1.0
  Ni  Ni255  1  0.38215174  0.02931131  0.18792769  1.0
  Ni  Ni256  1  0.38215174  0.36264464  0.18792769  1.0
  Ni  Ni257  1  0.38215174  0.69597797  0.18792769  1.0
  Ni  Ni258  1  0.71548507  0.02931131  0.18792769  1.0
  Ni  Ni259  1  0.71548507  0.36264464  0.18792769  1.0
  Ni  Ni260  1  0.71548507  0.69597797  0.18792769  1.0
  Ni  Ni261  1  0.12289248  0.25153353  0.13237214  1.0
  Ni  Ni262  1  0.12289248  0.58486686  0.13237214  1.0
  Ni  Ni263  1  0.12289248  0.91820019  0.13237214  1.0
  Ni  Ni264  1  0.45622581  0.25153353  0.13237214  1.0
  Ni  Ni265  1  0.45622581  0.58486686  0.13237214  1.0
  Ni  Ni266  1  0.45622581  0.91820019  0.13237214  1.0
  Ni  Ni267  1  0.78955915  0.25153353  0.13237214  1.0
  Ni  Ni268  1  0.78955915  0.58486686  0.13237214  1.0
  Ni  Ni269  1  0.78955915  0.91820019  0.13237214  1.0
  Ni  Ni270  1  0.19183396  0.31784464  0.13158303  1.0
  Ni  Ni271  1  0.19183396  0.65117797  0.13158303  1.0
  Ni  Ni272  1  0.19183396  0.98451131  0.13158303  1.0
  Ni  Ni273  1  0.52516730  0.31784464  0.13158303  1.0
  Ni  Ni274  1  0.52516730  0.65117797  0.13158303  1.0
  Ni  Ni275  1  0.52516730  0.98451131  0.13158303  1.0
  Ni  Ni276  1  0.85850063  0.31784464  0.13158303  1.0
  Ni  Ni277  1  0.85850063  0.65117797  0.13158303  1.0
  Ni  Ni278  1  0.85850063  0.98451131  0.13158303  1.0
  Ni  Ni279  1  0.11775989  0.09562242  0.18713858  1.0
  Ni  Ni280  1  0.11775989  0.42895575  0.18713858  1.0
  Ni  Ni281  1  0.11775989  0.76228908  0.18713858  1.0
  Ni  Ni282  1  0.45109322  0.09562242  0.18713858  1.0
  Ni  Ni283  1  0.45109322  0.42895575  0.18713858  1.0
  Ni  Ni284  1  0.45109322  0.76228908  0.18713858  1.0
  Ni  Ni285  1  0.78442656  0.09562242  0.18713858  1.0
  Ni  Ni286  1  0.78442656  0.42895575  0.18713858  1.0
  Ni  Ni287  1  0.78442656  0.76228908  0.18713858  1.0
  Ni  Ni288  1  0.31372748  0.31808553  0.14562864  1.0
  Ni  Ni289  1  0.31372748  0.65141886  0.14562864  1.0
  Ni  Ni290  1  0.31372748  0.98475219  0.14562864  1.0
  Ni  Ni291  1  0.64706081  0.31808553  0.14562864  1.0
  Ni  Ni292  1  0.64706081  0.65141886  0.14562864  1.0
  Ni  Ni293  1  0.64706081  0.98475219  0.14562864  1.0
  Ni  Ni294  1  0.98039415  0.31808553  0.14562864  1.0
  Ni  Ni295  1  0.98039415  0.65141886  0.14562864  1.0
  Ni  Ni296  1  0.98039415  0.98475219  0.14562864  1.0
  Ni  Ni297  1  0.23965341  0.09586331  0.20118419  1.0
  Ni  Ni298  1  0.23965341  0.42919664  0.20118419  1.0
  Ni  Ni299  1  0.23965341  0.76252997  0.20118419  1.0
  Ni  Ni300  1  0.57298674  0.09586331  0.20118419  1.0
  Ni  Ni301  1  0.57298674  0.42919664  0.20118419  1.0
  Ni  Ni302  1  0.57298674  0.76252997  0.20118419  1.0
  Ni  Ni303  1  0.90632007  0.09586331  0.20118419  1.0
  Ni  Ni304  1  0.90632007  0.42919664  0.20118419  1.0
  Ni  Ni305  1  0.90632007  0.76252997  0.20118419  1.0
  Ni  Ni306  1  0.13123015  0.14018153  0.14700664  1.0
  Ni  Ni307  1  0.13123015  0.47351486  0.14700664  1.0
  Ni  Ni308  1  0.13123015  0.80684819  0.14700664  1.0
  Ni  Ni309  1  0.46456348  0.14018153  0.14700664  1.0
  Ni  Ni310  1  0.46456348  0.47351486  0.14700664  1.0
  Ni  Ni311  1  0.46456348  0.80684819  0.14700664  1.0
  Ni  Ni312  1  0.79789681  0.14018153  0.14700664  1.0
  Ni  Ni313  1  0.79789681  0.47351486  0.14700664  1.0
  Ni  Ni314  1  0.79789681  0.80684819  0.14700664  1.0
  Ni  Ni315  1  0.05715607  0.25129264  0.20256219  1.0
  Ni  Ni316  1  0.05715607  0.58462597  0.20256219  1.0
  Ni  Ni317  1  0.05715607  0.91795931  0.20256219  1.0
  Ni  Ni318  1  0.39048941  0.25129264  0.20256219  1.0
  Ni  Ni319  1  0.39048941  0.58462597  0.20256219  1.0
  Ni  Ni320  1  0.39048941  0.91795931  0.20256219  1.0
  Ni  Ni321  1  0.72382274  0.25129264  0.20256219  1.0
  Ni  Ni322  1  0.72382274  0.58462597  0.20256219  1.0
  Ni  Ni323  1  0.72382274  0.91795931  0.20256219  1.0
  Ni  Ni324  1  0.10942222  0.20697442  0.17250408  1.0
  Ni  Ni325  1  0.10942222  0.54030775  0.17250408  1.0
  Ni  Ni326  1  0.10942222  0.87364108  0.17250408  1.0
  Ni  Ni327  1  0.44275556  0.20697442  0.17250408  1.0
  Ni  Ni328  1  0.44275556  0.54030775  0.17250408  1.0
  Ni  Ni329  1  0.44275556  0.87364108  0.17250408  1.0
  Ni  Ni330  1  0.77608889  0.20697442  0.17250408  1.0
  Ni  Ni331  1  0.77608889  0.54030775  0.17250408  1.0
  Ni  Ni332  1  0.77608889  0.87364108  0.17250408  1.0
  Ni  Ni333  1  0.18349630  0.09586331  0.11694853  1.0
  Ni  Ni334  1  0.18349630  0.42919664  0.11694853  1.0
  Ni  Ni335  1  0.18349630  0.76252997  0.11694853  1.0
  Ni  Ni336  1  0.51682963  0.09586331  0.11694853  1.0
  Ni  Ni337  1  0.51682963  0.42919664  0.11694853  1.0
  Ni  Ni338  1  0.51682963  0.76252997  0.11694853  1.0
  Ni  Ni339  1  0.85016296  0.09586331  0.11694853  1.0
  Ni  Ni340  1  0.85016296  0.42919664  0.11694853  1.0
  Ni  Ni341  1  0.85016296  0.76252997  0.11694853  1.0
  Ni  Ni342  1  0.26025822  0.02907042  0.17388208  1.0
  Ni  Ni343  1  0.26025822  0.36240375  0.17388208  1.0
  Ni  Ni344  1  0.26025822  0.69573708  0.17388208  1.0
  Ni  Ni345  1  0.59359156  0.02907042  0.17388208  1.0
  Ni  Ni346  1  0.59359156  0.36240375  0.17388208  1.0
  Ni  Ni347  1  0.59359156  0.69573708  0.17388208  1.0
  Ni  Ni348  1  0.92692489  0.02907042  0.17388208  1.0
  Ni  Ni349  1  0.92692489  0.36240375  0.17388208  1.0
  Ni  Ni350  1  0.92692489  0.69573708  0.17388208  1.0
  Ni  Ni351  1  0.00099896  0.25129264  0.11832653  1.0
  Ni  Ni352  1  0.00099896  0.58462597  0.11832653  1.0
  Ni  Ni353  1  0.00099896  0.91795931  0.11832653  1.0
  Ni  Ni354  1  0.33433230  0.25129264  0.11832653  1.0
  Ni  Ni355  1  0.33433230  0.58462597  0.11832653  1.0
  Ni  Ni356  1  0.33433230  0.91795931  0.11832653  1.0
  Ni  Ni357  1  0.66766563  0.25129264  0.11832653  1.0
  Ni  Ni358  1  0.66766563  0.58462597  0.11832653  1.0
  Ni  Ni359  1  0.66766563  0.91795931  0.11832653  1.0
  Ni  Ni360  1  0.27795615  0.22913353  0.22953364  1.0
  Ni  Ni361  1  0.27795615  0.56246686  0.22953364  1.0
  Ni  Ni362  1  0.27795615  0.89580019  0.22953364  1.0
  Ni  Ni363  1  0.61128948  0.22913353  0.22953364  1.0
  Ni  Ni364  1  0.61128948  0.56246686  0.22953364  1.0
  Ni  Ni365  1  0.61128948  0.89580019  0.22953364  1.0
  Ni  Ni366  1  0.94462281  0.22913353  0.22953364  1.0
  Ni  Ni367  1  0.94462281  0.56246686  0.22953364  1.0
  Ni  Ni368  1  0.94462281  0.89580019  0.22953364  1.0
  Ni  Ni369  1  0.20388207  0.00691131  0.28508919  1.0
  Ni  Ni370  1  0.20388207  0.34024464  0.28508919  1.0
  Ni  Ni371  1  0.20388207  0.67357797  0.28508919  1.0
  Ni  Ni372  1  0.53721541  0.00691131  0.28508919  1.0
  Ni  Ni373  1  0.53721541  0.34024464  0.28508919  1.0
  Ni  Ni374  1  0.53721541  0.67357797  0.28508919  1.0
  Ni  Ni375  1  0.87054874  0.00691131  0.28508919  1.0
  Ni  Ni376  1  0.87054874  0.34024464  0.28508919  1.0
  Ni  Ni377  1  0.87054874  0.67357797  0.28508919  1.0
  Ni  Ni378  1  0.07380733  0.11802242  0.25664375  1.0
  Ni  Ni379  1  0.07380733  0.45135575  0.25664375  1.0
  Ni  Ni380  1  0.07380733  0.78468908  0.25664375  1.0
  Ni  Ni381  1  0.40714067  0.11802242  0.25664375  1.0
  Ni  Ni382  1  0.40714067  0.45135575  0.25664375  1.0
  Ni  Ni383  1  0.40714067  0.78468908  0.25664375  1.0
  Ni  Ni384  1  0.74047400  0.11802242  0.25664375  1.0
  Ni  Ni385  1  0.74047400  0.45135575  0.25664375  1.0
  Ni  Ni386  1  0.74047400  0.78468908  0.25664375  1.0
  Ni  Ni387  1  0.33306659  0.22913353  0.31219931  1.0
  Ni  Ni388  1  0.33306659  0.56246686  0.31219931  1.0
  Ni  Ni389  1  0.33306659  0.89580019  0.31219931  1.0
  Ni  Ni390  1  0.66639993  0.22913353  0.31219931  1.0
  Ni  Ni391  1  0.66639993  0.56246686  0.31219931  1.0
  Ni  Ni392  1  0.66639993  0.89580019  0.31219931  1.0
  Ni  Ni393  1  0.99973326  0.22913353  0.31219931  1.0
  Ni  Ni394  1  0.99973326  0.56246686  0.31219931  1.0
  Ni  Ni395  1  0.99973326  0.89580019  0.31219931  1.0
  Ni  Ni396  1  0.13489222  0.29523475  0.24188258  1.0
  Ni  Ni397  1  0.13489222  0.62856808  0.24188258  1.0
  Ni  Ni398  1  0.13489222  0.96190142  0.24188258  1.0
  Ni  Ni399  1  0.46822556  0.29523475  0.24188258  1.0
  Ni  Ni400  1  0.46822556  0.62856808  0.24188258  1.0
  Ni  Ni401  1  0.46822556  0.96190142  0.24188258  1.0
  Ni  Ni402  1  0.80155889  0.29523475  0.24188258  1.0
  Ni  Ni403  1  0.80155889  0.62856808  0.24188258  1.0
  Ni  Ni404  1  0.80155889  0.96190142  0.24188258  1.0
  Ni  Ni405  1  0.06081815  0.07301253  0.29743814  1.0
  Ni  Ni406  1  0.06081815  0.40634586  0.29743814  1.0
  Ni  Ni407  1  0.06081815  0.73967919  0.29743814  1.0
  Ni  Ni408  1  0.39415148  0.07301253  0.29743814  1.0
  Ni  Ni409  1  0.39415148  0.40634586  0.29743814  1.0
  Ni  Ni410  1  0.39415148  0.73967919  0.29743814  1.0
  Ni  Ni411  1  0.72748481  0.07301253  0.29743814  1.0
  Ni  Ni412  1  0.72748481  0.40634586  0.29743814  1.0
  Ni  Ni413  1  0.72748481  0.73967919  0.29743814  1.0
  Ni  Ni414  1  0.14279719  0.16303231  0.29985036  1.0
  Ni  Ni415  1  0.14279719  0.49636564  0.29985036  1.0
  Ni  Ni416  1  0.14279719  0.82969897  0.29985036  1.0
  Ni  Ni417  1  0.47613052  0.16303231  0.29985036  1.0
  Ni  Ni418  1  0.47613052  0.49636564  0.29985036  1.0
  Ni  Ni419  1  0.47613052  0.82969897  0.29985036  1.0
  Ni  Ni420  1  0.80946385  0.16303231  0.29985036  1.0
  Ni  Ni421  1  0.80946385  0.49636564  0.29985036  1.0
  Ni  Ni422  1  0.80946385  0.82969897  0.29985036  1.0
  Ni  Ni423  1  0.21687126  0.05192119  0.24429481  1.0
  Ni  Ni424  1  0.21687126  0.38525453  0.24429481  1.0
  Ni  Ni425  1  0.21687126  0.71858786  0.24429481  1.0
  Ni  Ni426  1  0.55020459  0.05192119  0.24429481  1.0
  Ni  Ni427  1  0.55020459  0.38525453  0.24429481  1.0
  Ni  Ni428  1  0.55020459  0.71858786  0.24429481  1.0
  Ni  Ni429  1  0.88353793  0.05192119  0.24429481  1.0
  Ni  Ni430  1  0.88353793  0.38525453  0.24429481  1.0
  Ni  Ni431  1  0.88353793  0.71858786  0.24429481  1.0
  Ni  Ni432  1  0.23400359  0.25153353  0.29903881  1.0
  Ni  Ni433  1  0.23400359  0.58486686  0.29903881  1.0
  Ni  Ni434  1  0.23400359  0.91820019  0.29903881  1.0
  Ni  Ni435  1  0.56733693  0.25153353  0.29903881  1.0
  Ni  Ni436  1  0.56733693  0.58486686  0.29903881  1.0
  Ni  Ni437  1  0.56733693  0.91820019  0.29903881  1.0
  Ni  Ni438  1  0.90067026  0.25153353  0.29903881  1.0
  Ni  Ni439  1  0.90067026  0.58486686  0.29903881  1.0
  Ni  Ni440  1  0.90067026  0.91820019  0.29903881  1.0
  Ni  Ni441  1  0.30807767  0.14042242  0.24348325  1.0
  Ni  Ni442  1  0.30807767  0.47375575  0.24348325  1.0
  Ni  Ni443  1  0.30807767  0.80708908  0.24348325  1.0
  Ni  Ni444  1  0.64141100  0.14042242  0.24348325  1.0
  Ni  Ni445  1  0.64141100  0.47375575  0.24348325  1.0
  Ni  Ni446  1  0.64141100  0.80708908  0.24348325  1.0
  Ni  Ni447  1  0.97474433  0.14042242  0.24348325  1.0
  Ni  Ni448  1  0.97474433  0.47375575  0.24348325  1.0
  Ni  Ni449  1  0.97474433  0.80708908  0.24348325  1.0
  Ni  Ni450  1  0.04368581  0.20673353  0.24269414  1.0
  Ni  Ni451  1  0.04368581  0.54006686  0.24269414  1.0
  Ni  Ni452  1  0.04368581  0.87340019  0.24269414  1.0
  Ni  Ni453  1  0.37701915  0.20673353  0.24269414  1.0
  Ni  Ni454  1  0.37701915  0.54006686  0.24269414  1.0
  Ni  Ni455  1  0.37701915  0.87340019  0.24269414  1.0
  Ni  Ni456  1  0.71035248  0.20673353  0.24269414  1.0
  Ni  Ni457  1  0.71035248  0.54006686  0.24269414  1.0
  Ni  Ni458  1  0.71035248  0.87340019  0.24269414  1.0
  Ni  Ni459  1  0.30294507  0.31784464  0.29824969  1.0
  Ni  Ni460  1  0.30294507  0.65117797  0.29824969  1.0
  Ni  Ni461  1  0.30294507  0.98451131  0.29824969  1.0
  Ni  Ni462  1  0.63627841  0.31784464  0.29824969  1.0
  Ni  Ni463  1  0.63627841  0.65117797  0.29824969  1.0
  Ni  Ni464  1  0.63627841  0.98451131  0.29824969  1.0
  Ni  Ni465  1  0.96961174  0.31784464  0.29824969  1.0
  Ni  Ni466  1  0.96961174  0.65117797  0.29824969  1.0
  Ni  Ni467  1  0.96961174  0.98451131  0.29824969  1.0
  Ni  Ni468  1  0.16557933  0.20697442  0.25673975  1.0
  Ni  Ni469  1  0.16557933  0.54030775  0.25673975  1.0
  Ni  Ni470  1  0.16557933  0.87364108  0.25673975  1.0
  Ni  Ni471  1  0.49891267  0.20697442  0.25673975  1.0
  Ni  Ni472  1  0.49891267  0.54030775  0.25673975  1.0
  Ni  Ni473  1  0.49891267  0.87364108  0.25673975  1.0
  Ni  Ni474  1  0.83224600  0.20697442  0.25673975  1.0
  Ni  Ni475  1  0.83224600  0.54030775  0.25673975  1.0
  Ni  Ni476  1  0.83224600  0.87364108  0.25673975  1.0
  Ni  Ni477  1  0.09150526  0.31808553  0.31229531  1.0
  Ni  Ni478  1  0.09150526  0.65141886  0.31229531  1.0
  Ni  Ni479  1  0.09150526  0.98475219  0.31229531  1.0
  Ni  Ni480  1  0.42483859  0.31808553  0.31229531  1.0
  Ni  Ni481  1  0.42483859  0.65141886  0.31229531  1.0
  Ni  Ni482  1  0.42483859  0.98475219  0.31229531  1.0
  Ni  Ni483  1  0.75817193  0.31808553  0.31229531  1.0
  Ni  Ni484  1  0.75817193  0.65141886  0.31229531  1.0
  Ni  Ni485  1  0.75817193  0.98475219  0.31229531  1.0
  Ni  Ni486  1  0.31641533  0.02907042  0.25811775  1.0
  Ni  Ni487  1  0.31641533  0.36240375  0.25811775  1.0
  Ni  Ni488  1  0.31641533  0.69573708  0.25811775  1.0
  Ni  Ni489  1  0.64974867  0.02907042  0.25811775  1.0
  Ni  Ni490  1  0.64974867  0.36240375  0.25811775  1.0
  Ni  Ni491  1  0.64974867  0.69573708  0.25811775  1.0
  Ni  Ni492  1  0.98308200  0.02907042  0.25811775  1.0
  Ni  Ni493  1  0.98308200  0.36240375  0.25811775  1.0
  Ni  Ni494  1  0.98308200  0.69573708  0.25811775  1.0
  Ni  Ni495  1  0.24234126  0.14018153  0.31367331  1.0
  Ni  Ni496  1  0.24234126  0.47351486  0.31367331  1.0
  Ni  Ni497  1  0.24234126  0.80684819  0.31367331  1.0
  Ni  Ni498  1  0.57567459  0.14018153  0.31367331  1.0
  Ni  Ni499  1  0.57567459  0.47351486  0.31367331  1.0
  Ni  Ni500  1  0.57567459  0.80684819  0.31367331  1.0
  Ni  Ni501  1  0.90900793  0.14018153  0.31367331  1.0
  Ni  Ni502  1  0.90900793  0.47351486  0.31367331  1.0
  Ni  Ni503  1  0.90900793  0.80684819  0.31367331  1.0
  Ni  Ni504  1  0.29460741  0.09586331  0.28361519  1.0
  Ni  Ni505  1  0.29460741  0.42919664  0.28361519  1.0
  Ni  Ni506  1  0.29460741  0.76252997  0.28361519  1.0
  Ni  Ni507  1  0.62794074  0.09586331  0.28361519  1.0
  Ni  Ni508  1  0.62794074  0.42919664  0.28361519  1.0
  Ni  Ni509  1  0.62794074  0.76252997  0.28361519  1.0
  Ni  Ni510  1  0.96127407  0.09586331  0.28361519  1.0
  Ni  Ni511  1  0.96127407  0.42919664  0.28361519  1.0
  Ni  Ni512  1  0.96127407  0.76252997  0.28361519  1.0
  Ni  Ni513  1  0.03534815  0.31808553  0.22805964  1.0
  Ni  Ni514  1  0.03534815  0.65141886  0.22805964  1.0
  Ni  Ni515  1  0.03534815  0.98475219  0.22805964  1.0
  Ni  Ni516  1  0.36868148  0.31808553  0.22805964  1.0
  Ni  Ni517  1  0.36868148  0.65141886  0.22805964  1.0
  Ni  Ni518  1  0.36868148  0.98475219  0.22805964  1.0
  Ni  Ni519  1  0.70201481  0.31808553  0.22805964  1.0
  Ni  Ni520  1  0.70201481  0.65141886  0.22805964  1.0
  Ni  Ni521  1  0.70201481  0.98475219  0.22805964  1.0
  Ni  Ni522  1  0.11211007  0.25129264  0.28499319  1.0
  Ni  Ni523  1  0.11211007  0.58462597  0.28499319  1.0
  Ni  Ni524  1  0.11211007  0.91795931  0.28499319  1.0
  Ni  Ni525  1  0.44544341  0.25129264  0.28499319  1.0
  Ni  Ni526  1  0.44544341  0.58462597  0.28499319  1.0
  Ni  Ni527  1  0.44544341  0.91795931  0.28499319  1.0
  Ni  Ni528  1  0.77877674  0.25129264  0.28499319  1.0
  Ni  Ni529  1  0.77877674  0.58462597  0.28499319  1.0
  Ni  Ni530  1  0.77877674  0.91795931  0.28499319  1.0
  Ni  Ni531  1  0.18618415  0.14018153  0.22943764  1.0
  Ni  Ni532  1  0.18618415  0.47351486  0.22943764  1.0
  Ni  Ni533  1  0.18618415  0.80684819  0.22943764  1.0
  Ni  Ni534  1  0.51951748  0.14018153  0.22943764  1.0
  Ni  Ni535  1  0.51951748  0.47351486  0.22943764  1.0
  Ni  Ni536  1  0.51951748  0.80684819  0.22943764  1.0
  Ni  Ni537  1  0.85285081  0.14018153  0.22943764  1.0
  Ni  Ni538  1  0.85285081  0.47351486  0.22943764  1.0
  Ni  Ni539  1  0.85285081  0.80684819  0.22943764  1.0
  Ni  Ni540  1  0.12980800  0.11802242  0.34064475  1.0
  Ni  Ni541  1  0.12980800  0.45135575  0.34064475  1.0
  Ni  Ni542  1  0.12980800  0.78468908  0.34064475  1.0
  Ni  Ni543  1  0.46314133  0.11802242  0.34064475  1.0
  Ni  Ni544  1  0.46314133  0.45135575  0.34064475  1.0
  Ni  Ni545  1  0.46314133  0.78468908  0.34064475  1.0
  Ni  Ni546  1  0.79647467  0.11802242  0.34064475  1.0
  Ni  Ni547  1  0.79647467  0.45135575  0.34064475  1.0
  Ni  Ni548  1  0.79647467  0.78468908  0.34064475  1.0
  Ni  Ni549  1  0.05573393  0.22913353  0.39620031  1.0
  Ni  Ni550  1  0.05573393  0.56246686  0.39620031  1.0
  Ni  Ni551  1  0.05573393  0.89580019  0.39620031  1.0
  Ni  Ni552  1  0.38906726  0.22913353  0.39620031  1.0
  Ni  Ni553  1  0.38906726  0.56246686  0.39620031  1.0
  Ni  Ni554  1  0.38906726  0.89580019  0.39620031  1.0
  Ni  Ni555  1  0.72240059  0.22913353  0.39620031  1.0
  Ni  Ni556  1  0.72240059  0.56246686  0.39620031  1.0
  Ni  Ni557  1  0.72240059  0.89580019  0.39620031  1.0
  Ni  Ni558  1  0.25899252  0.00691131  0.36775486  1.0
  Ni  Ni559  1  0.25899252  0.34024464  0.36775486  1.0
  Ni  Ni560  1  0.25899252  0.67357797  0.36775486  1.0
  Ni  Ni561  1  0.59232585  0.00691131  0.36775486  1.0
  Ni  Ni562  1  0.59232585  0.34024464  0.36775486  1.0
  Ni  Ni563  1  0.59232585  0.67357797  0.36775486  1.0
  Ni  Ni564  1  0.92565919  0.00691131  0.36775486  1.0
  Ni  Ni565  1  0.92565919  0.34024464  0.36775486  1.0
  Ni  Ni566  1  0.92565919  0.67357797  0.36775486  1.0
  Ni  Ni567  1  0.18491844  0.11802242  0.42331042  1.0
  Ni  Ni568  1  0.18491844  0.45135575  0.42331042  1.0
  Ni  Ni569  1  0.18491844  0.78468908  0.42331042  1.0
  Ni  Ni570  1  0.51825178  0.11802242  0.42331042  1.0
  Ni  Ni571  1  0.51825178  0.45135575  0.42331042  1.0
  Ni  Ni572  1  0.51825178  0.78468908  0.42331042  1.0
  Ni  Ni573  1  0.85158511  0.11802242  0.42331042  1.0
  Ni  Ni574  1  0.85158511  0.45135575  0.42331042  1.0
  Ni  Ni575  1  0.85158511  0.78468908  0.42331042  1.0
  Ni  Ni576  1  0.32007741  0.18412364  0.35299369  1.0
  Ni  Ni577  1  0.32007741  0.51745697  0.35299369  1.0
  Ni  Ni578  1  0.32007741  0.85079031  0.35299369  1.0
  Ni  Ni579  1  0.65341074  0.18412364  0.35299369  1.0
  Ni  Ni580  1  0.65341074  0.51745697  0.35299369  1.0
  Ni  Ni581  1  0.65341074  0.85079031  0.35299369  1.0
  Ni  Ni582  1  0.98674407  0.18412364  0.35299369  1.0
  Ni  Ni583  1  0.98674407  0.51745697  0.35299369  1.0
  Ni  Ni584  1  0.98674407  0.85079031  0.35299369  1.0
  Ni  Ni585  1  0.24600333  0.29523475  0.40854925  1.0
  Ni  Ni586  1  0.24600333  0.62856808  0.40854925  1.0
  Ni  Ni587  1  0.24600333  0.96190142  0.40854925  1.0
  Ni  Ni588  1  0.57933667  0.29523475  0.40854925  1.0
  Ni  Ni589  1  0.57933667  0.62856808  0.40854925  1.0
  Ni  Ni590  1  0.57933667  0.96190142  0.40854925  1.0
  Ni  Ni591  1  0.91267000  0.29523475  0.40854925  1.0
  Ni  Ni592  1  0.91267000  0.62856808  0.40854925  1.0
  Ni  Ni593  1  0.91267000  0.96190142  0.40854925  1.0
  Ni  Ni594  1  0.32798237  0.05192119  0.41096147  1.0
  Ni  Ni595  1  0.32798237  0.38525453  0.41096147  1.0
  Ni  Ni596  1  0.32798237  0.71858786  0.41096147  1.0
  Ni  Ni597  1  0.66131570  0.05192119  0.41096147  1.0
  Ni  Ni598  1  0.66131570  0.38525453  0.41096147  1.0
  Ni  Ni599  1  0.66131570  0.71858786  0.41096147  1.0
  Ni  Ni600  1  0.99464904  0.05192119  0.41096147  1.0
  Ni  Ni601  1  0.99464904  0.38525453  0.41096147  1.0
  Ni  Ni602  1  0.99464904  0.71858786  0.41096147  1.0
  Ni  Ni603  1  0.06872311  0.27414342  0.35540592  1.0
  Ni  Ni604  1  0.06872311  0.60747675  0.35540592  1.0
  Ni  Ni605  1  0.06872311  0.94081008  0.35540592  1.0
  Ni  Ni606  1  0.40205644  0.27414342  0.35540592  1.0
  Ni  Ni607  1  0.40205644  0.60747675  0.35540592  1.0
  Ni  Ni608  1  0.40205644  0.94081008  0.35540592  1.0
  Ni  Ni609  1  0.73538978  0.27414342  0.35540592  1.0
  Ni  Ni610  1  0.73538978  0.60747675  0.35540592  1.0
  Ni  Ni611  1  0.73538978  0.94081008  0.35540592  1.0
  Ni  Ni612  1  0.08585544  0.14042242  0.41014992  1.0
  Ni  Ni613  1  0.08585544  0.47375575  0.41014992  1.0
  Ni  Ni614  1  0.08585544  0.80708908  0.41014992  1.0
  Ni  Ni615  1  0.41918878  0.14042242  0.41014992  1.0
  Ni  Ni616  1  0.41918878  0.47375575  0.41014992  1.0
  Ni  Ni617  1  0.41918878  0.80708908  0.41014992  1.0
  Ni  Ni618  1  0.75252211  0.14042242  0.41014992  1.0
  Ni  Ni619  1  0.75252211  0.47375575  0.41014992  1.0
  Ni  Ni620  1  0.75252211  0.80708908  0.41014992  1.0
  Ni  Ni621  1  0.15992952  0.02931131  0.35459436  1.0
  Ni  Ni622  1  0.15992952  0.36264464  0.35459436  1.0
  Ni  Ni623  1  0.15992952  0.69597797  0.35459436  1.0
  Ni  Ni624  1  0.49326285  0.02931131  0.35459436  1.0
  Ni  Ni625  1  0.49326285  0.36264464  0.35459436  1.0
  Ni  Ni626  1  0.49326285  0.69597797  0.35459436  1.0
  Ni  Ni627  1  0.82659619  0.02931131  0.35459436  1.0
  Ni  Ni628  1  0.82659619  0.36264464  0.35459436  1.0
  Ni  Ni629  1  0.82659619  0.69597797  0.35459436  1.0
  Ni  Ni630  1  0.22887100  0.09562242  0.35380525  1.0
  Ni  Ni631  1  0.22887100  0.42895575  0.35380525  1.0
  Ni  Ni632  1  0.22887100  0.76228908  0.35380525  1.0
  Ni  Ni633  1  0.56220433  0.09562242  0.35380525  1.0
  Ni  Ni634  1  0.56220433  0.42895575  0.35380525  1.0
  Ni  Ni635  1  0.56220433  0.76228908  0.35380525  1.0
  Ni  Ni636  1  0.89553767  0.09562242  0.35380525  1.0
  Ni  Ni637  1  0.89553767  0.42895575  0.35380525  1.0
  Ni  Ni638  1  0.89553767  0.76228908  0.35380525  1.0
  Ni  Ni639  1  0.15479693  0.20673353  0.40936081  1.0
  Ni  Ni640  1  0.15479693  0.54006686  0.40936081  1.0
  Ni  Ni641  1  0.15479693  0.87340019  0.40936081  1.0
  Ni  Ni642  1  0.48813026  0.20673353  0.40936081  1.0
  Ni  Ni643  1  0.48813026  0.54006686  0.40936081  1.0
  Ni  Ni644  1  0.48813026  0.87340019  0.40936081  1.0
  Ni  Ni645  1  0.82146359  0.20673353  0.40936081  1.0
  Ni  Ni646  1  0.82146359  0.54006686  0.40936081  1.0
  Ni  Ni647  1  0.82146359  0.87340019  0.40936081  1.0
  Ni  Ni648  1  0.01743119  0.09586331  0.36785086  1.0
  Ni  Ni649  1  0.01743119  0.42919664  0.36785086  1.0
  Ni  Ni650  1  0.01743119  0.76252997  0.36785086  1.0
  Ni  Ni651  1  0.35076452  0.09586331  0.36785086  1.0
  Ni  Ni652  1  0.35076452  0.42919664  0.36785086  1.0
  Ni  Ni653  1  0.35076452  0.76252997  0.36785086  1.0
  Ni  Ni654  1  0.68409785  0.09586331  0.36785086  1.0
  Ni  Ni655  1  0.68409785  0.42919664  0.36785086  1.0
  Ni  Ni656  1  0.68409785  0.76252997  0.36785086  1.0
  Ni  Ni657  1  0.27669044  0.20697442  0.42340642  1.0
  Ni  Ni658  1  0.27669044  0.54030775  0.42340642  1.0
  Ni  Ni659  1  0.27669044  0.87364108  0.42340642  1.0
  Ni  Ni660  1  0.61002378  0.20697442  0.42340642  1.0
  Ni  Ni661  1  0.61002378  0.54030775  0.42340642  1.0
  Ni  Ni662  1  0.61002378  0.87364108  0.42340642  1.0
  Ni  Ni663  1  0.94335711  0.20697442  0.42340642  1.0
  Ni  Ni664  1  0.94335711  0.54030775  0.42340642  1.0
  Ni  Ni665  1  0.94335711  0.87364108  0.42340642  1.0
  Ni  Ni666  1  0.16826719  0.25129264  0.36922886  1.0
  Ni  Ni667  1  0.16826719  0.58462597  0.36922886  1.0
  Ni  Ni668  1  0.16826719  0.91795931  0.36922886  1.0
  Ni  Ni669  1  0.50160052  0.25129264  0.36922886  1.0
  Ni  Ni670  1  0.50160052  0.58462597  0.36922886  1.0
  Ni  Ni671  1  0.50160052  0.91795931  0.36922886  1.0
  Ni  Ni672  1  0.83493385  0.25129264  0.36922886  1.0
  Ni  Ni673  1  0.83493385  0.58462597  0.36922886  1.0
  Ni  Ni674  1  0.83493385  0.91795931  0.36922886  1.0
  Ni  Ni675  1  0.09419311  0.02907042  0.42478442  1.0
  Ni  Ni676  1  0.09419311  0.36240375  0.42478442  1.0
  Ni  Ni677  1  0.09419311  0.69573708  0.42478442  1.0
  Ni  Ni678  1  0.42752644  0.02907042  0.42478442  1.0
  Ni  Ni679  1  0.42752644  0.36240375  0.42478442  1.0
  Ni  Ni680  1  0.42752644  0.69573708  0.42478442  1.0
  Ni  Ni681  1  0.76085978  0.02907042  0.42478442  1.0
  Ni  Ni682  1  0.76085978  0.36240375  0.42478442  1.0
  Ni  Ni683  1  0.76085978  0.69573708  0.42478442  1.0
  Ni  Ni684  1  0.14645926  0.31808553  0.39472631  1.0
  Ni  Ni685  1  0.14645926  0.65141886  0.39472631  1.0
  Ni  Ni686  1  0.14645926  0.98475219  0.39472631  1.0
  Ni  Ni687  1  0.47979259  0.31808553  0.39472631  1.0
  Ni  Ni688  1  0.47979259  0.65141886  0.39472631  1.0
  Ni  Ni689  1  0.47979259  0.98475219  0.39472631  1.0
  Ni  Ni690  1  0.81312593  0.31808553  0.39472631  1.0
  Ni  Ni691  1  0.81312593  0.65141886  0.39472631  1.0
  Ni  Ni692  1  0.81312593  0.98475219  0.39472631  1.0
  Ni  Ni693  1  0.22053333  0.20697442  0.33917075  1.0
  Ni  Ni694  1  0.22053333  0.54030775  0.33917075  1.0
  Ni  Ni695  1  0.22053333  0.87364108  0.33917075  1.0
  Ni  Ni696  1  0.55386667  0.20697442  0.33917075  1.0
  Ni  Ni697  1  0.55386667  0.54030775  0.33917075  1.0
  Ni  Ni698  1  0.55386667  0.87364108  0.33917075  1.0
  Ni  Ni699  1  0.88720000  0.20697442  0.33917075  1.0
  Ni  Ni700  1  0.88720000  0.54030775  0.33917075  1.0
  Ni  Ni701  1  0.88720000  0.87364108  0.33917075  1.0
  Ni  Ni702  1  0.29729526  0.14018153  0.39610431  1.0
  Ni  Ni703  1  0.29729526  0.47351486  0.39610431  1.0
  Ni  Ni704  1  0.29729526  0.80684819  0.39610431  1.0
  Ni  Ni705  1  0.63062859  0.14018153  0.39610431  1.0
  Ni  Ni706  1  0.63062859  0.47351486  0.39610431  1.0
  Ni  Ni707  1  0.63062859  0.80684819  0.39610431  1.0
  Ni  Ni708  1  0.96396193  0.14018153  0.39610431  1.0
  Ni  Ni709  1  0.96396193  0.47351486  0.39610431  1.0
  Ni  Ni710  1  0.96396193  0.80684819  0.39610431  1.0
  Ni  Ni711  1  0.03803600  0.02907042  0.34054875  1.0
  Ni  Ni712  1  0.03803600  0.36240375  0.34054875  1.0
  Ni  Ni713  1  0.03803600  0.69573708  0.34054875  1.0
  Ni  Ni714  1  0.37136933  0.02907042  0.34054875  1.0
  Ni  Ni715  1  0.37136933  0.36240375  0.34054875  1.0
  Ni  Ni716  1  0.37136933  0.69573708  0.34054875  1.0
  Ni  Ni717  1  0.70470267  0.02907042  0.34054875  1.0
  Ni  Ni718  1  0.70470267  0.36240375  0.34054875  1.0
  Ni  Ni719  1  0.70470267  0.69573708  0.34054875  1.0
  Sb  Sb720  1  0.15384974  0.18419931  0.10288469  1.0
  Sb  Sb721  1  0.15384974  0.51753264  0.10288469  1.0
  Sb  Sb722  1  0.15384974  0.85086597  0.10288469  1.0
  Sb  Sb723  1  0.48718307  0.18419931  0.10288469  1.0
  Sb  Sb724  1  0.48718307  0.51753264  0.10288469  1.0
  Sb  Sb725  1  0.48718307  0.85086597  0.10288469  1.0
  Sb  Sb726  1  0.82051641  0.18419931  0.10288469  1.0
  Sb  Sb727  1  0.82051641  0.51753264  0.10288469  1.0
  Sb  Sb728  1  0.82051641  0.85086597  0.10288469  1.0
  Sb  Sb729  1  0.22792381  0.07308819  0.04732914  1.0
  Sb  Sb730  1  0.22792381  0.40642153  0.04732914  1.0
  Sb  Sb731  1  0.22792381  0.73975486  0.04732914  1.0
  Sb  Sb732  1  0.56125715  0.07308819  0.04732914  1.0
  Sb  Sb733  1  0.56125715  0.40642153  0.04732914  1.0
  Sb  Sb734  1  0.56125715  0.73975486  0.04732914  1.0
  Sb  Sb735  1  0.89459048  0.07308819  0.04732914  1.0
  Sb  Sb736  1  0.89459048  0.40642153  0.04732914  1.0
  Sb  Sb737  1  0.89459048  0.73975486  0.04732914  1.0
  Sb  Sb738  1  0.23495078  0.27406775  0.10551492  1.0
  Sb  Sb739  1  0.23495078  0.60740108  0.10551492  1.0
  Sb  Sb740  1  0.23495078  0.94073442  0.10551492  1.0
  Sb  Sb741  1  0.56828411  0.27406775  0.10551492  1.0
  Sb  Sb742  1  0.56828411  0.60740108  0.10551492  1.0
  Sb  Sb743  1  0.56828411  0.94073442  0.10551492  1.0
  Sb  Sb744  1  0.90161744  0.27406775  0.10551492  1.0
  Sb  Sb745  1  0.90161744  0.60740108  0.10551492  1.0
  Sb  Sb746  1  0.90161744  0.94073442  0.10551492  1.0
  Sb  Sb747  1  0.30902485  0.16295664  0.04995936  1.0
  Sb  Sb748  1  0.30902485  0.49628997  0.04995936  1.0
  Sb  Sb749  1  0.30902485  0.82962331  0.04995936  1.0
  Sb  Sb750  1  0.64235819  0.16295664  0.04995936  1.0
  Sb  Sb751  1  0.64235819  0.49628997  0.04995936  1.0
  Sb  Sb752  1  0.64235819  0.82962331  0.04995936  1.0
  Sb  Sb753  1  0.97569152  0.16295664  0.04995936  1.0
  Sb  Sb754  1  0.97569152  0.49628997  0.04995936  1.0
  Sb  Sb755  1  0.97569152  0.82962331  0.04995936  1.0
  Sb  Sb756  1  0.32638544  0.02879908  0.10450392  1.0
  Sb  Sb757  1  0.32638544  0.36213242  0.10450392  1.0
  Sb  Sb758  1  0.32638544  0.69546575  0.10450392  1.0
  Sb  Sb759  1  0.65971878  0.02879908  0.10450392  1.0
  Sb  Sb760  1  0.65971878  0.36213242  0.10450392  1.0
  Sb  Sb761  1  0.65971878  0.69546575  0.10450392  1.0
  Sb  Sb762  1  0.99305211  0.02879908  0.10450392  1.0
  Sb  Sb763  1  0.99305211  0.36213242  0.10450392  1.0
  Sb  Sb764  1  0.99305211  0.69546575  0.10450392  1.0
  Sb  Sb765  1  0.06712619  0.25102131  0.04894836  1.0
  Sb  Sb766  1  0.06712619  0.58435464  0.04894836  1.0
  Sb  Sb767  1  0.06712619  0.91768797  0.04894836  1.0
  Sb  Sb768  1  0.40045952  0.25102131  0.04894836  1.0
  Sb  Sb769  1  0.40045952  0.58435464  0.04894836  1.0
  Sb  Sb770  1  0.40045952  0.91768797  0.04894836  1.0
  Sb  Sb771  1  0.73379285  0.25102131  0.04894836  1.0
  Sb  Sb772  1  0.73379285  0.58435464  0.04894836  1.0
  Sb  Sb773  1  0.73379285  0.91768797  0.04894836  1.0
  Sb  Sb774  1  0.06241507  0.09613464  0.10389569  1.0
  Sb  Sb775  1  0.06241507  0.42946797  0.10389569  1.0
  Sb  Sb776  1  0.06241507  0.76280131  0.10389569  1.0
  Sb  Sb777  1  0.39574841  0.09613464  0.10389569  1.0
  Sb  Sb778  1  0.39574841  0.42946797  0.10389569  1.0
  Sb  Sb779  1  0.39574841  0.76280131  0.10389569  1.0
  Sb  Sb780  1  0.72908174  0.09613464  0.10389569  1.0
  Sb  Sb781  1  0.72908174  0.42946797  0.10389569  1.0
  Sb  Sb782  1  0.72908174  0.76280131  0.10389569  1.0
  Sb  Sb783  1  0.13648915  0.31835686  0.04834014  1.0
  Sb  Sb784  1  0.13648915  0.65169019  0.04834014  1.0
  Sb  Sb785  1  0.13648915  0.98502353  0.04834014  1.0
  Sb  Sb786  1  0.46982248  0.31835686  0.04834014  1.0
  Sb  Sb787  1  0.46982248  0.65169019  0.04834014  1.0
  Sb  Sb788  1  0.46982248  0.98502353  0.04834014  1.0
  Sb  Sb789  1  0.80315581  0.31835686  0.04834014  1.0
  Sb  Sb790  1  0.80315581  0.65169019  0.04834014  1.0
  Sb  Sb791  1  0.80315581  0.98502353  0.04834014  1.0
  Sb  Sb792  1  0.00570159  0.07308819  0.21399581  1.0
  Sb  Sb793  1  0.00570159  0.40642153  0.21399581  1.0
  Sb  Sb794  1  0.00570159  0.73975486  0.21399581  1.0
  Sb  Sb795  1  0.33903493  0.07308819  0.21399581  1.0
  Sb  Sb796  1  0.33903493  0.40642153  0.21399581  1.0
  Sb  Sb797  1  0.33903493  0.73975486  0.21399581  1.0
  Sb  Sb798  1  0.67236826  0.07308819  0.21399581  1.0
  Sb  Sb799  1  0.67236826  0.40642153  0.21399581  1.0
  Sb  Sb800  1  0.67236826  0.73975486  0.21399581  1.0
  Sb  Sb801  1  0.07977567  0.29531042  0.15844025  1.0
  Sb  Sb802  1  0.07977567  0.62864375  0.15844025  1.0
  Sb  Sb803  1  0.07977567  0.96197708  0.15844025  1.0
  Sb  Sb804  1  0.41310900  0.29531042  0.15844025  1.0
  Sb  Sb805  1  0.41310900  0.62864375  0.15844025  1.0
  Sb  Sb806  1  0.41310900  0.96197708  0.15844025  1.0
  Sb  Sb807  1  0.74644233  0.29531042  0.15844025  1.0
  Sb  Sb808  1  0.74644233  0.62864375  0.15844025  1.0
  Sb  Sb809  1  0.74644233  0.96197708  0.15844025  1.0
  Sb  Sb810  1  0.08680263  0.16295664  0.21662603  1.0
  Sb  Sb811  1  0.08680263  0.49628997  0.21662603  1.0
  Sb  Sb812  1  0.08680263  0.82962331  0.21662603  1.0
  Sb  Sb813  1  0.42013596  0.16295664  0.21662603  1.0
  Sb  Sb814  1  0.42013596  0.49628997  0.21662603  1.0
  Sb  Sb815  1  0.42013596  0.82962331  0.21662603  1.0
  Sb  Sb816  1  0.75346930  0.16295664  0.21662603  1.0
  Sb  Sb817  1  0.75346930  0.49628997  0.21662603  1.0
  Sb  Sb818  1  0.75346930  0.82962331  0.21662603  1.0
  Sb  Sb819  1  0.16087670  0.05184553  0.16107047  1.0
  Sb  Sb820  1  0.16087670  0.38517886  0.16107047  1.0
  Sb  Sb821  1  0.16087670  0.71851219  0.16107047  1.0
  Sb  Sb822  1  0.49421004  0.05184553  0.16107047  1.0
  Sb  Sb823  1  0.49421004  0.38517886  0.16107047  1.0
  Sb  Sb824  1  0.49421004  0.71851219  0.16107047  1.0
  Sb  Sb825  1  0.82754337  0.05184553  0.16107047  1.0
  Sb  Sb826  1  0.82754337  0.38517886  0.16107047  1.0
  Sb  Sb827  1  0.82754337  0.71851219  0.16107047  1.0
  Sb  Sb828  1  0.17823730  0.25102131  0.21561503  1.0
  Sb  Sb829  1  0.17823730  0.58435464  0.21561503  1.0
  Sb  Sb830  1  0.17823730  0.91768797  0.21561503  1.0
  Sb  Sb831  1  0.51157063  0.25102131  0.21561503  1.0
  Sb  Sb832  1  0.51157063  0.58435464  0.21561503  1.0
  Sb  Sb833  1  0.51157063  0.91768797  0.21561503  1.0
  Sb  Sb834  1  0.84490396  0.25102131  0.21561503  1.0
  Sb  Sb835  1  0.84490396  0.58435464  0.21561503  1.0
  Sb  Sb836  1  0.84490396  0.91768797  0.21561503  1.0
  Sb  Sb837  1  0.25231137  0.13991019  0.16005947  1.0
  Sb  Sb838  1  0.25231137  0.47324353  0.16005947  1.0
  Sb  Sb839  1  0.25231137  0.80657686  0.16005947  1.0
  Sb  Sb840  1  0.58564470  0.13991019  0.16005947  1.0
  Sb  Sb841  1  0.58564470  0.47324353  0.16005947  1.0
  Sb  Sb842  1  0.58564470  0.80657686  0.16005947  1.0
  Sb  Sb843  1  0.91897804  0.13991019  0.16005947  1.0
  Sb  Sb844  1  0.91897804  0.47324353  0.16005947  1.0
  Sb  Sb845  1  0.91897804  0.80657686  0.16005947  1.0
  Sb  Sb846  1  0.24760026  0.31835686  0.21500681  1.0
  Sb  Sb847  1  0.24760026  0.65169019  0.21500681  1.0
  Sb  Sb848  1  0.24760026  0.98502353  0.21500681  1.0
  Sb  Sb849  1  0.58093359  0.31835686  0.21500681  1.0
  Sb  Sb850  1  0.58093359  0.65169019  0.21500681  1.0
  Sb  Sb851  1  0.58093359  0.98502353  0.21500681  1.0
  Sb  Sb852  1  0.91426693  0.31835686  0.21500681  1.0
  Sb  Sb853  1  0.91426693  0.65169019  0.21500681  1.0
  Sb  Sb854  1  0.91426693  0.98502353  0.21500681  1.0
  Sb  Sb855  1  0.32167433  0.20724575  0.15945125  1.0
  Sb  Sb856  1  0.32167433  0.54057908  0.15945125  1.0
  Sb  Sb857  1  0.32167433  0.87391242  0.15945125  1.0
  Sb  Sb858  1  0.65500767  0.20724575  0.15945125  1.0
  Sb  Sb859  1  0.65500767  0.54057908  0.15945125  1.0
  Sb  Sb860  1  0.65500767  0.87391242  0.15945125  1.0
  Sb  Sb861  1  0.98834100  0.20724575  0.15945125  1.0
  Sb  Sb862  1  0.98834100  0.54057908  0.15945125  1.0
  Sb  Sb863  1  0.98834100  0.87391242  0.15945125  1.0
  Sb  Sb864  1  0.19088678  0.29531042  0.32510692  1.0
  Sb  Sb865  1  0.19088678  0.62864375  0.32510692  1.0
  Sb  Sb866  1  0.19088678  0.96197708  0.32510692  1.0
  Sb  Sb867  1  0.52422011  0.29531042  0.32510692  1.0
  Sb  Sb868  1  0.52422011  0.62864375  0.32510692  1.0
  Sb  Sb869  1  0.52422011  0.96197708  0.32510692  1.0
  Sb  Sb870  1  0.85755344  0.29531042  0.32510692  1.0
  Sb  Sb871  1  0.85755344  0.62864375  0.32510692  1.0
  Sb  Sb872  1  0.85755344  0.96197708  0.32510692  1.0
  Sb  Sb873  1  0.26496085  0.18419931  0.26955136  1.0
  Sb  Sb874  1  0.26496085  0.51753264  0.26955136  1.0
  Sb  Sb875  1  0.26496085  0.85086597  0.26955136  1.0
  Sb  Sb876  1  0.59829419  0.18419931  0.26955136  1.0
  Sb  Sb877  1  0.59829419  0.51753264  0.26955136  1.0
  Sb  Sb878  1  0.59829419  0.85086597  0.26955136  1.0
  Sb  Sb879  1  0.93162752  0.18419931  0.26955136  1.0
  Sb  Sb880  1  0.93162752  0.51753264  0.26955136  1.0
  Sb  Sb881  1  0.93162752  0.85086597  0.26955136  1.0
  Sb  Sb882  1  0.27198781  0.05184553  0.32773714  1.0
  Sb  Sb883  1  0.27198781  0.38517886  0.32773714  1.0
  Sb  Sb884  1  0.27198781  0.71851219  0.32773714  1.0
  Sb  Sb885  1  0.60532115  0.05184553  0.32773714  1.0
  Sb  Sb886  1  0.60532115  0.38517886  0.32773714  1.0
  Sb  Sb887  1  0.60532115  0.71851219  0.32773714  1.0
  Sb  Sb888  1  0.93865448  0.05184553  0.32773714  1.0
  Sb  Sb889  1  0.93865448  0.38517886  0.32773714  1.0
  Sb  Sb890  1  0.93865448  0.71851219  0.32773714  1.0
  Sb  Sb891  1  0.01272856  0.27406775  0.27218158  1.0
  Sb  Sb892  1  0.01272856  0.60740108  0.27218158  1.0
  Sb  Sb893  1  0.01272856  0.94073442  0.27218158  1.0
  Sb  Sb894  1  0.34606189  0.27406775  0.27218158  1.0
  Sb  Sb895  1  0.34606189  0.60740108  0.27218158  1.0
  Sb  Sb896  1  0.34606189  0.94073442  0.27218158  1.0
  Sb  Sb897  1  0.67939522  0.27406775  0.27218158  1.0
  Sb  Sb898  1  0.67939522  0.60740108  0.27218158  1.0
  Sb  Sb899  1  0.67939522  0.94073442  0.27218158  1.0
  Sb  Sb900  1  0.03008915  0.13991019  0.32672614  1.0
  Sb  Sb901  1  0.03008915  0.47324353  0.32672614  1.0
  Sb  Sb902  1  0.03008915  0.80657686  0.32672614  1.0
  Sb  Sb903  1  0.36342248  0.13991019  0.32672614  1.0
  Sb  Sb904  1  0.36342248  0.47324353  0.32672614  1.0
  Sb  Sb905  1  0.36342248  0.80657686  0.32672614  1.0
  Sb  Sb906  1  0.69675581  0.13991019  0.32672614  1.0
  Sb  Sb907  1  0.69675581  0.47324353  0.32672614  1.0
  Sb  Sb908  1  0.69675581  0.80657686  0.32672614  1.0
  Sb  Sb909  1  0.10416322  0.02879908  0.27117058  1.0
  Sb  Sb910  1  0.10416322  0.36213242  0.27117058  1.0
  Sb  Sb911  1  0.10416322  0.69546575  0.27117058  1.0
  Sb  Sb912  1  0.43749656  0.02879908  0.27117058  1.0
  Sb  Sb913  1  0.43749656  0.36213242  0.27117058  1.0
  Sb  Sb914  1  0.43749656  0.69546575  0.27117058  1.0
  Sb  Sb915  1  0.77082989  0.02879908  0.27117058  1.0
  Sb  Sb916  1  0.77082989  0.36213242  0.27117058  1.0
  Sb  Sb917  1  0.77082989  0.69546575  0.27117058  1.0
  Sb  Sb918  1  0.09945211  0.20724575  0.32611792  1.0
  Sb  Sb919  1  0.09945211  0.54057908  0.32611792  1.0
  Sb  Sb920  1  0.09945211  0.87391242  0.32611792  1.0
  Sb  Sb921  1  0.43278544  0.20724575  0.32611792  1.0
  Sb  Sb922  1  0.43278544  0.54057908  0.32611792  1.0
  Sb  Sb923  1  0.43278544  0.87391242  0.32611792  1.0
  Sb  Sb924  1  0.76611878  0.20724575  0.32611792  1.0
  Sb  Sb925  1  0.76611878  0.54057908  0.32611792  1.0
  Sb  Sb926  1  0.76611878  0.87391242  0.32611792  1.0
  Sb  Sb927  1  0.17352619  0.09613464  0.27056236  1.0
  Sb  Sb928  1  0.17352619  0.42946797  0.27056236  1.0
  Sb  Sb929  1  0.17352619  0.76280131  0.27056236  1.0
  Sb  Sb930  1  0.50685952  0.09613464  0.27056236  1.0
  Sb  Sb931  1  0.50685952  0.42946797  0.27056236  1.0
  Sb  Sb932  1  0.50685952  0.76280131  0.27056236  1.0
  Sb  Sb933  1  0.84019285  0.09613464  0.27056236  1.0
  Sb  Sb934  1  0.84019285  0.42946797  0.27056236  1.0
  Sb  Sb935  1  0.84019285  0.76280131  0.27056236  1.0
  Sb  Sb936  1  0.04273863  0.18419931  0.43621803  1.0
  Sb  Sb937  1  0.04273863  0.51753264  0.43621803  1.0
  Sb  Sb938  1  0.04273863  0.85086597  0.43621803  1.0
  Sb  Sb939  1  0.37607196  0.18419931  0.43621803  1.0
  Sb  Sb940  1  0.37607196  0.51753264  0.43621803  1.0
  Sb  Sb941  1  0.37607196  0.85086597  0.43621803  1.0
  Sb  Sb942  1  0.70940530  0.18419931  0.43621803  1.0
  Sb  Sb943  1  0.70940530  0.51753264  0.43621803  1.0
  Sb  Sb944  1  0.70940530  0.85086597  0.43621803  1.0
  Sb  Sb945  1  0.11681270  0.07308819  0.38066247  1.0
  Sb  Sb946  1  0.11681270  0.40642153  0.38066247  1.0
  Sb  Sb947  1  0.11681270  0.73975486  0.38066247  1.0
  Sb  Sb948  1  0.45014604  0.07308819  0.38066247  1.0
  Sb  Sb949  1  0.45014604  0.40642153  0.38066247  1.0
  Sb  Sb950  1  0.45014604  0.73975486  0.38066247  1.0
  Sb  Sb951  1  0.78347937  0.07308819  0.38066247  1.0
  Sb  Sb952  1  0.78347937  0.40642153  0.38066247  1.0
  Sb  Sb953  1  0.78347937  0.73975486  0.38066247  1.0
  Sb  Sb954  1  0.12383967  0.27406775  0.43884825  1.0
  Sb  Sb955  1  0.12383967  0.60740108  0.43884825  1.0
  Sb  Sb956  1  0.12383967  0.94073442  0.43884825  1.0
  Sb  Sb957  1  0.45717300  0.27406775  0.43884825  1.0
  Sb  Sb958  1  0.45717300  0.60740108  0.43884825  1.0
  Sb  Sb959  1  0.45717300  0.94073442  0.43884825  1.0
  Sb  Sb960  1  0.79050633  0.27406775  0.43884825  1.0
  Sb  Sb961  1  0.79050633  0.60740108  0.43884825  1.0
  Sb  Sb962  1  0.79050633  0.94073442  0.43884825  1.0
  Sb  Sb963  1  0.19791374  0.16295664  0.38329269  1.0
  Sb  Sb964  1  0.19791374  0.49628997  0.38329269  1.0
  Sb  Sb965  1  0.19791374  0.82962331  0.38329269  1.0
  Sb  Sb966  1  0.53124707  0.16295664  0.38329269  1.0
  Sb  Sb967  1  0.53124707  0.49628997  0.38329269  1.0
  Sb  Sb968  1  0.53124707  0.82962331  0.38329269  1.0
  Sb  Sb969  1  0.86458041  0.16295664  0.38329269  1.0
  Sb  Sb970  1  0.86458041  0.49628997  0.38329269  1.0
  Sb  Sb971  1  0.86458041  0.82962331  0.38329269  1.0
  Sb  Sb972  1  0.21527433  0.02879908  0.43783725  1.0
  Sb  Sb973  1  0.21527433  0.36213242  0.43783725  1.0
  Sb  Sb974  1  0.21527433  0.69546575  0.43783725  1.0
  Sb  Sb975  1  0.54860767  0.02879908  0.43783725  1.0
  Sb  Sb976  1  0.54860767  0.36213242  0.43783725  1.0
  Sb  Sb977  1  0.54860767  0.69546575  0.43783725  1.0
  Sb  Sb978  1  0.88194100  0.02879908  0.43783725  1.0
  Sb  Sb979  1  0.88194100  0.36213242  0.43783725  1.0
  Sb  Sb980  1  0.88194100  0.69546575  0.43783725  1.0
  Sb  Sb981  1  0.28934841  0.25102131  0.38228169  1.0
  Sb  Sb982  1  0.28934841  0.58435464  0.38228169  1.0
  Sb  Sb983  1  0.28934841  0.91768797  0.38228169  1.0
  Sb  Sb984  1  0.62268174  0.25102131  0.38228169  1.0
  Sb  Sb985  1  0.62268174  0.58435464  0.38228169  1.0
  Sb  Sb986  1  0.62268174  0.91768797  0.38228169  1.0
  Sb  Sb987  1  0.95601507  0.25102131  0.38228169  1.0
  Sb  Sb988  1  0.95601507  0.58435464  0.38228169  1.0
  Sb  Sb989  1  0.95601507  0.91768797  0.38228169  1.0
  Sb  Sb990  1  0.28463730  0.09613464  0.43722903  1.0
  Sb  Sb991  1  0.28463730  0.42946797  0.43722903  1.0
  Sb  Sb992  1  0.28463730  0.76280131  0.43722903  1.0
  Sb  Sb993  1  0.61797063  0.09613464  0.43722903  1.0
  Sb  Sb994  1  0.61797063  0.42946797  0.43722903  1.0
  Sb  Sb995  1  0.61797063  0.76280131  0.43722903  1.0
  Sb  Sb996  1  0.95130396  0.09613464  0.43722903  1.0
  Sb  Sb997  1  0.95130396  0.42946797  0.43722903  1.0
  Sb  Sb998  1  0.95130396  0.76280131  0.43722903  1.0
  Sb  Sb999  1  0.02537804  0.31835686  0.38167347  1.0
  Sb  Sb1000  1  0.02537804  0.65169019  0.38167347  1.0
  Sb  Sb1001  1  0.02537804  0.98502353  0.38167347  1.0
  Sb  Sb1002  1  0.35871137  0.31835686  0.38167347  1.0
  Sb  Sb1003  1  0.35871137  0.65169019  0.38167347  1.0
  Sb  Sb1004  1  0.35871137  0.98502353  0.38167347  1.0
  Sb  Sb1005  1  0.69204470  0.31835686  0.38167347  1.0
  Sb  Sb1006  1  0.69204470  0.65169019  0.38167347  1.0
  Sb  Sb1007  1  0.69204470  0.98502353  0.38167347  1.0
