# generated using pymatgen
data_Ni5Sb2
_symmetry_space_group_name_H-M   'P 1'
_cell_length_a   38.90178001
_cell_length_b   52.80121821
_cell_length_c   42.99937082
_cell_angle_alpha   46.06936961
_cell_angle_beta   62.09801520
_cell_angle_gamma   25.83097801
_symmetry_Int_Tables_number   1
_chemical_formula_structural   Ni5Sb2
_chemical_formula_sum   'Ni540 Sb216'
_cell_volume   24022.25138187
_cell_formula_units_Z   108
loop_
 _symmetry_equiv_pos_site_id
 _symmetry_equiv_pos_as_xyz
  1  'x, y, z'
loop_
 _atom_site_type_symbol
 _atom_site_label
 _atom_site_symmetry_multiplicity
 _atom_site_fract_x
 _atom_site_fract_y
 _atom_site_fract_z
 _atom_site_occupancy
  Ni  Ni0  1  0.25066767  0.24933233  0.02985336  1.0
  Ni  Ni1  1  0.25066767  0.58266567  0.02985336  1.0
  Ni  Ni2  1  0.25066767  0.91599900  0.02985336  1.0
  Ni  Ni3  1  0.58400100  0.24933233  0.02985336  1.0
  Ni  Ni4  1  0.58400100  0.58266567  0.02985336  1.0
  Ni  Ni5  1  0.58400100  0.91599900  0.02985336  1.0
  Ni  Ni6  1  0.91733433  0.24933233  0.02985336  1.0
  Ni  Ni7  1  0.91733433  0.58266567  0.02985336  1.0
  Ni  Ni8  1  0.91733433  0.91599900  0.02985336  1.0
  Ni  Ni9  1  0.25066767  0.08266567  0.10128193  1.0
  Ni  Ni10  1  0.25066767  0.41599900  0.10128193  1.0
  Ni  Ni11  1  0.25066767  0.74933233  0.10128193  1.0
  Ni  Ni12  1  0.58400100  0.08266567  0.10128193  1.0
  Ni  Ni13  1  0.58400100  0.41599900  0.10128193  1.0
  Ni  Ni14  1  0.58400100  0.74933233  0.10128193  1.0
  Ni  Ni15  1  0.91733433  0.08266567  0.10128193  1.0
  Ni  Ni16  1  0.91733433  0.41599900  0.10128193  1.0
  Ni  Ni17  1  0.91733433  0.74933233  0.10128193  1.0
  Ni  Ni18  1  0.08266567  0.08400100  0.10070964  1.0
  Ni  Ni19  1  0.08266567  0.41733433  0.10070964  1.0
  Ni  Ni20  1  0.08266567  0.75066767  0.10070964  1.0
  Ni  Ni21  1  0.41599900  0.08400100  0.10070964  1.0
  Ni  Ni22  1  0.41599900  0.41733433  0.10070964  1.0
  Ni  Ni23  1  0.41599900  0.75066767  0.10070964  1.0
  Ni  Ni24  1  0.74933233  0.08400100  0.10070964  1.0
  Ni  Ni25  1  0.74933233  0.41733433  0.10070964  1.0
  Ni  Ni26  1  0.74933233  0.75066767  0.10070964  1.0
  Ni  Ni27  1  0.08266567  0.25066767  0.02928107  1.0
  Ni  Ni28  1  0.08266567  0.58400100  0.02928107  1.0
  Ni  Ni29  1  0.08266567  0.91733433  0.02928107  1.0
  Ni  Ni30  1  0.41599900  0.25066767  0.02928107  1.0
  Ni  Ni31  1  0.41599900  0.58400100  0.02928107  1.0
  Ni  Ni32  1  0.41599900  0.91733433  0.02928107  1.0
  Ni  Ni33  1  0.74933233  0.25066767  0.02928107  1.0
  Ni  Ni34  1  0.74933233  0.58400100  0.02928107  1.0
  Ni  Ni35  1  0.74933233  0.91733433  0.02928107  1.0
  Ni  Ni36  1  0.12406900  0.00000000  0.11535250  1.0
  Ni  Ni37  1  0.12406900  0.33333333  0.11535250  1.0
  Ni  Ni38  1  0.12406900  0.66666667  0.11535250  1.0
  Ni  Ni39  1  0.45740233  0.00000000  0.11535250  1.0
  Ni  Ni40  1  0.45740233  0.33333333  0.11535250  1.0
  Ni  Ni41  1  0.45740233  0.66666667  0.11535250  1.0
  Ni  Ni42  1  0.79073567  0.00000000  0.11535250  1.0
  Ni  Ni43  1  0.79073567  0.33333333  0.11535250  1.0
  Ni  Ni44  1  0.79073567  0.66666667  0.11535250  1.0
  Ni  Ni45  1  0.12406900  0.16666667  0.04392393  1.0
  Ni  Ni46  1  0.12406900  0.50000000  0.04392393  1.0
  Ni  Ni47  1  0.12406900  0.83333333  0.04392393  1.0
  Ni  Ni48  1  0.45740233  0.16666667  0.04392393  1.0
  Ni  Ni49  1  0.45740233  0.50000000  0.04392393  1.0
  Ni  Ni50  1  0.45740233  0.83333333  0.04392393  1.0
  Ni  Ni51  1  0.79073567  0.16666667  0.04392393  1.0
  Ni  Ni52  1  0.79073567  0.50000000  0.04392393  1.0
  Ni  Ni53  1  0.79073567  0.83333333  0.04392393  1.0
  Ni  Ni54  1  0.20926433  0.33333333  0.01521050  1.0
  Ni  Ni55  1  0.20926433  0.66666667  0.01521050  1.0
  Ni  Ni56  1  0.20926433  1.00000000  0.01521050  1.0
  Ni  Ni57  1  0.54259767  0.33333333  0.01521050  1.0
  Ni  Ni58  1  0.54259767  0.66666667  0.01521050  1.0
  Ni  Ni59  1  0.54259767  1.00000000  0.01521050  1.0
  Ni  Ni60  1  0.87593100  0.33333333  0.01521050  1.0
  Ni  Ni61  1  0.87593100  0.66666667  0.01521050  1.0
  Ni  Ni62  1  0.87593100  1.00000000  0.01521050  1.0
  Ni  Ni63  1  0.20926433  0.16666667  0.08663907  1.0
  Ni  Ni64  1  0.20926433  0.50000000  0.08663907  1.0
  Ni  Ni65  1  0.20926433  0.83333333  0.08663907  1.0
  Ni  Ni66  1  0.54259767  0.16666667  0.08663907  1.0
  Ni  Ni67  1  0.54259767  0.50000000  0.08663907  1.0
  Ni  Ni68  1  0.54259767  0.83333333  0.08663907  1.0
  Ni  Ni69  1  0.87593100  0.16666667  0.08663907  1.0
  Ni  Ni70  1  0.87593100  0.50000000  0.08663907  1.0
  Ni  Ni71  1  0.87593100  0.83333333  0.08663907  1.0
  Ni  Ni72  1  0.29938867  0.00000000  0.05174836  1.0
  Ni  Ni73  1  0.29938867  0.33333333  0.05174836  1.0
  Ni  Ni74  1  0.29938867  0.66666667  0.05174836  1.0
  Ni  Ni75  1  0.63272200  0.00000000  0.05174836  1.0
  Ni  Ni76  1  0.63272200  0.33333333  0.05174836  1.0
  Ni  Ni77  1  0.63272200  0.66666667  0.05174836  1.0
  Ni  Ni78  1  0.96605533  0.00000000  0.05174836  1.0
  Ni  Ni79  1  0.96605533  0.33333333  0.05174836  1.0
  Ni  Ni80  1  0.96605533  0.66666667  0.05174836  1.0
  Ni  Ni81  1  0.29938867  0.16666667  0.12317693  1.0
  Ni  Ni82  1  0.29938867  0.50000000  0.12317693  1.0
  Ni  Ni83  1  0.29938867  0.83333333  0.12317693  1.0
  Ni  Ni84  1  0.63272200  0.16666667  0.12317693  1.0
  Ni  Ni85  1  0.63272200  0.50000000  0.12317693  1.0
  Ni  Ni86  1  0.63272200  0.83333333  0.12317693  1.0
  Ni  Ni87  1  0.96605533  0.16666667  0.12317693  1.0
  Ni  Ni88  1  0.96605533  0.50000000  0.12317693  1.0
  Ni  Ni89  1  0.96605533  0.83333333  0.12317693  1.0
  Ni  Ni90  1  0.03394467  0.00000000  0.07881464  1.0
  Ni  Ni91  1  0.03394467  0.33333333  0.07881464  1.0
  Ni  Ni92  1  0.03394467  0.66666667  0.07881464  1.0
  Ni  Ni93  1  0.36727800  0.00000000  0.07881464  1.0
  Ni  Ni94  1  0.36727800  0.33333333  0.07881464  1.0
  Ni  Ni95  1  0.36727800  0.66666667  0.07881464  1.0
  Ni  Ni96  1  0.70061133  0.00000000  0.07881464  1.0
  Ni  Ni97  1  0.70061133  0.33333333  0.07881464  1.0
  Ni  Ni98  1  0.70061133  0.66666667  0.07881464  1.0
  Ni  Ni99  1  0.03394467  0.16666667  0.00738607  1.0
  Ni  Ni100  1  0.03394467  0.50000000  0.00738607  1.0
  Ni  Ni101  1  0.03394467  0.83333333  0.00738607  1.0
  Ni  Ni102  1  0.36727800  0.16666667  0.00738607  1.0
  Ni  Ni103  1  0.36727800  0.50000000  0.00738607  1.0
  Ni  Ni104  1  0.36727800  0.83333333  0.00738607  1.0
  Ni  Ni105  1  0.70061133  0.16666667  0.00738607  1.0
  Ni  Ni106  1  0.70061133  0.50000000  0.00738607  1.0
  Ni  Ni107  1  0.70061133  0.83333333  0.00738607  1.0
  Ni  Ni108  1  0.17456567  0.24909767  0.06689507  1.0
  Ni  Ni109  1  0.17456567  0.58243100  0.06689507  1.0
  Ni  Ni110  1  0.17456567  0.91576433  0.06689507  1.0
  Ni  Ni111  1  0.50789900  0.24909767  0.06689507  1.0
  Ni  Ni112  1  0.50789900  0.58243100  0.06689507  1.0
  Ni  Ni113  1  0.50789900  0.91576433  0.06689507  1.0
  Ni  Ni114  1  0.84123233  0.24909767  0.06689507  1.0
  Ni  Ni115  1  0.84123233  0.58243100  0.06689507  1.0
  Ni  Ni116  1  0.84123233  0.91576433  0.06689507  1.0
  Ni  Ni117  1  0.17456567  0.08243100  0.13832364  1.0
  Ni  Ni118  1  0.17456567  0.41576433  0.13832364  1.0
  Ni  Ni119  1  0.17456567  0.74909767  0.13832364  1.0
  Ni  Ni120  1  0.50789900  0.08243100  0.13832364  1.0
  Ni  Ni121  1  0.50789900  0.41576433  0.13832364  1.0
  Ni  Ni122  1  0.50789900  0.74909767  0.13832364  1.0
  Ni  Ni123  1  0.84123233  0.08243100  0.13832364  1.0
  Ni  Ni124  1  0.84123233  0.41576433  0.13832364  1.0
  Ni  Ni125  1  0.84123233  0.74909767  0.13832364  1.0
  Ni  Ni126  1  0.32723900  0.24909767  0.13586993  1.0
  Ni  Ni127  1  0.32723900  0.58243100  0.13586993  1.0
  Ni  Ni128  1  0.32723900  0.91576433  0.13586993  1.0
  Ni  Ni129  1  0.66057233  0.24909767  0.13586993  1.0
  Ni  Ni130  1  0.66057233  0.58243100  0.13586993  1.0
  Ni  Ni131  1  0.66057233  0.91576433  0.13586993  1.0
  Ni  Ni132  1  0.99390567  0.24909767  0.13586993  1.0
  Ni  Ni133  1  0.99390567  0.58243100  0.13586993  1.0
  Ni  Ni134  1  0.99390567  0.91576433  0.13586993  1.0
  Ni  Ni135  1  0.32723900  0.08243100  0.06444136  1.0
  Ni  Ni136  1  0.32723900  0.41576433  0.06444136  1.0
  Ni  Ni137  1  0.32723900  0.74909767  0.06444136  1.0
  Ni  Ni138  1  0.66057233  0.08243100  0.06444136  1.0
  Ni  Ni139  1  0.66057233  0.41576433  0.06444136  1.0
  Ni  Ni140  1  0.66057233  0.74909767  0.06444136  1.0
  Ni  Ni141  1  0.99390567  0.08243100  0.06444136  1.0
  Ni  Ni142  1  0.99390567  0.41576433  0.06444136  1.0
  Ni  Ni143  1  0.99390567  0.74909767  0.06444136  1.0
  Ni  Ni144  1  0.00609433  0.08423567  0.13755021  1.0
  Ni  Ni145  1  0.00609433  0.41756900  0.13755021  1.0
  Ni  Ni146  1  0.00609433  0.75090233  0.13755021  1.0
  Ni  Ni147  1  0.33942767  0.08423567  0.13755021  1.0
  Ni  Ni148  1  0.33942767  0.41756900  0.13755021  1.0
  Ni  Ni149  1  0.33942767  0.75090233  0.13755021  1.0
  Ni  Ni150  1  0.67276100  0.08423567  0.13755021  1.0
  Ni  Ni151  1  0.67276100  0.41756900  0.13755021  1.0
  Ni  Ni152  1  0.67276100  0.75090233  0.13755021  1.0
  Ni  Ni153  1  0.00609433  0.25090233  0.06612164  1.0
  Ni  Ni154  1  0.00609433  0.58423567  0.06612164  1.0
  Ni  Ni155  1  0.00609433  0.91756900  0.06612164  1.0
  Ni  Ni156  1  0.33942767  0.25090233  0.06612164  1.0
  Ni  Ni157  1  0.33942767  0.58423567  0.06612164  1.0
  Ni  Ni158  1  0.33942767  0.91756900  0.06612164  1.0
  Ni  Ni159  1  0.67276100  0.25090233  0.06612164  1.0
  Ni  Ni160  1  0.67276100  0.58423567  0.06612164  1.0
  Ni  Ni161  1  0.67276100  0.91756900  0.06612164  1.0
  Ni  Ni162  1  0.15876767  0.08423567  0.06366793  1.0
  Ni  Ni163  1  0.15876767  0.41756900  0.06366793  1.0
  Ni  Ni164  1  0.15876767  0.75090233  0.06366793  1.0
  Ni  Ni165  1  0.49210100  0.08423567  0.06366793  1.0
  Ni  Ni166  1  0.49210100  0.41756900  0.06366793  1.0
  Ni  Ni167  1  0.49210100  0.75090233  0.06366793  1.0
  Ni  Ni168  1  0.82543433  0.08423567  0.06366793  1.0
  Ni  Ni169  1  0.82543433  0.41756900  0.06366793  1.0
  Ni  Ni170  1  0.82543433  0.75090233  0.06366793  1.0
  Ni  Ni171  1  0.15876767  0.25090233  0.13509650  1.0
  Ni  Ni172  1  0.15876767  0.58423567  0.13509650  1.0
  Ni  Ni173  1  0.15876767  0.91756900  0.13509650  1.0
  Ni  Ni174  1  0.49210100  0.25090233  0.13509650  1.0
  Ni  Ni175  1  0.49210100  0.58423567  0.13509650  1.0
  Ni  Ni176  1  0.49210100  0.91756900  0.13509650  1.0
  Ni  Ni177  1  0.82543433  0.25090233  0.13509650  1.0
  Ni  Ni178  1  0.82543433  0.58423567  0.13509650  1.0
  Ni  Ni179  1  0.82543433  0.91756900  0.13509650  1.0
  Sb  Sb180  1  0.29102933  0.00000000  0.11519807  1.0
  Sb  Sb181  1  0.29102933  0.33333333  0.11519807  1.0
  Sb  Sb182  1  0.29102933  0.66666667  0.11519807  1.0
  Sb  Sb183  1  0.62436267  0.00000000  0.11519807  1.0
  Sb  Sb184  1  0.62436267  0.33333333  0.11519807  1.0
  Sb  Sb185  1  0.62436267  0.66666667  0.11519807  1.0
  Sb  Sb186  1  0.95769600  0.00000000  0.11519807  1.0
  Sb  Sb187  1  0.95769600  0.33333333  0.11519807  1.0
  Sb  Sb188  1  0.95769600  0.66666667  0.11519807  1.0
  Sb  Sb189  1  0.29102933  0.16666667  0.04376950  1.0
  Sb  Sb190  1  0.29102933  0.50000000  0.04376950  1.0
  Sb  Sb191  1  0.29102933  0.83333333  0.04376950  1.0
  Sb  Sb192  1  0.62436267  0.16666667  0.04376950  1.0
  Sb  Sb193  1  0.62436267  0.50000000  0.04376950  1.0
  Sb  Sb194  1  0.62436267  0.83333333  0.04376950  1.0
  Sb  Sb195  1  0.95769600  0.16666667  0.04376950  1.0
  Sb  Sb196  1  0.95769600  0.50000000  0.04376950  1.0
  Sb  Sb197  1  0.95769600  0.83333333  0.04376950  1.0
  Sb  Sb198  1  0.04230400  0.00000000  0.01536493  1.0
  Sb  Sb199  1  0.04230400  0.33333333  0.01536493  1.0
  Sb  Sb200  1  0.04230400  0.66666667  0.01536493  1.0
  Sb  Sb201  1  0.37563733  0.00000000  0.01536493  1.0
  Sb  Sb202  1  0.37563733  0.33333333  0.01536493  1.0
  Sb  Sb203  1  0.37563733  0.66666667  0.01536493  1.0
  Sb  Sb204  1  0.70897067  0.00000000  0.01536493  1.0
  Sb  Sb205  1  0.70897067  0.33333333  0.01536493  1.0
  Sb  Sb206  1  0.70897067  0.66666667  0.01536493  1.0
  Sb  Sb207  1  0.04230400  0.16666667  0.08679350  1.0
  Sb  Sb208  1  0.04230400  0.50000000  0.08679350  1.0
  Sb  Sb209  1  0.04230400  0.83333333  0.08679350  1.0
  Sb  Sb210  1  0.37563733  0.16666667  0.08679350  1.0
  Sb  Sb211  1  0.37563733  0.50000000  0.08679350  1.0
  Sb  Sb212  1  0.37563733  0.83333333  0.08679350  1.0
  Sb  Sb213  1  0.70897067  0.16666667  0.08679350  1.0
  Sb  Sb214  1  0.70897067  0.50000000  0.08679350  1.0
  Sb  Sb215  1  0.70897067  0.83333333  0.08679350  1.0
  Sb  Sb216  1  0.13239067  0.00000000  0.05137379  1.0
  Sb  Sb217  1  0.13239067  0.33333333  0.05137379  1.0
  Sb  Sb218  1  0.13239067  0.66666667  0.05137379  1.0
  Sb  Sb219  1  0.46572400  0.00000000  0.05137379  1.0
  Sb  Sb220  1  0.46572400  0.33333333  0.05137379  1.0
  Sb  Sb221  1  0.46572400  0.66666667  0.05137379  1.0
  Sb  Sb222  1  0.79905733  0.00000000  0.05137379  1.0
  Sb  Sb223  1  0.79905733  0.33333333  0.05137379  1.0
  Sb  Sb224  1  0.79905733  0.66666667  0.05137379  1.0
  Sb  Sb225  1  0.13239067  0.16666667  0.12280236  1.0
  Sb  Sb226  1  0.13239067  0.50000000  0.12280236  1.0
  Sb  Sb227  1  0.13239067  0.83333333  0.12280236  1.0
  Sb  Sb228  1  0.46572400  0.16666667  0.12280236  1.0
  Sb  Sb229  1  0.46572400  0.50000000  0.12280236  1.0
  Sb  Sb230  1  0.46572400  0.83333333  0.12280236  1.0
  Sb  Sb231  1  0.79905733  0.16666667  0.12280236  1.0
  Sb  Sb232  1  0.79905733  0.50000000  0.12280236  1.0
  Sb  Sb233  1  0.79905733  0.83333333  0.12280236  1.0
  Sb  Sb234  1  0.20094267  0.00000000  0.07918921  1.0
  Sb  Sb235  1  0.20094267  0.33333333  0.07918921  1.0
  Sb  Sb236  1  0.20094267  0.66666667  0.07918921  1.0
  Sb  Sb237  1  0.53427600  0.00000000  0.07918921  1.0
  Sb  Sb238  1  0.53427600  0.33333333  0.07918921  1.0
  Sb  Sb239  1  0.53427600  0.66666667  0.07918921  1.0
  Sb  Sb240  1  0.86760933  0.00000000  0.07918921  1.0
  Sb  Sb241  1  0.86760933  0.33333333  0.07918921  1.0
  Sb  Sb242  1  0.86760933  0.66666667  0.07918921  1.0
  Sb  Sb243  1  0.20094267  0.16666667  0.00776064  1.0
  Sb  Sb244  1  0.20094267  0.50000000  0.00776064  1.0
  Sb  Sb245  1  0.20094267  0.83333333  0.00776064  1.0
  Sb  Sb246  1  0.53427600  0.16666667  0.00776064  1.0
  Sb  Sb247  1  0.53427600  0.50000000  0.00776064  1.0
  Sb  Sb248  1  0.53427600  0.83333333  0.00776064  1.0
  Sb  Sb249  1  0.86760933  0.16666667  0.00776064  1.0
  Sb  Sb250  1  0.86760933  0.50000000  0.00776064  1.0
  Sb  Sb251  1  0.86760933  0.83333333  0.00776064  1.0
  Ni  Ni252  1  0.25066767  0.24933233  0.17271050  1.0
  Ni  Ni253  1  0.25066767  0.58266567  0.17271050  1.0
  Ni  Ni254  1  0.25066767  0.91599900  0.17271050  1.0
  Ni  Ni255  1  0.58400100  0.24933233  0.17271050  1.0
  Ni  Ni256  1  0.58400100  0.58266567  0.17271050  1.0
  Ni  Ni257  1  0.58400100  0.91599900  0.17271050  1.0
  Ni  Ni258  1  0.91733433  0.24933233  0.17271050  1.0
  Ni  Ni259  1  0.91733433  0.58266567  0.17271050  1.0
  Ni  Ni260  1  0.91733433  0.91599900  0.17271050  1.0
  Ni  Ni261  1  0.25066767  0.08266567  0.24413907  1.0
  Ni  Ni262  1  0.25066767  0.41599900  0.24413907  1.0
  Ni  Ni263  1  0.25066767  0.74933233  0.24413907  1.0
  Ni  Ni264  1  0.58400100  0.08266567  0.24413907  1.0
  Ni  Ni265  1  0.58400100  0.41599900  0.24413907  1.0
  Ni  Ni266  1  0.58400100  0.74933233  0.24413907  1.0
  Ni  Ni267  1  0.91733433  0.08266567  0.24413907  1.0
  Ni  Ni268  1  0.91733433  0.41599900  0.24413907  1.0
  Ni  Ni269  1  0.91733433  0.74933233  0.24413907  1.0
  Ni  Ni270  1  0.08266567  0.08400100  0.24356679  1.0
  Ni  Ni271  1  0.08266567  0.41733433  0.24356679  1.0
  Ni  Ni272  1  0.08266567  0.75066767  0.24356679  1.0
  Ni  Ni273  1  0.41599900  0.08400100  0.24356679  1.0
  Ni  Ni274  1  0.41599900  0.41733433  0.24356679  1.0
  Ni  Ni275  1  0.41599900  0.75066767  0.24356679  1.0
  Ni  Ni276  1  0.74933233  0.08400100  0.24356679  1.0
  Ni  Ni277  1  0.74933233  0.41733433  0.24356679  1.0
  Ni  Ni278  1  0.74933233  0.75066767  0.24356679  1.0
  Ni  Ni279  1  0.08266567  0.25066767  0.17213821  1.0
  Ni  Ni280  1  0.08266567  0.58400100  0.17213821  1.0
  Ni  Ni281  1  0.08266567  0.91733433  0.17213821  1.0
  Ni  Ni282  1  0.41599900  0.25066767  0.17213821  1.0
  Ni  Ni283  1  0.41599900  0.58400100  0.17213821  1.0
  Ni  Ni284  1  0.41599900  0.91733433  0.17213821  1.0
  Ni  Ni285  1  0.74933233  0.25066767  0.17213821  1.0
  Ni  Ni286  1  0.74933233  0.58400100  0.17213821  1.0
  Ni  Ni287  1  0.74933233  0.91733433  0.17213821  1.0
  Ni  Ni288  1  0.12406900  0.00000000  0.25820964  1.0
  Ni  Ni289  1  0.12406900  0.33333333  0.25820964  1.0
  Ni  Ni290  1  0.12406900  0.66666667  0.25820964  1.0
  Ni  Ni291  1  0.45740233  0.00000000  0.25820964  1.0
  Ni  Ni292  1  0.45740233  0.33333333  0.25820964  1.0
  Ni  Ni293  1  0.45740233  0.66666667  0.25820964  1.0
  Ni  Ni294  1  0.79073567  0.00000000  0.25820964  1.0
  Ni  Ni295  1  0.79073567  0.33333333  0.25820964  1.0
  Ni  Ni296  1  0.79073567  0.66666667  0.25820964  1.0
  Ni  Ni297  1  0.12406900  0.16666667  0.18678107  1.0
  Ni  Ni298  1  0.12406900  0.50000000  0.18678107  1.0
  Ni  Ni299  1  0.12406900  0.83333333  0.18678107  1.0
  Ni  Ni300  1  0.45740233  0.16666667  0.18678107  1.0
  Ni  Ni301  1  0.45740233  0.50000000  0.18678107  1.0
  Ni  Ni302  1  0.45740233  0.83333333  0.18678107  1.0
  Ni  Ni303  1  0.79073567  0.16666667  0.18678107  1.0
  Ni  Ni304  1  0.79073567  0.50000000  0.18678107  1.0
  Ni  Ni305  1  0.79073567  0.83333333  0.18678107  1.0
  Ni  Ni306  1  0.20926433  0.33333333  0.15806764  1.0
  Ni  Ni307  1  0.20926433  0.66666667  0.15806764  1.0
  Ni  Ni308  1  0.20926433  1.00000000  0.15806764  1.0
  Ni  Ni309  1  0.54259767  0.33333333  0.15806764  1.0
  Ni  Ni310  1  0.54259767  0.66666667  0.15806764  1.0
  Ni  Ni311  1  0.54259767  1.00000000  0.15806764  1.0
  Ni  Ni312  1  0.87593100  0.33333333  0.15806764  1.0
  Ni  Ni313  1  0.87593100  0.66666667  0.15806764  1.0
  Ni  Ni314  1  0.87593100  1.00000000  0.15806764  1.0
  Ni  Ni315  1  0.20926433  0.16666667  0.22949621  1.0
  Ni  Ni316  1  0.20926433  0.50000000  0.22949621  1.0
  Ni  Ni317  1  0.20926433  0.83333333  0.22949621  1.0
  Ni  Ni318  1  0.54259767  0.16666667  0.22949621  1.0
  Ni  Ni319  1  0.54259767  0.50000000  0.22949621  1.0
  Ni  Ni320  1  0.54259767  0.83333333  0.22949621  1.0
  Ni  Ni321  1  0.87593100  0.16666667  0.22949621  1.0
  Ni  Ni322  1  0.87593100  0.50000000  0.22949621  1.0
  Ni  Ni323  1  0.87593100  0.83333333  0.22949621  1.0
  Ni  Ni324  1  0.29938867  0.00000000  0.19460550  1.0
  Ni  Ni325  1  0.29938867  0.33333333  0.19460550  1.0
  Ni  Ni326  1  0.29938867  0.66666667  0.19460550  1.0
  Ni  Ni327  1  0.63272200  0.00000000  0.19460550  1.0
  Ni  Ni328  1  0.63272200  0.33333333  0.19460550  1.0
  Ni  Ni329  1  0.63272200  0.66666667  0.19460550  1.0
  Ni  Ni330  1  0.96605533  0.00000000  0.19460550  1.0
  Ni  Ni331  1  0.96605533  0.33333333  0.19460550  1.0
  Ni  Ni332  1  0.96605533  0.66666667  0.19460550  1.0
  Ni  Ni333  1  0.29938867  0.16666667  0.26603407  1.0
  Ni  Ni334  1  0.29938867  0.50000000  0.26603407  1.0
  Ni  Ni335  1  0.29938867  0.83333333  0.26603407  1.0
  Ni  Ni336  1  0.63272200  0.16666667  0.26603407  1.0
  Ni  Ni337  1  0.63272200  0.50000000  0.26603407  1.0
  Ni  Ni338  1  0.63272200  0.83333333  0.26603407  1.0
  Ni  Ni339  1  0.96605533  0.16666667  0.26603407  1.0
  Ni  Ni340  1  0.96605533  0.50000000  0.26603407  1.0
  Ni  Ni341  1  0.96605533  0.83333333  0.26603407  1.0
  Ni  Ni342  1  0.03394467  0.00000000  0.22167179  1.0
  Ni  Ni343  1  0.03394467  0.33333333  0.22167179  1.0
  Ni  Ni344  1  0.03394467  0.66666667  0.22167179  1.0
  Ni  Ni345  1  0.36727800  0.00000000  0.22167179  1.0
  Ni  Ni346  1  0.36727800  0.33333333  0.22167179  1.0
  Ni  Ni347  1  0.36727800  0.66666667  0.22167179  1.0
  Ni  Ni348  1  0.70061133  0.00000000  0.22167179  1.0
  Ni  Ni349  1  0.70061133  0.33333333  0.22167179  1.0
  Ni  Ni350  1  0.70061133  0.66666667  0.22167179  1.0
  Ni  Ni351  1  0.03394467  0.16666667  0.15024321  1.0
  Ni  Ni352  1  0.03394467  0.50000000  0.15024321  1.0
  Ni  Ni353  1  0.03394467  0.83333333  0.15024321  1.0
  Ni  Ni354  1  0.36727800  0.16666667  0.15024321  1.0
  Ni  Ni355  1  0.36727800  0.50000000  0.15024321  1.0
  Ni  Ni356  1  0.36727800  0.83333333  0.15024321  1.0
  Ni  Ni357  1  0.70061133  0.16666667  0.15024321  1.0
  Ni  Ni358  1  0.70061133  0.50000000  0.15024321  1.0
  Ni  Ni359  1  0.70061133  0.83333333  0.15024321  1.0
  Ni  Ni360  1  0.17456567  0.24909767  0.20975221  1.0
  Ni  Ni361  1  0.17456567  0.58243100  0.20975221  1.0
  Ni  Ni362  1  0.17456567  0.91576433  0.20975221  1.0
  Ni  Ni363  1  0.50789900  0.24909767  0.20975221  1.0
  Ni  Ni364  1  0.50789900  0.58243100  0.20975221  1.0
  Ni  Ni365  1  0.50789900  0.91576433  0.20975221  1.0
  Ni  Ni366  1  0.84123233  0.24909767  0.20975221  1.0
  Ni  Ni367  1  0.84123233  0.58243100  0.20975221  1.0
  Ni  Ni368  1  0.84123233  0.91576433  0.20975221  1.0
  Ni  Ni369  1  0.17456567  0.08243100  0.28118079  1.0
  Ni  Ni370  1  0.17456567  0.41576433  0.28118079  1.0
  Ni  Ni371  1  0.17456567  0.74909767  0.28118079  1.0
  Ni  Ni372  1  0.50789900  0.08243100  0.28118079  1.0
  Ni  Ni373  1  0.50789900  0.41576433  0.28118079  1.0
  Ni  Ni374  1  0.50789900  0.74909767  0.28118079  1.0
  Ni  Ni375  1  0.84123233  0.08243100  0.28118079  1.0
  Ni  Ni376  1  0.84123233  0.41576433  0.28118079  1.0
  Ni  Ni377  1  0.84123233  0.74909767  0.28118079  1.0
  Ni  Ni378  1  0.32723900  0.24909767  0.27872707  1.0
  Ni  Ni379  1  0.32723900  0.58243100  0.27872707  1.0
  Ni  Ni380  1  0.32723900  0.91576433  0.27872707  1.0
  Ni  Ni381  1  0.66057233  0.24909767  0.27872707  1.0
  Ni  Ni382  1  0.66057233  0.58243100  0.27872707  1.0
  Ni  Ni383  1  0.66057233  0.91576433  0.27872707  1.0
  Ni  Ni384  1  0.99390567  0.24909767  0.27872707  1.0
  Ni  Ni385  1  0.99390567  0.58243100  0.27872707  1.0
  Ni  Ni386  1  0.99390567  0.91576433  0.27872707  1.0
  Ni  Ni387  1  0.32723900  0.08243100  0.20729850  1.0
  Ni  Ni388  1  0.32723900  0.41576433  0.20729850  1.0
  Ni  Ni389  1  0.32723900  0.74909767  0.20729850  1.0
  Ni  Ni390  1  0.66057233  0.08243100  0.20729850  1.0
  Ni  Ni391  1  0.66057233  0.41576433  0.20729850  1.0
  Ni  Ni392  1  0.66057233  0.74909767  0.20729850  1.0
  Ni  Ni393  1  0.99390567  0.08243100  0.20729850  1.0
  Ni  Ni394  1  0.99390567  0.41576433  0.20729850  1.0
  Ni  Ni395  1  0.99390567  0.74909767  0.20729850  1.0
  Ni  Ni396  1  0.00609433  0.08423567  0.28040736  1.0
  Ni  Ni397  1  0.00609433  0.41756900  0.28040736  1.0
  Ni  Ni398  1  0.00609433  0.75090233  0.28040736  1.0
  Ni  Ni399  1  0.33942767  0.08423567  0.28040736  1.0
  Ni  Ni400  1  0.33942767  0.41756900  0.28040736  1.0
  Ni  Ni401  1  0.33942767  0.75090233  0.28040736  1.0
  Ni  Ni402  1  0.67276100  0.08423567  0.28040736  1.0
  Ni  Ni403  1  0.67276100  0.41756900  0.28040736  1.0
  Ni  Ni404  1  0.67276100  0.75090233  0.28040736  1.0
  Ni  Ni405  1  0.00609433  0.25090233  0.20897879  1.0
  Ni  Ni406  1  0.00609433  0.58423567  0.20897879  1.0
  Ni  Ni407  1  0.00609433  0.91756900  0.20897879  1.0
  Ni  Ni408  1  0.33942767  0.25090233  0.20897879  1.0
  Ni  Ni409  1  0.33942767  0.58423567  0.20897879  1.0
  Ni  Ni410  1  0.33942767  0.91756900  0.20897879  1.0
  Ni  Ni411  1  0.67276100  0.25090233  0.20897879  1.0
  Ni  Ni412  1  0.67276100  0.58423567  0.20897879  1.0
  Ni  Ni413  1  0.67276100  0.91756900  0.20897879  1.0
  Ni  Ni414  1  0.15876767  0.08423567  0.20652507  1.0
  Ni  Ni415  1  0.15876767  0.41756900  0.20652507  1.0
  Ni  Ni416  1  0.15876767  0.75090233  0.20652507  1.0
  Ni  Ni417  1  0.49210100  0.08423567  0.20652507  1.0
  Ni  Ni418  1  0.49210100  0.41756900  0.20652507  1.0
  Ni  Ni419  1  0.49210100  0.75090233  0.20652507  1.0
  Ni  Ni420  1  0.82543433  0.08423567  0.20652507  1.0
  Ni  Ni421  1  0.82543433  0.41756900  0.20652507  1.0
  Ni  Ni422  1  0.82543433  0.75090233  0.20652507  1.0
  Ni  Ni423  1  0.15876767  0.25090233  0.27795364  1.0
  Ni  Ni424  1  0.15876767  0.58423567  0.27795364  1.0
  Ni  Ni425  1  0.15876767  0.91756900  0.27795364  1.0
  Ni  Ni426  1  0.49210100  0.25090233  0.27795364  1.0
  Ni  Ni427  1  0.49210100  0.58423567  0.27795364  1.0
  Ni  Ni428  1  0.49210100  0.91756900  0.27795364  1.0
  Ni  Ni429  1  0.82543433  0.25090233  0.27795364  1.0
  Ni  Ni430  1  0.82543433  0.58423567  0.27795364  1.0
  Ni  Ni431  1  0.82543433  0.91756900  0.27795364  1.0
  Sb  Sb432  1  0.29102933  0.00000000  0.25805521  1.0
  Sb  Sb433  1  0.29102933  0.33333333  0.25805521  1.0
  Sb  Sb434  1  0.29102933  0.66666667  0.25805521  1.0
  Sb  Sb435  1  0.62436267  0.00000000  0.25805521  1.0
  Sb  Sb436  1  0.62436267  0.33333333  0.25805521  1.0
  Sb  Sb437  1  0.62436267  0.66666667  0.25805521  1.0
  Sb  Sb438  1  0.95769600  0.00000000  0.25805521  1.0
  Sb  Sb439  1  0.95769600  0.33333333  0.25805521  1.0
  Sb  Sb440  1  0.95769600  0.66666667  0.25805521  1.0
  Sb  Sb441  1  0.29102933  0.16666667  0.18662664  1.0
  Sb  Sb442  1  0.29102933  0.50000000  0.18662664  1.0
  Sb  Sb443  1  0.29102933  0.83333333  0.18662664  1.0
  Sb  Sb444  1  0.62436267  0.16666667  0.18662664  1.0
  Sb  Sb445  1  0.62436267  0.50000000  0.18662664  1.0
  Sb  Sb446  1  0.62436267  0.83333333  0.18662664  1.0
  Sb  Sb447  1  0.95769600  0.16666667  0.18662664  1.0
  Sb  Sb448  1  0.95769600  0.50000000  0.18662664  1.0
  Sb  Sb449  1  0.95769600  0.83333333  0.18662664  1.0
  Sb  Sb450  1  0.04230400  0.00000000  0.15822207  1.0
  Sb  Sb451  1  0.04230400  0.33333333  0.15822207  1.0
  Sb  Sb452  1  0.04230400  0.66666667  0.15822207  1.0
  Sb  Sb453  1  0.37563733  0.00000000  0.15822207  1.0
  Sb  Sb454  1  0.37563733  0.33333333  0.15822207  1.0
  Sb  Sb455  1  0.37563733  0.66666667  0.15822207  1.0
  Sb  Sb456  1  0.70897067  0.00000000  0.15822207  1.0
  Sb  Sb457  1  0.70897067  0.33333333  0.15822207  1.0
  Sb  Sb458  1  0.70897067  0.66666667  0.15822207  1.0
  Sb  Sb459  1  0.04230400  0.16666667  0.22965064  1.0
  Sb  Sb460  1  0.04230400  0.50000000  0.22965064  1.0
  Sb  Sb461  1  0.04230400  0.83333333  0.22965064  1.0
  Sb  Sb462  1  0.37563733  0.16666667  0.22965064  1.0
  Sb  Sb463  1  0.37563733  0.50000000  0.22965064  1.0
  Sb  Sb464  1  0.37563733  0.83333333  0.22965064  1.0
  Sb  Sb465  1  0.70897067  0.16666667  0.22965064  1.0
  Sb  Sb466  1  0.70897067  0.50000000  0.22965064  1.0
  Sb  Sb467  1  0.70897067  0.83333333  0.22965064  1.0
  Sb  Sb468  1  0.13239067  0.00000000  0.19423093  1.0
  Sb  Sb469  1  0.13239067  0.33333333  0.19423093  1.0
  Sb  Sb470  1  0.13239067  0.66666667  0.19423093  1.0
  Sb  Sb471  1  0.46572400  0.00000000  0.19423093  1.0
  Sb  Sb472  1  0.46572400  0.33333333  0.19423093  1.0
  Sb  Sb473  1  0.46572400  0.66666667  0.19423093  1.0
  Sb  Sb474  1  0.79905733  0.00000000  0.19423093  1.0
  Sb  Sb475  1  0.79905733  0.33333333  0.19423093  1.0
  Sb  Sb476  1  0.79905733  0.66666667  0.19423093  1.0
  Sb  Sb477  1  0.13239067  0.16666667  0.26565950  1.0
  Sb  Sb478  1  0.13239067  0.50000000  0.26565950  1.0
  Sb  Sb479  1  0.13239067  0.83333333  0.26565950  1.0
  Sb  Sb480  1  0.46572400  0.16666667  0.26565950  1.0
  Sb  Sb481  1  0.46572400  0.50000000  0.26565950  1.0
  Sb  Sb482  1  0.46572400  0.83333333  0.26565950  1.0
  Sb  Sb483  1  0.79905733  0.16666667  0.26565950  1.0
  Sb  Sb484  1  0.79905733  0.50000000  0.26565950  1.0
  Sb  Sb485  1  0.79905733  0.83333333  0.26565950  1.0
  Sb  Sb486  1  0.20094267  0.00000000  0.22204636  1.0
  Sb  Sb487  1  0.20094267  0.33333333  0.22204636  1.0
  Sb  Sb488  1  0.20094267  0.66666667  0.22204636  1.0
  Sb  Sb489  1  0.53427600  0.00000000  0.22204636  1.0
  Sb  Sb490  1  0.53427600  0.33333333  0.22204636  1.0
  Sb  Sb491  1  0.53427600  0.66666667  0.22204636  1.0
  Sb  Sb492  1  0.86760933  0.00000000  0.22204636  1.0
  Sb  Sb493  1  0.86760933  0.33333333  0.22204636  1.0
  Sb  Sb494  1  0.86760933  0.66666667  0.22204636  1.0
  Sb  Sb495  1  0.20094267  0.16666667  0.15061779  1.0
  Sb  Sb496  1  0.20094267  0.50000000  0.15061779  1.0
  Sb  Sb497  1  0.20094267  0.83333333  0.15061779  1.0
  Sb  Sb498  1  0.53427600  0.16666667  0.15061779  1.0
  Sb  Sb499  1  0.53427600  0.50000000  0.15061779  1.0
  Sb  Sb500  1  0.53427600  0.83333333  0.15061779  1.0
  Sb  Sb501  1  0.86760933  0.16666667  0.15061779  1.0
  Sb  Sb502  1  0.86760933  0.50000000  0.15061779  1.0
  Sb  Sb503  1  0.86760933  0.83333333  0.15061779  1.0
  Ni  Ni504  1  0.25066767  0.24933233  0.31556764  1.0
  Ni  Ni505  1  0.25066767  0.58266567  0.31556764  1.0
  Ni  Ni506  1  0.25066767  0.91599900  0.31556764  1.0
  Ni  Ni507  1  0.58400100  0.24933233  0.31556764  1.0
  Ni  Ni508  1  0.58400100  0.58266567  0.31556764  1.0
  Ni  Ni509  1  0.58400100  0.91599900  0.31556764  1.0
  Ni  Ni510  1  0.91733433  0.24933233  0.31556764  1.0
  Ni  Ni511  1  0.91733433  0.58266567  0.31556764  1.0
  Ni  Ni512  1  0.91733433  0.91599900  0.31556764  1.0
  Ni  Ni513  1  0.25066767  0.08266567  0.38699621  1.0
  Ni  Ni514  1  0.25066767  0.41599900  0.38699621  1.0
  Ni  Ni515  1  0.25066767  0.74933233  0.38699621  1.0
  Ni  Ni516  1  0.58400100  0.08266567  0.38699621  1.0
  Ni  Ni517  1  0.58400100  0.41599900  0.38699621  1.0
  Ni  Ni518  1  0.58400100  0.74933233  0.38699621  1.0
  Ni  Ni519  1  0.91733433  0.08266567  0.38699621  1.0
  Ni  Ni520  1  0.91733433  0.41599900  0.38699621  1.0
  Ni  Ni521  1  0.91733433  0.74933233  0.38699621  1.0
  Ni  Ni522  1  0.08266567  0.08400100  0.38642393  1.0
  Ni  Ni523  1  0.08266567  0.41733433  0.38642393  1.0
  Ni  Ni524  1  0.08266567  0.75066767  0.38642393  1.0
  Ni  Ni525  1  0.41599900  0.08400100  0.38642393  1.0
  Ni  Ni526  1  0.41599900  0.41733433  0.38642393  1.0
  Ni  Ni527  1  0.41599900  0.75066767  0.38642393  1.0
  Ni  Ni528  1  0.74933233  0.08400100  0.38642393  1.0
  Ni  Ni529  1  0.74933233  0.41733433  0.38642393  1.0
  Ni  Ni530  1  0.74933233  0.75066767  0.38642393  1.0
  Ni  Ni531  1  0.08266567  0.25066767  0.31499536  1.0
  Ni  Ni532  1  0.08266567  0.58400100  0.31499536  1.0
  Ni  Ni533  1  0.08266567  0.91733433  0.31499536  1.0
  Ni  Ni534  1  0.41599900  0.25066767  0.31499536  1.0
  Ni  Ni535  1  0.41599900  0.58400100  0.31499536  1.0
  Ni  Ni536  1  0.41599900  0.91733433  0.31499536  1.0
  Ni  Ni537  1  0.74933233  0.25066767  0.31499536  1.0
  Ni  Ni538  1  0.74933233  0.58400100  0.31499536  1.0
  Ni  Ni539  1  0.74933233  0.91733433  0.31499536  1.0
  Ni  Ni540  1  0.12406900  0.00000000  0.40106679  1.0
  Ni  Ni541  1  0.12406900  0.33333333  0.40106679  1.0
  Ni  Ni542  1  0.12406900  0.66666667  0.40106679  1.0
  Ni  Ni543  1  0.45740233  0.00000000  0.40106679  1.0
  Ni  Ni544  1  0.45740233  0.33333333  0.40106679  1.0
  Ni  Ni545  1  0.45740233  0.66666667  0.40106679  1.0
  Ni  Ni546  1  0.79073567  0.00000000  0.40106679  1.0
  Ni  Ni547  1  0.79073567  0.33333333  0.40106679  1.0
  Ni  Ni548  1  0.79073567  0.66666667  0.40106679  1.0
  Ni  Ni549  1  0.12406900  0.16666667  0.32963821  1.0
  Ni  Ni550  1  0.12406900  0.50000000  0.32963821  1.0
  Ni  Ni551  1  0.12406900  0.83333333  0.32963821  1.0
  Ni  Ni552  1  0.45740233  0.16666667  0.32963821  1.0
  Ni  Ni553  1  0.45740233  0.50000000  0.32963821  1.0
  Ni  Ni554  1  0.45740233  0.83333333  0.32963821  1.0
  Ni  Ni555  1  0.79073567  0.16666667  0.32963821  1.0
  Ni  Ni556  1  0.79073567  0.50000000  0.32963821  1.0
  Ni  Ni557  1  0.79073567  0.83333333  0.32963821  1.0
  Ni  Ni558  1  0.20926433  0.33333333  0.30092479  1.0
  Ni  Ni559  1  0.20926433  0.66666667  0.30092479  1.0
  Ni  Ni560  1  0.20926433  1.00000000  0.30092479  1.0
  Ni  Ni561  1  0.54259767  0.33333333  0.30092479  1.0
  Ni  Ni562  1  0.54259767  0.66666667  0.30092479  1.0
  Ni  Ni563  1  0.54259767  1.00000000  0.30092479  1.0
  Ni  Ni564  1  0.87593100  0.33333333  0.30092479  1.0
  Ni  Ni565  1  0.87593100  0.66666667  0.30092479  1.0
  Ni  Ni566  1  0.87593100  1.00000000  0.30092479  1.0
  Ni  Ni567  1  0.20926433  0.16666667  0.37235336  1.0
  Ni  Ni568  1  0.20926433  0.50000000  0.37235336  1.0
  Ni  Ni569  1  0.20926433  0.83333333  0.37235336  1.0
  Ni  Ni570  1  0.54259767  0.16666667  0.37235336  1.0
  Ni  Ni571  1  0.54259767  0.50000000  0.37235336  1.0
  Ni  Ni572  1  0.54259767  0.83333333  0.37235336  1.0
  Ni  Ni573  1  0.87593100  0.16666667  0.37235336  1.0
  Ni  Ni574  1  0.87593100  0.50000000  0.37235336  1.0
  Ni  Ni575  1  0.87593100  0.83333333  0.37235336  1.0
  Ni  Ni576  1  0.29938867  0.00000000  0.33746264  1.0
  Ni  Ni577  1  0.29938867  0.33333333  0.33746264  1.0
  Ni  Ni578  1  0.29938867  0.66666667  0.33746264  1.0
  Ni  Ni579  1  0.63272200  0.00000000  0.33746264  1.0
  Ni  Ni580  1  0.63272200  0.33333333  0.33746264  1.0
  Ni  Ni581  1  0.63272200  0.66666667  0.33746264  1.0
  Ni  Ni582  1  0.96605533  0.00000000  0.33746264  1.0
  Ni  Ni583  1  0.96605533  0.33333333  0.33746264  1.0
  Ni  Ni584  1  0.96605533  0.66666667  0.33746264  1.0
  Ni  Ni585  1  0.29938867  0.16666667  0.40889121  1.0
  Ni  Ni586  1  0.29938867  0.50000000  0.40889121  1.0
  Ni  Ni587  1  0.29938867  0.83333333  0.40889121  1.0
  Ni  Ni588  1  0.63272200  0.16666667  0.40889121  1.0
  Ni  Ni589  1  0.63272200  0.50000000  0.40889121  1.0
  Ni  Ni590  1  0.63272200  0.83333333  0.40889121  1.0
  Ni  Ni591  1  0.96605533  0.16666667  0.40889121  1.0
  Ni  Ni592  1  0.96605533  0.50000000  0.40889121  1.0
  Ni  Ni593  1  0.96605533  0.83333333  0.40889121  1.0
  Ni  Ni594  1  0.03394467  0.00000000  0.36452893  1.0
  Ni  Ni595  1  0.03394467  0.33333333  0.36452893  1.0
  Ni  Ni596  1  0.03394467  0.66666667  0.36452893  1.0
  Ni  Ni597  1  0.36727800  0.00000000  0.36452893  1.0
  Ni  Ni598  1  0.36727800  0.33333333  0.36452893  1.0
  Ni  Ni599  1  0.36727800  0.66666667  0.36452893  1.0
  Ni  Ni600  1  0.70061133  0.00000000  0.36452893  1.0
  Ni  Ni601  1  0.70061133  0.33333333  0.36452893  1.0
  Ni  Ni602  1  0.70061133  0.66666667  0.36452893  1.0
  Ni  Ni603  1  0.03394467  0.16666667  0.29310036  1.0
  Ni  Ni604  1  0.03394467  0.50000000  0.29310036  1.0
  Ni  Ni605  1  0.03394467  0.83333333  0.29310036  1.0
  Ni  Ni606  1  0.36727800  0.16666667  0.29310036  1.0
  Ni  Ni607  1  0.36727800  0.50000000  0.29310036  1.0
  Ni  Ni608  1  0.36727800  0.83333333  0.29310036  1.0
  Ni  Ni609  1  0.70061133  0.16666667  0.29310036  1.0
  Ni  Ni610  1  0.70061133  0.50000000  0.29310036  1.0
  Ni  Ni611  1  0.70061133  0.83333333  0.29310036  1.0
  Ni  Ni612  1  0.17456567  0.24909767  0.35260936  1.0
  Ni  Ni613  1  0.17456567  0.58243100  0.35260936  1.0
  Ni  Ni614  1  0.17456567  0.91576433  0.35260936  1.0
  Ni  Ni615  1  0.50789900  0.24909767  0.35260936  1.0
  Ni  Ni616  1  0.50789900  0.58243100  0.35260936  1.0
  Ni  Ni617  1  0.50789900  0.91576433  0.35260936  1.0
  Ni  Ni618  1  0.84123233  0.24909767  0.35260936  1.0
  Ni  Ni619  1  0.84123233  0.58243100  0.35260936  1.0
  Ni  Ni620  1  0.84123233  0.91576433  0.35260936  1.0
  Ni  Ni621  1  0.17456567  0.08243100  0.42403793  1.0
  Ni  Ni622  1  0.17456567  0.41576433  0.42403793  1.0
  Ni  Ni623  1  0.17456567  0.74909767  0.42403793  1.0
  Ni  Ni624  1  0.50789900  0.08243100  0.42403793  1.0
  Ni  Ni625  1  0.50789900  0.41576433  0.42403793  1.0
  Ni  Ni626  1  0.50789900  0.74909767  0.42403793  1.0
  Ni  Ni627  1  0.84123233  0.08243100  0.42403793  1.0
  Ni  Ni628  1  0.84123233  0.41576433  0.42403793  1.0
  Ni  Ni629  1  0.84123233  0.74909767  0.42403793  1.0
  Ni  Ni630  1  0.32723900  0.24909767  0.42158421  1.0
  Ni  Ni631  1  0.32723900  0.58243100  0.42158421  1.0
  Ni  Ni632  1  0.32723900  0.91576433  0.42158421  1.0
  Ni  Ni633  1  0.66057233  0.24909767  0.42158421  1.0
  Ni  Ni634  1  0.66057233  0.58243100  0.42158421  1.0
  Ni  Ni635  1  0.66057233  0.91576433  0.42158421  1.0
  Ni  Ni636  1  0.99390567  0.24909767  0.42158421  1.0
  Ni  Ni637  1  0.99390567  0.58243100  0.42158421  1.0
  Ni  Ni638  1  0.99390567  0.91576433  0.42158421  1.0
  Ni  Ni639  1  0.32723900  0.08243100  0.35015564  1.0
  Ni  Ni640  1  0.32723900  0.41576433  0.35015564  1.0
  Ni  Ni641  1  0.32723900  0.74909767  0.35015564  1.0
  Ni  Ni642  1  0.66057233  0.08243100  0.35015564  1.0
  Ni  Ni643  1  0.66057233  0.41576433  0.35015564  1.0
  Ni  Ni644  1  0.66057233  0.74909767  0.35015564  1.0
  Ni  Ni645  1  0.99390567  0.08243100  0.35015564  1.0
  Ni  Ni646  1  0.99390567  0.41576433  0.35015564  1.0
  Ni  Ni647  1  0.99390567  0.74909767  0.35015564  1.0
  Ni  Ni648  1  0.00609433  0.08423567  0.42326450  1.0
  Ni  Ni649  1  0.00609433  0.41756900  0.42326450  1.0
  Ni  Ni650  1  0.00609433  0.75090233  0.42326450  1.0
  Ni  Ni651  1  0.33942767  0.08423567  0.42326450  1.0
  Ni  Ni652  1  0.33942767  0.41756900  0.42326450  1.0
  Ni  Ni653  1  0.33942767  0.75090233  0.42326450  1.0
  Ni  Ni654  1  0.67276100  0.08423567  0.42326450  1.0
  Ni  Ni655  1  0.67276100  0.41756900  0.42326450  1.0
  Ni  Ni656  1  0.67276100  0.75090233  0.42326450  1.0
  Ni  Ni657  1  0.00609433  0.25090233  0.35183593  1.0
  Ni  Ni658  1  0.00609433  0.58423567  0.35183593  1.0
  Ni  Ni659  1  0.00609433  0.91756900  0.35183593  1.0
  Ni  Ni660  1  0.33942767  0.25090233  0.35183593  1.0
  Ni  Ni661  1  0.33942767  0.58423567  0.35183593  1.0
  Ni  Ni662  1  0.33942767  0.91756900  0.35183593  1.0
  Ni  Ni663  1  0.67276100  0.25090233  0.35183593  1.0
  Ni  Ni664  1  0.67276100  0.58423567  0.35183593  1.0
  Ni  Ni665  1  0.67276100  0.91756900  0.35183593  1.0
  Ni  Ni666  1  0.15876767  0.08423567  0.34938221  1.0
  Ni  Ni667  1  0.15876767  0.41756900  0.34938221  1.0
  Ni  Ni668  1  0.15876767  0.75090233  0.34938221  1.0
  Ni  Ni669  1  0.49210100  0.08423567  0.34938221  1.0
  Ni  Ni670  1  0.49210100  0.41756900  0.34938221  1.0
  Ni  Ni671  1  0.49210100  0.75090233  0.34938221  1.0
  Ni  Ni672  1  0.82543433  0.08423567  0.34938221  1.0
  Ni  Ni673  1  0.82543433  0.41756900  0.34938221  1.0
  Ni  Ni674  1  0.82543433  0.75090233  0.34938221  1.0
  Ni  Ni675  1  0.15876767  0.25090233  0.42081079  1.0
  Ni  Ni676  1  0.15876767  0.58423567  0.42081079  1.0
  Ni  Ni677  1  0.15876767  0.91756900  0.42081079  1.0
  Ni  Ni678  1  0.49210100  0.25090233  0.42081079  1.0
  Ni  Ni679  1  0.49210100  0.58423567  0.42081079  1.0
  Ni  Ni680  1  0.49210100  0.91756900  0.42081079  1.0
  Ni  Ni681  1  0.82543433  0.25090233  0.42081079  1.0
  Ni  Ni682  1  0.82543433  0.58423567  0.42081079  1.0
  Ni  Ni683  1  0.82543433  0.91756900  0.42081079  1.0
  Sb  Sb684  1  0.29102933  0.00000000  0.40091236  1.0
  Sb  Sb685  1  0.29102933  0.33333333  0.40091236  1.0
  Sb  Sb686  1  0.29102933  0.66666667  0.40091236  1.0
  Sb  Sb687  1  0.62436267  0.00000000  0.40091236  1.0
  Sb  Sb688  1  0.62436267  0.33333333  0.40091236  1.0
  Sb  Sb689  1  0.62436267  0.66666667  0.40091236  1.0
  Sb  Sb690  1  0.95769600  0.00000000  0.40091236  1.0
  Sb  Sb691  1  0.95769600  0.33333333  0.40091236  1.0
  Sb  Sb692  1  0.95769600  0.66666667  0.40091236  1.0
  Sb  Sb693  1  0.29102933  0.16666667  0.32948379  1.0
  Sb  Sb694  1  0.29102933  0.50000000  0.32948379  1.0
  Sb  Sb695  1  0.29102933  0.83333333  0.32948379  1.0
  Sb  Sb696  1  0.62436267  0.16666667  0.32948379  1.0
  Sb  Sb697  1  0.62436267  0.50000000  0.32948379  1.0
  Sb  Sb698  1  0.62436267  0.83333333  0.32948379  1.0
  Sb  Sb699  1  0.95769600  0.16666667  0.32948379  1.0
  Sb  Sb700  1  0.95769600  0.50000000  0.32948379  1.0
  Sb  Sb701  1  0.95769600  0.83333333  0.32948379  1.0
  Sb  Sb702  1  0.04230400  0.00000000  0.30107921  1.0
  Sb  Sb703  1  0.04230400  0.33333333  0.30107921  1.0
  Sb  Sb704  1  0.04230400  0.66666667  0.30107921  1.0
  Sb  Sb705  1  0.37563733  0.00000000  0.30107921  1.0
  Sb  Sb706  1  0.37563733  0.33333333  0.30107921  1.0
  Sb  Sb707  1  0.37563733  0.66666667  0.30107921  1.0
  Sb  Sb708  1  0.70897067  0.00000000  0.30107921  1.0
  Sb  Sb709  1  0.70897067  0.33333333  0.30107921  1.0
  Sb  Sb710  1  0.70897067  0.66666667  0.30107921  1.0
  Sb  Sb711  1  0.04230400  0.16666667  0.37250779  1.0
  Sb  Sb712  1  0.04230400  0.50000000  0.37250779  1.0
  Sb  Sb713  1  0.04230400  0.83333333  0.37250779  1.0
  Sb  Sb714  1  0.37563733  0.16666667  0.37250779  1.0
  Sb  Sb715  1  0.37563733  0.50000000  0.37250779  1.0
  Sb  Sb716  1  0.37563733  0.83333333  0.37250779  1.0
  Sb  Sb717  1  0.70897067  0.16666667  0.37250779  1.0
  Sb  Sb718  1  0.70897067  0.50000000  0.37250779  1.0
  Sb  Sb719  1  0.70897067  0.83333333  0.37250779  1.0
  Sb  Sb720  1  0.13239067  0.00000000  0.33708807  1.0
  Sb  Sb721  1  0.13239067  0.33333333  0.33708807  1.0
  Sb  Sb722  1  0.13239067  0.66666667  0.33708807  1.0
  Sb  Sb723  1  0.46572400  0.00000000  0.33708807  1.0
  Sb  Sb724  1  0.46572400  0.33333333  0.33708807  1.0
  Sb  Sb725  1  0.46572400  0.66666667  0.33708807  1.0
  Sb  Sb726  1  0.79905733  0.00000000  0.33708807  1.0
  Sb  Sb727  1  0.79905733  0.33333333  0.33708807  1.0
  Sb  Sb728  1  0.79905733  0.66666667  0.33708807  1.0
  Sb  Sb729  1  0.13239067  0.16666667  0.40851664  1.0
  Sb  Sb730  1  0.13239067  0.50000000  0.40851664  1.0
  Sb  Sb731  1  0.13239067  0.83333333  0.40851664  1.0
  Sb  Sb732  1  0.46572400  0.16666667  0.40851664  1.0
  Sb  Sb733  1  0.46572400  0.50000000  0.40851664  1.0
  Sb  Sb734  1  0.46572400  0.83333333  0.40851664  1.0
  Sb  Sb735  1  0.79905733  0.16666667  0.40851664  1.0
  Sb  Sb736  1  0.79905733  0.50000000  0.40851664  1.0
  Sb  Sb737  1  0.79905733  0.83333333  0.40851664  1.0
  Sb  Sb738  1  0.20094267  0.00000000  0.36490350  1.0
  Sb  Sb739  1  0.20094267  0.33333333  0.36490350  1.0
  Sb  Sb740  1  0.20094267  0.66666667  0.36490350  1.0
  Sb  Sb741  1  0.53427600  0.00000000  0.36490350  1.0
  Sb  Sb742  1  0.53427600  0.33333333  0.36490350  1.0
  Sb  Sb743  1  0.53427600  0.66666667  0.36490350  1.0
  Sb  Sb744  1  0.86760933  0.00000000  0.36490350  1.0
  Sb  Sb745  1  0.86760933  0.33333333  0.36490350  1.0
  Sb  Sb746  1  0.86760933  0.66666667  0.36490350  1.0
  Sb  Sb747  1  0.20094267  0.16666667  0.29347493  1.0
  Sb  Sb748  1  0.20094267  0.50000000  0.29347493  1.0
  Sb  Sb749  1  0.20094267  0.83333333  0.29347493  1.0
  Sb  Sb750  1  0.53427600  0.16666667  0.29347493  1.0
  Sb  Sb751  1  0.53427600  0.50000000  0.29347493  1.0
  Sb  Sb752  1  0.53427600  0.83333333  0.29347493  1.0
  Sb  Sb753  1  0.86760933  0.16666667  0.29347493  1.0
  Sb  Sb754  1  0.86760933  0.50000000  0.29347493  1.0
  Sb  Sb755  1  0.86760933  0.83333333  0.29347493  1.0
