# generated using pymatgen
data_Ni7Ge4
_symmetry_space_group_name_H-M   'P 1'
_cell_length_a   30.09059700
_cell_length_b   31.50633697
_cell_length_c   39.69425350
_cell_angle_alpha   139.10660535
_cell_angle_beta   90.00000000
_cell_angle_gamma   90.00000000
_symmetry_Int_Tables_number   1
_chemical_formula_structural   Ni7Ge4
_chemical_formula_sum   'Ni504 Ge288'
_cell_volume   24635.87342882
_cell_formula_units_Z   72
loop_
 _symmetry_equiv_pos_site_id
 _symmetry_equiv_pos_as_xyz
  1  'x, y, z'
loop_
 _atom_site_type_symbol
 _atom_site_label
 _atom_site_symmetry_multiplicity
 _atom_site_fract_x
 _atom_site_fract_y
 _atom_site_fract_z
 _atom_site_occupancy
  Ni  Ni0  1  0.20905433  0.16666667  0.04166667  1.0
  Ni  Ni1  1  0.20905433  0.50000000  0.04166667  1.0
  Ni  Ni2  1  0.20905433  0.83333333  0.04166667  1.0
  Ni  Ni3  1  0.54238767  0.16666667  0.04166667  1.0
  Ni  Ni4  1  0.54238767  0.50000000  0.04166667  1.0
  Ni  Ni5  1  0.54238767  0.83333333  0.04166667  1.0
  Ni  Ni6  1  0.87572100  0.16666667  0.04166667  1.0
  Ni  Ni7  1  0.87572100  0.50000000  0.04166667  1.0
  Ni  Ni8  1  0.87572100  0.83333333  0.04166667  1.0
  Ni  Ni9  1  0.20905433  0.00000000  0.09166667  1.0
  Ni  Ni10  1  0.20905433  0.33333333  0.09166667  1.0
  Ni  Ni11  1  0.20905433  0.66666667  0.09166667  1.0
  Ni  Ni12  1  0.54238767  0.00000000  0.09166667  1.0
  Ni  Ni13  1  0.54238767  0.33333333  0.09166667  1.0
  Ni  Ni14  1  0.54238767  0.66666667  0.09166667  1.0
  Ni  Ni15  1  0.87572100  0.00000000  0.09166667  1.0
  Ni  Ni16  1  0.87572100  0.33333333  0.09166667  1.0
  Ni  Ni17  1  0.87572100  0.66666667  0.09166667  1.0
  Ni  Ni18  1  0.04028400  0.16666667  0.04166667  1.0
  Ni  Ni19  1  0.04028400  0.50000000  0.04166667  1.0
  Ni  Ni20  1  0.04028400  0.83333333  0.04166667  1.0
  Ni  Ni21  1  0.37361733  0.16666667  0.04166667  1.0
  Ni  Ni22  1  0.37361733  0.50000000  0.04166667  1.0
  Ni  Ni23  1  0.37361733  0.83333333  0.04166667  1.0
  Ni  Ni24  1  0.70695067  0.16666667  0.04166667  1.0
  Ni  Ni25  1  0.70695067  0.50000000  0.04166667  1.0
  Ni  Ni26  1  0.70695067  0.83333333  0.04166667  1.0
  Ni  Ni27  1  0.04028400  0.00000000  0.09166667  1.0
  Ni  Ni28  1  0.04028400  0.33333333  0.09166667  1.0
  Ni  Ni29  1  0.04028400  0.66666667  0.09166667  1.0
  Ni  Ni30  1  0.37361733  0.00000000  0.09166667  1.0
  Ni  Ni31  1  0.37361733  0.33333333  0.09166667  1.0
  Ni  Ni32  1  0.37361733  0.66666667  0.09166667  1.0
  Ni  Ni33  1  0.70695067  0.00000000  0.09166667  1.0
  Ni  Ni34  1  0.70695067  0.33333333  0.09166667  1.0
  Ni  Ni35  1  0.70695067  0.66666667  0.09166667  1.0
  Ni  Ni36  1  0.29304933  0.16666667  0.04166667  1.0
  Ni  Ni37  1  0.29304933  0.50000000  0.04166667  1.0
  Ni  Ni38  1  0.29304933  0.83333333  0.04166667  1.0
  Ni  Ni39  1  0.62638267  0.16666667  0.04166667  1.0
  Ni  Ni40  1  0.62638267  0.50000000  0.04166667  1.0
  Ni  Ni41  1  0.62638267  0.83333333  0.04166667  1.0
  Ni  Ni42  1  0.95971600  0.16666667  0.04166667  1.0
  Ni  Ni43  1  0.95971600  0.50000000  0.04166667  1.0
  Ni  Ni44  1  0.95971600  0.83333333  0.04166667  1.0
  Ni  Ni45  1  0.29304933  0.00000000  0.09166667  1.0
  Ni  Ni46  1  0.29304933  0.33333333  0.09166667  1.0
  Ni  Ni47  1  0.29304933  0.66666667  0.09166667  1.0
  Ni  Ni48  1  0.62638267  0.00000000  0.09166667  1.0
  Ni  Ni49  1  0.62638267  0.33333333  0.09166667  1.0
  Ni  Ni50  1  0.62638267  0.66666667  0.09166667  1.0
  Ni  Ni51  1  0.95971600  0.00000000  0.09166667  1.0
  Ni  Ni52  1  0.95971600  0.33333333  0.09166667  1.0
  Ni  Ni53  1  0.95971600  0.66666667  0.09166667  1.0
  Ni  Ni54  1  0.12427900  0.16666667  0.04166667  1.0
  Ni  Ni55  1  0.12427900  0.50000000  0.04166667  1.0
  Ni  Ni56  1  0.12427900  0.83333333  0.04166667  1.0
  Ni  Ni57  1  0.45761233  0.16666667  0.04166667  1.0
  Ni  Ni58  1  0.45761233  0.50000000  0.04166667  1.0
  Ni  Ni59  1  0.45761233  0.83333333  0.04166667  1.0
  Ni  Ni60  1  0.79094567  0.16666667  0.04166667  1.0
  Ni  Ni61  1  0.79094567  0.50000000  0.04166667  1.0
  Ni  Ni62  1  0.79094567  0.83333333  0.04166667  1.0
  Ni  Ni63  1  0.12427900  0.00000000  0.09166667  1.0
  Ni  Ni64  1  0.12427900  0.33333333  0.09166667  1.0
  Ni  Ni65  1  0.12427900  0.66666667  0.09166667  1.0
  Ni  Ni66  1  0.45761233  0.00000000  0.09166667  1.0
  Ni  Ni67  1  0.45761233  0.33333333  0.09166667  1.0
  Ni  Ni68  1  0.45761233  0.66666667  0.09166667  1.0
  Ni  Ni69  1  0.79094567  0.00000000  0.09166667  1.0
  Ni  Ni70  1  0.79094567  0.33333333  0.09166667  1.0
  Ni  Ni71  1  0.79094567  0.66666667  0.09166667  1.0
  Ni  Ni72  1  0.16666667  0.11111111  0.05833333  1.0
  Ni  Ni73  1  0.16666667  0.44444444  0.05833333  1.0
  Ni  Ni74  1  0.16666667  0.77777778  0.05833333  1.0
  Ni  Ni75  1  0.50000000  0.11111111  0.05833333  1.0
  Ni  Ni76  1  0.50000000  0.44444444  0.05833333  1.0
  Ni  Ni77  1  0.50000000  0.77777778  0.05833333  1.0
  Ni  Ni78  1  0.83333333  0.11111111  0.05833333  1.0
  Ni  Ni79  1  0.83333333  0.44444444  0.05833333  1.0
  Ni  Ni80  1  0.83333333  0.77777778  0.05833333  1.0
  Ni  Ni81  1  0.16666667  0.27777778  0.00833333  1.0
  Ni  Ni82  1  0.16666667  0.61111111  0.00833333  1.0
  Ni  Ni83  1  0.16666667  0.94444444  0.00833333  1.0
  Ni  Ni84  1  0.50000000  0.27777778  0.00833333  1.0
  Ni  Ni85  1  0.50000000  0.61111111  0.00833333  1.0
  Ni  Ni86  1  0.50000000  0.94444444  0.00833333  1.0
  Ni  Ni87  1  0.83333333  0.27777778  0.00833333  1.0
  Ni  Ni88  1  0.83333333  0.61111111  0.00833333  1.0
  Ni  Ni89  1  0.83333333  0.94444444  0.00833333  1.0
  Ni  Ni90  1  0.25150267  0.05555556  0.07500000  1.0
  Ni  Ni91  1  0.25150267  0.38888889  0.07500000  1.0
  Ni  Ni92  1  0.25150267  0.72222222  0.07500000  1.0
  Ni  Ni93  1  0.58483600  0.05555556  0.07500000  1.0
  Ni  Ni94  1  0.58483600  0.38888889  0.07500000  1.0
  Ni  Ni95  1  0.58483600  0.72222222  0.07500000  1.0
  Ni  Ni96  1  0.91816933  0.05555556  0.07500000  1.0
  Ni  Ni97  1  0.91816933  0.38888889  0.07500000  1.0
  Ni  Ni98  1  0.91816933  0.72222222  0.07500000  1.0
  Ni  Ni99  1  0.25150267  0.22222222  0.02500000  1.0
  Ni  Ni100  1  0.25150267  0.55555556  0.02500000  1.0
  Ni  Ni101  1  0.25150267  0.88888889  0.02500000  1.0
  Ni  Ni102  1  0.58483600  0.22222222  0.02500000  1.0
  Ni  Ni103  1  0.58483600  0.55555556  0.02500000  1.0
  Ni  Ni104  1  0.58483600  0.88888889  0.02500000  1.0
  Ni  Ni105  1  0.91816933  0.22222222  0.02500000  1.0
  Ni  Ni106  1  0.91816933  0.55555556  0.02500000  1.0
  Ni  Ni107  1  0.91816933  0.88888889  0.02500000  1.0
  Ni  Ni108  1  0.08183067  0.05555556  0.07500000  1.0
  Ni  Ni109  1  0.08183067  0.38888889  0.07500000  1.0
  Ni  Ni110  1  0.08183067  0.72222222  0.07500000  1.0
  Ni  Ni111  1  0.41516400  0.05555556  0.07500000  1.0
  Ni  Ni112  1  0.41516400  0.38888889  0.07500000  1.0
  Ni  Ni113  1  0.41516400  0.72222222  0.07500000  1.0
  Ni  Ni114  1  0.74849733  0.05555556  0.07500000  1.0
  Ni  Ni115  1  0.74849733  0.38888889  0.07500000  1.0
  Ni  Ni116  1  0.74849733  0.72222222  0.07500000  1.0
  Ni  Ni117  1  0.08183067  0.22222222  0.02500000  1.0
  Ni  Ni118  1  0.08183067  0.55555556  0.02500000  1.0
  Ni  Ni119  1  0.08183067  0.88888889  0.02500000  1.0
  Ni  Ni120  1  0.41516400  0.22222222  0.02500000  1.0
  Ni  Ni121  1  0.41516400  0.55555556  0.02500000  1.0
  Ni  Ni122  1  0.41516400  0.88888889  0.02500000  1.0
  Ni  Ni123  1  0.74849733  0.22222222  0.02500000  1.0
  Ni  Ni124  1  0.74849733  0.55555556  0.02500000  1.0
  Ni  Ni125  1  0.74849733  0.88888889  0.02500000  1.0
  Ge  Ge126  1  0.25217967  0.11111111  0.05833333  1.0
  Ge  Ge127  1  0.25217967  0.44444444  0.05833333  1.0
  Ge  Ge128  1  0.25217967  0.77777778  0.05833333  1.0
  Ge  Ge129  1  0.58551300  0.11111111  0.05833333  1.0
  Ge  Ge130  1  0.58551300  0.44444444  0.05833333  1.0
  Ge  Ge131  1  0.58551300  0.77777778  0.05833333  1.0
  Ge  Ge132  1  0.91884633  0.11111111  0.05833333  1.0
  Ge  Ge133  1  0.91884633  0.44444444  0.05833333  1.0
  Ge  Ge134  1  0.91884633  0.77777778  0.05833333  1.0
  Ge  Ge135  1  0.25217967  0.27777778  0.00833333  1.0
  Ge  Ge136  1  0.25217967  0.61111111  0.00833333  1.0
  Ge  Ge137  1  0.25217967  0.94444444  0.00833333  1.0
  Ge  Ge138  1  0.58551300  0.27777778  0.00833333  1.0
  Ge  Ge139  1  0.58551300  0.61111111  0.00833333  1.0
  Ge  Ge140  1  0.58551300  0.94444444  0.00833333  1.0
  Ge  Ge141  1  0.91884633  0.27777778  0.00833333  1.0
  Ge  Ge142  1  0.91884633  0.61111111  0.00833333  1.0
  Ge  Ge143  1  0.91884633  0.94444444  0.00833333  1.0
  Ge  Ge144  1  0.08115367  0.11111111  0.05833333  1.0
  Ge  Ge145  1  0.08115367  0.44444444  0.05833333  1.0
  Ge  Ge146  1  0.08115367  0.77777778  0.05833333  1.0
  Ge  Ge147  1  0.41448700  0.11111111  0.05833333  1.0
  Ge  Ge148  1  0.41448700  0.44444444  0.05833333  1.0
  Ge  Ge149  1  0.41448700  0.77777778  0.05833333  1.0
  Ge  Ge150  1  0.74782033  0.11111111  0.05833333  1.0
  Ge  Ge151  1  0.74782033  0.44444444  0.05833333  1.0
  Ge  Ge152  1  0.74782033  0.77777778  0.05833333  1.0
  Ge  Ge153  1  0.08115367  0.27777778  0.00833333  1.0
  Ge  Ge154  1  0.08115367  0.61111111  0.00833333  1.0
  Ge  Ge155  1  0.08115367  0.94444444  0.00833333  1.0
  Ge  Ge156  1  0.41448700  0.27777778  0.00833333  1.0
  Ge  Ge157  1  0.41448700  0.61111111  0.00833333  1.0
  Ge  Ge158  1  0.41448700  0.94444444  0.00833333  1.0
  Ge  Ge159  1  0.74782033  0.27777778  0.00833333  1.0
  Ge  Ge160  1  0.74782033  0.61111111  0.00833333  1.0
  Ge  Ge161  1  0.74782033  0.94444444  0.00833333  1.0
  Ge  Ge162  1  0.00000000  0.05555556  0.07500000  1.0
  Ge  Ge163  1  0.00000000  0.38888889  0.07500000  1.0
  Ge  Ge164  1  0.00000000  0.72222222  0.07500000  1.0
  Ge  Ge165  1  0.33333333  0.05555556  0.07500000  1.0
  Ge  Ge166  1  0.33333333  0.38888889  0.07500000  1.0
  Ge  Ge167  1  0.33333333  0.72222222  0.07500000  1.0
  Ge  Ge168  1  0.66666667  0.05555556  0.07500000  1.0
  Ge  Ge169  1  0.66666667  0.38888889  0.07500000  1.0
  Ge  Ge170  1  0.66666667  0.72222222  0.07500000  1.0
  Ge  Ge171  1  0.00000000  0.22222222  0.02500000  1.0
  Ge  Ge172  1  0.00000000  0.55555556  0.02500000  1.0
  Ge  Ge173  1  0.00000000  0.88888889  0.02500000  1.0
  Ge  Ge174  1  0.33333333  0.22222222  0.02500000  1.0
  Ge  Ge175  1  0.33333333  0.55555556  0.02500000  1.0
  Ge  Ge176  1  0.33333333  0.88888889  0.02500000  1.0
  Ge  Ge177  1  0.66666667  0.22222222  0.02500000  1.0
  Ge  Ge178  1  0.66666667  0.55555556  0.02500000  1.0
  Ge  Ge179  1  0.66666667  0.88888889  0.02500000  1.0
  Ge  Ge180  1  0.16666667  0.05555556  0.07500000  1.0
  Ge  Ge181  1  0.16666667  0.38888889  0.07500000  1.0
  Ge  Ge182  1  0.16666667  0.72222222  0.07500000  1.0
  Ge  Ge183  1  0.50000000  0.05555556  0.07500000  1.0
  Ge  Ge184  1  0.50000000  0.38888889  0.07500000  1.0
  Ge  Ge185  1  0.50000000  0.72222222  0.07500000  1.0
  Ge  Ge186  1  0.83333333  0.05555556  0.07500000  1.0
  Ge  Ge187  1  0.83333333  0.38888889  0.07500000  1.0
  Ge  Ge188  1  0.83333333  0.72222222  0.07500000  1.0
  Ge  Ge189  1  0.16666667  0.22222222  0.02500000  1.0
  Ge  Ge190  1  0.16666667  0.55555556  0.02500000  1.0
  Ge  Ge191  1  0.16666667  0.88888889  0.02500000  1.0
  Ge  Ge192  1  0.50000000  0.22222222  0.02500000  1.0
  Ge  Ge193  1  0.50000000  0.55555556  0.02500000  1.0
  Ge  Ge194  1  0.50000000  0.88888889  0.02500000  1.0
  Ge  Ge195  1  0.83333333  0.22222222  0.02500000  1.0
  Ge  Ge196  1  0.83333333  0.55555556  0.02500000  1.0
  Ge  Ge197  1  0.83333333  0.88888889  0.02500000  1.0
  Ni  Ni198  1  0.20905433  0.16666667  0.14166667  1.0
  Ni  Ni199  1  0.20905433  0.50000000  0.14166667  1.0
  Ni  Ni200  1  0.20905433  0.83333333  0.14166667  1.0
  Ni  Ni201  1  0.54238767  0.16666667  0.14166667  1.0
  Ni  Ni202  1  0.54238767  0.50000000  0.14166667  1.0
  Ni  Ni203  1  0.54238767  0.83333333  0.14166667  1.0
  Ni  Ni204  1  0.87572100  0.16666667  0.14166667  1.0
  Ni  Ni205  1  0.87572100  0.50000000  0.14166667  1.0
  Ni  Ni206  1  0.87572100  0.83333333  0.14166667  1.0
  Ni  Ni207  1  0.20905433  0.00000000  0.19166667  1.0
  Ni  Ni208  1  0.20905433  0.33333333  0.19166667  1.0
  Ni  Ni209  1  0.20905433  0.66666667  0.19166667  1.0
  Ni  Ni210  1  0.54238767  0.00000000  0.19166667  1.0
  Ni  Ni211  1  0.54238767  0.33333333  0.19166667  1.0
  Ni  Ni212  1  0.54238767  0.66666667  0.19166667  1.0
  Ni  Ni213  1  0.87572100  0.00000000  0.19166667  1.0
  Ni  Ni214  1  0.87572100  0.33333333  0.19166667  1.0
  Ni  Ni215  1  0.87572100  0.66666667  0.19166667  1.0
  Ni  Ni216  1  0.04028400  0.16666667  0.14166667  1.0
  Ni  Ni217  1  0.04028400  0.50000000  0.14166667  1.0
  Ni  Ni218  1  0.04028400  0.83333333  0.14166667  1.0
  Ni  Ni219  1  0.37361733  0.16666667  0.14166667  1.0
  Ni  Ni220  1  0.37361733  0.50000000  0.14166667  1.0
  Ni  Ni221  1  0.37361733  0.83333333  0.14166667  1.0
  Ni  Ni222  1  0.70695067  0.16666667  0.14166667  1.0
  Ni  Ni223  1  0.70695067  0.50000000  0.14166667  1.0
  Ni  Ni224  1  0.70695067  0.83333333  0.14166667  1.0
  Ni  Ni225  1  0.04028400  0.00000000  0.19166667  1.0
  Ni  Ni226  1  0.04028400  0.33333333  0.19166667  1.0
  Ni  Ni227  1  0.04028400  0.66666667  0.19166667  1.0
  Ni  Ni228  1  0.37361733  0.00000000  0.19166667  1.0
  Ni  Ni229  1  0.37361733  0.33333333  0.19166667  1.0
  Ni  Ni230  1  0.37361733  0.66666667  0.19166667  1.0
  Ni  Ni231  1  0.70695067  0.00000000  0.19166667  1.0
  Ni  Ni232  1  0.70695067  0.33333333  0.19166667  1.0
  Ni  Ni233  1  0.70695067  0.66666667  0.19166667  1.0
  Ni  Ni234  1  0.29304933  0.16666667  0.14166667  1.0
  Ni  Ni235  1  0.29304933  0.50000000  0.14166667  1.0
  Ni  Ni236  1  0.29304933  0.83333333  0.14166667  1.0
  Ni  Ni237  1  0.62638267  0.16666667  0.14166667  1.0
  Ni  Ni238  1  0.62638267  0.50000000  0.14166667  1.0
  Ni  Ni239  1  0.62638267  0.83333333  0.14166667  1.0
  Ni  Ni240  1  0.95971600  0.16666667  0.14166667  1.0
  Ni  Ni241  1  0.95971600  0.50000000  0.14166667  1.0
  Ni  Ni242  1  0.95971600  0.83333333  0.14166667  1.0
  Ni  Ni243  1  0.29304933  0.00000000  0.19166667  1.0
  Ni  Ni244  1  0.29304933  0.33333333  0.19166667  1.0
  Ni  Ni245  1  0.29304933  0.66666667  0.19166667  1.0
  Ni  Ni246  1  0.62638267  0.00000000  0.19166667  1.0
  Ni  Ni247  1  0.62638267  0.33333333  0.19166667  1.0
  Ni  Ni248  1  0.62638267  0.66666667  0.19166667  1.0
  Ni  Ni249  1  0.95971600  0.00000000  0.19166667  1.0
  Ni  Ni250  1  0.95971600  0.33333333  0.19166667  1.0
  Ni  Ni251  1  0.95971600  0.66666667  0.19166667  1.0
  Ni  Ni252  1  0.12427900  0.16666667  0.14166667  1.0
  Ni  Ni253  1  0.12427900  0.50000000  0.14166667  1.0
  Ni  Ni254  1  0.12427900  0.83333333  0.14166667  1.0
  Ni  Ni255  1  0.45761233  0.16666667  0.14166667  1.0
  Ni  Ni256  1  0.45761233  0.50000000  0.14166667  1.0
  Ni  Ni257  1  0.45761233  0.83333333  0.14166667  1.0
  Ni  Ni258  1  0.79094567  0.16666667  0.14166667  1.0
  Ni  Ni259  1  0.79094567  0.50000000  0.14166667  1.0
  Ni  Ni260  1  0.79094567  0.83333333  0.14166667  1.0
  Ni  Ni261  1  0.12427900  0.00000000  0.19166667  1.0
  Ni  Ni262  1  0.12427900  0.33333333  0.19166667  1.0
  Ni  Ni263  1  0.12427900  0.66666667  0.19166667  1.0
  Ni  Ni264  1  0.45761233  0.00000000  0.19166667  1.0
  Ni  Ni265  1  0.45761233  0.33333333  0.19166667  1.0
  Ni  Ni266  1  0.45761233  0.66666667  0.19166667  1.0
  Ni  Ni267  1  0.79094567  0.00000000  0.19166667  1.0
  Ni  Ni268  1  0.79094567  0.33333333  0.19166667  1.0
  Ni  Ni269  1  0.79094567  0.66666667  0.19166667  1.0
  Ni  Ni270  1  0.16666667  0.11111111  0.15833333  1.0
  Ni  Ni271  1  0.16666667  0.44444444  0.15833333  1.0
  Ni  Ni272  1  0.16666667  0.77777778  0.15833333  1.0
  Ni  Ni273  1  0.50000000  0.11111111  0.15833333  1.0
  Ni  Ni274  1  0.50000000  0.44444444  0.15833333  1.0
  Ni  Ni275  1  0.50000000  0.77777778  0.15833333  1.0
  Ni  Ni276  1  0.83333333  0.11111111  0.15833333  1.0
  Ni  Ni277  1  0.83333333  0.44444444  0.15833333  1.0
  Ni  Ni278  1  0.83333333  0.77777778  0.15833333  1.0
  Ni  Ni279  1  0.16666667  0.27777778  0.10833333  1.0
  Ni  Ni280  1  0.16666667  0.61111111  0.10833333  1.0
  Ni  Ni281  1  0.16666667  0.94444444  0.10833333  1.0
  Ni  Ni282  1  0.50000000  0.27777778  0.10833333  1.0
  Ni  Ni283  1  0.50000000  0.61111111  0.10833333  1.0
  Ni  Ni284  1  0.50000000  0.94444444  0.10833333  1.0
  Ni  Ni285  1  0.83333333  0.27777778  0.10833333  1.0
  Ni  Ni286  1  0.83333333  0.61111111  0.10833333  1.0
  Ni  Ni287  1  0.83333333  0.94444444  0.10833333  1.0
  Ni  Ni288  1  0.25150267  0.05555556  0.17500000  1.0
  Ni  Ni289  1  0.25150267  0.38888889  0.17500000  1.0
  Ni  Ni290  1  0.25150267  0.72222222  0.17500000  1.0
  Ni  Ni291  1  0.58483600  0.05555556  0.17500000  1.0
  Ni  Ni292  1  0.58483600  0.38888889  0.17500000  1.0
  Ni  Ni293  1  0.58483600  0.72222222  0.17500000  1.0
  Ni  Ni294  1  0.91816933  0.05555556  0.17500000  1.0
  Ni  Ni295  1  0.91816933  0.38888889  0.17500000  1.0
  Ni  Ni296  1  0.91816933  0.72222222  0.17500000  1.0
  Ni  Ni297  1  0.25150267  0.22222222  0.12500000  1.0
  Ni  Ni298  1  0.25150267  0.55555556  0.12500000  1.0
  Ni  Ni299  1  0.25150267  0.88888889  0.12500000  1.0
  Ni  Ni300  1  0.58483600  0.22222222  0.12500000  1.0
  Ni  Ni301  1  0.58483600  0.55555556  0.12500000  1.0
  Ni  Ni302  1  0.58483600  0.88888889  0.12500000  1.0
  Ni  Ni303  1  0.91816933  0.22222222  0.12500000  1.0
  Ni  Ni304  1  0.91816933  0.55555556  0.12500000  1.0
  Ni  Ni305  1  0.91816933  0.88888889  0.12500000  1.0
  Ni  Ni306  1  0.08183067  0.05555556  0.17500000  1.0
  Ni  Ni307  1  0.08183067  0.38888889  0.17500000  1.0
  Ni  Ni308  1  0.08183067  0.72222222  0.17500000  1.0
  Ni  Ni309  1  0.41516400  0.05555556  0.17500000  1.0
  Ni  Ni310  1  0.41516400  0.38888889  0.17500000  1.0
  Ni  Ni311  1  0.41516400  0.72222222  0.17500000  1.0
  Ni  Ni312  1  0.74849733  0.05555556  0.17500000  1.0
  Ni  Ni313  1  0.74849733  0.38888889  0.17500000  1.0
  Ni  Ni314  1  0.74849733  0.72222222  0.17500000  1.0
  Ni  Ni315  1  0.08183067  0.22222222  0.12500000  1.0
  Ni  Ni316  1  0.08183067  0.55555556  0.12500000  1.0
  Ni  Ni317  1  0.08183067  0.88888889  0.12500000  1.0
  Ni  Ni318  1  0.41516400  0.22222222  0.12500000  1.0
  Ni  Ni319  1  0.41516400  0.55555556  0.12500000  1.0
  Ni  Ni320  1  0.41516400  0.88888889  0.12500000  1.0
  Ni  Ni321  1  0.74849733  0.22222222  0.12500000  1.0
  Ni  Ni322  1  0.74849733  0.55555556  0.12500000  1.0
  Ni  Ni323  1  0.74849733  0.88888889  0.12500000  1.0
  Ge  Ge324  1  0.25217967  0.11111111  0.15833333  1.0
  Ge  Ge325  1  0.25217967  0.44444444  0.15833333  1.0
  Ge  Ge326  1  0.25217967  0.77777778  0.15833333  1.0
  Ge  Ge327  1  0.58551300  0.11111111  0.15833333  1.0
  Ge  Ge328  1  0.58551300  0.44444444  0.15833333  1.0
  Ge  Ge329  1  0.58551300  0.77777778  0.15833333  1.0
  Ge  Ge330  1  0.91884633  0.11111111  0.15833333  1.0
  Ge  Ge331  1  0.91884633  0.44444444  0.15833333  1.0
  Ge  Ge332  1  0.91884633  0.77777778  0.15833333  1.0
  Ge  Ge333  1  0.25217967  0.27777778  0.10833333  1.0
  Ge  Ge334  1  0.25217967  0.61111111  0.10833333  1.0
  Ge  Ge335  1  0.25217967  0.94444444  0.10833333  1.0
  Ge  Ge336  1  0.58551300  0.27777778  0.10833333  1.0
  Ge  Ge337  1  0.58551300  0.61111111  0.10833333  1.0
  Ge  Ge338  1  0.58551300  0.94444444  0.10833333  1.0
  Ge  Ge339  1  0.91884633  0.27777778  0.10833333  1.0
  Ge  Ge340  1  0.91884633  0.61111111  0.10833333  1.0
  Ge  Ge341  1  0.91884633  0.94444444  0.10833333  1.0
  Ge  Ge342  1  0.08115367  0.11111111  0.15833333  1.0
  Ge  Ge343  1  0.08115367  0.44444444  0.15833333  1.0
  Ge  Ge344  1  0.08115367  0.77777778  0.15833333  1.0
  Ge  Ge345  1  0.41448700  0.11111111  0.15833333  1.0
  Ge  Ge346  1  0.41448700  0.44444444  0.15833333  1.0
  Ge  Ge347  1  0.41448700  0.77777778  0.15833333  1.0
  Ge  Ge348  1  0.74782033  0.11111111  0.15833333  1.0
  Ge  Ge349  1  0.74782033  0.44444444  0.15833333  1.0
  Ge  Ge350  1  0.74782033  0.77777778  0.15833333  1.0
  Ge  Ge351  1  0.08115367  0.27777778  0.10833333  1.0
  Ge  Ge352  1  0.08115367  0.61111111  0.10833333  1.0
  Ge  Ge353  1  0.08115367  0.94444444  0.10833333  1.0
  Ge  Ge354  1  0.41448700  0.27777778  0.10833333  1.0
  Ge  Ge355  1  0.41448700  0.61111111  0.10833333  1.0
  Ge  Ge356  1  0.41448700  0.94444444  0.10833333  1.0
  Ge  Ge357  1  0.74782033  0.27777778  0.10833333  1.0
  Ge  Ge358  1  0.74782033  0.61111111  0.10833333  1.0
  Ge  Ge359  1  0.74782033  0.94444444  0.10833333  1.0
  Ge  Ge360  1  0.00000000  0.05555556  0.17500000  1.0
  Ge  Ge361  1  0.00000000  0.38888889  0.17500000  1.0
  Ge  Ge362  1  0.00000000  0.72222222  0.17500000  1.0
  Ge  Ge363  1  0.33333333  0.05555556  0.17500000  1.0
  Ge  Ge364  1  0.33333333  0.38888889  0.17500000  1.0
  Ge  Ge365  1  0.33333333  0.72222222  0.17500000  1.0
  Ge  Ge366  1  0.66666667  0.05555556  0.17500000  1.0
  Ge  Ge367  1  0.66666667  0.38888889  0.17500000  1.0
  Ge  Ge368  1  0.66666667  0.72222222  0.17500000  1.0
  Ge  Ge369  1  0.00000000  0.22222222  0.12500000  1.0
  Ge  Ge370  1  0.00000000  0.55555556  0.12500000  1.0
  Ge  Ge371  1  0.00000000  0.88888889  0.12500000  1.0
  Ge  Ge372  1  0.33333333  0.22222222  0.12500000  1.0
  Ge  Ge373  1  0.33333333  0.55555556  0.12500000  1.0
  Ge  Ge374  1  0.33333333  0.88888889  0.12500000  1.0
  Ge  Ge375  1  0.66666667  0.22222222  0.12500000  1.0
  Ge  Ge376  1  0.66666667  0.55555556  0.12500000  1.0
  Ge  Ge377  1  0.66666667  0.88888889  0.12500000  1.0
  Ge  Ge378  1  0.16666667  0.05555556  0.17500000  1.0
  Ge  Ge379  1  0.16666667  0.38888889  0.17500000  1.0
  Ge  Ge380  1  0.16666667  0.72222222  0.17500000  1.0
  Ge  Ge381  1  0.50000000  0.05555556  0.17500000  1.0
  Ge  Ge382  1  0.50000000  0.38888889  0.17500000  1.0
  Ge  Ge383  1  0.50000000  0.72222222  0.17500000  1.0
  Ge  Ge384  1  0.83333333  0.05555556  0.17500000  1.0
  Ge  Ge385  1  0.83333333  0.38888889  0.17500000  1.0
  Ge  Ge386  1  0.83333333  0.72222222  0.17500000  1.0
  Ge  Ge387  1  0.16666667  0.22222222  0.12500000  1.0
  Ge  Ge388  1  0.16666667  0.55555556  0.12500000  1.0
  Ge  Ge389  1  0.16666667  0.88888889  0.12500000  1.0
  Ge  Ge390  1  0.50000000  0.22222222  0.12500000  1.0
  Ge  Ge391  1  0.50000000  0.55555556  0.12500000  1.0
  Ge  Ge392  1  0.50000000  0.88888889  0.12500000  1.0
  Ge  Ge393  1  0.83333333  0.22222222  0.12500000  1.0
  Ge  Ge394  1  0.83333333  0.55555556  0.12500000  1.0
  Ge  Ge395  1  0.83333333  0.88888889  0.12500000  1.0
  Ni  Ni396  1  0.20905433  0.16666667  0.24166667  1.0
  Ni  Ni397  1  0.20905433  0.50000000  0.24166667  1.0
  Ni  Ni398  1  0.20905433  0.83333333  0.24166667  1.0
  Ni  Ni399  1  0.54238767  0.16666667  0.24166667  1.0
  Ni  Ni400  1  0.54238767  0.50000000  0.24166667  1.0
  Ni  Ni401  1  0.54238767  0.83333333  0.24166667  1.0
  Ni  Ni402  1  0.87572100  0.16666667  0.24166667  1.0
  Ni  Ni403  1  0.87572100  0.50000000  0.24166667  1.0
  Ni  Ni404  1  0.87572100  0.83333333  0.24166667  1.0
  Ni  Ni405  1  0.20905433  0.00000000  0.29166667  1.0
  Ni  Ni406  1  0.20905433  0.33333333  0.29166667  1.0
  Ni  Ni407  1  0.20905433  0.66666667  0.29166667  1.0
  Ni  Ni408  1  0.54238767  0.00000000  0.29166667  1.0
  Ni  Ni409  1  0.54238767  0.33333333  0.29166667  1.0
  Ni  Ni410  1  0.54238767  0.66666667  0.29166667  1.0
  Ni  Ni411  1  0.87572100  0.00000000  0.29166667  1.0
  Ni  Ni412  1  0.87572100  0.33333333  0.29166667  1.0
  Ni  Ni413  1  0.87572100  0.66666667  0.29166667  1.0
  Ni  Ni414  1  0.04028400  0.16666667  0.24166667  1.0
  Ni  Ni415  1  0.04028400  0.50000000  0.24166667  1.0
  Ni  Ni416  1  0.04028400  0.83333333  0.24166667  1.0
  Ni  Ni417  1  0.37361733  0.16666667  0.24166667  1.0
  Ni  Ni418  1  0.37361733  0.50000000  0.24166667  1.0
  Ni  Ni419  1  0.37361733  0.83333333  0.24166667  1.0
  Ni  Ni420  1  0.70695067  0.16666667  0.24166667  1.0
  Ni  Ni421  1  0.70695067  0.50000000  0.24166667  1.0
  Ni  Ni422  1  0.70695067  0.83333333  0.24166667  1.0
  Ni  Ni423  1  0.04028400  0.00000000  0.29166667  1.0
  Ni  Ni424  1  0.04028400  0.33333333  0.29166667  1.0
  Ni  Ni425  1  0.04028400  0.66666667  0.29166667  1.0
  Ni  Ni426  1  0.37361733  0.00000000  0.29166667  1.0
  Ni  Ni427  1  0.37361733  0.33333333  0.29166667  1.0
  Ni  Ni428  1  0.37361733  0.66666667  0.29166667  1.0
  Ni  Ni429  1  0.70695067  0.00000000  0.29166667  1.0
  Ni  Ni430  1  0.70695067  0.33333333  0.29166667  1.0
  Ni  Ni431  1  0.70695067  0.66666667  0.29166667  1.0
  Ni  Ni432  1  0.29304933  0.16666667  0.24166667  1.0
  Ni  Ni433  1  0.29304933  0.50000000  0.24166667  1.0
  Ni  Ni434  1  0.29304933  0.83333333  0.24166667  1.0
  Ni  Ni435  1  0.62638267  0.16666667  0.24166667  1.0
  Ni  Ni436  1  0.62638267  0.50000000  0.24166667  1.0
  Ni  Ni437  1  0.62638267  0.83333333  0.24166667  1.0
  Ni  Ni438  1  0.95971600  0.16666667  0.24166667  1.0
  Ni  Ni439  1  0.95971600  0.50000000  0.24166667  1.0
  Ni  Ni440  1  0.95971600  0.83333333  0.24166667  1.0
  Ni  Ni441  1  0.29304933  0.00000000  0.29166667  1.0
  Ni  Ni442  1  0.29304933  0.33333333  0.29166667  1.0
  Ni  Ni443  1  0.29304933  0.66666667  0.29166667  1.0
  Ni  Ni444  1  0.62638267  0.00000000  0.29166667  1.0
  Ni  Ni445  1  0.62638267  0.33333333  0.29166667  1.0
  Ni  Ni446  1  0.62638267  0.66666667  0.29166667  1.0
  Ni  Ni447  1  0.95971600  0.00000000  0.29166667  1.0
  Ni  Ni448  1  0.95971600  0.33333333  0.29166667  1.0
  Ni  Ni449  1  0.95971600  0.66666667  0.29166667  1.0
  Ni  Ni450  1  0.12427900  0.16666667  0.24166667  1.0
  Ni  Ni451  1  0.12427900  0.50000000  0.24166667  1.0
  Ni  Ni452  1  0.12427900  0.83333333  0.24166667  1.0
  Ni  Ni453  1  0.45761233  0.16666667  0.24166667  1.0
  Ni  Ni454  1  0.45761233  0.50000000  0.24166667  1.0
  Ni  Ni455  1  0.45761233  0.83333333  0.24166667  1.0
  Ni  Ni456  1  0.79094567  0.16666667  0.24166667  1.0
  Ni  Ni457  1  0.79094567  0.50000000  0.24166667  1.0
  Ni  Ni458  1  0.79094567  0.83333333  0.24166667  1.0
  Ni  Ni459  1  0.12427900  0.00000000  0.29166667  1.0
  Ni  Ni460  1  0.12427900  0.33333333  0.29166667  1.0
  Ni  Ni461  1  0.12427900  0.66666667  0.29166667  1.0
  Ni  Ni462  1  0.45761233  0.00000000  0.29166667  1.0
  Ni  Ni463  1  0.45761233  0.33333333  0.29166667  1.0
  Ni  Ni464  1  0.45761233  0.66666667  0.29166667  1.0
  Ni  Ni465  1  0.79094567  0.00000000  0.29166667  1.0
  Ni  Ni466  1  0.79094567  0.33333333  0.29166667  1.0
  Ni  Ni467  1  0.79094567  0.66666667  0.29166667  1.0
  Ni  Ni468  1  0.16666667  0.11111111  0.25833333  1.0
  Ni  Ni469  1  0.16666667  0.44444444  0.25833333  1.0
  Ni  Ni470  1  0.16666667  0.77777778  0.25833333  1.0
  Ni  Ni471  1  0.50000000  0.11111111  0.25833333  1.0
  Ni  Ni472  1  0.50000000  0.44444444  0.25833333  1.0
  Ni  Ni473  1  0.50000000  0.77777778  0.25833333  1.0
  Ni  Ni474  1  0.83333333  0.11111111  0.25833333  1.0
  Ni  Ni475  1  0.83333333  0.44444444  0.25833333  1.0
  Ni  Ni476  1  0.83333333  0.77777778  0.25833333  1.0
  Ni  Ni477  1  0.16666667  0.27777778  0.20833333  1.0
  Ni  Ni478  1  0.16666667  0.61111111  0.20833333  1.0
  Ni  Ni479  1  0.16666667  0.94444444  0.20833333  1.0
  Ni  Ni480  1  0.50000000  0.27777778  0.20833333  1.0
  Ni  Ni481  1  0.50000000  0.61111111  0.20833333  1.0
  Ni  Ni482  1  0.50000000  0.94444444  0.20833333  1.0
  Ni  Ni483  1  0.83333333  0.27777778  0.20833333  1.0
  Ni  Ni484  1  0.83333333  0.61111111  0.20833333  1.0
  Ni  Ni485  1  0.83333333  0.94444444  0.20833333  1.0
  Ni  Ni486  1  0.25150267  0.05555556  0.27500000  1.0
  Ni  Ni487  1  0.25150267  0.38888889  0.27500000  1.0
  Ni  Ni488  1  0.25150267  0.72222222  0.27500000  1.0
  Ni  Ni489  1  0.58483600  0.05555556  0.27500000  1.0
  Ni  Ni490  1  0.58483600  0.38888889  0.27500000  1.0
  Ni  Ni491  1  0.58483600  0.72222222  0.27500000  1.0
  Ni  Ni492  1  0.91816933  0.05555556  0.27500000  1.0
  Ni  Ni493  1  0.91816933  0.38888889  0.27500000  1.0
  Ni  Ni494  1  0.91816933  0.72222222  0.27500000  1.0
  Ni  Ni495  1  0.25150267  0.22222222  0.22500000  1.0
  Ni  Ni496  1  0.25150267  0.55555556  0.22500000  1.0
  Ni  Ni497  1  0.25150267  0.88888889  0.22500000  1.0
  Ni  Ni498  1  0.58483600  0.22222222  0.22500000  1.0
  Ni  Ni499  1  0.58483600  0.55555556  0.22500000  1.0
  Ni  Ni500  1  0.58483600  0.88888889  0.22500000  1.0
  Ni  Ni501  1  0.91816933  0.22222222  0.22500000  1.0
  Ni  Ni502  1  0.91816933  0.55555556  0.22500000  1.0
  Ni  Ni503  1  0.91816933  0.88888889  0.22500000  1.0
  Ni  Ni504  1  0.08183067  0.05555556  0.27500000  1.0
  Ni  Ni505  1  0.08183067  0.38888889  0.27500000  1.0
  Ni  Ni506  1  0.08183067  0.72222222  0.27500000  1.0
  Ni  Ni507  1  0.41516400  0.05555556  0.27500000  1.0
  Ni  Ni508  1  0.41516400  0.38888889  0.27500000  1.0
  Ni  Ni509  1  0.41516400  0.72222222  0.27500000  1.0
  Ni  Ni510  1  0.74849733  0.05555556  0.27500000  1.0
  Ni  Ni511  1  0.74849733  0.38888889  0.27500000  1.0
  Ni  Ni512  1  0.74849733  0.72222222  0.27500000  1.0
  Ni  Ni513  1  0.08183067  0.22222222  0.22500000  1.0
  Ni  Ni514  1  0.08183067  0.55555556  0.22500000  1.0
  Ni  Ni515  1  0.08183067  0.88888889  0.22500000  1.0
  Ni  Ni516  1  0.41516400  0.22222222  0.22500000  1.0
  Ni  Ni517  1  0.41516400  0.55555556  0.22500000  1.0
  Ni  Ni518  1  0.41516400  0.88888889  0.22500000  1.0
  Ni  Ni519  1  0.74849733  0.22222222  0.22500000  1.0
  Ni  Ni520  1  0.74849733  0.55555556  0.22500000  1.0
  Ni  Ni521  1  0.74849733  0.88888889  0.22500000  1.0
  Ge  Ge522  1  0.25217967  0.11111111  0.25833333  1.0
  Ge  Ge523  1  0.25217967  0.44444444  0.25833333  1.0
  Ge  Ge524  1  0.25217967  0.77777778  0.25833333  1.0
  Ge  Ge525  1  0.58551300  0.11111111  0.25833333  1.0
  Ge  Ge526  1  0.58551300  0.44444444  0.25833333  1.0
  Ge  Ge527  1  0.58551300  0.77777778  0.25833333  1.0
  Ge  Ge528  1  0.91884633  0.11111111  0.25833333  1.0
  Ge  Ge529  1  0.91884633  0.44444444  0.25833333  1.0
  Ge  Ge530  1  0.91884633  0.77777778  0.25833333  1.0
  Ge  Ge531  1  0.25217967  0.27777778  0.20833333  1.0
  Ge  Ge532  1  0.25217967  0.61111111  0.20833333  1.0
  Ge  Ge533  1  0.25217967  0.94444444  0.20833333  1.0
  Ge  Ge534  1  0.58551300  0.27777778  0.20833333  1.0
  Ge  Ge535  1  0.58551300  0.61111111  0.20833333  1.0
  Ge  Ge536  1  0.58551300  0.94444444  0.20833333  1.0
  Ge  Ge537  1  0.91884633  0.27777778  0.20833333  1.0
  Ge  Ge538  1  0.91884633  0.61111111  0.20833333  1.0
  Ge  Ge539  1  0.91884633  0.94444444  0.20833333  1.0
  Ge  Ge540  1  0.08115367  0.11111111  0.25833333  1.0
  Ge  Ge541  1  0.08115367  0.44444444  0.25833333  1.0
  Ge  Ge542  1  0.08115367  0.77777778  0.25833333  1.0
  Ge  Ge543  1  0.41448700  0.11111111  0.25833333  1.0
  Ge  Ge544  1  0.41448700  0.44444444  0.25833333  1.0
  Ge  Ge545  1  0.41448700  0.77777778  0.25833333  1.0
  Ge  Ge546  1  0.74782033  0.11111111  0.25833333  1.0
  Ge  Ge547  1  0.74782033  0.44444444  0.25833333  1.0
  Ge  Ge548  1  0.74782033  0.77777778  0.25833333  1.0
  Ge  Ge549  1  0.08115367  0.27777778  0.20833333  1.0
  Ge  Ge550  1  0.08115367  0.61111111  0.20833333  1.0
  Ge  Ge551  1  0.08115367  0.94444444  0.20833333  1.0
  Ge  Ge552  1  0.41448700  0.27777778  0.20833333  1.0
  Ge  Ge553  1  0.41448700  0.61111111  0.20833333  1.0
  Ge  Ge554  1  0.41448700  0.94444444  0.20833333  1.0
  Ge  Ge555  1  0.74782033  0.27777778  0.20833333  1.0
  Ge  Ge556  1  0.74782033  0.61111111  0.20833333  1.0
  Ge  Ge557  1  0.74782033  0.94444444  0.20833333  1.0
  Ge  Ge558  1  0.00000000  0.05555556  0.27500000  1.0
  Ge  Ge559  1  0.00000000  0.38888889  0.27500000  1.0
  Ge  Ge560  1  0.00000000  0.72222222  0.27500000  1.0
  Ge  Ge561  1  0.33333333  0.05555556  0.27500000  1.0
  Ge  Ge562  1  0.33333333  0.38888889  0.27500000  1.0
  Ge  Ge563  1  0.33333333  0.72222222  0.27500000  1.0
  Ge  Ge564  1  0.66666667  0.05555556  0.27500000  1.0
  Ge  Ge565  1  0.66666667  0.38888889  0.27500000  1.0
  Ge  Ge566  1  0.66666667  0.72222222  0.27500000  1.0
  Ge  Ge567  1  0.00000000  0.22222222  0.22500000  1.0
  Ge  Ge568  1  0.00000000  0.55555556  0.22500000  1.0
  Ge  Ge569  1  0.00000000  0.88888889  0.22500000  1.0
  Ge  Ge570  1  0.33333333  0.22222222  0.22500000  1.0
  Ge  Ge571  1  0.33333333  0.55555556  0.22500000  1.0
  Ge  Ge572  1  0.33333333  0.88888889  0.22500000  1.0
  Ge  Ge573  1  0.66666667  0.22222222  0.22500000  1.0
  Ge  Ge574  1  0.66666667  0.55555556  0.22500000  1.0
  Ge  Ge575  1  0.66666667  0.88888889  0.22500000  1.0
  Ge  Ge576  1  0.16666667  0.05555556  0.27500000  1.0
  Ge  Ge577  1  0.16666667  0.38888889  0.27500000  1.0
  Ge  Ge578  1  0.16666667  0.72222222  0.27500000  1.0
  Ge  Ge579  1  0.50000000  0.05555556  0.27500000  1.0
  Ge  Ge580  1  0.50000000  0.38888889  0.27500000  1.0
  Ge  Ge581  1  0.50000000  0.72222222  0.27500000  1.0
  Ge  Ge582  1  0.83333333  0.05555556  0.27500000  1.0
  Ge  Ge583  1  0.83333333  0.38888889  0.27500000  1.0
  Ge  Ge584  1  0.83333333  0.72222222  0.27500000  1.0
  Ge  Ge585  1  0.16666667  0.22222222  0.22500000  1.0
  Ge  Ge586  1  0.16666667  0.55555556  0.22500000  1.0
  Ge  Ge587  1  0.16666667  0.88888889  0.22500000  1.0
  Ge  Ge588  1  0.50000000  0.22222222  0.22500000  1.0
  Ge  Ge589  1  0.50000000  0.55555556  0.22500000  1.0
  Ge  Ge590  1  0.50000000  0.88888889  0.22500000  1.0
  Ge  Ge591  1  0.83333333  0.22222222  0.22500000  1.0
  Ge  Ge592  1  0.83333333  0.55555556  0.22500000  1.0
  Ge  Ge593  1  0.83333333  0.88888889  0.22500000  1.0
  Ni  Ni594  1  0.20905433  0.16666667  0.34166667  1.0
  Ni  Ni595  1  0.20905433  0.50000000  0.34166667  1.0
  Ni  Ni596  1  0.20905433  0.83333333  0.34166667  1.0
  Ni  Ni597  1  0.54238767  0.16666667  0.34166667  1.0
  Ni  Ni598  1  0.54238767  0.50000000  0.34166667  1.0
  Ni  Ni599  1  0.54238767  0.83333333  0.34166667  1.0
  Ni  Ni600  1  0.87572100  0.16666667  0.34166667  1.0
  Ni  Ni601  1  0.87572100  0.50000000  0.34166667  1.0
  Ni  Ni602  1  0.87572100  0.83333333  0.34166667  1.0
  Ni  Ni603  1  0.20905433  0.00000000  0.39166667  1.0
  Ni  Ni604  1  0.20905433  0.33333333  0.39166667  1.0
  Ni  Ni605  1  0.20905433  0.66666667  0.39166667  1.0
  Ni  Ni606  1  0.54238767  0.00000000  0.39166667  1.0
  Ni  Ni607  1  0.54238767  0.33333333  0.39166667  1.0
  Ni  Ni608  1  0.54238767  0.66666667  0.39166667  1.0
  Ni  Ni609  1  0.87572100  0.00000000  0.39166667  1.0
  Ni  Ni610  1  0.87572100  0.33333333  0.39166667  1.0
  Ni  Ni611  1  0.87572100  0.66666667  0.39166667  1.0
  Ni  Ni612  1  0.04028400  0.16666667  0.34166667  1.0
  Ni  Ni613  1  0.04028400  0.50000000  0.34166667  1.0
  Ni  Ni614  1  0.04028400  0.83333333  0.34166667  1.0
  Ni  Ni615  1  0.37361733  0.16666667  0.34166667  1.0
  Ni  Ni616  1  0.37361733  0.50000000  0.34166667  1.0
  Ni  Ni617  1  0.37361733  0.83333333  0.34166667  1.0
  Ni  Ni618  1  0.70695067  0.16666667  0.34166667  1.0
  Ni  Ni619  1  0.70695067  0.50000000  0.34166667  1.0
  Ni  Ni620  1  0.70695067  0.83333333  0.34166667  1.0
  Ni  Ni621  1  0.04028400  0.00000000  0.39166667  1.0
  Ni  Ni622  1  0.04028400  0.33333333  0.39166667  1.0
  Ni  Ni623  1  0.04028400  0.66666667  0.39166667  1.0
  Ni  Ni624  1  0.37361733  0.00000000  0.39166667  1.0
  Ni  Ni625  1  0.37361733  0.33333333  0.39166667  1.0
  Ni  Ni626  1  0.37361733  0.66666667  0.39166667  1.0
  Ni  Ni627  1  0.70695067  0.00000000  0.39166667  1.0
  Ni  Ni628  1  0.70695067  0.33333333  0.39166667  1.0
  Ni  Ni629  1  0.70695067  0.66666667  0.39166667  1.0
  Ni  Ni630  1  0.29304933  0.16666667  0.34166667  1.0
  Ni  Ni631  1  0.29304933  0.50000000  0.34166667  1.0
  Ni  Ni632  1  0.29304933  0.83333333  0.34166667  1.0
  Ni  Ni633  1  0.62638267  0.16666667  0.34166667  1.0
  Ni  Ni634  1  0.62638267  0.50000000  0.34166667  1.0
  Ni  Ni635  1  0.62638267  0.83333333  0.34166667  1.0
  Ni  Ni636  1  0.95971600  0.16666667  0.34166667  1.0
  Ni  Ni637  1  0.95971600  0.50000000  0.34166667  1.0
  Ni  Ni638  1  0.95971600  0.83333333  0.34166667  1.0
  Ni  Ni639  1  0.29304933  0.00000000  0.39166667  1.0
  Ni  Ni640  1  0.29304933  0.33333333  0.39166667  1.0
  Ni  Ni641  1  0.29304933  0.66666667  0.39166667  1.0
  Ni  Ni642  1  0.62638267  0.00000000  0.39166667  1.0
  Ni  Ni643  1  0.62638267  0.33333333  0.39166667  1.0
  Ni  Ni644  1  0.62638267  0.66666667  0.39166667  1.0
  Ni  Ni645  1  0.95971600  0.00000000  0.39166667  1.0
  Ni  Ni646  1  0.95971600  0.33333333  0.39166667  1.0
  Ni  Ni647  1  0.95971600  0.66666667  0.39166667  1.0
  Ni  Ni648  1  0.12427900  0.16666667  0.34166667  1.0
  Ni  Ni649  1  0.12427900  0.50000000  0.34166667  1.0
  Ni  Ni650  1  0.12427900  0.83333333  0.34166667  1.0
  Ni  Ni651  1  0.45761233  0.16666667  0.34166667  1.0
  Ni  Ni652  1  0.45761233  0.50000000  0.34166667  1.0
  Ni  Ni653  1  0.45761233  0.83333333  0.34166667  1.0
  Ni  Ni654  1  0.79094567  0.16666667  0.34166667  1.0
  Ni  Ni655  1  0.79094567  0.50000000  0.34166667  1.0
  Ni  Ni656  1  0.79094567  0.83333333  0.34166667  1.0
  Ni  Ni657  1  0.12427900  0.00000000  0.39166667  1.0
  Ni  Ni658  1  0.12427900  0.33333333  0.39166667  1.0
  Ni  Ni659  1  0.12427900  0.66666667  0.39166667  1.0
  Ni  Ni660  1  0.45761233  0.00000000  0.39166667  1.0
  Ni  Ni661  1  0.45761233  0.33333333  0.39166667  1.0
  Ni  Ni662  1  0.45761233  0.66666667  0.39166667  1.0
  Ni  Ni663  1  0.79094567  0.00000000  0.39166667  1.0
  Ni  Ni664  1  0.79094567  0.33333333  0.39166667  1.0
  Ni  Ni665  1  0.79094567  0.66666667  0.39166667  1.0
  Ni  Ni666  1  0.16666667  0.11111111  0.35833333  1.0
  Ni  Ni667  1  0.16666667  0.44444444  0.35833333  1.0
  Ni  Ni668  1  0.16666667  0.77777778  0.35833333  1.0
  Ni  Ni669  1  0.50000000  0.11111111  0.35833333  1.0
  Ni  Ni670  1  0.50000000  0.44444444  0.35833333  1.0
  Ni  Ni671  1  0.50000000  0.77777778  0.35833333  1.0
  Ni  Ni672  1  0.83333333  0.11111111  0.35833333  1.0
  Ni  Ni673  1  0.83333333  0.44444444  0.35833333  1.0
  Ni  Ni674  1  0.83333333  0.77777778  0.35833333  1.0
  Ni  Ni675  1  0.16666667  0.27777778  0.30833333  1.0
  Ni  Ni676  1  0.16666667  0.61111111  0.30833333  1.0
  Ni  Ni677  1  0.16666667  0.94444444  0.30833333  1.0
  Ni  Ni678  1  0.50000000  0.27777778  0.30833333  1.0
  Ni  Ni679  1  0.50000000  0.61111111  0.30833333  1.0
  Ni  Ni680  1  0.50000000  0.94444444  0.30833333  1.0
  Ni  Ni681  1  0.83333333  0.27777778  0.30833333  1.0
  Ni  Ni682  1  0.83333333  0.61111111  0.30833333  1.0
  Ni  Ni683  1  0.83333333  0.94444444  0.30833333  1.0
  Ni  Ni684  1  0.25150267  0.05555556  0.37500000  1.0
  Ni  Ni685  1  0.25150267  0.38888889  0.37500000  1.0
  Ni  Ni686  1  0.25150267  0.72222222  0.37500000  1.0
  Ni  Ni687  1  0.58483600  0.05555556  0.37500000  1.0
  Ni  Ni688  1  0.58483600  0.38888889  0.37500000  1.0
  Ni  Ni689  1  0.58483600  0.72222222  0.37500000  1.0
  Ni  Ni690  1  0.91816933  0.05555556  0.37500000  1.0
  Ni  Ni691  1  0.91816933  0.38888889  0.37500000  1.0
  Ni  Ni692  1  0.91816933  0.72222222  0.37500000  1.0
  Ni  Ni693  1  0.25150267  0.22222222  0.32500000  1.0
  Ni  Ni694  1  0.25150267  0.55555556  0.32500000  1.0
  Ni  Ni695  1  0.25150267  0.88888889  0.32500000  1.0
  Ni  Ni696  1  0.58483600  0.22222222  0.32500000  1.0
  Ni  Ni697  1  0.58483600  0.55555556  0.32500000  1.0
  Ni  Ni698  1  0.58483600  0.88888889  0.32500000  1.0
  Ni  Ni699  1  0.91816933  0.22222222  0.32500000  1.0
  Ni  Ni700  1  0.91816933  0.55555556  0.32500000  1.0
  Ni  Ni701  1  0.91816933  0.88888889  0.32500000  1.0
  Ni  Ni702  1  0.08183067  0.05555556  0.37500000  1.0
  Ni  Ni703  1  0.08183067  0.38888889  0.37500000  1.0
  Ni  Ni704  1  0.08183067  0.72222222  0.37500000  1.0
  Ni  Ni705  1  0.41516400  0.05555556  0.37500000  1.0
  Ni  Ni706  1  0.41516400  0.38888889  0.37500000  1.0
  Ni  Ni707  1  0.41516400  0.72222222  0.37500000  1.0
  Ni  Ni708  1  0.74849733  0.05555556  0.37500000  1.0
  Ni  Ni709  1  0.74849733  0.38888889  0.37500000  1.0
  Ni  Ni710  1  0.74849733  0.72222222  0.37500000  1.0
  Ni  Ni711  1  0.08183067  0.22222222  0.32500000  1.0
  Ni  Ni712  1  0.08183067  0.55555556  0.32500000  1.0
  Ni  Ni713  1  0.08183067  0.88888889  0.32500000  1.0
  Ni  Ni714  1  0.41516400  0.22222222  0.32500000  1.0
  Ni  Ni715  1  0.41516400  0.55555556  0.32500000  1.0
  Ni  Ni716  1  0.41516400  0.88888889  0.32500000  1.0
  Ni  Ni717  1  0.74849733  0.22222222  0.32500000  1.0
  Ni  Ni718  1  0.74849733  0.55555556  0.32500000  1.0
  Ni  Ni719  1  0.74849733  0.88888889  0.32500000  1.0
  Ge  Ge720  1  0.25217967  0.11111111  0.35833333  1.0
  Ge  Ge721  1  0.25217967  0.44444444  0.35833333  1.0
  Ge  Ge722  1  0.25217967  0.77777778  0.35833333  1.0
  Ge  Ge723  1  0.58551300  0.11111111  0.35833333  1.0
  Ge  Ge724  1  0.58551300  0.44444444  0.35833333  1.0
  Ge  Ge725  1  0.58551300  0.77777778  0.35833333  1.0
  Ge  Ge726  1  0.91884633  0.11111111  0.35833333  1.0
  Ge  Ge727  1  0.91884633  0.44444444  0.35833333  1.0
  Ge  Ge728  1  0.91884633  0.77777778  0.35833333  1.0
  Ge  Ge729  1  0.25217967  0.27777778  0.30833333  1.0
  Ge  Ge730  1  0.25217967  0.61111111  0.30833333  1.0
  Ge  Ge731  1  0.25217967  0.94444444  0.30833333  1.0
  Ge  Ge732  1  0.58551300  0.27777778  0.30833333  1.0
  Ge  Ge733  1  0.58551300  0.61111111  0.30833333  1.0
  Ge  Ge734  1  0.58551300  0.94444444  0.30833333  1.0
  Ge  Ge735  1  0.91884633  0.27777778  0.30833333  1.0
  Ge  Ge736  1  0.91884633  0.61111111  0.30833333  1.0
  Ge  Ge737  1  0.91884633  0.94444444  0.30833333  1.0
  Ge  Ge738  1  0.08115367  0.11111111  0.35833333  1.0
  Ge  Ge739  1  0.08115367  0.44444444  0.35833333  1.0
  Ge  Ge740  1  0.08115367  0.77777778  0.35833333  1.0
  Ge  Ge741  1  0.41448700  0.11111111  0.35833333  1.0
  Ge  Ge742  1  0.41448700  0.44444444  0.35833333  1.0
  Ge  Ge743  1  0.41448700  0.77777778  0.35833333  1.0
  Ge  Ge744  1  0.74782033  0.11111111  0.35833333  1.0
  Ge  Ge745  1  0.74782033  0.44444444  0.35833333  1.0
  Ge  Ge746  1  0.74782033  0.77777778  0.35833333  1.0
  Ge  Ge747  1  0.08115367  0.27777778  0.30833333  1.0
  Ge  Ge748  1  0.08115367  0.61111111  0.30833333  1.0
  Ge  Ge749  1  0.08115367  0.94444444  0.30833333  1.0
  Ge  Ge750  1  0.41448700  0.27777778  0.30833333  1.0
  Ge  Ge751  1  0.41448700  0.61111111  0.30833333  1.0
  Ge  Ge752  1  0.41448700  0.94444444  0.30833333  1.0
  Ge  Ge753  1  0.74782033  0.27777778  0.30833333  1.0
  Ge  Ge754  1  0.74782033  0.61111111  0.30833333  1.0
  Ge  Ge755  1  0.74782033  0.94444444  0.30833333  1.0
  Ge  Ge756  1  0.00000000  0.05555556  0.37500000  1.0
  Ge  Ge757  1  0.00000000  0.38888889  0.37500000  1.0
  Ge  Ge758  1  0.00000000  0.72222222  0.37500000  1.0
  Ge  Ge759  1  0.33333333  0.05555556  0.37500000  1.0
  Ge  Ge760  1  0.33333333  0.38888889  0.37500000  1.0
  Ge  Ge761  1  0.33333333  0.72222222  0.37500000  1.0
  Ge  Ge762  1  0.66666667  0.05555556  0.37500000  1.0
  Ge  Ge763  1  0.66666667  0.38888889  0.37500000  1.0
  Ge  Ge764  1  0.66666667  0.72222222  0.37500000  1.0
  Ge  Ge765  1  0.00000000  0.22222222  0.32500000  1.0
  Ge  Ge766  1  0.00000000  0.55555556  0.32500000  1.0
  Ge  Ge767  1  0.00000000  0.88888889  0.32500000  1.0
  Ge  Ge768  1  0.33333333  0.22222222  0.32500000  1.0
  Ge  Ge769  1  0.33333333  0.55555556  0.32500000  1.0
  Ge  Ge770  1  0.33333333  0.88888889  0.32500000  1.0
  Ge  Ge771  1  0.66666667  0.22222222  0.32500000  1.0
  Ge  Ge772  1  0.66666667  0.55555556  0.32500000  1.0
  Ge  Ge773  1  0.66666667  0.88888889  0.32500000  1.0
  Ge  Ge774  1  0.16666667  0.05555556  0.37500000  1.0
  Ge  Ge775  1  0.16666667  0.38888889  0.37500000  1.0
  Ge  Ge776  1  0.16666667  0.72222222  0.37500000  1.0
  Ge  Ge777  1  0.50000000  0.05555556  0.37500000  1.0
  Ge  Ge778  1  0.50000000  0.38888889  0.37500000  1.0
  Ge  Ge779  1  0.50000000  0.72222222  0.37500000  1.0
  Ge  Ge780  1  0.83333333  0.05555556  0.37500000  1.0
  Ge  Ge781  1  0.83333333  0.38888889  0.37500000  1.0
  Ge  Ge782  1  0.83333333  0.72222222  0.37500000  1.0
  Ge  Ge783  1  0.16666667  0.22222222  0.32500000  1.0
  Ge  Ge784  1  0.16666667  0.55555556  0.32500000  1.0
  Ge  Ge785  1  0.16666667  0.88888889  0.32500000  1.0
  Ge  Ge786  1  0.50000000  0.22222222  0.32500000  1.0
  Ge  Ge787  1  0.50000000  0.55555556  0.32500000  1.0
  Ge  Ge788  1  0.50000000  0.88888889  0.32500000  1.0
  Ge  Ge789  1  0.83333333  0.22222222  0.32500000  1.0
  Ge  Ge790  1  0.83333333  0.55555556  0.32500000  1.0
  Ge  Ge791  1  0.83333333  0.88888889  0.32500000  1.0
