# generated using pymatgen
data_Ni7Ge4
_symmetry_space_group_name_H-M   'P 1'
_cell_length_a   20.62573915
_cell_length_b   61.34804927
_cell_length_c   55.57195490
_cell_angle_alpha   101.19274287
_cell_angle_beta   150.00000000
_cell_angle_gamma   80.32238393
_symmetry_Int_Tables_number   1
_chemical_formula_structural   Ni7Ge4
_chemical_formula_sum   'Ni756 Ge432'
_cell_volume   34490.22280035
_cell_formula_units_Z   108
loop_
 _symmetry_equiv_pos_site_id
 _symmetry_equiv_pos_as_xyz
  1  'x, y, z'
loop_
 _atom_site_type_symbol
 _atom_site_label
 _atom_site_symmetry_multiplicity
 _atom_site_fract_x
 _atom_site_fract_y
 _atom_site_fract_z
 _atom_site_occupancy
  Ni  Ni0  1  0.00000000  0.06213950  0.01115754  1.0
  Ni  Ni1  1  0.00000000  0.39547283  0.01115754  1.0
  Ni  Ni2  1  0.00000000  0.72880617  0.01115754  1.0
  Ni  Ni3  1  0.33333333  0.06213950  0.01115754  1.0
  Ni  Ni4  1  0.33333333  0.39547283  0.01115754  1.0
  Ni  Ni5  1  0.33333333  0.72880617  0.01115754  1.0
  Ni  Ni6  1  0.66666667  0.06213950  0.01115754  1.0
  Ni  Ni7  1  0.66666667  0.39547283  0.01115754  1.0
  Ni  Ni8  1  0.66666667  0.72880617  0.01115754  1.0
  Ni  Ni9  1  0.00000000  0.22880617  0.04687182  1.0
  Ni  Ni10  1  0.00000000  0.56213950  0.04687182  1.0
  Ni  Ni11  1  0.00000000  0.89547283  0.04687182  1.0
  Ni  Ni12  1  0.33333333  0.22880617  0.04687182  1.0
  Ni  Ni13  1  0.33333333  0.56213950  0.04687182  1.0
  Ni  Ni14  1  0.33333333  0.89547283  0.04687182  1.0
  Ni  Ni15  1  0.66666667  0.22880617  0.04687182  1.0
  Ni  Ni16  1  0.66666667  0.56213950  0.04687182  1.0
  Ni  Ni17  1  0.66666667  0.89547283  0.04687182  1.0
  Ni  Ni18  1  0.00000000  0.14652467  0.02924007  1.0
  Ni  Ni19  1  0.00000000  0.47985800  0.02924007  1.0
  Ni  Ni20  1  0.00000000  0.81319133  0.02924007  1.0
  Ni  Ni21  1  0.33333333  0.14652467  0.02924007  1.0
  Ni  Ni22  1  0.33333333  0.47985800  0.02924007  1.0
  Ni  Ni23  1  0.33333333  0.81319133  0.02924007  1.0
  Ni  Ni24  1  0.66666667  0.14652467  0.02924007  1.0
  Ni  Ni25  1  0.66666667  0.47985800  0.02924007  1.0
  Ni  Ni26  1  0.66666667  0.81319133  0.02924007  1.0
  Ni  Ni27  1  0.00000000  0.31319133  0.06495436  1.0
  Ni  Ni28  1  0.00000000  0.64652467  0.06495436  1.0
  Ni  Ni29  1  0.00000000  0.97985800  0.06495436  1.0
  Ni  Ni30  1  0.33333333  0.31319133  0.06495436  1.0
  Ni  Ni31  1  0.33333333  0.64652467  0.06495436  1.0
  Ni  Ni32  1  0.33333333  0.97985800  0.06495436  1.0
  Ni  Ni33  1  0.66666667  0.31319133  0.06495436  1.0
  Ni  Ni34  1  0.66666667  0.64652467  0.06495436  1.0
  Ni  Ni35  1  0.66666667  0.97985800  0.06495436  1.0
  Ni  Ni36  1  0.00000000  0.02014200  0.00215807  1.0
  Ni  Ni37  1  0.00000000  0.35347533  0.00215807  1.0
  Ni  Ni38  1  0.00000000  0.68680867  0.00215807  1.0
  Ni  Ni39  1  0.33333333  0.02014200  0.00215807  1.0
  Ni  Ni40  1  0.33333333  0.35347533  0.00215807  1.0
  Ni  Ni41  1  0.33333333  0.68680867  0.00215807  1.0
  Ni  Ni42  1  0.66666667  0.02014200  0.00215807  1.0
  Ni  Ni43  1  0.66666667  0.35347533  0.00215807  1.0
  Ni  Ni44  1  0.66666667  0.68680867  0.00215807  1.0
  Ni  Ni45  1  0.00000000  0.18680867  0.03787236  1.0
  Ni  Ni46  1  0.00000000  0.52014200  0.03787236  1.0
  Ni  Ni47  1  0.00000000  0.85347533  0.03787236  1.0
  Ni  Ni48  1  0.33333333  0.18680867  0.03787236  1.0
  Ni  Ni49  1  0.33333333  0.52014200  0.03787236  1.0
  Ni  Ni50  1  0.33333333  0.85347533  0.03787236  1.0
  Ni  Ni51  1  0.66666667  0.18680867  0.03787236  1.0
  Ni  Ni52  1  0.66666667  0.52014200  0.03787236  1.0
  Ni  Ni53  1  0.66666667  0.85347533  0.03787236  1.0
  Ni  Ni54  1  0.00000000  0.10452717  0.02024061  1.0
  Ni  Ni55  1  0.00000000  0.43786050  0.02024061  1.0
  Ni  Ni56  1  0.00000000  0.77119383  0.02024061  1.0
  Ni  Ni57  1  0.33333333  0.10452717  0.02024061  1.0
  Ni  Ni58  1  0.33333333  0.43786050  0.02024061  1.0
  Ni  Ni59  1  0.33333333  0.77119383  0.02024061  1.0
  Ni  Ni60  1  0.66666667  0.10452717  0.02024061  1.0
  Ni  Ni61  1  0.66666667  0.43786050  0.02024061  1.0
  Ni  Ni62  1  0.66666667  0.77119383  0.02024061  1.0
  Ni  Ni63  1  0.00000000  0.27119383  0.05595489  1.0
  Ni  Ni64  1  0.00000000  0.60452717  0.05595489  1.0
  Ni  Ni65  1  0.00000000  0.93786050  0.05595489  1.0
  Ni  Ni66  1  0.33333333  0.27119383  0.05595489  1.0
  Ni  Ni67  1  0.33333333  0.60452717  0.05595489  1.0
  Ni  Ni68  1  0.33333333  0.93786050  0.05595489  1.0
  Ni  Ni69  1  0.66666667  0.27119383  0.05595489  1.0
  Ni  Ni70  1  0.66666667  0.60452717  0.05595489  1.0
  Ni  Ni71  1  0.66666667  0.93786050  0.05595489  1.0
  Ni  Ni72  1  0.11111111  0.08333333  0.01569907  1.0
  Ni  Ni73  1  0.11111111  0.41666667  0.01569907  1.0
  Ni  Ni74  1  0.11111111  0.75000000  0.01569907  1.0
  Ni  Ni75  1  0.44444444  0.08333333  0.01569907  1.0
  Ni  Ni76  1  0.44444444  0.41666667  0.01569907  1.0
  Ni  Ni77  1  0.44444444  0.75000000  0.01569907  1.0
  Ni  Ni78  1  0.77777778  0.08333333  0.01569907  1.0
  Ni  Ni79  1  0.77777778  0.41666667  0.01569907  1.0
  Ni  Ni80  1  0.77777778  0.75000000  0.01569907  1.0
  Ni  Ni81  1  0.11111111  0.25000000  0.05141336  1.0
  Ni  Ni82  1  0.11111111  0.58333333  0.05141336  1.0
  Ni  Ni83  1  0.11111111  0.91666667  0.05141336  1.0
  Ni  Ni84  1  0.44444444  0.25000000  0.05141336  1.0
  Ni  Ni85  1  0.44444444  0.58333333  0.05141336  1.0
  Ni  Ni86  1  0.44444444  0.91666667  0.05141336  1.0
  Ni  Ni87  1  0.77777778  0.25000000  0.05141336  1.0
  Ni  Ni88  1  0.77777778  0.58333333  0.05141336  1.0
  Ni  Ni89  1  0.77777778  0.91666667  0.05141336  1.0
  Ni  Ni90  1  0.22222222  0.04091533  0.00660950  1.0
  Ni  Ni91  1  0.22222222  0.37424867  0.00660950  1.0
  Ni  Ni92  1  0.22222222  0.70758200  0.00660950  1.0
  Ni  Ni93  1  0.55555556  0.04091533  0.00660950  1.0
  Ni  Ni94  1  0.55555556  0.37424867  0.00660950  1.0
  Ni  Ni95  1  0.55555556  0.70758200  0.00660950  1.0
  Ni  Ni96  1  0.88888889  0.04091533  0.00660950  1.0
  Ni  Ni97  1  0.88888889  0.37424867  0.00660950  1.0
  Ni  Ni98  1  0.88888889  0.70758200  0.00660950  1.0
  Ni  Ni99  1  0.22222222  0.20758200  0.04232379  1.0
  Ni  Ni100  1  0.22222222  0.54091533  0.04232379  1.0
  Ni  Ni101  1  0.22222222  0.87424867  0.04232379  1.0
  Ni  Ni102  1  0.55555556  0.20758200  0.04232379  1.0
  Ni  Ni103  1  0.55555556  0.54091533  0.04232379  1.0
  Ni  Ni104  1  0.55555556  0.87424867  0.04232379  1.0
  Ni  Ni105  1  0.88888889  0.20758200  0.04232379  1.0
  Ni  Ni106  1  0.88888889  0.54091533  0.04232379  1.0
  Ni  Ni107  1  0.88888889  0.87424867  0.04232379  1.0
  Ni  Ni108  1  0.22222222  0.12575133  0.02478864  1.0
  Ni  Ni109  1  0.22222222  0.45908467  0.02478864  1.0
  Ni  Ni110  1  0.22222222  0.79241800  0.02478864  1.0
  Ni  Ni111  1  0.55555556  0.12575133  0.02478864  1.0
  Ni  Ni112  1  0.55555556  0.45908467  0.02478864  1.0
  Ni  Ni113  1  0.55555556  0.79241800  0.02478864  1.0
  Ni  Ni114  1  0.88888889  0.12575133  0.02478864  1.0
  Ni  Ni115  1  0.88888889  0.45908467  0.02478864  1.0
  Ni  Ni116  1  0.88888889  0.79241800  0.02478864  1.0
  Ni  Ni117  1  0.22222222  0.29241800  0.06050293  1.0
  Ni  Ni118  1  0.22222222  0.62575133  0.06050293  1.0
  Ni  Ni119  1  0.22222222  0.95908467  0.06050293  1.0
  Ni  Ni120  1  0.55555556  0.29241800  0.06050293  1.0
  Ni  Ni121  1  0.55555556  0.62575133  0.06050293  1.0
  Ni  Ni122  1  0.55555556  0.95908467  0.06050293  1.0
  Ni  Ni123  1  0.88888889  0.29241800  0.06050293  1.0
  Ni  Ni124  1  0.88888889  0.62575133  0.06050293  1.0
  Ni  Ni125  1  0.88888889  0.95908467  0.06050293  1.0
  Ge  Ge126  1  0.11111111  0.04057683  0.00653696  1.0
  Ge  Ge127  1  0.11111111  0.37391017  0.00653696  1.0
  Ge  Ge128  1  0.11111111  0.70724350  0.00653696  1.0
  Ge  Ge129  1  0.44444444  0.04057683  0.00653696  1.0
  Ge  Ge130  1  0.44444444  0.37391017  0.00653696  1.0
  Ge  Ge131  1  0.44444444  0.70724350  0.00653696  1.0
  Ge  Ge132  1  0.77777778  0.04057683  0.00653696  1.0
  Ge  Ge133  1  0.77777778  0.37391017  0.00653696  1.0
  Ge  Ge134  1  0.77777778  0.70724350  0.00653696  1.0
  Ge  Ge135  1  0.11111111  0.20724350  0.04225125  1.0
  Ge  Ge136  1  0.11111111  0.54057683  0.04225125  1.0
  Ge  Ge137  1  0.11111111  0.87391017  0.04225125  1.0
  Ge  Ge138  1  0.44444444  0.20724350  0.04225125  1.0
  Ge  Ge139  1  0.44444444  0.54057683  0.04225125  1.0
  Ge  Ge140  1  0.44444444  0.87391017  0.04225125  1.0
  Ge  Ge141  1  0.77777778  0.20724350  0.04225125  1.0
  Ge  Ge142  1  0.77777778  0.54057683  0.04225125  1.0
  Ge  Ge143  1  0.77777778  0.87391017  0.04225125  1.0
  Ge  Ge144  1  0.11111111  0.12608983  0.02486118  1.0
  Ge  Ge145  1  0.11111111  0.45942317  0.02486118  1.0
  Ge  Ge146  1  0.11111111  0.79275650  0.02486118  1.0
  Ge  Ge147  1  0.44444444  0.12608983  0.02486118  1.0
  Ge  Ge148  1  0.44444444  0.45942317  0.02486118  1.0
  Ge  Ge149  1  0.44444444  0.79275650  0.02486118  1.0
  Ge  Ge150  1  0.77777778  0.12608983  0.02486118  1.0
  Ge  Ge151  1  0.77777778  0.45942317  0.02486118  1.0
  Ge  Ge152  1  0.77777778  0.79275650  0.02486118  1.0
  Ge  Ge153  1  0.11111111  0.29275650  0.06057546  1.0
  Ge  Ge154  1  0.11111111  0.62608983  0.06057546  1.0
  Ge  Ge155  1  0.11111111  0.95942317  0.06057546  1.0
  Ge  Ge156  1  0.44444444  0.29275650  0.06057546  1.0
  Ge  Ge157  1  0.44444444  0.62608983  0.06057546  1.0
  Ge  Ge158  1  0.44444444  0.95942317  0.06057546  1.0
  Ge  Ge159  1  0.77777778  0.29275650  0.06057546  1.0
  Ge  Ge160  1  0.77777778  0.62608983  0.06057546  1.0
  Ge  Ge161  1  0.77777778  0.95942317  0.06057546  1.0
  Ge  Ge162  1  0.22222222  0.00000000  0.06927050  1.0
  Ge  Ge163  1  0.22222222  0.33333333  0.06927050  1.0
  Ge  Ge164  1  0.22222222  0.66666667  0.06927050  1.0
  Ge  Ge165  1  0.55555556  0.00000000  0.06927050  1.0
  Ge  Ge166  1  0.55555556  0.33333333  0.06927050  1.0
  Ge  Ge167  1  0.55555556  0.66666667  0.06927050  1.0
  Ge  Ge168  1  0.88888889  0.00000000  0.06927050  1.0
  Ge  Ge169  1  0.88888889  0.33333333  0.06927050  1.0
  Ge  Ge170  1  0.88888889  0.66666667  0.06927050  1.0
  Ge  Ge171  1  0.22222222  0.16666667  0.03355621  1.0
  Ge  Ge172  1  0.22222222  0.50000000  0.03355621  1.0
  Ge  Ge173  1  0.22222222  0.83333333  0.03355621  1.0
  Ge  Ge174  1  0.55555556  0.16666667  0.03355621  1.0
  Ge  Ge175  1  0.55555556  0.50000000  0.03355621  1.0
  Ge  Ge176  1  0.55555556  0.83333333  0.03355621  1.0
  Ge  Ge177  1  0.88888889  0.16666667  0.03355621  1.0
  Ge  Ge178  1  0.88888889  0.50000000  0.03355621  1.0
  Ge  Ge179  1  0.88888889  0.83333333  0.03355621  1.0
  Ge  Ge180  1  0.22222222  0.08333333  0.01569907  1.0
  Ge  Ge181  1  0.22222222  0.41666667  0.01569907  1.0
  Ge  Ge182  1  0.22222222  0.75000000  0.01569907  1.0
  Ge  Ge183  1  0.55555556  0.08333333  0.01569907  1.0
  Ge  Ge184  1  0.55555556  0.41666667  0.01569907  1.0
  Ge  Ge185  1  0.55555556  0.75000000  0.01569907  1.0
  Ge  Ge186  1  0.88888889  0.08333333  0.01569907  1.0
  Ge  Ge187  1  0.88888889  0.41666667  0.01569907  1.0
  Ge  Ge188  1  0.88888889  0.75000000  0.01569907  1.0
  Ge  Ge189  1  0.22222222  0.25000000  0.05141336  1.0
  Ge  Ge190  1  0.22222222  0.58333333  0.05141336  1.0
  Ge  Ge191  1  0.22222222  0.91666667  0.05141336  1.0
  Ge  Ge192  1  0.55555556  0.25000000  0.05141336  1.0
  Ge  Ge193  1  0.55555556  0.58333333  0.05141336  1.0
  Ge  Ge194  1  0.55555556  0.91666667  0.05141336  1.0
  Ge  Ge195  1  0.88888889  0.25000000  0.05141336  1.0
  Ge  Ge196  1  0.88888889  0.58333333  0.05141336  1.0
  Ge  Ge197  1  0.88888889  0.91666667  0.05141336  1.0
  Ni  Ni198  1  0.00000000  0.06213950  0.08258611  1.0
  Ni  Ni199  1  0.00000000  0.39547283  0.08258611  1.0
  Ni  Ni200  1  0.00000000  0.72880617  0.08258611  1.0
  Ni  Ni201  1  0.33333333  0.06213950  0.08258611  1.0
  Ni  Ni202  1  0.33333333  0.39547283  0.08258611  1.0
  Ni  Ni203  1  0.33333333  0.72880617  0.08258611  1.0
  Ni  Ni204  1  0.66666667  0.06213950  0.08258611  1.0
  Ni  Ni205  1  0.66666667  0.39547283  0.08258611  1.0
  Ni  Ni206  1  0.66666667  0.72880617  0.08258611  1.0
  Ni  Ni207  1  0.00000000  0.22880617  0.11830039  1.0
  Ni  Ni208  1  0.00000000  0.56213950  0.11830039  1.0
  Ni  Ni209  1  0.00000000  0.89547283  0.11830039  1.0
  Ni  Ni210  1  0.33333333  0.22880617  0.11830039  1.0
  Ni  Ni211  1  0.33333333  0.56213950  0.11830039  1.0
  Ni  Ni212  1  0.33333333  0.89547283  0.11830039  1.0
  Ni  Ni213  1  0.66666667  0.22880617  0.11830039  1.0
  Ni  Ni214  1  0.66666667  0.56213950  0.11830039  1.0
  Ni  Ni215  1  0.66666667  0.89547283  0.11830039  1.0
  Ni  Ni216  1  0.00000000  0.14652467  0.10066864  1.0
  Ni  Ni217  1  0.00000000  0.47985800  0.10066864  1.0
  Ni  Ni218  1  0.00000000  0.81319133  0.10066864  1.0
  Ni  Ni219  1  0.33333333  0.14652467  0.10066864  1.0
  Ni  Ni220  1  0.33333333  0.47985800  0.10066864  1.0
  Ni  Ni221  1  0.33333333  0.81319133  0.10066864  1.0
  Ni  Ni222  1  0.66666667  0.14652467  0.10066864  1.0
  Ni  Ni223  1  0.66666667  0.47985800  0.10066864  1.0
  Ni  Ni224  1  0.66666667  0.81319133  0.10066864  1.0
  Ni  Ni225  1  0.00000000  0.31319133  0.13638293  1.0
  Ni  Ni226  1  0.00000000  0.64652467  0.13638293  1.0
  Ni  Ni227  1  0.00000000  0.97985800  0.13638293  1.0
  Ni  Ni228  1  0.33333333  0.31319133  0.13638293  1.0
  Ni  Ni229  1  0.33333333  0.64652467  0.13638293  1.0
  Ni  Ni230  1  0.33333333  0.97985800  0.13638293  1.0
  Ni  Ni231  1  0.66666667  0.31319133  0.13638293  1.0
  Ni  Ni232  1  0.66666667  0.64652467  0.13638293  1.0
  Ni  Ni233  1  0.66666667  0.97985800  0.13638293  1.0
  Ni  Ni234  1  0.00000000  0.02014200  0.07358664  1.0
  Ni  Ni235  1  0.00000000  0.35347533  0.07358664  1.0
  Ni  Ni236  1  0.00000000  0.68680867  0.07358664  1.0
  Ni  Ni237  1  0.33333333  0.02014200  0.07358664  1.0
  Ni  Ni238  1  0.33333333  0.35347533  0.07358664  1.0
  Ni  Ni239  1  0.33333333  0.68680867  0.07358664  1.0
  Ni  Ni240  1  0.66666667  0.02014200  0.07358664  1.0
  Ni  Ni241  1  0.66666667  0.35347533  0.07358664  1.0
  Ni  Ni242  1  0.66666667  0.68680867  0.07358664  1.0
  Ni  Ni243  1  0.00000000  0.18680867  0.10930093  1.0
  Ni  Ni244  1  0.00000000  0.52014200  0.10930093  1.0
  Ni  Ni245  1  0.00000000  0.85347533  0.10930093  1.0
  Ni  Ni246  1  0.33333333  0.18680867  0.10930093  1.0
  Ni  Ni247  1  0.33333333  0.52014200  0.10930093  1.0
  Ni  Ni248  1  0.33333333  0.85347533  0.10930093  1.0
  Ni  Ni249  1  0.66666667  0.18680867  0.10930093  1.0
  Ni  Ni250  1  0.66666667  0.52014200  0.10930093  1.0
  Ni  Ni251  1  0.66666667  0.85347533  0.10930093  1.0
  Ni  Ni252  1  0.00000000  0.10452717  0.09166918  1.0
  Ni  Ni253  1  0.00000000  0.43786050  0.09166918  1.0
  Ni  Ni254  1  0.00000000  0.77119383  0.09166918  1.0
  Ni  Ni255  1  0.33333333  0.10452717  0.09166918  1.0
  Ni  Ni256  1  0.33333333  0.43786050  0.09166918  1.0
  Ni  Ni257  1  0.33333333  0.77119383  0.09166918  1.0
  Ni  Ni258  1  0.66666667  0.10452717  0.09166918  1.0
  Ni  Ni259  1  0.66666667  0.43786050  0.09166918  1.0
  Ni  Ni260  1  0.66666667  0.77119383  0.09166918  1.0
  Ni  Ni261  1  0.00000000  0.27119383  0.12738346  1.0
  Ni  Ni262  1  0.00000000  0.60452717  0.12738346  1.0
  Ni  Ni263  1  0.00000000  0.93786050  0.12738346  1.0
  Ni  Ni264  1  0.33333333  0.27119383  0.12738346  1.0
  Ni  Ni265  1  0.33333333  0.60452717  0.12738346  1.0
  Ni  Ni266  1  0.33333333  0.93786050  0.12738346  1.0
  Ni  Ni267  1  0.66666667  0.27119383  0.12738346  1.0
  Ni  Ni268  1  0.66666667  0.60452717  0.12738346  1.0
  Ni  Ni269  1  0.66666667  0.93786050  0.12738346  1.0
  Ni  Ni270  1  0.11111111  0.08333333  0.08712764  1.0
  Ni  Ni271  1  0.11111111  0.41666667  0.08712764  1.0
  Ni  Ni272  1  0.11111111  0.75000000  0.08712764  1.0
  Ni  Ni273  1  0.44444444  0.08333333  0.08712764  1.0
  Ni  Ni274  1  0.44444444  0.41666667  0.08712764  1.0
  Ni  Ni275  1  0.44444444  0.75000000  0.08712764  1.0
  Ni  Ni276  1  0.77777778  0.08333333  0.08712764  1.0
  Ni  Ni277  1  0.77777778  0.41666667  0.08712764  1.0
  Ni  Ni278  1  0.77777778  0.75000000  0.08712764  1.0
  Ni  Ni279  1  0.11111111  0.25000000  0.12284193  1.0
  Ni  Ni280  1  0.11111111  0.58333333  0.12284193  1.0
  Ni  Ni281  1  0.11111111  0.91666667  0.12284193  1.0
  Ni  Ni282  1  0.44444444  0.25000000  0.12284193  1.0
  Ni  Ni283  1  0.44444444  0.58333333  0.12284193  1.0
  Ni  Ni284  1  0.44444444  0.91666667  0.12284193  1.0
  Ni  Ni285  1  0.77777778  0.25000000  0.12284193  1.0
  Ni  Ni286  1  0.77777778  0.58333333  0.12284193  1.0
  Ni  Ni287  1  0.77777778  0.91666667  0.12284193  1.0
  Ni  Ni288  1  0.22222222  0.04091533  0.07803807  1.0
  Ni  Ni289  1  0.22222222  0.37424867  0.07803807  1.0
  Ni  Ni290  1  0.22222222  0.70758200  0.07803807  1.0
  Ni  Ni291  1  0.55555556  0.04091533  0.07803807  1.0
  Ni  Ni292  1  0.55555556  0.37424867  0.07803807  1.0
  Ni  Ni293  1  0.55555556  0.70758200  0.07803807  1.0
  Ni  Ni294  1  0.88888889  0.04091533  0.07803807  1.0
  Ni  Ni295  1  0.88888889  0.37424867  0.07803807  1.0
  Ni  Ni296  1  0.88888889  0.70758200  0.07803807  1.0
  Ni  Ni297  1  0.22222222  0.20758200  0.11375236  1.0
  Ni  Ni298  1  0.22222222  0.54091533  0.11375236  1.0
  Ni  Ni299  1  0.22222222  0.87424867  0.11375236  1.0
  Ni  Ni300  1  0.55555556  0.20758200  0.11375236  1.0
  Ni  Ni301  1  0.55555556  0.54091533  0.11375236  1.0
  Ni  Ni302  1  0.55555556  0.87424867  0.11375236  1.0
  Ni  Ni303  1  0.88888889  0.20758200  0.11375236  1.0
  Ni  Ni304  1  0.88888889  0.54091533  0.11375236  1.0
  Ni  Ni305  1  0.88888889  0.87424867  0.11375236  1.0
  Ni  Ni306  1  0.22222222  0.12575133  0.09621721  1.0
  Ni  Ni307  1  0.22222222  0.45908467  0.09621721  1.0
  Ni  Ni308  1  0.22222222  0.79241800  0.09621721  1.0
  Ni  Ni309  1  0.55555556  0.12575133  0.09621721  1.0
  Ni  Ni310  1  0.55555556  0.45908467  0.09621721  1.0
  Ni  Ni311  1  0.55555556  0.79241800  0.09621721  1.0
  Ni  Ni312  1  0.88888889  0.12575133  0.09621721  1.0
  Ni  Ni313  1  0.88888889  0.45908467  0.09621721  1.0
  Ni  Ni314  1  0.88888889  0.79241800  0.09621721  1.0
  Ni  Ni315  1  0.22222222  0.29241800  0.13193150  1.0
  Ni  Ni316  1  0.22222222  0.62575133  0.13193150  1.0
  Ni  Ni317  1  0.22222222  0.95908467  0.13193150  1.0
  Ni  Ni318  1  0.55555556  0.29241800  0.13193150  1.0
  Ni  Ni319  1  0.55555556  0.62575133  0.13193150  1.0
  Ni  Ni320  1  0.55555556  0.95908467  0.13193150  1.0
  Ni  Ni321  1  0.88888889  0.29241800  0.13193150  1.0
  Ni  Ni322  1  0.88888889  0.62575133  0.13193150  1.0
  Ni  Ni323  1  0.88888889  0.95908467  0.13193150  1.0
  Ge  Ge324  1  0.11111111  0.04057683  0.07796554  1.0
  Ge  Ge325  1  0.11111111  0.37391017  0.07796554  1.0
  Ge  Ge326  1  0.11111111  0.70724350  0.07796554  1.0
  Ge  Ge327  1  0.44444444  0.04057683  0.07796554  1.0
  Ge  Ge328  1  0.44444444  0.37391017  0.07796554  1.0
  Ge  Ge329  1  0.44444444  0.70724350  0.07796554  1.0
  Ge  Ge330  1  0.77777778  0.04057683  0.07796554  1.0
  Ge  Ge331  1  0.77777778  0.37391017  0.07796554  1.0
  Ge  Ge332  1  0.77777778  0.70724350  0.07796554  1.0
  Ge  Ge333  1  0.11111111  0.20724350  0.11367982  1.0
  Ge  Ge334  1  0.11111111  0.54057683  0.11367982  1.0
  Ge  Ge335  1  0.11111111  0.87391017  0.11367982  1.0
  Ge  Ge336  1  0.44444444  0.20724350  0.11367982  1.0
  Ge  Ge337  1  0.44444444  0.54057683  0.11367982  1.0
  Ge  Ge338  1  0.44444444  0.87391017  0.11367982  1.0
  Ge  Ge339  1  0.77777778  0.20724350  0.11367982  1.0
  Ge  Ge340  1  0.77777778  0.54057683  0.11367982  1.0
  Ge  Ge341  1  0.77777778  0.87391017  0.11367982  1.0
  Ge  Ge342  1  0.11111111  0.12608983  0.09628975  1.0
  Ge  Ge343  1  0.11111111  0.45942317  0.09628975  1.0
  Ge  Ge344  1  0.11111111  0.79275650  0.09628975  1.0
  Ge  Ge345  1  0.44444444  0.12608983  0.09628975  1.0
  Ge  Ge346  1  0.44444444  0.45942317  0.09628975  1.0
  Ge  Ge347  1  0.44444444  0.79275650  0.09628975  1.0
  Ge  Ge348  1  0.77777778  0.12608983  0.09628975  1.0
  Ge  Ge349  1  0.77777778  0.45942317  0.09628975  1.0
  Ge  Ge350  1  0.77777778  0.79275650  0.09628975  1.0
  Ge  Ge351  1  0.11111111  0.29275650  0.13200404  1.0
  Ge  Ge352  1  0.11111111  0.62608983  0.13200404  1.0
  Ge  Ge353  1  0.11111111  0.95942317  0.13200404  1.0
  Ge  Ge354  1  0.44444444  0.29275650  0.13200404  1.0
  Ge  Ge355  1  0.44444444  0.62608983  0.13200404  1.0
  Ge  Ge356  1  0.44444444  0.95942317  0.13200404  1.0
  Ge  Ge357  1  0.77777778  0.29275650  0.13200404  1.0
  Ge  Ge358  1  0.77777778  0.62608983  0.13200404  1.0
  Ge  Ge359  1  0.77777778  0.95942317  0.13200404  1.0
  Ge  Ge360  1  0.22222222  0.00000000  0.14069907  1.0
  Ge  Ge361  1  0.22222222  0.33333333  0.14069907  1.0
  Ge  Ge362  1  0.22222222  0.66666667  0.14069907  1.0
  Ge  Ge363  1  0.55555556  0.00000000  0.14069907  1.0
  Ge  Ge364  1  0.55555556  0.33333333  0.14069907  1.0
  Ge  Ge365  1  0.55555556  0.66666667  0.14069907  1.0
  Ge  Ge366  1  0.88888889  0.00000000  0.14069907  1.0
  Ge  Ge367  1  0.88888889  0.33333333  0.14069907  1.0
  Ge  Ge368  1  0.88888889  0.66666667  0.14069907  1.0
  Ge  Ge369  1  0.22222222  0.16666667  0.10498479  1.0
  Ge  Ge370  1  0.22222222  0.50000000  0.10498479  1.0
  Ge  Ge371  1  0.22222222  0.83333333  0.10498479  1.0
  Ge  Ge372  1  0.55555556  0.16666667  0.10498479  1.0
  Ge  Ge373  1  0.55555556  0.50000000  0.10498479  1.0
  Ge  Ge374  1  0.55555556  0.83333333  0.10498479  1.0
  Ge  Ge375  1  0.88888889  0.16666667  0.10498479  1.0
  Ge  Ge376  1  0.88888889  0.50000000  0.10498479  1.0
  Ge  Ge377  1  0.88888889  0.83333333  0.10498479  1.0
  Ge  Ge378  1  0.22222222  0.08333333  0.08712764  1.0
  Ge  Ge379  1  0.22222222  0.41666667  0.08712764  1.0
  Ge  Ge380  1  0.22222222  0.75000000  0.08712764  1.0
  Ge  Ge381  1  0.55555556  0.08333333  0.08712764  1.0
  Ge  Ge382  1  0.55555556  0.41666667  0.08712764  1.0
  Ge  Ge383  1  0.55555556  0.75000000  0.08712764  1.0
  Ge  Ge384  1  0.88888889  0.08333333  0.08712764  1.0
  Ge  Ge385  1  0.88888889  0.41666667  0.08712764  1.0
  Ge  Ge386  1  0.88888889  0.75000000  0.08712764  1.0
  Ge  Ge387  1  0.22222222  0.25000000  0.12284193  1.0
  Ge  Ge388  1  0.22222222  0.58333333  0.12284193  1.0
  Ge  Ge389  1  0.22222222  0.91666667  0.12284193  1.0
  Ge  Ge390  1  0.55555556  0.25000000  0.12284193  1.0
  Ge  Ge391  1  0.55555556  0.58333333  0.12284193  1.0
  Ge  Ge392  1  0.55555556  0.91666667  0.12284193  1.0
  Ge  Ge393  1  0.88888889  0.25000000  0.12284193  1.0
  Ge  Ge394  1  0.88888889  0.58333333  0.12284193  1.0
  Ge  Ge395  1  0.88888889  0.91666667  0.12284193  1.0
  Ni  Ni396  1  0.00000000  0.06213950  0.15401468  1.0
  Ni  Ni397  1  0.00000000  0.39547283  0.15401468  1.0
  Ni  Ni398  1  0.00000000  0.72880617  0.15401468  1.0
  Ni  Ni399  1  0.33333333  0.06213950  0.15401468  1.0
  Ni  Ni400  1  0.33333333  0.39547283  0.15401468  1.0
  Ni  Ni401  1  0.33333333  0.72880617  0.15401468  1.0
  Ni  Ni402  1  0.66666667  0.06213950  0.15401468  1.0
  Ni  Ni403  1  0.66666667  0.39547283  0.15401468  1.0
  Ni  Ni404  1  0.66666667  0.72880617  0.15401468  1.0
  Ni  Ni405  1  0.00000000  0.22880617  0.18972896  1.0
  Ni  Ni406  1  0.00000000  0.56213950  0.18972896  1.0
  Ni  Ni407  1  0.00000000  0.89547283  0.18972896  1.0
  Ni  Ni408  1  0.33333333  0.22880617  0.18972896  1.0
  Ni  Ni409  1  0.33333333  0.56213950  0.18972896  1.0
  Ni  Ni410  1  0.33333333  0.89547283  0.18972896  1.0
  Ni  Ni411  1  0.66666667  0.22880617  0.18972896  1.0
  Ni  Ni412  1  0.66666667  0.56213950  0.18972896  1.0
  Ni  Ni413  1  0.66666667  0.89547283  0.18972896  1.0
  Ni  Ni414  1  0.00000000  0.14652467  0.17209721  1.0
  Ni  Ni415  1  0.00000000  0.47985800  0.17209721  1.0
  Ni  Ni416  1  0.00000000  0.81319133  0.17209721  1.0
  Ni  Ni417  1  0.33333333  0.14652467  0.17209721  1.0
  Ni  Ni418  1  0.33333333  0.47985800  0.17209721  1.0
  Ni  Ni419  1  0.33333333  0.81319133  0.17209721  1.0
  Ni  Ni420  1  0.66666667  0.14652467  0.17209721  1.0
  Ni  Ni421  1  0.66666667  0.47985800  0.17209721  1.0
  Ni  Ni422  1  0.66666667  0.81319133  0.17209721  1.0
  Ni  Ni423  1  0.00000000  0.31319133  0.20781150  1.0
  Ni  Ni424  1  0.00000000  0.64652467  0.20781150  1.0
  Ni  Ni425  1  0.00000000  0.97985800  0.20781150  1.0
  Ni  Ni426  1  0.33333333  0.31319133  0.20781150  1.0
  Ni  Ni427  1  0.33333333  0.64652467  0.20781150  1.0
  Ni  Ni428  1  0.33333333  0.97985800  0.20781150  1.0
  Ni  Ni429  1  0.66666667  0.31319133  0.20781150  1.0
  Ni  Ni430  1  0.66666667  0.64652467  0.20781150  1.0
  Ni  Ni431  1  0.66666667  0.97985800  0.20781150  1.0
  Ni  Ni432  1  0.00000000  0.02014200  0.14501521  1.0
  Ni  Ni433  1  0.00000000  0.35347533  0.14501521  1.0
  Ni  Ni434  1  0.00000000  0.68680867  0.14501521  1.0
  Ni  Ni435  1  0.33333333  0.02014200  0.14501521  1.0
  Ni  Ni436  1  0.33333333  0.35347533  0.14501521  1.0
  Ni  Ni437  1  0.33333333  0.68680867  0.14501521  1.0
  Ni  Ni438  1  0.66666667  0.02014200  0.14501521  1.0
  Ni  Ni439  1  0.66666667  0.35347533  0.14501521  1.0
  Ni  Ni440  1  0.66666667  0.68680867  0.14501521  1.0
  Ni  Ni441  1  0.00000000  0.18680867  0.18072950  1.0
  Ni  Ni442  1  0.00000000  0.52014200  0.18072950  1.0
  Ni  Ni443  1  0.00000000  0.85347533  0.18072950  1.0
  Ni  Ni444  1  0.33333333  0.18680867  0.18072950  1.0
  Ni  Ni445  1  0.33333333  0.52014200  0.18072950  1.0
  Ni  Ni446  1  0.33333333  0.85347533  0.18072950  1.0
  Ni  Ni447  1  0.66666667  0.18680867  0.18072950  1.0
  Ni  Ni448  1  0.66666667  0.52014200  0.18072950  1.0
  Ni  Ni449  1  0.66666667  0.85347533  0.18072950  1.0
  Ni  Ni450  1  0.00000000  0.10452717  0.16309775  1.0
  Ni  Ni451  1  0.00000000  0.43786050  0.16309775  1.0
  Ni  Ni452  1  0.00000000  0.77119383  0.16309775  1.0
  Ni  Ni453  1  0.33333333  0.10452717  0.16309775  1.0
  Ni  Ni454  1  0.33333333  0.43786050  0.16309775  1.0
  Ni  Ni455  1  0.33333333  0.77119383  0.16309775  1.0
  Ni  Ni456  1  0.66666667  0.10452717  0.16309775  1.0
  Ni  Ni457  1  0.66666667  0.43786050  0.16309775  1.0
  Ni  Ni458  1  0.66666667  0.77119383  0.16309775  1.0
  Ni  Ni459  1  0.00000000  0.27119383  0.19881204  1.0
  Ni  Ni460  1  0.00000000  0.60452717  0.19881204  1.0
  Ni  Ni461  1  0.00000000  0.93786050  0.19881204  1.0
  Ni  Ni462  1  0.33333333  0.27119383  0.19881204  1.0
  Ni  Ni463  1  0.33333333  0.60452717  0.19881204  1.0
  Ni  Ni464  1  0.33333333  0.93786050  0.19881204  1.0
  Ni  Ni465  1  0.66666667  0.27119383  0.19881204  1.0
  Ni  Ni466  1  0.66666667  0.60452717  0.19881204  1.0
  Ni  Ni467  1  0.66666667  0.93786050  0.19881204  1.0
  Ni  Ni468  1  0.11111111  0.08333333  0.15855621  1.0
  Ni  Ni469  1  0.11111111  0.41666667  0.15855621  1.0
  Ni  Ni470  1  0.11111111  0.75000000  0.15855621  1.0
  Ni  Ni471  1  0.44444444  0.08333333  0.15855621  1.0
  Ni  Ni472  1  0.44444444  0.41666667  0.15855621  1.0
  Ni  Ni473  1  0.44444444  0.75000000  0.15855621  1.0
  Ni  Ni474  1  0.77777778  0.08333333  0.15855621  1.0
  Ni  Ni475  1  0.77777778  0.41666667  0.15855621  1.0
  Ni  Ni476  1  0.77777778  0.75000000  0.15855621  1.0
  Ni  Ni477  1  0.11111111  0.25000000  0.19427050  1.0
  Ni  Ni478  1  0.11111111  0.58333333  0.19427050  1.0
  Ni  Ni479  1  0.11111111  0.91666667  0.19427050  1.0
  Ni  Ni480  1  0.44444444  0.25000000  0.19427050  1.0
  Ni  Ni481  1  0.44444444  0.58333333  0.19427050  1.0
  Ni  Ni482  1  0.44444444  0.91666667  0.19427050  1.0
  Ni  Ni483  1  0.77777778  0.25000000  0.19427050  1.0
  Ni  Ni484  1  0.77777778  0.58333333  0.19427050  1.0
  Ni  Ni485  1  0.77777778  0.91666667  0.19427050  1.0
  Ni  Ni486  1  0.22222222  0.04091533  0.14946664  1.0
  Ni  Ni487  1  0.22222222  0.37424867  0.14946664  1.0
  Ni  Ni488  1  0.22222222  0.70758200  0.14946664  1.0
  Ni  Ni489  1  0.55555556  0.04091533  0.14946664  1.0
  Ni  Ni490  1  0.55555556  0.37424867  0.14946664  1.0
  Ni  Ni491  1  0.55555556  0.70758200  0.14946664  1.0
  Ni  Ni492  1  0.88888889  0.04091533  0.14946664  1.0
  Ni  Ni493  1  0.88888889  0.37424867  0.14946664  1.0
  Ni  Ni494  1  0.88888889  0.70758200  0.14946664  1.0
  Ni  Ni495  1  0.22222222  0.20758200  0.18518093  1.0
  Ni  Ni496  1  0.22222222  0.54091533  0.18518093  1.0
  Ni  Ni497  1  0.22222222  0.87424867  0.18518093  1.0
  Ni  Ni498  1  0.55555556  0.20758200  0.18518093  1.0
  Ni  Ni499  1  0.55555556  0.54091533  0.18518093  1.0
  Ni  Ni500  1  0.55555556  0.87424867  0.18518093  1.0
  Ni  Ni501  1  0.88888889  0.20758200  0.18518093  1.0
  Ni  Ni502  1  0.88888889  0.54091533  0.18518093  1.0
  Ni  Ni503  1  0.88888889  0.87424867  0.18518093  1.0
  Ni  Ni504  1  0.22222222  0.12575133  0.16764579  1.0
  Ni  Ni505  1  0.22222222  0.45908467  0.16764579  1.0
  Ni  Ni506  1  0.22222222  0.79241800  0.16764579  1.0
  Ni  Ni507  1  0.55555556  0.12575133  0.16764579  1.0
  Ni  Ni508  1  0.55555556  0.45908467  0.16764579  1.0
  Ni  Ni509  1  0.55555556  0.79241800  0.16764579  1.0
  Ni  Ni510  1  0.88888889  0.12575133  0.16764579  1.0
  Ni  Ni511  1  0.88888889  0.45908467  0.16764579  1.0
  Ni  Ni512  1  0.88888889  0.79241800  0.16764579  1.0
  Ni  Ni513  1  0.22222222  0.29241800  0.20336007  1.0
  Ni  Ni514  1  0.22222222  0.62575133  0.20336007  1.0
  Ni  Ni515  1  0.22222222  0.95908467  0.20336007  1.0
  Ni  Ni516  1  0.55555556  0.29241800  0.20336007  1.0
  Ni  Ni517  1  0.55555556  0.62575133  0.20336007  1.0
  Ni  Ni518  1  0.55555556  0.95908467  0.20336007  1.0
  Ni  Ni519  1  0.88888889  0.29241800  0.20336007  1.0
  Ni  Ni520  1  0.88888889  0.62575133  0.20336007  1.0
  Ni  Ni521  1  0.88888889  0.95908467  0.20336007  1.0
  Ge  Ge522  1  0.11111111  0.04057683  0.14939411  1.0
  Ge  Ge523  1  0.11111111  0.37391017  0.14939411  1.0
  Ge  Ge524  1  0.11111111  0.70724350  0.14939411  1.0
  Ge  Ge525  1  0.44444444  0.04057683  0.14939411  1.0
  Ge  Ge526  1  0.44444444  0.37391017  0.14939411  1.0
  Ge  Ge527  1  0.44444444  0.70724350  0.14939411  1.0
  Ge  Ge528  1  0.77777778  0.04057683  0.14939411  1.0
  Ge  Ge529  1  0.77777778  0.37391017  0.14939411  1.0
  Ge  Ge530  1  0.77777778  0.70724350  0.14939411  1.0
  Ge  Ge531  1  0.11111111  0.20724350  0.18510839  1.0
  Ge  Ge532  1  0.11111111  0.54057683  0.18510839  1.0
  Ge  Ge533  1  0.11111111  0.87391017  0.18510839  1.0
  Ge  Ge534  1  0.44444444  0.20724350  0.18510839  1.0
  Ge  Ge535  1  0.44444444  0.54057683  0.18510839  1.0
  Ge  Ge536  1  0.44444444  0.87391017  0.18510839  1.0
  Ge  Ge537  1  0.77777778  0.20724350  0.18510839  1.0
  Ge  Ge538  1  0.77777778  0.54057683  0.18510839  1.0
  Ge  Ge539  1  0.77777778  0.87391017  0.18510839  1.0
  Ge  Ge540  1  0.11111111  0.12608983  0.16771832  1.0
  Ge  Ge541  1  0.11111111  0.45942317  0.16771832  1.0
  Ge  Ge542  1  0.11111111  0.79275650  0.16771832  1.0
  Ge  Ge543  1  0.44444444  0.12608983  0.16771832  1.0
  Ge  Ge544  1  0.44444444  0.45942317  0.16771832  1.0
  Ge  Ge545  1  0.44444444  0.79275650  0.16771832  1.0
  Ge  Ge546  1  0.77777778  0.12608983  0.16771832  1.0
  Ge  Ge547  1  0.77777778  0.45942317  0.16771832  1.0
  Ge  Ge548  1  0.77777778  0.79275650  0.16771832  1.0
  Ge  Ge549  1  0.11111111  0.29275650  0.20343261  1.0
  Ge  Ge550  1  0.11111111  0.62608983  0.20343261  1.0
  Ge  Ge551  1  0.11111111  0.95942317  0.20343261  1.0
  Ge  Ge552  1  0.44444444  0.29275650  0.20343261  1.0
  Ge  Ge553  1  0.44444444  0.62608983  0.20343261  1.0
  Ge  Ge554  1  0.44444444  0.95942317  0.20343261  1.0
  Ge  Ge555  1  0.77777778  0.29275650  0.20343261  1.0
  Ge  Ge556  1  0.77777778  0.62608983  0.20343261  1.0
  Ge  Ge557  1  0.77777778  0.95942317  0.20343261  1.0
  Ge  Ge558  1  0.22222222  0.00000000  0.21212764  1.0
  Ge  Ge559  1  0.22222222  0.33333333  0.21212764  1.0
  Ge  Ge560  1  0.22222222  0.66666667  0.21212764  1.0
  Ge  Ge561  1  0.55555556  0.00000000  0.21212764  1.0
  Ge  Ge562  1  0.55555556  0.33333333  0.21212764  1.0
  Ge  Ge563  1  0.55555556  0.66666667  0.21212764  1.0
  Ge  Ge564  1  0.88888889  0.00000000  0.21212764  1.0
  Ge  Ge565  1  0.88888889  0.33333333  0.21212764  1.0
  Ge  Ge566  1  0.88888889  0.66666667  0.21212764  1.0
  Ge  Ge567  1  0.22222222  0.16666667  0.17641336  1.0
  Ge  Ge568  1  0.22222222  0.50000000  0.17641336  1.0
  Ge  Ge569  1  0.22222222  0.83333333  0.17641336  1.0
  Ge  Ge570  1  0.55555556  0.16666667  0.17641336  1.0
  Ge  Ge571  1  0.55555556  0.50000000  0.17641336  1.0
  Ge  Ge572  1  0.55555556  0.83333333  0.17641336  1.0
  Ge  Ge573  1  0.88888889  0.16666667  0.17641336  1.0
  Ge  Ge574  1  0.88888889  0.50000000  0.17641336  1.0
  Ge  Ge575  1  0.88888889  0.83333333  0.17641336  1.0
  Ge  Ge576  1  0.22222222  0.08333333  0.15855621  1.0
  Ge  Ge577  1  0.22222222  0.41666667  0.15855621  1.0
  Ge  Ge578  1  0.22222222  0.75000000  0.15855621  1.0
  Ge  Ge579  1  0.55555556  0.08333333  0.15855621  1.0
  Ge  Ge580  1  0.55555556  0.41666667  0.15855621  1.0
  Ge  Ge581  1  0.55555556  0.75000000  0.15855621  1.0
  Ge  Ge582  1  0.88888889  0.08333333  0.15855621  1.0
  Ge  Ge583  1  0.88888889  0.41666667  0.15855621  1.0
  Ge  Ge584  1  0.88888889  0.75000000  0.15855621  1.0
  Ge  Ge585  1  0.22222222  0.25000000  0.19427050  1.0
  Ge  Ge586  1  0.22222222  0.58333333  0.19427050  1.0
  Ge  Ge587  1  0.22222222  0.91666667  0.19427050  1.0
  Ge  Ge588  1  0.55555556  0.25000000  0.19427050  1.0
  Ge  Ge589  1  0.55555556  0.58333333  0.19427050  1.0
  Ge  Ge590  1  0.55555556  0.91666667  0.19427050  1.0
  Ge  Ge591  1  0.88888889  0.25000000  0.19427050  1.0
  Ge  Ge592  1  0.88888889  0.58333333  0.19427050  1.0
  Ge  Ge593  1  0.88888889  0.91666667  0.19427050  1.0
  Ni  Ni594  1  0.00000000  0.06213950  0.22544325  1.0
  Ni  Ni595  1  0.00000000  0.39547283  0.22544325  1.0
  Ni  Ni596  1  0.00000000  0.72880617  0.22544325  1.0
  Ni  Ni597  1  0.33333333  0.06213950  0.22544325  1.0
  Ni  Ni598  1  0.33333333  0.39547283  0.22544325  1.0
  Ni  Ni599  1  0.33333333  0.72880617  0.22544325  1.0
  Ni  Ni600  1  0.66666667  0.06213950  0.22544325  1.0
  Ni  Ni601  1  0.66666667  0.39547283  0.22544325  1.0
  Ni  Ni602  1  0.66666667  0.72880617  0.22544325  1.0
  Ni  Ni603  1  0.00000000  0.22880617  0.26115754  1.0
  Ni  Ni604  1  0.00000000  0.56213950  0.26115754  1.0
  Ni  Ni605  1  0.00000000  0.89547283  0.26115754  1.0
  Ni  Ni606  1  0.33333333  0.22880617  0.26115754  1.0
  Ni  Ni607  1  0.33333333  0.56213950  0.26115754  1.0
  Ni  Ni608  1  0.33333333  0.89547283  0.26115754  1.0
  Ni  Ni609  1  0.66666667  0.22880617  0.26115754  1.0
  Ni  Ni610  1  0.66666667  0.56213950  0.26115754  1.0
  Ni  Ni611  1  0.66666667  0.89547283  0.26115754  1.0
  Ni  Ni612  1  0.00000000  0.14652467  0.24352579  1.0
  Ni  Ni613  1  0.00000000  0.47985800  0.24352579  1.0
  Ni  Ni614  1  0.00000000  0.81319133  0.24352579  1.0
  Ni  Ni615  1  0.33333333  0.14652467  0.24352579  1.0
  Ni  Ni616  1  0.33333333  0.47985800  0.24352579  1.0
  Ni  Ni617  1  0.33333333  0.81319133  0.24352579  1.0
  Ni  Ni618  1  0.66666667  0.14652467  0.24352579  1.0
  Ni  Ni619  1  0.66666667  0.47985800  0.24352579  1.0
  Ni  Ni620  1  0.66666667  0.81319133  0.24352579  1.0
  Ni  Ni621  1  0.00000000  0.31319133  0.27924007  1.0
  Ni  Ni622  1  0.00000000  0.64652467  0.27924007  1.0
  Ni  Ni623  1  0.00000000  0.97985800  0.27924007  1.0
  Ni  Ni624  1  0.33333333  0.31319133  0.27924007  1.0
  Ni  Ni625  1  0.33333333  0.64652467  0.27924007  1.0
  Ni  Ni626  1  0.33333333  0.97985800  0.27924007  1.0
  Ni  Ni627  1  0.66666667  0.31319133  0.27924007  1.0
  Ni  Ni628  1  0.66666667  0.64652467  0.27924007  1.0
  Ni  Ni629  1  0.66666667  0.97985800  0.27924007  1.0
  Ni  Ni630  1  0.00000000  0.02014200  0.21644379  1.0
  Ni  Ni631  1  0.00000000  0.35347533  0.21644379  1.0
  Ni  Ni632  1  0.00000000  0.68680867  0.21644379  1.0
  Ni  Ni633  1  0.33333333  0.02014200  0.21644379  1.0
  Ni  Ni634  1  0.33333333  0.35347533  0.21644379  1.0
  Ni  Ni635  1  0.33333333  0.68680867  0.21644379  1.0
  Ni  Ni636  1  0.66666667  0.02014200  0.21644379  1.0
  Ni  Ni637  1  0.66666667  0.35347533  0.21644379  1.0
  Ni  Ni638  1  0.66666667  0.68680867  0.21644379  1.0
  Ni  Ni639  1  0.00000000  0.18680867  0.25215807  1.0
  Ni  Ni640  1  0.00000000  0.52014200  0.25215807  1.0
  Ni  Ni641  1  0.00000000  0.85347533  0.25215807  1.0
  Ni  Ni642  1  0.33333333  0.18680867  0.25215807  1.0
  Ni  Ni643  1  0.33333333  0.52014200  0.25215807  1.0
  Ni  Ni644  1  0.33333333  0.85347533  0.25215807  1.0
  Ni  Ni645  1  0.66666667  0.18680867  0.25215807  1.0
  Ni  Ni646  1  0.66666667  0.52014200  0.25215807  1.0
  Ni  Ni647  1  0.66666667  0.85347533  0.25215807  1.0
  Ni  Ni648  1  0.00000000  0.10452717  0.23452632  1.0
  Ni  Ni649  1  0.00000000  0.43786050  0.23452632  1.0
  Ni  Ni650  1  0.00000000  0.77119383  0.23452632  1.0
  Ni  Ni651  1  0.33333333  0.10452717  0.23452632  1.0
  Ni  Ni652  1  0.33333333  0.43786050  0.23452632  1.0
  Ni  Ni653  1  0.33333333  0.77119383  0.23452632  1.0
  Ni  Ni654  1  0.66666667  0.10452717  0.23452632  1.0
  Ni  Ni655  1  0.66666667  0.43786050  0.23452632  1.0
  Ni  Ni656  1  0.66666667  0.77119383  0.23452632  1.0
  Ni  Ni657  1  0.00000000  0.27119383  0.27024061  1.0
  Ni  Ni658  1  0.00000000  0.60452717  0.27024061  1.0
  Ni  Ni659  1  0.00000000  0.93786050  0.27024061  1.0
  Ni  Ni660  1  0.33333333  0.27119383  0.27024061  1.0
  Ni  Ni661  1  0.33333333  0.60452717  0.27024061  1.0
  Ni  Ni662  1  0.33333333  0.93786050  0.27024061  1.0
  Ni  Ni663  1  0.66666667  0.27119383  0.27024061  1.0
  Ni  Ni664  1  0.66666667  0.60452717  0.27024061  1.0
  Ni  Ni665  1  0.66666667  0.93786050  0.27024061  1.0
  Ni  Ni666  1  0.11111111  0.08333333  0.22998479  1.0
  Ni  Ni667  1  0.11111111  0.41666667  0.22998479  1.0
  Ni  Ni668  1  0.11111111  0.75000000  0.22998479  1.0
  Ni  Ni669  1  0.44444444  0.08333333  0.22998479  1.0
  Ni  Ni670  1  0.44444444  0.41666667  0.22998479  1.0
  Ni  Ni671  1  0.44444444  0.75000000  0.22998479  1.0
  Ni  Ni672  1  0.77777778  0.08333333  0.22998479  1.0
  Ni  Ni673  1  0.77777778  0.41666667  0.22998479  1.0
  Ni  Ni674  1  0.77777778  0.75000000  0.22998479  1.0
  Ni  Ni675  1  0.11111111  0.25000000  0.26569907  1.0
  Ni  Ni676  1  0.11111111  0.58333333  0.26569907  1.0
  Ni  Ni677  1  0.11111111  0.91666667  0.26569907  1.0
  Ni  Ni678  1  0.44444444  0.25000000  0.26569907  1.0
  Ni  Ni679  1  0.44444444  0.58333333  0.26569907  1.0
  Ni  Ni680  1  0.44444444  0.91666667  0.26569907  1.0
  Ni  Ni681  1  0.77777778  0.25000000  0.26569907  1.0
  Ni  Ni682  1  0.77777778  0.58333333  0.26569907  1.0
  Ni  Ni683  1  0.77777778  0.91666667  0.26569907  1.0
  Ni  Ni684  1  0.22222222  0.04091533  0.22089521  1.0
  Ni  Ni685  1  0.22222222  0.37424867  0.22089521  1.0
  Ni  Ni686  1  0.22222222  0.70758200  0.22089521  1.0
  Ni  Ni687  1  0.55555556  0.04091533  0.22089521  1.0
  Ni  Ni688  1  0.55555556  0.37424867  0.22089521  1.0
  Ni  Ni689  1  0.55555556  0.70758200  0.22089521  1.0
  Ni  Ni690  1  0.88888889  0.04091533  0.22089521  1.0
  Ni  Ni691  1  0.88888889  0.37424867  0.22089521  1.0
  Ni  Ni692  1  0.88888889  0.70758200  0.22089521  1.0
  Ni  Ni693  1  0.22222222  0.20758200  0.25660950  1.0
  Ni  Ni694  1  0.22222222  0.54091533  0.25660950  1.0
  Ni  Ni695  1  0.22222222  0.87424867  0.25660950  1.0
  Ni  Ni696  1  0.55555556  0.20758200  0.25660950  1.0
  Ni  Ni697  1  0.55555556  0.54091533  0.25660950  1.0
  Ni  Ni698  1  0.55555556  0.87424867  0.25660950  1.0
  Ni  Ni699  1  0.88888889  0.20758200  0.25660950  1.0
  Ni  Ni700  1  0.88888889  0.54091533  0.25660950  1.0
  Ni  Ni701  1  0.88888889  0.87424867  0.25660950  1.0
  Ni  Ni702  1  0.22222222  0.12575133  0.23907436  1.0
  Ni  Ni703  1  0.22222222  0.45908467  0.23907436  1.0
  Ni  Ni704  1  0.22222222  0.79241800  0.23907436  1.0
  Ni  Ni705  1  0.55555556  0.12575133  0.23907436  1.0
  Ni  Ni706  1  0.55555556  0.45908467  0.23907436  1.0
  Ni  Ni707  1  0.55555556  0.79241800  0.23907436  1.0
  Ni  Ni708  1  0.88888889  0.12575133  0.23907436  1.0
  Ni  Ni709  1  0.88888889  0.45908467  0.23907436  1.0
  Ni  Ni710  1  0.88888889  0.79241800  0.23907436  1.0
  Ni  Ni711  1  0.22222222  0.29241800  0.27478864  1.0
  Ni  Ni712  1  0.22222222  0.62575133  0.27478864  1.0
  Ni  Ni713  1  0.22222222  0.95908467  0.27478864  1.0
  Ni  Ni714  1  0.55555556  0.29241800  0.27478864  1.0
  Ni  Ni715  1  0.55555556  0.62575133  0.27478864  1.0
  Ni  Ni716  1  0.55555556  0.95908467  0.27478864  1.0
  Ni  Ni717  1  0.88888889  0.29241800  0.27478864  1.0
  Ni  Ni718  1  0.88888889  0.62575133  0.27478864  1.0
  Ni  Ni719  1  0.88888889  0.95908467  0.27478864  1.0
  Ge  Ge720  1  0.11111111  0.04057683  0.22082268  1.0
  Ge  Ge721  1  0.11111111  0.37391017  0.22082268  1.0
  Ge  Ge722  1  0.11111111  0.70724350  0.22082268  1.0
  Ge  Ge723  1  0.44444444  0.04057683  0.22082268  1.0
  Ge  Ge724  1  0.44444444  0.37391017  0.22082268  1.0
  Ge  Ge725  1  0.44444444  0.70724350  0.22082268  1.0
  Ge  Ge726  1  0.77777778  0.04057683  0.22082268  1.0
  Ge  Ge727  1  0.77777778  0.37391017  0.22082268  1.0
  Ge  Ge728  1  0.77777778  0.70724350  0.22082268  1.0
  Ge  Ge729  1  0.11111111  0.20724350  0.25653696  1.0
  Ge  Ge730  1  0.11111111  0.54057683  0.25653696  1.0
  Ge  Ge731  1  0.11111111  0.87391017  0.25653696  1.0
  Ge  Ge732  1  0.44444444  0.20724350  0.25653696  1.0
  Ge  Ge733  1  0.44444444  0.54057683  0.25653696  1.0
  Ge  Ge734  1  0.44444444  0.87391017  0.25653696  1.0
  Ge  Ge735  1  0.77777778  0.20724350  0.25653696  1.0
  Ge  Ge736  1  0.77777778  0.54057683  0.25653696  1.0
  Ge  Ge737  1  0.77777778  0.87391017  0.25653696  1.0
  Ge  Ge738  1  0.11111111  0.12608983  0.23914689  1.0
  Ge  Ge739  1  0.11111111  0.45942317  0.23914689  1.0
  Ge  Ge740  1  0.11111111  0.79275650  0.23914689  1.0
  Ge  Ge741  1  0.44444444  0.12608983  0.23914689  1.0
  Ge  Ge742  1  0.44444444  0.45942317  0.23914689  1.0
  Ge  Ge743  1  0.44444444  0.79275650  0.23914689  1.0
  Ge  Ge744  1  0.77777778  0.12608983  0.23914689  1.0
  Ge  Ge745  1  0.77777778  0.45942317  0.23914689  1.0
  Ge  Ge746  1  0.77777778  0.79275650  0.23914689  1.0
  Ge  Ge747  1  0.11111111  0.29275650  0.27486118  1.0
  Ge  Ge748  1  0.11111111  0.62608983  0.27486118  1.0
  Ge  Ge749  1  0.11111111  0.95942317  0.27486118  1.0
  Ge  Ge750  1  0.44444444  0.29275650  0.27486118  1.0
  Ge  Ge751  1  0.44444444  0.62608983  0.27486118  1.0
  Ge  Ge752  1  0.44444444  0.95942317  0.27486118  1.0
  Ge  Ge753  1  0.77777778  0.29275650  0.27486118  1.0
  Ge  Ge754  1  0.77777778  0.62608983  0.27486118  1.0
  Ge  Ge755  1  0.77777778  0.95942317  0.27486118  1.0
  Ge  Ge756  1  0.22222222  0.00000000  0.28355621  1.0
  Ge  Ge757  1  0.22222222  0.33333333  0.28355621  1.0
  Ge  Ge758  1  0.22222222  0.66666667  0.28355621  1.0
  Ge  Ge759  1  0.55555556  0.00000000  0.28355621  1.0
  Ge  Ge760  1  0.55555556  0.33333333  0.28355621  1.0
  Ge  Ge761  1  0.55555556  0.66666667  0.28355621  1.0
  Ge  Ge762  1  0.88888889  0.00000000  0.28355621  1.0
  Ge  Ge763  1  0.88888889  0.33333333  0.28355621  1.0
  Ge  Ge764  1  0.88888889  0.66666667  0.28355621  1.0
  Ge  Ge765  1  0.22222222  0.16666667  0.24784193  1.0
  Ge  Ge766  1  0.22222222  0.50000000  0.24784193  1.0
  Ge  Ge767  1  0.22222222  0.83333333  0.24784193  1.0
  Ge  Ge768  1  0.55555556  0.16666667  0.24784193  1.0
  Ge  Ge769  1  0.55555556  0.50000000  0.24784193  1.0
  Ge  Ge770  1  0.55555556  0.83333333  0.24784193  1.0
  Ge  Ge771  1  0.88888889  0.16666667  0.24784193  1.0
  Ge  Ge772  1  0.88888889  0.50000000  0.24784193  1.0
  Ge  Ge773  1  0.88888889  0.83333333  0.24784193  1.0
  Ge  Ge774  1  0.22222222  0.08333333  0.22998479  1.0
  Ge  Ge775  1  0.22222222  0.41666667  0.22998479  1.0
  Ge  Ge776  1  0.22222222  0.75000000  0.22998479  1.0
  Ge  Ge777  1  0.55555556  0.08333333  0.22998479  1.0
  Ge  Ge778  1  0.55555556  0.41666667  0.22998479  1.0
  Ge  Ge779  1  0.55555556  0.75000000  0.22998479  1.0
  Ge  Ge780  1  0.88888889  0.08333333  0.22998479  1.0
  Ge  Ge781  1  0.88888889  0.41666667  0.22998479  1.0
  Ge  Ge782  1  0.88888889  0.75000000  0.22998479  1.0
  Ge  Ge783  1  0.22222222  0.25000000  0.26569907  1.0
  Ge  Ge784  1  0.22222222  0.58333333  0.26569907  1.0
  Ge  Ge785  1  0.22222222  0.91666667  0.26569907  1.0
  Ge  Ge786  1  0.55555556  0.25000000  0.26569907  1.0
  Ge  Ge787  1  0.55555556  0.58333333  0.26569907  1.0
  Ge  Ge788  1  0.55555556  0.91666667  0.26569907  1.0
  Ge  Ge789  1  0.88888889  0.25000000  0.26569907  1.0
  Ge  Ge790  1  0.88888889  0.58333333  0.26569907  1.0
  Ge  Ge791  1  0.88888889  0.91666667  0.26569907  1.0
  Ni  Ni792  1  0.00000000  0.06213950  0.29687182  1.0
  Ni  Ni793  1  0.00000000  0.39547283  0.29687182  1.0
  Ni  Ni794  1  0.00000000  0.72880617  0.29687182  1.0
  Ni  Ni795  1  0.33333333  0.06213950  0.29687182  1.0
  Ni  Ni796  1  0.33333333  0.39547283  0.29687182  1.0
  Ni  Ni797  1  0.33333333  0.72880617  0.29687182  1.0
  Ni  Ni798  1  0.66666667  0.06213950  0.29687182  1.0
  Ni  Ni799  1  0.66666667  0.39547283  0.29687182  1.0
  Ni  Ni800  1  0.66666667  0.72880617  0.29687182  1.0
  Ni  Ni801  1  0.00000000  0.22880617  0.33258611  1.0
  Ni  Ni802  1  0.00000000  0.56213950  0.33258611  1.0
  Ni  Ni803  1  0.00000000  0.89547283  0.33258611  1.0
  Ni  Ni804  1  0.33333333  0.22880617  0.33258611  1.0
  Ni  Ni805  1  0.33333333  0.56213950  0.33258611  1.0
  Ni  Ni806  1  0.33333333  0.89547283  0.33258611  1.0
  Ni  Ni807  1  0.66666667  0.22880617  0.33258611  1.0
  Ni  Ni808  1  0.66666667  0.56213950  0.33258611  1.0
  Ni  Ni809  1  0.66666667  0.89547283  0.33258611  1.0
  Ni  Ni810  1  0.00000000  0.14652467  0.31495436  1.0
  Ni  Ni811  1  0.00000000  0.47985800  0.31495436  1.0
  Ni  Ni812  1  0.00000000  0.81319133  0.31495436  1.0
  Ni  Ni813  1  0.33333333  0.14652467  0.31495436  1.0
  Ni  Ni814  1  0.33333333  0.47985800  0.31495436  1.0
  Ni  Ni815  1  0.33333333  0.81319133  0.31495436  1.0
  Ni  Ni816  1  0.66666667  0.14652467  0.31495436  1.0
  Ni  Ni817  1  0.66666667  0.47985800  0.31495436  1.0
  Ni  Ni818  1  0.66666667  0.81319133  0.31495436  1.0
  Ni  Ni819  1  0.00000000  0.31319133  0.35066864  1.0
  Ni  Ni820  1  0.00000000  0.64652467  0.35066864  1.0
  Ni  Ni821  1  0.00000000  0.97985800  0.35066864  1.0
  Ni  Ni822  1  0.33333333  0.31319133  0.35066864  1.0
  Ni  Ni823  1  0.33333333  0.64652467  0.35066864  1.0
  Ni  Ni824  1  0.33333333  0.97985800  0.35066864  1.0
  Ni  Ni825  1  0.66666667  0.31319133  0.35066864  1.0
  Ni  Ni826  1  0.66666667  0.64652467  0.35066864  1.0
  Ni  Ni827  1  0.66666667  0.97985800  0.35066864  1.0
  Ni  Ni828  1  0.00000000  0.02014200  0.28787236  1.0
  Ni  Ni829  1  0.00000000  0.35347533  0.28787236  1.0
  Ni  Ni830  1  0.00000000  0.68680867  0.28787236  1.0
  Ni  Ni831  1  0.33333333  0.02014200  0.28787236  1.0
  Ni  Ni832  1  0.33333333  0.35347533  0.28787236  1.0
  Ni  Ni833  1  0.33333333  0.68680867  0.28787236  1.0
  Ni  Ni834  1  0.66666667  0.02014200  0.28787236  1.0
  Ni  Ni835  1  0.66666667  0.35347533  0.28787236  1.0
  Ni  Ni836  1  0.66666667  0.68680867  0.28787236  1.0
  Ni  Ni837  1  0.00000000  0.18680867  0.32358664  1.0
  Ni  Ni838  1  0.00000000  0.52014200  0.32358664  1.0
  Ni  Ni839  1  0.00000000  0.85347533  0.32358664  1.0
  Ni  Ni840  1  0.33333333  0.18680867  0.32358664  1.0
  Ni  Ni841  1  0.33333333  0.52014200  0.32358664  1.0
  Ni  Ni842  1  0.33333333  0.85347533  0.32358664  1.0
  Ni  Ni843  1  0.66666667  0.18680867  0.32358664  1.0
  Ni  Ni844  1  0.66666667  0.52014200  0.32358664  1.0
  Ni  Ni845  1  0.66666667  0.85347533  0.32358664  1.0
  Ni  Ni846  1  0.00000000  0.10452717  0.30595489  1.0
  Ni  Ni847  1  0.00000000  0.43786050  0.30595489  1.0
  Ni  Ni848  1  0.00000000  0.77119383  0.30595489  1.0
  Ni  Ni849  1  0.33333333  0.10452717  0.30595489  1.0
  Ni  Ni850  1  0.33333333  0.43786050  0.30595489  1.0
  Ni  Ni851  1  0.33333333  0.77119383  0.30595489  1.0
  Ni  Ni852  1  0.66666667  0.10452717  0.30595489  1.0
  Ni  Ni853  1  0.66666667  0.43786050  0.30595489  1.0
  Ni  Ni854  1  0.66666667  0.77119383  0.30595489  1.0
  Ni  Ni855  1  0.00000000  0.27119383  0.34166918  1.0
  Ni  Ni856  1  0.00000000  0.60452717  0.34166918  1.0
  Ni  Ni857  1  0.00000000  0.93786050  0.34166918  1.0
  Ni  Ni858  1  0.33333333  0.27119383  0.34166918  1.0
  Ni  Ni859  1  0.33333333  0.60452717  0.34166918  1.0
  Ni  Ni860  1  0.33333333  0.93786050  0.34166918  1.0
  Ni  Ni861  1  0.66666667  0.27119383  0.34166918  1.0
  Ni  Ni862  1  0.66666667  0.60452717  0.34166918  1.0
  Ni  Ni863  1  0.66666667  0.93786050  0.34166918  1.0
  Ni  Ni864  1  0.11111111  0.08333333  0.30141336  1.0
  Ni  Ni865  1  0.11111111  0.41666667  0.30141336  1.0
  Ni  Ni866  1  0.11111111  0.75000000  0.30141336  1.0
  Ni  Ni867  1  0.44444444  0.08333333  0.30141336  1.0
  Ni  Ni868  1  0.44444444  0.41666667  0.30141336  1.0
  Ni  Ni869  1  0.44444444  0.75000000  0.30141336  1.0
  Ni  Ni870  1  0.77777778  0.08333333  0.30141336  1.0
  Ni  Ni871  1  0.77777778  0.41666667  0.30141336  1.0
  Ni  Ni872  1  0.77777778  0.75000000  0.30141336  1.0
  Ni  Ni873  1  0.11111111  0.25000000  0.33712764  1.0
  Ni  Ni874  1  0.11111111  0.58333333  0.33712764  1.0
  Ni  Ni875  1  0.11111111  0.91666667  0.33712764  1.0
  Ni  Ni876  1  0.44444444  0.25000000  0.33712764  1.0
  Ni  Ni877  1  0.44444444  0.58333333  0.33712764  1.0
  Ni  Ni878  1  0.44444444  0.91666667  0.33712764  1.0
  Ni  Ni879  1  0.77777778  0.25000000  0.33712764  1.0
  Ni  Ni880  1  0.77777778  0.58333333  0.33712764  1.0
  Ni  Ni881  1  0.77777778  0.91666667  0.33712764  1.0
  Ni  Ni882  1  0.22222222  0.04091533  0.29232379  1.0
  Ni  Ni883  1  0.22222222  0.37424867  0.29232379  1.0
  Ni  Ni884  1  0.22222222  0.70758200  0.29232379  1.0
  Ni  Ni885  1  0.55555556  0.04091533  0.29232379  1.0
  Ni  Ni886  1  0.55555556  0.37424867  0.29232379  1.0
  Ni  Ni887  1  0.55555556  0.70758200  0.29232379  1.0
  Ni  Ni888  1  0.88888889  0.04091533  0.29232379  1.0
  Ni  Ni889  1  0.88888889  0.37424867  0.29232379  1.0
  Ni  Ni890  1  0.88888889  0.70758200  0.29232379  1.0
  Ni  Ni891  1  0.22222222  0.20758200  0.32803807  1.0
  Ni  Ni892  1  0.22222222  0.54091533  0.32803807  1.0
  Ni  Ni893  1  0.22222222  0.87424867  0.32803807  1.0
  Ni  Ni894  1  0.55555556  0.20758200  0.32803807  1.0
  Ni  Ni895  1  0.55555556  0.54091533  0.32803807  1.0
  Ni  Ni896  1  0.55555556  0.87424867  0.32803807  1.0
  Ni  Ni897  1  0.88888889  0.20758200  0.32803807  1.0
  Ni  Ni898  1  0.88888889  0.54091533  0.32803807  1.0
  Ni  Ni899  1  0.88888889  0.87424867  0.32803807  1.0
  Ni  Ni900  1  0.22222222  0.12575133  0.31050293  1.0
  Ni  Ni901  1  0.22222222  0.45908467  0.31050293  1.0
  Ni  Ni902  1  0.22222222  0.79241800  0.31050293  1.0
  Ni  Ni903  1  0.55555556  0.12575133  0.31050293  1.0
  Ni  Ni904  1  0.55555556  0.45908467  0.31050293  1.0
  Ni  Ni905  1  0.55555556  0.79241800  0.31050293  1.0
  Ni  Ni906  1  0.88888889  0.12575133  0.31050293  1.0
  Ni  Ni907  1  0.88888889  0.45908467  0.31050293  1.0
  Ni  Ni908  1  0.88888889  0.79241800  0.31050293  1.0
  Ni  Ni909  1  0.22222222  0.29241800  0.34621721  1.0
  Ni  Ni910  1  0.22222222  0.62575133  0.34621721  1.0
  Ni  Ni911  1  0.22222222  0.95908467  0.34621721  1.0
  Ni  Ni912  1  0.55555556  0.29241800  0.34621721  1.0
  Ni  Ni913  1  0.55555556  0.62575133  0.34621721  1.0
  Ni  Ni914  1  0.55555556  0.95908467  0.34621721  1.0
  Ni  Ni915  1  0.88888889  0.29241800  0.34621721  1.0
  Ni  Ni916  1  0.88888889  0.62575133  0.34621721  1.0
  Ni  Ni917  1  0.88888889  0.95908467  0.34621721  1.0
  Ge  Ge918  1  0.11111111  0.04057683  0.29225125  1.0
  Ge  Ge919  1  0.11111111  0.37391017  0.29225125  1.0
  Ge  Ge920  1  0.11111111  0.70724350  0.29225125  1.0
  Ge  Ge921  1  0.44444444  0.04057683  0.29225125  1.0
  Ge  Ge922  1  0.44444444  0.37391017  0.29225125  1.0
  Ge  Ge923  1  0.44444444  0.70724350  0.29225125  1.0
  Ge  Ge924  1  0.77777778  0.04057683  0.29225125  1.0
  Ge  Ge925  1  0.77777778  0.37391017  0.29225125  1.0
  Ge  Ge926  1  0.77777778  0.70724350  0.29225125  1.0
  Ge  Ge927  1  0.11111111  0.20724350  0.32796554  1.0
  Ge  Ge928  1  0.11111111  0.54057683  0.32796554  1.0
  Ge  Ge929  1  0.11111111  0.87391017  0.32796554  1.0
  Ge  Ge930  1  0.44444444  0.20724350  0.32796554  1.0
  Ge  Ge931  1  0.44444444  0.54057683  0.32796554  1.0
  Ge  Ge932  1  0.44444444  0.87391017  0.32796554  1.0
  Ge  Ge933  1  0.77777778  0.20724350  0.32796554  1.0
  Ge  Ge934  1  0.77777778  0.54057683  0.32796554  1.0
  Ge  Ge935  1  0.77777778  0.87391017  0.32796554  1.0
  Ge  Ge936  1  0.11111111  0.12608983  0.31057546  1.0
  Ge  Ge937  1  0.11111111  0.45942317  0.31057546  1.0
  Ge  Ge938  1  0.11111111  0.79275650  0.31057546  1.0
  Ge  Ge939  1  0.44444444  0.12608983  0.31057546  1.0
  Ge  Ge940  1  0.44444444  0.45942317  0.31057546  1.0
  Ge  Ge941  1  0.44444444  0.79275650  0.31057546  1.0
  Ge  Ge942  1  0.77777778  0.12608983  0.31057546  1.0
  Ge  Ge943  1  0.77777778  0.45942317  0.31057546  1.0
  Ge  Ge944  1  0.77777778  0.79275650  0.31057546  1.0
  Ge  Ge945  1  0.11111111  0.29275650  0.34628975  1.0
  Ge  Ge946  1  0.11111111  0.62608983  0.34628975  1.0
  Ge  Ge947  1  0.11111111  0.95942317  0.34628975  1.0
  Ge  Ge948  1  0.44444444  0.29275650  0.34628975  1.0
  Ge  Ge949  1  0.44444444  0.62608983  0.34628975  1.0
  Ge  Ge950  1  0.44444444  0.95942317  0.34628975  1.0
  Ge  Ge951  1  0.77777778  0.29275650  0.34628975  1.0
  Ge  Ge952  1  0.77777778  0.62608983  0.34628975  1.0
  Ge  Ge953  1  0.77777778  0.95942317  0.34628975  1.0
  Ge  Ge954  1  0.22222222  0.00000000  0.35498479  1.0
  Ge  Ge955  1  0.22222222  0.33333333  0.35498479  1.0
  Ge  Ge956  1  0.22222222  0.66666667  0.35498479  1.0
  Ge  Ge957  1  0.55555556  0.00000000  0.35498479  1.0
  Ge  Ge958  1  0.55555556  0.33333333  0.35498479  1.0
  Ge  Ge959  1  0.55555556  0.66666667  0.35498479  1.0
  Ge  Ge960  1  0.88888889  0.00000000  0.35498479  1.0
  Ge  Ge961  1  0.88888889  0.33333333  0.35498479  1.0
  Ge  Ge962  1  0.88888889  0.66666667  0.35498479  1.0
  Ge  Ge963  1  0.22222222  0.16666667  0.31927050  1.0
  Ge  Ge964  1  0.22222222  0.50000000  0.31927050  1.0
  Ge  Ge965  1  0.22222222  0.83333333  0.31927050  1.0
  Ge  Ge966  1  0.55555556  0.16666667  0.31927050  1.0
  Ge  Ge967  1  0.55555556  0.50000000  0.31927050  1.0
  Ge  Ge968  1  0.55555556  0.83333333  0.31927050  1.0
  Ge  Ge969  1  0.88888889  0.16666667  0.31927050  1.0
  Ge  Ge970  1  0.88888889  0.50000000  0.31927050  1.0
  Ge  Ge971  1  0.88888889  0.83333333  0.31927050  1.0
  Ge  Ge972  1  0.22222222  0.08333333  0.30141336  1.0
  Ge  Ge973  1  0.22222222  0.41666667  0.30141336  1.0
  Ge  Ge974  1  0.22222222  0.75000000  0.30141336  1.0
  Ge  Ge975  1  0.55555556  0.08333333  0.30141336  1.0
  Ge  Ge976  1  0.55555556  0.41666667  0.30141336  1.0
  Ge  Ge977  1  0.55555556  0.75000000  0.30141336  1.0
  Ge  Ge978  1  0.88888889  0.08333333  0.30141336  1.0
  Ge  Ge979  1  0.88888889  0.41666667  0.30141336  1.0
  Ge  Ge980  1  0.88888889  0.75000000  0.30141336  1.0
  Ge  Ge981  1  0.22222222  0.25000000  0.33712764  1.0
  Ge  Ge982  1  0.22222222  0.58333333  0.33712764  1.0
  Ge  Ge983  1  0.22222222  0.91666667  0.33712764  1.0
  Ge  Ge984  1  0.55555556  0.25000000  0.33712764  1.0
  Ge  Ge985  1  0.55555556  0.58333333  0.33712764  1.0
  Ge  Ge986  1  0.55555556  0.91666667  0.33712764  1.0
  Ge  Ge987  1  0.88888889  0.25000000  0.33712764  1.0
  Ge  Ge988  1  0.88888889  0.58333333  0.33712764  1.0
  Ge  Ge989  1  0.88888889  0.91666667  0.33712764  1.0
  Ni  Ni990  1  0.00000000  0.06213950  0.36830039  1.0
  Ni  Ni991  1  0.00000000  0.39547283  0.36830039  1.0
  Ni  Ni992  1  0.00000000  0.72880617  0.36830039  1.0
  Ni  Ni993  1  0.33333333  0.06213950  0.36830039  1.0
  Ni  Ni994  1  0.33333333  0.39547283  0.36830039  1.0
  Ni  Ni995  1  0.33333333  0.72880617  0.36830039  1.0
  Ni  Ni996  1  0.66666667  0.06213950  0.36830039  1.0
  Ni  Ni997  1  0.66666667  0.39547283  0.36830039  1.0
  Ni  Ni998  1  0.66666667  0.72880617  0.36830039  1.0
  Ni  Ni999  1  0.00000000  0.22880617  0.40401468  1.0
  Ni  Ni1000  1  0.00000000  0.56213950  0.40401468  1.0
  Ni  Ni1001  1  0.00000000  0.89547283  0.40401468  1.0
  Ni  Ni1002  1  0.33333333  0.22880617  0.40401468  1.0
  Ni  Ni1003  1  0.33333333  0.56213950  0.40401468  1.0
  Ni  Ni1004  1  0.33333333  0.89547283  0.40401468  1.0
  Ni  Ni1005  1  0.66666667  0.22880617  0.40401468  1.0
  Ni  Ni1006  1  0.66666667  0.56213950  0.40401468  1.0
  Ni  Ni1007  1  0.66666667  0.89547283  0.40401468  1.0
  Ni  Ni1008  1  0.00000000  0.14652467  0.38638293  1.0
  Ni  Ni1009  1  0.00000000  0.47985800  0.38638293  1.0
  Ni  Ni1010  1  0.00000000  0.81319133  0.38638293  1.0
  Ni  Ni1011  1  0.33333333  0.14652467  0.38638293  1.0
  Ni  Ni1012  1  0.33333333  0.47985800  0.38638293  1.0
  Ni  Ni1013  1  0.33333333  0.81319133  0.38638293  1.0
  Ni  Ni1014  1  0.66666667  0.14652467  0.38638293  1.0
  Ni  Ni1015  1  0.66666667  0.47985800  0.38638293  1.0
  Ni  Ni1016  1  0.66666667  0.81319133  0.38638293  1.0
  Ni  Ni1017  1  0.00000000  0.31319133  0.42209721  1.0
  Ni  Ni1018  1  0.00000000  0.64652467  0.42209721  1.0
  Ni  Ni1019  1  0.00000000  0.97985800  0.42209721  1.0
  Ni  Ni1020  1  0.33333333  0.31319133  0.42209721  1.0
  Ni  Ni1021  1  0.33333333  0.64652467  0.42209721  1.0
  Ni  Ni1022  1  0.33333333  0.97985800  0.42209721  1.0
  Ni  Ni1023  1  0.66666667  0.31319133  0.42209721  1.0
  Ni  Ni1024  1  0.66666667  0.64652467  0.42209721  1.0
  Ni  Ni1025  1  0.66666667  0.97985800  0.42209721  1.0
  Ni  Ni1026  1  0.00000000  0.02014200  0.35930093  1.0
  Ni  Ni1027  1  0.00000000  0.35347533  0.35930093  1.0
  Ni  Ni1028  1  0.00000000  0.68680867  0.35930093  1.0
  Ni  Ni1029  1  0.33333333  0.02014200  0.35930093  1.0
  Ni  Ni1030  1  0.33333333  0.35347533  0.35930093  1.0
  Ni  Ni1031  1  0.33333333  0.68680867  0.35930093  1.0
  Ni  Ni1032  1  0.66666667  0.02014200  0.35930093  1.0
  Ni  Ni1033  1  0.66666667  0.35347533  0.35930093  1.0
  Ni  Ni1034  1  0.66666667  0.68680867  0.35930093  1.0
  Ni  Ni1035  1  0.00000000  0.18680867  0.39501521  1.0
  Ni  Ni1036  1  0.00000000  0.52014200  0.39501521  1.0
  Ni  Ni1037  1  0.00000000  0.85347533  0.39501521  1.0
  Ni  Ni1038  1  0.33333333  0.18680867  0.39501521  1.0
  Ni  Ni1039  1  0.33333333  0.52014200  0.39501521  1.0
  Ni  Ni1040  1  0.33333333  0.85347533  0.39501521  1.0
  Ni  Ni1041  1  0.66666667  0.18680867  0.39501521  1.0
  Ni  Ni1042  1  0.66666667  0.52014200  0.39501521  1.0
  Ni  Ni1043  1  0.66666667  0.85347533  0.39501521  1.0
  Ni  Ni1044  1  0.00000000  0.10452717  0.37738346  1.0
  Ni  Ni1045  1  0.00000000  0.43786050  0.37738346  1.0
  Ni  Ni1046  1  0.00000000  0.77119383  0.37738346  1.0
  Ni  Ni1047  1  0.33333333  0.10452717  0.37738346  1.0
  Ni  Ni1048  1  0.33333333  0.43786050  0.37738346  1.0
  Ni  Ni1049  1  0.33333333  0.77119383  0.37738346  1.0
  Ni  Ni1050  1  0.66666667  0.10452717  0.37738346  1.0
  Ni  Ni1051  1  0.66666667  0.43786050  0.37738346  1.0
  Ni  Ni1052  1  0.66666667  0.77119383  0.37738346  1.0
  Ni  Ni1053  1  0.00000000  0.27119383  0.41309775  1.0
  Ni  Ni1054  1  0.00000000  0.60452717  0.41309775  1.0
  Ni  Ni1055  1  0.00000000  0.93786050  0.41309775  1.0
  Ni  Ni1056  1  0.33333333  0.27119383  0.41309775  1.0
  Ni  Ni1057  1  0.33333333  0.60452717  0.41309775  1.0
  Ni  Ni1058  1  0.33333333  0.93786050  0.41309775  1.0
  Ni  Ni1059  1  0.66666667  0.27119383  0.41309775  1.0
  Ni  Ni1060  1  0.66666667  0.60452717  0.41309775  1.0
  Ni  Ni1061  1  0.66666667  0.93786050  0.41309775  1.0
  Ni  Ni1062  1  0.11111111  0.08333333  0.37284193  1.0
  Ni  Ni1063  1  0.11111111  0.41666667  0.37284193  1.0
  Ni  Ni1064  1  0.11111111  0.75000000  0.37284193  1.0
  Ni  Ni1065  1  0.44444444  0.08333333  0.37284193  1.0
  Ni  Ni1066  1  0.44444444  0.41666667  0.37284193  1.0
  Ni  Ni1067  1  0.44444444  0.75000000  0.37284193  1.0
  Ni  Ni1068  1  0.77777778  0.08333333  0.37284193  1.0
  Ni  Ni1069  1  0.77777778  0.41666667  0.37284193  1.0
  Ni  Ni1070  1  0.77777778  0.75000000  0.37284193  1.0
  Ni  Ni1071  1  0.11111111  0.25000000  0.40855621  1.0
  Ni  Ni1072  1  0.11111111  0.58333333  0.40855621  1.0
  Ni  Ni1073  1  0.11111111  0.91666667  0.40855621  1.0
  Ni  Ni1074  1  0.44444444  0.25000000  0.40855621  1.0
  Ni  Ni1075  1  0.44444444  0.58333333  0.40855621  1.0
  Ni  Ni1076  1  0.44444444  0.91666667  0.40855621  1.0
  Ni  Ni1077  1  0.77777778  0.25000000  0.40855621  1.0
  Ni  Ni1078  1  0.77777778  0.58333333  0.40855621  1.0
  Ni  Ni1079  1  0.77777778  0.91666667  0.40855621  1.0
  Ni  Ni1080  1  0.22222222  0.04091533  0.36375236  1.0
  Ni  Ni1081  1  0.22222222  0.37424867  0.36375236  1.0
  Ni  Ni1082  1  0.22222222  0.70758200  0.36375236  1.0
  Ni  Ni1083  1  0.55555556  0.04091533  0.36375236  1.0
  Ni  Ni1084  1  0.55555556  0.37424867  0.36375236  1.0
  Ni  Ni1085  1  0.55555556  0.70758200  0.36375236  1.0
  Ni  Ni1086  1  0.88888889  0.04091533  0.36375236  1.0
  Ni  Ni1087  1  0.88888889  0.37424867  0.36375236  1.0
  Ni  Ni1088  1  0.88888889  0.70758200  0.36375236  1.0
  Ni  Ni1089  1  0.22222222  0.20758200  0.39946664  1.0
  Ni  Ni1090  1  0.22222222  0.54091533  0.39946664  1.0
  Ni  Ni1091  1  0.22222222  0.87424867  0.39946664  1.0
  Ni  Ni1092  1  0.55555556  0.20758200  0.39946664  1.0
  Ni  Ni1093  1  0.55555556  0.54091533  0.39946664  1.0
  Ni  Ni1094  1  0.55555556  0.87424867  0.39946664  1.0
  Ni  Ni1095  1  0.88888889  0.20758200  0.39946664  1.0
  Ni  Ni1096  1  0.88888889  0.54091533  0.39946664  1.0
  Ni  Ni1097  1  0.88888889  0.87424867  0.39946664  1.0
  Ni  Ni1098  1  0.22222222  0.12575133  0.38193150  1.0
  Ni  Ni1099  1  0.22222222  0.45908467  0.38193150  1.0
  Ni  Ni1100  1  0.22222222  0.79241800  0.38193150  1.0
  Ni  Ni1101  1  0.55555556  0.12575133  0.38193150  1.0
  Ni  Ni1102  1  0.55555556  0.45908467  0.38193150  1.0
  Ni  Ni1103  1  0.55555556  0.79241800  0.38193150  1.0
  Ni  Ni1104  1  0.88888889  0.12575133  0.38193150  1.0
  Ni  Ni1105  1  0.88888889  0.45908467  0.38193150  1.0
  Ni  Ni1106  1  0.88888889  0.79241800  0.38193150  1.0
  Ni  Ni1107  1  0.22222222  0.29241800  0.41764579  1.0
  Ni  Ni1108  1  0.22222222  0.62575133  0.41764579  1.0
  Ni  Ni1109  1  0.22222222  0.95908467  0.41764579  1.0
  Ni  Ni1110  1  0.55555556  0.29241800  0.41764579  1.0
  Ni  Ni1111  1  0.55555556  0.62575133  0.41764579  1.0
  Ni  Ni1112  1  0.55555556  0.95908467  0.41764579  1.0
  Ni  Ni1113  1  0.88888889  0.29241800  0.41764579  1.0
  Ni  Ni1114  1  0.88888889  0.62575133  0.41764579  1.0
  Ni  Ni1115  1  0.88888889  0.95908467  0.41764579  1.0
  Ge  Ge1116  1  0.11111111  0.04057683  0.36367982  1.0
  Ge  Ge1117  1  0.11111111  0.37391017  0.36367982  1.0
  Ge  Ge1118  1  0.11111111  0.70724350  0.36367982  1.0
  Ge  Ge1119  1  0.44444444  0.04057683  0.36367982  1.0
  Ge  Ge1120  1  0.44444444  0.37391017  0.36367982  1.0
  Ge  Ge1121  1  0.44444444  0.70724350  0.36367982  1.0
  Ge  Ge1122  1  0.77777778  0.04057683  0.36367982  1.0
  Ge  Ge1123  1  0.77777778  0.37391017  0.36367982  1.0
  Ge  Ge1124  1  0.77777778  0.70724350  0.36367982  1.0
  Ge  Ge1125  1  0.11111111  0.20724350  0.39939411  1.0
  Ge  Ge1126  1  0.11111111  0.54057683  0.39939411  1.0
  Ge  Ge1127  1  0.11111111  0.87391017  0.39939411  1.0
  Ge  Ge1128  1  0.44444444  0.20724350  0.39939411  1.0
  Ge  Ge1129  1  0.44444444  0.54057683  0.39939411  1.0
  Ge  Ge1130  1  0.44444444  0.87391017  0.39939411  1.0
  Ge  Ge1131  1  0.77777778  0.20724350  0.39939411  1.0
  Ge  Ge1132  1  0.77777778  0.54057683  0.39939411  1.0
  Ge  Ge1133  1  0.77777778  0.87391017  0.39939411  1.0
  Ge  Ge1134  1  0.11111111  0.12608983  0.38200404  1.0
  Ge  Ge1135  1  0.11111111  0.45942317  0.38200404  1.0
  Ge  Ge1136  1  0.11111111  0.79275650  0.38200404  1.0
  Ge  Ge1137  1  0.44444444  0.12608983  0.38200404  1.0
  Ge  Ge1138  1  0.44444444  0.45942317  0.38200404  1.0
  Ge  Ge1139  1  0.44444444  0.79275650  0.38200404  1.0
  Ge  Ge1140  1  0.77777778  0.12608983  0.38200404  1.0
  Ge  Ge1141  1  0.77777778  0.45942317  0.38200404  1.0
  Ge  Ge1142  1  0.77777778  0.79275650  0.38200404  1.0
  Ge  Ge1143  1  0.11111111  0.29275650  0.41771832  1.0
  Ge  Ge1144  1  0.11111111  0.62608983  0.41771832  1.0
  Ge  Ge1145  1  0.11111111  0.95942317  0.41771832  1.0
  Ge  Ge1146  1  0.44444444  0.29275650  0.41771832  1.0
  Ge  Ge1147  1  0.44444444  0.62608983  0.41771832  1.0
  Ge  Ge1148  1  0.44444444  0.95942317  0.41771832  1.0
  Ge  Ge1149  1  0.77777778  0.29275650  0.41771832  1.0
  Ge  Ge1150  1  0.77777778  0.62608983  0.41771832  1.0
  Ge  Ge1151  1  0.77777778  0.95942317  0.41771832  1.0
  Ge  Ge1152  1  0.22222222  0.00000000  0.42641336  1.0
  Ge  Ge1153  1  0.22222222  0.33333333  0.42641336  1.0
  Ge  Ge1154  1  0.22222222  0.66666667  0.42641336  1.0
  Ge  Ge1155  1  0.55555556  0.00000000  0.42641336  1.0
  Ge  Ge1156  1  0.55555556  0.33333333  0.42641336  1.0
  Ge  Ge1157  1  0.55555556  0.66666667  0.42641336  1.0
  Ge  Ge1158  1  0.88888889  0.00000000  0.42641336  1.0
  Ge  Ge1159  1  0.88888889  0.33333333  0.42641336  1.0
  Ge  Ge1160  1  0.88888889  0.66666667  0.42641336  1.0
  Ge  Ge1161  1  0.22222222  0.16666667  0.39069907  1.0
  Ge  Ge1162  1  0.22222222  0.50000000  0.39069907  1.0
  Ge  Ge1163  1  0.22222222  0.83333333  0.39069907  1.0
  Ge  Ge1164  1  0.55555556  0.16666667  0.39069907  1.0
  Ge  Ge1165  1  0.55555556  0.50000000  0.39069907  1.0
  Ge  Ge1166  1  0.55555556  0.83333333  0.39069907  1.0
  Ge  Ge1167  1  0.88888889  0.16666667  0.39069907  1.0
  Ge  Ge1168  1  0.88888889  0.50000000  0.39069907  1.0
  Ge  Ge1169  1  0.88888889  0.83333333  0.39069907  1.0
  Ge  Ge1170  1  0.22222222  0.08333333  0.37284193  1.0
  Ge  Ge1171  1  0.22222222  0.41666667  0.37284193  1.0
  Ge  Ge1172  1  0.22222222  0.75000000  0.37284193  1.0
  Ge  Ge1173  1  0.55555556  0.08333333  0.37284193  1.0
  Ge  Ge1174  1  0.55555556  0.41666667  0.37284193  1.0
  Ge  Ge1175  1  0.55555556  0.75000000  0.37284193  1.0
  Ge  Ge1176  1  0.88888889  0.08333333  0.37284193  1.0
  Ge  Ge1177  1  0.88888889  0.41666667  0.37284193  1.0
  Ge  Ge1178  1  0.88888889  0.75000000  0.37284193  1.0
  Ge  Ge1179  1  0.22222222  0.25000000  0.40855621  1.0
  Ge  Ge1180  1  0.22222222  0.58333333  0.40855621  1.0
  Ge  Ge1181  1  0.22222222  0.91666667  0.40855621  1.0
  Ge  Ge1182  1  0.55555556  0.25000000  0.40855621  1.0
  Ge  Ge1183  1  0.55555556  0.58333333  0.40855621  1.0
  Ge  Ge1184  1  0.55555556  0.91666667  0.40855621  1.0
  Ge  Ge1185  1  0.88888889  0.25000000  0.40855621  1.0
  Ge  Ge1186  1  0.88888889  0.58333333  0.40855621  1.0
  Ge  Ge1187  1  0.88888889  0.91666667  0.40855621  1.0
