# generated using pymatgen
data_Ni7Ge4
_symmetry_space_group_name_H-M   'P 1'
_cell_length_a   31.50633697
_cell_length_b   32.36125873
_cell_length_c   26.02926271
_cell_angle_alpha   81.93532462
_cell_angle_beta   86.69569482
_cell_angle_gamma   69.65282001
_symmetry_Int_Tables_number   1
_chemical_formula_structural   Ni7Ge4
_chemical_formula_sum   'Ni504 Ge288'
_cell_volume   24635.87342882
_cell_formula_units_Z   72
loop_
 _symmetry_equiv_pos_site_id
 _symmetry_equiv_pos_as_xyz
  1  'x, y, z'
loop_
 _atom_site_type_symbol
 _atom_site_label
 _atom_site_symmetry_multiplicity
 _atom_site_fract_x
 _atom_site_fract_y
 _atom_site_fract_z
 _atom_site_occupancy
  Ge  Ge0  1  0.32217796  0.08115367  0.91502298  1.0
  Ge  Ge1  1  0.32217796  0.41448700  0.91502298  1.0
  Ge  Ge2  1  0.32217796  0.74782033  0.91502298  1.0
  Ge  Ge3  1  0.65551129  0.08115367  0.91502298  1.0
  Ge  Ge4  1  0.65551129  0.41448700  0.91502298  1.0
  Ge  Ge5  1  0.65551129  0.74782033  0.91502298  1.0
  Ge  Ge6  1  0.98884463  0.08115367  0.91502298  1.0
  Ge  Ge7  1  0.98884463  0.41448700  0.91502298  1.0
  Ge  Ge8  1  0.98884463  0.74782033  0.91502298  1.0
  Ge  Ge9  1  0.10551129  0.08115367  0.96502298  1.0
  Ge  Ge10  1  0.10551129  0.41448700  0.96502298  1.0
  Ge  Ge11  1  0.10551129  0.74782033  0.96502298  1.0
  Ge  Ge12  1  0.43884463  0.08115367  0.96502298  1.0
  Ge  Ge13  1  0.43884463  0.41448700  0.96502298  1.0
  Ge  Ge14  1  0.43884463  0.74782033  0.96502298  1.0
  Ge  Ge15  1  0.77217796  0.08115367  0.96502298  1.0
  Ge  Ge16  1  0.77217796  0.41448700  0.96502298  1.0
  Ge  Ge17  1  0.77217796  0.74782033  0.96502298  1.0
  Ge  Ge18  1  0.16231886  0.25217967  0.98936908  1.0
  Ge  Ge19  1  0.16231886  0.58551300  0.98936908  1.0
  Ge  Ge20  1  0.16231886  0.91884633  0.98936908  1.0
  Ge  Ge21  1  0.49565219  0.25217967  0.98936908  1.0
  Ge  Ge22  1  0.49565219  0.58551300  0.98936908  1.0
  Ge  Ge23  1  0.49565219  0.91884633  0.98936908  1.0
  Ge  Ge24  1  0.82898553  0.25217967  0.98936908  1.0
  Ge  Ge25  1  0.82898553  0.58551300  0.98936908  1.0
  Ge  Ge26  1  0.82898553  0.91884633  0.98936908  1.0
  Ge  Ge27  1  0.04565219  0.25217967  0.93936908  1.0
  Ge  Ge28  1  0.04565219  0.58551300  0.93936908  1.0
  Ge  Ge29  1  0.04565219  0.91884633  0.93936908  1.0
  Ge  Ge30  1  0.37898553  0.25217967  0.93936908  1.0
  Ge  Ge31  1  0.37898553  0.58551300  0.93936908  1.0
  Ge  Ge32  1  0.37898553  0.91884633  0.93936908  1.0
  Ge  Ge33  1  0.71231886  0.25217967  0.93936908  1.0
  Ge  Ge34  1  0.71231886  0.58551300  0.93936908  1.0
  Ge  Ge35  1  0.71231886  0.91884633  0.93936908  1.0
  Ge  Ge36  1  0.27835952  0.33333333  0.94386270  1.0
  Ge  Ge37  1  0.27835952  0.66666667  0.94386270  1.0
  Ge  Ge38  1  0.27835952  1.00000000  0.94386270  1.0
  Ge  Ge39  1  0.61169286  0.33333333  0.94386270  1.0
  Ge  Ge40  1  0.61169286  0.66666667  0.94386270  1.0
  Ge  Ge41  1  0.61169286  1.00000000  0.94386270  1.0
  Ge  Ge42  1  0.94502619  0.33333333  0.94386270  1.0
  Ge  Ge43  1  0.94502619  0.66666667  0.94386270  1.0
  Ge  Ge44  1  0.94502619  1.00000000  0.94386270  1.0
  Ge  Ge45  1  0.06169286  0.00000000  0.99386270  1.0
  Ge  Ge46  1  0.06169286  0.33333333  0.99386270  1.0
  Ge  Ge47  1  0.06169286  0.66666667  0.99386270  1.0
  Ge  Ge48  1  0.39502619  0.00000000  0.99386270  1.0
  Ge  Ge49  1  0.39502619  0.33333333  0.99386270  1.0
  Ge  Ge50  1  0.39502619  0.66666667  0.99386270  1.0
  Ge  Ge51  1  0.72835952  0.00000000  0.99386270  1.0
  Ge  Ge52  1  0.72835952  0.33333333  0.99386270  1.0
  Ge  Ge53  1  0.72835952  0.66666667  0.99386270  1.0
  Ge  Ge54  1  0.22002619  0.16666667  0.91886270  1.0
  Ge  Ge55  1  0.22002619  0.50000000  0.91886270  1.0
  Ge  Ge56  1  0.22002619  0.83333333  0.91886270  1.0
  Ge  Ge57  1  0.55335952  0.16666667  0.91886270  1.0
  Ge  Ge58  1  0.55335952  0.50000000  0.91886270  1.0
  Ge  Ge59  1  0.55335952  0.83333333  0.91886270  1.0
  Ge  Ge60  1  0.88669286  0.16666667  0.91886270  1.0
  Ge  Ge61  1  0.88669286  0.50000000  0.91886270  1.0
  Ge  Ge62  1  0.88669286  0.83333333  0.91886270  1.0
  Ge  Ge63  1  0.00335952  0.16666667  0.96886270  1.0
  Ge  Ge64  1  0.00335952  0.50000000  0.96886270  1.0
  Ge  Ge65  1  0.00335952  0.83333333  0.96886270  1.0
  Ge  Ge66  1  0.33669286  0.16666667  0.96886270  1.0
  Ge  Ge67  1  0.33669286  0.50000000  0.96886270  1.0
  Ge  Ge68  1  0.33669286  0.83333333  0.96886270  1.0
  Ge  Ge69  1  0.67002619  0.16666667  0.96886270  1.0
  Ge  Ge70  1  0.67002619  0.50000000  0.96886270  1.0
  Ge  Ge71  1  0.67002619  0.83333333  0.96886270  1.0
  Ge  Ge72  1  0.08884463  0.08115367  0.81502298  1.0
  Ge  Ge73  1  0.08884463  0.41448700  0.81502298  1.0
  Ge  Ge74  1  0.08884463  0.74782033  0.81502298  1.0
  Ge  Ge75  1  0.42217796  0.08115367  0.81502298  1.0
  Ge  Ge76  1  0.42217796  0.41448700  0.81502298  1.0
  Ge  Ge77  1  0.42217796  0.74782033  0.81502298  1.0
  Ge  Ge78  1  0.75551129  0.08115367  0.81502298  1.0
  Ge  Ge79  1  0.75551129  0.41448700  0.81502298  1.0
  Ge  Ge80  1  0.75551129  0.74782033  0.81502298  1.0
  Ge  Ge81  1  0.20551129  0.08115367  0.86502298  1.0
  Ge  Ge82  1  0.20551129  0.41448700  0.86502298  1.0
  Ge  Ge83  1  0.20551129  0.74782033  0.86502298  1.0
  Ge  Ge84  1  0.53884463  0.08115367  0.86502298  1.0
  Ge  Ge85  1  0.53884463  0.41448700  0.86502298  1.0
  Ge  Ge86  1  0.53884463  0.74782033  0.86502298  1.0
  Ge  Ge87  1  0.87217796  0.08115367  0.86502298  1.0
  Ge  Ge88  1  0.87217796  0.41448700  0.86502298  1.0
  Ge  Ge89  1  0.87217796  0.74782033  0.86502298  1.0
  Ge  Ge90  1  0.26231886  0.25217967  0.88936908  1.0
  Ge  Ge91  1  0.26231886  0.58551300  0.88936908  1.0
  Ge  Ge92  1  0.26231886  0.91884633  0.88936908  1.0
  Ge  Ge93  1  0.59565219  0.25217967  0.88936908  1.0
  Ge  Ge94  1  0.59565219  0.58551300  0.88936908  1.0
  Ge  Ge95  1  0.59565219  0.91884633  0.88936908  1.0
  Ge  Ge96  1  0.92898553  0.25217967  0.88936908  1.0
  Ge  Ge97  1  0.92898553  0.58551300  0.88936908  1.0
  Ge  Ge98  1  0.92898553  0.91884633  0.88936908  1.0
  Ge  Ge99  1  0.14565219  0.25217967  0.83936908  1.0
  Ge  Ge100  1  0.14565219  0.58551300  0.83936908  1.0
  Ge  Ge101  1  0.14565219  0.91884633  0.83936908  1.0
  Ge  Ge102  1  0.47898553  0.25217967  0.83936908  1.0
  Ge  Ge103  1  0.47898553  0.58551300  0.83936908  1.0
  Ge  Ge104  1  0.47898553  0.91884633  0.83936908  1.0
  Ge  Ge105  1  0.81231886  0.25217967  0.83936908  1.0
  Ge  Ge106  1  0.81231886  0.58551300  0.83936908  1.0
  Ge  Ge107  1  0.81231886  0.91884633  0.83936908  1.0
  Ge  Ge108  1  0.04502619  0.00000000  0.84386270  1.0
  Ge  Ge109  1  0.04502619  0.33333333  0.84386270  1.0
  Ge  Ge110  1  0.04502619  0.66666667  0.84386270  1.0
  Ge  Ge111  1  0.37835952  0.00000000  0.84386270  1.0
  Ge  Ge112  1  0.37835952  0.33333333  0.84386270  1.0
  Ge  Ge113  1  0.37835952  0.66666667  0.84386270  1.0
  Ge  Ge114  1  0.71169286  0.00000000  0.84386270  1.0
  Ge  Ge115  1  0.71169286  0.33333333  0.84386270  1.0
  Ge  Ge116  1  0.71169286  0.66666667  0.84386270  1.0
  Ge  Ge117  1  0.16169286  0.00000000  0.89386270  1.0
  Ge  Ge118  1  0.16169286  0.33333333  0.89386270  1.0
  Ge  Ge119  1  0.16169286  0.66666667  0.89386270  1.0
  Ge  Ge120  1  0.49502619  0.00000000  0.89386270  1.0
  Ge  Ge121  1  0.49502619  0.33333333  0.89386270  1.0
  Ge  Ge122  1  0.49502619  0.66666667  0.89386270  1.0
  Ge  Ge123  1  0.82835952  0.00000000  0.89386270  1.0
  Ge  Ge124  1  0.82835952  0.33333333  0.89386270  1.0
  Ge  Ge125  1  0.82835952  0.66666667  0.89386270  1.0
  Ge  Ge126  1  0.32002619  0.16666667  0.81886270  1.0
  Ge  Ge127  1  0.32002619  0.50000000  0.81886270  1.0
  Ge  Ge128  1  0.32002619  0.83333333  0.81886270  1.0
  Ge  Ge129  1  0.65335952  0.16666667  0.81886270  1.0
  Ge  Ge130  1  0.65335952  0.50000000  0.81886270  1.0
  Ge  Ge131  1  0.65335952  0.83333333  0.81886270  1.0
  Ge  Ge132  1  0.98669286  0.16666667  0.81886270  1.0
  Ge  Ge133  1  0.98669286  0.50000000  0.81886270  1.0
  Ge  Ge134  1  0.98669286  0.83333333  0.81886270  1.0
  Ge  Ge135  1  0.10335952  0.16666667  0.86886270  1.0
  Ge  Ge136  1  0.10335952  0.50000000  0.86886270  1.0
  Ge  Ge137  1  0.10335952  0.83333333  0.86886270  1.0
  Ge  Ge138  1  0.43669286  0.16666667  0.86886270  1.0
  Ge  Ge139  1  0.43669286  0.50000000  0.86886270  1.0
  Ge  Ge140  1  0.43669286  0.83333333  0.86886270  1.0
  Ge  Ge141  1  0.77002619  0.16666667  0.86886270  1.0
  Ge  Ge142  1  0.77002619  0.50000000  0.86886270  1.0
  Ge  Ge143  1  0.77002619  0.83333333  0.86886270  1.0
  Ge  Ge144  1  0.18884463  0.08115367  0.71502298  1.0
  Ge  Ge145  1  0.18884463  0.41448700  0.71502298  1.0
  Ge  Ge146  1  0.18884463  0.74782033  0.71502298  1.0
  Ge  Ge147  1  0.52217796  0.08115367  0.71502298  1.0
  Ge  Ge148  1  0.52217796  0.41448700  0.71502298  1.0
  Ge  Ge149  1  0.52217796  0.74782033  0.71502298  1.0
  Ge  Ge150  1  0.85551129  0.08115367  0.71502298  1.0
  Ge  Ge151  1  0.85551129  0.41448700  0.71502298  1.0
  Ge  Ge152  1  0.85551129  0.74782033  0.71502298  1.0
  Ge  Ge153  1  0.30551129  0.08115367  0.76502298  1.0
  Ge  Ge154  1  0.30551129  0.41448700  0.76502298  1.0
  Ge  Ge155  1  0.30551129  0.74782033  0.76502298  1.0
  Ge  Ge156  1  0.63884463  0.08115367  0.76502298  1.0
  Ge  Ge157  1  0.63884463  0.41448700  0.76502298  1.0
  Ge  Ge158  1  0.63884463  0.74782033  0.76502298  1.0
  Ge  Ge159  1  0.97217796  0.08115367  0.76502298  1.0
  Ge  Ge160  1  0.97217796  0.41448700  0.76502298  1.0
  Ge  Ge161  1  0.97217796  0.74782033  0.76502298  1.0
  Ge  Ge162  1  0.02898553  0.25217967  0.78936908  1.0
  Ge  Ge163  1  0.02898553  0.58551300  0.78936908  1.0
  Ge  Ge164  1  0.02898553  0.91884633  0.78936908  1.0
  Ge  Ge165  1  0.36231886  0.25217967  0.78936908  1.0
  Ge  Ge166  1  0.36231886  0.58551300  0.78936908  1.0
  Ge  Ge167  1  0.36231886  0.91884633  0.78936908  1.0
  Ge  Ge168  1  0.69565219  0.25217967  0.78936908  1.0
  Ge  Ge169  1  0.69565219  0.58551300  0.78936908  1.0
  Ge  Ge170  1  0.69565219  0.91884633  0.78936908  1.0
  Ge  Ge171  1  0.24565219  0.25217967  0.73936908  1.0
  Ge  Ge172  1  0.24565219  0.58551300  0.73936908  1.0
  Ge  Ge173  1  0.24565219  0.91884633  0.73936908  1.0
  Ge  Ge174  1  0.57898553  0.25217967  0.73936908  1.0
  Ge  Ge175  1  0.57898553  0.58551300  0.73936908  1.0
  Ge  Ge176  1  0.57898553  0.91884633  0.73936908  1.0
  Ge  Ge177  1  0.91231886  0.25217967  0.73936908  1.0
  Ge  Ge178  1  0.91231886  0.58551300  0.73936908  1.0
  Ge  Ge179  1  0.91231886  0.91884633  0.73936908  1.0
  Ge  Ge180  1  0.14502619  0.00000000  0.74386270  1.0
  Ge  Ge181  1  0.14502619  0.33333333  0.74386270  1.0
  Ge  Ge182  1  0.14502619  0.66666667  0.74386270  1.0
  Ge  Ge183  1  0.47835952  0.00000000  0.74386270  1.0
  Ge  Ge184  1  0.47835952  0.33333333  0.74386270  1.0
  Ge  Ge185  1  0.47835952  0.66666667  0.74386270  1.0
  Ge  Ge186  1  0.81169286  0.00000000  0.74386270  1.0
  Ge  Ge187  1  0.81169286  0.33333333  0.74386270  1.0
  Ge  Ge188  1  0.81169286  0.66666667  0.74386270  1.0
  Ge  Ge189  1  0.26169286  0.00000000  0.79386270  1.0
  Ge  Ge190  1  0.26169286  0.33333333  0.79386270  1.0
  Ge  Ge191  1  0.26169286  0.66666667  0.79386270  1.0
  Ge  Ge192  1  0.59502619  0.00000000  0.79386270  1.0
  Ge  Ge193  1  0.59502619  0.33333333  0.79386270  1.0
  Ge  Ge194  1  0.59502619  0.66666667  0.79386270  1.0
  Ge  Ge195  1  0.92835952  0.00000000  0.79386270  1.0
  Ge  Ge196  1  0.92835952  0.33333333  0.79386270  1.0
  Ge  Ge197  1  0.92835952  0.66666667  0.79386270  1.0
  Ge  Ge198  1  0.08669286  0.16666667  0.71886270  1.0
  Ge  Ge199  1  0.08669286  0.50000000  0.71886270  1.0
  Ge  Ge200  1  0.08669286  0.83333333  0.71886270  1.0
  Ge  Ge201  1  0.42002619  0.16666667  0.71886270  1.0
  Ge  Ge202  1  0.42002619  0.50000000  0.71886270  1.0
  Ge  Ge203  1  0.42002619  0.83333333  0.71886270  1.0
  Ge  Ge204  1  0.75335952  0.16666667  0.71886270  1.0
  Ge  Ge205  1  0.75335952  0.50000000  0.71886270  1.0
  Ge  Ge206  1  0.75335952  0.83333333  0.71886270  1.0
  Ge  Ge207  1  0.20335952  0.16666667  0.76886270  1.0
  Ge  Ge208  1  0.20335952  0.50000000  0.76886270  1.0
  Ge  Ge209  1  0.20335952  0.83333333  0.76886270  1.0
  Ge  Ge210  1  0.53669286  0.16666667  0.76886270  1.0
  Ge  Ge211  1  0.53669286  0.50000000  0.76886270  1.0
  Ge  Ge212  1  0.53669286  0.83333333  0.76886270  1.0
  Ge  Ge213  1  0.87002619  0.16666667  0.76886270  1.0
  Ge  Ge214  1  0.87002619  0.50000000  0.76886270  1.0
  Ge  Ge215  1  0.87002619  0.83333333  0.76886270  1.0
  Ge  Ge216  1  0.28884463  0.08115367  0.61502298  1.0
  Ge  Ge217  1  0.28884463  0.41448700  0.61502298  1.0
  Ge  Ge218  1  0.28884463  0.74782033  0.61502298  1.0
  Ge  Ge219  1  0.62217796  0.08115367  0.61502298  1.0
  Ge  Ge220  1  0.62217796  0.41448700  0.61502298  1.0
  Ge  Ge221  1  0.62217796  0.74782033  0.61502298  1.0
  Ge  Ge222  1  0.95551129  0.08115367  0.61502298  1.0
  Ge  Ge223  1  0.95551129  0.41448700  0.61502298  1.0
  Ge  Ge224  1  0.95551129  0.74782033  0.61502298  1.0
  Ge  Ge225  1  0.07217796  0.08115367  0.66502298  1.0
  Ge  Ge226  1  0.07217796  0.41448700  0.66502298  1.0
  Ge  Ge227  1  0.07217796  0.74782033  0.66502298  1.0
  Ge  Ge228  1  0.40551129  0.08115367  0.66502298  1.0
  Ge  Ge229  1  0.40551129  0.41448700  0.66502298  1.0
  Ge  Ge230  1  0.40551129  0.74782033  0.66502298  1.0
  Ge  Ge231  1  0.73884463  0.08115367  0.66502298  1.0
  Ge  Ge232  1  0.73884463  0.41448700  0.66502298  1.0
  Ge  Ge233  1  0.73884463  0.74782033  0.66502298  1.0
  Ge  Ge234  1  0.12898553  0.25217967  0.68936908  1.0
  Ge  Ge235  1  0.12898553  0.58551300  0.68936908  1.0
  Ge  Ge236  1  0.12898553  0.91884633  0.68936908  1.0
  Ge  Ge237  1  0.46231886  0.25217967  0.68936908  1.0
  Ge  Ge238  1  0.46231886  0.58551300  0.68936908  1.0
  Ge  Ge239  1  0.46231886  0.91884633  0.68936908  1.0
  Ge  Ge240  1  0.79565219  0.25217967  0.68936908  1.0
  Ge  Ge241  1  0.79565219  0.58551300  0.68936908  1.0
  Ge  Ge242  1  0.79565219  0.91884633  0.68936908  1.0
  Ge  Ge243  1  0.01231886  0.25217967  0.63936908  1.0
  Ge  Ge244  1  0.01231886  0.58551300  0.63936908  1.0
  Ge  Ge245  1  0.01231886  0.91884633  0.63936908  1.0
  Ge  Ge246  1  0.34565219  0.25217967  0.63936908  1.0
  Ge  Ge247  1  0.34565219  0.58551300  0.63936908  1.0
  Ge  Ge248  1  0.34565219  0.91884633  0.63936908  1.0
  Ge  Ge249  1  0.67898553  0.25217967  0.63936908  1.0
  Ge  Ge250  1  0.67898553  0.58551300  0.63936908  1.0
  Ge  Ge251  1  0.67898553  0.91884633  0.63936908  1.0
  Ge  Ge252  1  0.24502619  0.00000000  0.64386270  1.0
  Ge  Ge253  1  0.24502619  0.33333333  0.64386270  1.0
  Ge  Ge254  1  0.24502619  0.66666667  0.64386270  1.0
  Ge  Ge255  1  0.57835952  0.00000000  0.64386270  1.0
  Ge  Ge256  1  0.57835952  0.33333333  0.64386270  1.0
  Ge  Ge257  1  0.57835952  0.66666667  0.64386270  1.0
  Ge  Ge258  1  0.91169286  0.00000000  0.64386270  1.0
  Ge  Ge259  1  0.91169286  0.33333333  0.64386270  1.0
  Ge  Ge260  1  0.91169286  0.66666667  0.64386270  1.0
  Ge  Ge261  1  0.02835952  0.00000000  0.69386270  1.0
  Ge  Ge262  1  0.02835952  0.33333333  0.69386270  1.0
  Ge  Ge263  1  0.02835952  0.66666667  0.69386270  1.0
  Ge  Ge264  1  0.36169286  0.00000000  0.69386270  1.0
  Ge  Ge265  1  0.36169286  0.33333333  0.69386270  1.0
  Ge  Ge266  1  0.36169286  0.66666667  0.69386270  1.0
  Ge  Ge267  1  0.69502619  0.00000000  0.69386270  1.0
  Ge  Ge268  1  0.69502619  0.33333333  0.69386270  1.0
  Ge  Ge269  1  0.69502619  0.66666667  0.69386270  1.0
  Ge  Ge270  1  0.18669286  0.16666667  0.61886270  1.0
  Ge  Ge271  1  0.18669286  0.50000000  0.61886270  1.0
  Ge  Ge272  1  0.18669286  0.83333333  0.61886270  1.0
  Ge  Ge273  1  0.52002619  0.16666667  0.61886270  1.0
  Ge  Ge274  1  0.52002619  0.50000000  0.61886270  1.0
  Ge  Ge275  1  0.52002619  0.83333333  0.61886270  1.0
  Ge  Ge276  1  0.85335952  0.16666667  0.61886270  1.0
  Ge  Ge277  1  0.85335952  0.50000000  0.61886270  1.0
  Ge  Ge278  1  0.85335952  0.83333333  0.61886270  1.0
  Ge  Ge279  1  0.30335952  0.16666667  0.66886270  1.0
  Ge  Ge280  1  0.30335952  0.50000000  0.66886270  1.0
  Ge  Ge281  1  0.30335952  0.83333333  0.66886270  1.0
  Ge  Ge282  1  0.63669286  0.16666667  0.66886270  1.0
  Ge  Ge283  1  0.63669286  0.50000000  0.66886270  1.0
  Ge  Ge284  1  0.63669286  0.83333333  0.66886270  1.0
  Ge  Ge285  1  0.97002619  0.16666667  0.66886270  1.0
  Ge  Ge286  1  0.97002619  0.50000000  0.66886270  1.0
  Ge  Ge287  1  0.97002619  0.83333333  0.66886270  1.0
  Ni  Ni288  1  0.27930632  0.12427900  0.99188752  1.0
  Ni  Ni289  1  0.27930632  0.45761233  0.99188752  1.0
  Ni  Ni290  1  0.27930632  0.79094567  0.99188752  1.0
  Ni  Ni291  1  0.61263965  0.12427900  0.99188752  1.0
  Ni  Ni292  1  0.61263965  0.45761233  0.99188752  1.0
  Ni  Ni293  1  0.61263965  0.79094567  0.99188752  1.0
  Ni  Ni294  1  0.94597298  0.12427900  0.99188752  1.0
  Ni  Ni295  1  0.94597298  0.45761233  0.99188752  1.0
  Ni  Ni296  1  0.94597298  0.79094567  0.99188752  1.0
  Ni  Ni297  1  0.16263965  0.12427900  0.94188752  1.0
  Ni  Ni298  1  0.16263965  0.45761233  0.94188752  1.0
  Ni  Ni299  1  0.16263965  0.79094567  0.94188752  1.0
  Ni  Ni300  1  0.49597298  0.12427900  0.94188752  1.0
  Ni  Ni301  1  0.49597298  0.45761233  0.94188752  1.0
  Ni  Ni302  1  0.49597298  0.79094567  0.94188752  1.0
  Ni  Ni303  1  0.82930632  0.12427900  0.94188752  1.0
  Ni  Ni304  1  0.82930632  0.45761233  0.94188752  1.0
  Ni  Ni305  1  0.82930632  0.79094567  0.94188752  1.0
  Ni  Ni306  1  0.22023670  0.29304933  0.96657197  1.0
  Ni  Ni307  1  0.22023670  0.62638267  0.96657197  1.0
  Ni  Ni308  1  0.22023670  0.95971600  0.96657197  1.0
  Ni  Ni309  1  0.55357003  0.29304933  0.96657197  1.0
  Ni  Ni310  1  0.55357003  0.62638267  0.96657197  1.0
  Ni  Ni311  1  0.55357003  0.95971600  0.96657197  1.0
  Ni  Ni312  1  0.88690337  0.29304933  0.96657197  1.0
  Ni  Ni313  1  0.88690337  0.62638267  0.96657197  1.0
  Ni  Ni314  1  0.88690337  0.95971600  0.96657197  1.0
  Ni  Ni315  1  0.10357003  0.29304933  0.91657197  1.0
  Ni  Ni316  1  0.10357003  0.62638267  0.91657197  1.0
  Ni  Ni317  1  0.10357003  0.95971600  0.91657197  1.0
  Ni  Ni318  1  0.43690337  0.29304933  0.91657197  1.0
  Ni  Ni319  1  0.43690337  0.62638267  0.91657197  1.0
  Ni  Ni320  1  0.43690337  0.95971600  0.91657197  1.0
  Ni  Ni321  1  0.77023670  0.29304933  0.91657197  1.0
  Ni  Ni322  1  0.77023670  0.62638267  0.91657197  1.0
  Ni  Ni323  1  0.77023670  0.95971600  0.91657197  1.0
  Ni  Ni324  1  0.07537123  0.04028400  0.90448677  1.0
  Ni  Ni325  1  0.07537123  0.37361733  0.90448677  1.0
  Ni  Ni326  1  0.07537123  0.70695067  0.90448677  1.0
  Ni  Ni327  1  0.40870457  0.04028400  0.90448677  1.0
  Ni  Ni328  1  0.40870457  0.37361733  0.90448677  1.0
  Ni  Ni329  1  0.40870457  0.70695067  0.90448677  1.0
  Ni  Ni330  1  0.74203790  0.04028400  0.90448677  1.0
  Ni  Ni331  1  0.74203790  0.37361733  0.90448677  1.0
  Ni  Ni332  1  0.74203790  0.70695067  0.90448677  1.0
  Ni  Ni333  1  0.19203790  0.04028400  0.95448677  1.0
  Ni  Ni334  1  0.19203790  0.37361733  0.95448677  1.0
  Ni  Ni335  1  0.19203790  0.70695067  0.95448677  1.0
  Ni  Ni336  1  0.52537123  0.04028400  0.95448677  1.0
  Ni  Ni337  1  0.52537123  0.37361733  0.95448677  1.0
  Ni  Ni338  1  0.52537123  0.70695067  0.95448677  1.0
  Ni  Ni339  1  0.85870457  0.04028400  0.95448677  1.0
  Ni  Ni340  1  0.85870457  0.37361733  0.95448677  1.0
  Ni  Ni341  1  0.85870457  0.70695067  0.95448677  1.0
  Ni  Ni342  1  0.24963495  0.20905433  0.97917122  1.0
  Ni  Ni343  1  0.24963495  0.54238767  0.97917122  1.0
  Ni  Ni344  1  0.24963495  0.87572100  0.97917122  1.0
  Ni  Ni345  1  0.58296828  0.20905433  0.97917122  1.0
  Ni  Ni346  1  0.58296828  0.54238767  0.97917122  1.0
  Ni  Ni347  1  0.58296828  0.87572100  0.97917122  1.0
  Ni  Ni348  1  0.91630162  0.20905433  0.97917122  1.0
  Ni  Ni349  1  0.91630162  0.54238767  0.97917122  1.0
  Ni  Ni350  1  0.91630162  0.87572100  0.97917122  1.0
  Ni  Ni351  1  0.13296828  0.20905433  0.92917122  1.0
  Ni  Ni352  1  0.13296828  0.54238767  0.92917122  1.0
  Ni  Ni353  1  0.13296828  0.87572100  0.92917122  1.0
  Ni  Ni354  1  0.46630162  0.20905433  0.92917122  1.0
  Ni  Ni355  1  0.46630162  0.54238767  0.92917122  1.0
  Ni  Ni356  1  0.46630162  0.87572100  0.92917122  1.0
  Ni  Ni357  1  0.79963495  0.20905433  0.92917122  1.0
  Ni  Ni358  1  0.79963495  0.54238767  0.92917122  1.0
  Ni  Ni359  1  0.79963495  0.87572100  0.92917122  1.0
  Ni  Ni360  1  0.29224841  0.16666667  0.90219603  1.0
  Ni  Ni361  1  0.29224841  0.50000000  0.90219603  1.0
  Ni  Ni362  1  0.29224841  0.83333333  0.90219603  1.0
  Ni  Ni363  1  0.62558174  0.16666667  0.90219603  1.0
  Ni  Ni364  1  0.62558174  0.50000000  0.90219603  1.0
  Ni  Ni365  1  0.62558174  0.83333333  0.90219603  1.0
  Ni  Ni366  1  0.95891508  0.16666667  0.90219603  1.0
  Ni  Ni367  1  0.95891508  0.50000000  0.90219603  1.0
  Ni  Ni368  1  0.95891508  0.83333333  0.90219603  1.0
  Ni  Ni369  1  0.07558174  0.16666667  0.95219603  1.0
  Ni  Ni370  1  0.07558174  0.50000000  0.95219603  1.0
  Ni  Ni371  1  0.07558174  0.83333333  0.95219603  1.0
  Ni  Ni372  1  0.40891508  0.16666667  0.95219603  1.0
  Ni  Ni373  1  0.40891508  0.50000000  0.95219603  1.0
  Ni  Ni374  1  0.40891508  0.83333333  0.95219603  1.0
  Ni  Ni375  1  0.74224841  0.16666667  0.95219603  1.0
  Ni  Ni376  1  0.74224841  0.50000000  0.95219603  1.0
  Ni  Ni377  1  0.74224841  0.83333333  0.95219603  1.0
  Ni  Ni378  1  0.24971879  0.08183067  0.93158810  1.0
  Ni  Ni379  1  0.24971879  0.41516400  0.93158810  1.0
  Ni  Ni380  1  0.24971879  0.74849733  0.93158810  1.0
  Ni  Ni381  1  0.58305212  0.08183067  0.93158810  1.0
  Ni  Ni382  1  0.58305212  0.41516400  0.93158810  1.0
  Ni  Ni383  1  0.58305212  0.74849733  0.93158810  1.0
  Ni  Ni384  1  0.91638546  0.08183067  0.93158810  1.0
  Ni  Ni385  1  0.91638546  0.41516400  0.93158810  1.0
  Ni  Ni386  1  0.91638546  0.74849733  0.93158810  1.0
  Ni  Ni387  1  0.03305212  0.08183067  0.98158810  1.0
  Ni  Ni388  1  0.03305212  0.41516400  0.98158810  1.0
  Ni  Ni389  1  0.03305212  0.74849733  0.98158810  1.0
  Ni  Ni390  1  0.36638546  0.08183067  0.98158810  1.0
  Ni  Ni391  1  0.36638546  0.41516400  0.98158810  1.0
  Ni  Ni392  1  0.36638546  0.74849733  0.98158810  1.0
  Ni  Ni393  1  0.69971879  0.08183067  0.98158810  1.0
  Ni  Ni394  1  0.69971879  0.41516400  0.98158810  1.0
  Ni  Ni395  1  0.69971879  0.74849733  0.98158810  1.0
  Ni  Ni396  1  0.19033359  0.25150267  0.90613730  1.0
  Ni  Ni397  1  0.19033359  0.58483600  0.90613730  1.0
  Ni  Ni398  1  0.19033359  0.91816933  0.90613730  1.0
  Ni  Ni399  1  0.52366692  0.25150267  0.90613730  1.0
  Ni  Ni400  1  0.52366692  0.58483600  0.90613730  1.0
  Ni  Ni401  1  0.52366692  0.91816933  0.90613730  1.0
  Ni  Ni402  1  0.85700026  0.25150267  0.90613730  1.0
  Ni  Ni403  1  0.85700026  0.58483600  0.90613730  1.0
  Ni  Ni404  1  0.85700026  0.91816933  0.90613730  1.0
  Ni  Ni405  1  0.30700026  0.25150267  0.95613730  1.0
  Ni  Ni406  1  0.30700026  0.58483600  0.95613730  1.0
  Ni  Ni407  1  0.30700026  0.91816933  0.95613730  1.0
  Ni  Ni408  1  0.64033359  0.25150267  0.95613730  1.0
  Ni  Ni409  1  0.64033359  0.58483600  0.95613730  1.0
  Ni  Ni410  1  0.64033359  0.91816933  0.95613730  1.0
  Ni  Ni411  1  0.97366692  0.25150267  0.95613730  1.0
  Ni  Ni412  1  0.97366692  0.58483600  0.95613730  1.0
  Ni  Ni413  1  0.97366692  0.91816933  0.95613730  1.0
  Ni  Ni414  1  0.04597298  0.12427900  0.89188752  1.0
  Ni  Ni415  1  0.04597298  0.45761233  0.89188752  1.0
  Ni  Ni416  1  0.04597298  0.79094567  0.89188752  1.0
  Ni  Ni417  1  0.37930632  0.12427900  0.89188752  1.0
  Ni  Ni418  1  0.37930632  0.45761233  0.89188752  1.0
  Ni  Ni419  1  0.37930632  0.79094567  0.89188752  1.0
  Ni  Ni420  1  0.71263965  0.12427900  0.89188752  1.0
  Ni  Ni421  1  0.71263965  0.45761233  0.89188752  1.0
  Ni  Ni422  1  0.71263965  0.79094567  0.89188752  1.0
  Ni  Ni423  1  0.26263965  0.12427900  0.84188752  1.0
  Ni  Ni424  1  0.26263965  0.45761233  0.84188752  1.0
  Ni  Ni425  1  0.26263965  0.79094567  0.84188752  1.0
  Ni  Ni426  1  0.59597298  0.12427900  0.84188752  1.0
  Ni  Ni427  1  0.59597298  0.45761233  0.84188752  1.0
  Ni  Ni428  1  0.59597298  0.79094567  0.84188752  1.0
  Ni  Ni429  1  0.92930632  0.12427900  0.84188752  1.0
  Ni  Ni430  1  0.92930632  0.45761233  0.84188752  1.0
  Ni  Ni431  1  0.92930632  0.79094567  0.84188752  1.0
  Ni  Ni432  1  0.32023670  0.29304933  0.86657197  1.0
  Ni  Ni433  1  0.32023670  0.62638267  0.86657197  1.0
  Ni  Ni434  1  0.32023670  0.95971600  0.86657197  1.0
  Ni  Ni435  1  0.65357003  0.29304933  0.86657197  1.0
  Ni  Ni436  1  0.65357003  0.62638267  0.86657197  1.0
  Ni  Ni437  1  0.65357003  0.95971600  0.86657197  1.0
  Ni  Ni438  1  0.98690337  0.29304933  0.86657197  1.0
  Ni  Ni439  1  0.98690337  0.62638267  0.86657197  1.0
  Ni  Ni440  1  0.98690337  0.95971600  0.86657197  1.0
  Ni  Ni441  1  0.20357003  0.29304933  0.81657197  1.0
  Ni  Ni442  1  0.20357003  0.62638267  0.81657197  1.0
  Ni  Ni443  1  0.20357003  0.95971600  0.81657197  1.0
  Ni  Ni444  1  0.53690337  0.29304933  0.81657197  1.0
  Ni  Ni445  1  0.53690337  0.62638267  0.81657197  1.0
  Ni  Ni446  1  0.53690337  0.95971600  0.81657197  1.0
  Ni  Ni447  1  0.87023670  0.29304933  0.81657197  1.0
  Ni  Ni448  1  0.87023670  0.62638267  0.81657197  1.0
  Ni  Ni449  1  0.87023670  0.95971600  0.81657197  1.0
  Ni  Ni450  1  0.17537123  0.04028400  0.80448677  1.0
  Ni  Ni451  1  0.17537123  0.37361733  0.80448677  1.0
  Ni  Ni452  1  0.17537123  0.70695067  0.80448677  1.0
  Ni  Ni453  1  0.50870457  0.04028400  0.80448677  1.0
  Ni  Ni454  1  0.50870457  0.37361733  0.80448677  1.0
  Ni  Ni455  1  0.50870457  0.70695067  0.80448677  1.0
  Ni  Ni456  1  0.84203790  0.04028400  0.80448677  1.0
  Ni  Ni457  1  0.84203790  0.37361733  0.80448677  1.0
  Ni  Ni458  1  0.84203790  0.70695067  0.80448677  1.0
  Ni  Ni459  1  0.29203790  0.04028400  0.85448677  1.0
  Ni  Ni460  1  0.29203790  0.37361733  0.85448677  1.0
  Ni  Ni461  1  0.29203790  0.70695067  0.85448677  1.0
  Ni  Ni462  1  0.62537123  0.04028400  0.85448677  1.0
  Ni  Ni463  1  0.62537123  0.37361733  0.85448677  1.0
  Ni  Ni464  1  0.62537123  0.70695067  0.85448677  1.0
  Ni  Ni465  1  0.95870457  0.04028400  0.85448677  1.0
  Ni  Ni466  1  0.95870457  0.37361733  0.85448677  1.0
  Ni  Ni467  1  0.95870457  0.70695067  0.85448677  1.0
  Ni  Ni468  1  0.01630162  0.20905433  0.87917122  1.0
  Ni  Ni469  1  0.01630162  0.54238767  0.87917122  1.0
  Ni  Ni470  1  0.01630162  0.87572100  0.87917122  1.0
  Ni  Ni471  1  0.34963495  0.20905433  0.87917122  1.0
  Ni  Ni472  1  0.34963495  0.54238767  0.87917122  1.0
  Ni  Ni473  1  0.34963495  0.87572100  0.87917122  1.0
  Ni  Ni474  1  0.68296828  0.20905433  0.87917122  1.0
  Ni  Ni475  1  0.68296828  0.54238767  0.87917122  1.0
  Ni  Ni476  1  0.68296828  0.87572100  0.87917122  1.0
  Ni  Ni477  1  0.23296828  0.20905433  0.82917122  1.0
  Ni  Ni478  1  0.23296828  0.54238767  0.82917122  1.0
  Ni  Ni479  1  0.23296828  0.87572100  0.82917122  1.0
  Ni  Ni480  1  0.56630162  0.20905433  0.82917122  1.0
  Ni  Ni481  1  0.56630162  0.54238767  0.82917122  1.0
  Ni  Ni482  1  0.56630162  0.87572100  0.82917122  1.0
  Ni  Ni483  1  0.89963495  0.20905433  0.82917122  1.0
  Ni  Ni484  1  0.89963495  0.54238767  0.82917122  1.0
  Ni  Ni485  1  0.89963495  0.87572100  0.82917122  1.0
  Ni  Ni486  1  0.05891508  0.16666667  0.80219603  1.0
  Ni  Ni487  1  0.05891508  0.50000000  0.80219603  1.0
  Ni  Ni488  1  0.05891508  0.83333333  0.80219603  1.0
  Ni  Ni489  1  0.39224841  0.16666667  0.80219603  1.0
  Ni  Ni490  1  0.39224841  0.50000000  0.80219603  1.0
  Ni  Ni491  1  0.39224841  0.83333333  0.80219603  1.0
  Ni  Ni492  1  0.72558174  0.16666667  0.80219603  1.0
  Ni  Ni493  1  0.72558174  0.50000000  0.80219603  1.0
  Ni  Ni494  1  0.72558174  0.83333333  0.80219603  1.0
  Ni  Ni495  1  0.17558174  0.16666667  0.85219603  1.0
  Ni  Ni496  1  0.17558174  0.50000000  0.85219603  1.0
  Ni  Ni497  1  0.17558174  0.83333333  0.85219603  1.0
  Ni  Ni498  1  0.50891508  0.16666667  0.85219603  1.0
  Ni  Ni499  1  0.50891508  0.50000000  0.85219603  1.0
  Ni  Ni500  1  0.50891508  0.83333333  0.85219603  1.0
  Ni  Ni501  1  0.84224841  0.16666667  0.85219603  1.0
  Ni  Ni502  1  0.84224841  0.50000000  0.85219603  1.0
  Ni  Ni503  1  0.84224841  0.83333333  0.85219603  1.0
  Ni  Ni504  1  0.01638546  0.08183067  0.83158810  1.0
  Ni  Ni505  1  0.01638546  0.41516400  0.83158810  1.0
  Ni  Ni506  1  0.01638546  0.74849733  0.83158810  1.0
  Ni  Ni507  1  0.34971879  0.08183067  0.83158810  1.0
  Ni  Ni508  1  0.34971879  0.41516400  0.83158810  1.0
  Ni  Ni509  1  0.34971879  0.74849733  0.83158810  1.0
  Ni  Ni510  1  0.68305212  0.08183067  0.83158810  1.0
  Ni  Ni511  1  0.68305212  0.41516400  0.83158810  1.0
  Ni  Ni512  1  0.68305212  0.74849733  0.83158810  1.0
  Ni  Ni513  1  0.13305212  0.08183067  0.88158810  1.0
  Ni  Ni514  1  0.13305212  0.41516400  0.88158810  1.0
  Ni  Ni515  1  0.13305212  0.74849733  0.88158810  1.0
  Ni  Ni516  1  0.46638546  0.08183067  0.88158810  1.0
  Ni  Ni517  1  0.46638546  0.41516400  0.88158810  1.0
  Ni  Ni518  1  0.46638546  0.74849733  0.88158810  1.0
  Ni  Ni519  1  0.79971879  0.08183067  0.88158810  1.0
  Ni  Ni520  1  0.79971879  0.41516400  0.88158810  1.0
  Ni  Ni521  1  0.79971879  0.74849733  0.88158810  1.0
  Ni  Ni522  1  0.29033359  0.25150267  0.80613730  1.0
  Ni  Ni523  1  0.29033359  0.58483600  0.80613730  1.0
  Ni  Ni524  1  0.29033359  0.91816933  0.80613730  1.0
  Ni  Ni525  1  0.62366692  0.25150267  0.80613730  1.0
  Ni  Ni526  1  0.62366692  0.58483600  0.80613730  1.0
  Ni  Ni527  1  0.62366692  0.91816933  0.80613730  1.0
  Ni  Ni528  1  0.95700026  0.25150267  0.80613730  1.0
  Ni  Ni529  1  0.95700026  0.58483600  0.80613730  1.0
  Ni  Ni530  1  0.95700026  0.91816933  0.80613730  1.0
  Ni  Ni531  1  0.07366692  0.25150267  0.85613730  1.0
  Ni  Ni532  1  0.07366692  0.58483600  0.85613730  1.0
  Ni  Ni533  1  0.07366692  0.91816933  0.85613730  1.0
  Ni  Ni534  1  0.40700026  0.25150267  0.85613730  1.0
  Ni  Ni535  1  0.40700026  0.58483600  0.85613730  1.0
  Ni  Ni536  1  0.40700026  0.91816933  0.85613730  1.0
  Ni  Ni537  1  0.74033359  0.25150267  0.85613730  1.0
  Ni  Ni538  1  0.74033359  0.58483600  0.85613730  1.0
  Ni  Ni539  1  0.74033359  0.91816933  0.85613730  1.0
  Ni  Ni540  1  0.14597298  0.12427900  0.79188752  1.0
  Ni  Ni541  1  0.14597298  0.45761233  0.79188752  1.0
  Ni  Ni542  1  0.14597298  0.79094567  0.79188752  1.0
  Ni  Ni543  1  0.47930632  0.12427900  0.79188752  1.0
  Ni  Ni544  1  0.47930632  0.45761233  0.79188752  1.0
  Ni  Ni545  1  0.47930632  0.79094567  0.79188752  1.0
  Ni  Ni546  1  0.81263965  0.12427900  0.79188752  1.0
  Ni  Ni547  1  0.81263965  0.45761233  0.79188752  1.0
  Ni  Ni548  1  0.81263965  0.79094567  0.79188752  1.0
  Ni  Ni549  1  0.02930632  0.12427900  0.74188752  1.0
  Ni  Ni550  1  0.02930632  0.45761233  0.74188752  1.0
  Ni  Ni551  1  0.02930632  0.79094567  0.74188752  1.0
  Ni  Ni552  1  0.36263965  0.12427900  0.74188752  1.0
  Ni  Ni553  1  0.36263965  0.45761233  0.74188752  1.0
  Ni  Ni554  1  0.36263965  0.79094567  0.74188752  1.0
  Ni  Ni555  1  0.69597298  0.12427900  0.74188752  1.0
  Ni  Ni556  1  0.69597298  0.45761233  0.74188752  1.0
  Ni  Ni557  1  0.69597298  0.79094567  0.74188752  1.0
  Ni  Ni558  1  0.08690337  0.29304933  0.76657197  1.0
  Ni  Ni559  1  0.08690337  0.62638267  0.76657197  1.0
  Ni  Ni560  1  0.08690337  0.95971600  0.76657197  1.0
  Ni  Ni561  1  0.42023670  0.29304933  0.76657197  1.0
  Ni  Ni562  1  0.42023670  0.62638267  0.76657197  1.0
  Ni  Ni563  1  0.42023670  0.95971600  0.76657197  1.0
  Ni  Ni564  1  0.75357003  0.29304933  0.76657197  1.0
  Ni  Ni565  1  0.75357003  0.62638267  0.76657197  1.0
  Ni  Ni566  1  0.75357003  0.95971600  0.76657197  1.0
  Ni  Ni567  1  0.30357003  0.29304933  0.71657197  1.0
  Ni  Ni568  1  0.30357003  0.62638267  0.71657197  1.0
  Ni  Ni569  1  0.30357003  0.95971600  0.71657197  1.0
  Ni  Ni570  1  0.63690337  0.29304933  0.71657197  1.0
  Ni  Ni571  1  0.63690337  0.62638267  0.71657197  1.0
  Ni  Ni572  1  0.63690337  0.95971600  0.71657197  1.0
  Ni  Ni573  1  0.97023670  0.29304933  0.71657197  1.0
  Ni  Ni574  1  0.97023670  0.62638267  0.71657197  1.0
  Ni  Ni575  1  0.97023670  0.95971600  0.71657197  1.0
  Ni  Ni576  1  0.27537123  0.04028400  0.70448677  1.0
  Ni  Ni577  1  0.27537123  0.37361733  0.70448677  1.0
  Ni  Ni578  1  0.27537123  0.70695067  0.70448677  1.0
  Ni  Ni579  1  0.60870457  0.04028400  0.70448677  1.0
  Ni  Ni580  1  0.60870457  0.37361733  0.70448677  1.0
  Ni  Ni581  1  0.60870457  0.70695067  0.70448677  1.0
  Ni  Ni582  1  0.94203790  0.04028400  0.70448677  1.0
  Ni  Ni583  1  0.94203790  0.37361733  0.70448677  1.0
  Ni  Ni584  1  0.94203790  0.70695067  0.70448677  1.0
  Ni  Ni585  1  0.05870457  0.04028400  0.75448677  1.0
  Ni  Ni586  1  0.05870457  0.37361733  0.75448677  1.0
  Ni  Ni587  1  0.05870457  0.70695067  0.75448677  1.0
  Ni  Ni588  1  0.39203790  0.04028400  0.75448677  1.0
  Ni  Ni589  1  0.39203790  0.37361733  0.75448677  1.0
  Ni  Ni590  1  0.39203790  0.70695067  0.75448677  1.0
  Ni  Ni591  1  0.72537123  0.04028400  0.75448677  1.0
  Ni  Ni592  1  0.72537123  0.37361733  0.75448677  1.0
  Ni  Ni593  1  0.72537123  0.70695067  0.75448677  1.0
  Ni  Ni594  1  0.11630162  0.20905433  0.77917122  1.0
  Ni  Ni595  1  0.11630162  0.54238767  0.77917122  1.0
  Ni  Ni596  1  0.11630162  0.87572100  0.77917122  1.0
  Ni  Ni597  1  0.44963495  0.20905433  0.77917122  1.0
  Ni  Ni598  1  0.44963495  0.54238767  0.77917122  1.0
  Ni  Ni599  1  0.44963495  0.87572100  0.77917122  1.0
  Ni  Ni600  1  0.78296828  0.20905433  0.77917122  1.0
  Ni  Ni601  1  0.78296828  0.54238767  0.77917122  1.0
  Ni  Ni602  1  0.78296828  0.87572100  0.77917122  1.0
  Ni  Ni603  1  0.33296828  0.20905433  0.72917122  1.0
  Ni  Ni604  1  0.33296828  0.54238767  0.72917122  1.0
  Ni  Ni605  1  0.33296828  0.87572100  0.72917122  1.0
  Ni  Ni606  1  0.66630162  0.20905433  0.72917122  1.0
  Ni  Ni607  1  0.66630162  0.54238767  0.72917122  1.0
  Ni  Ni608  1  0.66630162  0.87572100  0.72917122  1.0
  Ni  Ni609  1  0.99963495  0.20905433  0.72917122  1.0
  Ni  Ni610  1  0.99963495  0.54238767  0.72917122  1.0
  Ni  Ni611  1  0.99963495  0.87572100  0.72917122  1.0
  Ni  Ni612  1  0.15891508  0.16666667  0.70219603  1.0
  Ni  Ni613  1  0.15891508  0.50000000  0.70219603  1.0
  Ni  Ni614  1  0.15891508  0.83333333  0.70219603  1.0
  Ni  Ni615  1  0.49224841  0.16666667  0.70219603  1.0
  Ni  Ni616  1  0.49224841  0.50000000  0.70219603  1.0
  Ni  Ni617  1  0.49224841  0.83333333  0.70219603  1.0
  Ni  Ni618  1  0.82558174  0.16666667  0.70219603  1.0
  Ni  Ni619  1  0.82558174  0.50000000  0.70219603  1.0
  Ni  Ni620  1  0.82558174  0.83333333  0.70219603  1.0
  Ni  Ni621  1  0.27558174  0.16666667  0.75219603  1.0
  Ni  Ni622  1  0.27558174  0.50000000  0.75219603  1.0
  Ni  Ni623  1  0.27558174  0.83333333  0.75219603  1.0
  Ni  Ni624  1  0.60891508  0.16666667  0.75219603  1.0
  Ni  Ni625  1  0.60891508  0.50000000  0.75219603  1.0
  Ni  Ni626  1  0.60891508  0.83333333  0.75219603  1.0
  Ni  Ni627  1  0.94224841  0.16666667  0.75219603  1.0
  Ni  Ni628  1  0.94224841  0.50000000  0.75219603  1.0
  Ni  Ni629  1  0.94224841  0.83333333  0.75219603  1.0
  Ni  Ni630  1  0.11638546  0.08183067  0.73158810  1.0
  Ni  Ni631  1  0.11638546  0.41516400  0.73158810  1.0
  Ni  Ni632  1  0.11638546  0.74849733  0.73158810  1.0
  Ni  Ni633  1  0.44971879  0.08183067  0.73158810  1.0
  Ni  Ni634  1  0.44971879  0.41516400  0.73158810  1.0
  Ni  Ni635  1  0.44971879  0.74849733  0.73158810  1.0
  Ni  Ni636  1  0.78305212  0.08183067  0.73158810  1.0
  Ni  Ni637  1  0.78305212  0.41516400  0.73158810  1.0
  Ni  Ni638  1  0.78305212  0.74849733  0.73158810  1.0
  Ni  Ni639  1  0.23305212  0.08183067  0.78158810  1.0
  Ni  Ni640  1  0.23305212  0.41516400  0.78158810  1.0
  Ni  Ni641  1  0.23305212  0.74849733  0.78158810  1.0
  Ni  Ni642  1  0.56638546  0.08183067  0.78158810  1.0
  Ni  Ni643  1  0.56638546  0.41516400  0.78158810  1.0
  Ni  Ni644  1  0.56638546  0.74849733  0.78158810  1.0
  Ni  Ni645  1  0.89971879  0.08183067  0.78158810  1.0
  Ni  Ni646  1  0.89971879  0.41516400  0.78158810  1.0
  Ni  Ni647  1  0.89971879  0.74849733  0.78158810  1.0
  Ni  Ni648  1  0.05700026  0.25150267  0.70613730  1.0
  Ni  Ni649  1  0.05700026  0.58483600  0.70613730  1.0
  Ni  Ni650  1  0.05700026  0.91816933  0.70613730  1.0
  Ni  Ni651  1  0.39033359  0.25150267  0.70613730  1.0
  Ni  Ni652  1  0.39033359  0.58483600  0.70613730  1.0
  Ni  Ni653  1  0.39033359  0.91816933  0.70613730  1.0
  Ni  Ni654  1  0.72366692  0.25150267  0.70613730  1.0
  Ni  Ni655  1  0.72366692  0.58483600  0.70613730  1.0
  Ni  Ni656  1  0.72366692  0.91816933  0.70613730  1.0
  Ni  Ni657  1  0.17366692  0.25150267  0.75613730  1.0
  Ni  Ni658  1  0.17366692  0.58483600  0.75613730  1.0
  Ni  Ni659  1  0.17366692  0.91816933  0.75613730  1.0
  Ni  Ni660  1  0.50700026  0.25150267  0.75613730  1.0
  Ni  Ni661  1  0.50700026  0.58483600  0.75613730  1.0
  Ni  Ni662  1  0.50700026  0.91816933  0.75613730  1.0
  Ni  Ni663  1  0.84033359  0.25150267  0.75613730  1.0
  Ni  Ni664  1  0.84033359  0.58483600  0.75613730  1.0
  Ni  Ni665  1  0.84033359  0.91816933  0.75613730  1.0
  Ni  Ni666  1  0.24597298  0.12427900  0.69188752  1.0
  Ni  Ni667  1  0.24597298  0.45761233  0.69188752  1.0
  Ni  Ni668  1  0.24597298  0.79094567  0.69188752  1.0
  Ni  Ni669  1  0.57930632  0.12427900  0.69188752  1.0
  Ni  Ni670  1  0.57930632  0.45761233  0.69188752  1.0
  Ni  Ni671  1  0.57930632  0.79094567  0.69188752  1.0
  Ni  Ni672  1  0.91263965  0.12427900  0.69188752  1.0
  Ni  Ni673  1  0.91263965  0.45761233  0.69188752  1.0
  Ni  Ni674  1  0.91263965  0.79094567  0.69188752  1.0
  Ni  Ni675  1  0.12930632  0.12427900  0.64188752  1.0
  Ni  Ni676  1  0.12930632  0.45761233  0.64188752  1.0
  Ni  Ni677  1  0.12930632  0.79094567  0.64188752  1.0
  Ni  Ni678  1  0.46263965  0.12427900  0.64188752  1.0
  Ni  Ni679  1  0.46263965  0.45761233  0.64188752  1.0
  Ni  Ni680  1  0.46263965  0.79094567  0.64188752  1.0
  Ni  Ni681  1  0.79597298  0.12427900  0.64188752  1.0
  Ni  Ni682  1  0.79597298  0.45761233  0.64188752  1.0
  Ni  Ni683  1  0.79597298  0.79094567  0.64188752  1.0
  Ni  Ni684  1  0.18690337  0.29304933  0.66657197  1.0
  Ni  Ni685  1  0.18690337  0.62638267  0.66657197  1.0
  Ni  Ni686  1  0.18690337  0.95971600  0.66657197  1.0
  Ni  Ni687  1  0.52023670  0.29304933  0.66657197  1.0
  Ni  Ni688  1  0.52023670  0.62638267  0.66657197  1.0
  Ni  Ni689  1  0.52023670  0.95971600  0.66657197  1.0
  Ni  Ni690  1  0.85357003  0.29304933  0.66657197  1.0
  Ni  Ni691  1  0.85357003  0.62638267  0.66657197  1.0
  Ni  Ni692  1  0.85357003  0.95971600  0.66657197  1.0
  Ni  Ni693  1  0.07023670  0.29304933  0.61657197  1.0
  Ni  Ni694  1  0.07023670  0.62638267  0.61657197  1.0
  Ni  Ni695  1  0.07023670  0.95971600  0.61657197  1.0
  Ni  Ni696  1  0.40357003  0.29304933  0.61657197  1.0
  Ni  Ni697  1  0.40357003  0.62638267  0.61657197  1.0
  Ni  Ni698  1  0.40357003  0.95971600  0.61657197  1.0
  Ni  Ni699  1  0.73690337  0.29304933  0.61657197  1.0
  Ni  Ni700  1  0.73690337  0.62638267  0.61657197  1.0
  Ni  Ni701  1  0.73690337  0.95971600  0.61657197  1.0
  Ni  Ni702  1  0.04203790  0.04028400  0.60448677  1.0
  Ni  Ni703  1  0.04203790  0.37361733  0.60448677  1.0
  Ni  Ni704  1  0.04203790  0.70695067  0.60448677  1.0
  Ni  Ni705  1  0.37537123  0.04028400  0.60448677  1.0
  Ni  Ni706  1  0.37537123  0.37361733  0.60448677  1.0
  Ni  Ni707  1  0.37537123  0.70695067  0.60448677  1.0
  Ni  Ni708  1  0.70870457  0.04028400  0.60448677  1.0
  Ni  Ni709  1  0.70870457  0.37361733  0.60448677  1.0
  Ni  Ni710  1  0.70870457  0.70695067  0.60448677  1.0
  Ni  Ni711  1  0.15870457  0.04028400  0.65448677  1.0
  Ni  Ni712  1  0.15870457  0.37361733  0.65448677  1.0
  Ni  Ni713  1  0.15870457  0.70695067  0.65448677  1.0
  Ni  Ni714  1  0.49203790  0.04028400  0.65448677  1.0
  Ni  Ni715  1  0.49203790  0.37361733  0.65448677  1.0
  Ni  Ni716  1  0.49203790  0.70695067  0.65448677  1.0
  Ni  Ni717  1  0.82537123  0.04028400  0.65448677  1.0
  Ni  Ni718  1  0.82537123  0.37361733  0.65448677  1.0
  Ni  Ni719  1  0.82537123  0.70695067  0.65448677  1.0
  Ni  Ni720  1  0.21630162  0.20905433  0.67917122  1.0
  Ni  Ni721  1  0.21630162  0.54238767  0.67917122  1.0
  Ni  Ni722  1  0.21630162  0.87572100  0.67917122  1.0
  Ni  Ni723  1  0.54963495  0.20905433  0.67917122  1.0
  Ni  Ni724  1  0.54963495  0.54238767  0.67917122  1.0
  Ni  Ni725  1  0.54963495  0.87572100  0.67917122  1.0
  Ni  Ni726  1  0.88296828  0.20905433  0.67917122  1.0
  Ni  Ni727  1  0.88296828  0.54238767  0.67917122  1.0
  Ni  Ni728  1  0.88296828  0.87572100  0.67917122  1.0
  Ni  Ni729  1  0.09963495  0.20905433  0.62917122  1.0
  Ni  Ni730  1  0.09963495  0.54238767  0.62917122  1.0
  Ni  Ni731  1  0.09963495  0.87572100  0.62917122  1.0
  Ni  Ni732  1  0.43296828  0.20905433  0.62917122  1.0
  Ni  Ni733  1  0.43296828  0.54238767  0.62917122  1.0
  Ni  Ni734  1  0.43296828  0.87572100  0.62917122  1.0
  Ni  Ni735  1  0.76630162  0.20905433  0.62917122  1.0
  Ni  Ni736  1  0.76630162  0.54238767  0.62917122  1.0
  Ni  Ni737  1  0.76630162  0.87572100  0.62917122  1.0
  Ni  Ni738  1  0.25891508  0.16666667  0.60219603  1.0
  Ni  Ni739  1  0.25891508  0.50000000  0.60219603  1.0
  Ni  Ni740  1  0.25891508  0.83333333  0.60219603  1.0
  Ni  Ni741  1  0.59224841  0.16666667  0.60219603  1.0
  Ni  Ni742  1  0.59224841  0.50000000  0.60219603  1.0
  Ni  Ni743  1  0.59224841  0.83333333  0.60219603  1.0
  Ni  Ni744  1  0.92558174  0.16666667  0.60219603  1.0
  Ni  Ni745  1  0.92558174  0.50000000  0.60219603  1.0
  Ni  Ni746  1  0.92558174  0.83333333  0.60219603  1.0
  Ni  Ni747  1  0.04224841  0.16666667  0.65219603  1.0
  Ni  Ni748  1  0.04224841  0.50000000  0.65219603  1.0
  Ni  Ni749  1  0.04224841  0.83333333  0.65219603  1.0
  Ni  Ni750  1  0.37558174  0.16666667  0.65219603  1.0
  Ni  Ni751  1  0.37558174  0.50000000  0.65219603  1.0
  Ni  Ni752  1  0.37558174  0.83333333  0.65219603  1.0
  Ni  Ni753  1  0.70891508  0.16666667  0.65219603  1.0
  Ni  Ni754  1  0.70891508  0.50000000  0.65219603  1.0
  Ni  Ni755  1  0.70891508  0.83333333  0.65219603  1.0
  Ni  Ni756  1  0.21638546  0.08183067  0.63158810  1.0
  Ni  Ni757  1  0.21638546  0.41516400  0.63158810  1.0
  Ni  Ni758  1  0.21638546  0.74849733  0.63158810  1.0
  Ni  Ni759  1  0.54971879  0.08183067  0.63158810  1.0
  Ni  Ni760  1  0.54971879  0.41516400  0.63158810  1.0
  Ni  Ni761  1  0.54971879  0.74849733  0.63158810  1.0
  Ni  Ni762  1  0.88305212  0.08183067  0.63158810  1.0
  Ni  Ni763  1  0.88305212  0.41516400  0.63158810  1.0
  Ni  Ni764  1  0.88305212  0.74849733  0.63158810  1.0
  Ni  Ni765  1  0.33305212  0.08183067  0.68158810  1.0
  Ni  Ni766  1  0.33305212  0.41516400  0.68158810  1.0
  Ni  Ni767  1  0.33305212  0.74849733  0.68158810  1.0
  Ni  Ni768  1  0.66638546  0.08183067  0.68158810  1.0
  Ni  Ni769  1  0.66638546  0.41516400  0.68158810  1.0
  Ni  Ni770  1  0.66638546  0.74849733  0.68158810  1.0
  Ni  Ni771  1  0.99971879  0.08183067  0.68158810  1.0
  Ni  Ni772  1  0.99971879  0.41516400  0.68158810  1.0
  Ni  Ni773  1  0.99971879  0.74849733  0.68158810  1.0
  Ni  Ni774  1  0.15700026  0.25150267  0.60613730  1.0
  Ni  Ni775  1  0.15700026  0.58483600  0.60613730  1.0
  Ni  Ni776  1  0.15700026  0.91816933  0.60613730  1.0
  Ni  Ni777  1  0.49033359  0.25150267  0.60613730  1.0
  Ni  Ni778  1  0.49033359  0.58483600  0.60613730  1.0
  Ni  Ni779  1  0.49033359  0.91816933  0.60613730  1.0
  Ni  Ni780  1  0.82366692  0.25150267  0.60613730  1.0
  Ni  Ni781  1  0.82366692  0.58483600  0.60613730  1.0
  Ni  Ni782  1  0.82366692  0.91816933  0.60613730  1.0
  Ni  Ni783  1  0.27366692  0.25150267  0.65613730  1.0
  Ni  Ni784  1  0.27366692  0.58483600  0.65613730  1.0
  Ni  Ni785  1  0.27366692  0.91816933  0.65613730  1.0
  Ni  Ni786  1  0.60700026  0.25150267  0.65613730  1.0
  Ni  Ni787  1  0.60700026  0.58483600  0.65613730  1.0
  Ni  Ni788  1  0.60700026  0.91816933  0.65613730  1.0
  Ni  Ni789  1  0.94033359  0.25150267  0.65613730  1.0
  Ni  Ni790  1  0.94033359  0.58483600  0.65613730  1.0
  Ni  Ni791  1  0.94033359  0.91816933  0.65613730  1.0
