# generated using pymatgen
data_NiBi
_symmetry_space_group_name_H-M   'P 1'
_cell_length_a   42.67964759
_cell_length_b   54.90247041
_cell_length_c   57.62904791
_cell_angle_alpha   56.12946575
_cell_angle_beta   30.22847268
_cell_angle_gamma   39.01414533
_symmetry_Int_Tables_number   1
_chemical_formula_structural   NiBi
_chemical_formula_sum   'Ni432 Bi432'
_cell_volume   39931.43884574
_cell_formula_units_Z   432
loop_
 _symmetry_equiv_pos_site_id
 _symmetry_equiv_pos_as_xyz
  1  'x, y, z'
loop_
 _atom_site_type_symbol
 _atom_site_label
 _atom_site_symmetry_multiplicity
 _atom_site_fract_x
 _atom_site_fract_y
 _atom_site_fract_z
 _atom_site_occupancy
  Ni  Ni0  1  0.08499681  0.16451091  0.06251438  1.0
  Ni  Ni1  1  0.08499681  0.49784424  0.06251438  1.0
  Ni  Ni2  1  0.08499681  0.83117758  0.06251438  1.0
  Ni  Ni3  1  0.41833014  0.16451091  0.06251438  1.0
  Ni  Ni4  1  0.41833014  0.49784424  0.06251438  1.0
  Ni  Ni5  1  0.41833014  0.83117758  0.06251438  1.0
  Ni  Ni6  1  0.75166348  0.16451091  0.06251438  1.0
  Ni  Ni7  1  0.75166348  0.49784424  0.06251438  1.0
  Ni  Ni8  1  0.75166348  0.83117758  0.06251438  1.0
  Ni  Ni9  1  0.24162085  0.17288136  0.06610171  1.0
  Ni  Ni10  1  0.24162085  0.50621470  0.06610171  1.0
  Ni  Ni11  1  0.24162085  0.83954803  0.06610171  1.0
  Ni  Ni12  1  0.57495418  0.17288136  0.06610171  1.0
  Ni  Ni13  1  0.57495418  0.50621470  0.06610171  1.0
  Ni  Ni14  1  0.57495418  0.83954803  0.06610171  1.0
  Ni  Ni15  1  0.90828751  0.17288136  0.06610171  1.0
  Ni  Ni16  1  0.90828751  0.50621470  0.06610171  1.0
  Ni  Ni17  1  0.90828751  0.83954803  0.06610171  1.0
  Ni  Ni18  1  0.32748885  0.04084589  0.00951508  1.0
  Ni  Ni19  1  0.32748885  0.37417923  0.00951508  1.0
  Ni  Ni20  1  0.32748885  0.70751256  0.00951508  1.0
  Ni  Ni21  1  0.66082219  0.04084589  0.00951508  1.0
  Ni  Ni22  1  0.66082219  0.37417923  0.00951508  1.0
  Ni  Ni23  1  0.66082219  0.70751256  0.00951508  1.0
  Ni  Ni24  1  0.99415552  0.04084589  0.00951508  1.0
  Ni  Ni25  1  0.99415552  0.37417923  0.00951508  1.0
  Ni  Ni26  1  0.99415552  0.70751256  0.00951508  1.0
  Ni  Ni27  1  0.00623274  0.29208067  0.11718713  1.0
  Ni  Ni28  1  0.00623274  0.62541401  0.11718713  1.0
  Ni  Ni29  1  0.00623274  0.95874734  0.11718713  1.0
  Ni  Ni30  1  0.33956607  0.29208067  0.11718713  1.0
  Ni  Ni31  1  0.33956607  0.62541401  0.11718713  1.0
  Ni  Ni32  1  0.33956607  0.95874734  0.11718713  1.0
  Ni  Ni33  1  0.67289940  0.29208067  0.11718713  1.0
  Ni  Ni34  1  0.67289940  0.62541401  0.11718713  1.0
  Ni  Ni35  1  0.67289940  0.95874734  0.11718713  1.0
  Ni  Ni36  1  0.20976976  0.08292331  0.02754826  1.0
  Ni  Ni37  1  0.20976976  0.41625664  0.02754826  1.0
  Ni  Ni38  1  0.20976976  0.74958997  0.02754826  1.0
  Ni  Ni39  1  0.54310309  0.08292331  0.02754826  1.0
  Ni  Ni40  1  0.54310309  0.41625664  0.02754826  1.0
  Ni  Ni41  1  0.54310309  0.74958997  0.02754826  1.0
  Ni  Ni42  1  0.87643642  0.08292331  0.02754826  1.0
  Ni  Ni43  1  0.87643642  0.41625664  0.02754826  1.0
  Ni  Ni44  1  0.87643642  0.74958997  0.02754826  1.0
  Ni  Ni45  1  0.11998703  0.25215451  0.10007592  1.0
  Ni  Ni46  1  0.11998703  0.58548784  0.10007592  1.0
  Ni  Ni47  1  0.11998703  0.91882118  0.10007592  1.0
  Ni  Ni48  1  0.45332036  0.25215451  0.10007592  1.0
  Ni  Ni49  1  0.45332036  0.58548784  0.10007592  1.0
  Ni  Ni50  1  0.45332036  0.91882118  0.10007592  1.0
  Ni  Ni51  1  0.78665369  0.25215451  0.10007592  1.0
  Ni  Ni52  1  0.78665369  0.58548784  0.10007592  1.0
  Ni  Ni53  1  0.78665369  0.91882118  0.10007592  1.0
  Ni  Ni54  1  0.25567535  0.16586454  0.13070507  1.0
  Ni  Ni55  1  0.25567535  0.49919788  0.13070507  1.0
  Ni  Ni56  1  0.25567535  0.83253121  0.13070507  1.0
  Ni  Ni57  1  0.58900868  0.16586454  0.13070507  1.0
  Ni  Ni58  1  0.58900868  0.49919788  0.13070507  1.0
  Ni  Ni59  1  0.58900868  0.83253121  0.13070507  1.0
  Ni  Ni60  1  0.92234201  0.16586454  0.13070507  1.0
  Ni  Ni61  1  0.92234201  0.49919788  0.13070507  1.0
  Ni  Ni62  1  0.92234201  0.83253121  0.13070507  1.0
  Ni  Ni63  1  0.08010000  0.16586454  0.13834108  1.0
  Ni  Ni64  1  0.08010000  0.49919788  0.13834108  1.0
  Ni  Ni65  1  0.08010000  0.83253121  0.13834108  1.0
  Ni  Ni66  1  0.41343333  0.16586454  0.13834108  1.0
  Ni  Ni67  1  0.41343333  0.49919788  0.13834108  1.0
  Ni  Ni68  1  0.41343333  0.83253121  0.13834108  1.0
  Ni  Ni69  1  0.74676667  0.16586454  0.13834108  1.0
  Ni  Ni70  1  0.74676667  0.49919788  0.13834108  1.0
  Ni  Ni71  1  0.74676667  0.83253121  0.13834108  1.0
  Ni  Ni72  1  0.33306011  0.00027197  0.13498340  1.0
  Ni  Ni73  1  0.33306011  0.33360531  0.13498340  1.0
  Ni  Ni74  1  0.33306011  0.66693864  0.13498340  1.0
  Ni  Ni75  1  0.66639344  0.00027197  0.13498340  1.0
  Ni  Ni76  1  0.66639344  0.33360531  0.13498340  1.0
  Ni  Ni77  1  0.66639344  0.66693864  0.13498340  1.0
  Ni  Ni78  1  0.99972677  0.00027197  0.13498340  1.0
  Ni  Ni79  1  0.99972677  0.33360531  0.13498340  1.0
  Ni  Ni80  1  0.99972677  0.66693864  0.13498340  1.0
  Ni  Ni81  1  0.03932073  0.08387028  0.10062500  1.0
  Ni  Ni82  1  0.03932073  0.41720362  0.10062500  1.0
  Ni  Ni83  1  0.03932073  0.75053695  0.10062500  1.0
  Ni  Ni84  1  0.37265406  0.08387028  0.10062500  1.0
  Ni  Ni85  1  0.37265406  0.41720362  0.10062500  1.0
  Ni  Ni86  1  0.37265406  0.75053695  0.10062500  1.0
  Ni  Ni87  1  0.70598739  0.08387028  0.10062500  1.0
  Ni  Ni88  1  0.70598739  0.41720362  0.10062500  1.0
  Ni  Ni89  1  0.70598739  0.75053695  0.10062500  1.0
  Ni  Ni90  1  0.12198052  0.25041725  0.03037847  1.0
  Ni  Ni91  1  0.12198052  0.58375058  0.03037848  1.0
  Ni  Ni92  1  0.12198052  0.91708392  0.03037847  1.0
  Ni  Ni93  1  0.45531386  0.25041725  0.03037847  1.0
  Ni  Ni94  1  0.45531386  0.58375058  0.03037848  1.0
  Ni  Ni95  1  0.45531386  0.91708392  0.03037847  1.0
  Ni  Ni96  1  0.78864719  0.25041725  0.03037847  1.0
  Ni  Ni97  1  0.78864719  0.58375058  0.03037847  1.0
  Ni  Ni98  1  0.78864719  0.91708392  0.03037848  1.0
  Ni  Ni99  1  0.20888614  0.08387028  0.09814036  1.0
  Ni  Ni100  1  0.20888614  0.41720362  0.09814036  1.0
  Ni  Ni101  1  0.20888614  0.75053695  0.09814036  1.0
  Ni  Ni102  1  0.54221947  0.08387028  0.09814036  1.0
  Ni  Ni103  1  0.54221947  0.41720362  0.09814036  1.0
  Ni  Ni104  1  0.54221947  0.75053695  0.09814036  1.0
  Ni  Ni105  1  0.87555280  0.08387028  0.09814036  1.0
  Ni  Ni106  1  0.87555280  0.41720362  0.09814036  1.0
  Ni  Ni107  1  0.87555280  0.75053695  0.09814036  1.0
  Ni  Ni108  1  0.29442375  0.25041725  0.02542714  1.0
  Ni  Ni109  1  0.29442375  0.58375058  0.02542714  1.0
  Ni  Ni110  1  0.29442375  0.91708392  0.02542714  1.0
  Ni  Ni111  1  0.62775708  0.25041725  0.02542714  1.0
  Ni  Ni112  1  0.62775708  0.58375058  0.02542714  1.0
  Ni  Ni113  1  0.62775708  0.91708392  0.02542714  1.0
  Ni  Ni114  1  0.96109041  0.25041725  0.02542714  1.0
  Ni  Ni115  1  0.96109041  0.58375058  0.02542714  1.0
  Ni  Ni116  1  0.96109041  0.91708392  0.02542714  1.0
  Ni  Ni117  1  0.16638583  0.00006070  0.06367462  1.0
  Ni  Ni118  1  0.16638583  0.33339404  0.06367462  1.0
  Ni  Ni119  1  0.16638583  0.66672737  0.06367462  1.0
  Ni  Ni120  1  0.49971916  0.00006070  0.06367462  1.0
  Ni  Ni121  1  0.49971916  0.33339404  0.06367462  1.0
  Ni  Ni122  1  0.49971916  0.66672737  0.06367462  1.0
  Ni  Ni123  1  0.83305250  0.00006070  0.06367462  1.0
  Ni  Ni124  1  0.83305250  0.33339404  0.06367462  1.0
  Ni  Ni125  1  0.83305250  0.66672737  0.06367462  1.0
  Ni  Ni126  1  0.00020995  0.00006070  0.06325395  1.0
  Ni  Ni127  1  0.00020995  0.33339404  0.06325395  1.0
  Ni  Ni128  1  0.00020995  0.66672737  0.06325395  1.0
  Ni  Ni129  1  0.33354328  0.00006070  0.06325395  1.0
  Ni  Ni130  1  0.33354328  0.33339404  0.06325395  1.0
  Ni  Ni131  1  0.33354328  0.66672737  0.06325395  1.0
  Ni  Ni132  1  0.66687661  0.00006070  0.06325395  1.0
  Ni  Ni133  1  0.66687661  0.33339404  0.06325395  1.0
  Ni  Ni134  1  0.66687661  0.66672737  0.06325395  1.0
  Ni  Ni135  1  0.08880620  0.12621890  0.04610352  1.0
  Ni  Ni136  1  0.08880620  0.45955224  0.04610352  1.0
  Ni  Ni137  1  0.08880620  0.79288557  0.04610351  1.0
  Ni  Ni138  1  0.42213953  0.12621890  0.04610351  1.0
  Ni  Ni139  1  0.42213953  0.45955224  0.04610352  1.0
  Ni  Ni140  1  0.42213953  0.79288557  0.04610352  1.0
  Ni  Ni141  1  0.75547287  0.12621890  0.04610352  1.0
  Ni  Ni142  1  0.75547287  0.45955224  0.04610351  1.0
  Ni  Ni143  1  0.75547287  0.79288557  0.04610352  1.0
  Bi  Bi144  1  0.03138534  0.12396491  0.04513752  1.0
  Bi  Bi145  1  0.03138534  0.45729825  0.04513752  1.0
  Bi  Bi146  1  0.03138534  0.79063158  0.04513752  1.0
  Bi  Bi147  1  0.36471867  0.12396491  0.04513752  1.0
  Bi  Bi148  1  0.36471867  0.45729825  0.04513752  1.0
  Bi  Bi149  1  0.36471867  0.79063158  0.04513752  1.0
  Bi  Bi150  1  0.69805200  0.12396491  0.04513752  1.0
  Bi  Bi151  1  0.69805200  0.45729825  0.04513752  1.0
  Bi  Bi152  1  0.69805200  0.79063158  0.04513752  1.0
  Bi  Bi153  1  0.29686291  0.21012291  0.08206238  1.0
  Bi  Bi154  1  0.29686291  0.54345625  0.08206238  1.0
  Bi  Bi155  1  0.29686291  0.87678958  0.08206238  1.0
  Bi  Bi156  1  0.63019624  0.21012291  0.08206238  1.0
  Bi  Bi157  1  0.63019624  0.54345625  0.08206238  1.0
  Bi  Bi158  1  0.63019624  0.87678958  0.08206238  1.0
  Bi  Bi159  1  0.96352957  0.21012291  0.08206238  1.0
  Bi  Bi160  1  0.96352957  0.54345625  0.08206238  1.0
  Bi  Bi161  1  0.96352957  0.87678958  0.08206238  1.0
  Bi  Bi162  1  0.19948027  0.12626186  0.04612192  1.0
  Bi  Bi163  1  0.19948027  0.45959519  0.04612192  1.0
  Bi  Bi164  1  0.19948027  0.79292852  0.04612193  1.0
  Bi  Bi165  1  0.53281360  0.12626186  0.04612192  1.0
  Bi  Bi166  1  0.53281360  0.45959519  0.04612192  1.0
  Bi  Bi167  1  0.53281360  0.79292852  0.04612192  1.0
  Bi  Bi168  1  0.86614694  0.12626186  0.04612192  1.0
  Bi  Bi169  1  0.86614694  0.45959519  0.04612192  1.0
  Bi  Bi170  1  0.86614694  0.79292852  0.04612193  1.0
  Bi  Bi171  1  0.13378871  0.20653424  0.08052438  1.0
  Bi  Bi172  1  0.13378871  0.53986758  0.08052438  1.0
  Bi  Bi173  1  0.13378871  0.87320091  0.08052438  1.0
  Bi  Bi174  1  0.46712204  0.20653424  0.08052438  1.0
  Bi  Bi175  1  0.46712204  0.53986758  0.08052438  1.0
  Bi  Bi176  1  0.46712204  0.87320091  0.08052438  1.0
  Bi  Bi177  1  0.80045538  0.20653424  0.08052438  1.0
  Bi  Bi178  1  0.80045538  0.53986758  0.08052438  1.0
  Bi  Bi179  1  0.80045538  0.87320091  0.08052438  1.0
  Bi  Bi180  1  0.21543702  0.04141162  0.00975754  1.0
  Bi  Bi181  1  0.21543702  0.37474496  0.00975754  1.0
  Bi  Bi182  1  0.21543702  0.70807829  0.00975754  1.0
  Bi  Bi183  1  0.54877035  0.04141162  0.00975754  1.0
  Bi  Bi184  1  0.54877035  0.37474496  0.00975754  1.0
  Bi  Bi185  1  0.54877035  0.70807829  0.00975754  1.0
  Bi  Bi186  1  0.88210368  0.04141162  0.00975754  1.0
  Bi  Bi187  1  0.88210368  0.37474496  0.00975754  1.0
  Bi  Bi188  1  0.88210368  0.70807829  0.00975754  1.0
  Bi  Bi189  1  0.12078263  0.28981970  0.11621814  1.0
  Bi  Bi190  1  0.12078263  0.62315303  0.11621814  1.0
  Bi  Bi191  1  0.12078263  0.95648637  0.11621814  1.0
  Bi  Bi192  1  0.45411597  0.28981970  0.11621814  1.0
  Bi  Bi193  1  0.45411597  0.62315303  0.11621814  1.0
  Bi  Bi194  1  0.45411597  0.95648637  0.11621814  1.0
  Bi  Bi195  1  0.78744930  0.28981970  0.11621814  1.0
  Bi  Bi196  1  0.78744930  0.62315303  0.11621814  1.0
  Bi  Bi197  1  0.78744930  0.95648637  0.11621814  1.0
  Bi  Bi198  1  0.05516553  0.04056945  0.07448325  1.0
  Bi  Bi199  1  0.05516553  0.37390278  0.07448326  1.0
  Bi  Bi200  1  0.05516553  0.70723612  0.07448326  1.0
  Bi  Bi201  1  0.38849887  0.04056945  0.07448325  1.0
  Bi  Bi202  1  0.38849887  0.37390278  0.07448326  1.0
  Bi  Bi203  1  0.38849887  0.70723612  0.07448325  1.0
  Bi  Bi204  1  0.72183220  0.04056945  0.07448325  1.0
  Bi  Bi205  1  0.72183220  0.37390278  0.07448325  1.0
  Bi  Bi206  1  0.72183220  0.70723612  0.07448326  1.0
  Bi  Bi207  1  0.12818795  0.29148315  0.03941822  1.0
  Bi  Bi208  1  0.12818795  0.62481648  0.03941822  1.0
  Bi  Bi209  1  0.12818795  0.95814981  0.03941822  1.0
  Bi  Bi210  1  0.46152128  0.29148315  0.03941822  1.0
  Bi  Bi211  1  0.46152128  0.62481648  0.03941822  1.0
  Bi  Bi212  1  0.46152128  0.95814981  0.03941822  1.0
  Bi  Bi213  1  0.79485461  0.29148315  0.03941822  1.0
  Bi  Bi214  1  0.79485461  0.62481648  0.03941822  1.0
  Bi  Bi215  1  0.79485461  0.95814981  0.03941822  1.0
  Bi  Bi216  1  0.20703438  0.04056945  0.08716710  1.0
  Bi  Bi217  1  0.20703438  0.37390278  0.08716710  1.0
  Bi  Bi218  1  0.20703438  0.70723612  0.08716710  1.0
  Bi  Bi219  1  0.54036771  0.04056945  0.08716710  1.0
  Bi  Bi220  1  0.54036771  0.37390278  0.08716710  1.0
  Bi  Bi221  1  0.54036771  0.70723612  0.08716710  1.0
  Bi  Bi222  1  0.87370104  0.04056945  0.08716710  1.0
  Bi  Bi223  1  0.87370104  0.37390278  0.08716710  1.0
  Bi  Bi224  1  0.87370104  0.70723612  0.08716710  1.0
  Bi  Bi225  1  0.28065802  0.29148315  0.05158673  1.0
  Bi  Bi226  1  0.28065802  0.62481648  0.05158673  1.0
  Bi  Bi227  1  0.28065802  0.95814981  0.05158673  1.0
  Bi  Bi228  1  0.61399135  0.29148315  0.05158673  1.0
  Bi  Bi229  1  0.61399135  0.62481648  0.05158673  1.0
  Bi  Bi230  1  0.61399135  0.95814981  0.05158673  1.0
  Bi  Bi231  1  0.94732469  0.29148315  0.05158673  1.0
  Bi  Bi232  1  0.94732469  0.62481648  0.05158673  1.0
  Bi  Bi233  1  0.94732469  0.95814981  0.05158673  1.0
  Bi  Bi234  1  0.05485704  0.04082674  0.00950687  1.0
  Bi  Bi235  1  0.05485704  0.37416007  0.00950687  1.0
  Bi  Bi236  1  0.05485704  0.70749340  0.00950687  1.0
  Bi  Bi237  1  0.38819037  0.04082674  0.00950687  1.0
  Bi  Bi238  1  0.38819037  0.37416007  0.00950687  1.0
  Bi  Bi239  1  0.38819037  0.70749340  0.00950687  1.0
  Bi  Bi240  1  0.72152370  0.04082674  0.00950687  1.0
  Bi  Bi241  1  0.72152370  0.37416007  0.00950687  1.0
  Bi  Bi242  1  0.72152370  0.70749340  0.00950687  1.0
  Bi  Bi243  1  0.27988444  0.29136184  0.11687906  1.0
  Bi  Bi244  1  0.27988444  0.62469518  0.11687906  1.0
  Bi  Bi245  1  0.27988444  0.95802851  0.11687906  1.0
  Bi  Bi246  1  0.61321777  0.29136184  0.11687906  1.0
  Bi  Bi247  1  0.61321777  0.62469518  0.11687906  1.0
  Bi  Bi248  1  0.61321777  0.95802851  0.11687906  1.0
  Bi  Bi249  1  0.94655111  0.29136184  0.11687906  1.0
  Bi  Bi250  1  0.94655111  0.62469518  0.11687906  1.0
  Bi  Bi251  1  0.94655111  0.95802851  0.11687906  1.0
  Bi  Bi252  1  0.03284167  0.12307709  0.12255990  1.0
  Bi  Bi253  1  0.03284167  0.45641043  0.12255990  1.0
  Bi  Bi254  1  0.03284167  0.78974376  0.12255990  1.0
  Bi  Bi255  1  0.36617500  0.12307709  0.12255990  1.0
  Bi  Bi256  1  0.36617500  0.45641043  0.12255990  1.0
  Bi  Bi257  1  0.36617500  0.78974376  0.12255990  1.0
  Bi  Bi258  1  0.69950833  0.12307709  0.12255990  1.0
  Bi  Bi259  1  0.69950833  0.45641043  0.12255990  1.0
  Bi  Bi260  1  0.69950833  0.78974376  0.12255990  1.0
  Bi  Bi261  1  0.12864773  0.20879518  0.01225581  1.0
  Bi  Bi262  1  0.12864773  0.54212851  0.01225581  1.0
  Bi  Bi263  1  0.12864773  0.87546184  0.01225581  1.0
  Bi  Bi264  1  0.46198107  0.20879518  0.01225581  1.0
  Bi  Bi265  1  0.46198107  0.54212851  0.01225581  1.0
  Bi  Bi266  1  0.46198107  0.87546184  0.01225581  1.0
  Bi  Bi267  1  0.79531440  0.20879518  0.01225581  1.0
  Bi  Bi268  1  0.79531440  0.54212851  0.01225581  1.0
  Bi  Bi269  1  0.79531440  0.87546184  0.01225581  1.0
  Bi  Bi270  1  0.21438170  0.12307709  0.10981130  1.0
  Bi  Bi271  1  0.21438170  0.45641043  0.10981130  1.0
  Bi  Bi272  1  0.21438170  0.78974376  0.10981130  1.0
  Bi  Bi273  1  0.54771503  0.12307709  0.10981130  1.0
  Bi  Bi274  1  0.54771503  0.45641043  0.10981130  1.0
  Bi  Bi275  1  0.54771503  0.78974376  0.10981130  1.0
  Bi  Bi276  1  0.88104836  0.12307709  0.10981130  1.0
  Bi  Bi277  1  0.88104836  0.45641043  0.10981130  1.0
  Bi  Bi278  1  0.88104836  0.78974376  0.10981130  1.0
  Bi  Bi279  1  0.30042682  0.20879518  0.00787374  1.0
  Bi  Bi280  1  0.30042682  0.54212851  0.00787374  1.0
  Bi  Bi281  1  0.30042682  0.87546184  0.00787374  1.0
  Bi  Bi282  1  0.63376015  0.20879518  0.00787374  1.0
  Bi  Bi283  1  0.63376015  0.54212851  0.00787374  1.0
  Bi  Bi284  1  0.63376015  0.87546184  0.00787374  1.0
  Bi  Bi285  1  0.96709349  0.20879518  0.00787374  1.0
  Bi  Bi286  1  0.96709349  0.54212851  0.00787374  1.0
  Bi  Bi287  1  0.96709349  0.87546184  0.00787374  1.0
  Ni  Ni288  1  0.08499681  0.16451091  0.20537152  1.0
  Ni  Ni289  1  0.08499681  0.49784424  0.20537152  1.0
  Ni  Ni290  1  0.08499681  0.83117758  0.20537152  1.0
  Ni  Ni291  1  0.41833014  0.16451091  0.20537152  1.0
  Ni  Ni292  1  0.41833014  0.49784424  0.20537152  1.0
  Ni  Ni293  1  0.41833014  0.83117758  0.20537152  1.0
  Ni  Ni294  1  0.75166348  0.16451091  0.20537152  1.0
  Ni  Ni295  1  0.75166348  0.49784424  0.20537152  1.0
  Ni  Ni296  1  0.75166348  0.83117758  0.20537152  1.0
  Ni  Ni297  1  0.24162085  0.17288136  0.20895886  1.0
  Ni  Ni298  1  0.24162085  0.50621470  0.20895886  1.0
  Ni  Ni299  1  0.24162085  0.83954803  0.20895886  1.0
  Ni  Ni300  1  0.57495418  0.17288136  0.20895886  1.0
  Ni  Ni301  1  0.57495418  0.50621470  0.20895886  1.0
  Ni  Ni302  1  0.57495418  0.83954803  0.20895886  1.0
  Ni  Ni303  1  0.90828751  0.17288136  0.20895886  1.0
  Ni  Ni304  1  0.90828751  0.50621470  0.20895886  1.0
  Ni  Ni305  1  0.90828751  0.83954803  0.20895886  1.0
  Ni  Ni306  1  0.32748885  0.04084589  0.15237223  1.0
  Ni  Ni307  1  0.32748885  0.37417923  0.15237223  1.0
  Ni  Ni308  1  0.32748885  0.70751256  0.15237223  1.0
  Ni  Ni309  1  0.66082219  0.04084589  0.15237223  1.0
  Ni  Ni310  1  0.66082219  0.37417923  0.15237223  1.0
  Ni  Ni311  1  0.66082219  0.70751256  0.15237223  1.0
  Ni  Ni312  1  0.99415552  0.04084589  0.15237223  1.0
  Ni  Ni313  1  0.99415552  0.37417923  0.15237223  1.0
  Ni  Ni314  1  0.99415552  0.70751256  0.15237223  1.0
  Ni  Ni315  1  0.00623274  0.29208067  0.26004427  1.0
  Ni  Ni316  1  0.00623274  0.62541401  0.26004427  1.0
  Ni  Ni317  1  0.00623274  0.95874734  0.26004427  1.0
  Ni  Ni318  1  0.33956607  0.29208067  0.26004427  1.0
  Ni  Ni319  1  0.33956607  0.62541401  0.26004427  1.0
  Ni  Ni320  1  0.33956607  0.95874734  0.26004427  1.0
  Ni  Ni321  1  0.67289940  0.29208067  0.26004427  1.0
  Ni  Ni322  1  0.67289940  0.62541401  0.26004427  1.0
  Ni  Ni323  1  0.67289940  0.95874734  0.26004428  1.0
  Ni  Ni324  1  0.20976976  0.08292331  0.17040540  1.0
  Ni  Ni325  1  0.20976976  0.41625664  0.17040540  1.0
  Ni  Ni326  1  0.20976976  0.74958997  0.17040540  1.0
  Ni  Ni327  1  0.54310309  0.08292331  0.17040540  1.0
  Ni  Ni328  1  0.54310309  0.41625664  0.17040540  1.0
  Ni  Ni329  1  0.54310309  0.74958997  0.17040540  1.0
  Ni  Ni330  1  0.87643642  0.08292331  0.17040540  1.0
  Ni  Ni331  1  0.87643642  0.41625664  0.17040540  1.0
  Ni  Ni332  1  0.87643642  0.74958997  0.17040540  1.0
  Ni  Ni333  1  0.11998703  0.25215451  0.24293306  1.0
  Ni  Ni334  1  0.11998703  0.58548784  0.24293306  1.0
  Ni  Ni335  1  0.11998703  0.91882118  0.24293306  1.0
  Ni  Ni336  1  0.45332036  0.25215451  0.24293306  1.0
  Ni  Ni337  1  0.45332036  0.58548784  0.24293306  1.0
  Ni  Ni338  1  0.45332036  0.91882118  0.24293306  1.0
  Ni  Ni339  1  0.78665369  0.25215451  0.24293306  1.0
  Ni  Ni340  1  0.78665369  0.58548784  0.24293306  1.0
  Ni  Ni341  1  0.78665369  0.91882118  0.24293306  1.0
  Ni  Ni342  1  0.25567535  0.16586454  0.27356221  1.0
  Ni  Ni343  1  0.25567535  0.49919788  0.27356221  1.0
  Ni  Ni344  1  0.25567535  0.83253121  0.27356221  1.0
  Ni  Ni345  1  0.58900868  0.16586454  0.27356221  1.0
  Ni  Ni346  1  0.58900868  0.49919788  0.27356221  1.0
  Ni  Ni347  1  0.58900868  0.83253121  0.27356221  1.0
  Ni  Ni348  1  0.92234201  0.16586454  0.27356221  1.0
  Ni  Ni349  1  0.92234201  0.49919788  0.27356221  1.0
  Ni  Ni350  1  0.92234201  0.83253121  0.27356221  1.0
  Ni  Ni351  1  0.08010000  0.16586454  0.28119822  1.0
  Ni  Ni352  1  0.08010000  0.49919788  0.28119823  1.0
  Ni  Ni353  1  0.08010000  0.83253121  0.28119823  1.0
  Ni  Ni354  1  0.41343333  0.16586454  0.28119822  1.0
  Ni  Ni355  1  0.41343333  0.49919788  0.28119823  1.0
  Ni  Ni356  1  0.41343333  0.83253121  0.28119823  1.0
  Ni  Ni357  1  0.74676667  0.16586454  0.28119823  1.0
  Ni  Ni358  1  0.74676667  0.49919788  0.28119823  1.0
  Ni  Ni359  1  0.74676667  0.83253121  0.28119823  1.0
  Ni  Ni360  1  0.33306011  0.00027197  0.27784055  1.0
  Ni  Ni361  1  0.33306011  0.33360531  0.27784055  1.0
  Ni  Ni362  1  0.33306011  0.66693864  0.27784055  1.0
  Ni  Ni363  1  0.66639344  0.00027197  0.27784055  1.0
  Ni  Ni364  1  0.66639344  0.33360531  0.27784055  1.0
  Ni  Ni365  1  0.66639344  0.66693864  0.27784055  1.0
  Ni  Ni366  1  0.99972677  0.00027197  0.27784055  1.0
  Ni  Ni367  1  0.99972677  0.33360531  0.27784055  1.0
  Ni  Ni368  1  0.99972677  0.66693864  0.27784055  1.0
  Ni  Ni369  1  0.03932073  0.08387028  0.24348214  1.0
  Ni  Ni370  1  0.03932073  0.41720362  0.24348214  1.0
  Ni  Ni371  1  0.03932073  0.75053695  0.24348214  1.0
  Ni  Ni372  1  0.37265406  0.08387028  0.24348214  1.0
  Ni  Ni373  1  0.37265406  0.41720362  0.24348214  1.0
  Ni  Ni374  1  0.37265406  0.75053695  0.24348214  1.0
  Ni  Ni375  1  0.70598739  0.08387028  0.24348214  1.0
  Ni  Ni376  1  0.70598739  0.41720362  0.24348214  1.0
  Ni  Ni377  1  0.70598739  0.75053695  0.24348214  1.0
  Ni  Ni378  1  0.12198052  0.25041725  0.17323562  1.0
  Ni  Ni379  1  0.12198052  0.58375058  0.17323562  1.0
  Ni  Ni380  1  0.12198052  0.91708392  0.17323562  1.0
  Ni  Ni381  1  0.45531386  0.25041725  0.17323562  1.0
  Ni  Ni382  1  0.45531386  0.58375058  0.17323562  1.0
  Ni  Ni383  1  0.45531386  0.91708392  0.17323562  1.0
  Ni  Ni384  1  0.78864719  0.25041725  0.17323562  1.0
  Ni  Ni385  1  0.78864719  0.58375058  0.17323562  1.0
  Ni  Ni386  1  0.78864719  0.91708392  0.17323562  1.0
  Ni  Ni387  1  0.20888614  0.08387028  0.24099750  1.0
  Ni  Ni388  1  0.20888614  0.41720362  0.24099750  1.0
  Ni  Ni389  1  0.20888614  0.75053695  0.24099750  1.0
  Ni  Ni390  1  0.54221947  0.08387028  0.24099750  1.0
  Ni  Ni391  1  0.54221947  0.41720362  0.24099750  1.0
  Ni  Ni392  1  0.54221947  0.75053695  0.24099750  1.0
  Ni  Ni393  1  0.87555280  0.08387028  0.24099750  1.0
  Ni  Ni394  1  0.87555280  0.41720362  0.24099750  1.0
  Ni  Ni395  1  0.87555280  0.75053695  0.24099750  1.0
  Ni  Ni396  1  0.29442375  0.25041725  0.16828428  1.0
  Ni  Ni397  1  0.29442375  0.58375058  0.16828428  1.0
  Ni  Ni398  1  0.29442375  0.91708392  0.16828428  1.0
  Ni  Ni399  1  0.62775708  0.25041725  0.16828428  1.0
  Ni  Ni400  1  0.62775708  0.58375058  0.16828428  1.0
  Ni  Ni401  1  0.62775708  0.91708392  0.16828428  1.0
  Ni  Ni402  1  0.96109041  0.25041725  0.16828428  1.0
  Ni  Ni403  1  0.96109041  0.58375058  0.16828428  1.0
  Ni  Ni404  1  0.96109041  0.91708392  0.16828428  1.0
  Ni  Ni405  1  0.16638583  0.00006070  0.20653177  1.0
  Ni  Ni406  1  0.16638583  0.33339404  0.20653177  1.0
  Ni  Ni407  1  0.16638583  0.66672737  0.20653177  1.0
  Ni  Ni408  1  0.49971916  0.00006070  0.20653177  1.0
  Ni  Ni409  1  0.49971916  0.33339404  0.20653177  1.0
  Ni  Ni410  1  0.49971916  0.66672737  0.20653177  1.0
  Ni  Ni411  1  0.83305250  0.00006070  0.20653177  1.0
  Ni  Ni412  1  0.83305250  0.33339404  0.20653177  1.0
  Ni  Ni413  1  0.83305250  0.66672737  0.20653177  1.0
  Ni  Ni414  1  0.00020995  0.00006070  0.20611109  1.0
  Ni  Ni415  1  0.00020995  0.33339404  0.20611110  1.0
  Ni  Ni416  1  0.00020995  0.66672737  0.20611109  1.0
  Ni  Ni417  1  0.33354328  0.00006070  0.20611109  1.0
  Ni  Ni418  1  0.33354328  0.33339404  0.20611109  1.0
  Ni  Ni419  1  0.33354328  0.66672737  0.20611109  1.0
  Ni  Ni420  1  0.66687661  0.00006070  0.20611110  1.0
  Ni  Ni421  1  0.66687661  0.33339404  0.20611109  1.0
  Ni  Ni422  1  0.66687661  0.66672737  0.20611110  1.0
  Ni  Ni423  1  0.08880620  0.12621890  0.18896066  1.0
  Ni  Ni424  1  0.08880620  0.45955224  0.18896066  1.0
  Ni  Ni425  1  0.08880620  0.79288557  0.18896066  1.0
  Ni  Ni426  1  0.42213953  0.12621890  0.18896066  1.0
  Ni  Ni427  1  0.42213953  0.45955224  0.18896066  1.0
  Ni  Ni428  1  0.42213953  0.79288557  0.18896066  1.0
  Ni  Ni429  1  0.75547287  0.12621890  0.18896066  1.0
  Ni  Ni430  1  0.75547287  0.45955224  0.18896066  1.0
  Ni  Ni431  1  0.75547287  0.79288557  0.18896066  1.0
  Bi  Bi432  1  0.03138534  0.12396491  0.18799466  1.0
  Bi  Bi433  1  0.03138534  0.45729825  0.18799466  1.0
  Bi  Bi434  1  0.03138534  0.79063158  0.18799466  1.0
  Bi  Bi435  1  0.36471867  0.12396491  0.18799466  1.0
  Bi  Bi436  1  0.36471867  0.45729825  0.18799466  1.0
  Bi  Bi437  1  0.36471867  0.79063158  0.18799466  1.0
  Bi  Bi438  1  0.69805200  0.12396491  0.18799466  1.0
  Bi  Bi439  1  0.69805200  0.45729825  0.18799466  1.0
  Bi  Bi440  1  0.69805200  0.79063158  0.18799466  1.0
  Bi  Bi441  1  0.29686291  0.21012291  0.22491952  1.0
  Bi  Bi442  1  0.29686291  0.54345625  0.22491952  1.0
  Bi  Bi443  1  0.29686291  0.87678958  0.22491952  1.0
  Bi  Bi444  1  0.63019624  0.21012291  0.22491952  1.0
  Bi  Bi445  1  0.63019624  0.54345625  0.22491952  1.0
  Bi  Bi446  1  0.63019624  0.87678958  0.22491952  1.0
  Bi  Bi447  1  0.96352957  0.21012291  0.22491952  1.0
  Bi  Bi448  1  0.96352957  0.54345625  0.22491952  1.0
  Bi  Bi449  1  0.96352957  0.87678958  0.22491952  1.0
  Bi  Bi450  1  0.19948027  0.12626186  0.18897907  1.0
  Bi  Bi451  1  0.19948027  0.45959519  0.18897907  1.0
  Bi  Bi452  1  0.19948027  0.79292852  0.18897907  1.0
  Bi  Bi453  1  0.53281360  0.12626186  0.18897907  1.0
  Bi  Bi454  1  0.53281360  0.45959519  0.18897907  1.0
  Bi  Bi455  1  0.53281360  0.79292852  0.18897907  1.0
  Bi  Bi456  1  0.86614694  0.12626186  0.18897907  1.0
  Bi  Bi457  1  0.86614694  0.45959519  0.18897907  1.0
  Bi  Bi458  1  0.86614694  0.79292852  0.18897907  1.0
  Bi  Bi459  1  0.13378871  0.20653424  0.22338152  1.0
  Bi  Bi460  1  0.13378871  0.53986758  0.22338152  1.0
  Bi  Bi461  1  0.13378871  0.87320091  0.22338152  1.0
  Bi  Bi462  1  0.46712204  0.20653424  0.22338152  1.0
  Bi  Bi463  1  0.46712204  0.53986758  0.22338152  1.0
  Bi  Bi464  1  0.46712204  0.87320091  0.22338152  1.0
  Bi  Bi465  1  0.80045538  0.20653424  0.22338152  1.0
  Bi  Bi466  1  0.80045538  0.53986758  0.22338152  1.0
  Bi  Bi467  1  0.80045538  0.87320091  0.22338152  1.0
  Bi  Bi468  1  0.21543702  0.04141162  0.15261468  1.0
  Bi  Bi469  1  0.21543702  0.37474496  0.15261468  1.0
  Bi  Bi470  1  0.21543702  0.70807829  0.15261468  1.0
  Bi  Bi471  1  0.54877035  0.04141162  0.15261468  1.0
  Bi  Bi472  1  0.54877035  0.37474496  0.15261468  1.0
  Bi  Bi473  1  0.54877035  0.70807829  0.15261468  1.0
  Bi  Bi474  1  0.88210368  0.04141162  0.15261468  1.0
  Bi  Bi475  1  0.88210368  0.37474496  0.15261468  1.0
  Bi  Bi476  1  0.88210368  0.70807829  0.15261468  1.0
  Bi  Bi477  1  0.12078263  0.28981970  0.25907529  1.0
  Bi  Bi478  1  0.12078263  0.62315303  0.25907529  1.0
  Bi  Bi479  1  0.12078263  0.95648637  0.25907529  1.0
  Bi  Bi480  1  0.45411597  0.28981970  0.25907529  1.0
  Bi  Bi481  1  0.45411597  0.62315303  0.25907529  1.0
  Bi  Bi482  1  0.45411597  0.95648637  0.25907529  1.0
  Bi  Bi483  1  0.78744930  0.28981970  0.25907529  1.0
  Bi  Bi484  1  0.78744930  0.62315303  0.25907529  1.0
  Bi  Bi485  1  0.78744930  0.95648637  0.25907529  1.0
  Bi  Bi486  1  0.05516553  0.04056945  0.21734040  1.0
  Bi  Bi487  1  0.05516553  0.37390278  0.21734040  1.0
  Bi  Bi488  1  0.05516553  0.70723612  0.21734040  1.0
  Bi  Bi489  1  0.38849887  0.04056945  0.21734040  1.0
  Bi  Bi490  1  0.38849887  0.37390278  0.21734040  1.0
  Bi  Bi491  1  0.38849887  0.70723612  0.21734040  1.0
  Bi  Bi492  1  0.72183220  0.04056945  0.21734040  1.0
  Bi  Bi493  1  0.72183220  0.37390278  0.21734040  1.0
  Bi  Bi494  1  0.72183220  0.70723612  0.21734040  1.0
  Bi  Bi495  1  0.12818795  0.29148315  0.18227537  1.0
  Bi  Bi496  1  0.12818795  0.62481648  0.18227537  1.0
  Bi  Bi497  1  0.12818795  0.95814981  0.18227537  1.0
  Bi  Bi498  1  0.46152128  0.29148315  0.18227537  1.0
  Bi  Bi499  1  0.46152128  0.62481648  0.18227537  1.0
  Bi  Bi500  1  0.46152128  0.95814981  0.18227537  1.0
  Bi  Bi501  1  0.79485461  0.29148315  0.18227537  1.0
  Bi  Bi502  1  0.79485461  0.62481648  0.18227537  1.0
  Bi  Bi503  1  0.79485461  0.95814981  0.18227537  1.0
  Bi  Bi504  1  0.20703438  0.04056945  0.23002425  1.0
  Bi  Bi505  1  0.20703438  0.37390278  0.23002425  1.0
  Bi  Bi506  1  0.20703438  0.70723612  0.23002425  1.0
  Bi  Bi507  1  0.54036771  0.04056945  0.23002425  1.0
  Bi  Bi508  1  0.54036771  0.37390278  0.23002425  1.0
  Bi  Bi509  1  0.54036771  0.70723612  0.23002425  1.0
  Bi  Bi510  1  0.87370104  0.04056945  0.23002425  1.0
  Bi  Bi511  1  0.87370104  0.37390278  0.23002425  1.0
  Bi  Bi512  1  0.87370104  0.70723612  0.23002425  1.0
  Bi  Bi513  1  0.28065802  0.29148315  0.19444387  1.0
  Bi  Bi514  1  0.28065802  0.62481648  0.19444388  1.0
  Bi  Bi515  1  0.28065802  0.95814981  0.19444387  1.0
  Bi  Bi516  1  0.61399135  0.29148315  0.19444387  1.0
  Bi  Bi517  1  0.61399135  0.62481648  0.19444388  1.0
  Bi  Bi518  1  0.61399135  0.95814981  0.19444387  1.0
  Bi  Bi519  1  0.94732469  0.29148315  0.19444387  1.0
  Bi  Bi520  1  0.94732469  0.62481648  0.19444387  1.0
  Bi  Bi521  1  0.94732469  0.95814981  0.19444387  1.0
  Bi  Bi522  1  0.05485704  0.04082674  0.15236402  1.0
  Bi  Bi523  1  0.05485704  0.37416007  0.15236402  1.0
  Bi  Bi524  1  0.05485704  0.70749340  0.15236402  1.0
  Bi  Bi525  1  0.38819037  0.04082674  0.15236402  1.0
  Bi  Bi526  1  0.38819037  0.37416007  0.15236402  1.0
  Bi  Bi527  1  0.38819037  0.70749340  0.15236402  1.0
  Bi  Bi528  1  0.72152370  0.04082674  0.15236402  1.0
  Bi  Bi529  1  0.72152370  0.37416007  0.15236402  1.0
  Bi  Bi530  1  0.72152370  0.70749340  0.15236402  1.0
  Bi  Bi531  1  0.27988444  0.29136184  0.25973620  1.0
  Bi  Bi532  1  0.27988444  0.62469518  0.25973620  1.0
  Bi  Bi533  1  0.27988444  0.95802851  0.25973620  1.0
  Bi  Bi534  1  0.61321777  0.29136184  0.25973620  1.0
  Bi  Bi535  1  0.61321777  0.62469518  0.25973620  1.0
  Bi  Bi536  1  0.61321777  0.95802851  0.25973620  1.0
  Bi  Bi537  1  0.94655111  0.29136184  0.25973620  1.0
  Bi  Bi538  1  0.94655111  0.62469518  0.25973620  1.0
  Bi  Bi539  1  0.94655111  0.95802851  0.25973620  1.0
  Bi  Bi540  1  0.03284167  0.12307709  0.26541704  1.0
  Bi  Bi541  1  0.03284167  0.45641043  0.26541704  1.0
  Bi  Bi542  1  0.03284167  0.78974376  0.26541704  1.0
  Bi  Bi543  1  0.36617500  0.12307709  0.26541704  1.0
  Bi  Bi544  1  0.36617500  0.45641043  0.26541704  1.0
  Bi  Bi545  1  0.36617500  0.78974376  0.26541704  1.0
  Bi  Bi546  1  0.69950833  0.12307709  0.26541704  1.0
  Bi  Bi547  1  0.69950833  0.45641043  0.26541704  1.0
  Bi  Bi548  1  0.69950833  0.78974376  0.26541704  1.0
  Bi  Bi549  1  0.12864773  0.20879518  0.15511296  1.0
  Bi  Bi550  1  0.12864773  0.54212851  0.15511296  1.0
  Bi  Bi551  1  0.12864773  0.87546184  0.15511296  1.0
  Bi  Bi552  1  0.46198107  0.20879518  0.15511296  1.0
  Bi  Bi553  1  0.46198107  0.54212851  0.15511296  1.0
  Bi  Bi554  1  0.46198107  0.87546184  0.15511296  1.0
  Bi  Bi555  1  0.79531440  0.20879518  0.15511296  1.0
  Bi  Bi556  1  0.79531440  0.54212851  0.15511296  1.0
  Bi  Bi557  1  0.79531440  0.87546184  0.15511296  1.0
  Bi  Bi558  1  0.21438170  0.12307709  0.25266844  1.0
  Bi  Bi559  1  0.21438170  0.45641043  0.25266844  1.0
  Bi  Bi560  1  0.21438170  0.78974376  0.25266844  1.0
  Bi  Bi561  1  0.54771503  0.12307709  0.25266844  1.0
  Bi  Bi562  1  0.54771503  0.45641043  0.25266844  1.0
  Bi  Bi563  1  0.54771503  0.78974376  0.25266844  1.0
  Bi  Bi564  1  0.88104836  0.12307709  0.25266844  1.0
  Bi  Bi565  1  0.88104836  0.45641043  0.25266844  1.0
  Bi  Bi566  1  0.88104836  0.78974376  0.25266844  1.0
  Bi  Bi567  1  0.30042682  0.20879518  0.15073088  1.0
  Bi  Bi568  1  0.30042682  0.54212851  0.15073088  1.0
  Bi  Bi569  1  0.30042682  0.87546184  0.15073088  1.0
  Bi  Bi570  1  0.63376015  0.20879518  0.15073088  1.0
  Bi  Bi571  1  0.63376015  0.54212851  0.15073088  1.0
  Bi  Bi572  1  0.63376015  0.87546184  0.15073088  1.0
  Bi  Bi573  1  0.96709349  0.20879518  0.15073088  1.0
  Bi  Bi574  1  0.96709349  0.54212851  0.15073088  1.0
  Bi  Bi575  1  0.96709349  0.87546184  0.15073088  1.0
  Ni  Ni576  1  0.08499681  0.16451091  0.34822866  1.0
  Ni  Ni577  1  0.08499681  0.49784424  0.34822866  1.0
  Ni  Ni578  1  0.08499681  0.83117758  0.34822866  1.0
  Ni  Ni579  1  0.41833014  0.16451091  0.34822866  1.0
  Ni  Ni580  1  0.41833014  0.49784424  0.34822866  1.0
  Ni  Ni581  1  0.41833014  0.83117758  0.34822866  1.0
  Ni  Ni582  1  0.75166348  0.16451091  0.34822866  1.0
  Ni  Ni583  1  0.75166348  0.49784424  0.34822866  1.0
  Ni  Ni584  1  0.75166348  0.83117758  0.34822866  1.0
  Ni  Ni585  1  0.24162085  0.17288136  0.35181600  1.0
  Ni  Ni586  1  0.24162085  0.50621470  0.35181600  1.0
  Ni  Ni587  1  0.24162085  0.83954803  0.35181600  1.0
  Ni  Ni588  1  0.57495418  0.17288136  0.35181600  1.0
  Ni  Ni589  1  0.57495418  0.50621470  0.35181600  1.0
  Ni  Ni590  1  0.57495418  0.83954803  0.35181600  1.0
  Ni  Ni591  1  0.90828751  0.17288136  0.35181600  1.0
  Ni  Ni592  1  0.90828751  0.50621470  0.35181600  1.0
  Ni  Ni593  1  0.90828751  0.83954803  0.35181600  1.0
  Ni  Ni594  1  0.32748885  0.04084589  0.29522937  1.0
  Ni  Ni595  1  0.32748885  0.37417923  0.29522937  1.0
  Ni  Ni596  1  0.32748885  0.70751256  0.29522937  1.0
  Ni  Ni597  1  0.66082219  0.04084589  0.29522937  1.0
  Ni  Ni598  1  0.66082219  0.37417923  0.29522937  1.0
  Ni  Ni599  1  0.66082219  0.70751256  0.29522937  1.0
  Ni  Ni600  1  0.99415552  0.04084589  0.29522937  1.0
  Ni  Ni601  1  0.99415552  0.37417923  0.29522937  1.0
  Ni  Ni602  1  0.99415552  0.70751256  0.29522937  1.0
  Ni  Ni603  1  0.00623274  0.29208067  0.40290142  1.0
  Ni  Ni604  1  0.00623274  0.62541401  0.40290142  1.0
  Ni  Ni605  1  0.00623274  0.95874734  0.40290142  1.0
  Ni  Ni606  1  0.33956607  0.29208067  0.40290142  1.0
  Ni  Ni607  1  0.33956607  0.62541401  0.40290142  1.0
  Ni  Ni608  1  0.33956607  0.95874734  0.40290142  1.0
  Ni  Ni609  1  0.67289940  0.29208067  0.40290142  1.0
  Ni  Ni610  1  0.67289940  0.62541401  0.40290142  1.0
  Ni  Ni611  1  0.67289940  0.95874734  0.40290142  1.0
  Ni  Ni612  1  0.20976976  0.08292331  0.31326255  1.0
  Ni  Ni613  1  0.20976976  0.41625664  0.31326255  1.0
  Ni  Ni614  1  0.20976976  0.74958997  0.31326255  1.0
  Ni  Ni615  1  0.54310309  0.08292331  0.31326255  1.0
  Ni  Ni616  1  0.54310309  0.41625664  0.31326255  1.0
  Ni  Ni617  1  0.54310309  0.74958997  0.31326255  1.0
  Ni  Ni618  1  0.87643642  0.08292331  0.31326255  1.0
  Ni  Ni619  1  0.87643642  0.41625664  0.31326255  1.0
  Ni  Ni620  1  0.87643642  0.74958997  0.31326255  1.0
  Ni  Ni621  1  0.11998703  0.25215451  0.38579020  1.0
  Ni  Ni622  1  0.11998703  0.58548784  0.38579020  1.0
  Ni  Ni623  1  0.11998703  0.91882118  0.38579020  1.0
  Ni  Ni624  1  0.45332036  0.25215451  0.38579020  1.0
  Ni  Ni625  1  0.45332036  0.58548784  0.38579020  1.0
  Ni  Ni626  1  0.45332036  0.91882118  0.38579020  1.0
  Ni  Ni627  1  0.78665369  0.25215451  0.38579020  1.0
  Ni  Ni628  1  0.78665369  0.58548784  0.38579020  1.0
  Ni  Ni629  1  0.78665369  0.91882118  0.38579020  1.0
  Ni  Ni630  1  0.25567535  0.16586454  0.41641936  1.0
  Ni  Ni631  1  0.25567535  0.49919788  0.41641936  1.0
  Ni  Ni632  1  0.25567535  0.83253121  0.41641936  1.0
  Ni  Ni633  1  0.58900868  0.16586454  0.41641936  1.0
  Ni  Ni634  1  0.58900868  0.49919788  0.41641936  1.0
  Ni  Ni635  1  0.58900868  0.83253121  0.41641936  1.0
  Ni  Ni636  1  0.92234201  0.16586454  0.41641936  1.0
  Ni  Ni637  1  0.92234201  0.49919788  0.41641936  1.0
  Ni  Ni638  1  0.92234201  0.83253121  0.41641936  1.0
  Ni  Ni639  1  0.08010000  0.16586454  0.42405537  1.0
  Ni  Ni640  1  0.08010000  0.49919788  0.42405537  1.0
  Ni  Ni641  1  0.08010000  0.83253121  0.42405537  1.0
  Ni  Ni642  1  0.41343333  0.16586454  0.42405537  1.0
  Ni  Ni643  1  0.41343333  0.49919788  0.42405537  1.0
  Ni  Ni644  1  0.41343333  0.83253121  0.42405537  1.0
  Ni  Ni645  1  0.74676667  0.16586454  0.42405537  1.0
  Ni  Ni646  1  0.74676667  0.49919788  0.42405537  1.0
  Ni  Ni647  1  0.74676667  0.83253121  0.42405537  1.0
  Ni  Ni648  1  0.33306011  0.00027197  0.42069769  1.0
  Ni  Ni649  1  0.33306011  0.33360531  0.42069769  1.0
  Ni  Ni650  1  0.33306011  0.66693864  0.42069769  1.0
  Ni  Ni651  1  0.66639344  0.00027197  0.42069769  1.0
  Ni  Ni652  1  0.66639344  0.33360531  0.42069769  1.0
  Ni  Ni653  1  0.66639344  0.66693864  0.42069769  1.0
  Ni  Ni654  1  0.99972677  0.00027197  0.42069769  1.0
  Ni  Ni655  1  0.99972677  0.33360531  0.42069769  1.0
  Ni  Ni656  1  0.99972677  0.66693864  0.42069769  1.0
  Ni  Ni657  1  0.03932073  0.08387028  0.38633928  1.0
  Ni  Ni658  1  0.03932073  0.41720362  0.38633928  1.0
  Ni  Ni659  1  0.03932073  0.75053695  0.38633928  1.0
  Ni  Ni660  1  0.37265406  0.08387028  0.38633928  1.0
  Ni  Ni661  1  0.37265406  0.41720362  0.38633928  1.0
  Ni  Ni662  1  0.37265406  0.75053695  0.38633928  1.0
  Ni  Ni663  1  0.70598739  0.08387028  0.38633928  1.0
  Ni  Ni664  1  0.70598739  0.41720362  0.38633928  1.0
  Ni  Ni665  1  0.70598739  0.75053695  0.38633928  1.0
  Ni  Ni666  1  0.12198052  0.25041725  0.31609276  1.0
  Ni  Ni667  1  0.12198052  0.58375058  0.31609276  1.0
  Ni  Ni668  1  0.12198052  0.91708392  0.31609276  1.0
  Ni  Ni669  1  0.45531386  0.25041725  0.31609276  1.0
  Ni  Ni670  1  0.45531386  0.58375058  0.31609276  1.0
  Ni  Ni671  1  0.45531386  0.91708392  0.31609276  1.0
  Ni  Ni672  1  0.78864719  0.25041725  0.31609276  1.0
  Ni  Ni673  1  0.78864719  0.58375058  0.31609276  1.0
  Ni  Ni674  1  0.78864719  0.91708392  0.31609276  1.0
  Ni  Ni675  1  0.20888614  0.08387028  0.38385465  1.0
  Ni  Ni676  1  0.20888614  0.41720362  0.38385465  1.0
  Ni  Ni677  1  0.20888614  0.75053695  0.38385465  1.0
  Ni  Ni678  1  0.54221947  0.08387028  0.38385465  1.0
  Ni  Ni679  1  0.54221947  0.41720362  0.38385465  1.0
  Ni  Ni680  1  0.54221947  0.75053695  0.38385465  1.0
  Ni  Ni681  1  0.87555280  0.08387028  0.38385465  1.0
  Ni  Ni682  1  0.87555280  0.41720362  0.38385465  1.0
  Ni  Ni683  1  0.87555280  0.75053695  0.38385465  1.0
  Ni  Ni684  1  0.29442375  0.25041725  0.31114143  1.0
  Ni  Ni685  1  0.29442375  0.58375058  0.31114143  1.0
  Ni  Ni686  1  0.29442375  0.91708392  0.31114143  1.0
  Ni  Ni687  1  0.62775708  0.25041725  0.31114143  1.0
  Ni  Ni688  1  0.62775708  0.58375058  0.31114143  1.0
  Ni  Ni689  1  0.62775708  0.91708392  0.31114143  1.0
  Ni  Ni690  1  0.96109041  0.25041725  0.31114143  1.0
  Ni  Ni691  1  0.96109041  0.58375058  0.31114143  1.0
  Ni  Ni692  1  0.96109041  0.91708392  0.31114143  1.0
  Ni  Ni693  1  0.16638583  0.00006070  0.34938891  1.0
  Ni  Ni694  1  0.16638583  0.33339404  0.34938891  1.0
  Ni  Ni695  1  0.16638583  0.66672737  0.34938891  1.0
  Ni  Ni696  1  0.49971916  0.00006070  0.34938891  1.0
  Ni  Ni697  1  0.49971916  0.33339404  0.34938891  1.0
  Ni  Ni698  1  0.49971916  0.66672737  0.34938891  1.0
  Ni  Ni699  1  0.83305250  0.00006070  0.34938891  1.0
  Ni  Ni700  1  0.83305250  0.33339404  0.34938891  1.0
  Ni  Ni701  1  0.83305250  0.66672737  0.34938891  1.0
  Ni  Ni702  1  0.00020995  0.00006070  0.34896824  1.0
  Ni  Ni703  1  0.00020995  0.33339404  0.34896824  1.0
  Ni  Ni704  1  0.00020995  0.66672737  0.34896824  1.0
  Ni  Ni705  1  0.33354328  0.00006070  0.34896824  1.0
  Ni  Ni706  1  0.33354328  0.33339404  0.34896824  1.0
  Ni  Ni707  1  0.33354328  0.66672737  0.34896824  1.0
  Ni  Ni708  1  0.66687661  0.00006070  0.34896824  1.0
  Ni  Ni709  1  0.66687661  0.33339404  0.34896824  1.0
  Ni  Ni710  1  0.66687661  0.66672737  0.34896824  1.0
  Ni  Ni711  1  0.08880620  0.12621890  0.33181780  1.0
  Ni  Ni712  1  0.08880620  0.45955224  0.33181780  1.0
  Ni  Ni713  1  0.08880620  0.79288557  0.33181780  1.0
  Ni  Ni714  1  0.42213953  0.12621890  0.33181780  1.0
  Ni  Ni715  1  0.42213953  0.45955224  0.33181780  1.0
  Ni  Ni716  1  0.42213953  0.79288557  0.33181780  1.0
  Ni  Ni717  1  0.75547287  0.12621890  0.33181780  1.0
  Ni  Ni718  1  0.75547287  0.45955224  0.33181780  1.0
  Ni  Ni719  1  0.75547287  0.79288557  0.33181780  1.0
  Bi  Bi720  1  0.03138534  0.12396491  0.33085181  1.0
  Bi  Bi721  1  0.03138534  0.45729825  0.33085181  1.0
  Bi  Bi722  1  0.03138534  0.79063158  0.33085181  1.0
  Bi  Bi723  1  0.36471867  0.12396491  0.33085181  1.0
  Bi  Bi724  1  0.36471867  0.45729825  0.33085181  1.0
  Bi  Bi725  1  0.36471867  0.79063158  0.33085181  1.0
  Bi  Bi726  1  0.69805200  0.12396491  0.33085181  1.0
  Bi  Bi727  1  0.69805200  0.45729825  0.33085181  1.0
  Bi  Bi728  1  0.69805200  0.79063158  0.33085181  1.0
  Bi  Bi729  1  0.29686291  0.21012291  0.36777666  1.0
  Bi  Bi730  1  0.29686291  0.54345625  0.36777666  1.0
  Bi  Bi731  1  0.29686291  0.87678958  0.36777666  1.0
  Bi  Bi732  1  0.63019624  0.21012291  0.36777666  1.0
  Bi  Bi733  1  0.63019624  0.54345625  0.36777666  1.0
  Bi  Bi734  1  0.63019624  0.87678958  0.36777666  1.0
  Bi  Bi735  1  0.96352957  0.21012291  0.36777666  1.0
  Bi  Bi736  1  0.96352957  0.54345625  0.36777666  1.0
  Bi  Bi737  1  0.96352957  0.87678958  0.36777666  1.0
  Bi  Bi738  1  0.19948027  0.12626186  0.33183621  1.0
  Bi  Bi739  1  0.19948027  0.45959519  0.33183621  1.0
  Bi  Bi740  1  0.19948027  0.79292852  0.33183621  1.0
  Bi  Bi741  1  0.53281360  0.12626186  0.33183621  1.0
  Bi  Bi742  1  0.53281360  0.45959519  0.33183621  1.0
  Bi  Bi743  1  0.53281360  0.79292852  0.33183621  1.0
  Bi  Bi744  1  0.86614694  0.12626186  0.33183621  1.0
  Bi  Bi745  1  0.86614694  0.45959519  0.33183621  1.0
  Bi  Bi746  1  0.86614694  0.79292852  0.33183621  1.0
  Bi  Bi747  1  0.13378871  0.20653424  0.36623866  1.0
  Bi  Bi748  1  0.13378871  0.53986758  0.36623866  1.0
  Bi  Bi749  1  0.13378871  0.87320091  0.36623866  1.0
  Bi  Bi750  1  0.46712204  0.20653424  0.36623866  1.0
  Bi  Bi751  1  0.46712204  0.53986758  0.36623866  1.0
  Bi  Bi752  1  0.46712204  0.87320091  0.36623866  1.0
  Bi  Bi753  1  0.80045538  0.20653424  0.36623866  1.0
  Bi  Bi754  1  0.80045538  0.53986758  0.36623866  1.0
  Bi  Bi755  1  0.80045538  0.87320091  0.36623866  1.0
  Bi  Bi756  1  0.21543702  0.04141162  0.29547182  1.0
  Bi  Bi757  1  0.21543702  0.37474496  0.29547182  1.0
  Bi  Bi758  1  0.21543702  0.70807829  0.29547182  1.0
  Bi  Bi759  1  0.54877035  0.04141162  0.29547182  1.0
  Bi  Bi760  1  0.54877035  0.37474496  0.29547182  1.0
  Bi  Bi761  1  0.54877035  0.70807829  0.29547183  1.0
  Bi  Bi762  1  0.88210368  0.04141162  0.29547183  1.0
  Bi  Bi763  1  0.88210368  0.37474496  0.29547182  1.0
  Bi  Bi764  1  0.88210368  0.70807829  0.29547183  1.0
  Bi  Bi765  1  0.12078263  0.28981970  0.40193243  1.0
  Bi  Bi766  1  0.12078263  0.62315303  0.40193243  1.0
  Bi  Bi767  1  0.12078263  0.95648637  0.40193243  1.0
  Bi  Bi768  1  0.45411597  0.28981970  0.40193243  1.0
  Bi  Bi769  1  0.45411597  0.62315303  0.40193243  1.0
  Bi  Bi770  1  0.45411597  0.95648637  0.40193243  1.0
  Bi  Bi771  1  0.78744930  0.28981970  0.40193243  1.0
  Bi  Bi772  1  0.78744930  0.62315303  0.40193243  1.0
  Bi  Bi773  1  0.78744930  0.95648637  0.40193243  1.0
  Bi  Bi774  1  0.05516553  0.04056945  0.36019754  1.0
  Bi  Bi775  1  0.05516553  0.37390278  0.36019754  1.0
  Bi  Bi776  1  0.05516553  0.70723612  0.36019754  1.0
  Bi  Bi777  1  0.38849887  0.04056945  0.36019754  1.0
  Bi  Bi778  1  0.38849887  0.37390278  0.36019754  1.0
  Bi  Bi779  1  0.38849887  0.70723612  0.36019754  1.0
  Bi  Bi780  1  0.72183220  0.04056945  0.36019754  1.0
  Bi  Bi781  1  0.72183220  0.37390278  0.36019754  1.0
  Bi  Bi782  1  0.72183220  0.70723612  0.36019754  1.0
  Bi  Bi783  1  0.12818795  0.29148315  0.32513251  1.0
  Bi  Bi784  1  0.12818795  0.62481648  0.32513251  1.0
  Bi  Bi785  1  0.12818795  0.95814981  0.32513251  1.0
  Bi  Bi786  1  0.46152128  0.29148315  0.32513251  1.0
  Bi  Bi787  1  0.46152128  0.62481648  0.32513251  1.0
  Bi  Bi788  1  0.46152128  0.95814981  0.32513251  1.0
  Bi  Bi789  1  0.79485461  0.29148315  0.32513251  1.0
  Bi  Bi790  1  0.79485461  0.62481648  0.32513251  1.0
  Bi  Bi791  1  0.79485461  0.95814981  0.32513251  1.0
  Bi  Bi792  1  0.20703438  0.04056945  0.37288139  1.0
  Bi  Bi793  1  0.20703438  0.37390278  0.37288139  1.0
  Bi  Bi794  1  0.20703438  0.70723612  0.37288139  1.0
  Bi  Bi795  1  0.54036771  0.04056945  0.37288139  1.0
  Bi  Bi796  1  0.54036771  0.37390278  0.37288139  1.0
  Bi  Bi797  1  0.54036771  0.70723612  0.37288139  1.0
  Bi  Bi798  1  0.87370104  0.04056945  0.37288139  1.0
  Bi  Bi799  1  0.87370104  0.37390278  0.37288139  1.0
  Bi  Bi800  1  0.87370104  0.70723612  0.37288139  1.0
  Bi  Bi801  1  0.28065802  0.29148315  0.33730102  1.0
  Bi  Bi802  1  0.28065802  0.62481648  0.33730102  1.0
  Bi  Bi803  1  0.28065802  0.95814981  0.33730102  1.0
  Bi  Bi804  1  0.61399135  0.29148315  0.33730102  1.0
  Bi  Bi805  1  0.61399135  0.62481648  0.33730102  1.0
  Bi  Bi806  1  0.61399135  0.95814981  0.33730102  1.0
  Bi  Bi807  1  0.94732469  0.29148315  0.33730102  1.0
  Bi  Bi808  1  0.94732469  0.62481648  0.33730102  1.0
  Bi  Bi809  1  0.94732469  0.95814981  0.33730102  1.0
  Bi  Bi810  1  0.05485704  0.04082674  0.29522116  1.0
  Bi  Bi811  1  0.05485704  0.37416007  0.29522116  1.0
  Bi  Bi812  1  0.05485704  0.70749340  0.29522116  1.0
  Bi  Bi813  1  0.38819037  0.04082674  0.29522116  1.0
  Bi  Bi814  1  0.38819037  0.37416007  0.29522116  1.0
  Bi  Bi815  1  0.38819037  0.70749340  0.29522116  1.0
  Bi  Bi816  1  0.72152370  0.04082674  0.29522116  1.0
  Bi  Bi817  1  0.72152370  0.37416007  0.29522116  1.0
  Bi  Bi818  1  0.72152370  0.70749340  0.29522116  1.0
  Bi  Bi819  1  0.27988444  0.29136184  0.40259335  1.0
  Bi  Bi820  1  0.27988444  0.62469518  0.40259335  1.0
  Bi  Bi821  1  0.27988444  0.95802851  0.40259335  1.0
  Bi  Bi822  1  0.61321777  0.29136184  0.40259335  1.0
  Bi  Bi823  1  0.61321777  0.62469518  0.40259335  1.0
  Bi  Bi824  1  0.61321777  0.95802851  0.40259335  1.0
  Bi  Bi825  1  0.94655111  0.29136184  0.40259335  1.0
  Bi  Bi826  1  0.94655111  0.62469518  0.40259335  1.0
  Bi  Bi827  1  0.94655111  0.95802851  0.40259335  1.0
  Bi  Bi828  1  0.03284167  0.12307709  0.40827418  1.0
  Bi  Bi829  1  0.03284167  0.45641043  0.40827418  1.0
  Bi  Bi830  1  0.03284167  0.78974376  0.40827418  1.0
  Bi  Bi831  1  0.36617500  0.12307709  0.40827418  1.0
  Bi  Bi832  1  0.36617500  0.45641043  0.40827418  1.0
  Bi  Bi833  1  0.36617500  0.78974376  0.40827418  1.0
  Bi  Bi834  1  0.69950833  0.12307709  0.40827418  1.0
  Bi  Bi835  1  0.69950833  0.45641043  0.40827418  1.0
  Bi  Bi836  1  0.69950833  0.78974376  0.40827418  1.0
  Bi  Bi837  1  0.12864773  0.20879518  0.29797010  1.0
  Bi  Bi838  1  0.12864773  0.54212851  0.29797010  1.0
  Bi  Bi839  1  0.12864773  0.87546184  0.29797010  1.0
  Bi  Bi840  1  0.46198107  0.20879518  0.29797010  1.0
  Bi  Bi841  1  0.46198107  0.54212851  0.29797010  1.0
  Bi  Bi842  1  0.46198107  0.87546184  0.29797010  1.0
  Bi  Bi843  1  0.79531440  0.20879518  0.29797010  1.0
  Bi  Bi844  1  0.79531440  0.54212851  0.29797010  1.0
  Bi  Bi845  1  0.79531440  0.87546184  0.29797010  1.0
  Bi  Bi846  1  0.21438170  0.12307709  0.39552558  1.0
  Bi  Bi847  1  0.21438170  0.45641043  0.39552559  1.0
  Bi  Bi848  1  0.21438170  0.78974376  0.39552559  1.0
  Bi  Bi849  1  0.54771503  0.12307709  0.39552558  1.0
  Bi  Bi850  1  0.54771503  0.45641043  0.39552559  1.0
  Bi  Bi851  1  0.54771503  0.78974376  0.39552558  1.0
  Bi  Bi852  1  0.88104836  0.12307709  0.39552559  1.0
  Bi  Bi853  1  0.88104836  0.45641043  0.39552558  1.0
  Bi  Bi854  1  0.88104836  0.78974376  0.39552559  1.0
  Bi  Bi855  1  0.30042682  0.20879518  0.29358802  1.0
  Bi  Bi856  1  0.30042682  0.54212851  0.29358802  1.0
  Bi  Bi857  1  0.30042682  0.87546184  0.29358802  1.0
  Bi  Bi858  1  0.63376015  0.20879518  0.29358802  1.0
  Bi  Bi859  1  0.63376015  0.54212851  0.29358802  1.0
  Bi  Bi860  1  0.63376015  0.87546184  0.29358802  1.0
  Bi  Bi861  1  0.96709349  0.20879518  0.29358802  1.0
  Bi  Bi862  1  0.96709349  0.54212851  0.29358802  1.0
  Bi  Bi863  1  0.96709349  0.87546184  0.29358802  1.0
