# generated using pymatgen
data_NiBi3
_symmetry_space_group_name_H-M   'P 1'
_cell_length_a   43.75379299
_cell_length_b   45.49787555
_cell_length_c   28.90258819
_cell_angle_alpha   75.60998054
_cell_angle_beta   82.64647331
_cell_angle_gamma   75.88199643
_symmetry_Int_Tables_number   1
_chemical_formula_structural   NiBi3
_chemical_formula_sum   'Ni216 Bi648'
_cell_volume   53908.86297440
_cell_formula_units_Z   216
loop_
 _symmetry_equiv_pos_site_id
 _symmetry_equiv_pos_as_xyz
  1  'x, y, z'
loop_
 _atom_site_type_symbol
 _atom_site_label
 _atom_site_symmetry_multiplicity
 _atom_site_fract_x
 _atom_site_fract_y
 _atom_site_fract_z
 _atom_site_occupancy
  Bi  Bi0  1  0.09871167  0.20555000  0.97777500  1.0
  Bi  Bi1  1  0.09871167  0.53888333  0.97777500  1.0
  Bi  Bi2  1  0.09871167  0.87221667  0.97777500  1.0
  Bi  Bi3  1  0.43204500  0.20555000  0.97777500  1.0
  Bi  Bi4  1  0.43204500  0.53888333  0.97777500  1.0
  Bi  Bi5  1  0.43204500  0.87221667  0.97777500  1.0
  Bi  Bi6  1  0.76537833  0.20555000  0.97777500  1.0
  Bi  Bi7  1  0.76537833  0.53888333  0.97777500  1.0
  Bi  Bi8  1  0.76537833  0.87221667  0.97777500  1.0
  Bi  Bi9  1  0.26537833  0.06269286  0.90634643  1.0
  Bi  Bi10  1  0.26537833  0.39602619  0.90634643  1.0
  Bi  Bi11  1  0.26537833  0.72935952  0.90634643  1.0
  Bi  Bi12  1  0.59871167  0.06269286  0.90634643  1.0
  Bi  Bi13  1  0.59871167  0.39602619  0.90634643  1.0
  Bi  Bi14  1  0.59871167  0.72935952  0.90634643  1.0
  Bi  Bi15  1  0.93204500  0.06269286  0.90634643  1.0
  Bi  Bi16  1  0.93204500  0.39602619  0.90634643  1.0
  Bi  Bi17  1  0.93204500  0.72935952  0.90634643  1.0
  Bi  Bi18  1  0.23462167  0.17540238  0.87936786  1.0
  Bi  Bi19  1  0.23462167  0.50873571  0.87936786  1.0
  Bi  Bi20  1  0.23462167  0.84206905  0.87936786  1.0
  Bi  Bi21  1  0.56795500  0.17540238  0.87936786  1.0
  Bi  Bi22  1  0.56795500  0.50873571  0.87936786  1.0
  Bi  Bi23  1  0.56795500  0.84206905  0.87936786  1.0
  Bi  Bi24  1  0.90128833  0.17540238  0.87936786  1.0
  Bi  Bi25  1  0.90128833  0.50873571  0.87936786  1.0
  Bi  Bi26  1  0.90128833  0.84206905  0.87936786  1.0
  Bi  Bi27  1  0.06795500  0.31825952  0.95079643  1.0
  Bi  Bi28  1  0.06795500  0.65159286  0.95079643  1.0
  Bi  Bi29  1  0.06795500  0.98492619  0.95079643  1.0
  Bi  Bi30  1  0.40128833  0.31825952  0.95079643  1.0
  Bi  Bi31  1  0.40128833  0.65159286  0.95079643  1.0
  Bi  Bi32  1  0.40128833  0.98492619  0.95079643  1.0
  Bi  Bi33  1  0.73462167  0.31825952  0.95079643  1.0
  Bi  Bi34  1  0.73462167  0.65159286  0.95079643  1.0
  Bi  Bi35  1  0.73462167  0.98492619  0.95079643  1.0
  Bi  Bi36  1  0.30185833  0.23681857  0.99340929  1.0
  Bi  Bi37  1  0.30185833  0.57015190  0.99340929  1.0
  Bi  Bi38  1  0.30185833  0.90348524  0.99340929  1.0
  Bi  Bi39  1  0.63519167  0.23681857  0.99340929  1.0
  Bi  Bi40  1  0.63519167  0.57015190  0.99340929  1.0
  Bi  Bi41  1  0.63519167  0.90348524  0.99340929  1.0
  Bi  Bi42  1  0.96852500  0.23681857  0.99340929  1.0
  Bi  Bi43  1  0.96852500  0.57015190  0.99340929  1.0
  Bi  Bi44  1  0.96852500  0.90348524  0.99340929  1.0
  Bi  Bi45  1  0.13519167  0.09396143  0.92198071  1.0
  Bi  Bi46  1  0.13519167  0.42729476  0.92198071  1.0
  Bi  Bi47  1  0.13519167  0.76062810  0.92198071  1.0
  Bi  Bi48  1  0.46852500  0.09396143  0.92198071  1.0
  Bi  Bi49  1  0.46852500  0.42729476  0.92198071  1.0
  Bi  Bi50  1  0.46852500  0.76062810  0.92198071  1.0
  Bi  Bi51  1  0.80185833  0.09396143  0.92198071  1.0
  Bi  Bi52  1  0.80185833  0.42729476  0.92198071  1.0
  Bi  Bi53  1  0.80185833  0.76062810  0.92198071  1.0
  Bi  Bi54  1  0.03147500  0.14413381  0.86373357  1.0
  Bi  Bi55  1  0.03147500  0.47746714  0.86373357  1.0
  Bi  Bi56  1  0.03147500  0.81080048  0.86373357  1.0
  Bi  Bi57  1  0.36480833  0.14413381  0.86373357  1.0
  Bi  Bi58  1  0.36480833  0.47746714  0.86373357  1.0
  Bi  Bi59  1  0.36480833  0.81080048  0.86373357  1.0
  Bi  Bi60  1  0.69814167  0.14413381  0.86373357  1.0
  Bi  Bi61  1  0.69814167  0.47746714  0.86373357  1.0
  Bi  Bi62  1  0.69814167  0.81080048  0.86373357  1.0
  Bi  Bi63  1  0.19814167  0.28699095  0.93516214  1.0
  Bi  Bi64  1  0.19814167  0.62032429  0.93516214  1.0
  Bi  Bi65  1  0.19814167  0.95365762  0.93516214  1.0
  Bi  Bi66  1  0.53147500  0.28699095  0.93516214  1.0
  Bi  Bi67  1  0.53147500  0.62032429  0.93516214  1.0
  Bi  Bi68  1  0.53147500  0.95365762  0.93516214  1.0
  Bi  Bi69  1  0.86480833  0.28699095  0.93516214  1.0
  Bi  Bi70  1  0.86480833  0.62032429  0.93516214  1.0
  Bi  Bi71  1  0.86480833  0.95365762  0.93516214  1.0
  Bi  Bi72  1  0.03532783  0.17464614  0.96232307  1.0
  Bi  Bi73  1  0.03532783  0.50797948  0.96232307  1.0
  Bi  Bi74  1  0.03532783  0.84131281  0.96232307  1.0
  Bi  Bi75  1  0.36866117  0.17464614  0.96232307  1.0
  Bi  Bi76  1  0.36866117  0.50797948  0.96232307  1.0
  Bi  Bi77  1  0.36866117  0.84131281  0.96232307  1.0
  Bi  Bi78  1  0.70199450  0.17464614  0.96232307  1.0
  Bi  Bi79  1  0.70199450  0.50797948  0.96232307  1.0
  Bi  Bi80  1  0.70199450  0.84131281  0.96232307  1.0
  Bi  Bi81  1  0.20199450  0.03178900  0.89089450  1.0
  Bi  Bi82  1  0.20199450  0.36512233  0.89089450  1.0
  Bi  Bi83  1  0.20199450  0.69845567  0.89089450  1.0
  Bi  Bi84  1  0.53532783  0.03178900  0.89089450  1.0
  Bi  Bi85  1  0.53532783  0.36512233  0.89089450  1.0
  Bi  Bi86  1  0.53532783  0.69845567  0.89089450  1.0
  Bi  Bi87  1  0.86866117  0.03178900  0.89089450  1.0
  Bi  Bi88  1  0.86866117  0.36512233  0.89089450  1.0
  Bi  Bi89  1  0.86866117  0.69845567  0.89089450  1.0
  Bi  Bi90  1  0.29800550  0.20630624  0.89481979  1.0
  Bi  Bi91  1  0.29800550  0.53963957  0.89481979  1.0
  Bi  Bi92  1  0.29800550  0.87297290  0.89481979  1.0
  Bi  Bi93  1  0.63133883  0.20630624  0.89481979  1.0
  Bi  Bi94  1  0.63133883  0.53963957  0.89481979  1.0
  Bi  Bi95  1  0.63133883  0.87297290  0.89481979  1.0
  Bi  Bi96  1  0.96467217  0.20630624  0.89481979  1.0
  Bi  Bi97  1  0.96467217  0.53963957  0.89481979  1.0
  Bi  Bi98  1  0.96467217  0.87297290  0.89481979  1.0
  Bi  Bi99  1  0.13133883  0.01583005  0.96624836  1.0
  Bi  Bi100  1  0.13133883  0.34916338  0.96624836  1.0
  Bi  Bi101  1  0.13133883  0.68249671  0.96624836  1.0
  Bi  Bi102  1  0.46467217  0.01583005  0.96624836  1.0
  Bi  Bi103  1  0.46467217  0.34916338  0.96624836  1.0
  Bi  Bi104  1  0.46467217  0.68249671  0.96624836  1.0
  Bi  Bi105  1  0.79800550  0.01583005  0.96624836  1.0
  Bi  Bi106  1  0.79800550  0.34916338  0.96624836  1.0
  Bi  Bi107  1  0.79800550  0.68249671  0.96624836  1.0
  Bi  Bi108  1  0.00457950  0.00543329  0.87771664  1.0
  Bi  Bi109  1  0.00457950  0.33876662  0.87771664  1.0
  Bi  Bi110  1  0.00457950  0.67209995  0.87771664  1.0
  Bi  Bi111  1  0.33791283  0.00543329  0.87771664  1.0
  Bi  Bi112  1  0.33791283  0.33876662  0.87771664  1.0
  Bi  Bi113  1  0.33791283  0.67209995  0.87771664  1.0
  Bi  Bi114  1  0.67124617  0.00543329  0.87771664  1.0
  Bi  Bi115  1  0.67124617  0.33876662  0.87771664  1.0
  Bi  Bi116  1  0.67124617  0.67209995  0.87771664  1.0
  Bi  Bi117  1  0.17124617  0.14829043  0.94914521  1.0
  Bi  Bi118  1  0.17124617  0.48162376  0.94914521  1.0
  Bi  Bi119  1  0.17124617  0.81495710  0.94914521  1.0
  Bi  Bi120  1  0.50457950  0.14829043  0.94914521  1.0
  Bi  Bi121  1  0.50457950  0.48162376  0.94914521  1.0
  Bi  Bi122  1  0.50457950  0.81495710  0.94914521  1.0
  Bi  Bi123  1  0.83791283  0.14829043  0.94914521  1.0
  Bi  Bi124  1  0.83791283  0.48162376  0.94914521  1.0
  Bi  Bi125  1  0.83791283  0.81495710  0.94914521  1.0
  Bi  Bi126  1  0.32875383  0.04218576  0.97942621  1.0
  Bi  Bi127  1  0.32875383  0.37551910  0.97942621  1.0
  Bi  Bi128  1  0.32875383  0.70885243  0.97942621  1.0
  Bi  Bi129  1  0.66208717  0.04218576  0.97942621  1.0
  Bi  Bi130  1  0.66208717  0.37551910  0.97942621  1.0
  Bi  Bi131  1  0.66208717  0.70885243  0.97942621  1.0
  Bi  Bi132  1  0.99542050  0.04218576  0.97942621  1.0
  Bi  Bi133  1  0.99542050  0.37551910  0.97942621  1.0
  Bi  Bi134  1  0.99542050  0.70885243  0.97942621  1.0
  Bi  Bi135  1  0.16208717  0.23266195  0.90799764  1.0
  Bi  Bi136  1  0.16208717  0.56599529  0.90799764  1.0
  Bi  Bi137  1  0.16208717  0.89932862  0.90799764  1.0
  Bi  Bi138  1  0.49542050  0.23266195  0.90799764  1.0
  Bi  Bi139  1  0.49542050  0.56599529  0.90799764  1.0
  Bi  Bi140  1  0.49542050  0.89932862  0.90799764  1.0
  Bi  Bi141  1  0.82875383  0.23266195  0.90799764  1.0
  Bi  Bi142  1  0.82875383  0.56599529  0.90799764  1.0
  Bi  Bi143  1  0.82875383  0.89932862  0.90799764  1.0
  Bi  Bi144  1  0.09796850  0.16905652  0.87619493  1.0
  Bi  Bi145  1  0.09796850  0.50238986  0.87619493  1.0
  Bi  Bi146  1  0.09796850  0.83572319  0.87619493  1.0
  Bi  Bi147  1  0.43130183  0.16905652  0.87619493  1.0
  Bi  Bi148  1  0.43130183  0.50238986  0.87619493  1.0
  Bi  Bi149  1  0.43130183  0.83572319  0.87619493  1.0
  Bi  Bi150  1  0.76463517  0.16905652  0.87619493  1.0
  Bi  Bi151  1  0.76463517  0.50238986  0.87619493  1.0
  Bi  Bi152  1  0.76463517  0.83572319  0.87619493  1.0
  Bi  Bi153  1  0.26463517  0.31191367  0.94762350  1.0
  Bi  Bi154  1  0.26463517  0.64524700  0.94762350  1.0
  Bi  Bi155  1  0.26463517  0.97858033  0.94762350  1.0
  Bi  Bi156  1  0.59796850  0.31191367  0.94762350  1.0
  Bi  Bi157  1  0.59796850  0.64524700  0.94762350  1.0
  Bi  Bi158  1  0.59796850  0.97858033  0.94762350  1.0
  Bi  Bi159  1  0.93130183  0.31191367  0.94762350  1.0
  Bi  Bi160  1  0.93130183  0.64524700  0.94762350  1.0
  Bi  Bi161  1  0.93130183  0.97858033  0.94762350  1.0
  Bi  Bi162  1  0.23536483  0.21189586  0.98094793  1.0
  Bi  Bi163  1  0.23536483  0.54522919  0.98094793  1.0
  Bi  Bi164  1  0.23536483  0.87856252  0.98094793  1.0
  Bi  Bi165  1  0.56869817  0.21189586  0.98094793  1.0
  Bi  Bi166  1  0.56869817  0.54522919  0.98094793  1.0
  Bi  Bi167  1  0.56869817  0.87856252  0.98094793  1.0
  Bi  Bi168  1  0.90203150  0.21189586  0.98094793  1.0
  Bi  Bi169  1  0.90203150  0.54522919  0.98094793  1.0
  Bi  Bi170  1  0.90203150  0.87856252  0.98094793  1.0
  Bi  Bi171  1  0.06869817  0.06903871  0.90951936  1.0
  Bi  Bi172  1  0.06869817  0.40237205  0.90951936  1.0
  Bi  Bi173  1  0.06869817  0.73570538  0.90951936  1.0
  Bi  Bi174  1  0.40203150  0.06903871  0.90951936  1.0
  Bi  Bi175  1  0.40203150  0.40237205  0.90951936  1.0
  Bi  Bi176  1  0.40203150  0.73570538  0.90951936  1.0
  Bi  Bi177  1  0.73536483  0.06903871  0.90951936  1.0
  Bi  Bi178  1  0.73536483  0.40237205  0.90951936  1.0
  Bi  Bi179  1  0.73536483  0.73570538  0.90951936  1.0
  Bi  Bi180  1  0.03887850  0.26126510  0.92229921  1.0
  Bi  Bi181  1  0.03887850  0.59459843  0.92229921  1.0
  Bi  Bi182  1  0.03887850  0.92793176  0.92229921  1.0
  Bi  Bi183  1  0.37221183  0.26126510  0.92229921  1.0
  Bi  Bi184  1  0.37221183  0.59459843  0.92229921  1.0
  Bi  Bi185  1  0.37221183  0.92793176  0.92229921  1.0
  Bi  Bi186  1  0.70554517  0.26126510  0.92229921  1.0
  Bi  Bi187  1  0.70554517  0.59459843  0.92229921  1.0
  Bi  Bi188  1  0.70554517  0.92793176  0.92229921  1.0
  Bi  Bi189  1  0.20554517  0.07078890  0.99372779  1.0
  Bi  Bi190  1  0.20554517  0.40412224  0.99372779  1.0
  Bi  Bi191  1  0.20554517  0.73745557  0.99372779  1.0
  Bi  Bi192  1  0.53887850  0.07078890  0.99372779  1.0
  Bi  Bi193  1  0.53887850  0.40412224  0.99372779  1.0
  Bi  Bi194  1  0.53887850  0.73745557  0.99372779  1.0
  Bi  Bi195  1  0.87221183  0.07078890  0.99372779  1.0
  Bi  Bi196  1  0.87221183  0.40412224  0.99372779  1.0
  Bi  Bi197  1  0.87221183  0.73745557  0.99372779  1.0
  Bi  Bi198  1  0.29445483  0.11968729  0.93484364  1.0
  Bi  Bi199  1  0.29445483  0.45302062  0.93484364  1.0
  Bi  Bi200  1  0.29445483  0.78635395  0.93484364  1.0
  Bi  Bi201  1  0.62778817  0.11968729  0.93484364  1.0
  Bi  Bi202  1  0.62778817  0.45302062  0.93484364  1.0
  Bi  Bi203  1  0.62778817  0.78635395  0.93484364  1.0
  Bi  Bi204  1  0.96112150  0.11968729  0.93484364  1.0
  Bi  Bi205  1  0.96112150  0.45302062  0.93484364  1.0
  Bi  Bi206  1  0.96112150  0.78635395  0.93484364  1.0
  Bi  Bi207  1  0.12778817  0.31016348  0.86341507  1.0
  Bi  Bi208  1  0.12778817  0.64349681  0.86341507  1.0
  Bi  Bi209  1  0.12778817  0.97683014  0.86341507  1.0
  Bi  Bi210  1  0.46112150  0.31016348  0.86341507  1.0
  Bi  Bi211  1  0.46112150  0.64349681  0.86341507  1.0
  Bi  Bi212  1  0.46112150  0.97683014  0.86341507  1.0
  Bi  Bi213  1  0.79445483  0.31016348  0.86341507  1.0
  Bi  Bi214  1  0.79445483  0.64349681  0.86341507  1.0
  Bi  Bi215  1  0.79445483  0.97683014  0.86341507  1.0
  Bi  Bi216  1  0.09871167  0.25316905  0.83491786  1.0
  Bi  Bi217  1  0.09871167  0.58650238  0.83491786  1.0
  Bi  Bi218  1  0.09871167  0.91983571  0.83491786  1.0
  Bi  Bi219  1  0.43204500  0.25316905  0.83491786  1.0
  Bi  Bi220  1  0.43204500  0.58650238  0.83491786  1.0
  Bi  Bi221  1  0.43204500  0.91983571  0.83491786  1.0
  Bi  Bi222  1  0.76537833  0.25316905  0.83491786  1.0
  Bi  Bi223  1  0.76537833  0.58650238  0.83491786  1.0
  Bi  Bi224  1  0.76537833  0.91983571  0.83491786  1.0
  Bi  Bi225  1  0.26537833  0.11031190  0.76348929  1.0
  Bi  Bi226  1  0.26537833  0.44364524  0.76348929  1.0
  Bi  Bi227  1  0.26537833  0.77697857  0.76348929  1.0
  Bi  Bi228  1  0.59871167  0.11031190  0.76348929  1.0
  Bi  Bi229  1  0.59871167  0.44364524  0.76348929  1.0
  Bi  Bi230  1  0.59871167  0.77697857  0.76348929  1.0
  Bi  Bi231  1  0.93204500  0.11031190  0.76348929  1.0
  Bi  Bi232  1  0.93204500  0.44364524  0.76348929  1.0
  Bi  Bi233  1  0.93204500  0.77697857  0.76348929  1.0
  Bi  Bi234  1  0.23462167  0.22302143  0.73651071  1.0
  Bi  Bi235  1  0.23462167  0.55635476  0.73651071  1.0
  Bi  Bi236  1  0.23462167  0.88968810  0.73651071  1.0
  Bi  Bi237  1  0.56795500  0.22302143  0.73651071  1.0
  Bi  Bi238  1  0.56795500  0.55635476  0.73651071  1.0
  Bi  Bi239  1  0.56795500  0.88968810  0.73651071  1.0
  Bi  Bi240  1  0.90128833  0.22302143  0.73651071  1.0
  Bi  Bi241  1  0.90128833  0.55635476  0.73651071  1.0
  Bi  Bi242  1  0.90128833  0.88968810  0.73651071  1.0
  Bi  Bi243  1  0.06795500  0.03254524  0.80793929  1.0
  Bi  Bi244  1  0.06795500  0.36587857  0.80793929  1.0
  Bi  Bi245  1  0.06795500  0.69921190  0.80793929  1.0
  Bi  Bi246  1  0.40128833  0.03254524  0.80793929  1.0
  Bi  Bi247  1  0.40128833  0.36587857  0.80793929  1.0
  Bi  Bi248  1  0.40128833  0.69921190  0.80793929  1.0
  Bi  Bi249  1  0.73462167  0.03254524  0.80793929  1.0
  Bi  Bi250  1  0.73462167  0.36587857  0.80793929  1.0
  Bi  Bi251  1  0.73462167  0.69921190  0.80793929  1.0
  Bi  Bi252  1  0.30185833  0.28443762  0.85055214  1.0
  Bi  Bi253  1  0.30185833  0.61777095  0.85055214  1.0
  Bi  Bi254  1  0.30185833  0.95110429  0.85055214  1.0
  Bi  Bi255  1  0.63519167  0.28443762  0.85055214  1.0
  Bi  Bi256  1  0.63519167  0.61777095  0.85055214  1.0
  Bi  Bi257  1  0.63519167  0.95110429  0.85055214  1.0
  Bi  Bi258  1  0.96852500  0.28443762  0.85055214  1.0
  Bi  Bi259  1  0.96852500  0.61777095  0.85055214  1.0
  Bi  Bi260  1  0.96852500  0.95110429  0.85055214  1.0
  Bi  Bi261  1  0.13519167  0.14158048  0.77912357  1.0
  Bi  Bi262  1  0.13519167  0.47491381  0.77912357  1.0
  Bi  Bi263  1  0.13519167  0.80824714  0.77912357  1.0
  Bi  Bi264  1  0.46852500  0.14158048  0.77912357  1.0
  Bi  Bi265  1  0.46852500  0.47491381  0.77912357  1.0
  Bi  Bi266  1  0.46852500  0.80824714  0.77912357  1.0
  Bi  Bi267  1  0.80185833  0.14158048  0.77912357  1.0
  Bi  Bi268  1  0.80185833  0.47491381  0.77912357  1.0
  Bi  Bi269  1  0.80185833  0.80824714  0.77912357  1.0
  Bi  Bi270  1  0.03147500  0.19175286  0.72087643  1.0
  Bi  Bi271  1  0.03147500  0.52508619  0.72087643  1.0
  Bi  Bi272  1  0.03147500  0.85841952  0.72087643  1.0
  Bi  Bi273  1  0.36480833  0.19175286  0.72087643  1.0
  Bi  Bi274  1  0.36480833  0.52508619  0.72087643  1.0
  Bi  Bi275  1  0.36480833  0.85841952  0.72087643  1.0
  Bi  Bi276  1  0.69814167  0.19175286  0.72087643  1.0
  Bi  Bi277  1  0.69814167  0.52508619  0.72087643  1.0
  Bi  Bi278  1  0.69814167  0.85841952  0.72087643  1.0
  Bi  Bi279  1  0.19814167  0.00127667  0.79230500  1.0
  Bi  Bi280  1  0.19814167  0.33461000  0.79230500  1.0
  Bi  Bi281  1  0.19814167  0.66794333  0.79230500  1.0
  Bi  Bi282  1  0.53147500  0.00127667  0.79230500  1.0
  Bi  Bi283  1  0.53147500  0.33461000  0.79230500  1.0
  Bi  Bi284  1  0.53147500  0.66794333  0.79230500  1.0
  Bi  Bi285  1  0.86480833  0.00127667  0.79230500  1.0
  Bi  Bi286  1  0.86480833  0.33461000  0.79230500  1.0
  Bi  Bi287  1  0.86480833  0.66794333  0.79230500  1.0
  Bi  Bi288  1  0.03532783  0.22226519  0.81946593  1.0
  Bi  Bi289  1  0.03532783  0.55559852  0.81946593  1.0
  Bi  Bi290  1  0.03532783  0.88893186  0.81946593  1.0
  Bi  Bi291  1  0.36866117  0.22226519  0.81946593  1.0
  Bi  Bi292  1  0.36866117  0.55559852  0.81946593  1.0
  Bi  Bi293  1  0.36866117  0.88893186  0.81946593  1.0
  Bi  Bi294  1  0.70199450  0.22226519  0.81946593  1.0
  Bi  Bi295  1  0.70199450  0.55559852  0.81946593  1.0
  Bi  Bi296  1  0.70199450  0.88893186  0.81946593  1.0
  Bi  Bi297  1  0.20199450  0.07940805  0.74803736  1.0
  Bi  Bi298  1  0.20199450  0.41274138  0.74803736  1.0
  Bi  Bi299  1  0.20199450  0.74607471  0.74803736  1.0
  Bi  Bi300  1  0.53532783  0.07940805  0.74803736  1.0
  Bi  Bi301  1  0.53532783  0.41274138  0.74803736  1.0
  Bi  Bi302  1  0.53532783  0.74607471  0.74803736  1.0
  Bi  Bi303  1  0.86866117  0.07940805  0.74803736  1.0
  Bi  Bi304  1  0.86866117  0.41274138  0.74803736  1.0
  Bi  Bi305  1  0.86866117  0.74607471  0.74803736  1.0
  Bi  Bi306  1  0.29800550  0.25392529  0.75196264  1.0
  Bi  Bi307  1  0.29800550  0.58725862  0.75196264  1.0
  Bi  Bi308  1  0.29800550  0.92059195  0.75196264  1.0
  Bi  Bi309  1  0.63133883  0.25392529  0.75196264  1.0
  Bi  Bi310  1  0.63133883  0.58725862  0.75196264  1.0
  Bi  Bi311  1  0.63133883  0.92059195  0.75196264  1.0
  Bi  Bi312  1  0.96467217  0.25392529  0.75196264  1.0
  Bi  Bi313  1  0.96467217  0.58725862  0.75196264  1.0
  Bi  Bi314  1  0.96467217  0.92059195  0.75196264  1.0
  Bi  Bi315  1  0.13133883  0.06344910  0.82339121  1.0
  Bi  Bi316  1  0.13133883  0.39678243  0.82339121  1.0
  Bi  Bi317  1  0.13133883  0.73011576  0.82339121  1.0
  Bi  Bi318  1  0.46467217  0.06344910  0.82339121  1.0
  Bi  Bi319  1  0.46467217  0.39678243  0.82339121  1.0
  Bi  Bi320  1  0.46467217  0.73011576  0.82339121  1.0
  Bi  Bi321  1  0.79800550  0.06344910  0.82339121  1.0
  Bi  Bi322  1  0.79800550  0.39678243  0.82339121  1.0
  Bi  Bi323  1  0.79800550  0.73011576  0.82339121  1.0
  Bi  Bi324  1  0.00457950  0.05305233  0.73485950  1.0
  Bi  Bi325  1  0.00457950  0.38638567  0.73485950  1.0
  Bi  Bi326  1  0.00457950  0.71971900  0.73485950  1.0
  Bi  Bi327  1  0.33791283  0.05305233  0.73485950  1.0
  Bi  Bi328  1  0.33791283  0.38638567  0.73485950  1.0
  Bi  Bi329  1  0.33791283  0.71971900  0.73485950  1.0
  Bi  Bi330  1  0.67124617  0.05305233  0.73485950  1.0
  Bi  Bi331  1  0.67124617  0.38638567  0.73485950  1.0
  Bi  Bi332  1  0.67124617  0.71971900  0.73485950  1.0
  Bi  Bi333  1  0.17124617  0.19590948  0.80628807  1.0
  Bi  Bi334  1  0.17124617  0.52924281  0.80628807  1.0
  Bi  Bi335  1  0.17124617  0.86257614  0.80628807  1.0
  Bi  Bi336  1  0.50457950  0.19590948  0.80628807  1.0
  Bi  Bi337  1  0.50457950  0.52924281  0.80628807  1.0
  Bi  Bi338  1  0.50457950  0.86257614  0.80628807  1.0
  Bi  Bi339  1  0.83791283  0.19590948  0.80628807  1.0
  Bi  Bi340  1  0.83791283  0.52924281  0.80628807  1.0
  Bi  Bi341  1  0.83791283  0.86257614  0.80628807  1.0
  Bi  Bi342  1  0.32875383  0.08980481  0.83656907  1.0
  Bi  Bi343  1  0.32875383  0.42313814  0.83656907  1.0
  Bi  Bi344  1  0.32875383  0.75647148  0.83656907  1.0
  Bi  Bi345  1  0.66208717  0.08980481  0.83656907  1.0
  Bi  Bi346  1  0.66208717  0.42313814  0.83656907  1.0
  Bi  Bi347  1  0.66208717  0.75647148  0.83656907  1.0
  Bi  Bi348  1  0.99542050  0.08980481  0.83656907  1.0
  Bi  Bi349  1  0.99542050  0.42313814  0.83656907  1.0
  Bi  Bi350  1  0.99542050  0.75647148  0.83656907  1.0
  Bi  Bi351  1  0.16208717  0.28028100  0.76514050  1.0
  Bi  Bi352  1  0.16208717  0.61361433  0.76514050  1.0
  Bi  Bi353  1  0.16208717  0.94694767  0.76514050  1.0
  Bi  Bi354  1  0.49542050  0.28028100  0.76514050  1.0
  Bi  Bi355  1  0.49542050  0.61361433  0.76514050  1.0
  Bi  Bi356  1  0.49542050  0.94694767  0.76514050  1.0
  Bi  Bi357  1  0.82875383  0.28028100  0.76514050  1.0
  Bi  Bi358  1  0.82875383  0.61361433  0.76514050  1.0
  Bi  Bi359  1  0.82875383  0.94694767  0.76514050  1.0
  Bi  Bi360  1  0.09796850  0.21667557  0.73333779  1.0
  Bi  Bi361  1  0.09796850  0.55000890  0.73333779  1.0
  Bi  Bi362  1  0.09796850  0.88334224  0.73333779  1.0
  Bi  Bi363  1  0.43130183  0.21667557  0.73333779  1.0
  Bi  Bi364  1  0.43130183  0.55000890  0.73333779  1.0
  Bi  Bi365  1  0.43130183  0.88334224  0.73333779  1.0
  Bi  Bi366  1  0.76463517  0.21667557  0.73333779  1.0
  Bi  Bi367  1  0.76463517  0.55000890  0.73333779  1.0
  Bi  Bi368  1  0.76463517  0.88334224  0.73333779  1.0
  Bi  Bi369  1  0.26463517  0.02619938  0.80476636  1.0
  Bi  Bi370  1  0.26463517  0.35953271  0.80476636  1.0
  Bi  Bi371  1  0.26463517  0.69286605  0.80476636  1.0
  Bi  Bi372  1  0.59796850  0.02619938  0.80476636  1.0
  Bi  Bi373  1  0.59796850  0.35953271  0.80476636  1.0
  Bi  Bi374  1  0.59796850  0.69286605  0.80476636  1.0
  Bi  Bi375  1  0.93130183  0.02619938  0.80476636  1.0
  Bi  Bi376  1  0.93130183  0.35953271  0.80476636  1.0
  Bi  Bi377  1  0.93130183  0.69286605  0.80476636  1.0
  Bi  Bi378  1  0.23536483  0.25951490  0.83809079  1.0
  Bi  Bi379  1  0.23536483  0.59284824  0.83809079  1.0
  Bi  Bi380  1  0.23536483  0.92618157  0.83809079  1.0
  Bi  Bi381  1  0.56869817  0.25951490  0.83809079  1.0
  Bi  Bi382  1  0.56869817  0.59284824  0.83809079  1.0
  Bi  Bi383  1  0.56869817  0.92618157  0.83809079  1.0
  Bi  Bi384  1  0.90203150  0.25951490  0.83809079  1.0
  Bi  Bi385  1  0.90203150  0.59284824  0.83809079  1.0
  Bi  Bi386  1  0.90203150  0.92618157  0.83809079  1.0
  Bi  Bi387  1  0.06869817  0.11665776  0.76666221  1.0
  Bi  Bi388  1  0.06869817  0.44999110  0.76666221  1.0
  Bi  Bi389  1  0.06869817  0.78332443  0.76666221  1.0
  Bi  Bi390  1  0.40203150  0.11665776  0.76666221  1.0
  Bi  Bi391  1  0.40203150  0.44999110  0.76666221  1.0
  Bi  Bi392  1  0.40203150  0.78332443  0.76666221  1.0
  Bi  Bi393  1  0.73536483  0.11665776  0.76666221  1.0
  Bi  Bi394  1  0.73536483  0.44999110  0.76666221  1.0
  Bi  Bi395  1  0.73536483  0.78332443  0.76666221  1.0
  Bi  Bi396  1  0.03887850  0.30888414  0.77944207  1.0
  Bi  Bi397  1  0.03887850  0.64221748  0.77944207  1.0
  Bi  Bi398  1  0.03887850  0.97555081  0.77944207  1.0
  Bi  Bi399  1  0.37221183  0.30888414  0.77944207  1.0
  Bi  Bi400  1  0.37221183  0.64221748  0.77944207  1.0
  Bi  Bi401  1  0.37221183  0.97555081  0.77944207  1.0
  Bi  Bi402  1  0.70554517  0.30888414  0.77944207  1.0
  Bi  Bi403  1  0.70554517  0.64221748  0.77944207  1.0
  Bi  Bi404  1  0.70554517  0.97555081  0.77944207  1.0
  Bi  Bi405  1  0.20554517  0.11840795  0.85087064  1.0
  Bi  Bi406  1  0.20554517  0.45174129  0.85087064  1.0
  Bi  Bi407  1  0.20554517  0.78507462  0.85087064  1.0
  Bi  Bi408  1  0.53887850  0.11840795  0.85087064  1.0
  Bi  Bi409  1  0.53887850  0.45174129  0.85087064  1.0
  Bi  Bi410  1  0.53887850  0.78507462  0.85087064  1.0
  Bi  Bi411  1  0.87221183  0.11840795  0.85087064  1.0
  Bi  Bi412  1  0.87221183  0.45174129  0.85087064  1.0
  Bi  Bi413  1  0.87221183  0.78507462  0.85087064  1.0
  Bi  Bi414  1  0.29445483  0.16730633  0.79198650  1.0
  Bi  Bi415  1  0.29445483  0.50063967  0.79198650  1.0
  Bi  Bi416  1  0.29445483  0.83397300  0.79198650  1.0
  Bi  Bi417  1  0.62778817  0.16730633  0.79198650  1.0
  Bi  Bi418  1  0.62778817  0.50063967  0.79198650  1.0
  Bi  Bi419  1  0.62778817  0.83397300  0.79198650  1.0
  Bi  Bi420  1  0.96112150  0.16730633  0.79198650  1.0
  Bi  Bi421  1  0.96112150  0.50063967  0.79198650  1.0
  Bi  Bi422  1  0.96112150  0.83397300  0.79198650  1.0
  Bi  Bi423  1  0.12778817  0.02444919  0.72055793  1.0
  Bi  Bi424  1  0.12778817  0.35778252  0.72055793  1.0
  Bi  Bi425  1  0.12778817  0.69111586  0.72055793  1.0
  Bi  Bi426  1  0.46112150  0.02444919  0.72055793  1.0
  Bi  Bi427  1  0.46112150  0.35778252  0.72055793  1.0
  Bi  Bi428  1  0.46112150  0.69111586  0.72055793  1.0
  Bi  Bi429  1  0.79445483  0.02444919  0.72055793  1.0
  Bi  Bi430  1  0.79445483  0.35778252  0.72055793  1.0
  Bi  Bi431  1  0.79445483  0.69111586  0.72055793  1.0
  Bi  Bi432  1  0.09871167  0.30078810  0.69206071  1.0
  Bi  Bi433  1  0.09871167  0.63412143  0.69206071  1.0
  Bi  Bi434  1  0.09871167  0.96745476  0.69206071  1.0
  Bi  Bi435  1  0.43204500  0.30078810  0.69206071  1.0
  Bi  Bi436  1  0.43204500  0.63412143  0.69206071  1.0
  Bi  Bi437  1  0.43204500  0.96745476  0.69206071  1.0
  Bi  Bi438  1  0.76537833  0.30078810  0.69206071  1.0
  Bi  Bi439  1  0.76537833  0.63412143  0.69206071  1.0
  Bi  Bi440  1  0.76537833  0.96745476  0.69206071  1.0
  Bi  Bi441  1  0.26537833  0.15793095  0.62063214  1.0
  Bi  Bi442  1  0.26537833  0.49126429  0.62063214  1.0
  Bi  Bi443  1  0.26537833  0.82459762  0.62063214  1.0
  Bi  Bi444  1  0.59871167  0.15793095  0.62063214  1.0
  Bi  Bi445  1  0.59871167  0.49126429  0.62063214  1.0
  Bi  Bi446  1  0.59871167  0.82459762  0.62063214  1.0
  Bi  Bi447  1  0.93204500  0.15793095  0.62063214  1.0
  Bi  Bi448  1  0.93204500  0.49126429  0.62063214  1.0
  Bi  Bi449  1  0.93204500  0.82459762  0.62063214  1.0
  Bi  Bi450  1  0.23462167  0.27064048  0.59365357  1.0
  Bi  Bi451  1  0.23462167  0.60397381  0.59365357  1.0
  Bi  Bi452  1  0.23462167  0.93730714  0.59365357  1.0
  Bi  Bi453  1  0.56795500  0.27064048  0.59365357  1.0
  Bi  Bi454  1  0.56795500  0.60397381  0.59365357  1.0
  Bi  Bi455  1  0.56795500  0.93730714  0.59365357  1.0
  Bi  Bi456  1  0.90128833  0.27064048  0.59365357  1.0
  Bi  Bi457  1  0.90128833  0.60397381  0.59365357  1.0
  Bi  Bi458  1  0.90128833  0.93730714  0.59365357  1.0
  Bi  Bi459  1  0.06795500  0.08016429  0.66508214  1.0
  Bi  Bi460  1  0.06795500  0.41349762  0.66508214  1.0
  Bi  Bi461  1  0.06795500  0.74683095  0.66508214  1.0
  Bi  Bi462  1  0.40128833  0.08016429  0.66508214  1.0
  Bi  Bi463  1  0.40128833  0.41349762  0.66508214  1.0
  Bi  Bi464  1  0.40128833  0.74683095  0.66508214  1.0
  Bi  Bi465  1  0.73462167  0.08016429  0.66508214  1.0
  Bi  Bi466  1  0.73462167  0.41349762  0.66508214  1.0
  Bi  Bi467  1  0.73462167  0.74683095  0.66508214  1.0
  Bi  Bi468  1  0.30185833  0.33205667  0.70769500  1.0
  Bi  Bi469  1  0.30185833  0.66539000  0.70769500  1.0
  Bi  Bi470  1  0.30185833  0.99872333  0.70769500  1.0
  Bi  Bi471  1  0.63519167  0.33205667  0.70769500  1.0
  Bi  Bi472  1  0.63519167  0.66539000  0.70769500  1.0
  Bi  Bi473  1  0.63519167  0.99872333  0.70769500  1.0
  Bi  Bi474  1  0.96852500  0.33205667  0.70769500  1.0
  Bi  Bi475  1  0.96852500  0.66539000  0.70769500  1.0
  Bi  Bi476  1  0.96852500  0.99872333  0.70769500  1.0
  Bi  Bi477  1  0.13519167  0.18919952  0.63626643  1.0
  Bi  Bi478  1  0.13519167  0.52253286  0.63626643  1.0
  Bi  Bi479  1  0.13519167  0.85586619  0.63626643  1.0
  Bi  Bi480  1  0.46852500  0.18919952  0.63626643  1.0
  Bi  Bi481  1  0.46852500  0.52253286  0.63626643  1.0
  Bi  Bi482  1  0.46852500  0.85586619  0.63626643  1.0
  Bi  Bi483  1  0.80185833  0.18919952  0.63626643  1.0
  Bi  Bi484  1  0.80185833  0.52253286  0.63626643  1.0
  Bi  Bi485  1  0.80185833  0.85586619  0.63626643  1.0
  Bi  Bi486  1  0.03147500  0.23937190  0.57801929  1.0
  Bi  Bi487  1  0.03147500  0.57270524  0.57801929  1.0
  Bi  Bi488  1  0.03147500  0.90603857  0.57801929  1.0
  Bi  Bi489  1  0.36480833  0.23937190  0.57801929  1.0
  Bi  Bi490  1  0.36480833  0.57270524  0.57801929  1.0
  Bi  Bi491  1  0.36480833  0.90603857  0.57801929  1.0
  Bi  Bi492  1  0.69814167  0.23937190  0.57801929  1.0
  Bi  Bi493  1  0.69814167  0.57270524  0.57801929  1.0
  Bi  Bi494  1  0.69814167  0.90603857  0.57801929  1.0
  Bi  Bi495  1  0.19814167  0.04889571  0.64944786  1.0
  Bi  Bi496  1  0.19814167  0.38222905  0.64944786  1.0
  Bi  Bi497  1  0.19814167  0.71556238  0.64944786  1.0
  Bi  Bi498  1  0.53147500  0.04889571  0.64944786  1.0
  Bi  Bi499  1  0.53147500  0.38222905  0.64944786  1.0
  Bi  Bi500  1  0.53147500  0.71556238  0.64944786  1.0
  Bi  Bi501  1  0.86480833  0.04889571  0.64944786  1.0
  Bi  Bi502  1  0.86480833  0.38222905  0.64944786  1.0
  Bi  Bi503  1  0.86480833  0.71556238  0.64944786  1.0
  Bi  Bi504  1  0.03532783  0.26988424  0.67660879  1.0
  Bi  Bi505  1  0.03532783  0.60321757  0.67660879  1.0
  Bi  Bi506  1  0.03532783  0.93655090  0.67660879  1.0
  Bi  Bi507  1  0.36866117  0.26988424  0.67660879  1.0
  Bi  Bi508  1  0.36866117  0.60321757  0.67660879  1.0
  Bi  Bi509  1  0.36866117  0.93655090  0.67660879  1.0
  Bi  Bi510  1  0.70199450  0.26988424  0.67660879  1.0
  Bi  Bi511  1  0.70199450  0.60321757  0.67660879  1.0
  Bi  Bi512  1  0.70199450  0.93655090  0.67660879  1.0
  Bi  Bi513  1  0.20199450  0.12702710  0.60518021  1.0
  Bi  Bi514  1  0.20199450  0.46036043  0.60518021  1.0
  Bi  Bi515  1  0.20199450  0.79369376  0.60518021  1.0
  Bi  Bi516  1  0.53532783  0.12702710  0.60518021  1.0
  Bi  Bi517  1  0.53532783  0.46036043  0.60518021  1.0
  Bi  Bi518  1  0.53532783  0.79369376  0.60518021  1.0
  Bi  Bi519  1  0.86866117  0.12702710  0.60518021  1.0
  Bi  Bi520  1  0.86866117  0.46036043  0.60518021  1.0
  Bi  Bi521  1  0.86866117  0.79369376  0.60518021  1.0
  Bi  Bi522  1  0.29800550  0.30154433  0.60910550  1.0
  Bi  Bi523  1  0.29800550  0.63487767  0.60910550  1.0
  Bi  Bi524  1  0.29800550  0.96821100  0.60910550  1.0
  Bi  Bi525  1  0.63133883  0.30154433  0.60910550  1.0
  Bi  Bi526  1  0.63133883  0.63487767  0.60910550  1.0
  Bi  Bi527  1  0.63133883  0.96821100  0.60910550  1.0
  Bi  Bi528  1  0.96467217  0.30154433  0.60910550  1.0
  Bi  Bi529  1  0.96467217  0.63487767  0.60910550  1.0
  Bi  Bi530  1  0.96467217  0.96821100  0.60910550  1.0
  Bi  Bi531  1  0.13133883  0.11106814  0.68053407  1.0
  Bi  Bi532  1  0.13133883  0.44440148  0.68053407  1.0
  Bi  Bi533  1  0.13133883  0.77773481  0.68053407  1.0
  Bi  Bi534  1  0.46467217  0.11106814  0.68053407  1.0
  Bi  Bi535  1  0.46467217  0.44440148  0.68053407  1.0
  Bi  Bi536  1  0.46467217  0.77773481  0.68053407  1.0
  Bi  Bi537  1  0.79800550  0.11106814  0.68053407  1.0
  Bi  Bi538  1  0.79800550  0.44440148  0.68053407  1.0
  Bi  Bi539  1  0.79800550  0.77773481  0.68053407  1.0
  Bi  Bi540  1  0.00457950  0.10067138  0.59200236  1.0
  Bi  Bi541  1  0.00457950  0.43400471  0.59200236  1.0
  Bi  Bi542  1  0.00457950  0.76733805  0.59200236  1.0
  Bi  Bi543  1  0.33791283  0.10067138  0.59200236  1.0
  Bi  Bi544  1  0.33791283  0.43400471  0.59200236  1.0
  Bi  Bi545  1  0.33791283  0.76733805  0.59200236  1.0
  Bi  Bi546  1  0.67124617  0.10067138  0.59200236  1.0
  Bi  Bi547  1  0.67124617  0.43400471  0.59200236  1.0
  Bi  Bi548  1  0.67124617  0.76733805  0.59200236  1.0
  Bi  Bi549  1  0.17124617  0.24352852  0.66343093  1.0
  Bi  Bi550  1  0.17124617  0.57686186  0.66343093  1.0
  Bi  Bi551  1  0.17124617  0.91019519  0.66343093  1.0
  Bi  Bi552  1  0.50457950  0.24352852  0.66343093  1.0
  Bi  Bi553  1  0.50457950  0.57686186  0.66343093  1.0
  Bi  Bi554  1  0.50457950  0.91019519  0.66343093  1.0
  Bi  Bi555  1  0.83791283  0.24352852  0.66343093  1.0
  Bi  Bi556  1  0.83791283  0.57686186  0.66343093  1.0
  Bi  Bi557  1  0.83791283  0.91019519  0.66343093  1.0
  Bi  Bi558  1  0.32875383  0.13742386  0.69371193  1.0
  Bi  Bi559  1  0.32875383  0.47075719  0.69371193  1.0
  Bi  Bi560  1  0.32875383  0.80409052  0.69371193  1.0
  Bi  Bi561  1  0.66208717  0.13742386  0.69371193  1.0
  Bi  Bi562  1  0.66208717  0.47075719  0.69371193  1.0
  Bi  Bi563  1  0.66208717  0.80409052  0.69371193  1.0
  Bi  Bi564  1  0.99542050  0.13742386  0.69371193  1.0
  Bi  Bi565  1  0.99542050  0.47075719  0.69371193  1.0
  Bi  Bi566  1  0.99542050  0.80409052  0.69371193  1.0
  Bi  Bi567  1  0.16208717  0.32790005  0.62228336  1.0
  Bi  Bi568  1  0.16208717  0.66123338  0.62228336  1.0
  Bi  Bi569  1  0.16208717  0.99456671  0.62228336  1.0
  Bi  Bi570  1  0.49542050  0.32790005  0.62228336  1.0
  Bi  Bi571  1  0.49542050  0.66123338  0.62228336  1.0
  Bi  Bi572  1  0.49542050  0.99456671  0.62228336  1.0
  Bi  Bi573  1  0.82875383  0.32790005  0.62228336  1.0
  Bi  Bi574  1  0.82875383  0.66123338  0.62228336  1.0
  Bi  Bi575  1  0.82875383  0.99456671  0.62228336  1.0
  Bi  Bi576  1  0.09796850  0.26429462  0.59048064  1.0
  Bi  Bi577  1  0.09796850  0.59762795  0.59048064  1.0
  Bi  Bi578  1  0.09796850  0.93096129  0.59048064  1.0
  Bi  Bi579  1  0.43130183  0.26429462  0.59048064  1.0
  Bi  Bi580  1  0.43130183  0.59762795  0.59048064  1.0
  Bi  Bi581  1  0.43130183  0.93096129  0.59048064  1.0
  Bi  Bi582  1  0.76463517  0.26429462  0.59048064  1.0
  Bi  Bi583  1  0.76463517  0.59762795  0.59048064  1.0
  Bi  Bi584  1  0.76463517  0.93096129  0.59048064  1.0
  Bi  Bi585  1  0.26463517  0.07381843  0.66190921  1.0
  Bi  Bi586  1  0.26463517  0.40715176  0.66190921  1.0
  Bi  Bi587  1  0.26463517  0.74048510  0.66190921  1.0
  Bi  Bi588  1  0.59796850  0.07381843  0.66190921  1.0
  Bi  Bi589  1  0.59796850  0.40715176  0.66190921  1.0
  Bi  Bi590  1  0.59796850  0.74048510  0.66190921  1.0
  Bi  Bi591  1  0.93130183  0.07381843  0.66190921  1.0
  Bi  Bi592  1  0.93130183  0.40715176  0.66190921  1.0
  Bi  Bi593  1  0.93130183  0.74048510  0.66190921  1.0
  Bi  Bi594  1  0.23536483  0.30713395  0.69523364  1.0
  Bi  Bi595  1  0.23536483  0.64046729  0.69523364  1.0
  Bi  Bi596  1  0.23536483  0.97380062  0.69523364  1.0
  Bi  Bi597  1  0.56869817  0.30713395  0.69523364  1.0
  Bi  Bi598  1  0.56869817  0.64046729  0.69523364  1.0
  Bi  Bi599  1  0.56869817  0.97380062  0.69523364  1.0
  Bi  Bi600  1  0.90203150  0.30713395  0.69523364  1.0
  Bi  Bi601  1  0.90203150  0.64046729  0.69523364  1.0
  Bi  Bi602  1  0.90203150  0.97380062  0.69523364  1.0
  Bi  Bi603  1  0.06869817  0.16427681  0.62380507  1.0
  Bi  Bi604  1  0.06869817  0.49761014  0.62380507  1.0
  Bi  Bi605  1  0.06869817  0.83094348  0.62380507  1.0
  Bi  Bi606  1  0.40203150  0.16427681  0.62380507  1.0
  Bi  Bi607  1  0.40203150  0.49761014  0.62380507  1.0
  Bi  Bi608  1  0.40203150  0.83094348  0.62380507  1.0
  Bi  Bi609  1  0.73536483  0.16427681  0.62380507  1.0
  Bi  Bi610  1  0.73536483  0.49761014  0.62380507  1.0
  Bi  Bi611  1  0.73536483  0.83094348  0.62380507  1.0
  Bi  Bi612  1  0.03887850  0.02316986  0.63658493  1.0
  Bi  Bi613  1  0.03887850  0.35650319  0.63658493  1.0
  Bi  Bi614  1  0.03887850  0.68983652  0.63658493  1.0
  Bi  Bi615  1  0.37221183  0.02316986  0.63658493  1.0
  Bi  Bi616  1  0.37221183  0.35650319  0.63658493  1.0
  Bi  Bi617  1  0.37221183  0.68983652  0.63658493  1.0
  Bi  Bi618  1  0.70554517  0.02316986  0.63658493  1.0
  Bi  Bi619  1  0.70554517  0.35650319  0.63658493  1.0
  Bi  Bi620  1  0.70554517  0.68983652  0.63658493  1.0
  Bi  Bi621  1  0.20554517  0.16602700  0.70801350  1.0
  Bi  Bi622  1  0.20554517  0.49936033  0.70801350  1.0
  Bi  Bi623  1  0.20554517  0.83269367  0.70801350  1.0
  Bi  Bi624  1  0.53887850  0.16602700  0.70801350  1.0
  Bi  Bi625  1  0.53887850  0.49936033  0.70801350  1.0
  Bi  Bi626  1  0.53887850  0.83269367  0.70801350  1.0
  Bi  Bi627  1  0.87221183  0.16602700  0.70801350  1.0
  Bi  Bi628  1  0.87221183  0.49936033  0.70801350  1.0
  Bi  Bi629  1  0.87221183  0.83269367  0.70801350  1.0
  Bi  Bi630  1  0.29445483  0.21492538  0.64912936  1.0
  Bi  Bi631  1  0.29445483  0.54825871  0.64912936  1.0
  Bi  Bi632  1  0.29445483  0.88159205  0.64912936  1.0
  Bi  Bi633  1  0.62778817  0.21492538  0.64912936  1.0
  Bi  Bi634  1  0.62778817  0.54825871  0.64912936  1.0
  Bi  Bi635  1  0.62778817  0.88159205  0.64912936  1.0
  Bi  Bi636  1  0.96112150  0.21492538  0.64912936  1.0
  Bi  Bi637  1  0.96112150  0.54825871  0.64912936  1.0
  Bi  Bi638  1  0.96112150  0.88159205  0.64912936  1.0
  Bi  Bi639  1  0.12778817  0.07206824  0.57770079  1.0
  Bi  Bi640  1  0.12778817  0.40540157  0.57770079  1.0
  Bi  Bi641  1  0.12778817  0.73873490  0.57770079  1.0
  Bi  Bi642  1  0.46112150  0.07206824  0.57770079  1.0
  Bi  Bi643  1  0.46112150  0.40540157  0.57770079  1.0
  Bi  Bi644  1  0.46112150  0.73873490  0.57770079  1.0
  Bi  Bi645  1  0.79445483  0.07206824  0.57770079  1.0
  Bi  Bi646  1  0.79445483  0.40540157  0.57770079  1.0
  Bi  Bi647  1  0.79445483  0.73873490  0.57770079  1.0
  Ni  Ni648  1  0.26801167  0.07331705  0.99499186  1.0
  Ni  Ni649  1  0.26801167  0.40665038  0.99499186  1.0
  Ni  Ni650  1  0.26801167  0.73998371  0.99499186  1.0
  Ni  Ni651  1  0.60134500  0.07331705  0.99499186  1.0
  Ni  Ni652  1  0.60134500  0.40665038  0.99499186  1.0
  Ni  Ni653  1  0.60134500  0.73998371  0.99499186  1.0
  Ni  Ni654  1  0.93467833  0.07331705  0.99499186  1.0
  Ni  Ni655  1  0.93467833  0.40665038  0.99499186  1.0
  Ni  Ni656  1  0.93467833  0.73998371  0.99499186  1.0
  Ni  Ni657  1  0.10134500  0.26379324  0.92356329  1.0
  Ni  Ni658  1  0.10134500  0.59712657  0.92356329  1.0
  Ni  Ni659  1  0.10134500  0.93045990  0.92356329  1.0
  Ni  Ni660  1  0.43467833  0.26379324  0.92356329  1.0
  Ni  Ni661  1  0.43467833  0.59712657  0.92356329  1.0
  Ni  Ni662  1  0.43467833  0.93045990  0.92356329  1.0
  Ni  Ni663  1  0.76801167  0.26379324  0.92356329  1.0
  Ni  Ni664  1  0.76801167  0.59712657  0.92356329  1.0
  Ni  Ni665  1  0.76801167  0.93045990  0.92356329  1.0
  Ni  Ni666  1  0.06532167  0.30763533  0.86215100  1.0
  Ni  Ni667  1  0.06532167  0.64096867  0.86215100  1.0
  Ni  Ni668  1  0.06532167  0.97430200  0.86215100  1.0
  Ni  Ni669  1  0.39865500  0.30763533  0.86215100  1.0
  Ni  Ni670  1  0.39865500  0.64096867  0.86215100  1.0
  Ni  Ni671  1  0.39865500  0.97430200  0.86215100  1.0
  Ni  Ni672  1  0.73198833  0.30763533  0.86215100  1.0
  Ni  Ni673  1  0.73198833  0.64096867  0.86215100  1.0
  Ni  Ni674  1  0.73198833  0.97430200  0.86215100  1.0
  Ni  Ni675  1  0.23198833  0.11715914  0.93357957  1.0
  Ni  Ni676  1  0.23198833  0.45049248  0.93357957  1.0
  Ni  Ni677  1  0.23198833  0.78382581  0.93357957  1.0
  Ni  Ni678  1  0.56532167  0.11715914  0.93357957  1.0
  Ni  Ni679  1  0.56532167  0.45049248  0.93357957  1.0
  Ni  Ni680  1  0.56532167  0.78382581  0.93357957  1.0
  Ni  Ni681  1  0.89865500  0.11715914  0.93357957  1.0
  Ni  Ni682  1  0.89865500  0.45049248  0.93357957  1.0
  Ni  Ni683  1  0.89865500  0.78382581  0.93357957  1.0
  Ni  Ni684  1  0.26168567  0.25837095  0.92085214  1.0
  Ni  Ni685  1  0.26168567  0.59170429  0.92085214  1.0
  Ni  Ni686  1  0.26168567  0.92503762  0.92085214  1.0
  Ni  Ni687  1  0.59501900  0.25837095  0.92085214  1.0
  Ni  Ni688  1  0.59501900  0.59170429  0.92085214  1.0
  Ni  Ni689  1  0.59501900  0.92503762  0.92085214  1.0
  Ni  Ni690  1  0.92835233  0.25837095  0.92085214  1.0
  Ni  Ni691  1  0.92835233  0.59170429  0.92085214  1.0
  Ni  Ni692  1  0.92835233  0.92503762  0.92085214  1.0
  Ni  Ni693  1  0.09501900  0.06789476  0.99228071  1.0
  Ni  Ni694  1  0.09501900  0.40122810  0.99228071  1.0
  Ni  Ni695  1  0.09501900  0.73456143  0.99228071  1.0
  Ni  Ni696  1  0.42835233  0.06789476  0.99228071  1.0
  Ni  Ni697  1  0.42835233  0.40122810  0.99228071  1.0
  Ni  Ni698  1  0.42835233  0.73456143  0.99228071  1.0
  Ni  Ni699  1  0.76168567  0.06789476  0.99228071  1.0
  Ni  Ni700  1  0.76168567  0.40122810  0.99228071  1.0
  Ni  Ni701  1  0.76168567  0.73456143  0.99228071  1.0
  Ni  Ni702  1  0.07164767  0.12258143  0.93629071  1.0
  Ni  Ni703  1  0.07164767  0.45591476  0.93629071  1.0
  Ni  Ni704  1  0.07164767  0.78924810  0.93629071  1.0
  Ni  Ni705  1  0.40498100  0.12258143  0.93629071  1.0
  Ni  Ni706  1  0.40498100  0.45591476  0.93629071  1.0
  Ni  Ni707  1  0.40498100  0.78924810  0.93629071  1.0
  Ni  Ni708  1  0.73831433  0.12258143  0.93629071  1.0
  Ni  Ni709  1  0.73831433  0.45591476  0.93629071  1.0
  Ni  Ni710  1  0.73831433  0.78924810  0.93629071  1.0
  Ni  Ni711  1  0.23831433  0.31305762  0.86486214  1.0
  Ni  Ni712  1  0.23831433  0.64639095  0.86486214  1.0
  Ni  Ni713  1  0.23831433  0.97972429  0.86486214  1.0
  Ni  Ni714  1  0.57164767  0.31305762  0.86486214  1.0
  Ni  Ni715  1  0.57164767  0.64639095  0.86486214  1.0
  Ni  Ni716  1  0.57164767  0.97972429  0.86486214  1.0
  Ni  Ni717  1  0.90498100  0.31305762  0.86486214  1.0
  Ni  Ni718  1  0.90498100  0.64639095  0.86486214  1.0
  Ni  Ni719  1  0.90498100  0.97972429  0.86486214  1.0
  Ni  Ni720  1  0.26801167  0.12093610  0.85213471  1.0
  Ni  Ni721  1  0.26801167  0.45426943  0.85213471  1.0
  Ni  Ni722  1  0.26801167  0.78760276  0.85213471  1.0
  Ni  Ni723  1  0.60134500  0.12093610  0.85213471  1.0
  Ni  Ni724  1  0.60134500  0.45426943  0.85213471  1.0
  Ni  Ni725  1  0.60134500  0.78760276  0.85213471  1.0
  Ni  Ni726  1  0.93467833  0.12093610  0.85213471  1.0
  Ni  Ni727  1  0.93467833  0.45426943  0.85213471  1.0
  Ni  Ni728  1  0.93467833  0.78760276  0.85213471  1.0
  Ni  Ni729  1  0.10134500  0.31141229  0.78070614  1.0
  Ni  Ni730  1  0.10134500  0.64474562  0.78070614  1.0
  Ni  Ni731  1  0.10134500  0.97807895  0.78070614  1.0
  Ni  Ni732  1  0.43467833  0.31141229  0.78070614  1.0
  Ni  Ni733  1  0.43467833  0.64474562  0.78070614  1.0
  Ni  Ni734  1  0.43467833  0.97807895  0.78070614  1.0
  Ni  Ni735  1  0.76801167  0.31141229  0.78070614  1.0
  Ni  Ni736  1  0.76801167  0.64474562  0.78070614  1.0
  Ni  Ni737  1  0.76801167  0.97807895  0.78070614  1.0
  Ni  Ni738  1  0.06532167  0.02192105  0.71929386  1.0
  Ni  Ni739  1  0.06532167  0.35525438  0.71929386  1.0
  Ni  Ni740  1  0.06532167  0.68858771  0.71929386  1.0
  Ni  Ni741  1  0.39865500  0.02192105  0.71929386  1.0
  Ni  Ni742  1  0.39865500  0.35525438  0.71929386  1.0
  Ni  Ni743  1  0.39865500  0.68858771  0.71929386  1.0
  Ni  Ni744  1  0.73198833  0.02192105  0.71929386  1.0
  Ni  Ni745  1  0.73198833  0.35525438  0.71929386  1.0
  Ni  Ni746  1  0.73198833  0.68858771  0.71929386  1.0
  Ni  Ni747  1  0.23198833  0.16477819  0.79072243  1.0
  Ni  Ni748  1  0.23198833  0.49811152  0.79072243  1.0
  Ni  Ni749  1  0.23198833  0.83144486  0.79072243  1.0
  Ni  Ni750  1  0.56532167  0.16477819  0.79072243  1.0
  Ni  Ni751  1  0.56532167  0.49811152  0.79072243  1.0
  Ni  Ni752  1  0.56532167  0.83144486  0.79072243  1.0
  Ni  Ni753  1  0.89865500  0.16477819  0.79072243  1.0
  Ni  Ni754  1  0.89865500  0.49811152  0.79072243  1.0
  Ni  Ni755  1  0.89865500  0.83144486  0.79072243  1.0
  Ni  Ni756  1  0.26168567  0.30599000  0.77799500  1.0
  Ni  Ni757  1  0.26168567  0.63932333  0.77799500  1.0
  Ni  Ni758  1  0.26168567  0.97265667  0.77799500  1.0
  Ni  Ni759  1  0.59501900  0.30599000  0.77799500  1.0
  Ni  Ni760  1  0.59501900  0.63932333  0.77799500  1.0
  Ni  Ni761  1  0.59501900  0.97265667  0.77799500  1.0
  Ni  Ni762  1  0.92835233  0.30599000  0.77799500  1.0
  Ni  Ni763  1  0.92835233  0.63932333  0.77799500  1.0
  Ni  Ni764  1  0.92835233  0.97265667  0.77799500  1.0
  Ni  Ni765  1  0.09501900  0.11551381  0.84942357  1.0
  Ni  Ni766  1  0.09501900  0.44884714  0.84942357  1.0
  Ni  Ni767  1  0.09501900  0.78218048  0.84942357  1.0
  Ni  Ni768  1  0.42835233  0.11551381  0.84942357  1.0
  Ni  Ni769  1  0.42835233  0.44884714  0.84942357  1.0
  Ni  Ni770  1  0.42835233  0.78218048  0.84942357  1.0
  Ni  Ni771  1  0.76168567  0.11551381  0.84942357  1.0
  Ni  Ni772  1  0.76168567  0.44884714  0.84942357  1.0
  Ni  Ni773  1  0.76168567  0.78218048  0.84942357  1.0
  Ni  Ni774  1  0.07164767  0.17020048  0.79343357  1.0
  Ni  Ni775  1  0.07164767  0.50353381  0.79343357  1.0
  Ni  Ni776  1  0.07164767  0.83686714  0.79343357  1.0
  Ni  Ni777  1  0.40498100  0.17020048  0.79343357  1.0
  Ni  Ni778  1  0.40498100  0.50353381  0.79343357  1.0
  Ni  Ni779  1  0.40498100  0.83686714  0.79343357  1.0
  Ni  Ni780  1  0.73831433  0.17020048  0.79343357  1.0
  Ni  Ni781  1  0.73831433  0.50353381  0.79343357  1.0
  Ni  Ni782  1  0.73831433  0.83686714  0.79343357  1.0
  Ni  Ni783  1  0.23831433  0.02734333  0.72200500  1.0
  Ni  Ni784  1  0.23831433  0.36067667  0.72200500  1.0
  Ni  Ni785  1  0.23831433  0.69401000  0.72200500  1.0
  Ni  Ni786  1  0.57164767  0.02734333  0.72200500  1.0
  Ni  Ni787  1  0.57164767  0.36067667  0.72200500  1.0
  Ni  Ni788  1  0.57164767  0.69401000  0.72200500  1.0
  Ni  Ni789  1  0.90498100  0.02734333  0.72200500  1.0
  Ni  Ni790  1  0.90498100  0.36067667  0.72200500  1.0
  Ni  Ni791  1  0.90498100  0.69401000  0.72200500  1.0
  Ni  Ni792  1  0.26801167  0.16855514  0.70927757  1.0
  Ni  Ni793  1  0.26801167  0.50188848  0.70927757  1.0
  Ni  Ni794  1  0.26801167  0.83522181  0.70927757  1.0
  Ni  Ni795  1  0.60134500  0.16855514  0.70927757  1.0
  Ni  Ni796  1  0.60134500  0.50188848  0.70927757  1.0
  Ni  Ni797  1  0.60134500  0.83522181  0.70927757  1.0
  Ni  Ni798  1  0.93467833  0.16855514  0.70927757  1.0
  Ni  Ni799  1  0.93467833  0.50188848  0.70927757  1.0
  Ni  Ni800  1  0.93467833  0.83522181  0.70927757  1.0
  Ni  Ni801  1  0.10134500  0.02569800  0.63784900  1.0
  Ni  Ni802  1  0.10134500  0.35903133  0.63784900  1.0
  Ni  Ni803  1  0.10134500  0.69236467  0.63784900  1.0
  Ni  Ni804  1  0.43467833  0.02569800  0.63784900  1.0
  Ni  Ni805  1  0.43467833  0.35903133  0.63784900  1.0
  Ni  Ni806  1  0.43467833  0.69236467  0.63784900  1.0
  Ni  Ni807  1  0.76801167  0.02569800  0.63784900  1.0
  Ni  Ni808  1  0.76801167  0.35903133  0.63784900  1.0
  Ni  Ni809  1  0.76801167  0.69236467  0.63784900  1.0
  Ni  Ni810  1  0.06532167  0.06954010  0.57643671  1.0
  Ni  Ni811  1  0.06532167  0.40287343  0.57643671  1.0
  Ni  Ni812  1  0.06532167  0.73620676  0.57643671  1.0
  Ni  Ni813  1  0.39865500  0.06954010  0.57643671  1.0
  Ni  Ni814  1  0.39865500  0.40287343  0.57643671  1.0
  Ni  Ni815  1  0.39865500  0.73620676  0.57643671  1.0
  Ni  Ni816  1  0.73198833  0.06954010  0.57643671  1.0
  Ni  Ni817  1  0.73198833  0.40287343  0.57643671  1.0
  Ni  Ni818  1  0.73198833  0.73620676  0.57643671  1.0
  Ni  Ni819  1  0.23198833  0.21239724  0.64786529  1.0
  Ni  Ni820  1  0.23198833  0.54573057  0.64786529  1.0
  Ni  Ni821  1  0.23198833  0.87906390  0.64786529  1.0
  Ni  Ni822  1  0.56532167  0.21239724  0.64786529  1.0
  Ni  Ni823  1  0.56532167  0.54573057  0.64786529  1.0
  Ni  Ni824  1  0.56532167  0.87906390  0.64786529  1.0
  Ni  Ni825  1  0.89865500  0.21239724  0.64786529  1.0
  Ni  Ni826  1  0.89865500  0.54573057  0.64786529  1.0
  Ni  Ni827  1  0.89865500  0.87906390  0.64786529  1.0
  Ni  Ni828  1  0.26168567  0.02027571  0.63513786  1.0
  Ni  Ni829  1  0.26168567  0.35360905  0.63513786  1.0
  Ni  Ni830  1  0.26168567  0.68694238  0.63513786  1.0
  Ni  Ni831  1  0.59501900  0.02027571  0.63513786  1.0
  Ni  Ni832  1  0.59501900  0.35360905  0.63513786  1.0
  Ni  Ni833  1  0.59501900  0.68694238  0.63513786  1.0
  Ni  Ni834  1  0.92835233  0.02027571  0.63513786  1.0
  Ni  Ni835  1  0.92835233  0.35360905  0.63513786  1.0
  Ni  Ni836  1  0.92835233  0.68694238  0.63513786  1.0
  Ni  Ni837  1  0.09501900  0.16313286  0.70656643  1.0
  Ni  Ni838  1  0.09501900  0.49646619  0.70656643  1.0
  Ni  Ni839  1  0.09501900  0.82979952  0.70656643  1.0
  Ni  Ni840  1  0.42835233  0.16313286  0.70656643  1.0
  Ni  Ni841  1  0.42835233  0.49646619  0.70656643  1.0
  Ni  Ni842  1  0.42835233  0.82979952  0.70656643  1.0
  Ni  Ni843  1  0.76168567  0.16313286  0.70656643  1.0
  Ni  Ni844  1  0.76168567  0.49646619  0.70656643  1.0
  Ni  Ni845  1  0.76168567  0.82979952  0.70656643  1.0
  Ni  Ni846  1  0.07164767  0.21781952  0.65057643  1.0
  Ni  Ni847  1  0.07164767  0.55115286  0.65057643  1.0
  Ni  Ni848  1  0.07164767  0.88448619  0.65057643  1.0
  Ni  Ni849  1  0.40498100  0.21781952  0.65057643  1.0
  Ni  Ni850  1  0.40498100  0.55115286  0.65057643  1.0
  Ni  Ni851  1  0.40498100  0.88448619  0.65057643  1.0
  Ni  Ni852  1  0.73831433  0.21781952  0.65057643  1.0
  Ni  Ni853  1  0.73831433  0.55115286  0.65057643  1.0
  Ni  Ni854  1  0.73831433  0.88448619  0.65057643  1.0
  Ni  Ni855  1  0.23831433  0.07496238  0.57914786  1.0
  Ni  Ni856  1  0.23831433  0.40829571  0.57914786  1.0
  Ni  Ni857  1  0.23831433  0.74162905  0.57914786  1.0
  Ni  Ni858  1  0.57164767  0.07496238  0.57914786  1.0
  Ni  Ni859  1  0.57164767  0.40829571  0.57914786  1.0
  Ni  Ni860  1  0.57164767  0.74162905  0.57914786  1.0
  Ni  Ni861  1  0.90498100  0.07496238  0.57914786  1.0
  Ni  Ni862  1  0.90498100  0.40829571  0.57914786  1.0
  Ni  Ni863  1  0.90498100  0.74162905  0.57914786  1.0
