# generated using pymatgen
data_NiBi
_symmetry_space_group_name_H-M   'P 1'
_cell_length_a   34.56178324
_cell_length_b   65.21582562
_cell_length_c   27.34253054
_cell_angle_alpha   68.49981364
_cell_angle_beta   84.58082189
_cell_angle_gamma   86.03254560
_symmetry_Int_Tables_number   1
_chemical_formula_structural   NiBi
_chemical_formula_sum   'Ni576 Bi576'
_cell_volume   57044.91263677
_cell_formula_units_Z   576
loop_
 _symmetry_equiv_pos_site_id
 _symmetry_equiv_pos_as_xyz
  1  'x, y, z'
loop_
 _atom_site_type_symbol
 _atom_site_label
 _atom_site_symmetry_multiplicity
 _atom_site_fract_x
 _atom_site_fract_y
 _atom_site_fract_z
 _atom_site_occupancy
  Bi  Bi0  1  0.06263193  0.25500874  0.18399895  1.0
  Bi  Bi1  1  0.06263193  0.58834207  0.18399895  1.0
  Bi  Bi2  1  0.06263193  0.92167540  0.18399895  1.0
  Bi  Bi3  1  0.39596526  0.25500874  0.18399895  1.0
  Bi  Bi4  1  0.39596526  0.58834207  0.18399895  1.0
  Bi  Bi5  1  0.39596526  0.92167540  0.18399895  1.0
  Bi  Bi6  1  0.72929860  0.25500874  0.18399895  1.0
  Bi  Bi7  1  0.72929860  0.58834207  0.18399895  1.0
  Bi  Bi8  1  0.72929860  0.92167540  0.18399895  1.0
  Bi  Bi9  1  0.09596526  0.05500874  0.08399895  1.0
  Bi  Bi10  1  0.09596526  0.38834207  0.08399895  1.0
  Bi  Bi11  1  0.09596526  0.72167540  0.08399895  1.0
  Bi  Bi12  1  0.42929860  0.05500874  0.08399895  1.0
  Bi  Bi13  1  0.42929860  0.38834207  0.08399895  1.0
  Bi  Bi14  1  0.42929860  0.72167540  0.08399895  1.0
  Bi  Bi15  1  0.76263193  0.05500874  0.08399895  1.0
  Bi  Bi16  1  0.76263193  0.38834207  0.08399895  1.0
  Bi  Bi17  1  0.76263193  0.72167540  0.08399895  1.0
  Bi  Bi18  1  0.20867102  0.14289753  0.00435568  1.0
  Bi  Bi19  1  0.20867102  0.47623086  0.00435568  1.0
  Bi  Bi20  1  0.20867102  0.80956419  0.00435568  1.0
  Bi  Bi21  1  0.54200435  0.14289753  0.00435568  1.0
  Bi  Bi22  1  0.54200435  0.47623086  0.00435568  1.0
  Bi  Bi23  1  0.54200435  0.80956419  0.00435568  1.0
  Bi  Bi24  1  0.87533769  0.14289753  0.00435568  1.0
  Bi  Bi25  1  0.87533769  0.47623086  0.00435568  1.0
  Bi  Bi26  1  0.87533769  0.80956419  0.00435568  1.0
  Bi  Bi27  1  0.17533769  0.00956419  0.10435568  1.0
  Bi  Bi28  1  0.17533769  0.34289753  0.10435568  1.0
  Bi  Bi29  1  0.17533769  0.67623086  0.10435568  1.0
  Bi  Bi30  1  0.50867102  0.00956419  0.10435568  1.0
  Bi  Bi31  1  0.50867102  0.34289753  0.10435568  1.0
  Bi  Bi32  1  0.50867102  0.67623086  0.10435568  1.0
  Bi  Bi33  1  0.84200435  0.00956419  0.10435568  1.0
  Bi  Bi34  1  0.84200435  0.34289753  0.10435568  1.0
  Bi  Bi35  1  0.84200435  0.67623086  0.10435568  1.0
  Bi  Bi36  1  0.08173837  0.15185483  0.13357047  1.0
  Bi  Bi37  1  0.08173837  0.48518817  0.13357047  1.0
  Bi  Bi38  1  0.08173837  0.81852150  0.13357047  1.0
  Bi  Bi39  1  0.41507170  0.15185483  0.13357047  1.0
  Bi  Bi40  1  0.41507170  0.48518817  0.13357047  1.0
  Bi  Bi41  1  0.41507170  0.81852150  0.13357047  1.0
  Bi  Bi42  1  0.74840503  0.15185483  0.13357047  1.0
  Bi  Bi43  1  0.74840503  0.48518817  0.13357047  1.0
  Bi  Bi44  1  0.74840503  0.81852150  0.13357047  1.0
  Bi  Bi45  1  0.11507170  0.28518817  0.03357047  1.0
  Bi  Bi46  1  0.11507170  0.61852150  0.03357047  1.0
  Bi  Bi47  1  0.11507170  0.95185483  0.03357047  1.0
  Bi  Bi48  1  0.44840503  0.28518817  0.03357047  1.0
  Bi  Bi49  1  0.44840503  0.61852150  0.03357047  1.0
  Bi  Bi50  1  0.44840503  0.95185483  0.03357047  1.0
  Bi  Bi51  1  0.78173837  0.28518817  0.03357047  1.0
  Bi  Bi52  1  0.78173837  0.61852150  0.03357047  1.0
  Bi  Bi53  1  0.78173837  0.95185483  0.03357047  1.0
  Bi  Bi54  1  0.18877493  0.24433071  0.05327794  1.0
  Bi  Bi55  1  0.18877493  0.57766405  0.05327794  1.0
  Bi  Bi56  1  0.18877493  0.91099738  0.05327794  1.0
  Bi  Bi57  1  0.52210826  0.24433071  0.05327794  1.0
  Bi  Bi58  1  0.52210826  0.57766405  0.05327794  1.0
  Bi  Bi59  1  0.52210826  0.91099738  0.05327794  1.0
  Bi  Bi60  1  0.85544160  0.24433071  0.05327794  1.0
  Bi  Bi61  1  0.85544160  0.57766405  0.05327794  1.0
  Bi  Bi62  1  0.85544160  0.91099738  0.05327794  1.0
  Bi  Bi63  1  0.15544160  0.11099738  0.15327794  1.0
  Bi  Bi64  1  0.15544160  0.44433071  0.15327794  1.0
  Bi  Bi65  1  0.15544160  0.77766405  0.15327794  1.0
  Bi  Bi66  1  0.48877493  0.11099738  0.15327794  1.0
  Bi  Bi67  1  0.48877493  0.44433071  0.15327794  1.0
  Bi  Bi68  1  0.48877493  0.77766405  0.15327794  1.0
  Bi  Bi69  1  0.82210826  0.11099738  0.15327794  1.0
  Bi  Bi70  1  0.82210826  0.44433071  0.15327794  1.0
  Bi  Bi71  1  0.82210826  0.77766405  0.15327794  1.0
  Bi  Bi72  1  0.33181714  0.22713102  0.12878345  1.0
  Bi  Bi73  1  0.33181714  0.56046435  0.12878345  1.0
  Bi  Bi74  1  0.33181714  0.89379768  0.12878345  1.0
  Bi  Bi75  1  0.66515047  0.22713102  0.12878345  1.0
  Bi  Bi76  1  0.66515047  0.56046435  0.12878345  1.0
  Bi  Bi77  1  0.66515047  0.89379768  0.12878345  1.0
  Bi  Bi78  1  0.99848381  0.22713102  0.12878345  1.0
  Bi  Bi79  1  0.99848381  0.56046435  0.12878345  1.0
  Bi  Bi80  1  0.99848381  0.89379768  0.12878345  1.0
  Bi  Bi81  1  0.03181714  0.02713102  0.02878345  1.0
  Bi  Bi82  1  0.03181714  0.36046435  0.02878345  1.0
  Bi  Bi83  1  0.03181714  0.69379768  0.02878345  1.0
  Bi  Bi84  1  0.36515047  0.02713102  0.02878345  1.0
  Bi  Bi85  1  0.36515047  0.36046435  0.02878345  1.0
  Bi  Bi86  1  0.36515047  0.69379768  0.02878345  1.0
  Bi  Bi87  1  0.69848381  0.02713102  0.02878345  1.0
  Bi  Bi88  1  0.69848381  0.36046435  0.02878345  1.0
  Bi  Bi89  1  0.69848381  0.69379768  0.02878345  1.0
  Bi  Bi90  1  0.27075978  0.16884890  0.05717976  1.0
  Bi  Bi91  1  0.27075978  0.50218224  0.05717976  1.0
  Bi  Bi92  1  0.27075978  0.83551557  0.05717976  1.0
  Bi  Bi93  1  0.60409311  0.16884890  0.05717976  1.0
  Bi  Bi94  1  0.60409311  0.50218224  0.05717976  1.0
  Bi  Bi95  1  0.60409311  0.83551557  0.05717976  1.0
  Bi  Bi96  1  0.93742645  0.16884890  0.05717976  1.0
  Bi  Bi97  1  0.93742645  0.50218224  0.05717976  1.0
  Bi  Bi98  1  0.93742645  0.83551557  0.05717976  1.0
  Bi  Bi99  1  0.23742645  0.03551557  0.15717976  1.0
  Bi  Bi100  1  0.23742645  0.36884890  0.15717976  1.0
  Bi  Bi101  1  0.23742645  0.70218224  0.15717976  1.0
  Bi  Bi102  1  0.57075978  0.03551557  0.15717976  1.0
  Bi  Bi103  1  0.57075978  0.36884890  0.15717976  1.0
  Bi  Bi104  1  0.57075978  0.70218224  0.15717976  1.0
  Bi  Bi105  1  0.90409311  0.03551557  0.15717976  1.0
  Bi  Bi106  1  0.90409311  0.36884890  0.15717976  1.0
  Bi  Bi107  1  0.90409311  0.70218224  0.15717976  1.0
  Bi  Bi108  1  0.03309427  0.19672188  0.02242555  1.0
  Bi  Bi109  1  0.03309427  0.53005521  0.02242555  1.0
  Bi  Bi110  1  0.03309427  0.86338854  0.02242555  1.0
  Bi  Bi111  1  0.36642760  0.19672188  0.02242555  1.0
  Bi  Bi112  1  0.36642760  0.53005521  0.02242555  1.0
  Bi  Bi113  1  0.36642760  0.86338854  0.02242555  1.0
  Bi  Bi114  1  0.69976093  0.19672188  0.02242555  1.0
  Bi  Bi115  1  0.69976093  0.53005521  0.02242555  1.0
  Bi  Bi116  1  0.69976093  0.86338854  0.02242555  1.0
  Bi  Bi117  1  0.33309427  0.06338854  0.12242555  1.0
  Bi  Bi118  1  0.33309427  0.39672188  0.12242555  1.0
  Bi  Bi119  1  0.33309427  0.73005521  0.12242555  1.0
  Bi  Bi120  1  0.66642760  0.06338854  0.12242555  1.0
  Bi  Bi121  1  0.66642760  0.39672188  0.12242555  1.0
  Bi  Bi122  1  0.66642760  0.73005521  0.12242555  1.0
  Bi  Bi123  1  0.99976093  0.06338854  0.12242555  1.0
  Bi  Bi124  1  0.99976093  0.39672188  0.12242555  1.0
  Bi  Bi125  1  0.99976093  0.73005521  0.12242555  1.0
  Bi  Bi126  1  0.25791675  0.10175424  0.10069919  1.0
  Bi  Bi127  1  0.25791675  0.43508757  0.10069919  1.0
  Bi  Bi128  1  0.25791675  0.76842091  0.10069919  1.0
  Bi  Bi129  1  0.59125008  0.10175424  0.10069919  1.0
  Bi  Bi130  1  0.59125008  0.43508757  0.10069919  1.0
  Bi  Bi131  1  0.59125008  0.76842091  0.10069919  1.0
  Bi  Bi132  1  0.92458342  0.10175424  0.10069919  1.0
  Bi  Bi133  1  0.92458342  0.43508757  0.10069919  1.0
  Bi  Bi134  1  0.92458342  0.76842091  0.10069919  1.0
  Bi  Bi135  1  0.29125008  0.23508757  0.00069919  1.0
  Bi  Bi136  1  0.29125008  0.56842091  0.00069919  1.0
  Bi  Bi137  1  0.29125008  0.90175424  0.00069919  1.0
  Bi  Bi138  1  0.62458342  0.23508757  0.00069919  1.0
  Bi  Bi139  1  0.62458342  0.56842091  0.00069919  1.0
  Bi  Bi140  1  0.62458342  0.90175424  0.00069919  1.0
  Bi  Bi141  1  0.95791675  0.23508757  0.00069919  1.0
  Bi  Bi142  1  0.95791675  0.56842091  0.00069919  1.0
  Bi  Bi143  1  0.95791675  0.90175424  0.00069919  1.0
  Bi  Bi144  1  0.01198825  0.29376231  0.08574359  1.0
  Bi  Bi145  1  0.01198825  0.62709565  0.08574359  1.0
  Bi  Bi146  1  0.01198825  0.96042898  0.08574359  1.0
  Bi  Bi147  1  0.34532159  0.29376231  0.08574359  1.0
  Bi  Bi148  1  0.34532159  0.62709565  0.08574359  1.0
  Bi  Bi149  1  0.34532159  0.96042898  0.08574359  1.0
  Bi  Bi150  1  0.67865492  0.29376231  0.08574359  1.0
  Bi  Bi151  1  0.67865492  0.62709565  0.08574359  1.0
  Bi  Bi152  1  0.67865492  0.96042898  0.08574359  1.0
  Bi  Bi153  1  0.31198825  0.16042898  0.18574359  1.0
  Bi  Bi154  1  0.31198825  0.49376231  0.18574359  1.0
  Bi  Bi155  1  0.31198825  0.82709565  0.18574359  1.0
  Bi  Bi156  1  0.64532159  0.16042898  0.18574359  1.0
  Bi  Bi157  1  0.64532159  0.49376231  0.18574359  1.0
  Bi  Bi158  1  0.64532159  0.82709565  0.18574359  1.0
  Bi  Bi159  1  0.97865492  0.16042898  0.18574359  1.0
  Bi  Bi160  1  0.97865492  0.49376231  0.18574359  1.0
  Bi  Bi161  1  0.97865492  0.82709565  0.18574359  1.0
  Bi  Bi162  1  0.23699110  0.19891492  0.16347613  1.0
  Bi  Bi163  1  0.23699110  0.53224826  0.16347613  1.0
  Bi  Bi164  1  0.23699110  0.86558159  0.16347613  1.0
  Bi  Bi165  1  0.57032444  0.19891492  0.16347613  1.0
  Bi  Bi166  1  0.57032444  0.53224826  0.16347613  1.0
  Bi  Bi167  1  0.57032444  0.86558159  0.16347613  1.0
  Bi  Bi168  1  0.90365777  0.19891492  0.16347613  1.0
  Bi  Bi169  1  0.90365777  0.53224826  0.16347613  1.0
  Bi  Bi170  1  0.90365777  0.86558159  0.16347613  1.0
  Bi  Bi171  1  0.27032444  0.33224826  0.06347613  1.0
  Bi  Bi172  1  0.27032444  0.66558159  0.06347613  1.0
  Bi  Bi173  1  0.27032444  0.99891492  0.06347613  1.0
  Bi  Bi174  1  0.60365777  0.33224826  0.06347613  1.0
  Bi  Bi175  1  0.60365777  0.66558159  0.06347613  1.0
  Bi  Bi176  1  0.60365777  0.99891492  0.06347613  1.0
  Bi  Bi177  1  0.93699110  0.33224826  0.06347613  1.0
  Bi  Bi178  1  0.93699110  0.66558159  0.06347613  1.0
  Bi  Bi179  1  0.93699110  0.99891492  0.06347613  1.0
  Bi  Bi180  1  0.31517426  0.32406389  0.17695744  1.0
  Bi  Bi181  1  0.31517426  0.65739723  0.17695744  1.0
  Bi  Bi182  1  0.31517426  0.99073056  0.17695744  1.0
  Bi  Bi183  1  0.64850759  0.32406389  0.17695744  1.0
  Bi  Bi184  1  0.64850759  0.65739723  0.17695744  1.0
  Bi  Bi185  1  0.64850759  0.99073056  0.17695744  1.0
  Bi  Bi186  1  0.98184092  0.32406389  0.17695744  1.0
  Bi  Bi187  1  0.98184092  0.65739723  0.17695744  1.0
  Bi  Bi188  1  0.98184092  0.99073056  0.17695744  1.0
  Bi  Bi189  1  0.01517426  0.12406389  0.07695744  1.0
  Bi  Bi190  1  0.01517426  0.45739723  0.07695744  1.0
  Bi  Bi191  1  0.01517426  0.79073056  0.07695744  1.0
  Bi  Bi192  1  0.34850759  0.12406389  0.07695744  1.0
  Bi  Bi193  1  0.34850759  0.45739723  0.07695744  1.0
  Bi  Bi194  1  0.34850759  0.79073056  0.07695744  1.0
  Bi  Bi195  1  0.68184092  0.12406389  0.07695744  1.0
  Bi  Bi196  1  0.68184092  0.45739723  0.07695744  1.0
  Bi  Bi197  1  0.68184092  0.79073056  0.07695744  1.0
  Bi  Bi198  1  0.28821210  0.07184568  0.00944922  1.0
  Bi  Bi199  1  0.28821210  0.40517901  0.00944922  1.0
  Bi  Bi200  1  0.28821210  0.73851235  0.00944922  1.0
  Bi  Bi201  1  0.62154544  0.07184568  0.00944922  1.0
  Bi  Bi202  1  0.62154544  0.40517901  0.00944922  1.0
  Bi  Bi203  1  0.62154544  0.73851235  0.00944922  1.0
  Bi  Bi204  1  0.95487877  0.07184568  0.00944922  1.0
  Bi  Bi205  1  0.95487877  0.40517901  0.00944922  1.0
  Bi  Bi206  1  0.95487877  0.73851235  0.00944922  1.0
  Bi  Bi207  1  0.25487877  0.27184568  0.10944922  1.0
  Bi  Bi208  1  0.25487877  0.60517901  0.10944922  1.0
  Bi  Bi209  1  0.25487877  0.93851235  0.10944922  1.0
  Bi  Bi210  1  0.58821210  0.27184568  0.10944922  1.0
  Bi  Bi211  1  0.58821210  0.60517901  0.10944922  1.0
  Bi  Bi212  1  0.58821210  0.93851235  0.10944922  1.0
  Bi  Bi213  1  0.92154544  0.27184568  0.10944922  1.0
  Bi  Bi214  1  0.92154544  0.60517901  0.10944922  1.0
  Bi  Bi215  1  0.92154544  0.93851235  0.10944922  1.0
  Bi  Bi216  1  0.07706907  0.31574008  0.13802406  1.0
  Bi  Bi217  1  0.07706907  0.64907341  0.13802406  1.0
  Bi  Bi218  1  0.07706907  0.98240675  0.13802406  1.0
  Bi  Bi219  1  0.41040241  0.31574008  0.13802406  1.0
  Bi  Bi220  1  0.41040241  0.64907341  0.13802406  1.0
  Bi  Bi221  1  0.41040241  0.98240675  0.13802406  1.0
  Bi  Bi222  1  0.74373574  0.31574008  0.13802406  1.0
  Bi  Bi223  1  0.74373574  0.64907341  0.13802406  1.0
  Bi  Bi224  1  0.74373574  0.98240675  0.13802406  1.0
  Bi  Bi225  1  0.11040241  0.11574008  0.03802406  1.0
  Bi  Bi226  1  0.11040241  0.44907341  0.03802406  1.0
  Bi  Bi227  1  0.11040241  0.78240675  0.03802406  1.0
  Bi  Bi228  1  0.44373574  0.11574008  0.03802406  1.0
  Bi  Bi229  1  0.44373574  0.44907341  0.03802406  1.0
  Bi  Bi230  1  0.44373574  0.78240675  0.03802406  1.0
  Bi  Bi231  1  0.77706907  0.11574008  0.03802406  1.0
  Bi  Bi232  1  0.77706907  0.44907341  0.03802406  1.0
  Bi  Bi233  1  0.77706907  0.78240675  0.03802406  1.0
  Bi  Bi234  1  0.17334386  0.17644273  0.10635396  1.0
  Bi  Bi235  1  0.17334386  0.50977607  0.10635396  1.0
  Bi  Bi236  1  0.17334386  0.84310940  0.10635396  1.0
  Bi  Bi237  1  0.50667719  0.17644273  0.10635396  1.0
  Bi  Bi238  1  0.50667719  0.50977607  0.10635396  1.0
  Bi  Bi239  1  0.50667719  0.84310940  0.10635396  1.0
  Bi  Bi240  1  0.84001052  0.17644273  0.10635396  1.0
  Bi  Bi241  1  0.84001052  0.50977607  0.10635396  1.0
  Bi  Bi242  1  0.84001052  0.84310940  0.10635396  1.0
  Bi  Bi243  1  0.20667719  0.30977607  0.00635396  1.0
  Bi  Bi244  1  0.20667719  0.64310940  0.00635396  1.0
  Bi  Bi245  1  0.20667719  0.97644273  0.00635396  1.0
  Bi  Bi246  1  0.54001052  0.30977607  0.00635396  1.0
  Bi  Bi247  1  0.54001052  0.64310940  0.00635396  1.0
  Bi  Bi248  1  0.54001052  0.97644273  0.00635396  1.0
  Bi  Bi249  1  0.87334386  0.30977607  0.00635396  1.0
  Bi  Bi250  1  0.87334386  0.64310940  0.00635396  1.0
  Bi  Bi251  1  0.87334386  0.97644273  0.00635396  1.0
  Bi  Bi252  1  0.09819775  0.21871475  0.07463804  1.0
  Bi  Bi253  1  0.09819775  0.55204809  0.07463804  1.0
  Bi  Bi254  1  0.09819775  0.88538142  0.07463804  1.0
  Bi  Bi255  1  0.43153108  0.21871475  0.07463804  1.0
  Bi  Bi256  1  0.43153108  0.55204809  0.07463804  1.0
  Bi  Bi257  1  0.43153108  0.88538142  0.07463804  1.0
  Bi  Bi258  1  0.76486441  0.21871475  0.07463804  1.0
  Bi  Bi259  1  0.76486441  0.55204809  0.07463804  1.0
  Bi  Bi260  1  0.76486441  0.88538142  0.07463804  1.0
  Bi  Bi261  1  0.06486441  0.08538142  0.17463804  1.0
  Bi  Bi262  1  0.06486441  0.41871475  0.17463804  1.0
  Bi  Bi263  1  0.06486441  0.75204809  0.17463804  1.0
  Bi  Bi264  1  0.39819775  0.08538142  0.17463804  1.0
  Bi  Bi265  1  0.39819775  0.41871475  0.17463804  1.0
  Bi  Bi266  1  0.39819775  0.75204809  0.17463804  1.0
  Bi  Bi267  1  0.73153108  0.08538142  0.17463804  1.0
  Bi  Bi268  1  0.73153108  0.41871475  0.17463804  1.0
  Bi  Bi269  1  0.73153108  0.75204809  0.17463804  1.0
  Bi  Bi270  1  0.15821092  0.27746522  0.15175278  1.0
  Bi  Bi271  1  0.15821092  0.61079855  0.15175278  1.0
  Bi  Bi272  1  0.15821092  0.94413188  0.15175278  1.0
  Bi  Bi273  1  0.49154425  0.27746522  0.15175278  1.0
  Bi  Bi274  1  0.49154425  0.61079855  0.15175278  1.0
  Bi  Bi275  1  0.49154425  0.94413188  0.15175278  1.0
  Bi  Bi276  1  0.82487758  0.27746522  0.15175278  1.0
  Bi  Bi277  1  0.82487758  0.61079855  0.15175278  1.0
  Bi  Bi278  1  0.82487758  0.94413188  0.15175278  1.0
  Bi  Bi279  1  0.19154425  0.07746522  0.05175278  1.0
  Bi  Bi280  1  0.19154425  0.41079855  0.05175278  1.0
  Bi  Bi281  1  0.19154425  0.74413188  0.05175278  1.0
  Bi  Bi282  1  0.52487758  0.07746522  0.05175278  1.0
  Bi  Bi283  1  0.52487758  0.41079855  0.05175278  1.0
  Bi  Bi284  1  0.52487758  0.74413188  0.05175278  1.0
  Bi  Bi285  1  0.85821092  0.07746522  0.05175278  1.0
  Bi  Bi286  1  0.85821092  0.41079855  0.05175278  1.0
  Bi  Bi287  1  0.85821092  0.74413188  0.05175278  1.0
  Bi  Bi288  1  0.32929860  0.32167540  0.38399895  1.0
  Bi  Bi289  1  0.32929860  0.65500874  0.38399895  1.0
  Bi  Bi290  1  0.32929860  0.98834207  0.38399895  1.0
  Bi  Bi291  1  0.66263193  0.32167540  0.38399895  1.0
  Bi  Bi292  1  0.66263193  0.65500874  0.38399895  1.0
  Bi  Bi293  1  0.66263193  0.98834207  0.38399895  1.0
  Bi  Bi294  1  0.99596526  0.32167540  0.38399895  1.0
  Bi  Bi295  1  0.99596526  0.65500874  0.38399895  1.0
  Bi  Bi296  1  0.99596526  0.98834207  0.38399895  1.0
  Bi  Bi297  1  0.02929860  0.12167540  0.28399895  1.0
  Bi  Bi298  1  0.02929860  0.45500874  0.28399895  1.0
  Bi  Bi299  1  0.02929860  0.78834207  0.28399895  1.0
  Bi  Bi300  1  0.36263193  0.12167540  0.28399895  1.0
  Bi  Bi301  1  0.36263193  0.45500874  0.28399895  1.0
  Bi  Bi302  1  0.36263193  0.78834207  0.28399895  1.0
  Bi  Bi303  1  0.69596526  0.12167540  0.28399895  1.0
  Bi  Bi304  1  0.69596526  0.45500874  0.28399895  1.0
  Bi  Bi305  1  0.69596526  0.78834207  0.28399895  1.0
  Bi  Bi306  1  0.14200435  0.20956419  0.20435568  1.0
  Bi  Bi307  1  0.14200435  0.54289753  0.20435568  1.0
  Bi  Bi308  1  0.14200435  0.87623086  0.20435568  1.0
  Bi  Bi309  1  0.47533769  0.20956419  0.20435568  1.0
  Bi  Bi310  1  0.47533769  0.54289753  0.20435568  1.0
  Bi  Bi311  1  0.47533769  0.87623086  0.20435568  1.0
  Bi  Bi312  1  0.80867102  0.20956419  0.20435568  1.0
  Bi  Bi313  1  0.80867102  0.54289753  0.20435568  1.0
  Bi  Bi314  1  0.80867102  0.87623086  0.20435568  1.0
  Bi  Bi315  1  0.10867102  0.07623086  0.30435568  1.0
  Bi  Bi316  1  0.10867102  0.40956419  0.30435568  1.0
  Bi  Bi317  1  0.10867102  0.74289753  0.30435568  1.0
  Bi  Bi318  1  0.44200435  0.07623086  0.30435568  1.0
  Bi  Bi319  1  0.44200435  0.40956419  0.30435568  1.0
  Bi  Bi320  1  0.44200435  0.74289753  0.30435568  1.0
  Bi  Bi321  1  0.77533769  0.07623086  0.30435568  1.0
  Bi  Bi322  1  0.77533769  0.40956419  0.30435568  1.0
  Bi  Bi323  1  0.77533769  0.74289753  0.30435568  1.0
  Bi  Bi324  1  0.01507170  0.21852150  0.33357047  1.0
  Bi  Bi325  1  0.01507170  0.55185483  0.33357047  1.0
  Bi  Bi326  1  0.01507170  0.88518817  0.33357047  1.0
  Bi  Bi327  1  0.34840503  0.21852150  0.33357047  1.0
  Bi  Bi328  1  0.34840503  0.55185483  0.33357047  1.0
  Bi  Bi329  1  0.34840503  0.88518817  0.33357047  1.0
  Bi  Bi330  1  0.68173837  0.21852150  0.33357047  1.0
  Bi  Bi331  1  0.68173837  0.55185483  0.33357047  1.0
  Bi  Bi332  1  0.68173837  0.88518817  0.33357047  1.0
  Bi  Bi333  1  0.04840503  0.01852150  0.23357047  1.0
  Bi  Bi334  1  0.04840503  0.35185483  0.23357047  1.0
  Bi  Bi335  1  0.04840503  0.68518817  0.23357047  1.0
  Bi  Bi336  1  0.38173837  0.01852150  0.23357047  1.0
  Bi  Bi337  1  0.38173837  0.35185483  0.23357047  1.0
  Bi  Bi338  1  0.38173837  0.68518817  0.23357047  1.0
  Bi  Bi339  1  0.71507170  0.01852150  0.23357047  1.0
  Bi  Bi340  1  0.71507170  0.35185483  0.23357047  1.0
  Bi  Bi341  1  0.71507170  0.68518817  0.23357047  1.0
  Bi  Bi342  1  0.12210826  0.31099738  0.25327794  1.0
  Bi  Bi343  1  0.12210826  0.64433071  0.25327794  1.0
  Bi  Bi344  1  0.12210826  0.97766405  0.25327794  1.0
  Bi  Bi345  1  0.45544160  0.31099738  0.25327794  1.0
  Bi  Bi346  1  0.45544160  0.64433071  0.25327794  1.0
  Bi  Bi347  1  0.45544160  0.97766405  0.25327794  1.0
  Bi  Bi348  1  0.78877493  0.31099738  0.25327794  1.0
  Bi  Bi349  1  0.78877493  0.64433071  0.25327794  1.0
  Bi  Bi350  1  0.78877493  0.97766405  0.25327794  1.0
  Bi  Bi351  1  0.08877493  0.17766405  0.35327794  1.0
  Bi  Bi352  1  0.08877493  0.51099738  0.35327794  1.0
  Bi  Bi353  1  0.08877493  0.84433071  0.35327794  1.0
  Bi  Bi354  1  0.42210826  0.17766405  0.35327794  1.0
  Bi  Bi355  1  0.42210826  0.51099738  0.35327794  1.0
  Bi  Bi356  1  0.42210826  0.84433071  0.35327794  1.0
  Bi  Bi357  1  0.75544160  0.17766405  0.35327794  1.0
  Bi  Bi358  1  0.75544160  0.51099738  0.35327794  1.0
  Bi  Bi359  1  0.75544160  0.84433071  0.35327794  1.0
  Bi  Bi360  1  0.26515047  0.29379768  0.32878345  1.0
  Bi  Bi361  1  0.26515047  0.62713102  0.32878345  1.0
  Bi  Bi362  1  0.26515047  0.96046435  0.32878345  1.0
  Bi  Bi363  1  0.59848381  0.29379768  0.32878345  1.0
  Bi  Bi364  1  0.59848381  0.62713102  0.32878345  1.0
  Bi  Bi365  1  0.59848381  0.96046435  0.32878345  1.0
  Bi  Bi366  1  0.93181714  0.29379768  0.32878345  1.0
  Bi  Bi367  1  0.93181714  0.62713102  0.32878345  1.0
  Bi  Bi368  1  0.93181714  0.96046435  0.32878345  1.0
  Bi  Bi369  1  0.29848381  0.09379768  0.22878345  1.0
  Bi  Bi370  1  0.29848381  0.42713102  0.22878345  1.0
  Bi  Bi371  1  0.29848381  0.76046435  0.22878345  1.0
  Bi  Bi372  1  0.63181714  0.09379768  0.22878345  1.0
  Bi  Bi373  1  0.63181714  0.42713102  0.22878345  1.0
  Bi  Bi374  1  0.63181714  0.76046435  0.22878345  1.0
  Bi  Bi375  1  0.96515047  0.09379768  0.22878345  1.0
  Bi  Bi376  1  0.96515047  0.42713102  0.22878345  1.0
  Bi  Bi377  1  0.96515047  0.76046435  0.22878345  1.0
  Bi  Bi378  1  0.20409311  0.23551557  0.25717976  1.0
  Bi  Bi379  1  0.20409311  0.56884890  0.25717976  1.0
  Bi  Bi380  1  0.20409311  0.90218224  0.25717976  1.0
  Bi  Bi381  1  0.53742645  0.23551557  0.25717976  1.0
  Bi  Bi382  1  0.53742645  0.56884890  0.25717976  1.0
  Bi  Bi383  1  0.53742645  0.90218224  0.25717976  1.0
  Bi  Bi384  1  0.87075978  0.23551557  0.25717976  1.0
  Bi  Bi385  1  0.87075978  0.56884890  0.25717976  1.0
  Bi  Bi386  1  0.87075978  0.90218224  0.25717976  1.0
  Bi  Bi387  1  0.17075978  0.10218224  0.35717976  1.0
  Bi  Bi388  1  0.17075978  0.43551557  0.35717976  1.0
  Bi  Bi389  1  0.17075978  0.76884890  0.35717976  1.0
  Bi  Bi390  1  0.50409311  0.10218224  0.35717976  1.0
  Bi  Bi391  1  0.50409311  0.43551557  0.35717976  1.0
  Bi  Bi392  1  0.50409311  0.76884890  0.35717976  1.0
  Bi  Bi393  1  0.83742645  0.10218224  0.35717976  1.0
  Bi  Bi394  1  0.83742645  0.43551557  0.35717976  1.0
  Bi  Bi395  1  0.83742645  0.76884890  0.35717976  1.0
  Bi  Bi396  1  0.29976093  0.26338854  0.22242555  1.0
  Bi  Bi397  1  0.29976093  0.59672188  0.22242555  1.0
  Bi  Bi398  1  0.29976093  0.93005521  0.22242555  1.0
  Bi  Bi399  1  0.63309427  0.26338854  0.22242555  1.0
  Bi  Bi400  1  0.63309427  0.59672188  0.22242555  1.0
  Bi  Bi401  1  0.63309427  0.93005521  0.22242555  1.0
  Bi  Bi402  1  0.96642760  0.26338854  0.22242555  1.0
  Bi  Bi403  1  0.96642760  0.59672188  0.22242555  1.0
  Bi  Bi404  1  0.96642760  0.93005521  0.22242555  1.0
  Bi  Bi405  1  0.26642760  0.13005521  0.32242555  1.0
  Bi  Bi406  1  0.26642760  0.46338854  0.32242555  1.0
  Bi  Bi407  1  0.26642760  0.79672188  0.32242555  1.0
  Bi  Bi408  1  0.59976093  0.13005521  0.32242555  1.0
  Bi  Bi409  1  0.59976093  0.46338854  0.32242555  1.0
  Bi  Bi410  1  0.59976093  0.79672188  0.32242555  1.0
  Bi  Bi411  1  0.93309427  0.13005521  0.32242555  1.0
  Bi  Bi412  1  0.93309427  0.46338854  0.32242555  1.0
  Bi  Bi413  1  0.93309427  0.79672188  0.32242555  1.0
  Bi  Bi414  1  0.19125008  0.16842091  0.30069919  1.0
  Bi  Bi415  1  0.19125008  0.50175424  0.30069919  1.0
  Bi  Bi416  1  0.19125008  0.83508757  0.30069919  1.0
  Bi  Bi417  1  0.52458342  0.16842091  0.30069919  1.0
  Bi  Bi418  1  0.52458342  0.50175424  0.30069919  1.0
  Bi  Bi419  1  0.52458342  0.83508757  0.30069919  1.0
  Bi  Bi420  1  0.85791675  0.16842091  0.30069919  1.0
  Bi  Bi421  1  0.85791675  0.50175424  0.30069919  1.0
  Bi  Bi422  1  0.85791675  0.83508757  0.30069919  1.0
  Bi  Bi423  1  0.22458342  0.30175424  0.20069919  1.0
  Bi  Bi424  1  0.22458342  0.63508757  0.20069919  1.0
  Bi  Bi425  1  0.22458342  0.96842091  0.20069919  1.0
  Bi  Bi426  1  0.55791675  0.30175424  0.20069919  1.0
  Bi  Bi427  1  0.55791675  0.63508757  0.20069919  1.0
  Bi  Bi428  1  0.55791675  0.96842091  0.20069919  1.0
  Bi  Bi429  1  0.89125008  0.30175424  0.20069919  1.0
  Bi  Bi430  1  0.89125008  0.63508757  0.20069919  1.0
  Bi  Bi431  1  0.89125008  0.96842091  0.20069919  1.0
  Bi  Bi432  1  0.27865492  0.02709565  0.28574359  1.0
  Bi  Bi433  1  0.27865492  0.36042898  0.28574359  1.0
  Bi  Bi434  1  0.27865492  0.69376231  0.28574359  1.0
  Bi  Bi435  1  0.61198825  0.02709565  0.28574359  1.0
  Bi  Bi436  1  0.61198825  0.36042898  0.28574359  1.0
  Bi  Bi437  1  0.61198825  0.69376231  0.28574359  1.0
  Bi  Bi438  1  0.94532159  0.02709565  0.28574359  1.0
  Bi  Bi439  1  0.94532159  0.36042898  0.28574359  1.0
  Bi  Bi440  1  0.94532159  0.69376231  0.28574359  1.0
  Bi  Bi441  1  0.24532159  0.22709565  0.38574359  1.0
  Bi  Bi442  1  0.24532159  0.56042898  0.38574359  1.0
  Bi  Bi443  1  0.24532159  0.89376231  0.38574359  1.0
  Bi  Bi444  1  0.57865492  0.22709565  0.38574359  1.0
  Bi  Bi445  1  0.57865492  0.56042898  0.38574359  1.0
  Bi  Bi446  1  0.57865492  0.89376231  0.38574359  1.0
  Bi  Bi447  1  0.91198825  0.22709565  0.38574359  1.0
  Bi  Bi448  1  0.91198825  0.56042898  0.38574359  1.0
  Bi  Bi449  1  0.91198825  0.89376231  0.38574359  1.0
  Bi  Bi450  1  0.17032444  0.26558159  0.36347613  1.0
  Bi  Bi451  1  0.17032444  0.59891492  0.36347613  1.0
  Bi  Bi452  1  0.17032444  0.93224826  0.36347613  1.0
  Bi  Bi453  1  0.50365777  0.26558159  0.36347613  1.0
  Bi  Bi454  1  0.50365777  0.59891492  0.36347613  1.0
  Bi  Bi455  1  0.50365777  0.93224826  0.36347613  1.0
  Bi  Bi456  1  0.83699110  0.26558159  0.36347613  1.0
  Bi  Bi457  1  0.83699110  0.59891492  0.36347613  1.0
  Bi  Bi458  1  0.83699110  0.93224826  0.36347613  1.0
  Bi  Bi459  1  0.20365777  0.06558159  0.26347613  1.0
  Bi  Bi460  1  0.20365777  0.39891492  0.26347613  1.0
  Bi  Bi461  1  0.20365777  0.73224826  0.26347613  1.0
  Bi  Bi462  1  0.53699110  0.06558159  0.26347613  1.0
  Bi  Bi463  1  0.53699110  0.39891492  0.26347613  1.0
  Bi  Bi464  1  0.53699110  0.73224826  0.26347613  1.0
  Bi  Bi465  1  0.87032444  0.06558159  0.26347613  1.0
  Bi  Bi466  1  0.87032444  0.39891492  0.26347613  1.0
  Bi  Bi467  1  0.87032444  0.73224826  0.26347613  1.0
  Bi  Bi468  1  0.24850759  0.05739723  0.37695744  1.0
  Bi  Bi469  1  0.24850759  0.39073056  0.37695744  1.0
  Bi  Bi470  1  0.24850759  0.72406389  0.37695744  1.0
  Bi  Bi471  1  0.58184092  0.05739723  0.37695744  1.0
  Bi  Bi472  1  0.58184092  0.39073056  0.37695744  1.0
  Bi  Bi473  1  0.58184092  0.72406389  0.37695744  1.0
  Bi  Bi474  1  0.91517426  0.05739723  0.37695744  1.0
  Bi  Bi475  1  0.91517426  0.39073056  0.37695744  1.0
  Bi  Bi476  1  0.91517426  0.72406389  0.37695744  1.0
  Bi  Bi477  1  0.28184092  0.19073056  0.27695744  1.0
  Bi  Bi478  1  0.28184092  0.52406389  0.27695744  1.0
  Bi  Bi479  1  0.28184092  0.85739723  0.27695744  1.0
  Bi  Bi480  1  0.61517426  0.19073056  0.27695744  1.0
  Bi  Bi481  1  0.61517426  0.52406389  0.27695744  1.0
  Bi  Bi482  1  0.61517426  0.85739723  0.27695744  1.0
  Bi  Bi483  1  0.94850759  0.19073056  0.27695744  1.0
  Bi  Bi484  1  0.94850759  0.52406389  0.27695744  1.0
  Bi  Bi485  1  0.94850759  0.85739723  0.27695744  1.0
  Bi  Bi486  1  0.22154544  0.13851235  0.20944922  1.0
  Bi  Bi487  1  0.22154544  0.47184568  0.20944922  1.0
  Bi  Bi488  1  0.22154544  0.80517901  0.20944922  1.0
  Bi  Bi489  1  0.55487877  0.13851235  0.20944922  1.0
  Bi  Bi490  1  0.55487877  0.47184568  0.20944922  1.0
  Bi  Bi491  1  0.55487877  0.80517901  0.20944922  1.0
  Bi  Bi492  1  0.88821210  0.13851235  0.20944922  1.0
  Bi  Bi493  1  0.88821210  0.47184568  0.20944922  1.0
  Bi  Bi494  1  0.88821210  0.80517901  0.20944922  1.0
  Bi  Bi495  1  0.18821210  0.00517901  0.30944922  1.0
  Bi  Bi496  1  0.18821210  0.33851235  0.30944922  1.0
  Bi  Bi497  1  0.18821210  0.67184568  0.30944922  1.0
  Bi  Bi498  1  0.52154544  0.00517901  0.30944922  1.0
  Bi  Bi499  1  0.52154544  0.33851235  0.30944922  1.0
  Bi  Bi500  1  0.52154544  0.67184568  0.30944922  1.0
  Bi  Bi501  1  0.85487877  0.00517901  0.30944922  1.0
  Bi  Bi502  1  0.85487877  0.33851235  0.30944922  1.0
  Bi  Bi503  1  0.85487877  0.67184568  0.30944922  1.0
  Bi  Bi504  1  0.01040241  0.04907341  0.33802406  1.0
  Bi  Bi505  1  0.01040241  0.38240675  0.33802406  1.0
  Bi  Bi506  1  0.01040241  0.71574008  0.33802406  1.0
  Bi  Bi507  1  0.34373574  0.04907341  0.33802406  1.0
  Bi  Bi508  1  0.34373574  0.38240675  0.33802406  1.0
  Bi  Bi509  1  0.34373574  0.71574008  0.33802406  1.0
  Bi  Bi510  1  0.67706907  0.04907341  0.33802406  1.0
  Bi  Bi511  1  0.67706907  0.38240675  0.33802406  1.0
  Bi  Bi512  1  0.67706907  0.71574008  0.33802406  1.0
  Bi  Bi513  1  0.04373574  0.18240675  0.23802406  1.0
  Bi  Bi514  1  0.04373574  0.51574008  0.23802406  1.0
  Bi  Bi515  1  0.04373574  0.84907341  0.23802406  1.0
  Bi  Bi516  1  0.37706907  0.18240675  0.23802406  1.0
  Bi  Bi517  1  0.37706907  0.51574008  0.23802406  1.0
  Bi  Bi518  1  0.37706907  0.84907341  0.23802406  1.0
  Bi  Bi519  1  0.71040241  0.18240675  0.23802406  1.0
  Bi  Bi520  1  0.71040241  0.51574008  0.23802406  1.0
  Bi  Bi521  1  0.71040241  0.84907341  0.23802406  1.0
  Bi  Bi522  1  0.10667719  0.24310940  0.30635396  1.0
  Bi  Bi523  1  0.10667719  0.57644273  0.30635396  1.0
  Bi  Bi524  1  0.10667719  0.90977607  0.30635396  1.0
  Bi  Bi525  1  0.44001052  0.24310940  0.30635396  1.0
  Bi  Bi526  1  0.44001052  0.57644273  0.30635396  1.0
  Bi  Bi527  1  0.44001052  0.90977607  0.30635396  1.0
  Bi  Bi528  1  0.77334386  0.24310940  0.30635396  1.0
  Bi  Bi529  1  0.77334386  0.57644273  0.30635396  1.0
  Bi  Bi530  1  0.77334386  0.90977607  0.30635396  1.0
  Bi  Bi531  1  0.14001052  0.04310940  0.20635396  1.0
  Bi  Bi532  1  0.14001052  0.37644273  0.20635396  1.0
  Bi  Bi533  1  0.14001052  0.70977607  0.20635396  1.0
  Bi  Bi534  1  0.47334386  0.04310940  0.20635396  1.0
  Bi  Bi535  1  0.47334386  0.37644273  0.20635396  1.0
  Bi  Bi536  1  0.47334386  0.70977607  0.20635396  1.0
  Bi  Bi537  1  0.80667719  0.04310940  0.20635396  1.0
  Bi  Bi538  1  0.80667719  0.37644273  0.20635396  1.0
  Bi  Bi539  1  0.80667719  0.70977607  0.20635396  1.0
  Bi  Bi540  1  0.03153108  0.28538142  0.27463804  1.0
  Bi  Bi541  1  0.03153108  0.61871475  0.27463804  1.0
  Bi  Bi542  1  0.03153108  0.95204809  0.27463804  1.0
  Bi  Bi543  1  0.36486441  0.28538142  0.27463804  1.0
  Bi  Bi544  1  0.36486441  0.61871475  0.27463804  1.0
  Bi  Bi545  1  0.36486441  0.95204809  0.27463804  1.0
  Bi  Bi546  1  0.69819775  0.28538142  0.27463804  1.0
  Bi  Bi547  1  0.69819775  0.61871475  0.27463804  1.0
  Bi  Bi548  1  0.69819775  0.95204809  0.27463804  1.0
  Bi  Bi549  1  0.33153108  0.15204809  0.37463804  1.0
  Bi  Bi550  1  0.33153108  0.48538142  0.37463804  1.0
  Bi  Bi551  1  0.33153108  0.81871475  0.37463804  1.0
  Bi  Bi552  1  0.66486441  0.15204809  0.37463804  1.0
  Bi  Bi553  1  0.66486441  0.48538142  0.37463804  1.0
  Bi  Bi554  1  0.66486441  0.81871475  0.37463804  1.0
  Bi  Bi555  1  0.99819775  0.15204809  0.37463804  1.0
  Bi  Bi556  1  0.99819775  0.48538142  0.37463804  1.0
  Bi  Bi557  1  0.99819775  0.81871475  0.37463804  1.0
  Bi  Bi558  1  0.09154425  0.01079855  0.35175278  1.0
  Bi  Bi559  1  0.09154425  0.34413188  0.35175278  1.0
  Bi  Bi560  1  0.09154425  0.67746522  0.35175278  1.0
  Bi  Bi561  1  0.42487758  0.01079855  0.35175278  1.0
  Bi  Bi562  1  0.42487758  0.34413188  0.35175278  1.0
  Bi  Bi563  1  0.42487758  0.67746522  0.35175278  1.0
  Bi  Bi564  1  0.75821092  0.01079855  0.35175278  1.0
  Bi  Bi565  1  0.75821092  0.34413188  0.35175278  1.0
  Bi  Bi566  1  0.75821092  0.67746522  0.35175278  1.0
  Bi  Bi567  1  0.12487758  0.14413188  0.25175278  1.0
  Bi  Bi568  1  0.12487758  0.47746522  0.25175278  1.0
  Bi  Bi569  1  0.12487758  0.81079855  0.25175278  1.0
  Bi  Bi570  1  0.45821092  0.14413188  0.25175278  1.0
  Bi  Bi571  1  0.45821092  0.47746522  0.25175278  1.0
  Bi  Bi572  1  0.45821092  0.81079855  0.25175278  1.0
  Bi  Bi573  1  0.79154425  0.14413188  0.25175278  1.0
  Bi  Bi574  1  0.79154425  0.47746522  0.25175278  1.0
  Bi  Bi575  1  0.79154425  0.81079855  0.25175278  1.0
  Ni  Ni576  1  0.10853907  0.18229586  0.16791551  1.0
  Ni  Ni577  1  0.10853907  0.51562919  0.16791551  1.0
  Ni  Ni578  1  0.10853907  0.84896252  0.16791551  1.0
  Ni  Ni579  1  0.44187241  0.18229586  0.16791551  1.0
  Ni  Ni580  1  0.44187241  0.51562919  0.16791551  1.0
  Ni  Ni581  1  0.44187241  0.84896252  0.16791551  1.0
  Ni  Ni582  1  0.77520574  0.18229586  0.16791551  1.0
  Ni  Ni583  1  0.77520574  0.51562919  0.16791551  1.0
  Ni  Ni584  1  0.77520574  0.84896252  0.16791551  1.0
  Ni  Ni585  1  0.14187241  0.31562919  0.06791551  1.0
  Ni  Ni586  1  0.14187241  0.64896252  0.06791551  1.0
  Ni  Ni587  1  0.14187241  0.98229586  0.06791551  1.0
  Ni  Ni588  1  0.47520574  0.31562919  0.06791551  1.0
  Ni  Ni589  1  0.47520574  0.64896252  0.06791551  1.0
  Ni  Ni590  1  0.47520574  0.98229586  0.06791551  1.0
  Ni  Ni591  1  0.80853907  0.31562919  0.06791551  1.0
  Ni  Ni592  1  0.80853907  0.64896252  0.06791551  1.0
  Ni  Ni593  1  0.80853907  0.98229586  0.06791551  1.0
  Ni  Ni594  1  0.16590526  0.21328431  0.02092830  1.0
  Ni  Ni595  1  0.16590526  0.54661765  0.02092830  1.0
  Ni  Ni596  1  0.16590526  0.87995098  0.02092830  1.0
  Ni  Ni597  1  0.49923860  0.21328431  0.02092830  1.0
  Ni  Ni598  1  0.49923860  0.54661765  0.02092830  1.0
  Ni  Ni599  1  0.49923860  0.87995098  0.02092830  1.0
  Ni  Ni600  1  0.83257193  0.21328431  0.02092830  1.0
  Ni  Ni601  1  0.83257193  0.54661765  0.02092830  1.0
  Ni  Ni602  1  0.83257193  0.87995098  0.02092830  1.0
  Ni  Ni603  1  0.13257193  0.07995098  0.12092830  1.0
  Ni  Ni604  1  0.13257193  0.41328431  0.12092830  1.0
  Ni  Ni605  1  0.13257193  0.74661765  0.12092830  1.0
  Ni  Ni606  1  0.46590526  0.07995098  0.12092830  1.0
  Ni  Ni607  1  0.46590526  0.41328431  0.12092830  1.0
  Ni  Ni608  1  0.46590526  0.74661765  0.12092830  1.0
  Ni  Ni609  1  0.79923860  0.07995098  0.12092830  1.0
  Ni  Ni610  1  0.79923860  0.41328431  0.12092830  1.0
  Ni  Ni611  1  0.79923860  0.74661765  0.12092830  1.0
  Ni  Ni612  1  0.30912326  0.02713231  0.19516790  1.0
  Ni  Ni613  1  0.30912326  0.36046565  0.19516790  1.0
  Ni  Ni614  1  0.30912326  0.69379898  0.19516790  1.0
  Ni  Ni615  1  0.64245659  0.02713231  0.19516790  1.0
  Ni  Ni616  1  0.64245659  0.36046565  0.19516790  1.0
  Ni  Ni617  1  0.64245659  0.69379898  0.19516790  1.0
  Ni  Ni618  1  0.97578993  0.02713231  0.19516790  1.0
  Ni  Ni619  1  0.97578993  0.36046565  0.19516790  1.0
  Ni  Ni620  1  0.97578993  0.69379898  0.19516790  1.0
  Ni  Ni621  1  0.00912326  0.16046565  0.09516790  1.0
  Ni  Ni622  1  0.00912326  0.49379898  0.09516790  1.0
  Ni  Ni623  1  0.00912326  0.82713231  0.09516790  1.0
  Ni  Ni624  1  0.34245659  0.16046565  0.09516790  1.0
  Ni  Ni625  1  0.34245659  0.49379898  0.09516790  1.0
  Ni  Ni626  1  0.34245659  0.82713231  0.09516790  1.0
  Ni  Ni627  1  0.67578993  0.16046565  0.09516790  1.0
  Ni  Ni628  1  0.67578993  0.49379898  0.09516790  1.0
  Ni  Ni629  1  0.67578993  0.82713231  0.09516790  1.0
  Ni  Ni630  1  0.22823243  0.10198454  0.19154473  1.0
  Ni  Ni631  1  0.22823243  0.43531787  0.19154473  1.0
  Ni  Ni632  1  0.22823243  0.76865120  0.19154473  1.0
  Ni  Ni633  1  0.56156576  0.10198454  0.19154473  1.0
  Ni  Ni634  1  0.56156576  0.43531787  0.19154473  1.0
  Ni  Ni635  1  0.56156576  0.76865120  0.19154473  1.0
  Ni  Ni636  1  0.89489910  0.10198454  0.19154473  1.0
  Ni  Ni637  1  0.89489910  0.43531787  0.19154473  1.0
  Ni  Ni638  1  0.89489910  0.76865120  0.19154473  1.0
  Ni  Ni639  1  0.26156576  0.23531787  0.09154473  1.0
  Ni  Ni640  1  0.26156576  0.56865120  0.09154473  1.0
  Ni  Ni641  1  0.26156576  0.90198454  0.09154473  1.0
  Ni  Ni642  1  0.59489910  0.23531787  0.09154473  1.0
  Ni  Ni643  1  0.59489910  0.56865120  0.09154473  1.0
  Ni  Ni644  1  0.59489910  0.90198454  0.09154473  1.0
  Ni  Ni645  1  0.92823243  0.23531787  0.09154473  1.0
  Ni  Ni646  1  0.92823243  0.56865120  0.09154473  1.0
  Ni  Ni647  1  0.92823243  0.90198454  0.09154473  1.0
  Ni  Ni648  1  0.03942876  0.18901969  0.13048363  1.0
  Ni  Ni649  1  0.03942876  0.52235302  0.13048363  1.0
  Ni  Ni650  1  0.03942876  0.85568636  0.13048363  1.0
  Ni  Ni651  1  0.37276210  0.18901969  0.13048363  1.0
  Ni  Ni652  1  0.37276210  0.52235302  0.13048363  1.0
  Ni  Ni653  1  0.37276210  0.85568636  0.13048363  1.0
  Ni  Ni654  1  0.70609543  0.18901969  0.13048363  1.0
  Ni  Ni655  1  0.70609543  0.52235302  0.13048363  1.0
  Ni  Ni656  1  0.70609543  0.85568636  0.13048363  1.0
  Ni  Ni657  1  0.07276210  0.32235302  0.03048363  1.0
  Ni  Ni658  1  0.07276210  0.65568636  0.03048363  1.0
  Ni  Ni659  1  0.07276210  0.98901969  0.03048363  1.0
  Ni  Ni660  1  0.40609543  0.32235302  0.03048363  1.0
  Ni  Ni661  1  0.40609543  0.65568636  0.03048363  1.0
  Ni  Ni662  1  0.40609543  0.98901969  0.03048363  1.0
  Ni  Ni663  1  0.73942876  0.32235302  0.03048363  1.0
  Ni  Ni664  1  0.73942876  0.65568636  0.03048363  1.0
  Ni  Ni665  1  0.73942876  0.98901969  0.03048363  1.0
  Ni  Ni666  1  0.23301503  0.20699146  0.05741845  1.0
  Ni  Ni667  1  0.23301503  0.54032479  0.05741845  1.0
  Ni  Ni668  1  0.23301503  0.87365813  0.05741845  1.0
  Ni  Ni669  1  0.56634836  0.20699146  0.05741845  1.0
  Ni  Ni670  1  0.56634836  0.54032479  0.05741845  1.0
  Ni  Ni671  1  0.56634836  0.87365813  0.05741845  1.0
  Ni  Ni672  1  0.89968169  0.20699146  0.05741845  1.0
  Ni  Ni673  1  0.89968169  0.54032479  0.05741845  1.0
  Ni  Ni674  1  0.89968169  0.87365813  0.05741845  1.0
  Ni  Ni675  1  0.19968169  0.07365813  0.15741845  1.0
  Ni  Ni676  1  0.19968169  0.40699146  0.15741845  1.0
  Ni  Ni677  1  0.19968169  0.74032479  0.15741845  1.0
  Ni  Ni678  1  0.53301503  0.07365813  0.15741845  1.0
  Ni  Ni679  1  0.53301503  0.40699146  0.15741845  1.0
  Ni  Ni680  1  0.53301503  0.74032479  0.15741845  1.0
  Ni  Ni681  1  0.86634836  0.07365813  0.15741845  1.0
  Ni  Ni682  1  0.86634836  0.40699146  0.15741845  1.0
  Ni  Ni683  1  0.86634836  0.74032479  0.15741845  1.0
  Ni  Ni684  1  0.14451809  0.14876524  0.06403935  1.0
  Ni  Ni685  1  0.14451809  0.48209857  0.06403935  1.0
  Ni  Ni686  1  0.14451809  0.81543191  0.06403935  1.0
  Ni  Ni687  1  0.47785143  0.14876524  0.06403935  1.0
  Ni  Ni688  1  0.47785143  0.48209857  0.06403935  1.0
  Ni  Ni689  1  0.47785143  0.81543191  0.06403935  1.0
  Ni  Ni690  1  0.81118476  0.14876524  0.06403935  1.0
  Ni  Ni691  1  0.81118476  0.48209857  0.06403935  1.0
  Ni  Ni692  1  0.81118476  0.81543191  0.06403935  1.0
  Ni  Ni693  1  0.11118476  0.01543191  0.16403935  1.0
  Ni  Ni694  1  0.11118476  0.34876524  0.16403935  1.0
  Ni  Ni695  1  0.11118476  0.68209857  0.16403935  1.0
  Ni  Ni696  1  0.44451809  0.01543191  0.16403935  1.0
  Ni  Ni697  1  0.44451809  0.34876524  0.16403935  1.0
  Ni  Ni698  1  0.44451809  0.68209857  0.16403935  1.0
  Ni  Ni699  1  0.77785143  0.01543191  0.16403935  1.0
  Ni  Ni700  1  0.77785143  0.34876524  0.16403935  1.0
  Ni  Ni701  1  0.77785143  0.68209857  0.16403935  1.0
  Ni  Ni702  1  0.12517882  0.24698350  0.12205716  1.0
  Ni  Ni703  1  0.12517882  0.58031684  0.12205716  1.0
  Ni  Ni704  1  0.12517882  0.91365017  0.12205716  1.0
  Ni  Ni705  1  0.45851216  0.24698350  0.12205716  1.0
  Ni  Ni706  1  0.45851216  0.58031684  0.12205716  1.0
  Ni  Ni707  1  0.45851216  0.91365017  0.12205716  1.0
  Ni  Ni708  1  0.79184549  0.24698350  0.12205716  1.0
  Ni  Ni709  1  0.79184549  0.58031684  0.12205716  1.0
  Ni  Ni710  1  0.79184549  0.91365017  0.12205716  1.0
  Ni  Ni711  1  0.15851216  0.04698350  0.02205716  1.0
  Ni  Ni712  1  0.15851216  0.38031684  0.02205716  1.0
  Ni  Ni713  1  0.15851216  0.71365017  0.02205716  1.0
  Ni  Ni714  1  0.49184549  0.04698350  0.02205716  1.0
  Ni  Ni715  1  0.49184549  0.38031684  0.02205716  1.0
  Ni  Ni716  1  0.49184549  0.71365017  0.02205716  1.0
  Ni  Ni717  1  0.82517882  0.04698350  0.02205716  1.0
  Ni  Ni718  1  0.82517882  0.38031684  0.02205716  1.0
  Ni  Ni719  1  0.82517882  0.71365017  0.02205716  1.0
  Ni  Ni720  1  0.30243980  0.19769681  0.09349652  1.0
  Ni  Ni721  1  0.30243980  0.53103015  0.09349652  1.0
  Ni  Ni722  1  0.30243980  0.86436348  0.09349652  1.0
  Ni  Ni723  1  0.63577313  0.19769681  0.09349652  1.0
  Ni  Ni724  1  0.63577313  0.53103015  0.09349652  1.0
  Ni  Ni725  1  0.63577313  0.86436348  0.09349652  1.0
  Ni  Ni726  1  0.96910647  0.19769681  0.09349652  1.0
  Ni  Ni727  1  0.96910647  0.53103015  0.09349652  1.0
  Ni  Ni728  1  0.96910647  0.86436348  0.09349652  1.0
  Ni  Ni729  1  0.26910647  0.06436348  0.19349652  1.0
  Ni  Ni730  1  0.26910647  0.39769681  0.19349652  1.0
  Ni  Ni731  1  0.26910647  0.73103015  0.19349652  1.0
  Ni  Ni732  1  0.60243980  0.06436348  0.19349652  1.0
  Ni  Ni733  1  0.60243980  0.39769681  0.19349652  1.0
  Ni  Ni734  1  0.60243980  0.73103015  0.19349652  1.0
  Ni  Ni735  1  0.93577313  0.06436348  0.19349652  1.0
  Ni  Ni736  1  0.93577313  0.39769681  0.19349652  1.0
  Ni  Ni737  1  0.93577313  0.73103015  0.19349652  1.0
  Ni  Ni738  1  0.07304096  0.15584930  0.03248796  1.0
  Ni  Ni739  1  0.07304096  0.48918263  0.03248796  1.0
  Ni  Ni740  1  0.07304096  0.82251597  0.03248796  1.0
  Ni  Ni741  1  0.40637430  0.15584930  0.03248796  1.0
  Ni  Ni742  1  0.40637430  0.48918263  0.03248796  1.0
  Ni  Ni743  1  0.40637430  0.82251597  0.03248796  1.0
  Ni  Ni744  1  0.73970763  0.15584930  0.03248796  1.0
  Ni  Ni745  1  0.73970763  0.48918263  0.03248796  1.0
  Ni  Ni746  1  0.73970763  0.82251597  0.03248796  1.0
  Ni  Ni747  1  0.03970763  0.02251597  0.13248796  1.0
  Ni  Ni748  1  0.03970763  0.35584930  0.13248796  1.0
  Ni  Ni749  1  0.03970763  0.68918263  0.13248796  1.0
  Ni  Ni750  1  0.37304096  0.02251597  0.13248796  1.0
  Ni  Ni751  1  0.37304096  0.35584930  0.13248796  1.0
  Ni  Ni752  1  0.37304096  0.68918263  0.13248796  1.0
  Ni  Ni753  1  0.70637430  0.02251597  0.13248796  1.0
  Ni  Ni754  1  0.70637430  0.35584930  0.13248796  1.0
  Ni  Ni755  1  0.70637430  0.68918263  0.13248796  1.0
  Ni  Ni756  1  0.21423280  0.13855533  0.10855336  1.0
  Ni  Ni757  1  0.21423280  0.47188866  0.10855336  1.0
  Ni  Ni758  1  0.21423280  0.80522200  0.10855336  1.0
  Ni  Ni759  1  0.54756613  0.13855533  0.10855336  1.0
  Ni  Ni760  1  0.54756613  0.47188866  0.10855336  1.0
  Ni  Ni761  1  0.54756613  0.80522200  0.10855336  1.0
  Ni  Ni762  1  0.88089946  0.13855533  0.10855336  1.0
  Ni  Ni763  1  0.88089946  0.47188866  0.10855336  1.0
  Ni  Ni764  1  0.88089946  0.80522200  0.10855336  1.0
  Ni  Ni765  1  0.24756613  0.27188866  0.00855336  1.0
  Ni  Ni766  1  0.24756613  0.60522200  0.00855336  1.0
  Ni  Ni767  1  0.24756613  0.93855533  0.00855336  1.0
  Ni  Ni768  1  0.58089946  0.27188866  0.00855336  1.0
  Ni  Ni769  1  0.58089946  0.60522200  0.00855336  1.0
  Ni  Ni770  1  0.58089946  0.93855533  0.00855336  1.0
  Ni  Ni771  1  0.91423280  0.27188866  0.00855336  1.0
  Ni  Ni772  1  0.91423280  0.60522200  0.00855336  1.0
  Ni  Ni773  1  0.91423280  0.93855533  0.00855336  1.0
  Ni  Ni774  1  0.05724392  0.25642905  0.07987909  1.0
  Ni  Ni775  1  0.05724392  0.58976238  0.07987909  1.0
  Ni  Ni776  1  0.05724392  0.92309572  0.07987909  1.0
  Ni  Ni777  1  0.39057725  0.25642905  0.07987909  1.0
  Ni  Ni778  1  0.39057725  0.58976238  0.07987909  1.0
  Ni  Ni779  1  0.39057725  0.92309572  0.07987909  1.0
  Ni  Ni780  1  0.72391059  0.25642905  0.07987909  1.0
  Ni  Ni781  1  0.72391059  0.58976238  0.07987909  1.0
  Ni  Ni782  1  0.72391059  0.92309572  0.07987909  1.0
  Ni  Ni783  1  0.02391059  0.12309572  0.17987909  1.0
  Ni  Ni784  1  0.02391059  0.45642905  0.17987909  1.0
  Ni  Ni785  1  0.02391059  0.78976238  0.17987909  1.0
  Ni  Ni786  1  0.35724392  0.12309572  0.17987909  1.0
  Ni  Ni787  1  0.35724392  0.45642905  0.17987909  1.0
  Ni  Ni788  1  0.35724392  0.78976238  0.17987909  1.0
  Ni  Ni789  1  0.69057725  0.12309572  0.17987909  1.0
  Ni  Ni790  1  0.69057725  0.45642905  0.17987909  1.0
  Ni  Ni791  1  0.69057725  0.78976238  0.17987909  1.0
  Ni  Ni792  1  0.19929910  0.23971064  0.15335446  1.0
  Ni  Ni793  1  0.19929910  0.57304398  0.15335446  1.0
  Ni  Ni794  1  0.19929910  0.90637731  0.15335446  1.0
  Ni  Ni795  1  0.53263243  0.23971064  0.15335446  1.0
  Ni  Ni796  1  0.53263243  0.57304398  0.15335446  1.0
  Ni  Ni797  1  0.53263243  0.90637731  0.15335446  1.0
  Ni  Ni798  1  0.86596576  0.23971064  0.15335446  1.0
  Ni  Ni799  1  0.86596576  0.57304398  0.15335446  1.0
  Ni  Ni800  1  0.86596576  0.90637731  0.15335446  1.0
  Ni  Ni801  1  0.23263243  0.03971064  0.05335446  1.0
  Ni  Ni802  1  0.23263243  0.37304398  0.05335446  1.0
  Ni  Ni803  1  0.23263243  0.70637731  0.05335446  1.0
  Ni  Ni804  1  0.56596576  0.03971064  0.05335446  1.0
  Ni  Ni805  1  0.56596576  0.37304398  0.05335446  1.0
  Ni  Ni806  1  0.56596576  0.70637731  0.05335446  1.0
  Ni  Ni807  1  0.89929910  0.03971064  0.05335446  1.0
  Ni  Ni808  1  0.89929910  0.37304398  0.05335446  1.0
  Ni  Ni809  1  0.89929910  0.70637731  0.05335446  1.0
  Ni  Ni810  1  0.30217869  0.03104967  0.09364604  1.0
  Ni  Ni811  1  0.30217869  0.36438300  0.09364604  1.0
  Ni  Ni812  1  0.30217869  0.69771634  0.09364604  1.0
  Ni  Ni813  1  0.63551202  0.03104967  0.09364604  1.0
  Ni  Ni814  1  0.63551202  0.36438300  0.09364604  1.0
  Ni  Ni815  1  0.63551202  0.69771634  0.09364604  1.0
  Ni  Ni816  1  0.96884536  0.03104967  0.09364604  1.0
  Ni  Ni817  1  0.96884536  0.36438300  0.09364604  1.0
  Ni  Ni818  1  0.96884536  0.69771634  0.09364604  1.0
  Ni  Ni819  1  0.26884536  0.23104967  0.19364604  1.0
  Ni  Ni820  1  0.26884536  0.56438300  0.19364604  1.0
  Ni  Ni821  1  0.26884536  0.89771634  0.19364604  1.0
  Ni  Ni822  1  0.60217869  0.23104967  0.19364604  1.0
  Ni  Ni823  1  0.60217869  0.56438300  0.19364604  1.0
  Ni  Ni824  1  0.60217869  0.89771634  0.19364604  1.0
  Ni  Ni825  1  0.93551202  0.23104967  0.19364604  1.0
  Ni  Ni826  1  0.93551202  0.56438300  0.19364604  1.0
  Ni  Ni827  1  0.93551202  0.89771634  0.19364604  1.0
  Ni  Ni828  1  0.31899259  0.26448116  0.04320434  1.0
  Ni  Ni829  1  0.31899259  0.59781449  0.04320433  1.0
  Ni  Ni830  1  0.31899259  0.93114783  0.04320434  1.0
  Ni  Ni831  1  0.65232592  0.26448116  0.04320434  1.0
  Ni  Ni832  1  0.65232592  0.59781449  0.04320433  1.0
  Ni  Ni833  1  0.65232592  0.93114783  0.04320433  1.0
  Ni  Ni834  1  0.98565926  0.26448116  0.04320434  1.0
  Ni  Ni835  1  0.98565926  0.59781449  0.04320433  1.0
  Ni  Ni836  1  0.98565926  0.93114783  0.04320433  1.0
  Ni  Ni837  1  0.28565926  0.13114783  0.14320434  1.0
  Ni  Ni838  1  0.28565926  0.46448116  0.14320434  1.0
  Ni  Ni839  1  0.28565926  0.79781449  0.14320434  1.0
  Ni  Ni840  1  0.61899259  0.13114783  0.14320434  1.0
  Ni  Ni841  1  0.61899259  0.46448116  0.14320434  1.0
  Ni  Ni842  1  0.61899259  0.79781449  0.14320433  1.0
  Ni  Ni843  1  0.95232593  0.13114783  0.14320434  1.0
  Ni  Ni844  1  0.95232593  0.46448116  0.14320434  1.0
  Ni  Ni845  1  0.95232593  0.79781449  0.14320433  1.0
  Ni  Ni846  1  0.07062801  0.21830223  0.16677269  1.0
  Ni  Ni847  1  0.07062801  0.55163556  0.16677269  1.0
  Ni  Ni848  1  0.07062801  0.88496890  0.16677269  1.0
  Ni  Ni849  1  0.40396134  0.21830223  0.16677269  1.0
  Ni  Ni850  1  0.40396134  0.55163556  0.16677269  1.0
  Ni  Ni851  1  0.40396134  0.88496890  0.16677269  1.0
  Ni  Ni852  1  0.73729467  0.21830223  0.16677269  1.0
  Ni  Ni853  1  0.73729467  0.55163556  0.16677269  1.0
  Ni  Ni854  1  0.73729467  0.88496890  0.16677269  1.0
  Ni  Ni855  1  0.10396134  0.01830223  0.06677269  1.0
  Ni  Ni856  1  0.10396134  0.35163556  0.06677269  1.0
  Ni  Ni857  1  0.10396134  0.68496890  0.06677269  1.0
  Ni  Ni858  1  0.43729467  0.01830223  0.06677269  1.0
  Ni  Ni859  1  0.43729467  0.35163556  0.06677269  1.0
  Ni  Ni860  1  0.43729467  0.68496890  0.06677269  1.0
  Ni  Ni861  1  0.77062801  0.01830223  0.06677269  1.0
  Ni  Ni862  1  0.77062801  0.35163556  0.06677269  1.0
  Ni  Ni863  1  0.77062801  0.68496890  0.06677269  1.0
  Ni  Ni864  1  0.04187241  0.24896252  0.36791551  1.0
  Ni  Ni865  1  0.04187241  0.58229586  0.36791551  1.0
  Ni  Ni866  1  0.04187241  0.91562919  0.36791551  1.0
  Ni  Ni867  1  0.37520574  0.24896252  0.36791551  1.0
  Ni  Ni868  1  0.37520574  0.58229586  0.36791551  1.0
  Ni  Ni869  1  0.37520574  0.91562919  0.36791551  1.0
  Ni  Ni870  1  0.70853907  0.24896252  0.36791551  1.0
  Ni  Ni871  1  0.70853907  0.58229586  0.36791551  1.0
  Ni  Ni872  1  0.70853907  0.91562919  0.36791551  1.0
  Ni  Ni873  1  0.07520574  0.04896252  0.26791551  1.0
  Ni  Ni874  1  0.07520574  0.38229586  0.26791551  1.0
  Ni  Ni875  1  0.07520574  0.71562919  0.26791551  1.0
  Ni  Ni876  1  0.40853907  0.04896252  0.26791551  1.0
  Ni  Ni877  1  0.40853907  0.38229586  0.26791551  1.0
  Ni  Ni878  1  0.40853907  0.71562919  0.26791551  1.0
  Ni  Ni879  1  0.74187241  0.04896252  0.26791551  1.0
  Ni  Ni880  1  0.74187241  0.38229586  0.26791551  1.0
  Ni  Ni881  1  0.74187241  0.71562919  0.26791551  1.0
  Ni  Ni882  1  0.09923860  0.27995098  0.22092830  1.0
  Ni  Ni883  1  0.09923860  0.61328431  0.22092830  1.0
  Ni  Ni884  1  0.09923860  0.94661765  0.22092830  1.0
  Ni  Ni885  1  0.43257193  0.27995098  0.22092830  1.0
  Ni  Ni886  1  0.43257193  0.61328431  0.22092830  1.0
  Ni  Ni887  1  0.43257193  0.94661765  0.22092830  1.0
  Ni  Ni888  1  0.76590526  0.27995098  0.22092830  1.0
  Ni  Ni889  1  0.76590526  0.61328431  0.22092830  1.0
  Ni  Ni890  1  0.76590526  0.94661765  0.22092830  1.0
  Ni  Ni891  1  0.06590526  0.14661765  0.32092830  1.0
  Ni  Ni892  1  0.06590526  0.47995098  0.32092830  1.0
  Ni  Ni893  1  0.06590526  0.81328431  0.32092830  1.0
  Ni  Ni894  1  0.39923860  0.14661765  0.32092830  1.0
  Ni  Ni895  1  0.39923860  0.47995098  0.32092830  1.0
  Ni  Ni896  1  0.39923860  0.81328431  0.32092830  1.0
  Ni  Ni897  1  0.73257193  0.14661765  0.32092830  1.0
  Ni  Ni898  1  0.73257193  0.47995098  0.32092830  1.0
  Ni  Ni899  1  0.73257193  0.81328431  0.32092830  1.0
  Ni  Ni900  1  0.24245659  0.09379898  0.39516790  1.0
  Ni  Ni901  1  0.24245659  0.42713231  0.39516790  1.0
  Ni  Ni902  1  0.24245659  0.76046565  0.39516790  1.0
  Ni  Ni903  1  0.57578993  0.09379898  0.39516790  1.0
  Ni  Ni904  1  0.57578993  0.42713231  0.39516790  1.0
  Ni  Ni905  1  0.57578993  0.76046565  0.39516790  1.0
  Ni  Ni906  1  0.90912326  0.09379898  0.39516790  1.0
  Ni  Ni907  1  0.90912326  0.42713231  0.39516790  1.0
  Ni  Ni908  1  0.90912326  0.76046565  0.39516790  1.0
  Ni  Ni909  1  0.27578993  0.22713231  0.29516790  1.0
  Ni  Ni910  1  0.27578993  0.56046565  0.29516790  1.0
  Ni  Ni911  1  0.27578993  0.89379898  0.29516790  1.0
  Ni  Ni912  1  0.60912326  0.22713231  0.29516790  1.0
  Ni  Ni913  1  0.60912326  0.56046565  0.29516790  1.0
  Ni  Ni914  1  0.60912326  0.89379898  0.29516790  1.0
  Ni  Ni915  1  0.94245659  0.22713231  0.29516790  1.0
  Ni  Ni916  1  0.94245659  0.56046565  0.29516790  1.0
  Ni  Ni917  1  0.94245659  0.89379898  0.29516790  1.0
  Ni  Ni918  1  0.16156576  0.16865120  0.39154473  1.0
  Ni  Ni919  1  0.16156576  0.50198454  0.39154473  1.0
  Ni  Ni920  1  0.16156576  0.83531787  0.39154473  1.0
  Ni  Ni921  1  0.49489910  0.16865120  0.39154473  1.0
  Ni  Ni922  1  0.49489910  0.50198454  0.39154473  1.0
  Ni  Ni923  1  0.49489910  0.83531787  0.39154473  1.0
  Ni  Ni924  1  0.82823243  0.16865120  0.39154473  1.0
  Ni  Ni925  1  0.82823243  0.50198454  0.39154473  1.0
  Ni  Ni926  1  0.82823243  0.83531787  0.39154473  1.0
  Ni  Ni927  1  0.19489910  0.30198454  0.29154473  1.0
  Ni  Ni928  1  0.19489910  0.63531787  0.29154473  1.0
  Ni  Ni929  1  0.19489910  0.96865120  0.29154473  1.0
  Ni  Ni930  1  0.52823243  0.30198454  0.29154473  1.0
  Ni  Ni931  1  0.52823243  0.63531787  0.29154473  1.0
  Ni  Ni932  1  0.52823243  0.96865120  0.29154473  1.0
  Ni  Ni933  1  0.86156576  0.30198454  0.29154473  1.0
  Ni  Ni934  1  0.86156576  0.63531787  0.29154473  1.0
  Ni  Ni935  1  0.86156576  0.96865120  0.29154473  1.0
  Ni  Ni936  1  0.30609543  0.25568636  0.33048363  1.0
  Ni  Ni937  1  0.30609543  0.58901969  0.33048363  1.0
  Ni  Ni938  1  0.30609543  0.92235302  0.33048363  1.0
  Ni  Ni939  1  0.63942876  0.25568636  0.33048363  1.0
  Ni  Ni940  1  0.63942876  0.58901969  0.33048363  1.0
  Ni  Ni941  1  0.63942876  0.92235302  0.33048363  1.0
  Ni  Ni942  1  0.97276210  0.25568636  0.33048363  1.0
  Ni  Ni943  1  0.97276210  0.58901969  0.33048363  1.0
  Ni  Ni944  1  0.97276210  0.92235302  0.33048363  1.0
  Ni  Ni945  1  0.00609543  0.05568636  0.23048363  1.0
  Ni  Ni946  1  0.00609543  0.38901969  0.23048363  1.0
  Ni  Ni947  1  0.00609543  0.72235302  0.23048363  1.0
  Ni  Ni948  1  0.33942876  0.05568636  0.23048363  1.0
  Ni  Ni949  1  0.33942876  0.38901969  0.23048363  1.0
  Ni  Ni950  1  0.33942876  0.72235302  0.23048363  1.0
  Ni  Ni951  1  0.67276210  0.05568636  0.23048363  1.0
  Ni  Ni952  1  0.67276210  0.38901969  0.23048363  1.0
  Ni  Ni953  1  0.67276210  0.72235302  0.23048363  1.0
  Ni  Ni954  1  0.16634836  0.27365813  0.25741845  1.0
  Ni  Ni955  1  0.16634836  0.60699146  0.25741845  1.0
  Ni  Ni956  1  0.16634836  0.94032479  0.25741845  1.0
  Ni  Ni957  1  0.49968169  0.27365813  0.25741845  1.0
  Ni  Ni958  1  0.49968169  0.60699146  0.25741845  1.0
  Ni  Ni959  1  0.49968169  0.94032479  0.25741845  1.0
  Ni  Ni960  1  0.83301503  0.27365813  0.25741845  1.0
  Ni  Ni961  1  0.83301503  0.60699146  0.25741845  1.0
  Ni  Ni962  1  0.83301503  0.94032479  0.25741845  1.0
  Ni  Ni963  1  0.13301503  0.14032479  0.35741845  1.0
  Ni  Ni964  1  0.13301503  0.47365813  0.35741845  1.0
  Ni  Ni965  1  0.13301503  0.80699146  0.35741845  1.0
  Ni  Ni966  1  0.46634836  0.14032479  0.35741845  1.0
  Ni  Ni967  1  0.46634836  0.47365813  0.35741845  1.0
  Ni  Ni968  1  0.46634836  0.80699146  0.35741845  1.0
  Ni  Ni969  1  0.79968169  0.14032479  0.35741845  1.0
  Ni  Ni970  1  0.79968169  0.47365813  0.35741845  1.0
  Ni  Ni971  1  0.79968169  0.80699146  0.35741845  1.0
  Ni  Ni972  1  0.07785143  0.21543191  0.26403935  1.0
  Ni  Ni973  1  0.07785143  0.54876524  0.26403935  1.0
  Ni  Ni974  1  0.07785143  0.88209857  0.26403935  1.0
  Ni  Ni975  1  0.41118476  0.21543191  0.26403935  1.0
  Ni  Ni976  1  0.41118476  0.54876524  0.26403935  1.0
  Ni  Ni977  1  0.41118476  0.88209857  0.26403935  1.0
  Ni  Ni978  1  0.74451809  0.21543191  0.26403935  1.0
  Ni  Ni979  1  0.74451809  0.54876524  0.26403935  1.0
  Ni  Ni980  1  0.74451809  0.88209857  0.26403935  1.0
  Ni  Ni981  1  0.04451809  0.08209857  0.36403935  1.0
  Ni  Ni982  1  0.04451809  0.41543191  0.36403935  1.0
  Ni  Ni983  1  0.04451809  0.74876524  0.36403935  1.0
  Ni  Ni984  1  0.37785143  0.08209857  0.36403935  1.0
  Ni  Ni985  1  0.37785143  0.41543191  0.36403935  1.0
  Ni  Ni986  1  0.37785143  0.74876524  0.36403935  1.0
  Ni  Ni987  1  0.71118476  0.08209857  0.36403935  1.0
  Ni  Ni988  1  0.71118476  0.41543191  0.36403935  1.0
  Ni  Ni989  1  0.71118476  0.74876524  0.36403935  1.0
  Ni  Ni990  1  0.05851216  0.31365017  0.32205716  1.0
  Ni  Ni991  1  0.05851216  0.64698350  0.32205716  1.0
  Ni  Ni992  1  0.05851216  0.98031684  0.32205716  1.0
  Ni  Ni993  1  0.39184549  0.31365017  0.32205716  1.0
  Ni  Ni994  1  0.39184549  0.64698350  0.32205716  1.0
  Ni  Ni995  1  0.39184549  0.98031684  0.32205716  1.0
  Ni  Ni996  1  0.72517882  0.31365017  0.32205716  1.0
  Ni  Ni997  1  0.72517882  0.64698350  0.32205716  1.0
  Ni  Ni998  1  0.72517882  0.98031684  0.32205716  1.0
  Ni  Ni999  1  0.09184549  0.11365017  0.22205716  1.0
  Ni  Ni1000  1  0.09184549  0.44698350  0.22205716  1.0
  Ni  Ni1001  1  0.09184549  0.78031684  0.22205716  1.0
  Ni  Ni1002  1  0.42517882  0.11365017  0.22205716  1.0
  Ni  Ni1003  1  0.42517882  0.44698350  0.22205716  1.0
  Ni  Ni1004  1  0.42517882  0.78031684  0.22205716  1.0
  Ni  Ni1005  1  0.75851216  0.11365017  0.22205716  1.0
  Ni  Ni1006  1  0.75851216  0.44698350  0.22205716  1.0
  Ni  Ni1007  1  0.75851216  0.78031684  0.22205716  1.0
  Ni  Ni1008  1  0.23577313  0.26436348  0.29349652  1.0
  Ni  Ni1009  1  0.23577313  0.59769681  0.29349652  1.0
  Ni  Ni1010  1  0.23577313  0.93103015  0.29349652  1.0
  Ni  Ni1011  1  0.56910647  0.26436348  0.29349652  1.0
  Ni  Ni1012  1  0.56910647  0.59769681  0.29349652  1.0
  Ni  Ni1013  1  0.56910647  0.93103015  0.29349652  1.0
  Ni  Ni1014  1  0.90243980  0.26436348  0.29349652  1.0
  Ni  Ni1015  1  0.90243980  0.59769681  0.29349652  1.0
  Ni  Ni1016  1  0.90243980  0.93103015  0.29349652  1.0
  Ni  Ni1017  1  0.20243980  0.13103015  0.39349652  1.0
  Ni  Ni1018  1  0.20243980  0.46436348  0.39349652  1.0
  Ni  Ni1019  1  0.20243980  0.79769681  0.39349652  1.0
  Ni  Ni1020  1  0.53577313  0.13103015  0.39349652  1.0
  Ni  Ni1021  1  0.53577313  0.46436348  0.39349652  1.0
  Ni  Ni1022  1  0.53577313  0.79769681  0.39349652  1.0
  Ni  Ni1023  1  0.86910647  0.13103015  0.39349652  1.0
  Ni  Ni1024  1  0.86910647  0.46436348  0.39349652  1.0
  Ni  Ni1025  1  0.86910647  0.79769681  0.39349652  1.0
  Ni  Ni1026  1  0.00637430  0.22251597  0.23248796  1.0
  Ni  Ni1027  1  0.00637430  0.55584930  0.23248796  1.0
  Ni  Ni1028  1  0.00637430  0.88918263  0.23248796  1.0
  Ni  Ni1029  1  0.33970763  0.22251597  0.23248796  1.0
  Ni  Ni1030  1  0.33970763  0.55584930  0.23248796  1.0
  Ni  Ni1031  1  0.33970763  0.88918263  0.23248796  1.0
  Ni  Ni1032  1  0.67304096  0.22251597  0.23248796  1.0
  Ni  Ni1033  1  0.67304096  0.55584930  0.23248796  1.0
  Ni  Ni1034  1  0.67304096  0.88918263  0.23248796  1.0
  Ni  Ni1035  1  0.30637430  0.08918263  0.33248796  1.0
  Ni  Ni1036  1  0.30637430  0.42251597  0.33248796  1.0
  Ni  Ni1037  1  0.30637430  0.75584930  0.33248796  1.0
  Ni  Ni1038  1  0.63970763  0.08918263  0.33248796  1.0
  Ni  Ni1039  1  0.63970763  0.42251597  0.33248796  1.0
  Ni  Ni1040  1  0.63970763  0.75584930  0.33248796  1.0
  Ni  Ni1041  1  0.97304096  0.08918263  0.33248796  1.0
  Ni  Ni1042  1  0.97304096  0.42251597  0.33248796  1.0
  Ni  Ni1043  1  0.97304096  0.75584930  0.33248796  1.0
  Ni  Ni1044  1  0.14756613  0.20522200  0.30855336  1.0
  Ni  Ni1045  1  0.14756613  0.53855533  0.30855336  1.0
  Ni  Ni1046  1  0.14756613  0.87188866  0.30855336  1.0
  Ni  Ni1047  1  0.48089946  0.20522200  0.30855336  1.0
  Ni  Ni1048  1  0.48089946  0.53855533  0.30855336  1.0
  Ni  Ni1049  1  0.48089946  0.87188866  0.30855336  1.0
  Ni  Ni1050  1  0.81423280  0.20522200  0.30855336  1.0
  Ni  Ni1051  1  0.81423280  0.53855533  0.30855336  1.0
  Ni  Ni1052  1  0.81423280  0.87188866  0.30855336  1.0
  Ni  Ni1053  1  0.18089946  0.00522200  0.20855336  1.0
  Ni  Ni1054  1  0.18089946  0.33855533  0.20855336  1.0
  Ni  Ni1055  1  0.18089946  0.67188866  0.20855336  1.0
  Ni  Ni1056  1  0.51423280  0.00522200  0.20855336  1.0
  Ni  Ni1057  1  0.51423280  0.33855533  0.20855336  1.0
  Ni  Ni1058  1  0.51423280  0.67188866  0.20855336  1.0
  Ni  Ni1059  1  0.84756613  0.00522200  0.20855336  1.0
  Ni  Ni1060  1  0.84756613  0.33855533  0.20855336  1.0
  Ni  Ni1061  1  0.84756613  0.67188866  0.20855336  1.0
  Ni  Ni1062  1  0.32391059  0.32309572  0.27987909  1.0
  Ni  Ni1063  1  0.32391059  0.65642905  0.27987909  1.0
  Ni  Ni1064  1  0.32391059  0.98976238  0.27987909  1.0
  Ni  Ni1065  1  0.65724392  0.32309572  0.27987909  1.0
  Ni  Ni1066  1  0.65724392  0.65642905  0.27987909  1.0
  Ni  Ni1067  1  0.65724392  0.98976238  0.27987909  1.0
  Ni  Ni1068  1  0.99057725  0.32309572  0.27987909  1.0
  Ni  Ni1069  1  0.99057725  0.65642905  0.27987909  1.0
  Ni  Ni1070  1  0.99057725  0.98976238  0.27987909  1.0
  Ni  Ni1071  1  0.29057725  0.18976238  0.37987909  1.0
  Ni  Ni1072  1  0.29057725  0.52309572  0.37987909  1.0
  Ni  Ni1073  1  0.29057725  0.85642905  0.37987909  1.0
  Ni  Ni1074  1  0.62391059  0.18976238  0.37987909  1.0
  Ni  Ni1075  1  0.62391059  0.52309572  0.37987909  1.0
  Ni  Ni1076  1  0.62391059  0.85642905  0.37987909  1.0
  Ni  Ni1077  1  0.95724392  0.18976238  0.37987909  1.0
  Ni  Ni1078  1  0.95724392  0.52309572  0.37987909  1.0
  Ni  Ni1079  1  0.95724392  0.85642905  0.37987909  1.0
  Ni  Ni1080  1  0.13263243  0.30637731  0.35335446  1.0
  Ni  Ni1081  1  0.13263243  0.63971064  0.35335446  1.0
  Ni  Ni1082  1  0.13263243  0.97304398  0.35335446  1.0
  Ni  Ni1083  1  0.46596576  0.30637731  0.35335446  1.0
  Ni  Ni1084  1  0.46596576  0.63971064  0.35335446  1.0
  Ni  Ni1085  1  0.46596576  0.97304398  0.35335446  1.0
  Ni  Ni1086  1  0.79929910  0.30637731  0.35335446  1.0
  Ni  Ni1087  1  0.79929910  0.63971064  0.35335446  1.0
  Ni  Ni1088  1  0.79929910  0.97304398  0.35335446  1.0
  Ni  Ni1089  1  0.16596576  0.10637731  0.25335446  1.0
  Ni  Ni1090  1  0.16596576  0.43971064  0.25335446  1.0
  Ni  Ni1091  1  0.16596576  0.77304398  0.25335446  1.0
  Ni  Ni1092  1  0.49929910  0.10637731  0.25335446  1.0
  Ni  Ni1093  1  0.49929910  0.43971064  0.25335446  1.0
  Ni  Ni1094  1  0.49929910  0.77304398  0.25335446  1.0
  Ni  Ni1095  1  0.83263243  0.10637731  0.25335446  1.0
  Ni  Ni1096  1  0.83263243  0.43971064  0.25335446  1.0
  Ni  Ni1097  1  0.83263243  0.77304398  0.25335446  1.0
  Ni  Ni1098  1  0.23551202  0.09771634  0.29364604  1.0
  Ni  Ni1099  1  0.23551202  0.43104967  0.29364604  1.0
  Ni  Ni1100  1  0.23551202  0.76438300  0.29364604  1.0
  Ni  Ni1101  1  0.56884536  0.09771634  0.29364604  1.0
  Ni  Ni1102  1  0.56884536  0.43104967  0.29364604  1.0
  Ni  Ni1103  1  0.56884536  0.76438300  0.29364604  1.0
  Ni  Ni1104  1  0.90217869  0.09771634  0.29364604  1.0
  Ni  Ni1105  1  0.90217869  0.43104967  0.29364604  1.0
  Ni  Ni1106  1  0.90217869  0.76438300  0.29364604  1.0
  Ni  Ni1107  1  0.20217869  0.29771634  0.39364604  1.0
  Ni  Ni1108  1  0.20217869  0.63104967  0.39364604  1.0
  Ni  Ni1109  1  0.20217869  0.96438300  0.39364604  1.0
  Ni  Ni1110  1  0.53551202  0.29771634  0.39364604  1.0
  Ni  Ni1111  1  0.53551202  0.63104967  0.39364604  1.0
  Ni  Ni1112  1  0.53551202  0.96438300  0.39364604  1.0
  Ni  Ni1113  1  0.86884536  0.29771634  0.39364604  1.0
  Ni  Ni1114  1  0.86884536  0.63104967  0.39364604  1.0
  Ni  Ni1115  1  0.86884536  0.96438300  0.39364604  1.0
  Ni  Ni1116  1  0.25232592  0.33114783  0.24320434  1.0
  Ni  Ni1117  1  0.25232592  0.66448116  0.24320434  1.0
  Ni  Ni1118  1  0.25232592  0.99781449  0.24320434  1.0
  Ni  Ni1119  1  0.58565926  0.33114783  0.24320434  1.0
  Ni  Ni1120  1  0.58565926  0.66448116  0.24320434  1.0
  Ni  Ni1121  1  0.58565926  0.99781449  0.24320434  1.0
  Ni  Ni1122  1  0.91899259  0.33114783  0.24320434  1.0
  Ni  Ni1123  1  0.91899259  0.66448116  0.24320434  1.0
  Ni  Ni1124  1  0.91899259  0.99781449  0.24320434  1.0
  Ni  Ni1125  1  0.21899259  0.19781449  0.34320434  1.0
  Ni  Ni1126  1  0.21899259  0.53114783  0.34320433  1.0
  Ni  Ni1127  1  0.21899259  0.86448116  0.34320433  1.0
  Ni  Ni1128  1  0.55232592  0.19781449  0.34320434  1.0
  Ni  Ni1129  1  0.55232592  0.53114783  0.34320433  1.0
  Ni  Ni1130  1  0.55232593  0.86448116  0.34320433  1.0
  Ni  Ni1131  1  0.88565926  0.19781449  0.34320433  1.0
  Ni  Ni1132  1  0.88565926  0.53114783  0.34320433  1.0
  Ni  Ni1133  1  0.88565926  0.86448116  0.34320434  1.0
  Ni  Ni1134  1  0.00396134  0.28496890  0.36677269  1.0
  Ni  Ni1135  1  0.00396134  0.61830223  0.36677269  1.0
  Ni  Ni1136  1  0.00396134  0.95163556  0.36677269  1.0
  Ni  Ni1137  1  0.33729467  0.28496890  0.36677269  1.0
  Ni  Ni1138  1  0.33729467  0.61830223  0.36677269  1.0
  Ni  Ni1139  1  0.33729467  0.95163556  0.36677269  1.0
  Ni  Ni1140  1  0.67062801  0.28496890  0.36677269  1.0
  Ni  Ni1141  1  0.67062801  0.61830223  0.36677269  1.0
  Ni  Ni1142  1  0.67062801  0.95163556  0.36677269  1.0
  Ni  Ni1143  1  0.03729467  0.08496890  0.26677269  1.0
  Ni  Ni1144  1  0.03729467  0.41830223  0.26677269  1.0
  Ni  Ni1145  1  0.03729467  0.75163556  0.26677269  1.0
  Ni  Ni1146  1  0.37062801  0.08496890  0.26677269  1.0
  Ni  Ni1147  1  0.37062801  0.41830223  0.26677269  1.0
  Ni  Ni1148  1  0.37062801  0.75163556  0.26677269  1.0
  Ni  Ni1149  1  0.70396134  0.08496890  0.26677269  1.0
  Ni  Ni1150  1  0.70396134  0.41830223  0.26677269  1.0
  Ni  Ni1151  1  0.70396134  0.75163556  0.26677269  1.0
