# generated using pymatgen
data_NiBi
_symmetry_space_group_name_H-M   'P 1'
_cell_length_a   42.97544458
_cell_length_b   45.96568900
_cell_length_c   30.58338391
_cell_angle_alpha   84.49105002
_cell_angle_beta   76.75766328
_cell_angle_gamma   76.15435741
_symmetry_Int_Tables_number   1
_chemical_formula_structural   NiBi
_chemical_formula_sum   'Ni576 Bi576'
_cell_volume   57044.91263677
_cell_formula_units_Z   576
loop_
 _symmetry_equiv_pos_site_id
 _symmetry_equiv_pos_as_xyz
  1  'x, y, z'
loop_
 _atom_site_type_symbol
 _atom_site_label
 _atom_site_symmetry_multiplicity
 _atom_site_fract_x
 _atom_site_fract_y
 _atom_site_fract_z
 _atom_site_occupancy
  Bi  Bi0  1  0.30632425  0.07926909  0.19514899  1.0
  Bi  Bi1  1  0.30632425  0.41260243  0.19514899  1.0
  Bi  Bi2  1  0.30632425  0.74593576  0.19514899  1.0
  Bi  Bi3  1  0.63965758  0.07926909  0.19514899  1.0
  Bi  Bi4  1  0.63965758  0.41260243  0.19514899  1.0
  Bi  Bi5  1  0.63965758  0.74593576  0.19514899  1.0
  Bi  Bi6  1  0.97299091  0.07926909  0.19514899  1.0
  Bi  Bi7  1  0.97299092  0.41260243  0.19514899  1.0
  Bi  Bi8  1  0.97299092  0.74593576  0.19514899  1.0
  Bi  Bi9  1  0.13965758  0.14593576  0.09514899  1.0
  Bi  Bi10  1  0.13965758  0.47926909  0.09514899  1.0
  Bi  Bi11  1  0.13965758  0.81260243  0.09514899  1.0
  Bi  Bi12  1  0.47299091  0.14593576  0.09514899  1.0
  Bi  Bi13  1  0.47299092  0.47926909  0.09514899  1.0
  Bi  Bi14  1  0.47299092  0.81260243  0.09514899  1.0
  Bi  Bi15  1  0.80632425  0.14593576  0.09514899  1.0
  Bi  Bi16  1  0.80632425  0.47926909  0.09514899  1.0
  Bi  Bi17  1  0.80632425  0.81260243  0.09514899  1.0
  Bi  Bi18  1  0.02522103  0.33269469  0.18577360  1.0
  Bi  Bi19  1  0.02522103  0.66602802  0.18577360  1.0
  Bi  Bi20  1  0.02522103  0.99936135  0.18577360  1.0
  Bi  Bi21  1  0.35855437  0.33269469  0.18577360  1.0
  Bi  Bi22  1  0.35855437  0.66602802  0.18577360  1.0
  Bi  Bi23  1  0.35855437  0.99936135  0.18577360  1.0
  Bi  Bi24  1  0.69188770  0.33269469  0.18577360  1.0
  Bi  Bi25  1  0.69188770  0.66602802  0.18577360  1.0
  Bi  Bi26  1  0.69188770  0.99936135  0.18577360  1.0
  Bi  Bi27  1  0.19188770  0.06602802  0.08577360  1.0
  Bi  Bi28  1  0.19188770  0.39936135  0.08577360  1.0
  Bi  Bi29  1  0.19188770  0.73269469  0.08577360  1.0
  Bi  Bi30  1  0.52522103  0.06602802  0.08577360  1.0
  Bi  Bi31  1  0.52522103  0.39936135  0.08577360  1.0
  Bi  Bi32  1  0.52522103  0.73269469  0.08577360  1.0
  Bi  Bi33  1  0.85855437  0.06602802  0.08577360  1.0
  Bi  Bi34  1  0.85855437  0.39936135  0.08577360  1.0
  Bi  Bi35  1  0.85855437  0.73269469  0.08577360  1.0
  Bi  Bi36  1  0.05933533  0.10852975  0.14781259  1.0
  Bi  Bi37  1  0.05933533  0.44186308  0.14781259  1.0
  Bi  Bi38  1  0.05933533  0.77519641  0.14781259  1.0
  Bi  Bi39  1  0.39266866  0.10852975  0.14781259  1.0
  Bi  Bi40  1  0.39266866  0.44186308  0.14781259  1.0
  Bi  Bi41  1  0.39266866  0.77519641  0.14781259  1.0
  Bi  Bi42  1  0.72600199  0.10852975  0.14781259  1.0
  Bi  Bi43  1  0.72600199  0.44186308  0.14781259  1.0
  Bi  Bi44  1  0.72600199  0.77519641  0.14781259  1.0
  Bi  Bi45  1  0.22600199  0.17519641  0.04781259  1.0
  Bi  Bi46  1  0.22600199  0.50852975  0.04781259  1.0
  Bi  Bi47  1  0.22600199  0.84186308  0.04781259  1.0
  Bi  Bi48  1  0.55933532  0.17519641  0.04781259  1.0
  Bi  Bi49  1  0.55933533  0.50852975  0.04781259  1.0
  Bi  Bi50  1  0.55933532  0.84186308  0.04781259  1.0
  Bi  Bi51  1  0.89266866  0.17519641  0.04781259  1.0
  Bi  Bi52  1  0.89266866  0.50852975  0.04781259  1.0
  Bi  Bi53  1  0.89266866  0.84186308  0.04781259  1.0
  Bi  Bi54  1  0.27342860  0.10223001  0.03685362  1.0
  Bi  Bi55  1  0.27342860  0.43556334  0.03685362  1.0
  Bi  Bi56  1  0.27342860  0.76889667  0.03685362  1.0
  Bi  Bi57  1  0.60676193  0.10223001  0.03685362  1.0
  Bi  Bi58  1  0.60676193  0.43556334  0.03685362  1.0
  Bi  Bi59  1  0.60676193  0.76889667  0.03685362  1.0
  Bi  Bi60  1  0.94009527  0.10223001  0.03685362  1.0
  Bi  Bi61  1  0.94009527  0.43556334  0.03685362  1.0
  Bi  Bi62  1  0.94009527  0.76889667  0.03685362  1.0
  Bi  Bi63  1  0.10676193  0.03556334  0.13685362  1.0
  Bi  Bi64  1  0.10676193  0.36889667  0.13685362  1.0
  Bi  Bi65  1  0.10676193  0.70223001  0.13685362  1.0
  Bi  Bi66  1  0.44009527  0.03556334  0.13685362  1.0
  Bi  Bi67  1  0.44009527  0.36889667  0.13685362  1.0
  Bi  Bi68  1  0.44009527  0.70223001  0.13685362  1.0
  Bi  Bi69  1  0.77342860  0.03556334  0.13685362  1.0
  Bi  Bi70  1  0.77342860  0.36889667  0.13685362  1.0
  Bi  Bi71  1  0.77342860  0.70223001  0.13685362  1.0
  Bi  Bi72  1  0.31579680  0.21774603  0.11126353  1.0
  Bi  Bi73  1  0.31579680  0.55107936  0.11126353  1.0
  Bi  Bi74  1  0.31579680  0.88441269  0.11126353  1.0
  Bi  Bi75  1  0.64913013  0.21774603  0.11126353  1.0
  Bi  Bi76  1  0.64913013  0.55107936  0.11126353  1.0
  Bi  Bi77  1  0.64913013  0.88441269  0.11126353  1.0
  Bi  Bi78  1  0.98246346  0.21774603  0.11126353  1.0
  Bi  Bi79  1  0.98246347  0.55107936  0.11126353  1.0
  Bi  Bi80  1  0.98246347  0.88441269  0.11126353  1.0
  Bi  Bi81  1  0.14913013  0.28441269  0.01126353  1.0
  Bi  Bi82  1  0.14913013  0.61774603  0.01126353  1.0
  Bi  Bi83  1  0.14913013  0.95107936  0.01126353  1.0
  Bi  Bi84  1  0.48246347  0.28441269  0.01126353  1.0
  Bi  Bi85  1  0.48246347  0.61774603  0.01126353  1.0
  Bi  Bi86  1  0.48246347  0.95107936  0.01126353  1.0
  Bi  Bi87  1  0.81579680  0.28441269  0.01126353  1.0
  Bi  Bi88  1  0.81579680  0.61774603  0.01126353  1.0
  Bi  Bi89  1  0.81579680  0.95107936  0.01126353  1.0
  Bi  Bi90  1  0.01687768  0.32676735  0.07511943  1.0
  Bi  Bi91  1  0.01687768  0.66010068  0.07511943  1.0
  Bi  Bi92  1  0.01687768  0.99343401  0.07511943  1.0
  Bi  Bi93  1  0.35021102  0.32676735  0.07511943  1.0
  Bi  Bi94  1  0.35021102  0.66010068  0.07511943  1.0
  Bi  Bi95  1  0.35021102  0.99343401  0.07511943  1.0
  Bi  Bi96  1  0.68354435  0.32676735  0.07511943  1.0
  Bi  Bi97  1  0.68354435  0.66010068  0.07511943  1.0
  Bi  Bi98  1  0.68354435  0.99343401  0.07511943  1.0
  Bi  Bi99  1  0.18354435  0.26010068  0.17511943  1.0
  Bi  Bi100  1  0.18354435  0.59343401  0.17511943  1.0
  Bi  Bi101  1  0.18354435  0.92676735  0.17511943  1.0
  Bi  Bi102  1  0.51687768  0.26010068  0.17511943  1.0
  Bi  Bi103  1  0.51687768  0.59343401  0.17511943  1.0
  Bi  Bi104  1  0.51687768  0.92676735  0.17511943  1.0
  Bi  Bi105  1  0.85021102  0.26010068  0.17511943  1.0
  Bi  Bi106  1  0.85021102  0.59343401  0.17511943  1.0
  Bi  Bi107  1  0.85021102  0.92676735  0.17511943  1.0
  Bi  Bi108  1  0.31075330  0.28471419  0.01207454  1.0
  Bi  Bi109  1  0.31075330  0.61804752  0.01207454  1.0
  Bi  Bi110  1  0.31075330  0.95138086  0.01207454  1.0
  Bi  Bi111  1  0.64408664  0.28471419  0.01207454  1.0
  Bi  Bi112  1  0.64408664  0.61804752  0.01207454  1.0
  Bi  Bi113  1  0.64408664  0.95138086  0.01207454  1.0
  Bi  Bi114  1  0.97741997  0.28471419  0.01207454  1.0
  Bi  Bi115  1  0.97741997  0.61804752  0.01207454  1.0
  Bi  Bi116  1  0.97741997  0.95138086  0.01207454  1.0
  Bi  Bi117  1  0.14408664  0.21804752  0.11207454  1.0
  Bi  Bi118  1  0.14408664  0.55138086  0.11207454  1.0
  Bi  Bi119  1  0.14408664  0.88471419  0.11207454  1.0
  Bi  Bi120  1  0.47741997  0.21804752  0.11207454  1.0
  Bi  Bi121  1  0.47741997  0.55138086  0.11207454  1.0
  Bi  Bi122  1  0.47741997  0.88471419  0.11207454  1.0
  Bi  Bi123  1  0.81075330  0.21804752  0.11207454  1.0
  Bi  Bi124  1  0.81075330  0.55138086  0.11207454  1.0
  Bi  Bi125  1  0.81075331  0.88471419  0.11207454  1.0
  Bi  Bi126  1  0.09847882  0.28950132  0.12852330  1.0
  Bi  Bi127  1  0.09847882  0.62283465  0.12852330  1.0
  Bi  Bi128  1  0.09847882  0.95616799  0.12852330  1.0
  Bi  Bi129  1  0.43181216  0.28950132  0.12852330  1.0
  Bi  Bi130  1  0.43181216  0.62283465  0.12852330  1.0
  Bi  Bi131  1  0.43181216  0.95616799  0.12852330  1.0
  Bi  Bi132  1  0.76514549  0.28950132  0.12852330  1.0
  Bi  Bi133  1  0.76514549  0.62283465  0.12852330  1.0
  Bi  Bi134  1  0.76514549  0.95616799  0.12852330  1.0
  Bi  Bi135  1  0.26514549  0.02283465  0.02852330  1.0
  Bi  Bi136  1  0.26514549  0.35616799  0.02852330  1.0
  Bi  Bi137  1  0.26514549  0.68950132  0.02852330  1.0
  Bi  Bi138  1  0.59847882  0.02283465  0.02852330  1.0
  Bi  Bi139  1  0.59847882  0.35616799  0.02852330  1.0
  Bi  Bi140  1  0.59847882  0.68950132  0.02852330  1.0
  Bi  Bi141  1  0.93181216  0.02283465  0.02852330  1.0
  Bi  Bi142  1  0.93181216  0.35616799  0.02852330  1.0
  Bi  Bi143  1  0.93181216  0.68950132  0.02852330  1.0
  Bi  Bi144  1  0.23481888  0.25434042  0.05763519  1.0
  Bi  Bi145  1  0.23481888  0.58767375  0.05763519  1.0
  Bi  Bi146  1  0.23481888  0.92100709  0.05763519  1.0
  Bi  Bi147  1  0.56815222  0.25434042  0.05763519  1.0
  Bi  Bi148  1  0.56815222  0.58767375  0.05763519  1.0
  Bi  Bi149  1  0.56815222  0.92100709  0.05763519  1.0
  Bi  Bi150  1  0.90148555  0.25434042  0.05763519  1.0
  Bi  Bi151  1  0.90148555  0.58767375  0.05763519  1.0
  Bi  Bi152  1  0.90148555  0.92100709  0.05763519  1.0
  Bi  Bi153  1  0.06815222  0.18767375  0.15763519  1.0
  Bi  Bi154  1  0.06815222  0.52100709  0.15763519  1.0
  Bi  Bi155  1  0.06815222  0.85434042  0.15763519  1.0
  Bi  Bi156  1  0.40148555  0.18767375  0.15763519  1.0
  Bi  Bi157  1  0.40148555  0.52100709  0.15763519  1.0
  Bi  Bi158  1  0.40148555  0.85434042  0.15763519  1.0
  Bi  Bi159  1  0.73481888  0.18767375  0.15763519  1.0
  Bi  Bi160  1  0.73481888  0.52100709  0.15763519  1.0
  Bi  Bi161  1  0.73481888  0.85434042  0.15763519  1.0
  Bi  Bi162  1  0.02224379  0.25900731  0.17426432  1.0
  Bi  Bi163  1  0.02224379  0.59234064  0.17426432  1.0
  Bi  Bi164  1  0.02224379  0.92567397  0.17426432  1.0
  Bi  Bi165  1  0.35557712  0.25900731  0.17426432  1.0
  Bi  Bi166  1  0.35557712  0.59234064  0.17426432  1.0
  Bi  Bi167  1  0.35557712  0.92567397  0.17426432  1.0
  Bi  Bi168  1  0.68891045  0.25900731  0.17426432  1.0
  Bi  Bi169  1  0.68891045  0.59234064  0.17426432  1.0
  Bi  Bi170  1  0.68891045  0.92567397  0.17426432  1.0
  Bi  Bi171  1  0.18891045  0.32567397  0.07426432  1.0
  Bi  Bi172  1  0.18891045  0.65900731  0.07426432  1.0
  Bi  Bi173  1  0.18891045  0.99234064  0.07426432  1.0
  Bi  Bi174  1  0.52224379  0.32567397  0.07426432  1.0
  Bi  Bi175  1  0.52224379  0.65900731  0.07426432  1.0
  Bi  Bi176  1  0.52224379  0.99234064  0.07426432  1.0
  Bi  Bi177  1  0.85557712  0.32567397  0.07426432  1.0
  Bi  Bi178  1  0.85557712  0.65900731  0.07426432  1.0
  Bi  Bi179  1  0.85557712  0.99234064  0.07426432  1.0
  Bi  Bi180  1  0.23492192  0.18157952  0.16639061  1.0
  Bi  Bi181  1  0.23492192  0.51491285  0.16639061  1.0
  Bi  Bi182  1  0.23492192  0.84824619  0.16639061  1.0
  Bi  Bi183  1  0.56825525  0.18157952  0.16639061  1.0
  Bi  Bi184  1  0.56825526  0.51491285  0.16639061  1.0
  Bi  Bi185  1  0.56825525  0.84824619  0.16639061  1.0
  Bi  Bi186  1  0.90158859  0.18157952  0.16639061  1.0
  Bi  Bi187  1  0.90158859  0.51491285  0.16639061  1.0
  Bi  Bi188  1  0.90158859  0.84824619  0.16639061  1.0
  Bi  Bi189  1  0.06825526  0.24824619  0.06639061  1.0
  Bi  Bi190  1  0.06825526  0.58157952  0.06639061  1.0
  Bi  Bi191  1  0.06825526  0.91491285  0.06639061  1.0
  Bi  Bi192  1  0.40158859  0.24824619  0.06639061  1.0
  Bi  Bi193  1  0.40158859  0.58157952  0.06639061  1.0
  Bi  Bi194  1  0.40158859  0.91491285  0.06639061  1.0
  Bi  Bi195  1  0.73492192  0.24824619  0.06639061  1.0
  Bi  Bi196  1  0.73492192  0.58157952  0.06639061  1.0
  Bi  Bi197  1  0.73492192  0.91491285  0.06639061  1.0
  Bi  Bi198  1  0.09797073  0.02914726  0.01923634  1.0
  Bi  Bi199  1  0.09797073  0.36248060  0.01923634  1.0
  Bi  Bi200  1  0.09797073  0.69581393  0.01923634  1.0
  Bi  Bi201  1  0.43130406  0.02914726  0.01923634  1.0
  Bi  Bi202  1  0.43130406  0.36248060  0.01923634  1.0
  Bi  Bi203  1  0.43130406  0.69581393  0.01923634  1.0
  Bi  Bi204  1  0.76463740  0.02914726  0.01923634  1.0
  Bi  Bi205  1  0.76463739  0.36248060  0.01923634  1.0
  Bi  Bi206  1  0.76463740  0.69581393  0.01923634  1.0
  Bi  Bi207  1  0.26463739  0.29581393  0.11923634  1.0
  Bi  Bi208  1  0.26463739  0.62914726  0.11923634  1.0
  Bi  Bi209  1  0.26463739  0.96248060  0.11923634  1.0
  Bi  Bi210  1  0.59797073  0.29581393  0.11923634  1.0
  Bi  Bi211  1  0.59797073  0.62914726  0.11923634  1.0
  Bi  Bi212  1  0.59797073  0.96248060  0.11923634  1.0
  Bi  Bi213  1  0.93130406  0.29581393  0.11923634  1.0
  Bi  Bi214  1  0.93130406  0.62914726  0.11923634  1.0
  Bi  Bi215  1  0.93130406  0.96248060  0.11923634  1.0
  Bi  Bi216  1  0.23026794  0.10999691  0.15038900  1.0
  Bi  Bi217  1  0.23026794  0.44333024  0.15038900  1.0
  Bi  Bi218  1  0.23026794  0.77666357  0.15038900  1.0
  Bi  Bi219  1  0.56360127  0.10999691  0.15038900  1.0
  Bi  Bi220  1  0.56360128  0.44333024  0.15038900  1.0
  Bi  Bi221  1  0.56360127  0.77666357  0.15038900  1.0
  Bi  Bi222  1  0.89693461  0.10999691  0.15038900  1.0
  Bi  Bi223  1  0.89693461  0.44333024  0.15038900  1.0
  Bi  Bi224  1  0.89693461  0.77666357  0.15038900  1.0
  Bi  Bi225  1  0.06360127  0.17666357  0.05038900  1.0
  Bi  Bi226  1  0.06360127  0.50999691  0.05038900  1.0
  Bi  Bi227  1  0.06360127  0.84333024  0.05038900  1.0
  Bi  Bi228  1  0.39693461  0.17666357  0.05038900  1.0
  Bi  Bi229  1  0.39693461  0.50999691  0.05038900  1.0
  Bi  Bi230  1  0.39693461  0.84333024  0.05038900  1.0
  Bi  Bi231  1  0.73026794  0.17666357  0.05038900  1.0
  Bi  Bi232  1  0.73026794  0.50999691  0.05038900  1.0
  Bi  Bi233  1  0.73026794  0.84333024  0.05038900  1.0
  Bi  Bi234  1  0.02567525  0.06779347  0.08511703  1.0
  Bi  Bi235  1  0.02567525  0.40112680  0.08511703  1.0
  Bi  Bi236  1  0.02567525  0.73446014  0.08511703  1.0
  Bi  Bi237  1  0.35900859  0.06779347  0.08511703  1.0
  Bi  Bi238  1  0.35900859  0.40112680  0.08511703  1.0
  Bi  Bi239  1  0.35900859  0.73446014  0.08511703  1.0
  Bi  Bi240  1  0.69234192  0.06779347  0.08511703  1.0
  Bi  Bi241  1  0.69234192  0.40112680  0.08511703  1.0
  Bi  Bi242  1  0.69234192  0.73446014  0.08511703  1.0
  Bi  Bi243  1  0.19234192  0.00112680  0.18511703  1.0
  Bi  Bi244  1  0.19234192  0.33446014  0.18511703  1.0
  Bi  Bi245  1  0.19234192  0.66779347  0.18511703  1.0
  Bi  Bi246  1  0.52567525  0.00112680  0.18511703  1.0
  Bi  Bi247  1  0.52567525  0.33446014  0.18511703  1.0
  Bi  Bi248  1  0.52567525  0.66779347  0.18511703  1.0
  Bi  Bi249  1  0.85900859  0.00112680  0.18511703  1.0
  Bi  Bi250  1  0.85900859  0.33446014  0.18511703  1.0
  Bi  Bi251  1  0.85900859  0.66779347  0.18511703  1.0
  Bi  Bi252  1  0.30616459  0.14035557  0.10485101  1.0
  Bi  Bi253  1  0.30616459  0.47368890  0.10485101  1.0
  Bi  Bi254  1  0.30616459  0.80702223  0.10485101  1.0
  Bi  Bi255  1  0.63949793  0.14035557  0.10485101  1.0
  Bi  Bi256  1  0.63949793  0.47368890  0.10485101  1.0
  Bi  Bi257  1  0.63949793  0.80702223  0.10485101  1.0
  Bi  Bi258  1  0.97283126  0.14035557  0.10485101  1.0
  Bi  Bi259  1  0.97283126  0.47368890  0.10485101  1.0
  Bi  Bi260  1  0.97283126  0.80702223  0.10485101  1.0
  Bi  Bi261  1  0.13949793  0.20702223  0.00485101  1.0
  Bi  Bi262  1  0.13949793  0.54035557  0.00485101  1.0
  Bi  Bi263  1  0.13949793  0.87368890  0.00485101  1.0
  Bi  Bi264  1  0.47283126  0.20702223  0.00485101  1.0
  Bi  Bi265  1  0.47283126  0.54035557  0.00485101  1.0
  Bi  Bi266  1  0.47283126  0.87368890  0.00485101  1.0
  Bi  Bi267  1  0.80616459  0.20702223  0.00485101  1.0
  Bi  Bi268  1  0.80616459  0.54035557  0.00485101  1.0
  Bi  Bi269  1  0.80616459  0.87368890  0.00485101  1.0
  Bi  Bi270  1  0.27311904  0.03343765  0.13665076  1.0
  Bi  Bi271  1  0.27311904  0.36677099  0.13665076  1.0
  Bi  Bi272  1  0.27311904  0.70010432  0.13665076  1.0
  Bi  Bi273  1  0.60645238  0.03343765  0.13665076  1.0
  Bi  Bi274  1  0.60645238  0.36677099  0.13665076  1.0
  Bi  Bi275  1  0.60645238  0.70010432  0.13665076  1.0
  Bi  Bi276  1  0.93978571  0.03343765  0.13665076  1.0
  Bi  Bi277  1  0.93978571  0.36677099  0.13665076  1.0
  Bi  Bi278  1  0.93978571  0.70010432  0.13665076  1.0
  Bi  Bi279  1  0.10645238  0.10010432  0.03665076  1.0
  Bi  Bi280  1  0.10645238  0.43343765  0.03665076  1.0
  Bi  Bi281  1  0.10645238  0.76677099  0.03665076  1.0
  Bi  Bi282  1  0.43978571  0.10010432  0.03665076  1.0
  Bi  Bi283  1  0.43978571  0.43343765  0.03665076  1.0
  Bi  Bi284  1  0.43978571  0.76677099  0.03665076  1.0
  Bi  Bi285  1  0.77311904  0.10010432  0.03665076  1.0
  Bi  Bi286  1  0.77311904  0.43343765  0.03665076  1.0
  Bi  Bi287  1  0.77311904  0.76677099  0.03665076  1.0
  Bi  Bi288  1  0.30632425  0.27926909  0.39514899  1.0
  Bi  Bi289  1  0.30632425  0.61260243  0.39514899  1.0
  Bi  Bi290  1  0.30632425  0.94593576  0.39514899  1.0
  Bi  Bi291  1  0.63965758  0.27926909  0.39514899  1.0
  Bi  Bi292  1  0.63965758  0.61260243  0.39514899  1.0
  Bi  Bi293  1  0.63965758  0.94593576  0.39514899  1.0
  Bi  Bi294  1  0.97299091  0.27926909  0.39514899  1.0
  Bi  Bi295  1  0.97299091  0.61260243  0.39514899  1.0
  Bi  Bi296  1  0.97299092  0.94593576  0.39514899  1.0
  Bi  Bi297  1  0.13965758  0.01260243  0.29514899  1.0
  Bi  Bi298  1  0.13965758  0.34593576  0.29514899  1.0
  Bi  Bi299  1  0.13965758  0.67926909  0.29514899  1.0
  Bi  Bi300  1  0.47299092  0.01260243  0.29514899  1.0
  Bi  Bi301  1  0.47299092  0.34593576  0.29514899  1.0
  Bi  Bi302  1  0.47299092  0.67926909  0.29514899  1.0
  Bi  Bi303  1  0.80632425  0.01260243  0.29514899  1.0
  Bi  Bi304  1  0.80632425  0.34593576  0.29514899  1.0
  Bi  Bi305  1  0.80632425  0.67926909  0.29514899  1.0
  Bi  Bi306  1  0.02522103  0.19936135  0.38577360  1.0
  Bi  Bi307  1  0.02522103  0.53269469  0.38577360  1.0
  Bi  Bi308  1  0.02522103  0.86602802  0.38577360  1.0
  Bi  Bi309  1  0.35855437  0.19936135  0.38577360  1.0
  Bi  Bi310  1  0.35855437  0.53269469  0.38577360  1.0
  Bi  Bi311  1  0.35855437  0.86602802  0.38577360  1.0
  Bi  Bi312  1  0.69188770  0.19936135  0.38577360  1.0
  Bi  Bi313  1  0.69188770  0.53269469  0.38577360  1.0
  Bi  Bi314  1  0.69188770  0.86602802  0.38577360  1.0
  Bi  Bi315  1  0.19188770  0.26602802  0.28577360  1.0
  Bi  Bi316  1  0.19188770  0.59936135  0.28577360  1.0
  Bi  Bi317  1  0.19188770  0.93269469  0.28577360  1.0
  Bi  Bi318  1  0.52522103  0.26602802  0.28577360  1.0
  Bi  Bi319  1  0.52522103  0.59936135  0.28577360  1.0
  Bi  Bi320  1  0.52522103  0.93269469  0.28577360  1.0
  Bi  Bi321  1  0.85855437  0.26602802  0.28577360  1.0
  Bi  Bi322  1  0.85855437  0.59936135  0.28577360  1.0
  Bi  Bi323  1  0.85855437  0.93269469  0.28577360  1.0
  Bi  Bi324  1  0.05933533  0.30852975  0.34781259  1.0
  Bi  Bi325  1  0.05933533  0.64186308  0.34781259  1.0
  Bi  Bi326  1  0.05933533  0.97519641  0.34781259  1.0
  Bi  Bi327  1  0.39266866  0.30852975  0.34781259  1.0
  Bi  Bi328  1  0.39266866  0.64186308  0.34781259  1.0
  Bi  Bi329  1  0.39266866  0.97519641  0.34781259  1.0
  Bi  Bi330  1  0.72600199  0.30852975  0.34781259  1.0
  Bi  Bi331  1  0.72600199  0.64186308  0.34781259  1.0
  Bi  Bi332  1  0.72600199  0.97519641  0.34781259  1.0
  Bi  Bi333  1  0.22600199  0.04186308  0.24781259  1.0
  Bi  Bi334  1  0.22600199  0.37519641  0.24781259  1.0
  Bi  Bi335  1  0.22600199  0.70852975  0.24781259  1.0
  Bi  Bi336  1  0.55933533  0.04186308  0.24781259  1.0
  Bi  Bi337  1  0.55933533  0.37519641  0.24781259  1.0
  Bi  Bi338  1  0.55933532  0.70852975  0.24781259  1.0
  Bi  Bi339  1  0.89266866  0.04186308  0.24781259  1.0
  Bi  Bi340  1  0.89266866  0.37519641  0.24781259  1.0
  Bi  Bi341  1  0.89266866  0.70852975  0.24781259  1.0
  Bi  Bi342  1  0.27342860  0.30223001  0.23685362  1.0
  Bi  Bi343  1  0.27342860  0.63556334  0.23685362  1.0
  Bi  Bi344  1  0.27342860  0.96889667  0.23685362  1.0
  Bi  Bi345  1  0.60676193  0.30223001  0.23685362  1.0
  Bi  Bi346  1  0.60676193  0.63556334  0.23685362  1.0
  Bi  Bi347  1  0.60676193  0.96889667  0.23685362  1.0
  Bi  Bi348  1  0.94009527  0.30223001  0.23685362  1.0
  Bi  Bi349  1  0.94009527  0.63556334  0.23685362  1.0
  Bi  Bi350  1  0.94009527  0.96889667  0.23685362  1.0
  Bi  Bi351  1  0.10676193  0.23556334  0.33685362  1.0
  Bi  Bi352  1  0.10676193  0.56889667  0.33685362  1.0
  Bi  Bi353  1  0.10676193  0.90223001  0.33685362  1.0
  Bi  Bi354  1  0.44009527  0.23556334  0.33685362  1.0
  Bi  Bi355  1  0.44009527  0.56889667  0.33685362  1.0
  Bi  Bi356  1  0.44009527  0.90223001  0.33685362  1.0
  Bi  Bi357  1  0.77342860  0.23556334  0.33685362  1.0
  Bi  Bi358  1  0.77342860  0.56889667  0.33685362  1.0
  Bi  Bi359  1  0.77342860  0.90223001  0.33685362  1.0
  Bi  Bi360  1  0.31579680  0.08441269  0.31126353  1.0
  Bi  Bi361  1  0.31579680  0.41774603  0.31126353  1.0
  Bi  Bi362  1  0.31579680  0.75107936  0.31126353  1.0
  Bi  Bi363  1  0.64913013  0.08441269  0.31126353  1.0
  Bi  Bi364  1  0.64913013  0.41774603  0.31126353  1.0
  Bi  Bi365  1  0.64913013  0.75107936  0.31126353  1.0
  Bi  Bi366  1  0.98246346  0.08441269  0.31126353  1.0
  Bi  Bi367  1  0.98246346  0.41774603  0.31126353  1.0
  Bi  Bi368  1  0.98246347  0.75107936  0.31126353  1.0
  Bi  Bi369  1  0.14913013  0.15107936  0.21126353  1.0
  Bi  Bi370  1  0.14913013  0.48441269  0.21126353  1.0
  Bi  Bi371  1  0.14913013  0.81774603  0.21126353  1.0
  Bi  Bi372  1  0.48246347  0.15107936  0.21126353  1.0
  Bi  Bi373  1  0.48246347  0.48441269  0.21126353  1.0
  Bi  Bi374  1  0.48246347  0.81774603  0.21126353  1.0
  Bi  Bi375  1  0.81579680  0.15107936  0.21126353  1.0
  Bi  Bi376  1  0.81579680  0.48441269  0.21126353  1.0
  Bi  Bi377  1  0.81579680  0.81774603  0.21126353  1.0
  Bi  Bi378  1  0.01687768  0.19343401  0.27511943  1.0
  Bi  Bi379  1  0.01687768  0.52676735  0.27511943  1.0
  Bi  Bi380  1  0.01687768  0.86010068  0.27511943  1.0
  Bi  Bi381  1  0.35021102  0.19343401  0.27511943  1.0
  Bi  Bi382  1  0.35021102  0.52676735  0.27511943  1.0
  Bi  Bi383  1  0.35021102  0.86010068  0.27511943  1.0
  Bi  Bi384  1  0.68354435  0.19343401  0.27511943  1.0
  Bi  Bi385  1  0.68354435  0.52676735  0.27511943  1.0
  Bi  Bi386  1  0.68354435  0.86010068  0.27511943  1.0
  Bi  Bi387  1  0.18354435  0.12676735  0.37511943  1.0
  Bi  Bi388  1  0.18354435  0.46010068  0.37511943  1.0
  Bi  Bi389  1  0.18354435  0.79343401  0.37511943  1.0
  Bi  Bi390  1  0.51687768  0.12676735  0.37511943  1.0
  Bi  Bi391  1  0.51687768  0.46010068  0.37511943  1.0
  Bi  Bi392  1  0.51687768  0.79343401  0.37511943  1.0
  Bi  Bi393  1  0.85021102  0.12676735  0.37511943  1.0
  Bi  Bi394  1  0.85021102  0.46010068  0.37511943  1.0
  Bi  Bi395  1  0.85021102  0.79343401  0.37511943  1.0
  Bi  Bi396  1  0.31075330  0.15138086  0.21207454  1.0
  Bi  Bi397  1  0.31075331  0.48471419  0.21207454  1.0
  Bi  Bi398  1  0.31075331  0.81804752  0.21207454  1.0
  Bi  Bi399  1  0.64408664  0.15138086  0.21207454  1.0
  Bi  Bi400  1  0.64408664  0.48471419  0.21207454  1.0
  Bi  Bi401  1  0.64408664  0.81804752  0.21207454  1.0
  Bi  Bi402  1  0.97741997  0.15138086  0.21207454  1.0
  Bi  Bi403  1  0.97741997  0.48471419  0.21207454  1.0
  Bi  Bi404  1  0.97741997  0.81804752  0.21207454  1.0
  Bi  Bi405  1  0.14408664  0.08471419  0.31207454  1.0
  Bi  Bi406  1  0.14408664  0.41804752  0.31207454  1.0
  Bi  Bi407  1  0.14408664  0.75138086  0.31207454  1.0
  Bi  Bi408  1  0.47741997  0.08471419  0.31207454  1.0
  Bi  Bi409  1  0.47741997  0.41804752  0.31207454  1.0
  Bi  Bi410  1  0.47741997  0.75138086  0.31207454  1.0
  Bi  Bi411  1  0.81075331  0.08471419  0.31207454  1.0
  Bi  Bi412  1  0.81075331  0.41804752  0.31207454  1.0
  Bi  Bi413  1  0.81075331  0.75138086  0.31207454  1.0
  Bi  Bi414  1  0.09847882  0.15616799  0.32852330  1.0
  Bi  Bi415  1  0.09847882  0.48950132  0.32852330  1.0
  Bi  Bi416  1  0.09847882  0.82283465  0.32852330  1.0
  Bi  Bi417  1  0.43181216  0.15616799  0.32852330  1.0
  Bi  Bi418  1  0.43181216  0.48950132  0.32852330  1.0
  Bi  Bi419  1  0.43181216  0.82283465  0.32852330  1.0
  Bi  Bi420  1  0.76514549  0.15616799  0.32852330  1.0
  Bi  Bi421  1  0.76514549  0.48950132  0.32852330  1.0
  Bi  Bi422  1  0.76514549  0.82283465  0.32852330  1.0
  Bi  Bi423  1  0.26514549  0.22283465  0.22852330  1.0
  Bi  Bi424  1  0.26514549  0.55616799  0.22852330  1.0
  Bi  Bi425  1  0.26514549  0.88950132  0.22852330  1.0
  Bi  Bi426  1  0.59847882  0.22283465  0.22852330  1.0
  Bi  Bi427  1  0.59847882  0.55616799  0.22852330  1.0
  Bi  Bi428  1  0.59847882  0.88950132  0.22852330  1.0
  Bi  Bi429  1  0.93181216  0.22283465  0.22852330  1.0
  Bi  Bi430  1  0.93181216  0.55616799  0.22852330  1.0
  Bi  Bi431  1  0.93181216  0.88950132  0.22852330  1.0
  Bi  Bi432  1  0.23481888  0.12100709  0.25763519  1.0
  Bi  Bi433  1  0.23481888  0.45434042  0.25763519  1.0
  Bi  Bi434  1  0.23481888  0.78767375  0.25763519  1.0
  Bi  Bi435  1  0.56815222  0.12100709  0.25763519  1.0
  Bi  Bi436  1  0.56815222  0.45434042  0.25763519  1.0
  Bi  Bi437  1  0.56815222  0.78767375  0.25763519  1.0
  Bi  Bi438  1  0.90148555  0.12100709  0.25763519  1.0
  Bi  Bi439  1  0.90148555  0.45434042  0.25763519  1.0
  Bi  Bi440  1  0.90148555  0.78767375  0.25763519  1.0
  Bi  Bi441  1  0.06815222  0.05434042  0.35763519  1.0
  Bi  Bi442  1  0.06815222  0.38767375  0.35763519  1.0
  Bi  Bi443  1  0.06815222  0.72100709  0.35763519  1.0
  Bi  Bi444  1  0.40148555  0.05434042  0.35763519  1.0
  Bi  Bi445  1  0.40148555  0.38767375  0.35763519  1.0
  Bi  Bi446  1  0.40148555  0.72100709  0.35763519  1.0
  Bi  Bi447  1  0.73481888  0.05434042  0.35763519  1.0
  Bi  Bi448  1  0.73481888  0.38767375  0.35763519  1.0
  Bi  Bi449  1  0.73481888  0.72100709  0.35763519  1.0
  Bi  Bi450  1  0.02224379  0.12567397  0.37426432  1.0
  Bi  Bi451  1  0.02224379  0.45900731  0.37426432  1.0
  Bi  Bi452  1  0.02224379  0.79234064  0.37426432  1.0
  Bi  Bi453  1  0.35557712  0.12567397  0.37426432  1.0
  Bi  Bi454  1  0.35557712  0.45900731  0.37426432  1.0
  Bi  Bi455  1  0.35557712  0.79234064  0.37426432  1.0
  Bi  Bi456  1  0.68891045  0.12567397  0.37426432  1.0
  Bi  Bi457  1  0.68891045  0.45900731  0.37426432  1.0
  Bi  Bi458  1  0.68891045  0.79234064  0.37426432  1.0
  Bi  Bi459  1  0.18891045  0.19234064  0.27426432  1.0
  Bi  Bi460  1  0.18891045  0.52567397  0.27426432  1.0
  Bi  Bi461  1  0.18891045  0.85900731  0.27426432  1.0
  Bi  Bi462  1  0.52224379  0.19234064  0.27426432  1.0
  Bi  Bi463  1  0.52224379  0.52567397  0.27426432  1.0
  Bi  Bi464  1  0.52224379  0.85900731  0.27426432  1.0
  Bi  Bi465  1  0.85557712  0.19234064  0.27426432  1.0
  Bi  Bi466  1  0.85557712  0.52567397  0.27426432  1.0
  Bi  Bi467  1  0.85557712  0.85900731  0.27426432  1.0
  Bi  Bi468  1  0.23492192  0.04824619  0.36639061  1.0
  Bi  Bi469  1  0.23492192  0.38157952  0.36639061  1.0
  Bi  Bi470  1  0.23492192  0.71491285  0.36639061  1.0
  Bi  Bi471  1  0.56825525  0.04824619  0.36639061  1.0
  Bi  Bi472  1  0.56825526  0.38157952  0.36639061  1.0
  Bi  Bi473  1  0.56825526  0.71491285  0.36639061  1.0
  Bi  Bi474  1  0.90158859  0.04824619  0.36639061  1.0
  Bi  Bi475  1  0.90158859  0.38157952  0.36639061  1.0
  Bi  Bi476  1  0.90158859  0.71491285  0.36639061  1.0
  Bi  Bi477  1  0.06825526  0.11491285  0.26639061  1.0
  Bi  Bi478  1  0.06825526  0.44824619  0.26639061  1.0
  Bi  Bi479  1  0.06825526  0.78157952  0.26639061  1.0
  Bi  Bi480  1  0.40158859  0.11491285  0.26639061  1.0
  Bi  Bi481  1  0.40158859  0.44824619  0.26639061  1.0
  Bi  Bi482  1  0.40158859  0.78157952  0.26639061  1.0
  Bi  Bi483  1  0.73492192  0.11491285  0.26639061  1.0
  Bi  Bi484  1  0.73492192  0.44824619  0.26639061  1.0
  Bi  Bi485  1  0.73492192  0.78157952  0.26639061  1.0
  Bi  Bi486  1  0.09797073  0.22914726  0.21923634  1.0
  Bi  Bi487  1  0.09797073  0.56248060  0.21923634  1.0
  Bi  Bi488  1  0.09797073  0.89581393  0.21923634  1.0
  Bi  Bi489  1  0.43130406  0.22914726  0.21923634  1.0
  Bi  Bi490  1  0.43130406  0.56248060  0.21923634  1.0
  Bi  Bi491  1  0.43130406  0.89581393  0.21923634  1.0
  Bi  Bi492  1  0.76463739  0.22914726  0.21923634  1.0
  Bi  Bi493  1  0.76463739  0.56248060  0.21923634  1.0
  Bi  Bi494  1  0.76463740  0.89581393  0.21923634  1.0
  Bi  Bi495  1  0.26463739  0.16248060  0.31923634  1.0
  Bi  Bi496  1  0.26463739  0.49581393  0.31923634  1.0
  Bi  Bi497  1  0.26463739  0.82914726  0.31923634  1.0
  Bi  Bi498  1  0.59797073  0.16248060  0.31923634  1.0
  Bi  Bi499  1  0.59797073  0.49581393  0.31923634  1.0
  Bi  Bi500  1  0.59797073  0.82914726  0.31923634  1.0
  Bi  Bi501  1  0.93130406  0.16248060  0.31923634  1.0
  Bi  Bi502  1  0.93130406  0.49581393  0.31923634  1.0
  Bi  Bi503  1  0.93130406  0.82914726  0.31923634  1.0
  Bi  Bi504  1  0.23026794  0.30999690  0.35038900  1.0
  Bi  Bi505  1  0.23026794  0.64333024  0.35038900  1.0
  Bi  Bi506  1  0.23026794  0.97666357  0.35038900  1.0
  Bi  Bi507  1  0.56360127  0.30999690  0.35038900  1.0
  Bi  Bi508  1  0.56360127  0.64333024  0.35038900  1.0
  Bi  Bi509  1  0.56360127  0.97666357  0.35038900  1.0
  Bi  Bi510  1  0.89693461  0.30999690  0.35038900  1.0
  Bi  Bi511  1  0.89693461  0.64333024  0.35038900  1.0
  Bi  Bi512  1  0.89693461  0.97666357  0.35038900  1.0
  Bi  Bi513  1  0.06360127  0.04333024  0.25038900  1.0
  Bi  Bi514  1  0.06360127  0.37666357  0.25038900  1.0
  Bi  Bi515  1  0.06360127  0.70999691  0.25038900  1.0
  Bi  Bi516  1  0.39693461  0.04333024  0.25038900  1.0
  Bi  Bi517  1  0.39693461  0.37666357  0.25038900  1.0
  Bi  Bi518  1  0.39693461  0.70999691  0.25038900  1.0
  Bi  Bi519  1  0.73026794  0.04333024  0.25038900  1.0
  Bi  Bi520  1  0.73026794  0.37666357  0.25038900  1.0
  Bi  Bi521  1  0.73026794  0.70999691  0.25038900  1.0
  Bi  Bi522  1  0.02567525  0.26779347  0.28511703  1.0
  Bi  Bi523  1  0.02567525  0.60112680  0.28511703  1.0
  Bi  Bi524  1  0.02567525  0.93446014  0.28511703  1.0
  Bi  Bi525  1  0.35900859  0.26779347  0.28511703  1.0
  Bi  Bi526  1  0.35900859  0.60112680  0.28511703  1.0
  Bi  Bi527  1  0.35900859  0.93446014  0.28511703  1.0
  Bi  Bi528  1  0.69234192  0.26779347  0.28511703  1.0
  Bi  Bi529  1  0.69234192  0.60112680  0.28511703  1.0
  Bi  Bi530  1  0.69234192  0.93446014  0.28511703  1.0
  Bi  Bi531  1  0.19234192  0.20112680  0.38511703  1.0
  Bi  Bi532  1  0.19234192  0.53446014  0.38511703  1.0
  Bi  Bi533  1  0.19234192  0.86779347  0.38511703  1.0
  Bi  Bi534  1  0.52567525  0.20112680  0.38511703  1.0
  Bi  Bi535  1  0.52567525  0.53446014  0.38511703  1.0
  Bi  Bi536  1  0.52567525  0.86779347  0.38511703  1.0
  Bi  Bi537  1  0.85900859  0.20112680  0.38511703  1.0
  Bi  Bi538  1  0.85900859  0.53446014  0.38511703  1.0
  Bi  Bi539  1  0.85900859  0.86779347  0.38511703  1.0
  Bi  Bi540  1  0.30616459  0.00702223  0.30485101  1.0
  Bi  Bi541  1  0.30616459  0.34035557  0.30485101  1.0
  Bi  Bi542  1  0.30616459  0.67368890  0.30485101  1.0
  Bi  Bi543  1  0.63949793  0.00702223  0.30485101  1.0
  Bi  Bi544  1  0.63949793  0.34035557  0.30485101  1.0
  Bi  Bi545  1  0.63949793  0.67368890  0.30485101  1.0
  Bi  Bi546  1  0.97283126  0.00702223  0.30485101  1.0
  Bi  Bi547  1  0.97283126  0.34035557  0.30485101  1.0
  Bi  Bi548  1  0.97283126  0.67368890  0.30485101  1.0
  Bi  Bi549  1  0.13949793  0.07368890  0.20485101  1.0
  Bi  Bi550  1  0.13949793  0.40702223  0.20485101  1.0
  Bi  Bi551  1  0.13949793  0.74035557  0.20485101  1.0
  Bi  Bi552  1  0.47283126  0.07368890  0.20485101  1.0
  Bi  Bi553  1  0.47283126  0.40702223  0.20485101  1.0
  Bi  Bi554  1  0.47283126  0.74035557  0.20485101  1.0
  Bi  Bi555  1  0.80616459  0.07368890  0.20485101  1.0
  Bi  Bi556  1  0.80616459  0.40702223  0.20485101  1.0
  Bi  Bi557  1  0.80616459  0.74035557  0.20485101  1.0
  Bi  Bi558  1  0.27311904  0.23343765  0.33665076  1.0
  Bi  Bi559  1  0.27311904  0.56677099  0.33665076  1.0
  Bi  Bi560  1  0.27311904  0.90010432  0.33665076  1.0
  Bi  Bi561  1  0.60645238  0.23343765  0.33665076  1.0
  Bi  Bi562  1  0.60645238  0.56677099  0.33665076  1.0
  Bi  Bi563  1  0.60645238  0.90010432  0.33665076  1.0
  Bi  Bi564  1  0.93978571  0.23343765  0.33665076  1.0
  Bi  Bi565  1  0.93978571  0.56677099  0.33665076  1.0
  Bi  Bi566  1  0.93978571  0.90010432  0.33665076  1.0
  Bi  Bi567  1  0.10645238  0.30010432  0.23665076  1.0
  Bi  Bi568  1  0.10645238  0.63343765  0.23665076  1.0
  Bi  Bi569  1  0.10645238  0.96677099  0.23665076  1.0
  Bi  Bi570  1  0.43978571  0.30010432  0.23665076  1.0
  Bi  Bi571  1  0.43978571  0.63343765  0.23665076  1.0
  Bi  Bi572  1  0.43978571  0.96677099  0.23665076  1.0
  Bi  Bi573  1  0.77311904  0.30010432  0.23665076  1.0
  Bi  Bi574  1  0.77311904  0.63343765  0.23665076  1.0
  Bi  Bi575  1  0.77311904  0.96677099  0.23665076  1.0
  Ni  Ni576  1  0.04034265  0.12367115  0.06772691  1.0
  Ni  Ni577  1  0.04034265  0.45700448  0.06772691  1.0
  Ni  Ni578  1  0.04034265  0.79033781  0.06772691  1.0
  Ni  Ni579  1  0.37367598  0.12367115  0.06772691  1.0
  Ni  Ni580  1  0.37367598  0.45700448  0.06772691  1.0
  Ni  Ni581  1  0.37367598  0.79033781  0.06772691  1.0
  Ni  Ni582  1  0.70700931  0.12367115  0.06772691  1.0
  Ni  Ni583  1  0.70700931  0.45700448  0.06772691  1.0
  Ni  Ni584  1  0.70700931  0.79033781  0.06772691  1.0
  Ni  Ni585  1  0.20700932  0.05700448  0.16772691  1.0
  Ni  Ni586  1  0.20700932  0.39033781  0.16772691  1.0
  Ni  Ni587  1  0.20700932  0.72367115  0.16772691  1.0
  Ni  Ni588  1  0.54034265  0.05700448  0.16772691  1.0
  Ni  Ni589  1  0.54034265  0.39033781  0.16772691  1.0
  Ni  Ni590  1  0.54034265  0.72367115  0.16772691  1.0
  Ni  Ni591  1  0.87367598  0.05700448  0.16772691  1.0
  Ni  Ni592  1  0.87367598  0.39033781  0.16772691  1.0
  Ni  Ni593  1  0.87367598  0.72367115  0.16772691  1.0
  Ni  Ni594  1  0.29369179  0.08464476  0.11371082  1.0
  Ni  Ni595  1  0.29369179  0.41797809  0.11371082  1.0
  Ni  Ni596  1  0.29369179  0.75131142  0.11371082  1.0
  Ni  Ni597  1  0.62702512  0.08464476  0.11371082  1.0
  Ni  Ni598  1  0.62702512  0.41797809  0.11371082  1.0
  Ni  Ni599  1  0.62702512  0.75131142  0.11371082  1.0
  Ni  Ni600  1  0.96035845  0.08464476  0.11371082  1.0
  Ni  Ni601  1  0.96035845  0.41797809  0.11371082  1.0
  Ni  Ni602  1  0.96035845  0.75131142  0.11371082  1.0
  Ni  Ni603  1  0.12702512  0.15131143  0.01371082  1.0
  Ni  Ni604  1  0.12702512  0.48464476  0.01371082  1.0
  Ni  Ni605  1  0.12702512  0.81797809  0.01371082  1.0
  Ni  Ni606  1  0.46035845  0.15131143  0.01371082  1.0
  Ni  Ni607  1  0.46035845  0.48464476  0.01371082  1.0
  Ni  Ni608  1  0.46035845  0.81797809  0.01371082  1.0
  Ni  Ni609  1  0.79369179  0.15131143  0.01371082  1.0
  Ni  Ni610  1  0.79369179  0.48464476  0.01371082  1.0
  Ni  Ni611  1  0.79369179  0.81797809  0.01371082  1.0
  Ni  Ni612  1  0.20459032  0.21797361  0.11177074  1.0
  Ni  Ni613  1  0.20459032  0.55130695  0.11177074  1.0
  Ni  Ni614  1  0.20459032  0.88464028  0.11177074  1.0
  Ni  Ni615  1  0.53792365  0.21797361  0.11177074  1.0
  Ni  Ni616  1  0.53792365  0.55130695  0.11177074  1.0
  Ni  Ni617  1  0.53792365  0.88464028  0.11177074  1.0
  Ni  Ni618  1  0.87125699  0.21797361  0.11177074  1.0
  Ni  Ni619  1  0.87125699  0.55130695  0.11177074  1.0
  Ni  Ni620  1  0.87125699  0.88464028  0.11177074  1.0
  Ni  Ni621  1  0.03792365  0.28464028  0.01177074  1.0
  Ni  Ni622  1  0.03792365  0.61797361  0.01177074  1.0
  Ni  Ni623  1  0.03792365  0.95130695  0.01177074  1.0
  Ni  Ni624  1  0.37125699  0.28464028  0.01177074  1.0
  Ni  Ni625  1  0.37125699  0.61797361  0.01177074  1.0
  Ni  Ni626  1  0.37125699  0.95130695  0.01177074  1.0
  Ni  Ni627  1  0.70459032  0.28464028  0.01177074  1.0
  Ni  Ni628  1  0.70459032  0.61797361  0.01177074  1.0
  Ni  Ni629  1  0.70459032  0.95130695  0.01177074  1.0
  Ni  Ni630  1  0.12853037  0.32566526  0.07338110  1.0
  Ni  Ni631  1  0.12853038  0.65899859  0.07338110  1.0
  Ni  Ni632  1  0.12853037  0.99233192  0.07338110  1.0
  Ni  Ni633  1  0.46186371  0.32566526  0.07338110  1.0
  Ni  Ni634  1  0.46186371  0.65899859  0.07338110  1.0
  Ni  Ni635  1  0.46186371  0.99233192  0.07338110  1.0
  Ni  Ni636  1  0.79519704  0.32566526  0.07338110  1.0
  Ni  Ni637  1  0.79519704  0.65899859  0.07338110  1.0
  Ni  Ni638  1  0.79519704  0.99233192  0.07338110  1.0
  Ni  Ni639  1  0.29519704  0.25899859  0.17338110  1.0
  Ni  Ni640  1  0.29519704  0.59233192  0.17338110  1.0
  Ni  Ni641  1  0.29519704  0.92566526  0.17338110  1.0
  Ni  Ni642  1  0.62853037  0.25899859  0.17338110  1.0
  Ni  Ni643  1  0.62853038  0.59233192  0.17338110  1.0
  Ni  Ni644  1  0.62853038  0.92566526  0.17338110  1.0
  Ni  Ni645  1  0.96186371  0.25899859  0.17338110  1.0
  Ni  Ni646  1  0.96186371  0.59233192  0.17338110  1.0
  Ni  Ni647  1  0.96186371  0.92566526  0.17338110  1.0
  Ni  Ni648  1  0.02114152  0.16303003  0.13107000  1.0
  Ni  Ni649  1  0.02114152  0.49636336  0.13107000  1.0
  Ni  Ni650  1  0.02114152  0.82969669  0.13107000  1.0
  Ni  Ni651  1  0.35447485  0.16303003  0.13107000  1.0
  Ni  Ni652  1  0.35447485  0.49636336  0.13107000  1.0
  Ni  Ni653  1  0.35447485  0.82969669  0.13107000  1.0
  Ni  Ni654  1  0.68780818  0.16303003  0.13107000  1.0
  Ni  Ni655  1  0.68780818  0.49636336  0.13107000  1.0
  Ni  Ni656  1  0.68780819  0.82969669  0.13107000  1.0
  Ni  Ni657  1  0.18780819  0.22969669  0.03107000  1.0
  Ni  Ni658  1  0.18780819  0.56303002  0.03107000  1.0
  Ni  Ni659  1  0.18780819  0.89636336  0.03107000  1.0
  Ni  Ni660  1  0.52114152  0.22969669  0.03107000  1.0
  Ni  Ni661  1  0.52114152  0.56303002  0.03107000  1.0
  Ni  Ni662  1  0.52114152  0.89636336  0.03107000  1.0
  Ni  Ni663  1  0.85447485  0.22969669  0.03107000  1.0
  Ni  Ni664  1  0.85447485  0.56303002  0.03107000  1.0
  Ni  Ni665  1  0.85447485  0.89636336  0.03107000  1.0
  Ni  Ni666  1  0.31214802  0.04664264  0.05180427  1.0
  Ni  Ni667  1  0.31214802  0.37997598  0.05180427  1.0
  Ni  Ni668  1  0.31214802  0.71330931  0.05180427  1.0
  Ni  Ni669  1  0.64548136  0.04664264  0.05180427  1.0
  Ni  Ni670  1  0.64548136  0.37997598  0.05180427  1.0
  Ni  Ni671  1  0.64548136  0.71330931  0.05180427  1.0
  Ni  Ni672  1  0.97881469  0.04664264  0.05180427  1.0
  Ni  Ni673  1  0.97881469  0.37997598  0.05180427  1.0
  Ni  Ni674  1  0.97881469  0.71330931  0.05180427  1.0
  Ni  Ni675  1  0.14548136  0.31330931  0.15180427  1.0
  Ni  Ni676  1  0.14548136  0.64664265  0.15180427  1.0
  Ni  Ni677  1  0.14548136  0.97997598  0.15180427  1.0
  Ni  Ni678  1  0.47881469  0.31330931  0.15180427  1.0
  Ni  Ni679  1  0.47881469  0.64664265  0.15180427  1.0
  Ni  Ni680  1  0.47881469  0.97997598  0.15180427  1.0
  Ni  Ni681  1  0.81214802  0.31330931  0.15180427  1.0
  Ni  Ni682  1  0.81214802  0.64664265  0.15180427  1.0
  Ni  Ni683  1  0.81214802  0.97997598  0.15180427  1.0
  Ni  Ni684  1  0.03924788  0.05448401  0.16947717  1.0
  Ni  Ni685  1  0.03924788  0.38781734  0.16947717  1.0
  Ni  Ni686  1  0.03924788  0.72115068  0.16947717  1.0
  Ni  Ni687  1  0.37258121  0.05448401  0.16947717  1.0
  Ni  Ni688  1  0.37258121  0.38781734  0.16947717  1.0
  Ni  Ni689  1  0.37258121  0.72115068  0.16947717  1.0
  Ni  Ni690  1  0.70591454  0.05448401  0.16947717  1.0
  Ni  Ni691  1  0.70591454  0.38781734  0.16947717  1.0
  Ni  Ni692  1  0.70591454  0.72115068  0.16947717  1.0
  Ni  Ni693  1  0.20591454  0.12115068  0.06947717  1.0
  Ni  Ni694  1  0.20591454  0.45448401  0.06947717  1.0
  Ni  Ni695  1  0.20591454  0.78781734  0.06947717  1.0
  Ni  Ni696  1  0.53924788  0.12115068  0.06947717  1.0
  Ni  Ni697  1  0.53924788  0.45448401  0.06947717  1.0
  Ni  Ni698  1  0.53924788  0.78781734  0.06947717  1.0
  Ni  Ni699  1  0.87258121  0.12115068  0.06947717  1.0
  Ni  Ni700  1  0.87258121  0.45448401  0.06947717  1.0
  Ni  Ni701  1  0.87258121  0.78781734  0.06947717  1.0
  Ni  Ni702  1  0.29370222  0.15626574  0.01680457  1.0
  Ni  Ni703  1  0.29370222  0.48959908  0.01680457  1.0
  Ni  Ni704  1  0.29370222  0.82293241  0.01680457  1.0
  Ni  Ni705  1  0.62703555  0.15626574  0.01680457  1.0
  Ni  Ni706  1  0.62703555  0.48959908  0.01680457  1.0
  Ni  Ni707  1  0.62703555  0.82293241  0.01680457  1.0
  Ni  Ni708  1  0.96036888  0.15626574  0.01680457  1.0
  Ni  Ni709  1  0.96036888  0.48959908  0.01680457  1.0
  Ni  Ni710  1  0.96036888  0.82293241  0.01680457  1.0
  Ni  Ni711  1  0.12703555  0.08959908  0.11680457  1.0
  Ni  Ni712  1  0.12703555  0.42293241  0.11680457  1.0
  Ni  Ni713  1  0.12703555  0.75626574  0.11680457  1.0
  Ni  Ni714  1  0.46036888  0.08959908  0.11680457  1.0
  Ni  Ni715  1  0.46036888  0.42293241  0.11680457  1.0
  Ni  Ni716  1  0.46036888  0.75626574  0.11680457  1.0
  Ni  Ni717  1  0.79370222  0.08959908  0.11680457  1.0
  Ni  Ni718  1  0.79370222  0.42293241  0.11680457  1.0
  Ni  Ni719  1  0.79370222  0.75626574  0.11680457  1.0
  Ni  Ni720  1  0.00013536  0.20476768  0.19244052  1.0
  Ni  Ni721  1  0.00013536  0.53810101  0.19244052  1.0
  Ni  Ni722  1  0.00013536  0.87143435  0.19244052  1.0
  Ni  Ni723  1  0.33346869  0.20476768  0.19244052  1.0
  Ni  Ni724  1  0.33346869  0.53810101  0.19244052  1.0
  Ni  Ni725  1  0.33346869  0.87143435  0.19244052  1.0
  Ni  Ni726  1  0.66680203  0.20476768  0.19244052  1.0
  Ni  Ni727  1  0.66680203  0.53810101  0.19244052  1.0
  Ni  Ni728  1  0.66680203  0.87143435  0.19244052  1.0
  Ni  Ni729  1  0.16680203  0.27143435  0.09244052  1.0
  Ni  Ni730  1  0.16680203  0.60476768  0.09244052  1.0
  Ni  Ni731  1  0.16680203  0.93810102  0.09244052  1.0
  Ni  Ni732  1  0.50013536  0.27143435  0.09244052  1.0
  Ni  Ni733  1  0.50013536  0.60476768  0.09244052  1.0
  Ni  Ni734  1  0.50013536  0.93810102  0.09244052  1.0
  Ni  Ni735  1  0.83346869  0.27143435  0.09244052  1.0
  Ni  Ni736  1  0.83346869  0.60476768  0.09244052  1.0
  Ni  Ni737  1  0.83346869  0.93810102  0.09244052  1.0
  Ni  Ni738  1  0.02164669  0.23006059  0.02910368  1.0
  Ni  Ni739  1  0.02164669  0.56339393  0.02910368  1.0
  Ni  Ni740  1  0.02164669  0.89672726  0.02910368  1.0
  Ni  Ni741  1  0.35498002  0.23006059  0.02910368  1.0
  Ni  Ni742  1  0.35498002  0.56339393  0.02910368  1.0
  Ni  Ni743  1  0.35498002  0.89672726  0.02910368  1.0
  Ni  Ni744  1  0.68831335  0.23006059  0.02910368  1.0
  Ni  Ni745  1  0.68831335  0.56339393  0.02910368  1.0
  Ni  Ni746  1  0.68831335  0.89672726  0.02910368  1.0
  Ni  Ni747  1  0.18831335  0.16339393  0.12910368  1.0
  Ni  Ni748  1  0.18831335  0.49672726  0.12910368  1.0
  Ni  Ni749  1  0.18831335  0.83006059  0.12910368  1.0
  Ni  Ni750  1  0.52164669  0.16339393  0.12910368  1.0
  Ni  Ni751  1  0.52164669  0.49672726  0.12910368  1.0
  Ni  Ni752  1  0.52164669  0.83006059  0.12910368  1.0
  Ni  Ni753  1  0.85498002  0.16339393  0.12910368  1.0
  Ni  Ni754  1  0.85498002  0.49672726  0.12910368  1.0
  Ni  Ni755  1  0.85498002  0.83006059  0.12910368  1.0
  Ni  Ni756  1  0.06429579  0.01339007  0.10428903  1.0
  Ni  Ni757  1  0.06429579  0.34672340  0.10428903  1.0
  Ni  Ni758  1  0.06429579  0.68005673  0.10428903  1.0
  Ni  Ni759  1  0.39762912  0.01339007  0.10428903  1.0
  Ni  Ni760  1  0.39762912  0.34672340  0.10428903  1.0
  Ni  Ni761  1  0.39762912  0.68005673  0.10428903  1.0
  Ni  Ni762  1  0.73096246  0.01339007  0.10428903  1.0
  Ni  Ni763  1  0.73096246  0.34672340  0.10428903  1.0
  Ni  Ni764  1  0.73096246  0.68005673  0.10428903  1.0
  Ni  Ni765  1  0.23096246  0.08005673  0.00428903  1.0
  Ni  Ni766  1  0.23096246  0.41339007  0.00428903  1.0
  Ni  Ni767  1  0.23096246  0.74672340  0.00428903  1.0
  Ni  Ni768  1  0.56429579  0.08005673  0.00428903  1.0
  Ni  Ni769  1  0.56429579  0.41339007  0.00428903  1.0
  Ni  Ni770  1  0.56429579  0.74672340  0.00428903  1.0
  Ni  Ni771  1  0.89762912  0.08005673  0.00428903  1.0
  Ni  Ni772  1  0.89762912  0.41339007  0.00428903  1.0
  Ni  Ni773  1  0.89762912  0.74672340  0.00428903  1.0
  Ni  Ni774  1  0.27019731  0.19614751  0.07997331  1.0
  Ni  Ni775  1  0.27019731  0.52948085  0.07997331  1.0
  Ni  Ni776  1  0.27019731  0.86281418  0.07997331  1.0
  Ni  Ni777  1  0.60353065  0.19614751  0.07997331  1.0
  Ni  Ni778  1  0.60353065  0.52948085  0.07997331  1.0
  Ni  Ni779  1  0.60353065  0.86281418  0.07997331  1.0
  Ni  Ni780  1  0.93686398  0.19614751  0.07997331  1.0
  Ni  Ni781  1  0.93686398  0.52948085  0.07997331  1.0
  Ni  Ni782  1  0.93686398  0.86281418  0.07997331  1.0
  Ni  Ni783  1  0.10353065  0.12948085  0.17997331  1.0
  Ni  Ni784  1  0.10353065  0.46281418  0.17997331  1.0
  Ni  Ni785  1  0.10353065  0.79614751  0.17997331  1.0
  Ni  Ni786  1  0.43686398  0.12948085  0.17997331  1.0
  Ni  Ni787  1  0.43686398  0.46281418  0.17997331  1.0
  Ni  Ni788  1  0.43686398  0.79614751  0.17997331  1.0
  Ni  Ni789  1  0.77019731  0.12948085  0.17997331  1.0
  Ni  Ni790  1  0.77019731  0.46281418  0.17997331  1.0
  Ni  Ni791  1  0.77019731  0.79614751  0.17997331  1.0
  Ni  Ni792  1  0.31140751  0.31223475  0.15602199  1.0
  Ni  Ni793  1  0.31140751  0.64556809  0.15602199  1.0
  Ni  Ni794  1  0.31140751  0.97890142  0.15602199  1.0
  Ni  Ni795  1  0.64474085  0.31223475  0.15602199  1.0
  Ni  Ni796  1  0.64474085  0.64556809  0.15602199  1.0
  Ni  Ni797  1  0.64474084  0.97890142  0.15602199  1.0
  Ni  Ni798  1  0.97807418  0.31223475  0.15602199  1.0
  Ni  Ni799  1  0.97807418  0.64556809  0.15602199  1.0
  Ni  Ni800  1  0.97807418  0.97890142  0.15602199  1.0
  Ni  Ni801  1  0.14474084  0.04556809  0.05602199  1.0
  Ni  Ni802  1  0.14474084  0.37890142  0.05602199  1.0
  Ni  Ni803  1  0.14474084  0.71223475  0.05602199  1.0
  Ni  Ni804  1  0.47807418  0.04556809  0.05602199  1.0
  Ni  Ni805  1  0.47807418  0.37890142  0.05602199  1.0
  Ni  Ni806  1  0.47807418  0.71223475  0.05602199  1.0
  Ni  Ni807  1  0.81140751  0.04556809  0.05602199  1.0
  Ni  Ni808  1  0.81140751  0.37890142  0.05602199  1.0
  Ni  Ni809  1  0.81140751  0.71223475  0.05602199  1.0
  Ni  Ni810  1  0.16683234  0.20496987  0.19245414  1.0
  Ni  Ni811  1  0.16683234  0.53830320  0.19245414  1.0
  Ni  Ni812  1  0.16683234  0.87163654  0.19245414  1.0
  Ni  Ni813  1  0.50016568  0.20496987  0.19245414  1.0
  Ni  Ni814  1  0.50016568  0.53830320  0.19245414  1.0
  Ni  Ni815  1  0.50016568  0.87163654  0.19245414  1.0
  Ni  Ni816  1  0.83349901  0.20496987  0.19245414  1.0
  Ni  Ni817  1  0.83349901  0.53830320  0.19245414  1.0
  Ni  Ni818  1  0.83349901  0.87163654  0.19245414  1.0
  Ni  Ni819  1  0.00016568  0.27163654  0.09245414  1.0
  Ni  Ni820  1  0.00016568  0.60496987  0.09245414  1.0
  Ni  Ni821  1  0.00016568  0.93830320  0.09245414  1.0
  Ni  Ni822  1  0.33349901  0.27163654  0.09245414  1.0
  Ni  Ni823  1  0.33349901  0.60496987  0.09245414  1.0
  Ni  Ni824  1  0.33349901  0.93830320  0.09245414  1.0
  Ni  Ni825  1  0.66683234  0.27163654  0.09245414  1.0
  Ni  Ni826  1  0.66683234  0.60496987  0.09245414  1.0
  Ni  Ni827  1  0.66683234  0.93830320  0.09245414  1.0
  Ni  Ni828  1  0.24992028  0.23820505  0.14260138  1.0
  Ni  Ni829  1  0.24992029  0.57153838  0.14260138  1.0
  Ni  Ni830  1  0.24992028  0.90487171  0.14260138  1.0
  Ni  Ni831  1  0.58325362  0.23820505  0.14260138  1.0
  Ni  Ni832  1  0.58325362  0.57153838  0.14260138  1.0
  Ni  Ni833  1  0.58325362  0.90487171  0.14260138  1.0
  Ni  Ni834  1  0.91658695  0.23820505  0.14260138  1.0
  Ni  Ni835  1  0.91658695  0.57153838  0.14260138  1.0
  Ni  Ni836  1  0.91658695  0.90487171  0.14260138  1.0
  Ni  Ni837  1  0.08325362  0.30487171  0.04260138  1.0
  Ni  Ni838  1  0.08325362  0.63820505  0.04260138  1.0
  Ni  Ni839  1  0.08325362  0.97153838  0.04260138  1.0
  Ni  Ni840  1  0.41658695  0.30487171  0.04260138  1.0
  Ni  Ni841  1  0.41658695  0.63820505  0.04260138  1.0
  Ni  Ni842  1  0.41658695  0.97153838  0.04260138  1.0
  Ni  Ni843  1  0.74992028  0.30487171  0.04260138  1.0
  Ni  Ni844  1  0.74992028  0.63820505  0.04260138  1.0
  Ni  Ni845  1  0.74992028  0.97153838  0.04260138  1.0
  Ni  Ni846  1  0.00395534  0.17499432  0.04818016  1.0
  Ni  Ni847  1  0.00395534  0.50832766  0.04818016  1.0
  Ni  Ni848  1  0.00395534  0.84166099  0.04818016  1.0
  Ni  Ni849  1  0.33728867  0.17499432  0.04818016  1.0
  Ni  Ni850  1  0.33728867  0.50832766  0.04818016  1.0
  Ni  Ni851  1  0.33728867  0.84166099  0.04818016  1.0
  Ni  Ni852  1  0.67062200  0.17499432  0.04818016  1.0
  Ni  Ni853  1  0.67062200  0.50832766  0.04818016  1.0
  Ni  Ni854  1  0.67062200  0.84166099  0.04818016  1.0
  Ni  Ni855  1  0.17062200  0.10832766  0.14818016  1.0
  Ni  Ni856  1  0.17062200  0.44166099  0.14818016  1.0
  Ni  Ni857  1  0.17062200  0.77499432  0.14818016  1.0
  Ni  Ni858  1  0.50395534  0.10832766  0.14818016  1.0
  Ni  Ni859  1  0.50395534  0.44166099  0.14818016  1.0
  Ni  Ni860  1  0.50395534  0.77499432  0.14818016  1.0
  Ni  Ni861  1  0.83728867  0.10832766  0.14818016  1.0
  Ni  Ni862  1  0.83728867  0.44166099  0.14818016  1.0
  Ni  Ni863  1  0.83728867  0.77499432  0.14818016  1.0
  Ni  Ni864  1  0.04034265  0.32367115  0.26772691  1.0
  Ni  Ni865  1  0.04034265  0.65700448  0.26772691  1.0
  Ni  Ni866  1  0.04034265  0.99033782  0.26772691  1.0
  Ni  Ni867  1  0.37367598  0.32367115  0.26772691  1.0
  Ni  Ni868  1  0.37367598  0.65700448  0.26772691  1.0
  Ni  Ni869  1  0.37367598  0.99033782  0.26772691  1.0
  Ni  Ni870  1  0.70700931  0.32367115  0.26772691  1.0
  Ni  Ni871  1  0.70700931  0.65700448  0.26772691  1.0
  Ni  Ni872  1  0.70700931  0.99033782  0.26772691  1.0
  Ni  Ni873  1  0.20700932  0.25700448  0.36772691  1.0
  Ni  Ni874  1  0.20700932  0.59033782  0.36772691  1.0
  Ni  Ni875  1  0.20700932  0.92367115  0.36772691  1.0
  Ni  Ni876  1  0.54034265  0.25700448  0.36772691  1.0
  Ni  Ni877  1  0.54034265  0.59033782  0.36772691  1.0
  Ni  Ni878  1  0.54034265  0.92367115  0.36772691  1.0
  Ni  Ni879  1  0.87367598  0.25700448  0.36772691  1.0
  Ni  Ni880  1  0.87367598  0.59033782  0.36772691  1.0
  Ni  Ni881  1  0.87367598  0.92367115  0.36772691  1.0
  Ni  Ni882  1  0.29369179  0.28464476  0.31371082  1.0
  Ni  Ni883  1  0.29369179  0.61797809  0.31371082  1.0
  Ni  Ni884  1  0.29369179  0.95131142  0.31371082  1.0
  Ni  Ni885  1  0.62702512  0.28464476  0.31371082  1.0
  Ni  Ni886  1  0.62702512  0.61797809  0.31371082  1.0
  Ni  Ni887  1  0.62702512  0.95131142  0.31371082  1.0
  Ni  Ni888  1  0.96035845  0.28464476  0.31371082  1.0
  Ni  Ni889  1  0.96035845  0.61797809  0.31371082  1.0
  Ni  Ni890  1  0.96035845  0.95131142  0.31371082  1.0
  Ni  Ni891  1  0.12702512  0.01797809  0.21371082  1.0
  Ni  Ni892  1  0.12702512  0.35131143  0.21371082  1.0
  Ni  Ni893  1  0.12702512  0.68464476  0.21371082  1.0
  Ni  Ni894  1  0.46035845  0.01797809  0.21371082  1.0
  Ni  Ni895  1  0.46035845  0.35131143  0.21371082  1.0
  Ni  Ni896  1  0.46035845  0.68464476  0.21371082  1.0
  Ni  Ni897  1  0.79369179  0.01797809  0.21371082  1.0
  Ni  Ni898  1  0.79369179  0.35131143  0.21371082  1.0
  Ni  Ni899  1  0.79369179  0.68464476  0.21371082  1.0
  Ni  Ni900  1  0.20459032  0.08464028  0.31177074  1.0
  Ni  Ni901  1  0.20459032  0.41797361  0.31177074  1.0
  Ni  Ni902  1  0.20459032  0.75130695  0.31177074  1.0
  Ni  Ni903  1  0.53792365  0.08464028  0.31177074  1.0
  Ni  Ni904  1  0.53792365  0.41797361  0.31177074  1.0
  Ni  Ni905  1  0.53792365  0.75130695  0.31177074  1.0
  Ni  Ni906  1  0.87125699  0.08464028  0.31177074  1.0
  Ni  Ni907  1  0.87125699  0.41797361  0.31177074  1.0
  Ni  Ni908  1  0.87125699  0.75130695  0.31177074  1.0
  Ni  Ni909  1  0.03792365  0.15130695  0.21177074  1.0
  Ni  Ni910  1  0.03792365  0.48464028  0.21177074  1.0
  Ni  Ni911  1  0.03792365  0.81797361  0.21177074  1.0
  Ni  Ni912  1  0.37125699  0.15130695  0.21177074  1.0
  Ni  Ni913  1  0.37125699  0.48464028  0.21177074  1.0
  Ni  Ni914  1  0.37125699  0.81797361  0.21177074  1.0
  Ni  Ni915  1  0.70459032  0.15130695  0.21177074  1.0
  Ni  Ni916  1  0.70459032  0.48464028  0.21177074  1.0
  Ni  Ni917  1  0.70459032  0.81797361  0.21177074  1.0
  Ni  Ni918  1  0.12853037  0.19233192  0.27338110  1.0
  Ni  Ni919  1  0.12853038  0.52566526  0.27338110  1.0
  Ni  Ni920  1  0.12853038  0.85899859  0.27338110  1.0
  Ni  Ni921  1  0.46186371  0.19233192  0.27338110  1.0
  Ni  Ni922  1  0.46186371  0.52566526  0.27338110  1.0
  Ni  Ni923  1  0.46186371  0.85899859  0.27338110  1.0
  Ni  Ni924  1  0.79519704  0.19233192  0.27338110  1.0
  Ni  Ni925  1  0.79519704  0.52566526  0.27338110  1.0
  Ni  Ni926  1  0.79519704  0.85899859  0.27338110  1.0
  Ni  Ni927  1  0.29519704  0.12566526  0.37338110  1.0
  Ni  Ni928  1  0.29519704  0.45899859  0.37338110  1.0
  Ni  Ni929  1  0.29519704  0.79233192  0.37338110  1.0
  Ni  Ni930  1  0.62853038  0.12566526  0.37338110  1.0
  Ni  Ni931  1  0.62853038  0.45899859  0.37338110  1.0
  Ni  Ni932  1  0.62853038  0.79233192  0.37338110  1.0
  Ni  Ni933  1  0.96186371  0.12566526  0.37338110  1.0
  Ni  Ni934  1  0.96186371  0.45899859  0.37338110  1.0
  Ni  Ni935  1  0.96186371  0.79233192  0.37338110  1.0
  Ni  Ni936  1  0.02114152  0.02969669  0.33107000  1.0
  Ni  Ni937  1  0.02114152  0.36303002  0.33107000  1.0
  Ni  Ni938  1  0.02114152  0.69636336  0.33107000  1.0
  Ni  Ni939  1  0.35447485  0.02969669  0.33107000  1.0
  Ni  Ni940  1  0.35447485  0.36303002  0.33107000  1.0
  Ni  Ni941  1  0.35447485  0.69636336  0.33107000  1.0
  Ni  Ni942  1  0.68780818  0.02969669  0.33107000  1.0
  Ni  Ni943  1  0.68780818  0.36303002  0.33107000  1.0
  Ni  Ni944  1  0.68780819  0.69636336  0.33107000  1.0
  Ni  Ni945  1  0.18780819  0.09636336  0.23107000  1.0
  Ni  Ni946  1  0.18780819  0.42969669  0.23107000  1.0
  Ni  Ni947  1  0.18780819  0.76303002  0.23107000  1.0
  Ni  Ni948  1  0.52114152  0.09636336  0.23107000  1.0
  Ni  Ni949  1  0.52114152  0.42969669  0.23107000  1.0
  Ni  Ni950  1  0.52114152  0.76303002  0.23107000  1.0
  Ni  Ni951  1  0.85447485  0.09636336  0.23107000  1.0
  Ni  Ni952  1  0.85447485  0.42969669  0.23107000  1.0
  Ni  Ni953  1  0.85447485  0.76303002  0.23107000  1.0
  Ni  Ni954  1  0.31214802  0.24664264  0.25180427  1.0
  Ni  Ni955  1  0.31214802  0.57997598  0.25180427  1.0
  Ni  Ni956  1  0.31214802  0.91330931  0.25180427  1.0
  Ni  Ni957  1  0.64548136  0.24664264  0.25180427  1.0
  Ni  Ni958  1  0.64548136  0.57997598  0.25180427  1.0
  Ni  Ni959  1  0.64548136  0.91330931  0.25180427  1.0
  Ni  Ni960  1  0.97881469  0.24664264  0.25180427  1.0
  Ni  Ni961  1  0.97881469  0.57997598  0.25180427  1.0
  Ni  Ni962  1  0.97881469  0.91330931  0.25180427  1.0
  Ni  Ni963  1  0.14548136  0.17997598  0.35180427  1.0
  Ni  Ni964  1  0.14548136  0.51330931  0.35180427  1.0
  Ni  Ni965  1  0.14548136  0.84664265  0.35180427  1.0
  Ni  Ni966  1  0.47881469  0.17997598  0.35180427  1.0
  Ni  Ni967  1  0.47881469  0.51330931  0.35180427  1.0
  Ni  Ni968  1  0.47881469  0.84664265  0.35180427  1.0
  Ni  Ni969  1  0.81214802  0.17997598  0.35180427  1.0
  Ni  Ni970  1  0.81214802  0.51330931  0.35180427  1.0
  Ni  Ni971  1  0.81214802  0.84664265  0.35180427  1.0
  Ni  Ni972  1  0.03924788  0.25448401  0.36947717  1.0
  Ni  Ni973  1  0.03924788  0.58781734  0.36947717  1.0
  Ni  Ni974  1  0.03924788  0.92115068  0.36947717  1.0
  Ni  Ni975  1  0.37258121  0.25448401  0.36947717  1.0
  Ni  Ni976  1  0.37258121  0.58781734  0.36947717  1.0
  Ni  Ni977  1  0.37258121  0.92115068  0.36947717  1.0
  Ni  Ni978  1  0.70591454  0.25448401  0.36947717  1.0
  Ni  Ni979  1  0.70591454  0.58781734  0.36947717  1.0
  Ni  Ni980  1  0.70591454  0.92115068  0.36947717  1.0
  Ni  Ni981  1  0.20591454  0.32115068  0.26947717  1.0
  Ni  Ni982  1  0.20591454  0.65448401  0.26947717  1.0
  Ni  Ni983  1  0.20591454  0.98781734  0.26947717  1.0
  Ni  Ni984  1  0.53924788  0.32115068  0.26947717  1.0
  Ni  Ni985  1  0.53924788  0.65448401  0.26947717  1.0
  Ni  Ni986  1  0.53924788  0.98781734  0.26947717  1.0
  Ni  Ni987  1  0.87258121  0.32115068  0.26947717  1.0
  Ni  Ni988  1  0.87258121  0.65448401  0.26947717  1.0
  Ni  Ni989  1  0.87258121  0.98781734  0.26947717  1.0
  Ni  Ni990  1  0.29370222  0.02293241  0.21680457  1.0
  Ni  Ni991  1  0.29370222  0.35626574  0.21680457  1.0
  Ni  Ni992  1  0.29370222  0.68959908  0.21680457  1.0
  Ni  Ni993  1  0.62703555  0.02293241  0.21680457  1.0
  Ni  Ni994  1  0.62703555  0.35626574  0.21680457  1.0
  Ni  Ni995  1  0.62703555  0.68959908  0.21680457  1.0
  Ni  Ni996  1  0.96036888  0.02293241  0.21680457  1.0
  Ni  Ni997  1  0.96036888  0.35626574  0.21680457  1.0
  Ni  Ni998  1  0.96036888  0.68959908  0.21680457  1.0
  Ni  Ni999  1  0.12703555  0.28959908  0.31680457  1.0
  Ni  Ni1000  1  0.12703555  0.62293241  0.31680457  1.0
  Ni  Ni1001  1  0.12703555  0.95626575  0.31680457  1.0
  Ni  Ni1002  1  0.46036888  0.28959908  0.31680457  1.0
  Ni  Ni1003  1  0.46036888  0.62293241  0.31680457  1.0
  Ni  Ni1004  1  0.46036888  0.95626575  0.31680457  1.0
  Ni  Ni1005  1  0.79370222  0.28959908  0.31680457  1.0
  Ni  Ni1006  1  0.79370222  0.62293241  0.31680457  1.0
  Ni  Ni1007  1  0.79370222  0.95626575  0.31680457  1.0
  Ni  Ni1008  1  0.00013536  0.07143435  0.39244052  1.0
  Ni  Ni1009  1  0.00013536  0.40476768  0.39244052  1.0
  Ni  Ni1010  1  0.00013536  0.73810101  0.39244052  1.0
  Ni  Ni1011  1  0.33346869  0.07143435  0.39244052  1.0
  Ni  Ni1012  1  0.33346869  0.40476768  0.39244052  1.0
  Ni  Ni1013  1  0.33346869  0.73810101  0.39244052  1.0
  Ni  Ni1014  1  0.66680203  0.07143435  0.39244052  1.0
  Ni  Ni1015  1  0.66680203  0.40476768  0.39244052  1.0
  Ni  Ni1016  1  0.66680203  0.73810101  0.39244052  1.0
  Ni  Ni1017  1  0.16680203  0.13810101  0.29244052  1.0
  Ni  Ni1018  1  0.16680203  0.47143435  0.29244052  1.0
  Ni  Ni1019  1  0.16680203  0.80476768  0.29244052  1.0
  Ni  Ni1020  1  0.50013536  0.13810101  0.29244052  1.0
  Ni  Ni1021  1  0.50013536  0.47143435  0.29244052  1.0
  Ni  Ni1022  1  0.50013536  0.80476768  0.29244052  1.0
  Ni  Ni1023  1  0.83346869  0.13810101  0.29244052  1.0
  Ni  Ni1024  1  0.83346869  0.47143435  0.29244052  1.0
  Ni  Ni1025  1  0.83346869  0.80476768  0.29244052  1.0
  Ni  Ni1026  1  0.02164669  0.09672726  0.22910368  1.0
  Ni  Ni1027  1  0.02164669  0.43006059  0.22910368  1.0
  Ni  Ni1028  1  0.02164669  0.76339393  0.22910368  1.0
  Ni  Ni1029  1  0.35498002  0.09672726  0.22910368  1.0
  Ni  Ni1030  1  0.35498002  0.43006059  0.22910368  1.0
  Ni  Ni1031  1  0.35498002  0.76339393  0.22910368  1.0
  Ni  Ni1032  1  0.68831335  0.09672726  0.22910368  1.0
  Ni  Ni1033  1  0.68831335  0.43006059  0.22910368  1.0
  Ni  Ni1034  1  0.68831335  0.76339393  0.22910368  1.0
  Ni  Ni1035  1  0.18831335  0.03006059  0.32910368  1.0
  Ni  Ni1036  1  0.18831335  0.36339393  0.32910368  1.0
  Ni  Ni1037  1  0.18831335  0.69672726  0.32910368  1.0
  Ni  Ni1038  1  0.52164669  0.03006059  0.32910368  1.0
  Ni  Ni1039  1  0.52164669  0.36339393  0.32910368  1.0
  Ni  Ni1040  1  0.52164669  0.69672726  0.32910368  1.0
  Ni  Ni1041  1  0.85498002  0.03006059  0.32910368  1.0
  Ni  Ni1042  1  0.85498002  0.36339393  0.32910368  1.0
  Ni  Ni1043  1  0.85498002  0.69672726  0.32910368  1.0
  Ni  Ni1044  1  0.06429579  0.21339007  0.30428903  1.0
  Ni  Ni1045  1  0.06429579  0.54672340  0.30428903  1.0
  Ni  Ni1046  1  0.06429579  0.88005673  0.30428903  1.0
  Ni  Ni1047  1  0.39762912  0.21339007  0.30428903  1.0
  Ni  Ni1048  1  0.39762912  0.54672340  0.30428903  1.0
  Ni  Ni1049  1  0.39762912  0.88005673  0.30428903  1.0
  Ni  Ni1050  1  0.73096246  0.21339007  0.30428903  1.0
  Ni  Ni1051  1  0.73096246  0.54672340  0.30428903  1.0
  Ni  Ni1052  1  0.73096246  0.88005673  0.30428903  1.0
  Ni  Ni1053  1  0.23096246  0.28005673  0.20428903  1.0
  Ni  Ni1054  1  0.23096246  0.61339007  0.20428903  1.0
  Ni  Ni1055  1  0.23096246  0.94672340  0.20428903  1.0
  Ni  Ni1056  1  0.56429579  0.28005673  0.20428903  1.0
  Ni  Ni1057  1  0.56429579  0.61339007  0.20428903  1.0
  Ni  Ni1058  1  0.56429579  0.94672340  0.20428903  1.0
  Ni  Ni1059  1  0.89762912  0.28005673  0.20428903  1.0
  Ni  Ni1060  1  0.89762912  0.61339007  0.20428903  1.0
  Ni  Ni1061  1  0.89762912  0.94672340  0.20428903  1.0
  Ni  Ni1062  1  0.27019731  0.06281418  0.27997331  1.0
  Ni  Ni1063  1  0.27019731  0.39614751  0.27997331  1.0
  Ni  Ni1064  1  0.27019731  0.72948084  0.27997331  1.0
  Ni  Ni1065  1  0.60353065  0.06281418  0.27997331  1.0
  Ni  Ni1066  1  0.60353065  0.39614751  0.27997331  1.0
  Ni  Ni1067  1  0.60353065  0.72948084  0.27997331  1.0
  Ni  Ni1068  1  0.93686398  0.06281418  0.27997331  1.0
  Ni  Ni1069  1  0.93686398  0.39614751  0.27997331  1.0
  Ni  Ni1070  1  0.93686398  0.72948084  0.27997331  1.0
  Ni  Ni1071  1  0.10353065  0.32948085  0.37997331  1.0
  Ni  Ni1072  1  0.10353065  0.66281418  0.37997331  1.0
  Ni  Ni1073  1  0.10353065  0.99614751  0.37997331  1.0
  Ni  Ni1074  1  0.43686398  0.32948085  0.37997331  1.0
  Ni  Ni1075  1  0.43686398  0.66281418  0.37997331  1.0
  Ni  Ni1076  1  0.43686398  0.99614751  0.37997331  1.0
  Ni  Ni1077  1  0.77019731  0.32948085  0.37997331  1.0
  Ni  Ni1078  1  0.77019731  0.66281418  0.37997331  1.0
  Ni  Ni1079  1  0.77019731  0.99614751  0.37997331  1.0
  Ni  Ni1080  1  0.31140751  0.17890142  0.35602199  1.0
  Ni  Ni1081  1  0.31140751  0.51223475  0.35602199  1.0
  Ni  Ni1082  1  0.31140751  0.84556809  0.35602199  1.0
  Ni  Ni1083  1  0.64474085  0.17890142  0.35602199  1.0
  Ni  Ni1084  1  0.64474085  0.51223475  0.35602199  1.0
  Ni  Ni1085  1  0.64474085  0.84556809  0.35602199  1.0
  Ni  Ni1086  1  0.97807418  0.17890142  0.35602199  1.0
  Ni  Ni1087  1  0.97807418  0.51223475  0.35602199  1.0
  Ni  Ni1088  1  0.97807418  0.84556809  0.35602199  1.0
  Ni  Ni1089  1  0.14474085  0.24556809  0.25602199  1.0
  Ni  Ni1090  1  0.14474085  0.57890142  0.25602199  1.0
  Ni  Ni1091  1  0.14474084  0.91223476  0.25602199  1.0
  Ni  Ni1092  1  0.47807418  0.24556809  0.25602199  1.0
  Ni  Ni1093  1  0.47807418  0.57890142  0.25602199  1.0
  Ni  Ni1094  1  0.47807418  0.91223476  0.25602199  1.0
  Ni  Ni1095  1  0.81140751  0.24556809  0.25602199  1.0
  Ni  Ni1096  1  0.81140751  0.57890142  0.25602199  1.0
  Ni  Ni1097  1  0.81140751  0.91223476  0.25602199  1.0
  Ni  Ni1098  1  0.16683234  0.07163654  0.39245414  1.0
  Ni  Ni1099  1  0.16683234  0.40496987  0.39245414  1.0
  Ni  Ni1100  1  0.16683234  0.73830320  0.39245414  1.0
  Ni  Ni1101  1  0.50016568  0.07163654  0.39245414  1.0
  Ni  Ni1102  1  0.50016568  0.40496987  0.39245414  1.0
  Ni  Ni1103  1  0.50016568  0.73830320  0.39245414  1.0
  Ni  Ni1104  1  0.83349901  0.07163654  0.39245414  1.0
  Ni  Ni1105  1  0.83349901  0.40496987  0.39245414  1.0
  Ni  Ni1106  1  0.83349901  0.73830320  0.39245414  1.0
  Ni  Ni1107  1  0.00016568  0.13830320  0.29245414  1.0
  Ni  Ni1108  1  0.00016568  0.47163654  0.29245414  1.0
  Ni  Ni1109  1  0.00016568  0.80496987  0.29245414  1.0
  Ni  Ni1110  1  0.33349901  0.13830320  0.29245414  1.0
  Ni  Ni1111  1  0.33349901  0.47163654  0.29245414  1.0
  Ni  Ni1112  1  0.33349901  0.80496987  0.29245414  1.0
  Ni  Ni1113  1  0.66683234  0.13830320  0.29245414  1.0
  Ni  Ni1114  1  0.66683234  0.47163654  0.29245414  1.0
  Ni  Ni1115  1  0.66683234  0.80496987  0.29245414  1.0
  Ni  Ni1116  1  0.24992029  0.10487171  0.34260138  1.0
  Ni  Ni1117  1  0.24992029  0.43820505  0.34260138  1.0
  Ni  Ni1118  1  0.24992029  0.77153838  0.34260138  1.0
  Ni  Ni1119  1  0.58325362  0.10487171  0.34260138  1.0
  Ni  Ni1120  1  0.58325362  0.43820505  0.34260138  1.0
  Ni  Ni1121  1  0.58325362  0.77153838  0.34260138  1.0
  Ni  Ni1122  1  0.91658695  0.10487171  0.34260138  1.0
  Ni  Ni1123  1  0.91658695  0.43820505  0.34260138  1.0
  Ni  Ni1124  1  0.91658695  0.77153838  0.34260138  1.0
  Ni  Ni1125  1  0.08325362  0.17153838  0.24260138  1.0
  Ni  Ni1126  1  0.08325362  0.50487171  0.24260138  1.0
  Ni  Ni1127  1  0.08325362  0.83820505  0.24260138  1.0
  Ni  Ni1128  1  0.41658695  0.17153838  0.24260138  1.0
  Ni  Ni1129  1  0.41658695  0.50487171  0.24260138  1.0
  Ni  Ni1130  1  0.41658695  0.83820505  0.24260138  1.0
  Ni  Ni1131  1  0.74992029  0.17153838  0.24260138  1.0
  Ni  Ni1132  1  0.74992028  0.50487171  0.24260138  1.0
  Ni  Ni1133  1  0.74992029  0.83820505  0.24260138  1.0
  Ni  Ni1134  1  0.00395534  0.04166099  0.24818016  1.0
  Ni  Ni1135  1  0.00395534  0.37499432  0.24818016  1.0
  Ni  Ni1136  1  0.00395534  0.70832766  0.24818016  1.0
  Ni  Ni1137  1  0.33728867  0.04166099  0.24818016  1.0
  Ni  Ni1138  1  0.33728867  0.37499432  0.24818016  1.0
  Ni  Ni1139  1  0.33728867  0.70832766  0.24818016  1.0
  Ni  Ni1140  1  0.67062200  0.04166099  0.24818016  1.0
  Ni  Ni1141  1  0.67062200  0.37499432  0.24818016  1.0
  Ni  Ni1142  1  0.67062200  0.70832766  0.24818016  1.0
  Ni  Ni1143  1  0.17062200  0.30832766  0.34818016  1.0
  Ni  Ni1144  1  0.17062200  0.64166099  0.34818016  1.0
  Ni  Ni1145  1  0.17062200  0.97499432  0.34818016  1.0
  Ni  Ni1146  1  0.50395534  0.30832766  0.34818016  1.0
  Ni  Ni1147  1  0.50395534  0.64166099  0.34818016  1.0
  Ni  Ni1148  1  0.50395534  0.97499432  0.34818016  1.0
  Ni  Ni1149  1  0.83728867  0.30832766  0.34818016  1.0
  Ni  Ni1150  1  0.83728867  0.64166099  0.34818016  1.0
  Ni  Ni1151  1  0.83728867  0.97499432  0.34818016  1.0
