# generated using pymatgen
data_NiBi
_symmetry_space_group_name_H-M   'P 1'
_cell_length_a   24.69816339
_cell_length_b   75.85618815
_cell_length_c   64.42911230
_cell_angle_alpha   34.92519607
_cell_angle_beta   61.54335411
_cell_angle_gamma   55.67319299
_symmetry_Int_Tables_number   1
_chemical_formula_structural   NiBi
_chemical_formula_sum   'Ni576 Bi576'
_cell_volume   57044.91263677
_cell_formula_units_Z   576
loop_
 _symmetry_equiv_pos_site_id
 _symmetry_equiv_pos_as_xyz
  1  'x, y, z'
loop_
 _atom_site_type_symbol
 _atom_site_label
 _atom_site_symmetry_multiplicity
 _atom_site_fract_x
 _atom_site_fract_y
 _atom_site_fract_z
 _atom_site_occupancy
  Ni  Ni0  1  0.24950772  0.12475386  0.02215501  1.0
  Ni  Ni1  1  0.24950772  0.45808719  0.02215501  1.0
  Ni  Ni2  1  0.24950772  0.79142053  0.02215501  1.0
  Ni  Ni3  1  0.58284105  0.12475386  0.02215501  1.0
  Ni  Ni4  1  0.58284105  0.45808719  0.02215501  1.0
  Ni  Ni5  1  0.58284105  0.79142053  0.02215501  1.0
  Ni  Ni6  1  0.91617439  0.12475386  0.02215501  1.0
  Ni  Ni7  1  0.91617439  0.45808719  0.02215501  1.0
  Ni  Ni8  1  0.91617439  0.79142053  0.02215501  1.0
  Ni  Ni9  1  0.24950772  0.29142053  0.12215501  1.0
  Ni  Ni10  1  0.24950772  0.62475386  0.12215501  1.0
  Ni  Ni11  1  0.24950772  0.95808719  0.12215501  1.0
  Ni  Ni12  1  0.58284105  0.29142053  0.12215501  1.0
  Ni  Ni13  1  0.58284105  0.62475386  0.12215501  1.0
  Ni  Ni14  1  0.58284105  0.95808719  0.12215501  1.0
  Ni  Ni15  1  0.91617439  0.29142053  0.12215501  1.0
  Ni  Ni16  1  0.91617439  0.62475386  0.12215501  1.0
  Ni  Ni17  1  0.91617439  0.95808719  0.12215501  1.0
  Ni  Ni18  1  0.08116888  0.04058444  0.07767893  1.0
  Ni  Ni19  1  0.08116888  0.37391777  0.07767893  1.0
  Ni  Ni20  1  0.08116888  0.70725110  0.07767893  1.0
  Ni  Ni21  1  0.41450221  0.04058444  0.07767893  1.0
  Ni  Ni22  1  0.41450221  0.37391777  0.07767893  1.0
  Ni  Ni23  1  0.41450221  0.70725110  0.07767893  1.0
  Ni  Ni24  1  0.74783554  0.04058444  0.07767893  1.0
  Ni  Ni25  1  0.74783554  0.37391777  0.07767893  1.0
  Ni  Ni26  1  0.74783554  0.70725110  0.07767893  1.0
  Ni  Ni27  1  0.08116888  0.20725110  0.17767893  1.0
  Ni  Ni28  1  0.08116888  0.54058444  0.17767893  1.0
  Ni  Ni29  1  0.08116888  0.87391777  0.17767893  1.0
  Ni  Ni30  1  0.41450221  0.20725110  0.17767893  1.0
  Ni  Ni31  1  0.41450221  0.54058444  0.17767893  1.0
  Ni  Ni32  1  0.41450221  0.87391777  0.17767893  1.0
  Ni  Ni33  1  0.74783554  0.20725110  0.17767893  1.0
  Ni  Ni34  1  0.74783554  0.54058444  0.17767893  1.0
  Ni  Ni35  1  0.74783554  0.87391777  0.17767893  1.0
  Ni  Ni36  1  0.03500141  0.01750071  0.01230789  1.0
  Ni  Ni37  1  0.03500141  0.35083404  0.01230789  1.0
  Ni  Ni38  1  0.03500141  0.68416737  0.01230789  1.0
  Ni  Ni39  1  0.36833475  0.01750071  0.01230789  1.0
  Ni  Ni40  1  0.36833475  0.35083404  0.01230789  1.0
  Ni  Ni41  1  0.36833475  0.68416737  0.01230789  1.0
  Ni  Ni42  1  0.70166808  0.01750071  0.01230789  1.0
  Ni  Ni43  1  0.70166808  0.35083404  0.01230789  1.0
  Ni  Ni44  1  0.70166808  0.68416737  0.01230789  1.0
  Ni  Ni45  1  0.03500141  0.18416737  0.11230789  1.0
  Ni  Ni46  1  0.03500141  0.51750071  0.11230789  1.0
  Ni  Ni47  1  0.03500141  0.85083404  0.11230789  1.0
  Ni  Ni48  1  0.36833475  0.18416737  0.11230789  1.0
  Ni  Ni49  1  0.36833475  0.51750071  0.11230789  1.0
  Ni  Ni50  1  0.36833475  0.85083404  0.11230789  1.0
  Ni  Ni51  1  0.70166808  0.18416737  0.11230789  1.0
  Ni  Ni52  1  0.70166808  0.51750071  0.11230789  1.0
  Ni  Ni53  1  0.70166808  0.85083404  0.11230789  1.0
  Ni  Ni54  1  0.29831341  0.14915671  0.08405516  1.0
  Ni  Ni55  1  0.29831341  0.48249004  0.08405516  1.0
  Ni  Ni56  1  0.29831341  0.81582337  0.08405516  1.0
  Ni  Ni57  1  0.63164674  0.14915671  0.08405516  1.0
  Ni  Ni58  1  0.63164674  0.48249004  0.08405516  1.0
  Ni  Ni59  1  0.63164674  0.81582337  0.08405516  1.0
  Ni  Ni60  1  0.96498008  0.14915671  0.08405516  1.0
  Ni  Ni61  1  0.96498008  0.48249004  0.08405516  1.0
  Ni  Ni62  1  0.96498008  0.81582337  0.08405516  1.0
  Ni  Ni63  1  0.29831341  0.31582337  0.18405516  1.0
  Ni  Ni64  1  0.29831341  0.64915671  0.18405516  1.0
  Ni  Ni65  1  0.29831341  0.98249004  0.18405516  1.0
  Ni  Ni66  1  0.63164674  0.31582337  0.18405516  1.0
  Ni  Ni67  1  0.63164674  0.64915671  0.18405516  1.0
  Ni  Ni68  1  0.63164674  0.98249004  0.18405516  1.0
  Ni  Ni69  1  0.96498008  0.31582337  0.18405516  1.0
  Ni  Ni70  1  0.96498008  0.64915671  0.18405516  1.0
  Ni  Ni71  1  0.96498008  0.98249004  0.18405516  1.0
  Ni  Ni72  1  0.29269306  0.14634653  0.16024684  1.0
  Ni  Ni73  1  0.29269306  0.47967986  0.16024684  1.0
  Ni  Ni74  1  0.29269306  0.81301320  0.16024684  1.0
  Ni  Ni75  1  0.62602640  0.14634653  0.16024684  1.0
  Ni  Ni76  1  0.62602640  0.47967986  0.16024684  1.0
  Ni  Ni77  1  0.62602640  0.81301320  0.16024684  1.0
  Ni  Ni78  1  0.95935973  0.14634653  0.16024684  1.0
  Ni  Ni79  1  0.95935973  0.47967986  0.16024684  1.0
  Ni  Ni80  1  0.95935973  0.81301320  0.16024684  1.0
  Ni  Ni81  1  0.29269306  0.31301320  0.06024684  1.0
  Ni  Ni82  1  0.29269306  0.64634653  0.06024684  1.0
  Ni  Ni83  1  0.29269306  0.97967987  0.06024684  1.0
  Ni  Ni84  1  0.62602640  0.31301320  0.06024684  1.0
  Ni  Ni85  1  0.62602640  0.64634653  0.06024684  1.0
  Ni  Ni86  1  0.62602640  0.97967987  0.06024684  1.0
  Ni  Ni87  1  0.95935973  0.31301320  0.06024684  1.0
  Ni  Ni88  1  0.95935973  0.64634653  0.06024684  1.0
  Ni  Ni89  1  0.95935973  0.97967987  0.06024684  1.0
  Ni  Ni90  1  0.03880820  0.01940410  0.13795102  1.0
  Ni  Ni91  1  0.03880820  0.35273743  0.13795102  1.0
  Ni  Ni92  1  0.03880820  0.68607077  0.13795102  1.0
  Ni  Ni93  1  0.37214154  0.01940410  0.13795102  1.0
  Ni  Ni94  1  0.37214154  0.35273743  0.13795102  1.0
  Ni  Ni95  1  0.37214154  0.68607077  0.13795102  1.0
  Ni  Ni96  1  0.70547487  0.01940410  0.13795102  1.0
  Ni  Ni97  1  0.70547487  0.35273743  0.13795102  1.0
  Ni  Ni98  1  0.70547487  0.68607077  0.13795102  1.0
  Ni  Ni99  1  0.03880820  0.18607077  0.03795102  1.0
  Ni  Ni100  1  0.03880820  0.51940410  0.03795102  1.0
  Ni  Ni101  1  0.03880820  0.85273743  0.03795102  1.0
  Ni  Ni102  1  0.37214154  0.18607077  0.03795102  1.0
  Ni  Ni103  1  0.37214154  0.51940410  0.03795102  1.0
  Ni  Ni104  1  0.37214154  0.85273743  0.03795102  1.0
  Ni  Ni105  1  0.70547487  0.18607077  0.03795102  1.0
  Ni  Ni106  1  0.70547487  0.51940410  0.03795102  1.0
  Ni  Ni107  1  0.70547487  0.85273743  0.03795102  1.0
  Ni  Ni108  1  0.24596454  0.04410328  0.07135754  1.0
  Ni  Ni109  1  0.24596454  0.37743661  0.07135754  1.0
  Ni  Ni110  1  0.24596454  0.71076995  0.07135753  1.0
  Ni  Ni111  1  0.57929788  0.04410328  0.07135754  1.0
  Ni  Ni112  1  0.57929788  0.37743661  0.07135753  1.0
  Ni  Ni113  1  0.57929788  0.71076995  0.07135753  1.0
  Ni  Ni114  1  0.91263121  0.04410328  0.07135754  1.0
  Ni  Ni115  1  0.91263121  0.37743661  0.07135753  1.0
  Ni  Ni116  1  0.91263121  0.71076995  0.07135753  1.0
  Ni  Ni117  1  0.24596454  0.21076995  0.17135753  1.0
  Ni  Ni118  1  0.24596454  0.54410328  0.17135753  1.0
  Ni  Ni119  1  0.24596454  0.87743661  0.17135754  1.0
  Ni  Ni120  1  0.57929788  0.21076995  0.17135753  1.0
  Ni  Ni121  1  0.57929788  0.54410328  0.17135753  1.0
  Ni  Ni122  1  0.57929788  0.87743661  0.17135753  1.0
  Ni  Ni123  1  0.91263121  0.21076995  0.17135753  1.0
  Ni  Ni124  1  0.91263121  0.54410328  0.17135753  1.0
  Ni  Ni125  1  0.91263121  0.87743661  0.17135753  1.0
  Ni  Ni126  1  0.08820656  0.12298227  0.02403014  1.0
  Ni  Ni127  1  0.08820656  0.45631561  0.02403014  1.0
  Ni  Ni128  1  0.08820656  0.78964894  0.02403014  1.0
  Ni  Ni129  1  0.42153989  0.12298227  0.02403014  1.0
  Ni  Ni130  1  0.42153989  0.45631561  0.02403014  1.0
  Ni  Ni131  1  0.42153989  0.78964894  0.02403014  1.0
  Ni  Ni132  1  0.75487322  0.12298227  0.02403014  1.0
  Ni  Ni133  1  0.75487322  0.45631561  0.02403014  1.0
  Ni  Ni134  1  0.75487322  0.78964894  0.02403014  1.0
  Ni  Ni135  1  0.08820656  0.28964894  0.12403014  1.0
  Ni  Ni136  1  0.08820656  0.62298227  0.12403014  1.0
  Ni  Ni137  1  0.08820656  0.95631561  0.12403014  1.0
  Ni  Ni138  1  0.42153989  0.28964894  0.12403014  1.0
  Ni  Ni139  1  0.42153989  0.62298227  0.12403014  1.0
  Ni  Ni140  1  0.42153989  0.95631561  0.12403014  1.0
  Ni  Ni141  1  0.75487322  0.28964894  0.12403014  1.0
  Ni  Ni142  1  0.75487322  0.62298227  0.12403014  1.0
  Ni  Ni143  1  0.75487322  0.95631561  0.12403014  1.0
  Ni  Ni144  1  0.33333208  0.16666604  0.09846434  1.0
  Ni  Ni145  1  0.33333208  0.49999937  0.09846434  1.0
  Ni  Ni146  1  0.33333208  0.83333271  0.09846434  1.0
  Ni  Ni147  1  0.66666541  0.16666604  0.09846434  1.0
  Ni  Ni148  1  0.66666541  0.49999937  0.09846434  1.0
  Ni  Ni149  1  0.66666541  0.83333271  0.09846434  1.0
  Ni  Ni150  1  0.99999875  0.16666604  0.09846434  1.0
  Ni  Ni151  1  0.99999875  0.49999937  0.09846434  1.0
  Ni  Ni152  1  0.99999875  0.83333271  0.09846434  1.0
  Ni  Ni153  1  0.33333208  0.33333271  0.19846434  1.0
  Ni  Ni154  1  0.33333208  0.66666604  0.19846434  1.0
  Ni  Ni155  1  0.33333208  0.99999937  0.19846434  1.0
  Ni  Ni156  1  0.66666541  0.33333271  0.19846434  1.0
  Ni  Ni157  1  0.66666541  0.66666604  0.19846434  1.0
  Ni  Ni158  1  0.66666541  0.99999937  0.19846434  1.0
  Ni  Ni159  1  0.99999875  0.33333271  0.19846434  1.0
  Ni  Ni160  1  0.99999875  0.66666604  0.19846434  1.0
  Ni  Ni161  1  0.99999875  0.99999937  0.19846434  1.0
  Ni  Ni162  1  0.29275642  0.06159551  0.01166564  1.0
  Ni  Ni163  1  0.29275642  0.39492884  0.01166564  1.0
  Ni  Ni164  1  0.29275642  0.72826217  0.01166564  1.0
  Ni  Ni165  1  0.62608975  0.06159551  0.01166564  1.0
  Ni  Ni166  1  0.62608975  0.39492884  0.01166564  1.0
  Ni  Ni167  1  0.62608975  0.72826217  0.01166564  1.0
  Ni  Ni168  1  0.95942309  0.06159551  0.01166564  1.0
  Ni  Ni169  1  0.95942309  0.39492884  0.01166564  1.0
  Ni  Ni170  1  0.95942309  0.72826217  0.01166564  1.0
  Ni  Ni171  1  0.29275642  0.22826217  0.11166564  1.0
  Ni  Ni172  1  0.29275642  0.56159550  0.11166564  1.0
  Ni  Ni173  1  0.29275642  0.89492884  0.11166564  1.0
  Ni  Ni174  1  0.62608975  0.22826217  0.11166564  1.0
  Ni  Ni175  1  0.62608975  0.56159550  0.11166564  1.0
  Ni  Ni176  1  0.62608975  0.89492884  0.11166564  1.0
  Ni  Ni177  1  0.95942309  0.22826217  0.11166564  1.0
  Ni  Ni178  1  0.95942309  0.56159550  0.11166564  1.0
  Ni  Ni179  1  0.95942309  0.89492884  0.11166564  1.0
  Ni  Ni180  1  0.21150766  0.01953222  0.13683179  1.0
  Ni  Ni181  1  0.21150766  0.35286555  0.13683179  1.0
  Ni  Ni182  1  0.21150766  0.68619889  0.13683179  1.0
  Ni  Ni183  1  0.54484100  0.01953222  0.13683179  1.0
  Ni  Ni184  1  0.54484100  0.35286555  0.13683179  1.0
  Ni  Ni185  1  0.54484100  0.68619889  0.13683179  1.0
  Ni  Ni186  1  0.87817433  0.01953222  0.13683179  1.0
  Ni  Ni187  1  0.87817433  0.35286555  0.13683179  1.0
  Ni  Ni188  1  0.87817433  0.68619889  0.13683179  1.0
  Ni  Ni189  1  0.21150766  0.18619889  0.03683179  1.0
  Ni  Ni190  1  0.21150766  0.51953222  0.03683179  1.0
  Ni  Ni191  1  0.21150766  0.85286555  0.03683179  1.0
  Ni  Ni192  1  0.54484100  0.18619889  0.03683179  1.0
  Ni  Ni193  1  0.54484100  0.51953222  0.03683179  1.0
  Ni  Ni194  1  0.54484100  0.85286555  0.03683179  1.0
  Ni  Ni195  1  0.87817433  0.18619889  0.03683179  1.0
  Ni  Ni196  1  0.87817433  0.51953222  0.03683179  1.0
  Ni  Ni197  1  0.87817433  0.85286555  0.03683179  1.0
  Ni  Ni198  1  0.12319101  0.14637821  0.16079602  1.0
  Ni  Ni199  1  0.12319101  0.47971154  0.16079602  1.0
  Ni  Ni200  1  0.12319101  0.81304488  0.16079602  1.0
  Ni  Ni201  1  0.45652434  0.14637821  0.16079602  1.0
  Ni  Ni202  1  0.45652434  0.47971154  0.16079602  1.0
  Ni  Ni203  1  0.45652434  0.81304488  0.16079602  1.0
  Ni  Ni204  1  0.78985768  0.14637821  0.16079602  1.0
  Ni  Ni205  1  0.78985768  0.47971154  0.16079602  1.0
  Ni  Ni206  1  0.78985768  0.81304488  0.16079602  1.0
  Ni  Ni207  1  0.12319101  0.31304488  0.06079602  1.0
  Ni  Ni208  1  0.12319101  0.64637821  0.06079602  1.0
  Ni  Ni209  1  0.12319101  0.97971154  0.06079602  1.0
  Ni  Ni210  1  0.45652434  0.31304488  0.06079602  1.0
  Ni  Ni211  1  0.45652434  0.64637821  0.06079602  1.0
  Ni  Ni212  1  0.45652434  0.97971154  0.06079602  1.0
  Ni  Ni213  1  0.78985768  0.31304488  0.06079602  1.0
  Ni  Ni214  1  0.78985768  0.64637821  0.06079602  1.0
  Ni  Ni215  1  0.78985768  0.97971154  0.06079602  1.0
  Ni  Ni216  1  0.03906444  0.10575383  0.08509883  1.0
  Ni  Ni217  1  0.03906444  0.43908717  0.08509883  1.0
  Ni  Ni218  1  0.03906444  0.77242050  0.08509883  1.0
  Ni  Ni219  1  0.37239777  0.10575383  0.08509883  1.0
  Ni  Ni220  1  0.37239777  0.43908717  0.08509883  1.0
  Ni  Ni221  1  0.37239777  0.77242050  0.08509883  1.0
  Ni  Ni222  1  0.70573111  0.10575383  0.08509883  1.0
  Ni  Ni223  1  0.70573111  0.43908717  0.08509883  1.0
  Ni  Ni224  1  0.70573111  0.77242050  0.08509883  1.0
  Ni  Ni225  1  0.03906444  0.27242050  0.18509883  1.0
  Ni  Ni226  1  0.03906444  0.60575383  0.18509883  1.0
  Ni  Ni227  1  0.03906444  0.93908717  0.18509883  1.0
  Ni  Ni228  1  0.37239777  0.27242050  0.18509883  1.0
  Ni  Ni229  1  0.37239777  0.60575383  0.18509883  1.0
  Ni  Ni230  1  0.37239777  0.93908717  0.18509883  1.0
  Ni  Ni231  1  0.70573111  0.27242050  0.18509883  1.0
  Ni  Ni232  1  0.70573111  0.60575383  0.18509883  1.0
  Ni  Ni233  1  0.70573111  0.93908717  0.18509883  1.0
  Ni  Ni234  1  0.00027065  0.08322327  0.14840324  1.0
  Ni  Ni235  1  0.00027065  0.41655660  0.14840324  1.0
  Ni  Ni236  1  0.00027065  0.74988993  0.14840324  1.0
  Ni  Ni237  1  0.33360398  0.08322327  0.14840324  1.0
  Ni  Ni238  1  0.33360398  0.41655660  0.14840324  1.0
  Ni  Ni239  1  0.33360398  0.74988993  0.14840324  1.0
  Ni  Ni240  1  0.66693732  0.08322327  0.14840324  1.0
  Ni  Ni241  1  0.66693732  0.41655660  0.14840324  1.0
  Ni  Ni242  1  0.66693732  0.74988993  0.14840324  1.0
  Ni  Ni243  1  0.00027065  0.24988993  0.04840324  1.0
  Ni  Ni244  1  0.00027065  0.58322327  0.04840324  1.0
  Ni  Ni245  1  0.00027065  0.91655660  0.04840324  1.0
  Ni  Ni246  1  0.33360398  0.24988993  0.04840324  1.0
  Ni  Ni247  1  0.33360398  0.58322327  0.04840324  1.0
  Ni  Ni248  1  0.33360398  0.91655660  0.04840324  1.0
  Ni  Ni249  1  0.66693732  0.24988993  0.04840324  1.0
  Ni  Ni250  1  0.66693732  0.58322327  0.04840324  1.0
  Ni  Ni251  1  0.66693732  0.91655660  0.04840324  1.0
  Ni  Ni252  1  0.16644653  0.00013533  0.19825600  1.0
  Ni  Ni253  1  0.16644653  0.33346866  0.19825600  1.0
  Ni  Ni254  1  0.16644653  0.66680199  0.19825600  1.0
  Ni  Ni255  1  0.49977987  0.00013533  0.19825600  1.0
  Ni  Ni256  1  0.49977987  0.33346866  0.19825600  1.0
  Ni  Ni257  1  0.49977987  0.66680199  0.19825600  1.0
  Ni  Ni258  1  0.83311320  0.00013533  0.19825600  1.0
  Ni  Ni259  1  0.83311320  0.33346866  0.19825600  1.0
  Ni  Ni260  1  0.83311320  0.66680199  0.19825600  1.0
  Ni  Ni261  1  0.16644653  0.16680199  0.09825600  1.0
  Ni  Ni262  1  0.16644653  0.50013533  0.09825600  1.0
  Ni  Ni263  1  0.16644653  0.83346866  0.09825600  1.0
  Ni  Ni264  1  0.49977987  0.16680199  0.09825600  1.0
  Ni  Ni265  1  0.49977987  0.50013533  0.09825600  1.0
  Ni  Ni266  1  0.49977987  0.83346866  0.09825600  1.0
  Ni  Ni267  1  0.83311320  0.16680199  0.09825600  1.0
  Ni  Ni268  1  0.83311320  0.50013533  0.09825600  1.0
  Ni  Ni269  1  0.83311320  0.83346866  0.09825600  1.0
  Ni  Ni270  1  0.21502510  0.10751255  0.00952459  1.0
  Ni  Ni271  1  0.21502510  0.44084588  0.00952459  1.0
  Ni  Ni272  1  0.21502510  0.77417922  0.00952459  1.0
  Ni  Ni273  1  0.54835843  0.10751255  0.00952459  1.0
  Ni  Ni274  1  0.54835843  0.44084588  0.00952459  1.0
  Ni  Ni275  1  0.54835843  0.77417922  0.00952459  1.0
  Ni  Ni276  1  0.88169177  0.10751255  0.00952459  1.0
  Ni  Ni277  1  0.88169177  0.44084588  0.00952459  1.0
  Ni  Ni278  1  0.88169177  0.77417922  0.00952459  1.0
  Ni  Ni279  1  0.21502510  0.27417922  0.10952459  1.0
  Ni  Ni280  1  0.21502510  0.60751255  0.10952459  1.0
  Ni  Ni281  1  0.21502510  0.94084588  0.10952459  1.0
  Ni  Ni282  1  0.54835843  0.27417922  0.10952459  1.0
  Ni  Ni283  1  0.54835843  0.60751255  0.10952459  1.0
  Ni  Ni284  1  0.54835843  0.94084588  0.10952459  1.0
  Ni  Ni285  1  0.88169177  0.27417922  0.10952459  1.0
  Ni  Ni286  1  0.88169177  0.60751255  0.10952459  1.0
  Ni  Ni287  1  0.88169177  0.94084588  0.10952459  1.0
  Bi  Bi288  1  0.15535025  0.07767512  0.02607465  1.0
  Bi  Bi289  1  0.15535025  0.41100846  0.02607465  1.0
  Bi  Bi290  1  0.15535025  0.74434179  0.02607465  1.0
  Bi  Bi291  1  0.48868358  0.07767512  0.02607465  1.0
  Bi  Bi292  1  0.48868358  0.41100846  0.02607465  1.0
  Bi  Bi293  1  0.48868358  0.74434179  0.02607465  1.0
  Bi  Bi294  1  0.82201692  0.07767512  0.02607465  1.0
  Bi  Bi295  1  0.82201692  0.41100846  0.02607465  1.0
  Bi  Bi296  1  0.82201692  0.74434179  0.02607465  1.0
  Bi  Bi297  1  0.15535025  0.24434179  0.12607465  1.0
  Bi  Bi298  1  0.15535025  0.57767512  0.12607465  1.0
  Bi  Bi299  1  0.15535025  0.91100846  0.12607465  1.0
  Bi  Bi300  1  0.48868358  0.24434179  0.12607465  1.0
  Bi  Bi301  1  0.48868358  0.57767512  0.12607465  1.0
  Bi  Bi302  1  0.48868358  0.91100846  0.12607465  1.0
  Bi  Bi303  1  0.82201692  0.24434179  0.12607465  1.0
  Bi  Bi304  1  0.82201692  0.57767512  0.12607465  1.0
  Bi  Bi305  1  0.82201692  0.91100846  0.12607465  1.0
  Bi  Bi306  1  0.17365249  0.08682624  0.07227878  1.0
  Bi  Bi307  1  0.17365249  0.42015958  0.07227878  1.0
  Bi  Bi308  1  0.17365249  0.75349291  0.07227878  1.0
  Bi  Bi309  1  0.50698582  0.08682624  0.07227878  1.0
  Bi  Bi310  1  0.50698582  0.42015958  0.07227878  1.0
  Bi  Bi311  1  0.50698582  0.75349291  0.07227878  1.0
  Bi  Bi312  1  0.84031915  0.08682624  0.07227878  1.0
  Bi  Bi313  1  0.84031915  0.42015958  0.07227878  1.0
  Bi  Bi314  1  0.84031915  0.75349291  0.07227878  1.0
  Bi  Bi315  1  0.17365249  0.25349291  0.17227878  1.0
  Bi  Bi316  1  0.17365249  0.58682624  0.17227878  1.0
  Bi  Bi317  1  0.17365249  0.92015958  0.17227878  1.0
  Bi  Bi318  1  0.50698582  0.25349291  0.17227878  1.0
  Bi  Bi319  1  0.50698582  0.58682624  0.17227878  1.0
  Bi  Bi320  1  0.50698582  0.92015958  0.17227878  1.0
  Bi  Bi321  1  0.84031915  0.25349291  0.17227878  1.0
  Bi  Bi322  1  0.84031915  0.58682624  0.17227878  1.0
  Bi  Bi323  1  0.84031915  0.92015958  0.17227878  1.0
  Bi  Bi324  1  0.32574213  0.16287106  0.17633525  1.0
  Bi  Bi325  1  0.32574213  0.49620440  0.17633525  1.0
  Bi  Bi326  1  0.32574213  0.82953773  0.17633525  1.0
  Bi  Bi327  1  0.65907546  0.16287106  0.17633525  1.0
  Bi  Bi328  1  0.65907546  0.49620440  0.17633525  1.0
  Bi  Bi329  1  0.65907546  0.82953773  0.17633525  1.0
  Bi  Bi330  1  0.99240879  0.16287106  0.17633525  1.0
  Bi  Bi331  1  0.99240879  0.49620440  0.17633525  1.0
  Bi  Bi332  1  0.99240879  0.82953773  0.17633525  1.0
  Bi  Bi333  1  0.32574213  0.32953773  0.07633525  1.0
  Bi  Bi334  1  0.32574213  0.66287106  0.07633525  1.0
  Bi  Bi335  1  0.32574213  0.99620440  0.07633525  1.0
  Bi  Bi336  1  0.65907546  0.32953773  0.07633525  1.0
  Bi  Bi337  1  0.65907546  0.66287106  0.07633525  1.0
  Bi  Bi338  1  0.65907546  0.99620440  0.07633525  1.0
  Bi  Bi339  1  0.99240879  0.32953773  0.07633525  1.0
  Bi  Bi340  1  0.99240879  0.66287106  0.07633525  1.0
  Bi  Bi341  1  0.99240879  0.99620440  0.07633525  1.0
  Bi  Bi342  1  0.00698962  0.00349481  0.12012444  1.0
  Bi  Bi343  1  0.00698962  0.33682814  0.12012444  1.0
  Bi  Bi344  1  0.00698962  0.67016148  0.12012444  1.0
  Bi  Bi345  1  0.34032296  0.00349481  0.12012444  1.0
  Bi  Bi346  1  0.34032296  0.33682814  0.12012444  1.0
  Bi  Bi347  1  0.34032296  0.67016148  0.12012444  1.0
  Bi  Bi348  1  0.67365629  0.00349481  0.12012444  1.0
  Bi  Bi349  1  0.67365629  0.33682814  0.12012444  1.0
  Bi  Bi350  1  0.67365629  0.67016148  0.12012444  1.0
  Bi  Bi351  1  0.00698962  0.17016148  0.02012444  1.0
  Bi  Bi352  1  0.00698962  0.50349481  0.02012444  1.0
  Bi  Bi353  1  0.00698962  0.83682814  0.02012444  1.0
  Bi  Bi354  1  0.34032296  0.17016148  0.02012444  1.0
  Bi  Bi355  1  0.34032296  0.50349481  0.02012444  1.0
  Bi  Bi356  1  0.34032296  0.83682814  0.02012444  1.0
  Bi  Bi357  1  0.67365629  0.17016148  0.02012444  1.0
  Bi  Bi358  1  0.67365629  0.50349481  0.02012444  1.0
  Bi  Bi359  1  0.67365629  0.83682814  0.02012444  1.0
  Bi  Bi360  1  0.25684864  0.12842432  0.14609316  1.0
  Bi  Bi361  1  0.25684864  0.46175765  0.14609316  1.0
  Bi  Bi362  1  0.25684864  0.79509099  0.14609316  1.0
  Bi  Bi363  1  0.59018197  0.12842432  0.14609316  1.0
  Bi  Bi364  1  0.59018197  0.46175765  0.14609316  1.0
  Bi  Bi365  1  0.59018197  0.79509099  0.14609316  1.0
  Bi  Bi366  1  0.92351531  0.12842432  0.14609316  1.0
  Bi  Bi367  1  0.92351531  0.46175765  0.14609316  1.0
  Bi  Bi368  1  0.92351531  0.79509099  0.14609316  1.0
  Bi  Bi369  1  0.25684864  0.29509099  0.04609316  1.0
  Bi  Bi370  1  0.25684864  0.62842432  0.04609316  1.0
  Bi  Bi371  1  0.25684864  0.96175765  0.04609316  1.0
  Bi  Bi372  1  0.59018197  0.29509099  0.04609316  1.0
  Bi  Bi373  1  0.59018197  0.62842432  0.04609316  1.0
  Bi  Bi374  1  0.59018197  0.96175765  0.04609316  1.0
  Bi  Bi375  1  0.92351531  0.29509099  0.04609316  1.0
  Bi  Bi376  1  0.92351531  0.62842432  0.04609316  1.0
  Bi  Bi377  1  0.92351531  0.96175765  0.04609316  1.0
  Bi  Bi378  1  0.07726900  0.03863450  0.14901190  1.0
  Bi  Bi379  1  0.07726900  0.37196783  0.14901190  1.0
  Bi  Bi380  1  0.07726900  0.70530117  0.14901190  1.0
  Bi  Bi381  1  0.41060233  0.03863450  0.14901190  1.0
  Bi  Bi382  1  0.41060233  0.37196783  0.14901190  1.0
  Bi  Bi383  1  0.41060233  0.70530117  0.14901190  1.0
  Bi  Bi384  1  0.74393567  0.03863450  0.14901190  1.0
  Bi  Bi385  1  0.74393567  0.37196783  0.14901190  1.0
  Bi  Bi386  1  0.74393567  0.70530117  0.14901190  1.0
  Bi  Bi387  1  0.07726900  0.20530117  0.04901190  1.0
  Bi  Bi388  1  0.07726900  0.53863450  0.04901190  1.0
  Bi  Bi389  1  0.07726900  0.87196783  0.04901190  1.0
  Bi  Bi390  1  0.41060233  0.20530117  0.04901190  1.0
  Bi  Bi391  1  0.41060233  0.53863450  0.04901190  1.0
  Bi  Bi392  1  0.41060233  0.87196783  0.04901190  1.0
  Bi  Bi393  1  0.74393567  0.20530117  0.04901190  1.0
  Bi  Bi394  1  0.74393567  0.53863450  0.04901190  1.0
  Bi  Bi395  1  0.74393567  0.87196783  0.04901190  1.0
  Bi  Bi396  1  0.24760383  0.04786749  0.19392195  1.0
  Bi  Bi397  1  0.24760383  0.38120083  0.19392195  1.0
  Bi  Bi398  1  0.24760383  0.71453416  0.19392195  1.0
  Bi  Bi399  1  0.58093716  0.04786749  0.19392195  1.0
  Bi  Bi400  1  0.58093716  0.38120083  0.19392195  1.0
  Bi  Bi401  1  0.58093716  0.71453416  0.19392195  1.0
  Bi  Bi402  1  0.91427049  0.04786749  0.19392195  1.0
  Bi  Bi403  1  0.91427049  0.38120083  0.19392195  1.0
  Bi  Bi404  1  0.91427049  0.71453416  0.19392195  1.0
  Bi  Bi405  1  0.24760383  0.21453416  0.09392195  1.0
  Bi  Bi406  1  0.24760383  0.54786749  0.09392195  1.0
  Bi  Bi407  1  0.24760383  0.88120082  0.09392195  1.0
  Bi  Bi408  1  0.58093716  0.21453416  0.09392195  1.0
  Bi  Bi409  1  0.58093716  0.54786749  0.09392195  1.0
  Bi  Bi410  1  0.58093716  0.88120082  0.09392195  1.0
  Bi  Bi411  1  0.91427049  0.21453416  0.09392195  1.0
  Bi  Bi412  1  0.91427049  0.54786749  0.09392195  1.0
  Bi  Bi413  1  0.91427049  0.88120082  0.09392195  1.0
  Bi  Bi414  1  0.23880783  0.04316888  0.14728934  1.0
  Bi  Bi415  1  0.23880783  0.37650221  0.14728934  1.0
  Bi  Bi416  1  0.23880783  0.70983555  0.14728934  1.0
  Bi  Bi417  1  0.57214117  0.04316888  0.14728934  1.0
  Bi  Bi418  1  0.57214117  0.37650221  0.14728934  1.0
  Bi  Bi419  1  0.57214117  0.70983555  0.14728934  1.0
  Bi  Bi420  1  0.90547450  0.04316888  0.14728934  1.0
  Bi  Bi421  1  0.90547450  0.37650221  0.14728934  1.0
  Bi  Bi422  1  0.90547450  0.70983555  0.14728934  1.0
  Bi  Bi423  1  0.23880783  0.20983555  0.04728934  1.0
  Bi  Bi424  1  0.23880783  0.54316888  0.04728934  1.0
  Bi  Bi425  1  0.23880783  0.87650221  0.04728934  1.0
  Bi  Bi426  1  0.57214117  0.20983555  0.04728934  1.0
  Bi  Bi427  1  0.57214117  0.54316888  0.04728934  1.0
  Bi  Bi428  1  0.57214117  0.87650221  0.04728934  1.0
  Bi  Bi429  1  0.90547450  0.20983555  0.04728934  1.0
  Bi  Bi430  1  0.90547450  0.54316888  0.04728934  1.0
  Bi  Bi431  1  0.90547450  0.87650221  0.04728934  1.0
  Bi  Bi432  1  0.09573498  0.12380191  0.14836130  1.0
  Bi  Bi433  1  0.09573498  0.45713525  0.14836130  1.0
  Bi  Bi434  1  0.09573498  0.79046858  0.14836130  1.0
  Bi  Bi435  1  0.42906832  0.12380191  0.14836130  1.0
  Bi  Bi436  1  0.42906832  0.45713525  0.14836130  1.0
  Bi  Bi437  1  0.42906832  0.79046858  0.14836130  1.0
  Bi  Bi438  1  0.76240165  0.12380191  0.14836130  1.0
  Bi  Bi439  1  0.76240165  0.45713525  0.14836130  1.0
  Bi  Bi440  1  0.76240165  0.79046858  0.14836130  1.0
  Bi  Bi441  1  0.09573498  0.29046858  0.04836130  1.0
  Bi  Bi442  1  0.09573498  0.62380191  0.04836130  1.0
  Bi  Bi443  1  0.09573498  0.95713525  0.04836130  1.0
  Bi  Bi444  1  0.42906832  0.29046858  0.04836130  1.0
  Bi  Bi445  1  0.42906832  0.62380191  0.04836130  1.0
  Bi  Bi446  1  0.42906832  0.95713525  0.04836130  1.0
  Bi  Bi447  1  0.76240165  0.29046858  0.04836130  1.0
  Bi  Bi448  1  0.76240165  0.62380191  0.04836130  1.0
  Bi  Bi449  1  0.76240165  0.95713525  0.04836130  1.0
  Bi  Bi450  1  0.08633776  0.11940392  0.10154831  1.0
  Bi  Bi451  1  0.08633776  0.45273725  0.10154831  1.0
  Bi  Bi452  1  0.08633776  0.78607058  0.10154831  1.0
  Bi  Bi453  1  0.41967109  0.11940392  0.10154831  1.0
  Bi  Bi454  1  0.41967109  0.45273725  0.10154831  1.0
  Bi  Bi455  1  0.41967109  0.78607058  0.10154831  1.0
  Bi  Bi456  1  0.75300443  0.11940392  0.10154831  1.0
  Bi  Bi457  1  0.75300443  0.45273725  0.10154831  1.0
  Bi  Bi458  1  0.75300443  0.78607058  0.10154831  1.0
  Bi  Bi459  1  0.08633776  0.28607058  0.00154831  1.0
  Bi  Bi460  1  0.08633776  0.61940392  0.00154831  1.0
  Bi  Bi461  1  0.08633776  0.95273725  0.00154831  1.0
  Bi  Bi462  1  0.41967109  0.28607058  0.00154831  1.0
  Bi  Bi463  1  0.41967109  0.61940392  0.00154831  1.0
  Bi  Bi464  1  0.41967109  0.95273725  0.00154831  1.0
  Bi  Bi465  1  0.75300443  0.28607058  0.00154831  1.0
  Bi  Bi466  1  0.75300443  0.61940392  0.00154831  1.0
  Bi  Bi467  1  0.75300443  0.95273725  0.00154831  1.0
  Bi  Bi468  1  0.09568377  0.04784189  0.19409169  1.0
  Bi  Bi469  1  0.09568377  0.38117522  0.19409169  1.0
  Bi  Bi470  1  0.09568377  0.71450855  0.19409169  1.0
  Bi  Bi471  1  0.42901711  0.04784189  0.19409169  1.0
  Bi  Bi472  1  0.42901711  0.38117522  0.19409169  1.0
  Bi  Bi473  1  0.42901711  0.71450855  0.19409169  1.0
  Bi  Bi474  1  0.76235044  0.04784189  0.19409169  1.0
  Bi  Bi475  1  0.76235044  0.38117522  0.19409169  1.0
  Bi  Bi476  1  0.76235044  0.71450855  0.19409169  1.0
  Bi  Bi477  1  0.09568377  0.21450855  0.09409169  1.0
  Bi  Bi478  1  0.09568377  0.54784189  0.09409169  1.0
  Bi  Bi479  1  0.09568377  0.88117522  0.09409169  1.0
  Bi  Bi480  1  0.42901711  0.21450855  0.09409169  1.0
  Bi  Bi481  1  0.42901711  0.54784189  0.09409169  1.0
  Bi  Bi482  1  0.42901711  0.88117522  0.09409169  1.0
  Bi  Bi483  1  0.76235044  0.21450855  0.09409169  1.0
  Bi  Bi484  1  0.76235044  0.54784189  0.09409169  1.0
  Bi  Bi485  1  0.76235044  0.88117522  0.09409169  1.0
  Bi  Bi486  1  0.23791295  0.11895647  0.10174400  1.0
  Bi  Bi487  1  0.23791295  0.45228981  0.10174400  1.0
  Bi  Bi488  1  0.23791295  0.78562314  0.10174400  1.0
  Bi  Bi489  1  0.57124628  0.11895647  0.10174400  1.0
  Bi  Bi490  1  0.57124628  0.45228981  0.10174400  1.0
  Bi  Bi491  1  0.57124628  0.78562314  0.10174400  1.0
  Bi  Bi492  1  0.90457961  0.11895647  0.10174400  1.0
  Bi  Bi493  1  0.90457961  0.45228981  0.10174400  1.0
  Bi  Bi494  1  0.90457961  0.78562314  0.10174400  1.0
  Bi  Bi495  1  0.23791295  0.28562314  0.00174400  1.0
  Bi  Bi496  1  0.23791295  0.61895648  0.00174400  1.0
  Bi  Bi497  1  0.23791295  0.95228981  0.00174400  1.0
  Bi  Bi498  1  0.57124628  0.28562314  0.00174400  1.0
  Bi  Bi499  1  0.57124628  0.61895648  0.00174400  1.0
  Bi  Bi500  1  0.57124628  0.95228981  0.00174400  1.0
  Bi  Bi501  1  0.90457961  0.28562314  0.00174400  1.0
  Bi  Bi502  1  0.90457961  0.61895648  0.00174400  1.0
  Bi  Bi503  1  0.90457961  0.95228981  0.00174400  1.0
  Bi  Bi504  1  0.00412546  0.07795938  0.02537140  1.0
  Bi  Bi505  1  0.00412546  0.41129271  0.02537140  1.0
  Bi  Bi506  1  0.00412546  0.74462605  0.02537140  1.0
  Bi  Bi507  1  0.33745879  0.07795938  0.02537140  1.0
  Bi  Bi508  1  0.33745879  0.41129271  0.02537140  1.0
  Bi  Bi509  1  0.33745879  0.74462605  0.02537140  1.0
  Bi  Bi510  1  0.67079212  0.07795938  0.02537140  1.0
  Bi  Bi511  1  0.67079212  0.41129271  0.02537140  1.0
  Bi  Bi512  1  0.67079212  0.74462605  0.02537140  1.0
  Bi  Bi513  1  0.00412546  0.24462605  0.12537140  1.0
  Bi  Bi514  1  0.00412546  0.57795938  0.12537140  1.0
  Bi  Bi515  1  0.00412546  0.91129271  0.12537140  1.0
  Bi  Bi516  1  0.33745879  0.24462605  0.12537140  1.0
  Bi  Bi517  1  0.33745879  0.57795938  0.12537140  1.0
  Bi  Bi518  1  0.33745879  0.91129271  0.12537140  1.0
  Bi  Bi519  1  0.67079212  0.24462605  0.12537140  1.0
  Bi  Bi520  1  0.67079212  0.57795938  0.12537140  1.0
  Bi  Bi521  1  0.67079212  0.91129271  0.12537140  1.0
  Bi  Bi522  1  0.17588866  0.00205479  0.12234501  1.0
  Bi  Bi523  1  0.17588866  0.33538812  0.12234501  1.0
  Bi  Bi524  1  0.17588866  0.66872146  0.12234501  1.0
  Bi  Bi525  1  0.50922200  0.00205479  0.12234501  1.0
  Bi  Bi526  1  0.50922200  0.33538812  0.12234501  1.0
  Bi  Bi527  1  0.50922200  0.66872146  0.12234501  1.0
  Bi  Bi528  1  0.84255533  0.00205479  0.12234501  1.0
  Bi  Bi529  1  0.84255533  0.33538812  0.12234501  1.0
  Bi  Bi530  1  0.84255533  0.66872146  0.12234501  1.0
  Bi  Bi531  1  0.17588866  0.16872146  0.02234501  1.0
  Bi  Bi532  1  0.17588866  0.50205479  0.02234501  1.0
  Bi  Bi533  1  0.17588866  0.83538812  0.02234501  1.0
  Bi  Bi534  1  0.50922200  0.16872146  0.02234501  1.0
  Bi  Bi535  1  0.50922200  0.50205479  0.02234501  1.0
  Bi  Bi536  1  0.50922200  0.83538812  0.02234501  1.0
  Bi  Bi537  1  0.84255533  0.16872146  0.02234501  1.0
  Bi  Bi538  1  0.84255533  0.50205479  0.02234501  1.0
  Bi  Bi539  1  0.84255533  0.83538812  0.02234501  1.0
  Bi  Bi540  1  0.15591876  0.00206273  0.07090940  1.0
  Bi  Bi541  1  0.15591876  0.33539606  0.07090939  1.0
  Bi  Bi542  1  0.15591876  0.66872939  0.07090939  1.0
  Bi  Bi543  1  0.48925209  0.00206273  0.07090940  1.0
  Bi  Bi544  1  0.48925209  0.33539606  0.07090939  1.0
  Bi  Bi545  1  0.48925209  0.66872939  0.07090939  1.0
  Bi  Bi546  1  0.82258543  0.00206273  0.07090940  1.0
  Bi  Bi547  1  0.82258543  0.33539606  0.07090939  1.0
  Bi  Bi548  1  0.82258543  0.66872939  0.07090940  1.0
  Bi  Bi549  1  0.15591876  0.16872940  0.17090939  1.0
  Bi  Bi550  1  0.15591876  0.50206273  0.17090940  1.0
  Bi  Bi551  1  0.15591876  0.83539606  0.17090939  1.0
  Bi  Bi552  1  0.48925209  0.16872940  0.17090939  1.0
  Bi  Bi553  1  0.48925209  0.50206273  0.17090939  1.0
  Bi  Bi554  1  0.48925209  0.83539606  0.17090939  1.0
  Bi  Bi555  1  0.82258543  0.16872940  0.17090939  1.0
  Bi  Bi556  1  0.82258543  0.50206273  0.17090939  1.0
  Bi  Bi557  1  0.82258543  0.83539606  0.17090940  1.0
  Bi  Bi558  1  0.00410958  0.08794433  0.07081128  1.0
  Bi  Bi559  1  0.00410958  0.42127766  0.07081128  1.0
  Bi  Bi560  1  0.00410958  0.75461100  0.07081128  1.0
  Bi  Bi561  1  0.33744291  0.08794433  0.07081128  1.0
  Bi  Bi562  1  0.33744291  0.42127766  0.07081128  1.0
  Bi  Bi563  1  0.33744291  0.75461100  0.07081128  1.0
  Bi  Bi564  1  0.67077624  0.08794433  0.07081128  1.0
  Bi  Bi565  1  0.67077624  0.42127766  0.07081128  1.0
  Bi  Bi566  1  0.67077624  0.75461100  0.07081128  1.0
  Bi  Bi567  1  0.00410958  0.25461100  0.17081128  1.0
  Bi  Bi568  1  0.00410958  0.58794433  0.17081128  1.0
  Bi  Bi569  1  0.00410958  0.92127766  0.17081128  1.0
  Bi  Bi570  1  0.33744291  0.25461100  0.17081128  1.0
  Bi  Bi571  1  0.33744291  0.58794433  0.17081128  1.0
  Bi  Bi572  1  0.33744291  0.92127766  0.17081128  1.0
  Bi  Bi573  1  0.67077624  0.25461100  0.17081128  1.0
  Bi  Bi574  1  0.67077624  0.58794433  0.17081128  1.0
  Bi  Bi575  1  0.67077624  0.92127766  0.17081128  1.0
  Ni  Ni576  1  0.24950772  0.12475386  0.22215501  1.0
  Ni  Ni577  1  0.24950772  0.45808719  0.22215501  1.0
  Ni  Ni578  1  0.24950772  0.79142053  0.22215501  1.0
  Ni  Ni579  1  0.58284105  0.12475386  0.22215501  1.0
  Ni  Ni580  1  0.58284105  0.45808719  0.22215501  1.0
  Ni  Ni581  1  0.58284105  0.79142053  0.22215501  1.0
  Ni  Ni582  1  0.91617439  0.12475386  0.22215501  1.0
  Ni  Ni583  1  0.91617439  0.45808719  0.22215501  1.0
  Ni  Ni584  1  0.91617439  0.79142053  0.22215501  1.0
  Ni  Ni585  1  0.24950772  0.29142053  0.32215501  1.0
  Ni  Ni586  1  0.24950772  0.62475386  0.32215501  1.0
  Ni  Ni587  1  0.24950772  0.95808719  0.32215501  1.0
  Ni  Ni588  1  0.58284105  0.29142053  0.32215501  1.0
  Ni  Ni589  1  0.58284105  0.62475386  0.32215501  1.0
  Ni  Ni590  1  0.58284105  0.95808719  0.32215501  1.0
  Ni  Ni591  1  0.91617439  0.29142053  0.32215501  1.0
  Ni  Ni592  1  0.91617439  0.62475386  0.32215501  1.0
  Ni  Ni593  1  0.91617439  0.95808719  0.32215501  1.0
  Ni  Ni594  1  0.08116888  0.04058444  0.27767893  1.0
  Ni  Ni595  1  0.08116888  0.37391777  0.27767893  1.0
  Ni  Ni596  1  0.08116888  0.70725110  0.27767893  1.0
  Ni  Ni597  1  0.41450221  0.04058444  0.27767893  1.0
  Ni  Ni598  1  0.41450221  0.37391777  0.27767893  1.0
  Ni  Ni599  1  0.41450221  0.70725110  0.27767893  1.0
  Ni  Ni600  1  0.74783554  0.04058444  0.27767893  1.0
  Ni  Ni601  1  0.74783554  0.37391777  0.27767893  1.0
  Ni  Ni602  1  0.74783554  0.70725110  0.27767893  1.0
  Ni  Ni603  1  0.08116888  0.20725110  0.37767893  1.0
  Ni  Ni604  1  0.08116888  0.54058444  0.37767893  1.0
  Ni  Ni605  1  0.08116888  0.87391777  0.37767893  1.0
  Ni  Ni606  1  0.41450221  0.20725110  0.37767893  1.0
  Ni  Ni607  1  0.41450221  0.54058444  0.37767893  1.0
  Ni  Ni608  1  0.41450221  0.87391777  0.37767893  1.0
  Ni  Ni609  1  0.74783554  0.20725110  0.37767893  1.0
  Ni  Ni610  1  0.74783554  0.54058444  0.37767893  1.0
  Ni  Ni611  1  0.74783554  0.87391777  0.37767893  1.0
  Ni  Ni612  1  0.03500141  0.01750071  0.21230789  1.0
  Ni  Ni613  1  0.03500141  0.35083404  0.21230789  1.0
  Ni  Ni614  1  0.03500141  0.68416737  0.21230789  1.0
  Ni  Ni615  1  0.36833475  0.01750071  0.21230789  1.0
  Ni  Ni616  1  0.36833475  0.35083404  0.21230789  1.0
  Ni  Ni617  1  0.36833475  0.68416737  0.21230789  1.0
  Ni  Ni618  1  0.70166808  0.01750071  0.21230789  1.0
  Ni  Ni619  1  0.70166808  0.35083404  0.21230789  1.0
  Ni  Ni620  1  0.70166808  0.68416737  0.21230789  1.0
  Ni  Ni621  1  0.03500141  0.18416737  0.31230789  1.0
  Ni  Ni622  1  0.03500141  0.51750071  0.31230789  1.0
  Ni  Ni623  1  0.03500141  0.85083404  0.31230789  1.0
  Ni  Ni624  1  0.36833475  0.18416737  0.31230789  1.0
  Ni  Ni625  1  0.36833475  0.51750071  0.31230789  1.0
  Ni  Ni626  1  0.36833475  0.85083404  0.31230789  1.0
  Ni  Ni627  1  0.70166808  0.18416737  0.31230789  1.0
  Ni  Ni628  1  0.70166808  0.51750071  0.31230789  1.0
  Ni  Ni629  1  0.70166808  0.85083404  0.31230789  1.0
  Ni  Ni630  1  0.29831341  0.14915671  0.28405516  1.0
  Ni  Ni631  1  0.29831341  0.48249004  0.28405516  1.0
  Ni  Ni632  1  0.29831341  0.81582337  0.28405516  1.0
  Ni  Ni633  1  0.63164674  0.14915671  0.28405516  1.0
  Ni  Ni634  1  0.63164674  0.48249004  0.28405516  1.0
  Ni  Ni635  1  0.63164674  0.81582337  0.28405516  1.0
  Ni  Ni636  1  0.96498008  0.14915671  0.28405516  1.0
  Ni  Ni637  1  0.96498008  0.48249004  0.28405516  1.0
  Ni  Ni638  1  0.96498008  0.81582337  0.28405516  1.0
  Ni  Ni639  1  0.29831341  0.31582337  0.38405516  1.0
  Ni  Ni640  1  0.29831341  0.64915671  0.38405516  1.0
  Ni  Ni641  1  0.29831341  0.98249004  0.38405516  1.0
  Ni  Ni642  1  0.63164674  0.31582337  0.38405516  1.0
  Ni  Ni643  1  0.63164674  0.64915671  0.38405516  1.0
  Ni  Ni644  1  0.63164674  0.98249004  0.38405516  1.0
  Ni  Ni645  1  0.96498008  0.31582337  0.38405516  1.0
  Ni  Ni646  1  0.96498008  0.64915671  0.38405516  1.0
  Ni  Ni647  1  0.96498008  0.98249004  0.38405516  1.0
  Ni  Ni648  1  0.29269306  0.14634653  0.36024684  1.0
  Ni  Ni649  1  0.29269306  0.47967986  0.36024684  1.0
  Ni  Ni650  1  0.29269306  0.81301320  0.36024684  1.0
  Ni  Ni651  1  0.62602640  0.14634653  0.36024684  1.0
  Ni  Ni652  1  0.62602640  0.47967986  0.36024684  1.0
  Ni  Ni653  1  0.62602640  0.81301320  0.36024684  1.0
  Ni  Ni654  1  0.95935973  0.14634653  0.36024684  1.0
  Ni  Ni655  1  0.95935973  0.47967986  0.36024684  1.0
  Ni  Ni656  1  0.95935973  0.81301320  0.36024684  1.0
  Ni  Ni657  1  0.29269306  0.31301320  0.26024684  1.0
  Ni  Ni658  1  0.29269306  0.64634653  0.26024684  1.0
  Ni  Ni659  1  0.29269306  0.97967987  0.26024684  1.0
  Ni  Ni660  1  0.62602640  0.31301320  0.26024684  1.0
  Ni  Ni661  1  0.62602640  0.64634653  0.26024684  1.0
  Ni  Ni662  1  0.62602640  0.97967987  0.26024684  1.0
  Ni  Ni663  1  0.95935973  0.31301320  0.26024684  1.0
  Ni  Ni664  1  0.95935973  0.64634653  0.26024684  1.0
  Ni  Ni665  1  0.95935973  0.97967987  0.26024684  1.0
  Ni  Ni666  1  0.03880820  0.01940410  0.33795102  1.0
  Ni  Ni667  1  0.03880820  0.35273743  0.33795102  1.0
  Ni  Ni668  1  0.03880820  0.68607077  0.33795102  1.0
  Ni  Ni669  1  0.37214154  0.01940410  0.33795102  1.0
  Ni  Ni670  1  0.37214154  0.35273743  0.33795102  1.0
  Ni  Ni671  1  0.37214154  0.68607077  0.33795102  1.0
  Ni  Ni672  1  0.70547487  0.01940410  0.33795102  1.0
  Ni  Ni673  1  0.70547487  0.35273743  0.33795102  1.0
  Ni  Ni674  1  0.70547487  0.68607077  0.33795102  1.0
  Ni  Ni675  1  0.03880820  0.18607077  0.23795102  1.0
  Ni  Ni676  1  0.03880820  0.51940410  0.23795102  1.0
  Ni  Ni677  1  0.03880820  0.85273743  0.23795102  1.0
  Ni  Ni678  1  0.37214154  0.18607077  0.23795102  1.0
  Ni  Ni679  1  0.37214154  0.51940410  0.23795102  1.0
  Ni  Ni680  1  0.37214154  0.85273743  0.23795102  1.0
  Ni  Ni681  1  0.70547487  0.18607077  0.23795102  1.0
  Ni  Ni682  1  0.70547487  0.51940410  0.23795102  1.0
  Ni  Ni683  1  0.70547487  0.85273743  0.23795102  1.0
  Ni  Ni684  1  0.24596454  0.04410328  0.27135754  1.0
  Ni  Ni685  1  0.24596454  0.37743661  0.27135753  1.0
  Ni  Ni686  1  0.24596454  0.71076995  0.27135754  1.0
  Ni  Ni687  1  0.57929788  0.04410328  0.27135754  1.0
  Ni  Ni688  1  0.57929788  0.37743661  0.27135754  1.0
  Ni  Ni689  1  0.57929788  0.71076995  0.27135754  1.0
  Ni  Ni690  1  0.91263121  0.04410328  0.27135754  1.0
  Ni  Ni691  1  0.91263121  0.37743661  0.27135754  1.0
  Ni  Ni692  1  0.91263121  0.71076995  0.27135754  1.0
  Ni  Ni693  1  0.24596454  0.21076995  0.37135753  1.0
  Ni  Ni694  1  0.24596454  0.54410328  0.37135753  1.0
  Ni  Ni695  1  0.24596454  0.87743661  0.37135754  1.0
  Ni  Ni696  1  0.57929788  0.21076995  0.37135753  1.0
  Ni  Ni697  1  0.57929788  0.54410328  0.37135754  1.0
  Ni  Ni698  1  0.57929788  0.87743661  0.37135754  1.0
  Ni  Ni699  1  0.91263121  0.21076995  0.37135754  1.0
  Ni  Ni700  1  0.91263121  0.54410328  0.37135753  1.0
  Ni  Ni701  1  0.91263121  0.87743661  0.37135753  1.0
  Ni  Ni702  1  0.08820656  0.12298227  0.22403014  1.0
  Ni  Ni703  1  0.08820656  0.45631561  0.22403014  1.0
  Ni  Ni704  1  0.08820656  0.78964894  0.22403014  1.0
  Ni  Ni705  1  0.42153989  0.12298227  0.22403014  1.0
  Ni  Ni706  1  0.42153989  0.45631561  0.22403014  1.0
  Ni  Ni707  1  0.42153989  0.78964894  0.22403014  1.0
  Ni  Ni708  1  0.75487322  0.12298227  0.22403014  1.0
  Ni  Ni709  1  0.75487322  0.45631561  0.22403014  1.0
  Ni  Ni710  1  0.75487322  0.78964894  0.22403014  1.0
  Ni  Ni711  1  0.08820656  0.28964894  0.32403014  1.0
  Ni  Ni712  1  0.08820656  0.62298227  0.32403014  1.0
  Ni  Ni713  1  0.08820656  0.95631561  0.32403014  1.0
  Ni  Ni714  1  0.42153989  0.28964894  0.32403014  1.0
  Ni  Ni715  1  0.42153989  0.62298227  0.32403014  1.0
  Ni  Ni716  1  0.42153989  0.95631561  0.32403014  1.0
  Ni  Ni717  1  0.75487322  0.28964894  0.32403014  1.0
  Ni  Ni718  1  0.75487322  0.62298227  0.32403014  1.0
  Ni  Ni719  1  0.75487322  0.95631561  0.32403014  1.0
  Ni  Ni720  1  0.33333208  0.16666604  0.29846434  1.0
  Ni  Ni721  1  0.33333208  0.49999937  0.29846434  1.0
  Ni  Ni722  1  0.33333208  0.83333271  0.29846434  1.0
  Ni  Ni723  1  0.66666541  0.16666604  0.29846434  1.0
  Ni  Ni724  1  0.66666541  0.49999937  0.29846434  1.0
  Ni  Ni725  1  0.66666541  0.83333271  0.29846434  1.0
  Ni  Ni726  1  0.99999875  0.16666604  0.29846434  1.0
  Ni  Ni727  1  0.99999875  0.49999937  0.29846434  1.0
  Ni  Ni728  1  0.99999875  0.83333271  0.29846434  1.0
  Ni  Ni729  1  0.33333208  0.33333271  0.39846434  1.0
  Ni  Ni730  1  0.33333208  0.66666604  0.39846434  1.0
  Ni  Ni731  1  0.33333208  0.99999937  0.39846434  1.0
  Ni  Ni732  1  0.66666541  0.33333271  0.39846434  1.0
  Ni  Ni733  1  0.66666541  0.66666604  0.39846434  1.0
  Ni  Ni734  1  0.66666541  0.99999937  0.39846434  1.0
  Ni  Ni735  1  0.99999875  0.33333271  0.39846434  1.0
  Ni  Ni736  1  0.99999875  0.66666604  0.39846434  1.0
  Ni  Ni737  1  0.99999875  0.99999937  0.39846434  1.0
  Ni  Ni738  1  0.29275642  0.06159551  0.21166564  1.0
  Ni  Ni739  1  0.29275642  0.39492884  0.21166564  1.0
  Ni  Ni740  1  0.29275642  0.72826217  0.21166564  1.0
  Ni  Ni741  1  0.62608975  0.06159551  0.21166564  1.0
  Ni  Ni742  1  0.62608975  0.39492884  0.21166564  1.0
  Ni  Ni743  1  0.62608975  0.72826217  0.21166564  1.0
  Ni  Ni744  1  0.95942309  0.06159551  0.21166564  1.0
  Ni  Ni745  1  0.95942309  0.39492884  0.21166564  1.0
  Ni  Ni746  1  0.95942309  0.72826217  0.21166564  1.0
  Ni  Ni747  1  0.29275642  0.22826217  0.31166564  1.0
  Ni  Ni748  1  0.29275642  0.56159550  0.31166564  1.0
  Ni  Ni749  1  0.29275642  0.89492884  0.31166564  1.0
  Ni  Ni750  1  0.62608975  0.22826217  0.31166564  1.0
  Ni  Ni751  1  0.62608975  0.56159550  0.31166564  1.0
  Ni  Ni752  1  0.62608975  0.89492884  0.31166564  1.0
  Ni  Ni753  1  0.95942309  0.22826217  0.31166564  1.0
  Ni  Ni754  1  0.95942309  0.56159550  0.31166564  1.0
  Ni  Ni755  1  0.95942309  0.89492884  0.31166564  1.0
  Ni  Ni756  1  0.21150766  0.01953222  0.33683179  1.0
  Ni  Ni757  1  0.21150766  0.35286555  0.33683179  1.0
  Ni  Ni758  1  0.21150766  0.68619889  0.33683179  1.0
  Ni  Ni759  1  0.54484100  0.01953222  0.33683179  1.0
  Ni  Ni760  1  0.54484100  0.35286555  0.33683179  1.0
  Ni  Ni761  1  0.54484100  0.68619889  0.33683179  1.0
  Ni  Ni762  1  0.87817433  0.01953222  0.33683179  1.0
  Ni  Ni763  1  0.87817433  0.35286555  0.33683179  1.0
  Ni  Ni764  1  0.87817433  0.68619889  0.33683179  1.0
  Ni  Ni765  1  0.21150766  0.18619889  0.23683179  1.0
  Ni  Ni766  1  0.21150766  0.51953222  0.23683179  1.0
  Ni  Ni767  1  0.21150766  0.85286555  0.23683179  1.0
  Ni  Ni768  1  0.54484100  0.18619889  0.23683179  1.0
  Ni  Ni769  1  0.54484100  0.51953222  0.23683179  1.0
  Ni  Ni770  1  0.54484100  0.85286555  0.23683179  1.0
  Ni  Ni771  1  0.87817433  0.18619889  0.23683179  1.0
  Ni  Ni772  1  0.87817433  0.51953222  0.23683179  1.0
  Ni  Ni773  1  0.87817433  0.85286555  0.23683179  1.0
  Ni  Ni774  1  0.12319101  0.14637821  0.36079602  1.0
  Ni  Ni775  1  0.12319101  0.47971154  0.36079602  1.0
  Ni  Ni776  1  0.12319101  0.81304488  0.36079602  1.0
  Ni  Ni777  1  0.45652434  0.14637821  0.36079602  1.0
  Ni  Ni778  1  0.45652434  0.47971154  0.36079602  1.0
  Ni  Ni779  1  0.45652434  0.81304488  0.36079602  1.0
  Ni  Ni780  1  0.78985768  0.14637821  0.36079602  1.0
  Ni  Ni781  1  0.78985768  0.47971154  0.36079602  1.0
  Ni  Ni782  1  0.78985768  0.81304488  0.36079602  1.0
  Ni  Ni783  1  0.12319101  0.31304488  0.26079602  1.0
  Ni  Ni784  1  0.12319101  0.64637821  0.26079602  1.0
  Ni  Ni785  1  0.12319101  0.97971154  0.26079602  1.0
  Ni  Ni786  1  0.45652434  0.31304488  0.26079602  1.0
  Ni  Ni787  1  0.45652434  0.64637821  0.26079602  1.0
  Ni  Ni788  1  0.45652434  0.97971154  0.26079602  1.0
  Ni  Ni789  1  0.78985768  0.31304488  0.26079602  1.0
  Ni  Ni790  1  0.78985768  0.64637821  0.26079602  1.0
  Ni  Ni791  1  0.78985768  0.97971154  0.26079602  1.0
  Ni  Ni792  1  0.03906444  0.10575383  0.28509883  1.0
  Ni  Ni793  1  0.03906444  0.43908717  0.28509883  1.0
  Ni  Ni794  1  0.03906444  0.77242050  0.28509883  1.0
  Ni  Ni795  1  0.37239777  0.10575383  0.28509883  1.0
  Ni  Ni796  1  0.37239777  0.43908717  0.28509883  1.0
  Ni  Ni797  1  0.37239777  0.77242050  0.28509883  1.0
  Ni  Ni798  1  0.70573111  0.10575383  0.28509883  1.0
  Ni  Ni799  1  0.70573111  0.43908717  0.28509883  1.0
  Ni  Ni800  1  0.70573111  0.77242050  0.28509883  1.0
  Ni  Ni801  1  0.03906444  0.27242050  0.38509883  1.0
  Ni  Ni802  1  0.03906444  0.60575383  0.38509883  1.0
  Ni  Ni803  1  0.03906444  0.93908717  0.38509883  1.0
  Ni  Ni804  1  0.37239777  0.27242050  0.38509883  1.0
  Ni  Ni805  1  0.37239777  0.60575383  0.38509883  1.0
  Ni  Ni806  1  0.37239777  0.93908717  0.38509883  1.0
  Ni  Ni807  1  0.70573111  0.27242050  0.38509883  1.0
  Ni  Ni808  1  0.70573111  0.60575383  0.38509883  1.0
  Ni  Ni809  1  0.70573111  0.93908717  0.38509883  1.0
  Ni  Ni810  1  0.00027065  0.08322327  0.34840324  1.0
  Ni  Ni811  1  0.00027065  0.41655660  0.34840324  1.0
  Ni  Ni812  1  0.00027065  0.74988993  0.34840324  1.0
  Ni  Ni813  1  0.33360398  0.08322327  0.34840324  1.0
  Ni  Ni814  1  0.33360398  0.41655660  0.34840324  1.0
  Ni  Ni815  1  0.33360398  0.74988993  0.34840324  1.0
  Ni  Ni816  1  0.66693732  0.08322327  0.34840324  1.0
  Ni  Ni817  1  0.66693732  0.41655660  0.34840324  1.0
  Ni  Ni818  1  0.66693732  0.74988993  0.34840324  1.0
  Ni  Ni819  1  0.00027065  0.24988993  0.24840324  1.0
  Ni  Ni820  1  0.00027065  0.58322327  0.24840324  1.0
  Ni  Ni821  1  0.00027065  0.91655660  0.24840324  1.0
  Ni  Ni822  1  0.33360398  0.24988993  0.24840324  1.0
  Ni  Ni823  1  0.33360398  0.58322327  0.24840324  1.0
  Ni  Ni824  1  0.33360398  0.91655660  0.24840324  1.0
  Ni  Ni825  1  0.66693732  0.24988993  0.24840324  1.0
  Ni  Ni826  1  0.66693732  0.58322327  0.24840324  1.0
  Ni  Ni827  1  0.66693732  0.91655660  0.24840324  1.0
  Ni  Ni828  1  0.16644653  0.00013533  0.39825600  1.0
  Ni  Ni829  1  0.16644653  0.33346866  0.39825600  1.0
  Ni  Ni830  1  0.16644653  0.66680199  0.39825600  1.0
  Ni  Ni831  1  0.49977987  0.00013533  0.39825600  1.0
  Ni  Ni832  1  0.49977987  0.33346866  0.39825600  1.0
  Ni  Ni833  1  0.49977987  0.66680199  0.39825600  1.0
  Ni  Ni834  1  0.83311320  0.00013533  0.39825600  1.0
  Ni  Ni835  1  0.83311320  0.33346866  0.39825600  1.0
  Ni  Ni836  1  0.83311320  0.66680199  0.39825600  1.0
  Ni  Ni837  1  0.16644653  0.16680199  0.29825600  1.0
  Ni  Ni838  1  0.16644653  0.50013533  0.29825600  1.0
  Ni  Ni839  1  0.16644653  0.83346866  0.29825600  1.0
  Ni  Ni840  1  0.49977987  0.16680199  0.29825600  1.0
  Ni  Ni841  1  0.49977987  0.50013533  0.29825600  1.0
  Ni  Ni842  1  0.49977987  0.83346866  0.29825600  1.0
  Ni  Ni843  1  0.83311320  0.16680199  0.29825600  1.0
  Ni  Ni844  1  0.83311320  0.50013533  0.29825600  1.0
  Ni  Ni845  1  0.83311320  0.83346866  0.29825600  1.0
  Ni  Ni846  1  0.21502510  0.10751255  0.20952459  1.0
  Ni  Ni847  1  0.21502510  0.44084588  0.20952459  1.0
  Ni  Ni848  1  0.21502510  0.77417922  0.20952459  1.0
  Ni  Ni849  1  0.54835843  0.10751255  0.20952459  1.0
  Ni  Ni850  1  0.54835843  0.44084588  0.20952459  1.0
  Ni  Ni851  1  0.54835843  0.77417922  0.20952459  1.0
  Ni  Ni852  1  0.88169177  0.10751255  0.20952459  1.0
  Ni  Ni853  1  0.88169177  0.44084588  0.20952459  1.0
  Ni  Ni854  1  0.88169177  0.77417922  0.20952459  1.0
  Ni  Ni855  1  0.21502510  0.27417922  0.30952459  1.0
  Ni  Ni856  1  0.21502510  0.60751255  0.30952459  1.0
  Ni  Ni857  1  0.21502510  0.94084588  0.30952459  1.0
  Ni  Ni858  1  0.54835843  0.27417922  0.30952459  1.0
  Ni  Ni859  1  0.54835843  0.60751255  0.30952459  1.0
  Ni  Ni860  1  0.54835843  0.94084588  0.30952459  1.0
  Ni  Ni861  1  0.88169177  0.27417922  0.30952459  1.0
  Ni  Ni862  1  0.88169177  0.60751255  0.30952459  1.0
  Ni  Ni863  1  0.88169177  0.94084588  0.30952459  1.0
  Bi  Bi864  1  0.15535025  0.07767512  0.22607465  1.0
  Bi  Bi865  1  0.15535025  0.41100846  0.22607465  1.0
  Bi  Bi866  1  0.15535025  0.74434179  0.22607465  1.0
  Bi  Bi867  1  0.48868358  0.07767512  0.22607465  1.0
  Bi  Bi868  1  0.48868358  0.41100846  0.22607465  1.0
  Bi  Bi869  1  0.48868358  0.74434179  0.22607465  1.0
  Bi  Bi870  1  0.82201692  0.07767512  0.22607465  1.0
  Bi  Bi871  1  0.82201692  0.41100846  0.22607465  1.0
  Bi  Bi872  1  0.82201692  0.74434179  0.22607465  1.0
  Bi  Bi873  1  0.15535025  0.24434179  0.32607465  1.0
  Bi  Bi874  1  0.15535025  0.57767512  0.32607465  1.0
  Bi  Bi875  1  0.15535025  0.91100846  0.32607465  1.0
  Bi  Bi876  1  0.48868358  0.24434179  0.32607465  1.0
  Bi  Bi877  1  0.48868358  0.57767512  0.32607465  1.0
  Bi  Bi878  1  0.48868358  0.91100846  0.32607465  1.0
  Bi  Bi879  1  0.82201692  0.24434179  0.32607465  1.0
  Bi  Bi880  1  0.82201692  0.57767512  0.32607465  1.0
  Bi  Bi881  1  0.82201692  0.91100846  0.32607465  1.0
  Bi  Bi882  1  0.17365249  0.08682624  0.27227878  1.0
  Bi  Bi883  1  0.17365249  0.42015958  0.27227878  1.0
  Bi  Bi884  1  0.17365249  0.75349291  0.27227878  1.0
  Bi  Bi885  1  0.50698582  0.08682624  0.27227878  1.0
  Bi  Bi886  1  0.50698582  0.42015958  0.27227878  1.0
  Bi  Bi887  1  0.50698582  0.75349291  0.27227878  1.0
  Bi  Bi888  1  0.84031915  0.08682624  0.27227878  1.0
  Bi  Bi889  1  0.84031915  0.42015958  0.27227878  1.0
  Bi  Bi890  1  0.84031915  0.75349291  0.27227878  1.0
  Bi  Bi891  1  0.17365249  0.25349291  0.37227878  1.0
  Bi  Bi892  1  0.17365249  0.58682624  0.37227878  1.0
  Bi  Bi893  1  0.17365249  0.92015958  0.37227878  1.0
  Bi  Bi894  1  0.50698582  0.25349291  0.37227878  1.0
  Bi  Bi895  1  0.50698582  0.58682624  0.37227878  1.0
  Bi  Bi896  1  0.50698582  0.92015958  0.37227878  1.0
  Bi  Bi897  1  0.84031915  0.25349291  0.37227878  1.0
  Bi  Bi898  1  0.84031915  0.58682624  0.37227878  1.0
  Bi  Bi899  1  0.84031915  0.92015958  0.37227878  1.0
  Bi  Bi900  1  0.32574213  0.16287106  0.37633525  1.0
  Bi  Bi901  1  0.32574213  0.49620440  0.37633525  1.0
  Bi  Bi902  1  0.32574213  0.82953773  0.37633525  1.0
  Bi  Bi903  1  0.65907546  0.16287106  0.37633525  1.0
  Bi  Bi904  1  0.65907546  0.49620440  0.37633525  1.0
  Bi  Bi905  1  0.65907546  0.82953773  0.37633525  1.0
  Bi  Bi906  1  0.99240879  0.16287106  0.37633525  1.0
  Bi  Bi907  1  0.99240879  0.49620440  0.37633525  1.0
  Bi  Bi908  1  0.99240879  0.82953773  0.37633525  1.0
  Bi  Bi909  1  0.32574213  0.32953773  0.27633525  1.0
  Bi  Bi910  1  0.32574213  0.66287106  0.27633525  1.0
  Bi  Bi911  1  0.32574213  0.99620440  0.27633525  1.0
  Bi  Bi912  1  0.65907546  0.32953773  0.27633525  1.0
  Bi  Bi913  1  0.65907546  0.66287106  0.27633525  1.0
  Bi  Bi914  1  0.65907546  0.99620440  0.27633525  1.0
  Bi  Bi915  1  0.99240879  0.32953773  0.27633525  1.0
  Bi  Bi916  1  0.99240879  0.66287106  0.27633525  1.0
  Bi  Bi917  1  0.99240879  0.99620440  0.27633525  1.0
  Bi  Bi918  1  0.00698962  0.00349481  0.32012444  1.0
  Bi  Bi919  1  0.00698962  0.33682814  0.32012444  1.0
  Bi  Bi920  1  0.00698962  0.67016148  0.32012444  1.0
  Bi  Bi921  1  0.34032296  0.00349481  0.32012444  1.0
  Bi  Bi922  1  0.34032296  0.33682814  0.32012444  1.0
  Bi  Bi923  1  0.34032296  0.67016148  0.32012444  1.0
  Bi  Bi924  1  0.67365629  0.00349481  0.32012444  1.0
  Bi  Bi925  1  0.67365629  0.33682814  0.32012444  1.0
  Bi  Bi926  1  0.67365629  0.67016148  0.32012444  1.0
  Bi  Bi927  1  0.00698962  0.17016148  0.22012444  1.0
  Bi  Bi928  1  0.00698962  0.50349481  0.22012444  1.0
  Bi  Bi929  1  0.00698962  0.83682814  0.22012444  1.0
  Bi  Bi930  1  0.34032296  0.17016148  0.22012444  1.0
  Bi  Bi931  1  0.34032296  0.50349481  0.22012444  1.0
  Bi  Bi932  1  0.34032296  0.83682814  0.22012444  1.0
  Bi  Bi933  1  0.67365629  0.17016148  0.22012444  1.0
  Bi  Bi934  1  0.67365629  0.50349481  0.22012444  1.0
  Bi  Bi935  1  0.67365629  0.83682814  0.22012444  1.0
  Bi  Bi936  1  0.25684864  0.12842432  0.34609316  1.0
  Bi  Bi937  1  0.25684864  0.46175765  0.34609316  1.0
  Bi  Bi938  1  0.25684864  0.79509099  0.34609316  1.0
  Bi  Bi939  1  0.59018197  0.12842432  0.34609316  1.0
  Bi  Bi940  1  0.59018197  0.46175765  0.34609316  1.0
  Bi  Bi941  1  0.59018197  0.79509099  0.34609316  1.0
  Bi  Bi942  1  0.92351531  0.12842432  0.34609316  1.0
  Bi  Bi943  1  0.92351531  0.46175765  0.34609316  1.0
  Bi  Bi944  1  0.92351531  0.79509099  0.34609316  1.0
  Bi  Bi945  1  0.25684864  0.29509099  0.24609316  1.0
  Bi  Bi946  1  0.25684864  0.62842432  0.24609316  1.0
  Bi  Bi947  1  0.25684864  0.96175765  0.24609316  1.0
  Bi  Bi948  1  0.59018197  0.29509099  0.24609316  1.0
  Bi  Bi949  1  0.59018197  0.62842432  0.24609316  1.0
  Bi  Bi950  1  0.59018197  0.96175765  0.24609316  1.0
  Bi  Bi951  1  0.92351531  0.29509099  0.24609316  1.0
  Bi  Bi952  1  0.92351531  0.62842432  0.24609316  1.0
  Bi  Bi953  1  0.92351531  0.96175765  0.24609316  1.0
  Bi  Bi954  1  0.07726900  0.03863450  0.34901190  1.0
  Bi  Bi955  1  0.07726900  0.37196783  0.34901190  1.0
  Bi  Bi956  1  0.07726900  0.70530117  0.34901190  1.0
  Bi  Bi957  1  0.41060233  0.03863450  0.34901190  1.0
  Bi  Bi958  1  0.41060233  0.37196783  0.34901190  1.0
  Bi  Bi959  1  0.41060233  0.70530117  0.34901190  1.0
  Bi  Bi960  1  0.74393567  0.03863450  0.34901190  1.0
  Bi  Bi961  1  0.74393567  0.37196783  0.34901190  1.0
  Bi  Bi962  1  0.74393567  0.70530117  0.34901190  1.0
  Bi  Bi963  1  0.07726900  0.20530117  0.24901190  1.0
  Bi  Bi964  1  0.07726900  0.53863450  0.24901190  1.0
  Bi  Bi965  1  0.07726900  0.87196783  0.24901190  1.0
  Bi  Bi966  1  0.41060233  0.20530117  0.24901190  1.0
  Bi  Bi967  1  0.41060233  0.53863450  0.24901190  1.0
  Bi  Bi968  1  0.41060233  0.87196783  0.24901190  1.0
  Bi  Bi969  1  0.74393567  0.20530117  0.24901190  1.0
  Bi  Bi970  1  0.74393567  0.53863450  0.24901190  1.0
  Bi  Bi971  1  0.74393567  0.87196783  0.24901190  1.0
  Bi  Bi972  1  0.24760383  0.04786749  0.39392195  1.0
  Bi  Bi973  1  0.24760383  0.38120083  0.39392195  1.0
  Bi  Bi974  1  0.24760383  0.71453416  0.39392195  1.0
  Bi  Bi975  1  0.58093716  0.04786749  0.39392195  1.0
  Bi  Bi976  1  0.58093716  0.38120083  0.39392195  1.0
  Bi  Bi977  1  0.58093716  0.71453416  0.39392195  1.0
  Bi  Bi978  1  0.91427049  0.04786749  0.39392195  1.0
  Bi  Bi979  1  0.91427049  0.38120083  0.39392195  1.0
  Bi  Bi980  1  0.91427049  0.71453416  0.39392195  1.0
  Bi  Bi981  1  0.24760383  0.21453416  0.29392195  1.0
  Bi  Bi982  1  0.24760383  0.54786749  0.29392195  1.0
  Bi  Bi983  1  0.24760383  0.88120082  0.29392195  1.0
  Bi  Bi984  1  0.58093716  0.21453416  0.29392195  1.0
  Bi  Bi985  1  0.58093716  0.54786749  0.29392195  1.0
  Bi  Bi986  1  0.58093716  0.88120082  0.29392195  1.0
  Bi  Bi987  1  0.91427049  0.21453416  0.29392195  1.0
  Bi  Bi988  1  0.91427049  0.54786749  0.29392195  1.0
  Bi  Bi989  1  0.91427049  0.88120082  0.29392195  1.0
  Bi  Bi990  1  0.23880783  0.04316888  0.34728934  1.0
  Bi  Bi991  1  0.23880783  0.37650221  0.34728934  1.0
  Bi  Bi992  1  0.23880783  0.70983555  0.34728934  1.0
  Bi  Bi993  1  0.57214117  0.04316888  0.34728934  1.0
  Bi  Bi994  1  0.57214117  0.37650221  0.34728934  1.0
  Bi  Bi995  1  0.57214117  0.70983555  0.34728934  1.0
  Bi  Bi996  1  0.90547450  0.04316888  0.34728934  1.0
  Bi  Bi997  1  0.90547450  0.37650221  0.34728934  1.0
  Bi  Bi998  1  0.90547450  0.70983555  0.34728934  1.0
  Bi  Bi999  1  0.23880783  0.20983555  0.24728934  1.0
  Bi  Bi1000  1  0.23880783  0.54316888  0.24728934  1.0
  Bi  Bi1001  1  0.23880783  0.87650221  0.24728934  1.0
  Bi  Bi1002  1  0.57214117  0.20983555  0.24728934  1.0
  Bi  Bi1003  1  0.57214117  0.54316888  0.24728934  1.0
  Bi  Bi1004  1  0.57214117  0.87650221  0.24728934  1.0
  Bi  Bi1005  1  0.90547450  0.20983555  0.24728934  1.0
  Bi  Bi1006  1  0.90547450  0.54316888  0.24728934  1.0
  Bi  Bi1007  1  0.90547450  0.87650221  0.24728934  1.0
  Bi  Bi1008  1  0.09573498  0.12380191  0.34836130  1.0
  Bi  Bi1009  1  0.09573498  0.45713525  0.34836130  1.0
  Bi  Bi1010  1  0.09573498  0.79046858  0.34836130  1.0
  Bi  Bi1011  1  0.42906832  0.12380191  0.34836130  1.0
  Bi  Bi1012  1  0.42906832  0.45713525  0.34836130  1.0
  Bi  Bi1013  1  0.42906832  0.79046858  0.34836130  1.0
  Bi  Bi1014  1  0.76240165  0.12380191  0.34836130  1.0
  Bi  Bi1015  1  0.76240165  0.45713525  0.34836130  1.0
  Bi  Bi1016  1  0.76240165  0.79046858  0.34836130  1.0
  Bi  Bi1017  1  0.09573498  0.29046858  0.24836130  1.0
  Bi  Bi1018  1  0.09573498  0.62380191  0.24836130  1.0
  Bi  Bi1019  1  0.09573498  0.95713525  0.24836130  1.0
  Bi  Bi1020  1  0.42906832  0.29046858  0.24836130  1.0
  Bi  Bi1021  1  0.42906832  0.62380191  0.24836130  1.0
  Bi  Bi1022  1  0.42906832  0.95713525  0.24836130  1.0
  Bi  Bi1023  1  0.76240165  0.29046858  0.24836130  1.0
  Bi  Bi1024  1  0.76240165  0.62380191  0.24836130  1.0
  Bi  Bi1025  1  0.76240165  0.95713525  0.24836130  1.0
  Bi  Bi1026  1  0.08633776  0.11940392  0.30154831  1.0
  Bi  Bi1027  1  0.08633776  0.45273725  0.30154831  1.0
  Bi  Bi1028  1  0.08633776  0.78607058  0.30154831  1.0
  Bi  Bi1029  1  0.41967109  0.11940392  0.30154831  1.0
  Bi  Bi1030  1  0.41967109  0.45273725  0.30154831  1.0
  Bi  Bi1031  1  0.41967109  0.78607058  0.30154831  1.0
  Bi  Bi1032  1  0.75300443  0.11940392  0.30154831  1.0
  Bi  Bi1033  1  0.75300443  0.45273725  0.30154831  1.0
  Bi  Bi1034  1  0.75300443  0.78607058  0.30154831  1.0
  Bi  Bi1035  1  0.08633776  0.28607058  0.20154831  1.0
  Bi  Bi1036  1  0.08633776  0.61940392  0.20154831  1.0
  Bi  Bi1037  1  0.08633776  0.95273725  0.20154831  1.0
  Bi  Bi1038  1  0.41967109  0.28607058  0.20154831  1.0
  Bi  Bi1039  1  0.41967109  0.61940392  0.20154831  1.0
  Bi  Bi1040  1  0.41967109  0.95273725  0.20154831  1.0
  Bi  Bi1041  1  0.75300443  0.28607058  0.20154831  1.0
  Bi  Bi1042  1  0.75300443  0.61940392  0.20154831  1.0
  Bi  Bi1043  1  0.75300443  0.95273725  0.20154831  1.0
  Bi  Bi1044  1  0.09568377  0.04784189  0.39409169  1.0
  Bi  Bi1045  1  0.09568377  0.38117522  0.39409169  1.0
  Bi  Bi1046  1  0.09568377  0.71450855  0.39409169  1.0
  Bi  Bi1047  1  0.42901711  0.04784189  0.39409169  1.0
  Bi  Bi1048  1  0.42901711  0.38117522  0.39409169  1.0
  Bi  Bi1049  1  0.42901711  0.71450855  0.39409169  1.0
  Bi  Bi1050  1  0.76235044  0.04784189  0.39409169  1.0
  Bi  Bi1051  1  0.76235044  0.38117522  0.39409169  1.0
  Bi  Bi1052  1  0.76235044  0.71450855  0.39409169  1.0
  Bi  Bi1053  1  0.09568377  0.21450855  0.29409169  1.0
  Bi  Bi1054  1  0.09568377  0.54784189  0.29409169  1.0
  Bi  Bi1055  1  0.09568377  0.88117522  0.29409169  1.0
  Bi  Bi1056  1  0.42901711  0.21450855  0.29409169  1.0
  Bi  Bi1057  1  0.42901711  0.54784189  0.29409169  1.0
  Bi  Bi1058  1  0.42901711  0.88117522  0.29409169  1.0
  Bi  Bi1059  1  0.76235044  0.21450855  0.29409169  1.0
  Bi  Bi1060  1  0.76235044  0.54784189  0.29409169  1.0
  Bi  Bi1061  1  0.76235044  0.88117522  0.29409169  1.0
  Bi  Bi1062  1  0.23791295  0.11895647  0.30174400  1.0
  Bi  Bi1063  1  0.23791295  0.45228981  0.30174400  1.0
  Bi  Bi1064  1  0.23791295  0.78562314  0.30174400  1.0
  Bi  Bi1065  1  0.57124628  0.11895647  0.30174400  1.0
  Bi  Bi1066  1  0.57124628  0.45228981  0.30174400  1.0
  Bi  Bi1067  1  0.57124628  0.78562314  0.30174400  1.0
  Bi  Bi1068  1  0.90457961  0.11895647  0.30174400  1.0
  Bi  Bi1069  1  0.90457961  0.45228981  0.30174400  1.0
  Bi  Bi1070  1  0.90457961  0.78562314  0.30174400  1.0
  Bi  Bi1071  1  0.23791295  0.28562314  0.20174400  1.0
  Bi  Bi1072  1  0.23791295  0.61895648  0.20174400  1.0
  Bi  Bi1073  1  0.23791295  0.95228981  0.20174400  1.0
  Bi  Bi1074  1  0.57124628  0.28562314  0.20174400  1.0
  Bi  Bi1075  1  0.57124628  0.61895648  0.20174400  1.0
  Bi  Bi1076  1  0.57124628  0.95228981  0.20174400  1.0
  Bi  Bi1077  1  0.90457961  0.28562314  0.20174400  1.0
  Bi  Bi1078  1  0.90457961  0.61895648  0.20174400  1.0
  Bi  Bi1079  1  0.90457961  0.95228981  0.20174400  1.0
  Bi  Bi1080  1  0.00412546  0.07795938  0.22537140  1.0
  Bi  Bi1081  1  0.00412546  0.41129271  0.22537140  1.0
  Bi  Bi1082  1  0.00412546  0.74462605  0.22537140  1.0
  Bi  Bi1083  1  0.33745879  0.07795938  0.22537140  1.0
  Bi  Bi1084  1  0.33745879  0.41129271  0.22537140  1.0
  Bi  Bi1085  1  0.33745879  0.74462605  0.22537140  1.0
  Bi  Bi1086  1  0.67079212  0.07795938  0.22537140  1.0
  Bi  Bi1087  1  0.67079212  0.41129271  0.22537140  1.0
  Bi  Bi1088  1  0.67079212  0.74462605  0.22537140  1.0
  Bi  Bi1089  1  0.00412546  0.24462605  0.32537140  1.0
  Bi  Bi1090  1  0.00412546  0.57795938  0.32537140  1.0
  Bi  Bi1091  1  0.00412546  0.91129271  0.32537140  1.0
  Bi  Bi1092  1  0.33745879  0.24462605  0.32537140  1.0
  Bi  Bi1093  1  0.33745879  0.57795938  0.32537140  1.0
  Bi  Bi1094  1  0.33745879  0.91129271  0.32537140  1.0
  Bi  Bi1095  1  0.67079212  0.24462605  0.32537140  1.0
  Bi  Bi1096  1  0.67079212  0.57795938  0.32537140  1.0
  Bi  Bi1097  1  0.67079212  0.91129271  0.32537140  1.0
  Bi  Bi1098  1  0.17588866  0.00205479  0.32234501  1.0
  Bi  Bi1099  1  0.17588866  0.33538812  0.32234501  1.0
  Bi  Bi1100  1  0.17588866  0.66872146  0.32234501  1.0
  Bi  Bi1101  1  0.50922200  0.00205479  0.32234501  1.0
  Bi  Bi1102  1  0.50922200  0.33538812  0.32234501  1.0
  Bi  Bi1103  1  0.50922200  0.66872146  0.32234501  1.0
  Bi  Bi1104  1  0.84255533  0.00205479  0.32234501  1.0
  Bi  Bi1105  1  0.84255533  0.33538812  0.32234501  1.0
  Bi  Bi1106  1  0.84255533  0.66872146  0.32234501  1.0
  Bi  Bi1107  1  0.17588866  0.16872146  0.22234501  1.0
  Bi  Bi1108  1  0.17588866  0.50205479  0.22234501  1.0
  Bi  Bi1109  1  0.17588866  0.83538812  0.22234501  1.0
  Bi  Bi1110  1  0.50922200  0.16872146  0.22234501  1.0
  Bi  Bi1111  1  0.50922200  0.50205479  0.22234501  1.0
  Bi  Bi1112  1  0.50922200  0.83538812  0.22234501  1.0
  Bi  Bi1113  1  0.84255533  0.16872146  0.22234501  1.0
  Bi  Bi1114  1  0.84255533  0.50205479  0.22234501  1.0
  Bi  Bi1115  1  0.84255533  0.83538812  0.22234501  1.0
  Bi  Bi1116  1  0.15591876  0.00206273  0.27090940  1.0
  Bi  Bi1117  1  0.15591876  0.33539606  0.27090939  1.0
  Bi  Bi1118  1  0.15591876  0.66872939  0.27090939  1.0
  Bi  Bi1119  1  0.48925209  0.00206273  0.27090940  1.0
  Bi  Bi1120  1  0.48925209  0.33539606  0.27090939  1.0
  Bi  Bi1121  1  0.48925209  0.66872939  0.27090939  1.0
  Bi  Bi1122  1  0.82258543  0.00206273  0.27090939  1.0
  Bi  Bi1123  1  0.82258543  0.33539606  0.27090939  1.0
  Bi  Bi1124  1  0.82258543  0.66872939  0.27090939  1.0
  Bi  Bi1125  1  0.15591876  0.16872940  0.37090939  1.0
  Bi  Bi1126  1  0.15591876  0.50206273  0.37090939  1.0
  Bi  Bi1127  1  0.15591876  0.83539606  0.37090939  1.0
  Bi  Bi1128  1  0.48925209  0.16872940  0.37090939  1.0
  Bi  Bi1129  1  0.48925209  0.50206273  0.37090939  1.0
  Bi  Bi1130  1  0.48925209  0.83539606  0.37090939  1.0
  Bi  Bi1131  1  0.82258543  0.16872940  0.37090939  1.0
  Bi  Bi1132  1  0.82258543  0.50206273  0.37090939  1.0
  Bi  Bi1133  1  0.82258543  0.83539606  0.37090939  1.0
  Bi  Bi1134  1  0.00410958  0.08794433  0.27081128  1.0
  Bi  Bi1135  1  0.00410958  0.42127766  0.27081128  1.0
  Bi  Bi1136  1  0.00410958  0.75461100  0.27081128  1.0
  Bi  Bi1137  1  0.33744291  0.08794433  0.27081128  1.0
  Bi  Bi1138  1  0.33744291  0.42127766  0.27081128  1.0
  Bi  Bi1139  1  0.33744291  0.75461100  0.27081128  1.0
  Bi  Bi1140  1  0.67077624  0.08794433  0.27081128  1.0
  Bi  Bi1141  1  0.67077624  0.42127766  0.27081128  1.0
  Bi  Bi1142  1  0.67077624  0.75461100  0.27081128  1.0
  Bi  Bi1143  1  0.00410958  0.25461100  0.37081128  1.0
  Bi  Bi1144  1  0.00410958  0.58794433  0.37081128  1.0
  Bi  Bi1145  1  0.00410958  0.92127766  0.37081128  1.0
  Bi  Bi1146  1  0.33744291  0.25461100  0.37081128  1.0
  Bi  Bi1147  1  0.33744291  0.58794433  0.37081128  1.0
  Bi  Bi1148  1  0.33744291  0.92127766  0.37081128  1.0
  Bi  Bi1149  1  0.67077624  0.25461100  0.37081128  1.0
  Bi  Bi1150  1  0.67077624  0.58794433  0.37081128  1.0
  Bi  Bi1151  1  0.67077624  0.92127766  0.37081128  1.0
