# generated using pymatgen
data_NiBi
_symmetry_space_group_name_H-M   'P 1'
_cell_length_a   34.56178324
_cell_length_b   42.97544458
_cell_length_c   32.86536769
_cell_angle_alpha   84.16871594
_cell_angle_beta   80.23677880
_cell_angle_gamma   71.78509626
_symmetry_Int_Tables_number   1
_chemical_formula_structural   NiBi
_chemical_formula_sum   'Ni576 Bi576'
_cell_volume   45635.93010942
_cell_formula_units_Z   576
loop_
 _symmetry_equiv_pos_site_id
 _symmetry_equiv_pos_as_xyz
  1  'x, y, z'
loop_
 _atom_site_type_symbol
 _atom_site_label
 _atom_site_symmetry_multiplicity
 _atom_site_fract_x
 _atom_site_fract_y
 _atom_site_fract_z
 _atom_site_occupancy
  Bi  Bi0  1  0.11694516  0.19367575  0.02105927  1.0
  Bi  Bi1  1  0.11694516  0.52700908  0.02105927  1.0
  Bi  Bi2  1  0.11694516  0.86034242  0.02105927  1.0
  Bi  Bi3  1  0.45027849  0.19367575  0.02105927  1.0
  Bi  Bi4  1  0.45027849  0.52700908  0.02105927  1.0
  Bi  Bi5  1  0.45027849  0.86034242  0.02105927  1.0
  Bi  Bi6  1  0.78361182  0.19367575  0.02105927  1.0
  Bi  Bi7  1  0.78361182  0.52700908  0.02105927  1.0
  Bi  Bi8  1  0.78361182  0.86034242  0.02105927  1.0
  Bi  Bi9  1  0.07527849  0.02700908  0.14605927  1.0
  Bi  Bi10  1  0.07527849  0.36034242  0.14605927  1.0
  Bi  Bi11  1  0.07527849  0.69367575  0.14605927  1.0
  Bi  Bi12  1  0.40861182  0.02700908  0.14605927  1.0
  Bi  Bi13  1  0.40861182  0.36034242  0.14605927  1.0
  Bi  Bi14  1  0.40861182  0.69367575  0.14605927  1.0
  Bi  Bi15  1  0.74194516  0.02700908  0.14605927  1.0
  Bi  Bi16  1  0.74194516  0.36034242  0.14605927  1.0
  Bi  Bi17  1  0.74194516  0.69367575  0.14605927  1.0
  Bi  Bi18  1  0.13740291  0.14144563  0.21816001  1.0
  Bi  Bi19  1  0.13740291  0.47477897  0.21816001  1.0
  Bi  Bi20  1  0.13740291  0.80811230  0.21816001  1.0
  Bi  Bi21  1  0.47073624  0.14144563  0.21816001  1.0
  Bi  Bi22  1  0.47073624  0.47477897  0.21816001  1.0
  Bi  Bi23  1  0.47073624  0.80811230  0.21816001  1.0
  Bi  Bi24  1  0.80406958  0.14144563  0.21816001  1.0
  Bi  Bi25  1  0.80406958  0.47477897  0.21816001  1.0
  Bi  Bi26  1  0.80406958  0.80811230  0.21816001  1.0
  Bi  Bi27  1  0.17906958  0.30811230  0.09316001  1.0
  Bi  Bi28  1  0.17906958  0.64144563  0.09316001  1.0
  Bi  Bi29  1  0.17906958  0.97477897  0.09316001  1.0
  Bi  Bi30  1  0.51240291  0.30811230  0.09316001  1.0
  Bi  Bi31  1  0.51240291  0.64144563  0.09316001  1.0
  Bi  Bi32  1  0.51240291  0.97477897  0.09316001  1.0
  Bi  Bi33  1  0.84573624  0.30811230  0.09316001  1.0
  Bi  Bi34  1  0.84573624  0.64144563  0.09316001  1.0
  Bi  Bi35  1  0.84573624  0.97477897  0.09316001  1.0
  Bi  Bi36  1  0.10009284  0.10733134  0.07850706  1.0
  Bi  Bi37  1  0.10009284  0.44066468  0.07850706  1.0
  Bi  Bi38  1  0.10009284  0.77399801  0.07850706  1.0
  Bi  Bi39  1  0.43342617  0.10733134  0.07850706  1.0
  Bi  Bi40  1  0.43342617  0.44066468  0.07850706  1.0
  Bi  Bi41  1  0.43342617  0.77399801  0.07850706  1.0
  Bi  Bi42  1  0.76675950  0.10733134  0.07850706  1.0
  Bi  Bi43  1  0.76675950  0.44066468  0.07850706  1.0
  Bi  Bi44  1  0.76675950  0.77399801  0.07850706  1.0
  Bi  Bi45  1  0.05842617  0.27399801  0.20350706  1.0
  Bi  Bi46  1  0.05842617  0.60733134  0.20350706  1.0
  Bi  Bi47  1  0.05842617  0.94066467  0.20350706  1.0
  Bi  Bi48  1  0.39175950  0.27399801  0.20350706  1.0
  Bi  Bi49  1  0.39175950  0.60733134  0.20350706  1.0
  Bi  Bi50  1  0.39175950  0.94066467  0.20350706  1.0
  Bi  Bi51  1  0.72509284  0.27399801  0.20350706  1.0
  Bi  Bi52  1  0.72509284  0.60733134  0.20350706  1.0
  Bi  Bi53  1  0.72509284  0.94066467  0.20350706  1.0
  Bi  Bi54  1  0.15420042  0.22657140  0.15700148  1.0
  Bi  Bi55  1  0.15420042  0.55990473  0.15700148  1.0
  Bi  Bi56  1  0.15420042  0.89323807  0.15700148  1.0
  Bi  Bi57  1  0.48753375  0.22657140  0.15700148  1.0
  Bi  Bi58  1  0.48753375  0.55990473  0.15700148  1.0
  Bi  Bi59  1  0.48753375  0.89323807  0.15700148  1.0
  Bi  Bi60  1  0.82086708  0.22657140  0.15700148  1.0
  Bi  Bi61  1  0.82086708  0.55990473  0.15700148  1.0
  Bi  Bi62  1  0.82086708  0.89323807  0.15700148  1.0
  Bi  Bi63  1  0.19586708  0.05990473  0.03200148  1.0
  Bi  Bi64  1  0.19586708  0.39323807  0.03200148  1.0
  Bi  Bi65  1  0.19586708  0.72657140  0.03200148  1.0
  Bi  Bi66  1  0.52920042  0.05990473  0.03200148  1.0
  Bi  Bi67  1  0.52920042  0.39323807  0.03200148  1.0
  Bi  Bi68  1  0.52920042  0.72657140  0.03200148  1.0
  Bi  Bi69  1  0.86253375  0.05990473  0.03200148  1.0
  Bi  Bi70  1  0.86253375  0.39323807  0.03200148  1.0
  Bi  Bi71  1  0.86253375  0.72657140  0.03200148  1.0
  Bi  Bi72  1  0.31213460  0.18420320  0.18783107  1.0
  Bi  Bi73  1  0.31213460  0.51753653  0.18783107  1.0
  Bi  Bi74  1  0.31213460  0.85086987  0.18783107  1.0
  Bi  Bi75  1  0.64546793  0.18420320  0.18783107  1.0
  Bi  Bi76  1  0.64546793  0.51753653  0.18783107  1.0
  Bi  Bi77  1  0.64546793  0.85086987  0.18783107  1.0
  Bi  Bi78  1  0.97880127  0.18420320  0.18783107  1.0
  Bi  Bi79  1  0.97880127  0.51753653  0.18783107  1.0
  Bi  Bi80  1  0.97880127  0.85086987  0.18783107  1.0
  Bi  Bi81  1  0.02046793  0.01753654  0.06283107  1.0
  Bi  Bi82  1  0.02046793  0.35086987  0.06283107  1.0
  Bi  Bi83  1  0.02046793  0.68420320  0.06283107  1.0
  Bi  Bi84  1  0.35380127  0.01753654  0.06283107  1.0
  Bi  Bi85  1  0.35380127  0.35086987  0.06283107  1.0
  Bi  Bi86  1  0.35380127  0.68420320  0.06283107  1.0
  Bi  Bi87  1  0.68713460  0.01753654  0.06283107  1.0
  Bi  Bi88  1  0.68713460  0.35086987  0.06283107  1.0
  Bi  Bi89  1  0.68713460  0.68420320  0.06283107  1.0
  Bi  Bi90  1  0.27425132  0.14978898  0.04670514  1.0
  Bi  Bi91  1  0.27425132  0.48312232  0.04670514  1.0
  Bi  Bi92  1  0.27425132  0.81645565  0.04670514  1.0
  Bi  Bi93  1  0.60758465  0.14978898  0.04670514  1.0
  Bi  Bi94  1  0.60758465  0.48312232  0.04670514  1.0
  Bi  Bi95  1  0.60758465  0.81645565  0.04670514  1.0
  Bi  Bi96  1  0.94091799  0.14978898  0.04670514  1.0
  Bi  Bi97  1  0.94091799  0.48312232  0.04670514  1.0
  Bi  Bi98  1  0.94091799  0.81645565  0.04670514  1.0
  Bi  Bi99  1  0.23258465  0.31645565  0.17170514  1.0
  Bi  Bi100  1  0.23258465  0.64978898  0.17170514  1.0
  Bi  Bi101  1  0.23258465  0.98312232  0.17170514  1.0
  Bi  Bi102  1  0.56591799  0.31645565  0.17170514  1.0
  Bi  Bi103  1  0.56591799  0.64978898  0.17170514  1.0
  Bi  Bi104  1  0.56591799  0.98312232  0.17170514  1.0
  Bi  Bi105  1  0.89925132  0.31645565  0.17170514  1.0
  Bi  Bi106  1  0.89925132  0.64978898  0.17170514  1.0
  Bi  Bi107  1  0.89925132  0.98312232  0.17170514  1.0
  Bi  Bi108  1  0.01975314  0.18924669  0.06244893  1.0
  Bi  Bi109  1  0.01975314  0.52258003  0.06244893  1.0
  Bi  Bi110  1  0.01975314  0.85591336  0.06244893  1.0
  Bi  Bi111  1  0.35308647  0.18924669  0.06244893  1.0
  Bi  Bi112  1  0.35308647  0.52258003  0.06244893  1.0
  Bi  Bi113  1  0.35308647  0.85591336  0.06244893  1.0
  Bi  Bi114  1  0.68641981  0.18924669  0.06244893  1.0
  Bi  Bi115  1  0.68641981  0.52258003  0.06244893  1.0
  Bi  Bi116  1  0.68641981  0.85591336  0.06244893  1.0
  Bi  Bi117  1  0.31141981  0.02258003  0.18744893  1.0
  Bi  Bi118  1  0.31141981  0.35591336  0.18744893  1.0
  Bi  Bi119  1  0.31141981  0.68924669  0.18744893  1.0
  Bi  Bi120  1  0.64475314  0.02258003  0.18744893  1.0
  Bi  Bi121  1  0.64475314  0.35591336  0.18744893  1.0
  Bi  Bi122  1  0.64475314  0.68924669  0.18744893  1.0
  Bi  Bi123  1  0.97808647  0.02258003  0.18744893  1.0
  Bi  Bi124  1  0.97808647  0.35591336  0.18744893  1.0
  Bi  Bi125  1  0.97808647  0.68924669  0.18744893  1.0
  Bi  Bi126  1  0.21524891  0.06818784  0.22870271  1.0
  Bi  Bi127  1  0.21524891  0.40152118  0.22870271  1.0
  Bi  Bi128  1  0.21524891  0.73485451  0.22870271  1.0
  Bi  Bi129  1  0.54858224  0.06818784  0.22870271  1.0
  Bi  Bi130  1  0.54858224  0.40152118  0.22870271  1.0
  Bi  Bi131  1  0.54858224  0.73485451  0.22870271  1.0
  Bi  Bi132  1  0.88191558  0.06818784  0.22870271  1.0
  Bi  Bi133  1  0.88191558  0.40152118  0.22870271  1.0
  Bi  Bi134  1  0.88191558  0.73485451  0.22870271  1.0
  Bi  Bi135  1  0.25691558  0.23485451  0.10370271  1.0
  Bi  Bi136  1  0.25691558  0.56818784  0.10370271  1.0
  Bi  Bi137  1  0.25691558  0.90152118  0.10370271  1.0
  Bi  Bi138  1  0.59024891  0.23485451  0.10370271  1.0
  Bi  Bi139  1  0.59024891  0.56818784  0.10370271  1.0
  Bi  Bi140  1  0.59024891  0.90152118  0.10370271  1.0
  Bi  Bi141  1  0.92358224  0.23485451  0.10370271  1.0
  Bi  Bi142  1  0.92358224  0.56818784  0.10370271  1.0
  Bi  Bi143  1  0.92358224  0.90152118  0.10370271  1.0
  Bi  Bi144  1  0.03873674  0.26518112  0.00549812  1.0
  Bi  Bi145  1  0.03873674  0.59851445  0.00549812  1.0
  Bi  Bi146  1  0.03873674  0.93184778  0.00549812  1.0
  Bi  Bi147  1  0.37207008  0.26518112  0.00549812  1.0
  Bi  Bi148  1  0.37207008  0.59851445  0.00549812  1.0
  Bi  Bi149  1  0.37207008  0.93184778  0.00549812  1.0
  Bi  Bi150  1  0.70540341  0.26518112  0.00549812  1.0
  Bi  Bi151  1  0.70540341  0.59851445  0.00549812  1.0
  Bi  Bi152  1  0.70540341  0.93184778  0.00549812  1.0
  Bi  Bi153  1  0.33040341  0.09851445  0.13049812  1.0
  Bi  Bi154  1  0.33040341  0.43184778  0.13049812  1.0
  Bi  Bi155  1  0.33040341  0.76518112  0.13049812  1.0
  Bi  Bi156  1  0.66373674  0.09851445  0.13049812  1.0
  Bi  Bi157  1  0.66373674  0.43184778  0.13049812  1.0
  Bi  Bi158  1  0.66373674  0.76518112  0.13049812  1.0
  Bi  Bi159  1  0.99707008  0.09851445  0.13049812  1.0
  Bi  Bi160  1  0.99707008  0.43184778  0.13049812  1.0
  Bi  Bi161  1  0.99707008  0.76518112  0.13049812  1.0
  Bi  Bi162  1  0.23430767  0.14442288  0.17152643  1.0
  Bi  Bi163  1  0.23430767  0.47775621  0.17152643  1.0
  Bi  Bi164  1  0.23430767  0.81108955  0.17152643  1.0
  Bi  Bi165  1  0.56764100  0.14442288  0.17152643  1.0
  Bi  Bi166  1  0.56764100  0.47775621  0.17152643  1.0
  Bi  Bi167  1  0.56764100  0.81108955  0.17152643  1.0
  Bi  Bi168  1  0.90097434  0.14442288  0.17152643  1.0
  Bi  Bi169  1  0.90097434  0.47775621  0.17152643  1.0
  Bi  Bi170  1  0.90097434  0.81108955  0.17152643  1.0
  Bi  Bi171  1  0.27597434  0.31108955  0.04652643  1.0
  Bi  Bi172  1  0.27597434  0.64442288  0.04652643  1.0
  Bi  Bi173  1  0.27597434  0.97775621  0.04652643  1.0
  Bi  Bi174  1  0.60930767  0.31108955  0.04652643  1.0
  Bi  Bi175  1  0.60930767  0.64442288  0.04652643  1.0
  Bi  Bi176  1  0.60930767  0.97775621  0.04652643  1.0
  Bi  Bi177  1  0.94264100  0.31108955  0.04652643  1.0
  Bi  Bi178  1  0.94264100  0.64442288  0.04652643  1.0
  Bi  Bi179  1  0.94264100  0.97775621  0.04652643  1.0
  Bi  Bi180  1  0.00103978  0.26507808  0.11936088  1.0
  Bi  Bi181  1  0.00103978  0.59841141  0.11936088  1.0
  Bi  Bi182  1  0.00103978  0.93174474  0.11936088  1.0
  Bi  Bi183  1  0.33437311  0.26507808  0.11936088  1.0
  Bi  Bi184  1  0.33437311  0.59841141  0.11936088  1.0
  Bi  Bi185  1  0.33437311  0.93174474  0.11936088  1.0
  Bi  Bi186  1  0.66770644  0.26507808  0.11936088  1.0
  Bi  Bi187  1  0.66770644  0.59841141  0.11936088  1.0
  Bi  Bi188  1  0.66770644  0.93174474  0.11936088  1.0
  Bi  Bi189  1  0.29270644  0.09841141  0.24436088  1.0
  Bi  Bi190  1  0.29270644  0.43174474  0.24436088  1.0
  Bi  Bi191  1  0.29270644  0.76507808  0.24436088  1.0
  Bi  Bi192  1  0.62603978  0.09841141  0.24436088  1.0
  Bi  Bi193  1  0.62603978  0.43174474  0.24436088  1.0
  Bi  Bi194  1  0.62603978  0.76507808  0.24436088  1.0
  Bi  Bi195  1  0.95937311  0.09841141  0.24436088  1.0
  Bi  Bi196  1  0.95937311  0.43174474  0.24436088  1.0
  Bi  Bi197  1  0.95937311  0.76507808  0.24436088  1.0
  Bi  Bi198  1  0.25289438  0.06869594  0.11540239  1.0
  Bi  Bi199  1  0.25289438  0.40202927  0.11540239  1.0
  Bi  Bi200  1  0.25289438  0.73536260  0.11540239  1.0
  Bi  Bi201  1  0.58622771  0.06869594  0.11540239  1.0
  Bi  Bi202  1  0.58622771  0.40202927  0.11540239  1.0
  Bi  Bi203  1  0.58622771  0.73536260  0.11540239  1.0
  Bi  Bi204  1  0.91956105  0.06869594  0.11540239  1.0
  Bi  Bi205  1  0.91956105  0.40202927  0.11540239  1.0
  Bi  Bi206  1  0.91956105  0.73536260  0.11540239  1.0
  Bi  Bi207  1  0.21122771  0.23536260  0.24040239  1.0
  Bi  Bi208  1  0.21122771  0.56869594  0.24040239  1.0
  Bi  Bi209  1  0.21122771  0.90202927  0.24040239  1.0
  Bi  Bi210  1  0.54456105  0.23536260  0.24040239  1.0
  Bi  Bi211  1  0.54456105  0.56869594  0.24040239  1.0
  Bi  Bi212  1  0.54456105  0.90202927  0.24040239  1.0
  Bi  Bi213  1  0.87789438  0.23536260  0.24040239  1.0
  Bi  Bi214  1  0.87789438  0.56869594  0.24040239  1.0
  Bi  Bi215  1  0.87789438  0.90202927  0.24040239  1.0
  Bi  Bi216  1  0.09718539  0.26973206  0.07767512  1.0
  Bi  Bi217  1  0.09718539  0.60306539  0.07767512  1.0
  Bi  Bi218  1  0.09718539  0.93639872  0.07767512  1.0
  Bi  Bi219  1  0.43051872  0.26973206  0.07767512  1.0
  Bi  Bi220  1  0.43051872  0.60306539  0.07767512  1.0
  Bi  Bi221  1  0.43051872  0.93639872  0.07767512  1.0
  Bi  Bi222  1  0.76385205  0.26973206  0.07767512  1.0
  Bi  Bi223  1  0.76385205  0.60306539  0.07767512  1.0
  Bi  Bi224  1  0.76385205  0.93639872  0.07767512  1.0
  Bi  Bi225  1  0.05551872  0.10306539  0.20267512  1.0
  Bi  Bi226  1  0.05551872  0.43639872  0.20267512  1.0
  Bi  Bi227  1  0.05551872  0.76973206  0.20267512  1.0
  Bi  Bi228  1  0.38885205  0.10306539  0.20267512  1.0
  Bi  Bi229  1  0.38885205  0.43639872  0.20267512  1.0
  Bi  Bi230  1  0.38885205  0.76973206  0.20267512  1.0
  Bi  Bi231  1  0.72218539  0.10306539  0.20267512  1.0
  Bi  Bi232  1  0.72218539  0.43639872  0.20267512  1.0
  Bi  Bi233  1  0.72218539  0.76973206  0.20267512  1.0
  Bi  Bi234  1  0.17713633  0.14099141  0.09497653  1.0
  Bi  Bi235  1  0.17713633  0.47432475  0.09497653  1.0
  Bi  Bi236  1  0.17713633  0.80765808  0.09497653  1.0
  Bi  Bi237  1  0.51046967  0.14099141  0.09497653  1.0
  Bi  Bi238  1  0.51046967  0.47432475  0.09497653  1.0
  Bi  Bi239  1  0.51046967  0.80765808  0.09497653  1.0
  Bi  Bi240  1  0.84380300  0.14099141  0.09497653  1.0
  Bi  Bi241  1  0.84380300  0.47432475  0.09497653  1.0
  Bi  Bi242  1  0.84380300  0.80765808  0.09497653  1.0
  Bi  Bi243  1  0.13546967  0.30765808  0.21997653  1.0
  Bi  Bi244  1  0.13546967  0.64099141  0.21997653  1.0
  Bi  Bi245  1  0.13546967  0.97432475  0.21997653  1.0
  Bi  Bi246  1  0.46880300  0.30765808  0.21997653  1.0
  Bi  Bi247  1  0.46880300  0.64099141  0.21997653  1.0
  Bi  Bi248  1  0.46880300  0.97432475  0.21997653  1.0
  Bi  Bi249  1  0.80213633  0.30765808  0.21997653  1.0
  Bi  Bi250  1  0.80213633  0.64099141  0.21997653  1.0
  Bi  Bi251  1  0.80213633  0.97432475  0.21997653  1.0
  Bi  Bi252  1  0.07821122  0.19383541  0.13459761  1.0
  Bi  Bi253  1  0.07821122  0.52716874  0.13459761  1.0
  Bi  Bi254  1  0.07821122  0.86050207  0.13459761  1.0
  Bi  Bi255  1  0.41154456  0.19383541  0.13459761  1.0
  Bi  Bi256  1  0.41154456  0.52716874  0.13459761  1.0
  Bi  Bi257  1  0.41154456  0.86050207  0.13459761  1.0
  Bi  Bi258  1  0.74487789  0.19383541  0.13459761  1.0
  Bi  Bi259  1  0.74487789  0.52716874  0.13459761  1.0
  Bi  Bi260  1  0.74487789  0.86050207  0.13459761  1.0
  Bi  Bi261  1  0.11987789  0.02716874  0.00959761  1.0
  Bi  Bi262  1  0.11987789  0.36050207  0.00959761  1.0
  Bi  Bi263  1  0.11987789  0.69383541  0.00959761  1.0
  Bi  Bi264  1  0.45321122  0.02716874  0.00959761  1.0
  Bi  Bi265  1  0.45321122  0.36050207  0.00959761  1.0
  Bi  Bi266  1  0.45321122  0.69383541  0.00959761  1.0
  Bi  Bi267  1  0.78654456  0.02716874  0.00959761  1.0
  Bi  Bi268  1  0.78654456  0.36050207  0.00959761  1.0
  Bi  Bi269  1  0.78654456  0.69383541  0.00959761  1.0
  Bi  Bi270  1  0.19860872  0.22688096  0.03055937  1.0
  Bi  Bi271  1  0.19860872  0.56021429  0.03055937  1.0
  Bi  Bi272  1  0.19860872  0.89354762  0.03055937  1.0
  Bi  Bi273  1  0.53194205  0.22688096  0.03055937  1.0
  Bi  Bi274  1  0.53194205  0.56021429  0.03055937  1.0
  Bi  Bi275  1  0.53194205  0.89354762  0.03055937  1.0
  Bi  Bi276  1  0.86527539  0.22688096  0.03055937  1.0
  Bi  Bi277  1  0.86527539  0.56021429  0.03055937  1.0
  Bi  Bi278  1  0.86527539  0.89354762  0.03055937  1.0
  Bi  Bi279  1  0.15694205  0.06021429  0.15555937  1.0
  Bi  Bi280  1  0.15694205  0.39354762  0.15555937  1.0
  Bi  Bi281  1  0.15694205  0.72688096  0.15555937  1.0
  Bi  Bi282  1  0.49027539  0.06021429  0.15555937  1.0
  Bi  Bi283  1  0.49027539  0.39354762  0.15555937  1.0
  Bi  Bi284  1  0.49027539  0.72688096  0.15555937  1.0
  Bi  Bi285  1  0.82360872  0.06021429  0.15555937  1.0
  Bi  Bi286  1  0.82360872  0.39354762  0.15555937  1.0
  Bi  Bi287  1  0.82360872  0.72688096  0.15555937  1.0
  Bi  Bi288  1  0.03361182  0.19367575  0.27105927  1.0
  Bi  Bi289  1  0.03361182  0.52700908  0.27105927  1.0
  Bi  Bi290  1  0.03361182  0.86034242  0.27105927  1.0
  Bi  Bi291  1  0.36694516  0.19367575  0.27105927  1.0
  Bi  Bi292  1  0.36694516  0.52700908  0.27105927  1.0
  Bi  Bi293  1  0.36694516  0.86034242  0.27105927  1.0
  Bi  Bi294  1  0.70027849  0.19367575  0.27105927  1.0
  Bi  Bi295  1  0.70027849  0.52700908  0.27105927  1.0
  Bi  Bi296  1  0.70027849  0.86034242  0.27105927  1.0
  Bi  Bi297  1  0.32527849  0.02700908  0.39605927  1.0
  Bi  Bi298  1  0.32527849  0.36034242  0.39605927  1.0
  Bi  Bi299  1  0.32527849  0.69367575  0.39605927  1.0
  Bi  Bi300  1  0.65861182  0.02700908  0.39605927  1.0
  Bi  Bi301  1  0.65861182  0.36034242  0.39605927  1.0
  Bi  Bi302  1  0.65861182  0.69367575  0.39605927  1.0
  Bi  Bi303  1  0.99194516  0.02700908  0.39605927  1.0
  Bi  Bi304  1  0.99194516  0.36034242  0.39605927  1.0
  Bi  Bi305  1  0.99194516  0.69367575  0.39605927  1.0
  Bi  Bi306  1  0.05406958  0.14144563  0.46816001  1.0
  Bi  Bi307  1  0.05406958  0.47477897  0.46816001  1.0
  Bi  Bi308  1  0.05406958  0.80811230  0.46816001  1.0
  Bi  Bi309  1  0.38740291  0.14144563  0.46816001  1.0
  Bi  Bi310  1  0.38740291  0.47477897  0.46816001  1.0
  Bi  Bi311  1  0.38740291  0.80811230  0.46816001  1.0
  Bi  Bi312  1  0.72073624  0.14144563  0.46816001  1.0
  Bi  Bi313  1  0.72073624  0.47477897  0.46816001  1.0
  Bi  Bi314  1  0.72073624  0.80811230  0.46816001  1.0
  Bi  Bi315  1  0.09573624  0.30811230  0.34316001  1.0
  Bi  Bi316  1  0.09573624  0.64144563  0.34316001  1.0
  Bi  Bi317  1  0.09573624  0.97477897  0.34316001  1.0
  Bi  Bi318  1  0.42906958  0.30811230  0.34316001  1.0
  Bi  Bi319  1  0.42906958  0.64144563  0.34316001  1.0
  Bi  Bi320  1  0.42906958  0.97477897  0.34316001  1.0
  Bi  Bi321  1  0.76240291  0.30811230  0.34316001  1.0
  Bi  Bi322  1  0.76240291  0.64144563  0.34316001  1.0
  Bi  Bi323  1  0.76240291  0.97477897  0.34316001  1.0
  Bi  Bi324  1  0.01675950  0.10733134  0.32850706  1.0
  Bi  Bi325  1  0.01675950  0.44066467  0.32850706  1.0
  Bi  Bi326  1  0.01675950  0.77399801  0.32850706  1.0
  Bi  Bi327  1  0.35009284  0.10733134  0.32850706  1.0
  Bi  Bi328  1  0.35009284  0.44066467  0.32850706  1.0
  Bi  Bi329  1  0.35009284  0.77399801  0.32850706  1.0
  Bi  Bi330  1  0.68342617  0.10733134  0.32850706  1.0
  Bi  Bi331  1  0.68342617  0.44066467  0.32850706  1.0
  Bi  Bi332  1  0.68342617  0.77399801  0.32850706  1.0
  Bi  Bi333  1  0.30842617  0.27399801  0.45350706  1.0
  Bi  Bi334  1  0.30842617  0.60733134  0.45350706  1.0
  Bi  Bi335  1  0.30842617  0.94066467  0.45350706  1.0
  Bi  Bi336  1  0.64175950  0.27399801  0.45350706  1.0
  Bi  Bi337  1  0.64175950  0.60733134  0.45350706  1.0
  Bi  Bi338  1  0.64175950  0.94066467  0.45350706  1.0
  Bi  Bi339  1  0.97509284  0.27399801  0.45350706  1.0
  Bi  Bi340  1  0.97509284  0.60733134  0.45350706  1.0
  Bi  Bi341  1  0.97509284  0.94066467  0.45350706  1.0
  Bi  Bi342  1  0.07086708  0.22657140  0.40700148  1.0
  Bi  Bi343  1  0.07086708  0.55990473  0.40700148  1.0
  Bi  Bi344  1  0.07086708  0.89323807  0.40700148  1.0
  Bi  Bi345  1  0.40420042  0.22657140  0.40700148  1.0
  Bi  Bi346  1  0.40420042  0.55990473  0.40700148  1.0
  Bi  Bi347  1  0.40420042  0.89323807  0.40700148  1.0
  Bi  Bi348  1  0.73753375  0.22657140  0.40700148  1.0
  Bi  Bi349  1  0.73753375  0.55990473  0.40700148  1.0
  Bi  Bi350  1  0.73753375  0.89323807  0.40700148  1.0
  Bi  Bi351  1  0.11253375  0.05990473  0.28200148  1.0
  Bi  Bi352  1  0.11253375  0.39323807  0.28200148  1.0
  Bi  Bi353  1  0.11253375  0.72657140  0.28200148  1.0
  Bi  Bi354  1  0.44586708  0.05990473  0.28200148  1.0
  Bi  Bi355  1  0.44586708  0.39323807  0.28200148  1.0
  Bi  Bi356  1  0.44586708  0.72657140  0.28200148  1.0
  Bi  Bi357  1  0.77920042  0.05990473  0.28200148  1.0
  Bi  Bi358  1  0.77920042  0.39323807  0.28200148  1.0
  Bi  Bi359  1  0.77920042  0.72657140  0.28200148  1.0
  Bi  Bi360  1  0.22880127  0.18420320  0.43783107  1.0
  Bi  Bi361  1  0.22880127  0.51753653  0.43783107  1.0
  Bi  Bi362  1  0.22880127  0.85086987  0.43783107  1.0
  Bi  Bi363  1  0.56213460  0.18420320  0.43783107  1.0
  Bi  Bi364  1  0.56213460  0.51753653  0.43783107  1.0
  Bi  Bi365  1  0.56213460  0.85086987  0.43783107  1.0
  Bi  Bi366  1  0.89546793  0.18420320  0.43783107  1.0
  Bi  Bi367  1  0.89546793  0.51753653  0.43783107  1.0
  Bi  Bi368  1  0.89546793  0.85086987  0.43783107  1.0
  Bi  Bi369  1  0.27046793  0.01753654  0.31283107  1.0
  Bi  Bi370  1  0.27046793  0.35086987  0.31283107  1.0
  Bi  Bi371  1  0.27046793  0.68420320  0.31283107  1.0
  Bi  Bi372  1  0.60380127  0.01753654  0.31283107  1.0
  Bi  Bi373  1  0.60380127  0.35086987  0.31283107  1.0
  Bi  Bi374  1  0.60380127  0.68420320  0.31283107  1.0
  Bi  Bi375  1  0.93713460  0.01753654  0.31283107  1.0
  Bi  Bi376  1  0.93713460  0.35086987  0.31283107  1.0
  Bi  Bi377  1  0.93713460  0.68420320  0.31283107  1.0
  Bi  Bi378  1  0.19091799  0.14978898  0.29670514  1.0
  Bi  Bi379  1  0.19091799  0.48312232  0.29670514  1.0
  Bi  Bi380  1  0.19091799  0.81645565  0.29670514  1.0
  Bi  Bi381  1  0.52425132  0.14978898  0.29670514  1.0
  Bi  Bi382  1  0.52425132  0.48312232  0.29670514  1.0
  Bi  Bi383  1  0.52425132  0.81645565  0.29670514  1.0
  Bi  Bi384  1  0.85758465  0.14978898  0.29670514  1.0
  Bi  Bi385  1  0.85758465  0.48312232  0.29670514  1.0
  Bi  Bi386  1  0.85758465  0.81645565  0.29670514  1.0
  Bi  Bi387  1  0.14925132  0.31645565  0.42170514  1.0
  Bi  Bi388  1  0.14925132  0.64978898  0.42170514  1.0
  Bi  Bi389  1  0.14925132  0.98312232  0.42170514  1.0
  Bi  Bi390  1  0.48258465  0.31645565  0.42170514  1.0
  Bi  Bi391  1  0.48258465  0.64978898  0.42170514  1.0
  Bi  Bi392  1  0.48258465  0.98312232  0.42170514  1.0
  Bi  Bi393  1  0.81591799  0.31645565  0.42170514  1.0
  Bi  Bi394  1  0.81591799  0.64978898  0.42170514  1.0
  Bi  Bi395  1  0.81591799  0.98312232  0.42170514  1.0
  Bi  Bi396  1  0.26975314  0.18924669  0.31244893  1.0
  Bi  Bi397  1  0.26975314  0.52258003  0.31244893  1.0
  Bi  Bi398  1  0.26975314  0.85591336  0.31244893  1.0
  Bi  Bi399  1  0.60308647  0.18924669  0.31244893  1.0
  Bi  Bi400  1  0.60308647  0.52258003  0.31244893  1.0
  Bi  Bi401  1  0.60308647  0.85591336  0.31244893  1.0
  Bi  Bi402  1  0.93641981  0.18924669  0.31244893  1.0
  Bi  Bi403  1  0.93641981  0.52258003  0.31244893  1.0
  Bi  Bi404  1  0.93641981  0.85591336  0.31244893  1.0
  Bi  Bi405  1  0.22808647  0.02258003  0.43744893  1.0
  Bi  Bi406  1  0.22808647  0.35591336  0.43744893  1.0
  Bi  Bi407  1  0.22808647  0.68924670  0.43744893  1.0
  Bi  Bi408  1  0.56141981  0.02258003  0.43744893  1.0
  Bi  Bi409  1  0.56141981  0.35591336  0.43744893  1.0
  Bi  Bi410  1  0.56141981  0.68924670  0.43744893  1.0
  Bi  Bi411  1  0.89475314  0.02258003  0.43744893  1.0
  Bi  Bi412  1  0.89475314  0.35591336  0.43744893  1.0
  Bi  Bi413  1  0.89475314  0.68924670  0.43744893  1.0
  Bi  Bi414  1  0.13191558  0.06818784  0.47870271  1.0
  Bi  Bi415  1  0.13191558  0.40152118  0.47870271  1.0
  Bi  Bi416  1  0.13191558  0.73485451  0.47870271  1.0
  Bi  Bi417  1  0.46524891  0.06818784  0.47870271  1.0
  Bi  Bi418  1  0.46524891  0.40152118  0.47870271  1.0
  Bi  Bi419  1  0.46524891  0.73485451  0.47870271  1.0
  Bi  Bi420  1  0.79858224  0.06818784  0.47870271  1.0
  Bi  Bi421  1  0.79858224  0.40152118  0.47870271  1.0
  Bi  Bi422  1  0.79858224  0.73485451  0.47870271  1.0
  Bi  Bi423  1  0.17358224  0.23485451  0.35370271  1.0
  Bi  Bi424  1  0.17358224  0.56818784  0.35370271  1.0
  Bi  Bi425  1  0.17358224  0.90152118  0.35370271  1.0
  Bi  Bi426  1  0.50691558  0.23485451  0.35370271  1.0
  Bi  Bi427  1  0.50691558  0.56818784  0.35370271  1.0
  Bi  Bi428  1  0.50691558  0.90152118  0.35370271  1.0
  Bi  Bi429  1  0.84024891  0.23485451  0.35370271  1.0
  Bi  Bi430  1  0.84024891  0.56818784  0.35370271  1.0
  Bi  Bi431  1  0.84024891  0.90152118  0.35370271  1.0
  Bi  Bi432  1  0.28873674  0.26518112  0.25549812  1.0
  Bi  Bi433  1  0.28873674  0.59851445  0.25549812  1.0
  Bi  Bi434  1  0.28873674  0.93184778  0.25549812  1.0
  Bi  Bi435  1  0.62207008  0.26518112  0.25549812  1.0
  Bi  Bi436  1  0.62207008  0.59851445  0.25549812  1.0
  Bi  Bi437  1  0.62207008  0.93184778  0.25549812  1.0
  Bi  Bi438  1  0.95540341  0.26518112  0.25549812  1.0
  Bi  Bi439  1  0.95540341  0.59851445  0.25549812  1.0
  Bi  Bi440  1  0.95540341  0.93184778  0.25549812  1.0
  Bi  Bi441  1  0.24707008  0.09851445  0.38049812  1.0
  Bi  Bi442  1  0.24707008  0.43184778  0.38049812  1.0
  Bi  Bi443  1  0.24707008  0.76518112  0.38049812  1.0
  Bi  Bi444  1  0.58040341  0.09851445  0.38049812  1.0
  Bi  Bi445  1  0.58040341  0.43184778  0.38049812  1.0
  Bi  Bi446  1  0.58040341  0.76518112  0.38049812  1.0
  Bi  Bi447  1  0.91373674  0.09851445  0.38049812  1.0
  Bi  Bi448  1  0.91373674  0.43184778  0.38049812  1.0
  Bi  Bi449  1  0.91373674  0.76518112  0.38049812  1.0
  Bi  Bi450  1  0.15097434  0.14442288  0.42152643  1.0
  Bi  Bi451  1  0.15097434  0.47775621  0.42152643  1.0
  Bi  Bi452  1  0.15097434  0.81108955  0.42152643  1.0
  Bi  Bi453  1  0.48430767  0.14442288  0.42152643  1.0
  Bi  Bi454  1  0.48430767  0.47775621  0.42152643  1.0
  Bi  Bi455  1  0.48430767  0.81108955  0.42152643  1.0
  Bi  Bi456  1  0.81764100  0.14442288  0.42152643  1.0
  Bi  Bi457  1  0.81764100  0.47775621  0.42152643  1.0
  Bi  Bi458  1  0.81764100  0.81108955  0.42152643  1.0
  Bi  Bi459  1  0.19264100  0.31108955  0.29652643  1.0
  Bi  Bi460  1  0.19264100  0.64442288  0.29652643  1.0
  Bi  Bi461  1  0.19264100  0.97775621  0.29652643  1.0
  Bi  Bi462  1  0.52597434  0.31108955  0.29652643  1.0
  Bi  Bi463  1  0.52597434  0.64442288  0.29652643  1.0
  Bi  Bi464  1  0.52597434  0.97775621  0.29652643  1.0
  Bi  Bi465  1  0.85930767  0.31108955  0.29652643  1.0
  Bi  Bi466  1  0.85930767  0.64442288  0.29652643  1.0
  Bi  Bi467  1  0.85930767  0.97775621  0.29652643  1.0
  Bi  Bi468  1  0.25103978  0.26507808  0.36936088  1.0
  Bi  Bi469  1  0.25103978  0.59841141  0.36936088  1.0
  Bi  Bi470  1  0.25103978  0.93174474  0.36936088  1.0
  Bi  Bi471  1  0.58437311  0.26507808  0.36936088  1.0
  Bi  Bi472  1  0.58437311  0.59841141  0.36936088  1.0
  Bi  Bi473  1  0.58437311  0.93174474  0.36936088  1.0
  Bi  Bi474  1  0.91770644  0.26507808  0.36936088  1.0
  Bi  Bi475  1  0.91770644  0.59841141  0.36936088  1.0
  Bi  Bi476  1  0.91770644  0.93174474  0.36936088  1.0
  Bi  Bi477  1  0.20937311  0.09841141  0.49436088  1.0
  Bi  Bi478  1  0.20937311  0.43174474  0.49436088  1.0
  Bi  Bi479  1  0.20937311  0.76507808  0.49436088  1.0
  Bi  Bi480  1  0.54270644  0.09841141  0.49436088  1.0
  Bi  Bi481  1  0.54270644  0.43174474  0.49436088  1.0
  Bi  Bi482  1  0.54270644  0.76507808  0.49436088  1.0
  Bi  Bi483  1  0.87603978  0.09841141  0.49436088  1.0
  Bi  Bi484  1  0.87603978  0.43174474  0.49436088  1.0
  Bi  Bi485  1  0.87603978  0.76507808  0.49436088  1.0
  Bi  Bi486  1  0.16956105  0.06869594  0.36540239  1.0
  Bi  Bi487  1  0.16956105  0.40202927  0.36540239  1.0
  Bi  Bi488  1  0.16956105  0.73536260  0.36540239  1.0
  Bi  Bi489  1  0.50289438  0.06869594  0.36540239  1.0
  Bi  Bi490  1  0.50289438  0.40202927  0.36540239  1.0
  Bi  Bi491  1  0.50289438  0.73536260  0.36540239  1.0
  Bi  Bi492  1  0.83622771  0.06869594  0.36540239  1.0
  Bi  Bi493  1  0.83622771  0.40202927  0.36540239  1.0
  Bi  Bi494  1  0.83622771  0.73536260  0.36540239  1.0
  Bi  Bi495  1  0.12789438  0.23536260  0.49040239  1.0
  Bi  Bi496  1  0.12789438  0.56869594  0.49040239  1.0
  Bi  Bi497  1  0.12789438  0.90202927  0.49040239  1.0
  Bi  Bi498  1  0.46122771  0.23536260  0.49040239  1.0
  Bi  Bi499  1  0.46122771  0.56869594  0.49040239  1.0
  Bi  Bi500  1  0.46122771  0.90202927  0.49040239  1.0
  Bi  Bi501  1  0.79456105  0.23536260  0.49040239  1.0
  Bi  Bi502  1  0.79456105  0.56869594  0.49040239  1.0
  Bi  Bi503  1  0.79456105  0.90202927  0.49040239  1.0
  Bi  Bi504  1  0.01385205  0.26973206  0.32767512  1.0
  Bi  Bi505  1  0.01385205  0.60306539  0.32767512  1.0
  Bi  Bi506  1  0.01385205  0.93639872  0.32767512  1.0
  Bi  Bi507  1  0.34718539  0.26973206  0.32767512  1.0
  Bi  Bi508  1  0.34718539  0.60306539  0.32767512  1.0
  Bi  Bi509  1  0.34718539  0.93639872  0.32767512  1.0
  Bi  Bi510  1  0.68051872  0.26973206  0.32767512  1.0
  Bi  Bi511  1  0.68051872  0.60306539  0.32767512  1.0
  Bi  Bi512  1  0.68051872  0.93639872  0.32767512  1.0
  Bi  Bi513  1  0.30551872  0.10306539  0.45267512  1.0
  Bi  Bi514  1  0.30551872  0.43639872  0.45267512  1.0
  Bi  Bi515  1  0.30551872  0.76973206  0.45267512  1.0
  Bi  Bi516  1  0.63885205  0.10306539  0.45267512  1.0
  Bi  Bi517  1  0.63885205  0.43639872  0.45267512  1.0
  Bi  Bi518  1  0.63885205  0.76973206  0.45267512  1.0
  Bi  Bi519  1  0.97218539  0.10306539  0.45267512  1.0
  Bi  Bi520  1  0.97218539  0.43639872  0.45267512  1.0
  Bi  Bi521  1  0.97218539  0.76973206  0.45267512  1.0
  Bi  Bi522  1  0.09380300  0.14099141  0.34497653  1.0
  Bi  Bi523  1  0.09380300  0.47432475  0.34497653  1.0
  Bi  Bi524  1  0.09380300  0.80765808  0.34497653  1.0
  Bi  Bi525  1  0.42713633  0.14099141  0.34497653  1.0
  Bi  Bi526  1  0.42713633  0.47432475  0.34497653  1.0
  Bi  Bi527  1  0.42713633  0.80765808  0.34497653  1.0
  Bi  Bi528  1  0.76046967  0.14099141  0.34497653  1.0
  Bi  Bi529  1  0.76046967  0.47432475  0.34497653  1.0
  Bi  Bi530  1  0.76046967  0.80765808  0.34497653  1.0
  Bi  Bi531  1  0.05213633  0.30765808  0.46997653  1.0
  Bi  Bi532  1  0.05213633  0.64099141  0.46997653  1.0
  Bi  Bi533  1  0.05213633  0.97432475  0.46997653  1.0
  Bi  Bi534  1  0.38546967  0.30765808  0.46997653  1.0
  Bi  Bi535  1  0.38546967  0.64099141  0.46997653  1.0
  Bi  Bi536  1  0.38546967  0.97432475  0.46997653  1.0
  Bi  Bi537  1  0.71880300  0.30765808  0.46997653  1.0
  Bi  Bi538  1  0.71880300  0.64099141  0.46997653  1.0
  Bi  Bi539  1  0.71880300  0.97432475  0.46997653  1.0
  Bi  Bi540  1  0.32821122  0.19383541  0.38459761  1.0
  Bi  Bi541  1  0.32821122  0.52716874  0.38459761  1.0
  Bi  Bi542  1  0.32821122  0.86050207  0.38459761  1.0
  Bi  Bi543  1  0.66154456  0.19383541  0.38459761  1.0
  Bi  Bi544  1  0.66154456  0.52716874  0.38459761  1.0
  Bi  Bi545  1  0.66154456  0.86050207  0.38459761  1.0
  Bi  Bi546  1  0.99487789  0.19383541  0.38459761  1.0
  Bi  Bi547  1  0.99487789  0.52716874  0.38459761  1.0
  Bi  Bi548  1  0.99487789  0.86050207  0.38459761  1.0
  Bi  Bi549  1  0.03654456  0.02716874  0.25959761  1.0
  Bi  Bi550  1  0.03654456  0.36050207  0.25959761  1.0
  Bi  Bi551  1  0.03654456  0.69383541  0.25959761  1.0
  Bi  Bi552  1  0.36987789  0.02716874  0.25959761  1.0
  Bi  Bi553  1  0.36987789  0.36050207  0.25959761  1.0
  Bi  Bi554  1  0.36987789  0.69383541  0.25959761  1.0
  Bi  Bi555  1  0.70321122  0.02716874  0.25959761  1.0
  Bi  Bi556  1  0.70321122  0.36050207  0.25959761  1.0
  Bi  Bi557  1  0.70321122  0.69383541  0.25959761  1.0
  Bi  Bi558  1  0.11527539  0.22688096  0.28055937  1.0
  Bi  Bi559  1  0.11527539  0.56021429  0.28055937  1.0
  Bi  Bi560  1  0.11527539  0.89354762  0.28055937  1.0
  Bi  Bi561  1  0.44860872  0.22688096  0.28055937  1.0
  Bi  Bi562  1  0.44860872  0.56021429  0.28055937  1.0
  Bi  Bi563  1  0.44860872  0.89354762  0.28055937  1.0
  Bi  Bi564  1  0.78194205  0.22688096  0.28055937  1.0
  Bi  Bi565  1  0.78194205  0.56021429  0.28055937  1.0
  Bi  Bi566  1  0.78194205  0.89354762  0.28055937  1.0
  Bi  Bi567  1  0.07360872  0.06021429  0.40555937  1.0
  Bi  Bi568  1  0.07360872  0.39354762  0.40555937  1.0
  Bi  Bi569  1  0.07360872  0.72688096  0.40555937  1.0
  Bi  Bi570  1  0.40694205  0.06021429  0.40555937  1.0
  Bi  Bi571  1  0.40694205  0.39354762  0.40555937  1.0
  Bi  Bi572  1  0.40694205  0.72688096  0.40555937  1.0
  Bi  Bi573  1  0.74027539  0.06021429  0.40555937  1.0
  Bi  Bi574  1  0.74027539  0.39354762  0.40555937  1.0
  Bi  Bi575  1  0.74027539  0.72688096  0.40555937  1.0
  Ni  Ni576  1  0.11453512  0.12632402  0.14992737  1.0
  Ni  Ni577  1  0.11453512  0.45965735  0.14992737  1.0
  Ni  Ni578  1  0.11453512  0.79299068  0.14992737  1.0
  Ni  Ni579  1  0.44786845  0.12632402  0.14992737  1.0
  Ni  Ni580  1  0.44786845  0.45965735  0.14992737  1.0
  Ni  Ni581  1  0.44786845  0.79299068  0.14992737  1.0
  Ni  Ni582  1  0.78120179  0.12632402  0.14992737  1.0
  Ni  Ni583  1  0.78120179  0.45965735  0.14992737  1.0
  Ni  Ni584  1  0.78120179  0.79299068  0.14992737  1.0
  Ni  Ni585  1  0.15620179  0.29299068  0.02492737  1.0
  Ni  Ni586  1  0.15620179  0.62632402  0.02492737  1.0
  Ni  Ni587  1  0.15620179  0.95965735  0.02492737  1.0
  Ni  Ni588  1  0.48953512  0.29299068  0.02492737  1.0
  Ni  Ni589  1  0.48953512  0.62632402  0.02492737  1.0
  Ni  Ni590  1  0.48953512  0.95965735  0.02492737  1.0
  Ni  Ni591  1  0.82286845  0.29299068  0.02492737  1.0
  Ni  Ni592  1  0.82286845  0.62632402  0.02492737  1.0
  Ni  Ni593  1  0.82286845  0.95965735  0.02492737  1.0
  Ni  Ni594  1  0.14415815  0.20630821  0.08616965  1.0
  Ni  Ni595  1  0.14415815  0.53964155  0.08616965  1.0
  Ni  Ni596  1  0.14415815  0.87297488  0.08616965  1.0
  Ni  Ni597  1  0.47749148  0.20630821  0.08616965  1.0
  Ni  Ni598  1  0.47749148  0.53964155  0.08616965  1.0
  Ni  Ni599  1  0.47749148  0.87297488  0.08616965  1.0
  Ni  Ni600  1  0.81082481  0.20630821  0.08616965  1.0
  Ni  Ni601  1  0.81082481  0.53964155  0.08616965  1.0
  Ni  Ni602  1  0.81082481  0.87297488  0.08616965  1.0
  Ni  Ni603  1  0.10249148  0.03964155  0.21116965  1.0
  Ni  Ni604  1  0.10249148  0.37297488  0.21116965  1.0
  Ni  Ni605  1  0.10249148  0.70630821  0.21116965  1.0
  Ni  Ni606  1  0.43582481  0.03964155  0.21116965  1.0
  Ni  Ni607  1  0.43582481  0.37297488  0.21116965  1.0
  Ni  Ni608  1  0.43582481  0.70630821  0.21116965  1.0
  Ni  Ni609  1  0.76915815  0.03964155  0.21116965  1.0
  Ni  Ni610  1  0.76915815  0.37297488  0.21116965  1.0
  Ni  Ni611  1  0.76915815  0.70630821  0.21116965  1.0
  Ni  Ni612  1  0.31163878  0.29540968  0.18762135  1.0
  Ni  Ni613  1  0.31163878  0.62874301  0.18762135  1.0
  Ni  Ni614  1  0.31163878  0.96207635  0.18762135  1.0
  Ni  Ni615  1  0.64497211  0.29540968  0.18762135  1.0
  Ni  Ni616  1  0.64497211  0.62874301  0.18762135  1.0
  Ni  Ni617  1  0.64497211  0.96207635  0.18762135  1.0
  Ni  Ni618  1  0.97830544  0.29540968  0.18762135  1.0
  Ni  Ni619  1  0.97830544  0.62874301  0.18762135  1.0
  Ni  Ni620  1  0.97830544  0.96207635  0.18762135  1.0
  Ni  Ni621  1  0.01997211  0.12874301  0.06262135  1.0
  Ni  Ni622  1  0.01997211  0.46207635  0.06262135  1.0
  Ni  Ni623  1  0.01997211  0.79540968  0.06262135  1.0
  Ni  Ni624  1  0.35330544  0.12874301  0.06262135  1.0
  Ni  Ni625  1  0.35330544  0.46207635  0.06262135  1.0
  Ni  Ni626  1  0.35330544  0.79540968  0.06262135  1.0
  Ni  Ni627  1  0.68663878  0.12874301  0.06262135  1.0
  Ni  Ni628  1  0.68663878  0.46207635  0.06262135  1.0
  Ni  Ni629  1  0.68663878  0.79540968  0.06262135  1.0
  Ni  Ni630  1  0.27635324  0.03813629  0.04718231  1.0
  Ni  Ni631  1  0.27635324  0.37146962  0.04718231  1.0
  Ni  Ni632  1  0.27635324  0.70480296  0.04718231  1.0
  Ni  Ni633  1  0.60968657  0.03813629  0.04718231  1.0
  Ni  Ni634  1  0.60968657  0.37146962  0.04718231  1.0
  Ni  Ni635  1  0.60968657  0.70480296  0.04718231  1.0
  Ni  Ni636  1  0.94301990  0.03813629  0.04718231  1.0
  Ni  Ni637  1  0.94301990  0.37146962  0.04718231  1.0
  Ni  Ni638  1  0.94301990  0.70480296  0.04718231  1.0
  Ni  Ni639  1  0.23468657  0.20480296  0.17218231  1.0
  Ni  Ni640  1  0.23468657  0.53813629  0.17218231  1.0
  Ni  Ni641  1  0.23468657  0.87146962  0.17218231  1.0
  Ni  Ni642  1  0.56801990  0.20480296  0.17218231  1.0
  Ni  Ni643  1  0.56801990  0.53813629  0.17218231  1.0
  Ni  Ni644  1  0.56801990  0.87146962  0.17218231  1.0
  Ni  Ni645  1  0.90135324  0.20480296  0.17218231  1.0
  Ni  Ni646  1  0.90135324  0.53813629  0.17218231  1.0
  Ni  Ni647  1  0.90135324  0.87146962  0.17218231  1.0
  Ni  Ni648  1  0.03894357  0.14552515  0.13193921  1.0
  Ni  Ni649  1  0.03894357  0.47885848  0.13193921  1.0
  Ni  Ni650  1  0.03894357  0.81219181  0.13193921  1.0
  Ni  Ni651  1  0.37227690  0.14552515  0.13193921  1.0
  Ni  Ni652  1  0.37227690  0.47885848  0.13193921  1.0
  Ni  Ni653  1  0.37227690  0.81219181  0.13193921  1.0
  Ni  Ni654  1  0.70561024  0.14552515  0.13193921  1.0
  Ni  Ni655  1  0.70561024  0.47885848  0.13193921  1.0
  Ni  Ni656  1  0.70561024  0.81219181  0.13193921  1.0
  Ni  Ni657  1  0.08061024  0.31219181  0.00693921  1.0
  Ni  Ni658  1  0.08061024  0.64552515  0.00693921  1.0
  Ni  Ni659  1  0.08061024  0.97885848  0.00693921  1.0
  Ni  Ni660  1  0.41394357  0.31219181  0.00693921  1.0
  Ni  Ni661  1  0.41394357  0.64552515  0.00693921  1.0
  Ni  Ni662  1  0.41394357  0.97885848  0.00693921  1.0
  Ni  Ni663  1  0.74727690  0.31219181  0.00693921  1.0
  Ni  Ni664  1  0.74727690  0.64552515  0.00693921  1.0
  Ni  Ni665  1  0.74727690  0.97885848  0.00693921  1.0
  Ni  Ni666  1  0.21745518  0.18785198  0.10409798  1.0
  Ni  Ni667  1  0.21745518  0.52118531  0.10409798  1.0
  Ni  Ni668  1  0.21745518  0.85451864  0.10409798  1.0
  Ni  Ni669  1  0.55078852  0.18785198  0.10409798  1.0
  Ni  Ni670  1  0.55078852  0.52118531  0.10409798  1.0
  Ni  Ni671  1  0.55078852  0.85451864  0.10409798  1.0
  Ni  Ni672  1  0.88412185  0.18785198  0.10409798  1.0
  Ni  Ni673  1  0.88412185  0.52118531  0.10409798  1.0
  Ni  Ni674  1  0.88412185  0.85451864  0.10409798  1.0
  Ni  Ni675  1  0.17578852  0.02118531  0.22909798  1.0
  Ni  Ni676  1  0.17578852  0.35451864  0.22909798  1.0
  Ni  Ni677  1  0.17578852  0.68785198  0.22909798  1.0
  Ni  Ni678  1  0.50912185  0.02118531  0.22909798  1.0
  Ni  Ni679  1  0.50912185  0.35451864  0.22909798  1.0
  Ni  Ni680  1  0.50912185  0.68785198  0.22909798  1.0
  Ni  Ni681  1  0.84245518  0.02118531  0.22909798  1.0
  Ni  Ni682  1  0.84245518  0.35451864  0.22909798  1.0
  Ni  Ni683  1  0.84245518  0.68785198  0.22909798  1.0
  Ni  Ni684  1  0.15862310  0.12741879  0.02172432  1.0
  Ni  Ni685  1  0.15862310  0.46075212  0.02172432  1.0
  Ni  Ni686  1  0.15862310  0.79408546  0.02172432  1.0
  Ni  Ni687  1  0.49195644  0.12741879  0.02172432  1.0
  Ni  Ni688  1  0.49195644  0.46075212  0.02172432  1.0
  Ni  Ni689  1  0.49195644  0.79408546  0.02172432  1.0
  Ni  Ni690  1  0.82528977  0.12741879  0.02172432  1.0
  Ni  Ni691  1  0.82528977  0.46075212  0.02172432  1.0
  Ni  Ni692  1  0.82528977  0.79408546  0.02172432  1.0
  Ni  Ni693  1  0.11695644  0.29408546  0.14672432  1.0
  Ni  Ni694  1  0.11695644  0.62741879  0.14672432  1.0
  Ni  Ni695  1  0.11695644  0.96075212  0.14672432  1.0
  Ni  Ni696  1  0.45028977  0.29408546  0.14672432  1.0
  Ni  Ni697  1  0.45028977  0.62741879  0.14672432  1.0
  Ni  Ni698  1  0.45028977  0.96075212  0.14672432  1.0
  Ni  Ni699  1  0.78362310  0.29408546  0.14672432  1.0
  Ni  Ni700  1  0.78362310  0.62741879  0.14672432  1.0
  Ni  Ni701  1  0.78362310  0.96075212  0.14672432  1.0
  Ni  Ni702  1  0.09500952  0.20629778  0.21256508  1.0
  Ni  Ni703  1  0.09500952  0.53963112  0.21256508  1.0
  Ni  Ni704  1  0.09500952  0.87296445  0.21256508  1.0
  Ni  Ni705  1  0.42834285  0.20629778  0.21256508  1.0
  Ni  Ni706  1  0.42834285  0.53963112  0.21256508  1.0
  Ni  Ni707  1  0.42834285  0.87296445  0.21256508  1.0
  Ni  Ni708  1  0.76167618  0.20629778  0.21256508  1.0
  Ni  Ni709  1  0.76167618  0.53963112  0.21256508  1.0
  Ni  Ni710  1  0.76167618  0.87296445  0.21256508  1.0
  Ni  Ni711  1  0.13667618  0.03963112  0.08756508  1.0
  Ni  Ni712  1  0.13667618  0.37296445  0.08756508  1.0
  Ni  Ni713  1  0.13667618  0.70629778  0.08756508  1.0
  Ni  Ni714  1  0.47000952  0.03963112  0.08756508  1.0
  Ni  Ni715  1  0.47000952  0.37296445  0.08756508  1.0
  Ni  Ni716  1  0.47000952  0.70629778  0.08756508  1.0
  Ni  Ni717  1  0.80334285  0.03963112  0.08756508  1.0
  Ni  Ni718  1  0.80334285  0.37296445  0.08756508  1.0
  Ni  Ni719  1  0.80334285  0.70629778  0.08756508  1.0
  Ni  Ni720  1  0.29453378  0.16653131  0.11721457  1.0
  Ni  Ni721  1  0.29453378  0.49986464  0.11721457  1.0
  Ni  Ni722  1  0.29453378  0.83319797  0.11721457  1.0
  Ni  Ni723  1  0.62786712  0.16653131  0.11721457  1.0
  Ni  Ni724  1  0.62786712  0.49986464  0.11721457  1.0
  Ni  Ni725  1  0.62786712  0.83319797  0.11721457  1.0
  Ni  Ni726  1  0.96120045  0.16653131  0.11721457  1.0
  Ni  Ni727  1  0.96120045  0.49986464  0.11721457  1.0
  Ni  Ni728  1  0.96120045  0.83319797  0.11721457  1.0
  Ni  Ni729  1  0.25286712  0.33319797  0.24221457  1.0
  Ni  Ni730  1  0.25286712  0.66653131  0.24221457  1.0
  Ni  Ni731  1  0.25286712  0.99986464  0.24221457  1.0
  Ni  Ni732  1  0.58620045  0.33319797  0.24221457  1.0
  Ni  Ni733  1  0.58620045  0.66653131  0.24221457  1.0
  Ni  Ni734  1  0.58620045  0.99986464  0.24221457  1.0
  Ni  Ni735  1  0.91953378  0.33319797  0.24221457  1.0
  Ni  Ni736  1  0.91953378  0.66653131  0.24221457  1.0
  Ni  Ni737  1  0.91953378  0.99986464  0.24221457  1.0
  Ni  Ni738  1  0.08097466  0.14501998  0.00868688  1.0
  Ni  Ni739  1  0.08097466  0.47835331  0.00868688  1.0
  Ni  Ni740  1  0.08097466  0.81168665  0.00868688  1.0
  Ni  Ni741  1  0.41430799  0.14501998  0.00868688  1.0
  Ni  Ni742  1  0.41430799  0.47835331  0.00868688  1.0
  Ni  Ni743  1  0.41430799  0.81168665  0.00868688  1.0
  Ni  Ni744  1  0.74764132  0.14501998  0.00868688  1.0
  Ni  Ni745  1  0.74764132  0.47835331  0.00868688  1.0
  Ni  Ni746  1  0.74764132  0.81168665  0.00868688  1.0
  Ni  Ni747  1  0.03930799  0.31168665  0.13368688  1.0
  Ni  Ni748  1  0.03930799  0.64501998  0.13368688  1.0
  Ni  Ni749  1  0.03930799  0.97835331  0.13368688  1.0
  Ni  Ni750  1  0.37264132  0.31168665  0.13368688  1.0
  Ni  Ni751  1  0.37264132  0.64501998  0.13368688  1.0
  Ni  Ni752  1  0.37264132  0.97835331  0.13368688  1.0
  Ni  Ni753  1  0.70597466  0.31168665  0.13368688  1.0
  Ni  Ni754  1  0.70597466  0.64501998  0.13368688  1.0
  Ni  Ni755  1  0.70597466  0.97835331  0.13368688  1.0
  Ni  Ni756  1  0.23715226  0.10237088  0.03979498  1.0
  Ni  Ni757  1  0.23715226  0.43570421  0.03979498  1.0
  Ni  Ni758  1  0.23715226  0.76903754  0.03979498  1.0
  Ni  Ni759  1  0.57048559  0.10237088  0.03979498  1.0
  Ni  Ni760  1  0.57048559  0.43570421  0.03979498  1.0
  Ni  Ni761  1  0.57048559  0.76903754  0.03979498  1.0
  Ni  Ni762  1  0.90381892  0.10237088  0.03979498  1.0
  Ni  Ni763  1  0.90381892  0.43570421  0.03979498  1.0
  Ni  Ni764  1  0.90381892  0.76903754  0.03979498  1.0
  Ni  Ni765  1  0.19548559  0.26903754  0.16479498  1.0
  Ni  Ni766  1  0.19548559  0.60237088  0.16479498  1.0
  Ni  Ni767  1  0.19548559  0.93570421  0.16479498  1.0
  Ni  Ni768  1  0.52881892  0.26903754  0.16479498  1.0
  Ni  Ni769  1  0.52881892  0.60237088  0.16479498  1.0
  Ni  Ni770  1  0.52881892  0.93570421  0.16479498  1.0
  Ni  Ni771  1  0.86215226  0.26903754  0.16479498  1.0
  Ni  Ni772  1  0.86215226  0.60237088  0.16479498  1.0
  Ni  Ni773  1  0.86215226  0.93570421  0.16479498  1.0
  Ni  Ni774  1  0.01883700  0.22980269  0.19509985  1.0
  Ni  Ni775  1  0.01883700  0.56313602  0.19509985  1.0
  Ni  Ni776  1  0.01883700  0.89646935  0.19509985  1.0
  Ni  Ni777  1  0.35217033  0.22980269  0.19509985  1.0
  Ni  Ni778  1  0.35217033  0.56313602  0.19509985  1.0
  Ni  Ni779  1  0.35217033  0.89646935  0.19509985  1.0
  Ni  Ni780  1  0.68550367  0.22980269  0.19509985  1.0
  Ni  Ni781  1  0.68550367  0.56313602  0.19509985  1.0
  Ni  Ni782  1  0.68550367  0.89646935  0.19509985  1.0
  Ni  Ni783  1  0.06050367  0.06313602  0.07009985  1.0
  Ni  Ni784  1  0.06050367  0.39646935  0.07009985  1.0
  Ni  Ni785  1  0.06050367  0.72980269  0.07009985  1.0
  Ni  Ni786  1  0.39383700  0.06313602  0.07009985  1.0
  Ni  Ni787  1  0.39383700  0.39646935  0.07009985  1.0
  Ni  Ni788  1  0.39383700  0.72980269  0.07009985  1.0
  Ni  Ni789  1  0.72717033  0.06313602  0.07009985  1.0
  Ni  Ni790  1  0.72717033  0.39646935  0.07009985  1.0
  Ni  Ni791  1  0.72717033  0.72980269  0.07009985  1.0
  Ni  Ni792  1  0.17537433  0.18859249  0.22512877  1.0
  Ni  Ni793  1  0.17537433  0.52192582  0.22512877  1.0
  Ni  Ni794  1  0.17537433  0.85525915  0.22512877  1.0
  Ni  Ni795  1  0.50870766  0.18859249  0.22512877  1.0
  Ni  Ni796  1  0.50870766  0.52192582  0.22512877  1.0
  Ni  Ni797  1  0.50870766  0.85525915  0.22512877  1.0
  Ni  Ni798  1  0.84204099  0.18859249  0.22512877  1.0
  Ni  Ni799  1  0.84204099  0.52192582  0.22512877  1.0
  Ni  Ni800  1  0.84204099  0.85525915  0.22512877  1.0
  Ni  Ni801  1  0.21704099  0.02192582  0.10012877  1.0
  Ni  Ni802  1  0.21704099  0.35525915  0.10012877  1.0
  Ni  Ni803  1  0.21704099  0.68859249  0.10012877  1.0
  Ni  Ni804  1  0.55037433  0.02192582  0.10012877  1.0
  Ni  Ni805  1  0.55037433  0.35525915  0.10012877  1.0
  Ni  Ni806  1  0.55037433  0.68859249  0.10012877  1.0
  Ni  Ni807  1  0.88370766  0.02192582  0.10012877  1.0
  Ni  Ni808  1  0.88370766  0.35525915  0.10012877  1.0
  Ni  Ni809  1  0.88370766  0.68859249  0.10012877  1.0
  Ni  Ni810  1  0.29427537  0.33316766  0.11735599  1.0
  Ni  Ni811  1  0.29427537  0.66650099  0.11735599  1.0
  Ni  Ni812  1  0.29427537  0.99983432  0.11735599  1.0
  Ni  Ni813  1  0.62760871  0.33316766  0.11735599  1.0
  Ni  Ni814  1  0.62760871  0.66650099  0.11735599  1.0
  Ni  Ni815  1  0.62760871  0.99983432  0.11735599  1.0
  Ni  Ni816  1  0.96094204  0.33316766  0.11735599  1.0
  Ni  Ni817  1  0.96094204  0.66650099  0.11735599  1.0
  Ni  Ni818  1  0.96094204  0.99983432  0.11735599  1.0
  Ni  Ni819  1  0.25260871  0.16650099  0.24235599  1.0
  Ni  Ni820  1  0.25260871  0.49983432  0.24235599  1.0
  Ni  Ni821  1  0.25260871  0.83316766  0.24235599  1.0
  Ni  Ni822  1  0.58594204  0.16650099  0.24235599  1.0
  Ni  Ni823  1  0.58594204  0.49983432  0.24235599  1.0
  Ni  Ni824  1  0.58594204  0.83316766  0.24235599  1.0
  Ni  Ni825  1  0.91927537  0.16650099  0.24235599  1.0
  Ni  Ni826  1  0.91927537  0.49983432  0.24235599  1.0
  Ni  Ni827  1  0.91927537  0.83316766  0.24235599  1.0
  Ni  Ni828  1  0.27350339  0.25007971  0.17967195  1.0
  Ni  Ni829  1  0.27350339  0.58341305  0.17967195  1.0
  Ni  Ni830  1  0.27350339  0.91674638  0.17967195  1.0
  Ni  Ni831  1  0.60683672  0.25007971  0.17967195  1.0
  Ni  Ni832  1  0.60683672  0.58341305  0.17967195  1.0
  Ni  Ni833  1  0.60683672  0.91674638  0.17967195  1.0
  Ni  Ni834  1  0.94017005  0.25007971  0.17967195  1.0
  Ni  Ni835  1  0.94017005  0.58341305  0.17967195  1.0
  Ni  Ni836  1  0.94017005  0.91674638  0.17967195  1.0
  Ni  Ni837  1  0.31517005  0.08341305  0.05467195  1.0
  Ni  Ni838  1  0.31517005  0.41674638  0.05467195  1.0
  Ni  Ni839  1  0.31517005  0.75007971  0.05467195  1.0
  Ni  Ni840  1  0.64850339  0.08341305  0.05467195  1.0
  Ni  Ni841  1  0.64850339  0.41674638  0.05467195  1.0
  Ni  Ni842  1  0.64850339  0.75007971  0.05467195  1.0
  Ni  Ni843  1  0.98183672  0.08341305  0.05467195  1.0
  Ni  Ni844  1  0.98183672  0.41674638  0.05467195  1.0
  Ni  Ni845  1  0.98183672  0.75007971  0.05467195  1.0
  Ni  Ni846  1  0.05852563  0.16271133  0.20307982  1.0
  Ni  Ni847  1  0.05852563  0.49604466  0.20307982  1.0
  Ni  Ni848  1  0.05852563  0.82937800  0.20307982  1.0
  Ni  Ni849  1  0.39185896  0.16271133  0.20307982  1.0
  Ni  Ni850  1  0.39185896  0.49604466  0.20307982  1.0
  Ni  Ni851  1  0.39185896  0.82937800  0.20307982  1.0
  Ni  Ni852  1  0.72519230  0.16271133  0.20307982  1.0
  Ni  Ni853  1  0.72519230  0.49604466  0.20307982  1.0
  Ni  Ni854  1  0.72519230  0.82937800  0.20307982  1.0
  Ni  Ni855  1  0.10019230  0.32937800  0.07807982  1.0
  Ni  Ni856  1  0.10019230  0.66271133  0.07807982  1.0
  Ni  Ni857  1  0.10019230  0.99604466  0.07807982  1.0
  Ni  Ni858  1  0.43352563  0.32937800  0.07807982  1.0
  Ni  Ni859  1  0.43352563  0.66271133  0.07807982  1.0
  Ni  Ni860  1  0.43352563  0.99604466  0.07807982  1.0
  Ni  Ni861  1  0.76685896  0.32937800  0.07807982  1.0
  Ni  Ni862  1  0.76685896  0.66271133  0.07807982  1.0
  Ni  Ni863  1  0.76685896  0.99604466  0.07807982  1.0
  Ni  Ni864  1  0.03120179  0.12632402  0.39992737  1.0
  Ni  Ni865  1  0.03120179  0.45965735  0.39992737  1.0
  Ni  Ni866  1  0.03120179  0.79299068  0.39992737  1.0
  Ni  Ni867  1  0.36453512  0.12632402  0.39992737  1.0
  Ni  Ni868  1  0.36453512  0.45965735  0.39992737  1.0
  Ni  Ni869  1  0.36453512  0.79299068  0.39992737  1.0
  Ni  Ni870  1  0.69786845  0.12632402  0.39992737  1.0
  Ni  Ni871  1  0.69786845  0.45965735  0.39992737  1.0
  Ni  Ni872  1  0.69786845  0.79299068  0.39992737  1.0
  Ni  Ni873  1  0.07286845  0.29299068  0.27492737  1.0
  Ni  Ni874  1  0.07286845  0.62632402  0.27492737  1.0
  Ni  Ni875  1  0.07286845  0.95965735  0.27492737  1.0
  Ni  Ni876  1  0.40620179  0.29299068  0.27492737  1.0
  Ni  Ni877  1  0.40620179  0.62632402  0.27492737  1.0
  Ni  Ni878  1  0.40620179  0.95965735  0.27492737  1.0
  Ni  Ni879  1  0.73953512  0.29299068  0.27492737  1.0
  Ni  Ni880  1  0.73953512  0.62632402  0.27492737  1.0
  Ni  Ni881  1  0.73953512  0.95965735  0.27492737  1.0
  Ni  Ni882  1  0.06082481  0.20630821  0.33616965  1.0
  Ni  Ni883  1  0.06082481  0.53964155  0.33616965  1.0
  Ni  Ni884  1  0.06082481  0.87297488  0.33616965  1.0
  Ni  Ni885  1  0.39415815  0.20630821  0.33616965  1.0
  Ni  Ni886  1  0.39415815  0.53964155  0.33616965  1.0
  Ni  Ni887  1  0.39415815  0.87297488  0.33616965  1.0
  Ni  Ni888  1  0.72749148  0.20630821  0.33616965  1.0
  Ni  Ni889  1  0.72749148  0.53964155  0.33616965  1.0
  Ni  Ni890  1  0.72749148  0.87297488  0.33616965  1.0
  Ni  Ni891  1  0.01915815  0.03964155  0.46116965  1.0
  Ni  Ni892  1  0.01915815  0.37297488  0.46116965  1.0
  Ni  Ni893  1  0.01915815  0.70630821  0.46116965  1.0
  Ni  Ni894  1  0.35249148  0.03964155  0.46116965  1.0
  Ni  Ni895  1  0.35249148  0.37297488  0.46116965  1.0
  Ni  Ni896  1  0.35249148  0.70630821  0.46116965  1.0
  Ni  Ni897  1  0.68582481  0.03964155  0.46116965  1.0
  Ni  Ni898  1  0.68582481  0.37297488  0.46116965  1.0
  Ni  Ni899  1  0.68582481  0.70630821  0.46116965  1.0
  Ni  Ni900  1  0.22830544  0.29540968  0.43762135  1.0
  Ni  Ni901  1  0.22830544  0.62874301  0.43762135  1.0
  Ni  Ni902  1  0.22830544  0.96207635  0.43762135  1.0
  Ni  Ni903  1  0.56163878  0.29540968  0.43762135  1.0
  Ni  Ni904  1  0.56163878  0.62874301  0.43762135  1.0
  Ni  Ni905  1  0.56163878  0.96207635  0.43762135  1.0
  Ni  Ni906  1  0.89497211  0.29540968  0.43762135  1.0
  Ni  Ni907  1  0.89497211  0.62874301  0.43762135  1.0
  Ni  Ni908  1  0.89497211  0.96207635  0.43762135  1.0
  Ni  Ni909  1  0.26997211  0.12874301  0.31262135  1.0
  Ni  Ni910  1  0.26997211  0.46207635  0.31262135  1.0
  Ni  Ni911  1  0.26997211  0.79540968  0.31262135  1.0
  Ni  Ni912  1  0.60330544  0.12874301  0.31262135  1.0
  Ni  Ni913  1  0.60330544  0.46207635  0.31262135  1.0
  Ni  Ni914  1  0.60330544  0.79540968  0.31262135  1.0
  Ni  Ni915  1  0.93663878  0.12874301  0.31262135  1.0
  Ni  Ni916  1  0.93663878  0.46207635  0.31262135  1.0
  Ni  Ni917  1  0.93663878  0.79540968  0.31262135  1.0
  Ni  Ni918  1  0.19301990  0.03813629  0.29718231  1.0
  Ni  Ni919  1  0.19301990  0.37146963  0.29718231  1.0
  Ni  Ni920  1  0.19301990  0.70480296  0.29718231  1.0
  Ni  Ni921  1  0.52635324  0.03813629  0.29718231  1.0
  Ni  Ni922  1  0.52635324  0.37146963  0.29718231  1.0
  Ni  Ni923  1  0.52635324  0.70480296  0.29718231  1.0
  Ni  Ni924  1  0.85968657  0.03813629  0.29718231  1.0
  Ni  Ni925  1  0.85968657  0.37146963  0.29718231  1.0
  Ni  Ni926  1  0.85968657  0.70480296  0.29718231  1.0
  Ni  Ni927  1  0.15135324  0.20480296  0.42218231  1.0
  Ni  Ni928  1  0.15135324  0.53813629  0.42218231  1.0
  Ni  Ni929  1  0.15135324  0.87146962  0.42218231  1.0
  Ni  Ni930  1  0.48468657  0.20480296  0.42218231  1.0
  Ni  Ni931  1  0.48468657  0.53813629  0.42218231  1.0
  Ni  Ni932  1  0.48468657  0.87146962  0.42218231  1.0
  Ni  Ni933  1  0.81801990  0.20480296  0.42218231  1.0
  Ni  Ni934  1  0.81801990  0.53813629  0.42218231  1.0
  Ni  Ni935  1  0.81801990  0.87146962  0.42218231  1.0
  Ni  Ni936  1  0.28894357  0.14552515  0.38193921  1.0
  Ni  Ni937  1  0.28894357  0.47885848  0.38193921  1.0
  Ni  Ni938  1  0.28894357  0.81219181  0.38193921  1.0
  Ni  Ni939  1  0.62227690  0.14552515  0.38193921  1.0
  Ni  Ni940  1  0.62227690  0.47885848  0.38193921  1.0
  Ni  Ni941  1  0.62227690  0.81219181  0.38193921  1.0
  Ni  Ni942  1  0.95561024  0.14552515  0.38193921  1.0
  Ni  Ni943  1  0.95561024  0.47885848  0.38193921  1.0
  Ni  Ni944  1  0.95561024  0.81219181  0.38193921  1.0
  Ni  Ni945  1  0.33061024  0.31219181  0.25693921  1.0
  Ni  Ni946  1  0.33061024  0.64552515  0.25693921  1.0
  Ni  Ni947  1  0.33061024  0.97885848  0.25693921  1.0
  Ni  Ni948  1  0.66394357  0.31219181  0.25693921  1.0
  Ni  Ni949  1  0.66394357  0.64552515  0.25693921  1.0
  Ni  Ni950  1  0.66394357  0.97885848  0.25693921  1.0
  Ni  Ni951  1  0.99727690  0.31219181  0.25693921  1.0
  Ni  Ni952  1  0.99727690  0.64552515  0.25693921  1.0
  Ni  Ni953  1  0.99727690  0.97885848  0.25693921  1.0
  Ni  Ni954  1  0.13412185  0.18785198  0.35409798  1.0
  Ni  Ni955  1  0.13412185  0.52118531  0.35409798  1.0
  Ni  Ni956  1  0.13412185  0.85451864  0.35409798  1.0
  Ni  Ni957  1  0.46745518  0.18785198  0.35409798  1.0
  Ni  Ni958  1  0.46745518  0.52118531  0.35409798  1.0
  Ni  Ni959  1  0.46745518  0.85451864  0.35409798  1.0
  Ni  Ni960  1  0.80078852  0.18785198  0.35409798  1.0
  Ni  Ni961  1  0.80078852  0.52118531  0.35409798  1.0
  Ni  Ni962  1  0.80078852  0.85451864  0.35409798  1.0
  Ni  Ni963  1  0.09245518  0.02118531  0.47909798  1.0
  Ni  Ni964  1  0.09245518  0.35451864  0.47909798  1.0
  Ni  Ni965  1  0.09245518  0.68785198  0.47909798  1.0
  Ni  Ni966  1  0.42578852  0.02118531  0.47909798  1.0
  Ni  Ni967  1  0.42578852  0.35451864  0.47909798  1.0
  Ni  Ni968  1  0.42578852  0.68785198  0.47909798  1.0
  Ni  Ni969  1  0.75912185  0.02118531  0.47909798  1.0
  Ni  Ni970  1  0.75912185  0.35451864  0.47909798  1.0
  Ni  Ni971  1  0.75912185  0.68785198  0.47909798  1.0
  Ni  Ni972  1  0.07528977  0.12741879  0.27172432  1.0
  Ni  Ni973  1  0.07528977  0.46075212  0.27172432  1.0
  Ni  Ni974  1  0.07528977  0.79408546  0.27172432  1.0
  Ni  Ni975  1  0.40862310  0.12741879  0.27172432  1.0
  Ni  Ni976  1  0.40862310  0.46075212  0.27172432  1.0
  Ni  Ni977  1  0.40862310  0.79408546  0.27172432  1.0
  Ni  Ni978  1  0.74195644  0.12741879  0.27172432  1.0
  Ni  Ni979  1  0.74195644  0.46075212  0.27172432  1.0
  Ni  Ni980  1  0.74195644  0.79408546  0.27172432  1.0
  Ni  Ni981  1  0.03362310  0.29408546  0.39672432  1.0
  Ni  Ni982  1  0.03362310  0.62741879  0.39672432  1.0
  Ni  Ni983  1  0.03362310  0.96075212  0.39672432  1.0
  Ni  Ni984  1  0.36695644  0.29408546  0.39672432  1.0
  Ni  Ni985  1  0.36695644  0.62741879  0.39672432  1.0
  Ni  Ni986  1  0.36695644  0.96075212  0.39672432  1.0
  Ni  Ni987  1  0.70028977  0.29408546  0.39672432  1.0
  Ni  Ni988  1  0.70028977  0.62741879  0.39672432  1.0
  Ni  Ni989  1  0.70028977  0.96075212  0.39672432  1.0
  Ni  Ni990  1  0.01167618  0.20629778  0.46256508  1.0
  Ni  Ni991  1  0.01167618  0.53963112  0.46256508  1.0
  Ni  Ni992  1  0.01167618  0.87296445  0.46256508  1.0
  Ni  Ni993  1  0.34500952  0.20629778  0.46256508  1.0
  Ni  Ni994  1  0.34500952  0.53963112  0.46256508  1.0
  Ni  Ni995  1  0.34500952  0.87296445  0.46256508  1.0
  Ni  Ni996  1  0.67834285  0.20629778  0.46256508  1.0
  Ni  Ni997  1  0.67834285  0.53963112  0.46256508  1.0
  Ni  Ni998  1  0.67834285  0.87296445  0.46256508  1.0
  Ni  Ni999  1  0.05334285  0.03963112  0.33756508  1.0
  Ni  Ni1000  1  0.05334285  0.37296445  0.33756508  1.0
  Ni  Ni1001  1  0.05334285  0.70629778  0.33756508  1.0
  Ni  Ni1002  1  0.38667618  0.03963112  0.33756508  1.0
  Ni  Ni1003  1  0.38667618  0.37296445  0.33756508  1.0
  Ni  Ni1004  1  0.38667618  0.70629778  0.33756508  1.0
  Ni  Ni1005  1  0.72000952  0.03963112  0.33756508  1.0
  Ni  Ni1006  1  0.72000952  0.37296445  0.33756508  1.0
  Ni  Ni1007  1  0.72000952  0.70629778  0.33756508  1.0
  Ni  Ni1008  1  0.21120045  0.16653131  0.36721457  1.0
  Ni  Ni1009  1  0.21120045  0.49986464  0.36721457  1.0
  Ni  Ni1010  1  0.21120045  0.83319797  0.36721457  1.0
  Ni  Ni1011  1  0.54453378  0.16653131  0.36721457  1.0
  Ni  Ni1012  1  0.54453378  0.49986464  0.36721457  1.0
  Ni  Ni1013  1  0.54453378  0.83319797  0.36721457  1.0
  Ni  Ni1014  1  0.87786712  0.16653131  0.36721457  1.0
  Ni  Ni1015  1  0.87786712  0.49986464  0.36721457  1.0
  Ni  Ni1016  1  0.87786712  0.83319797  0.36721457  1.0
  Ni  Ni1017  1  0.16953378  0.33319797  0.49221457  1.0
  Ni  Ni1018  1  0.16953378  0.66653131  0.49221457  1.0
  Ni  Ni1019  1  0.16953378  0.99986464  0.49221457  1.0
  Ni  Ni1020  1  0.50286712  0.33319797  0.49221457  1.0
  Ni  Ni1021  1  0.50286712  0.66653131  0.49221457  1.0
  Ni  Ni1022  1  0.50286712  0.99986464  0.49221457  1.0
  Ni  Ni1023  1  0.83620045  0.33319797  0.49221457  1.0
  Ni  Ni1024  1  0.83620045  0.66653131  0.49221457  1.0
  Ni  Ni1025  1  0.83620045  0.99986464  0.49221457  1.0
  Ni  Ni1026  1  0.33097466  0.14501998  0.25868688  1.0
  Ni  Ni1027  1  0.33097466  0.47835332  0.25868688  1.0
  Ni  Ni1028  1  0.33097466  0.81168665  0.25868688  1.0
  Ni  Ni1029  1  0.66430799  0.14501998  0.25868688  1.0
  Ni  Ni1030  1  0.66430799  0.47835332  0.25868688  1.0
  Ni  Ni1031  1  0.66430799  0.81168665  0.25868688  1.0
  Ni  Ni1032  1  0.99764132  0.14501998  0.25868688  1.0
  Ni  Ni1033  1  0.99764132  0.47835332  0.25868688  1.0
  Ni  Ni1034  1  0.99764132  0.81168665  0.25868688  1.0
  Ni  Ni1035  1  0.28930799  0.31168665  0.38368688  1.0
  Ni  Ni1036  1  0.28930799  0.64501998  0.38368688  1.0
  Ni  Ni1037  1  0.28930799  0.97835331  0.38368688  1.0
  Ni  Ni1038  1  0.62264132  0.31168665  0.38368688  1.0
  Ni  Ni1039  1  0.62264132  0.64501998  0.38368688  1.0
  Ni  Ni1040  1  0.62264132  0.97835331  0.38368688  1.0
  Ni  Ni1041  1  0.95597466  0.31168665  0.38368688  1.0
  Ni  Ni1042  1  0.95597466  0.64501998  0.38368688  1.0
  Ni  Ni1043  1  0.95597466  0.97835331  0.38368688  1.0
  Ni  Ni1044  1  0.15381892  0.10237088  0.28979498  1.0
  Ni  Ni1045  1  0.15381892  0.43570421  0.28979498  1.0
  Ni  Ni1046  1  0.15381892  0.76903754  0.28979498  1.0
  Ni  Ni1047  1  0.48715226  0.10237088  0.28979498  1.0
  Ni  Ni1048  1  0.48715226  0.43570421  0.28979498  1.0
  Ni  Ni1049  1  0.48715226  0.76903754  0.28979498  1.0
  Ni  Ni1050  1  0.82048559  0.10237088  0.28979498  1.0
  Ni  Ni1051  1  0.82048559  0.43570421  0.28979498  1.0
  Ni  Ni1052  1  0.82048559  0.76903754  0.28979498  1.0
  Ni  Ni1053  1  0.11215226  0.26903754  0.41479498  1.0
  Ni  Ni1054  1  0.11215226  0.60237088  0.41479498  1.0
  Ni  Ni1055  1  0.11215226  0.93570421  0.41479498  1.0
  Ni  Ni1056  1  0.44548559  0.26903754  0.41479498  1.0
  Ni  Ni1057  1  0.44548559  0.60237088  0.41479498  1.0
  Ni  Ni1058  1  0.44548559  0.93570421  0.41479498  1.0
  Ni  Ni1059  1  0.77881892  0.26903754  0.41479498  1.0
  Ni  Ni1060  1  0.77881892  0.60237088  0.41479498  1.0
  Ni  Ni1061  1  0.77881892  0.93570421  0.41479498  1.0
  Ni  Ni1062  1  0.26883700  0.22980269  0.44509985  1.0
  Ni  Ni1063  1  0.26883700  0.56313602  0.44509985  1.0
  Ni  Ni1064  1  0.26883700  0.89646935  0.44509985  1.0
  Ni  Ni1065  1  0.60217033  0.22980269  0.44509985  1.0
  Ni  Ni1066  1  0.60217033  0.56313602  0.44509985  1.0
  Ni  Ni1067  1  0.60217033  0.89646935  0.44509985  1.0
  Ni  Ni1068  1  0.93550367  0.22980269  0.44509985  1.0
  Ni  Ni1069  1  0.93550367  0.56313602  0.44509985  1.0
  Ni  Ni1070  1  0.93550367  0.89646935  0.44509985  1.0
  Ni  Ni1071  1  0.31050367  0.06313602  0.32009985  1.0
  Ni  Ni1072  1  0.31050367  0.39646935  0.32009985  1.0
  Ni  Ni1073  1  0.31050367  0.72980269  0.32009985  1.0
  Ni  Ni1074  1  0.64383700  0.06313602  0.32009985  1.0
  Ni  Ni1075  1  0.64383700  0.39646935  0.32009985  1.0
  Ni  Ni1076  1  0.64383700  0.72980269  0.32009985  1.0
  Ni  Ni1077  1  0.97717033  0.06313602  0.32009985  1.0
  Ni  Ni1078  1  0.97717033  0.39646935  0.32009985  1.0
  Ni  Ni1079  1  0.97717033  0.72980269  0.32009985  1.0
  Ni  Ni1080  1  0.09204099  0.18859249  0.47512877  1.0
  Ni  Ni1081  1  0.09204099  0.52192582  0.47512877  1.0
  Ni  Ni1082  1  0.09204099  0.85525915  0.47512877  1.0
  Ni  Ni1083  1  0.42537433  0.18859249  0.47512877  1.0
  Ni  Ni1084  1  0.42537433  0.52192582  0.47512877  1.0
  Ni  Ni1085  1  0.42537433  0.85525915  0.47512877  1.0
  Ni  Ni1086  1  0.75870766  0.18859249  0.47512877  1.0
  Ni  Ni1087  1  0.75870766  0.52192582  0.47512877  1.0
  Ni  Ni1088  1  0.75870766  0.85525915  0.47512877  1.0
  Ni  Ni1089  1  0.13370766  0.02192582  0.35012877  1.0
  Ni  Ni1090  1  0.13370766  0.35525915  0.35012877  1.0
  Ni  Ni1091  1  0.13370766  0.68859249  0.35012877  1.0
  Ni  Ni1092  1  0.46704099  0.02192582  0.35012877  1.0
  Ni  Ni1093  1  0.46704099  0.35525915  0.35012877  1.0
  Ni  Ni1094  1  0.46704099  0.68859249  0.35012877  1.0
  Ni  Ni1095  1  0.80037433  0.02192582  0.35012877  1.0
  Ni  Ni1096  1  0.80037433  0.35525915  0.35012877  1.0
  Ni  Ni1097  1  0.80037433  0.68859249  0.35012877  1.0
  Ni  Ni1098  1  0.21094204  0.33316766  0.36735599  1.0
  Ni  Ni1099  1  0.21094204  0.66650099  0.36735599  1.0
  Ni  Ni1100  1  0.21094204  0.99983432  0.36735599  1.0
  Ni  Ni1101  1  0.54427537  0.33316766  0.36735599  1.0
  Ni  Ni1102  1  0.54427537  0.66650099  0.36735599  1.0
  Ni  Ni1103  1  0.54427537  0.99983432  0.36735599  1.0
  Ni  Ni1104  1  0.87760871  0.33316766  0.36735599  1.0
  Ni  Ni1105  1  0.87760871  0.66650099  0.36735599  1.0
  Ni  Ni1106  1  0.87760871  0.99983432  0.36735599  1.0
  Ni  Ni1107  1  0.16927537  0.16650099  0.49235599  1.0
  Ni  Ni1108  1  0.16927537  0.49983432  0.49235599  1.0
  Ni  Ni1109  1  0.16927537  0.83316766  0.49235599  1.0
  Ni  Ni1110  1  0.50260871  0.16650099  0.49235599  1.0
  Ni  Ni1111  1  0.50260871  0.49983432  0.49235599  1.0
  Ni  Ni1112  1  0.50260871  0.83316766  0.49235599  1.0
  Ni  Ni1113  1  0.83594204  0.16650099  0.49235599  1.0
  Ni  Ni1114  1  0.83594204  0.49983432  0.49235599  1.0
  Ni  Ni1115  1  0.83594204  0.83316766  0.49235599  1.0
  Ni  Ni1116  1  0.19017005  0.25007971  0.42967195  1.0
  Ni  Ni1117  1  0.19017005  0.58341305  0.42967195  1.0
  Ni  Ni1118  1  0.19017005  0.91674638  0.42967195  1.0
  Ni  Ni1119  1  0.52350339  0.25007971  0.42967195  1.0
  Ni  Ni1120  1  0.52350339  0.58341305  0.42967195  1.0
  Ni  Ni1121  1  0.52350339  0.91674638  0.42967195  1.0
  Ni  Ni1122  1  0.85683672  0.25007971  0.42967195  1.0
  Ni  Ni1123  1  0.85683672  0.58341305  0.42967195  1.0
  Ni  Ni1124  1  0.85683672  0.91674638  0.42967195  1.0
  Ni  Ni1125  1  0.23183672  0.08341305  0.30467195  1.0
  Ni  Ni1126  1  0.23183672  0.41674638  0.30467195  1.0
  Ni  Ni1127  1  0.23183672  0.75007971  0.30467195  1.0
  Ni  Ni1128  1  0.56517005  0.08341305  0.30467195  1.0
  Ni  Ni1129  1  0.56517005  0.41674638  0.30467195  1.0
  Ni  Ni1130  1  0.56517005  0.75007971  0.30467195  1.0
  Ni  Ni1131  1  0.89850339  0.08341305  0.30467195  1.0
  Ni  Ni1132  1  0.89850339  0.41674638  0.30467195  1.0
  Ni  Ni1133  1  0.89850339  0.75007971  0.30467195  1.0
  Ni  Ni1134  1  0.30852563  0.16271133  0.45307982  1.0
  Ni  Ni1135  1  0.30852563  0.49604466  0.45307982  1.0
  Ni  Ni1136  1  0.30852563  0.82937800  0.45307982  1.0
  Ni  Ni1137  1  0.64185896  0.16271133  0.45307982  1.0
  Ni  Ni1138  1  0.64185896  0.49604466  0.45307982  1.0
  Ni  Ni1139  1  0.64185896  0.82937800  0.45307982  1.0
  Ni  Ni1140  1  0.97519230  0.16271133  0.45307982  1.0
  Ni  Ni1141  1  0.97519230  0.49604466  0.45307982  1.0
  Ni  Ni1142  1  0.97519230  0.82937800  0.45307982  1.0
  Ni  Ni1143  1  0.01685896  0.32937800  0.32807982  1.0
  Ni  Ni1144  1  0.01685896  0.66271133  0.32807982  1.0
  Ni  Ni1145  1  0.01685896  0.99604466  0.32807982  1.0
  Ni  Ni1146  1  0.35019230  0.32937800  0.32807982  1.0
  Ni  Ni1147  1  0.35019230  0.66271133  0.32807982  1.0
  Ni  Ni1148  1  0.35019230  0.99604466  0.32807982  1.0
  Ni  Ni1149  1  0.68352563  0.32937800  0.32807982  1.0
  Ni  Ni1150  1  0.68352563  0.66271133  0.32807982  1.0
  Ni  Ni1151  1  0.68352563  0.99604466  0.32807982  1.0
