# generated using pymatgen
data_NiBi
_symmetry_space_group_name_H-M   'P 1'
_cell_length_a   42.97544458
_cell_length_b   54.90247041
_cell_length_c   57.62904791
_cell_angle_alpha   38.24601916
_cell_angle_beta   89.54410182
_cell_angle_gamma   100.90823070
_symmetry_Int_Tables_number   1
_chemical_formula_structural   NiBi
_chemical_formula_sum   'Ni864 Bi864'
_cell_volume   79862.87769148
_cell_formula_units_Z   864
loop_
 _symmetry_equiv_pos_site_id
 _symmetry_equiv_pos_as_xyz
  1  'x, y, z'
loop_
 _atom_site_type_symbol
 _atom_site_label
 _atom_site_symmetry_multiplicity
 _atom_site_fract_x
 _atom_site_fract_y
 _atom_site_fract_z
 _atom_site_occupancy
  Ni  Ni0  1  0.04191281  0.16451091  0.01101624  1.0
  Ni  Ni1  1  0.04191281  0.49784424  0.01101624  1.0
  Ni  Ni2  1  0.04191281  0.83117758  0.01101624  1.0
  Ni  Ni3  1  0.37524614  0.16451091  0.01101624  1.0
  Ni  Ni4  1  0.37524614  0.49784424  0.01101624  1.0
  Ni  Ni5  1  0.37524614  0.83117758  0.01101624  1.0
  Ni  Ni6  1  0.70857947  0.16451091  0.01101624  1.0
  Ni  Ni7  1  0.70857947  0.49784424  0.01101624  1.0
  Ni  Ni8  1  0.70857947  0.83117758  0.01101624  1.0
  Ni  Ni9  1  0.20857947  0.16451091  0.08244481  1.0
  Ni  Ni10  1  0.20857947  0.49784424  0.08244481  1.0
  Ni  Ni11  1  0.20857947  0.83117758  0.08244481  1.0
  Ni  Ni12  1  0.54191281  0.16451091  0.08244481  1.0
  Ni  Ni13  1  0.54191281  0.49784424  0.08244481  1.0
  Ni  Ni14  1  0.54191281  0.83117758  0.08244481  1.0
  Ni  Ni15  1  0.87524614  0.16451091  0.08244481  1.0
  Ni  Ni16  1  0.87524614  0.49784424  0.08244481  1.0
  Ni  Ni17  1  0.87524614  0.83117758  0.08244481  1.0
  Ni  Ni18  1  0.12608223  0.17288136  0.04206822  1.0
  Ni  Ni19  1  0.12608223  0.50621470  0.04206822  1.0
  Ni  Ni20  1  0.12608223  0.83954803  0.04206822  1.0
  Ni  Ni21  1  0.45941556  0.17288136  0.04206822  1.0
  Ni  Ni22  1  0.45941556  0.50621470  0.04206822  1.0
  Ni  Ni23  1  0.45941556  0.83954803  0.04206822  1.0
  Ni  Ni24  1  0.79274889  0.17288136  0.04206822  1.0
  Ni  Ni25  1  0.79274889  0.50621470  0.04206822  1.0
  Ni  Ni26  1  0.79274890  0.83954803  0.04206822  1.0
  Ni  Ni27  1  0.29274890  0.17288136  0.11349679  1.0
  Ni  Ni28  1  0.29274890  0.50621470  0.11349679  1.0
  Ni  Ni29  1  0.29274890  0.83954803  0.11349679  1.0
  Ni  Ni30  1  0.62608223  0.17288136  0.11349679  1.0
  Ni  Ni31  1  0.62608223  0.50621470  0.11349679  1.0
  Ni  Ni32  1  0.62608223  0.83954803  0.11349679  1.0
  Ni  Ni33  1  0.95941556  0.17288136  0.11349679  1.0
  Ni  Ni34  1  0.95941556  0.50621470  0.11349679  1.0
  Ni  Ni35  1  0.95941556  0.83954803  0.11349679  1.0
  Ni  Ni36  1  0.14916596  0.04084589  0.06897576  1.0
  Ni  Ni37  1  0.14916596  0.37417923  0.06897577  1.0
  Ni  Ni38  1  0.14916596  0.70751256  0.06897577  1.0
  Ni  Ni39  1  0.48249929  0.04084589  0.06897576  1.0
  Ni  Ni40  1  0.48249929  0.37417923  0.06897577  1.0
  Ni  Ni41  1  0.48249929  0.70751256  0.06897577  1.0
  Ni  Ni42  1  0.81583263  0.04084589  0.06897576  1.0
  Ni  Ni43  1  0.81583263  0.37417923  0.06897577  1.0
  Ni  Ni44  1  0.81583263  0.70751256  0.06897577  1.0
  Ni  Ni45  1  0.31583263  0.04084589  0.14040434  1.0
  Ni  Ni46  1  0.31583263  0.37417923  0.14040434  1.0
  Ni  Ni47  1  0.31583263  0.70751256  0.14040434  1.0
  Ni  Ni48  1  0.64916596  0.04084589  0.14040434  1.0
  Ni  Ni49  1  0.64916596  0.37417923  0.14040434  1.0
  Ni  Ni50  1  0.64916596  0.70751256  0.14040434  1.0
  Ni  Ni51  1  0.98249929  0.04084589  0.14040434  1.0
  Ni  Ni52  1  0.98249929  0.37417923  0.14040434  1.0
  Ni  Ni53  1  0.98249929  0.70751256  0.14040434  1.0
  Ni  Ni54  1  0.01750996  0.29208067  0.13057571  1.0
  Ni  Ni55  1  0.01750996  0.62541401  0.13057571  1.0
  Ni  Ni56  1  0.01750996  0.95874734  0.13057571  1.0
  Ni  Ni57  1  0.35084329  0.29208067  0.13057571  1.0
  Ni  Ni58  1  0.35084329  0.62541401  0.13057571  1.0
  Ni  Ni59  1  0.35084329  0.95874734  0.13057571  1.0
  Ni  Ni60  1  0.68417663  0.29208067  0.13057571  1.0
  Ni  Ni61  1  0.68417663  0.62541401  0.13057571  1.0
  Ni  Ni62  1  0.68417663  0.95874734  0.13057571  1.0
  Ni  Ni63  1  0.18417663  0.29208067  0.05914714  1.0
  Ni  Ni64  1  0.18417663  0.62541401  0.05914714  1.0
  Ni  Ni65  1  0.18417663  0.95874734  0.05914714  1.0
  Ni  Ni66  1  0.51750996  0.29208067  0.05914714  1.0
  Ni  Ni67  1  0.51750996  0.62541401  0.05914714  1.0
  Ni  Ni68  1  0.51750996  0.95874734  0.05914714  1.0
  Ni  Ni69  1  0.85084329  0.29208067  0.05914714  1.0
  Ni  Ni70  1  0.85084329  0.62541401  0.05914714  1.0
  Ni  Ni71  1  0.85084329  0.95874734  0.05914714  1.0
  Ni  Ni72  1  0.02032014  0.08292331  0.07374436  1.0
  Ni  Ni73  1  0.02032014  0.41625664  0.07374436  1.0
  Ni  Ni74  1  0.02032013  0.74958997  0.07374436  1.0
  Ni  Ni75  1  0.35365347  0.08292331  0.07374436  1.0
  Ni  Ni76  1  0.35365347  0.41625664  0.07374436  1.0
  Ni  Ni77  1  0.35365347  0.74958997  0.07374436  1.0
  Ni  Ni78  1  0.68698680  0.08292331  0.07374436  1.0
  Ni  Ni79  1  0.68698680  0.41625664  0.07374436  1.0
  Ni  Ni80  1  0.68698680  0.74958997  0.07374436  1.0
  Ni  Ni81  1  0.18698680  0.08292331  0.00231579  1.0
  Ni  Ni82  1  0.18698680  0.41625664  0.00231579  1.0
  Ni  Ni83  1  0.18698680  0.74958997  0.00231579  1.0
  Ni  Ni84  1  0.52032013  0.08292331  0.00231579  1.0
  Ni  Ni85  1  0.52032013  0.41625664  0.00231579  1.0
  Ni  Ni86  1  0.52032013  0.74958997  0.00231579  1.0
  Ni  Ni87  1  0.85365347  0.08292331  0.00231579  1.0
  Ni  Ni88  1  0.85365347  0.41625664  0.00231579  1.0
  Ni  Ni89  1  0.85365347  0.74958997  0.00231579  1.0
  Ni  Ni90  1  0.14726257  0.25215451  0.12371929  1.0
  Ni  Ni91  1  0.14726256  0.58548784  0.12371929  1.0
  Ni  Ni92  1  0.14726257  0.91882118  0.12371929  1.0
  Ni  Ni93  1  0.48059590  0.25215451  0.12371929  1.0
  Ni  Ni94  1  0.48059590  0.58548784  0.12371929  1.0
  Ni  Ni95  1  0.48059590  0.91882118  0.12371929  1.0
  Ni  Ni96  1  0.81392923  0.25215451  0.12371929  1.0
  Ni  Ni97  1  0.81392923  0.58548784  0.12371929  1.0
  Ni  Ni98  1  0.81392923  0.91882118  0.12371929  1.0
  Ni  Ni99  1  0.31392923  0.25215451  0.05229072  1.0
  Ni  Ni100  1  0.31392923  0.58548784  0.05229072  1.0
  Ni  Ni101  1  0.31392923  0.91882118  0.05229072  1.0
  Ni  Ni102  1  0.64726257  0.25215451  0.05229072  1.0
  Ni  Ni103  1  0.64726257  0.58548784  0.05229072  1.0
  Ni  Ni104  1  0.64726257  0.91882118  0.05229072  1.0
  Ni  Ni105  1  0.98059590  0.25215451  0.05229072  1.0
  Ni  Ni106  1  0.98059590  0.58548784  0.05229072  1.0
  Ni  Ni107  1  0.98059590  0.91882118  0.05229072  1.0
  Ni  Ni108  1  0.04368440  0.16586454  0.08340493  1.0
  Ni  Ni109  1  0.04368440  0.49919788  0.08340493  1.0
  Ni  Ni110  1  0.04368440  0.83253121  0.08340493  1.0
  Ni  Ni111  1  0.37701773  0.16586454  0.08340493  1.0
  Ni  Ni112  1  0.37701773  0.49919788  0.08340493  1.0
  Ni  Ni113  1  0.37701773  0.83253121  0.08340493  1.0
  Ni  Ni114  1  0.71035106  0.16586454  0.08340493  1.0
  Ni  Ni115  1  0.71035106  0.49919788  0.08340493  1.0
  Ni  Ni116  1  0.71035106  0.83253121  0.08340493  1.0
  Ni  Ni117  1  0.21035106  0.16586454  0.01197636  1.0
  Ni  Ni118  1  0.21035106  0.49919788  0.01197636  1.0
  Ni  Ni119  1  0.21035106  0.83253121  0.01197636  1.0
  Ni  Ni120  1  0.54368439  0.16586454  0.01197636  1.0
  Ni  Ni121  1  0.54368440  0.49919788  0.01197636  1.0
  Ni  Ni122  1  0.54368439  0.83253121  0.01197636  1.0
  Ni  Ni123  1  0.87701773  0.16586454  0.01197636  1.0
  Ni  Ni124  1  0.87701773  0.49919788  0.01197636  1.0
  Ni  Ni125  1  0.87701773  0.83253121  0.01197636  1.0
  Ni  Ni126  1  0.12256339  0.16586454  0.11721022  1.0
  Ni  Ni127  1  0.12256339  0.49919788  0.11721022  1.0
  Ni  Ni128  1  0.12256339  0.83253121  0.11721022  1.0
  Ni  Ni129  1  0.45589672  0.16586454  0.11721022  1.0
  Ni  Ni130  1  0.45589672  0.49919788  0.11721022  1.0
  Ni  Ni131  1  0.45589672  0.83253121  0.11721022  1.0
  Ni  Ni132  1  0.78923005  0.16586454  0.11721022  1.0
  Ni  Ni133  1  0.78923005  0.49919788  0.11721022  1.0
  Ni  Ni134  1  0.78923005  0.83253121  0.11721022  1.0
  Ni  Ni135  1  0.28923005  0.16586454  0.04578164  1.0
  Ni  Ni136  1  0.28923005  0.49919788  0.04578164  1.0
  Ni  Ni137  1  0.28923005  0.83253121  0.04578164  1.0
  Ni  Ni138  1  0.62256339  0.16586454  0.04578164  1.0
  Ni  Ni139  1  0.62256339  0.49919788  0.04578164  1.0
  Ni  Ni140  1  0.62256339  0.83253121  0.04578164  1.0
  Ni  Ni141  1  0.95589672  0.16586454  0.04578164  1.0
  Ni  Ni142  1  0.95589672  0.49919788  0.04578164  1.0
  Ni  Ni143  1  0.95589672  0.83253121  0.04578164  1.0
  Ni  Ni144  1  0.00000063  0.00027197  0.13529144  1.0
  Ni  Ni145  1  0.00000063  0.33360531  0.13529144  1.0
  Ni  Ni146  1  0.00000063  0.66693864  0.13529144  1.0
  Ni  Ni147  1  0.33333396  0.00027197  0.13529144  1.0
  Ni  Ni148  1  0.33333396  0.33360531  0.13529144  1.0
  Ni  Ni149  1  0.33333396  0.66693864  0.13529145  1.0
  Ni  Ni150  1  0.66666729  0.00027197  0.13529144  1.0
  Ni  Ni151  1  0.66666729  0.33360531  0.13529144  1.0
  Ni  Ni152  1  0.66666729  0.66693864  0.13529144  1.0
  Ni  Ni153  1  0.16666729  0.00027197  0.06386287  1.0
  Ni  Ni154  1  0.16666729  0.33360531  0.06386287  1.0
  Ni  Ni155  1  0.16666729  0.66693864  0.06386287  1.0
  Ni  Ni156  1  0.50000063  0.00027197  0.06386287  1.0
  Ni  Ni157  1  0.50000063  0.33360531  0.06386287  1.0
  Ni  Ni158  1  0.50000063  0.66693864  0.06386287  1.0
  Ni  Ni159  1  0.83333396  0.00027197  0.06386287  1.0
  Ni  Ni160  1  0.83333396  0.33360531  0.06386287  1.0
  Ni  Ni161  1  0.83333396  0.66693864  0.06386287  1.0
  Ni  Ni162  1  0.02028846  0.08387028  0.00070836  1.0
  Ni  Ni163  1  0.02028846  0.41720362  0.00070835  1.0
  Ni  Ni164  1  0.02028846  0.75053695  0.00070835  1.0
  Ni  Ni165  1  0.35362179  0.08387028  0.00070835  1.0
  Ni  Ni166  1  0.35362179  0.41720362  0.00070835  1.0
  Ni  Ni167  1  0.35362179  0.75053695  0.00070835  1.0
  Ni  Ni168  1  0.68695512  0.08387028  0.00070835  1.0
  Ni  Ni169  1  0.68695512  0.41720362  0.00070835  1.0
  Ni  Ni170  1  0.68695512  0.75053695  0.00070835  1.0
  Ni  Ni171  1  0.18695512  0.08387028  0.07213693  1.0
  Ni  Ni172  1  0.18695512  0.41720362  0.07213693  1.0
  Ni  Ni173  1  0.18695512  0.75053695  0.07213693  1.0
  Ni  Ni174  1  0.52028846  0.08387028  0.07213693  1.0
  Ni  Ni175  1  0.52028846  0.41720362  0.07213693  1.0
  Ni  Ni176  1  0.52028846  0.75053695  0.07213693  1.0
  Ni  Ni177  1  0.85362179  0.08387028  0.07213693  1.0
  Ni  Ni178  1  0.85362179  0.41720362  0.07213693  1.0
  Ni  Ni179  1  0.85362179  0.75053695  0.07213693  1.0
  Ni  Ni180  1  0.06091284  0.25041725  0.01872353  1.0
  Ni  Ni181  1  0.06091284  0.58375058  0.01872353  1.0
  Ni  Ni182  1  0.06091283  0.91708392  0.01872353  1.0
  Ni  Ni183  1  0.39424617  0.25041725  0.01872353  1.0
  Ni  Ni184  1  0.39424617  0.58375058  0.01872353  1.0
  Ni  Ni185  1  0.39424617  0.91708392  0.01872353  1.0
  Ni  Ni186  1  0.72757950  0.25041725  0.01872353  1.0
  Ni  Ni187  1  0.72757950  0.58375058  0.01872353  1.0
  Ni  Ni188  1  0.72757950  0.91708392  0.01872353  1.0
  Ni  Ni189  1  0.22757950  0.25041725  0.09015211  1.0
  Ni  Ni190  1  0.22757950  0.58375058  0.09015211  1.0
  Ni  Ni191  1  0.22757950  0.91708392  0.09015211  1.0
  Ni  Ni192  1  0.56091284  0.25041725  0.09015211  1.0
  Ni  Ni193  1  0.56091283  0.58375058  0.09015211  1.0
  Ni  Ni194  1  0.56091283  0.91708392  0.09015211  1.0
  Ni  Ni195  1  0.89424617  0.25041725  0.09015211  1.0
  Ni  Ni196  1  0.89424617  0.58375058  0.09015211  1.0
  Ni  Ni197  1  0.89424617  0.91708392  0.09015211  1.0
  Ni  Ni198  1  0.10507116  0.08387028  0.03704380  1.0
  Ni  Ni199  1  0.10507116  0.41720362  0.03704380  1.0
  Ni  Ni200  1  0.10507116  0.75053695  0.03704380  1.0
  Ni  Ni201  1  0.43840450  0.08387028  0.03704380  1.0
  Ni  Ni202  1  0.43840450  0.41720362  0.03704380  1.0
  Ni  Ni203  1  0.43840450  0.75053695  0.03704380  1.0
  Ni  Ni204  1  0.77173783  0.08387028  0.03704380  1.0
  Ni  Ni205  1  0.77173783  0.41720362  0.03704380  1.0
  Ni  Ni206  1  0.77173783  0.75053695  0.03704380  1.0
  Ni  Ni207  1  0.27173783  0.08387028  0.10847237  1.0
  Ni  Ni208  1  0.27173783  0.41720362  0.10847237  1.0
  Ni  Ni209  1  0.27173783  0.75053695  0.10847237  1.0
  Ni  Ni210  1  0.60507116  0.08387028  0.10847237  1.0
  Ni  Ni211  1  0.60507116  0.41720362  0.10847237  1.0
  Ni  Ni212  1  0.60507116  0.75053695  0.10847237  1.0
  Ni  Ni213  1  0.93840449  0.08387028  0.10847237  1.0
  Ni  Ni214  1  0.93840449  0.41720362  0.10847237  1.0
  Ni  Ni215  1  0.93840450  0.75053695  0.10847237  1.0
  Ni  Ni216  1  0.14713445  0.25041725  0.05567565  1.0
  Ni  Ni217  1  0.14713445  0.58375058  0.05567565  1.0
  Ni  Ni218  1  0.14713445  0.91708392  0.05567565  1.0
  Ni  Ni219  1  0.48046778  0.25041725  0.05567565  1.0
  Ni  Ni220  1  0.48046778  0.58375058  0.05567565  1.0
  Ni  Ni221  1  0.48046778  0.91708392  0.05567565  1.0
  Ni  Ni222  1  0.81380111  0.25041725  0.05567565  1.0
  Ni  Ni223  1  0.81380111  0.58375058  0.05567565  1.0
  Ni  Ni224  1  0.81380111  0.91708392  0.05567565  1.0
  Ni  Ni225  1  0.31380111  0.25041725  0.12710422  1.0
  Ni  Ni226  1  0.31380111  0.58375058  0.12710422  1.0
  Ni  Ni227  1  0.31380111  0.91708392  0.12710422  1.0
  Ni  Ni228  1  0.64713445  0.25041725  0.12710422  1.0
  Ni  Ni229  1  0.64713445  0.58375058  0.12710422  1.0
  Ni  Ni230  1  0.64713445  0.91708392  0.12710423  1.0
  Ni  Ni231  1  0.98046778  0.25041725  0.12710423  1.0
  Ni  Ni232  1  0.98046778  0.58375058  0.12710422  1.0
  Ni  Ni233  1  0.98046778  0.91708392  0.12710423  1.0
  Ni  Ni234  1  0.16653134  0.00006070  0.13534645  1.0
  Ni  Ni235  1  0.16653134  0.33339404  0.13534645  1.0
  Ni  Ni236  1  0.16653134  0.66672737  0.13534645  1.0
  Ni  Ni237  1  0.49986467  0.00006070  0.13534645  1.0
  Ni  Ni238  1  0.49986467  0.33339404  0.13534645  1.0
  Ni  Ni239  1  0.49986467  0.66672737  0.13534645  1.0
  Ni  Ni240  1  0.83319801  0.00006070  0.13534645  1.0
  Ni  Ni241  1  0.83319801  0.33339404  0.13534645  1.0
  Ni  Ni242  1  0.83319801  0.66672737  0.13534645  1.0
  Ni  Ni243  1  0.33319801  0.00006070  0.06391788  1.0
  Ni  Ni244  1  0.33319801  0.33339404  0.06391788  1.0
  Ni  Ni245  1  0.33319801  0.66672737  0.06391788  1.0
  Ni  Ni246  1  0.66653134  0.00006070  0.06391788  1.0
  Ni  Ni247  1  0.66653134  0.33339404  0.06391788  1.0
  Ni  Ni248  1  0.66653134  0.66672737  0.06391788  1.0
  Ni  Ni249  1  0.99986467  0.00006070  0.06391788  1.0
  Ni  Ni250  1  0.99986467  0.33339404  0.06391788  1.0
  Ni  Ni251  1  0.99986467  0.66672737  0.06391788  1.0
  Ni  Ni252  1  0.08344340  0.00006070  0.09973733  1.0
  Ni  Ni253  1  0.08344340  0.33339404  0.09973733  1.0
  Ni  Ni254  1  0.08344340  0.66672737  0.09973733  1.0
  Ni  Ni255  1  0.41677673  0.00006070  0.09973733  1.0
  Ni  Ni256  1  0.41677673  0.33339404  0.09973733  1.0
  Ni  Ni257  1  0.41677673  0.66672737  0.09973733  1.0
  Ni  Ni258  1  0.75011007  0.00006070  0.09973733  1.0
  Ni  Ni259  1  0.75011007  0.33339404  0.09973733  1.0
  Ni  Ni260  1  0.75011007  0.66672737  0.09973733  1.0
  Ni  Ni261  1  0.25011007  0.00006070  0.02830876  1.0
  Ni  Ni262  1  0.25011007  0.33339404  0.02830876  1.0
  Ni  Ni263  1  0.25011007  0.66672737  0.02830876  1.0
  Ni  Ni264  1  0.58344340  0.00006070  0.02830876  1.0
  Ni  Ni265  1  0.58344340  0.33339404  0.02830876  1.0
  Ni  Ni266  1  0.58344340  0.66672737  0.02830876  1.0
  Ni  Ni267  1  0.91677673  0.00006070  0.02830876  1.0
  Ni  Ni268  1  0.91677673  0.33339404  0.02830876  1.0
  Ni  Ni269  1  0.91677673  0.66672737  0.02830876  1.0
  Ni  Ni270  1  0.05915412  0.12621890  0.00525970  1.0
  Ni  Ni271  1  0.05915412  0.45955224  0.00525970  1.0
  Ni  Ni272  1  0.05915412  0.79288557  0.00525970  1.0
  Ni  Ni273  1  0.39248745  0.12621890  0.00525970  1.0
  Ni  Ni274  1  0.39248745  0.45955224  0.00525970  1.0
  Ni  Ni275  1  0.39248745  0.79288557  0.00525970  1.0
  Ni  Ni276  1  0.72582078  0.12621890  0.00525970  1.0
  Ni  Ni277  1  0.72582078  0.45955224  0.00525970  1.0
  Ni  Ni278  1  0.72582078  0.79288557  0.00525970  1.0
  Ni  Ni279  1  0.22582078  0.12621890  0.07668827  1.0
  Ni  Ni280  1  0.22582078  0.45955224  0.07668827  1.0
  Ni  Ni281  1  0.22582078  0.79288557  0.07668827  1.0
  Ni  Ni282  1  0.55915412  0.12621890  0.07668827  1.0
  Ni  Ni283  1  0.55915412  0.45955224  0.07668827  1.0
  Ni  Ni284  1  0.55915412  0.79288557  0.07668828  1.0
  Ni  Ni285  1  0.89248745  0.12621890  0.07668827  1.0
  Ni  Ni286  1  0.89248745  0.45955224  0.07668827  1.0
  Ni  Ni287  1  0.89248745  0.79288557  0.07668827  1.0
  Bi  Bi288  1  0.08899154  0.12396491  0.11072044  1.0
  Bi  Bi289  1  0.08899154  0.45729825  0.11072044  1.0
  Bi  Bi290  1  0.08899154  0.79063158  0.11072044  1.0
  Bi  Bi291  1  0.42232487  0.12396491  0.11072044  1.0
  Bi  Bi292  1  0.42232487  0.45729825  0.11072044  1.0
  Bi  Bi293  1  0.42232487  0.79063158  0.11072044  1.0
  Bi  Bi294  1  0.75565821  0.12396491  0.11072044  1.0
  Bi  Bi295  1  0.75565821  0.45729825  0.11072044  1.0
  Bi  Bi296  1  0.75565821  0.79063158  0.11072044  1.0
  Bi  Bi297  1  0.25565821  0.12396491  0.03929187  1.0
  Bi  Bi298  1  0.25565821  0.45729825  0.03929187  1.0
  Bi  Bi299  1  0.25565821  0.79063158  0.03929187  1.0
  Bi  Bi300  1  0.58899154  0.12396491  0.03929187  1.0
  Bi  Bi301  1  0.58899154  0.45729825  0.03929187  1.0
  Bi  Bi302  1  0.58899154  0.79063158  0.03929187  1.0
  Bi  Bi303  1  0.92232487  0.12396491  0.03929187  1.0
  Bi  Bi304  1  0.92232487  0.45729825  0.03929187  1.0
  Bi  Bi305  1  0.92232488  0.79063158  0.03929187  1.0
  Bi  Bi306  1  0.07984042  0.21012291  0.08556130  1.0
  Bi  Bi307  1  0.07984042  0.54345625  0.08556130  1.0
  Bi  Bi308  1  0.07984042  0.87678958  0.08556130  1.0
  Bi  Bi309  1  0.41317376  0.21012291  0.08556130  1.0
  Bi  Bi310  1  0.41317376  0.54345625  0.08556130  1.0
  Bi  Bi311  1  0.41317376  0.87678958  0.08556130  1.0
  Bi  Bi312  1  0.74650709  0.21012291  0.08556130  1.0
  Bi  Bi313  1  0.74650709  0.54345625  0.08556130  1.0
  Bi  Bi314  1  0.74650709  0.87678958  0.08556130  1.0
  Bi  Bi315  1  0.24650709  0.21012291  0.01413273  1.0
  Bi  Bi316  1  0.24650709  0.54345625  0.01413273  1.0
  Bi  Bi317  1  0.24650709  0.87678958  0.01413273  1.0
  Bi  Bi318  1  0.57984042  0.21012291  0.01413273  1.0
  Bi  Bi319  1  0.57984042  0.54345625  0.01413273  1.0
  Bi  Bi320  1  0.57984042  0.87678958  0.01413273  1.0
  Bi  Bi321  1  0.91317376  0.21012291  0.01413273  1.0
  Bi  Bi322  1  0.91317376  0.54345625  0.01413273  1.0
  Bi  Bi323  1  0.91317376  0.87678958  0.01413273  1.0
  Bi  Bi324  1  0.00379560  0.12626186  0.07641653  1.0
  Bi  Bi325  1  0.00379560  0.45959519  0.07641653  1.0
  Bi  Bi326  1  0.00379560  0.79292852  0.07641653  1.0
  Bi  Bi327  1  0.33712894  0.12626186  0.07641652  1.0
  Bi  Bi328  1  0.33712894  0.45959519  0.07641653  1.0
  Bi  Bi329  1  0.33712894  0.79292852  0.07641652  1.0
  Bi  Bi330  1  0.67046227  0.12626186  0.07641653  1.0
  Bi  Bi331  1  0.67046227  0.45959519  0.07641653  1.0
  Bi  Bi332  1  0.67046227  0.79292852  0.07641652  1.0
  Bi  Bi333  1  0.17046227  0.12626186  0.00498795  1.0
  Bi  Bi334  1  0.17046227  0.45959519  0.00498795  1.0
  Bi  Bi335  1  0.17046227  0.79292852  0.00498795  1.0
  Bi  Bi336  1  0.50379560  0.12626186  0.00498795  1.0
  Bi  Bi337  1  0.50379560  0.45959519  0.00498795  1.0
  Bi  Bi338  1  0.50379560  0.79292852  0.00498795  1.0
  Bi  Bi339  1  0.83712894  0.12626186  0.00498795  1.0
  Bi  Bi340  1  0.83712894  0.45959519  0.00498795  1.0
  Bi  Bi341  1  0.83712894  0.79292852  0.00498795  1.0
  Bi  Bi342  1  0.16317186  0.20653424  0.12281603  1.0
  Bi  Bi343  1  0.16317186  0.53986758  0.12281603  1.0
  Bi  Bi344  1  0.16317185  0.87320091  0.12281603  1.0
  Bi  Bi345  1  0.49650519  0.20653424  0.12281603  1.0
  Bi  Bi346  1  0.49650519  0.53986758  0.12281603  1.0
  Bi  Bi347  1  0.49650519  0.87320091  0.12281603  1.0
  Bi  Bi348  1  0.82983852  0.20653424  0.12281603  1.0
  Bi  Bi349  1  0.82983852  0.53986758  0.12281603  1.0
  Bi  Bi350  1  0.82983852  0.87320091  0.12281603  1.0
  Bi  Bi351  1  0.32983852  0.20653424  0.05138746  1.0
  Bi  Bi352  1  0.32983852  0.53986758  0.05138746  1.0
  Bi  Bi353  1  0.32983852  0.87320091  0.05138746  1.0
  Bi  Bi354  1  0.66317185  0.20653424  0.05138746  1.0
  Bi  Bi355  1  0.66317186  0.53986758  0.05138746  1.0
  Bi  Bi356  1  0.66317185  0.87320091  0.05138746  1.0
  Bi  Bi357  1  0.99650519  0.20653424  0.05138746  1.0
  Bi  Bi358  1  0.99650519  0.53986758  0.05138746  1.0
  Bi  Bi359  1  0.99650519  0.87320091  0.05138746  1.0
  Bi  Bi360  1  0.03824235  0.04141162  0.06849224  1.0
  Bi  Bi361  1  0.03824235  0.37474496  0.06849224  1.0
  Bi  Bi362  1  0.03824235  0.70807829  0.06849224  1.0
  Bi  Bi363  1  0.37157568  0.04141162  0.06849224  1.0
  Bi  Bi364  1  0.37157568  0.37474496  0.06849224  1.0
  Bi  Bi365  1  0.37157568  0.70807829  0.06849224  1.0
  Bi  Bi366  1  0.70490901  0.04141162  0.06849224  1.0
  Bi  Bi367  1  0.70490901  0.37474496  0.06849224  1.0
  Bi  Bi368  1  0.70490901  0.70807829  0.06849224  1.0
  Bi  Bi369  1  0.20490901  0.04141162  0.13992081  1.0
  Bi  Bi370  1  0.20490901  0.37474496  0.13992081  1.0
  Bi  Bi371  1  0.20490901  0.70807829  0.13992081  1.0
  Bi  Bi372  1  0.53824235  0.04141162  0.13992081  1.0
  Bi  Bi373  1  0.53824235  0.37474496  0.13992081  1.0
  Bi  Bi374  1  0.53824235  0.70807829  0.13992081  1.0
  Bi  Bi375  1  0.87157568  0.04141162  0.13992081  1.0
  Bi  Bi376  1  0.87157568  0.37474496  0.13992081  1.0
  Bi  Bi377  1  0.87157568  0.70807829  0.13992081  1.0
  Bi  Bi378  1  0.12803217  0.28981970  0.13230187  1.0
  Bi  Bi379  1  0.12803217  0.62315303  0.13230187  1.0
  Bi  Bi380  1  0.12803217  0.95648637  0.13230187  1.0
  Bi  Bi381  1  0.46136550  0.28981970  0.13230187  1.0
  Bi  Bi382  1  0.46136550  0.62315303  0.13230187  1.0
  Bi  Bi383  1  0.46136550  0.95648637  0.13230187  1.0
  Bi  Bi384  1  0.79469883  0.28981970  0.13230187  1.0
  Bi  Bi385  1  0.79469883  0.62315303  0.13230187  1.0
  Bi  Bi386  1  0.79469883  0.95648637  0.13230187  1.0
  Bi  Bi387  1  0.29469883  0.28981970  0.06087330  1.0
  Bi  Bi388  1  0.29469883  0.62315303  0.06087330  1.0
  Bi  Bi389  1  0.29469883  0.95648637  0.06087330  1.0
  Bi  Bi390  1  0.62803217  0.28981970  0.06087330  1.0
  Bi  Bi391  1  0.62803217  0.62315303  0.06087330  1.0
  Bi  Bi392  1  0.62803217  0.95648637  0.06087330  1.0
  Bi  Bi393  1  0.96136550  0.28981970  0.06087330  1.0
  Bi  Bi394  1  0.96136550  0.62315303  0.06087330  1.0
  Bi  Bi395  1  0.96136550  0.95648637  0.06087330  1.0
  Bi  Bi396  1  0.04286475  0.04056945  0.14068057  1.0
  Bi  Bi397  1  0.04286475  0.37390278  0.14068057  1.0
  Bi  Bi398  1  0.04286475  0.70723612  0.14068057  1.0
  Bi  Bi399  1  0.37619809  0.04056945  0.14068057  1.0
  Bi  Bi400  1  0.37619809  0.37390278  0.14068057  1.0
  Bi  Bi401  1  0.37619809  0.70723612  0.14068057  1.0
  Bi  Bi402  1  0.70953142  0.04056945  0.14068057  1.0
  Bi  Bi403  1  0.70953142  0.37390278  0.14068057  1.0
  Bi  Bi404  1  0.70953142  0.70723612  0.14068057  1.0
  Bi  Bi405  1  0.20953142  0.04056945  0.06925200  1.0
  Bi  Bi406  1  0.20953142  0.37390278  0.06925200  1.0
  Bi  Bi407  1  0.20953142  0.70723612  0.06925200  1.0
  Bi  Bi408  1  0.54286475  0.04056945  0.06925200  1.0
  Bi  Bi409  1  0.54286475  0.37390278  0.06925200  1.0
  Bi  Bi410  1  0.54286475  0.70723612  0.06925200  1.0
  Bi  Bi411  1  0.87619809  0.04056945  0.06925200  1.0
  Bi  Bi412  1  0.87619809  0.37390278  0.06925200  1.0
  Bi  Bi413  1  0.87619809  0.70723612  0.06925200  1.0
  Bi  Bi414  1  0.04726275  0.29148315  0.02723389  1.0
  Bi  Bi415  1  0.04726275  0.62481648  0.02723389  1.0
  Bi  Bi416  1  0.04726275  0.95814981  0.02723390  1.0
  Bi  Bi417  1  0.38059608  0.29148315  0.02723389  1.0
  Bi  Bi418  1  0.38059608  0.62481648  0.02723390  1.0
  Bi  Bi419  1  0.38059608  0.95814981  0.02723389  1.0
  Bi  Bi420  1  0.71392942  0.29148315  0.02723389  1.0
  Bi  Bi421  1  0.71392942  0.62481648  0.02723389  1.0
  Bi  Bi422  1  0.71392942  0.95814981  0.02723389  1.0
  Bi  Bi423  1  0.21392942  0.29148315  0.09866247  1.0
  Bi  Bi424  1  0.21392942  0.62481648  0.09866247  1.0
  Bi  Bi425  1  0.21392942  0.95814981  0.09866247  1.0
  Bi  Bi426  1  0.54726275  0.29148315  0.09866247  1.0
  Bi  Bi427  1  0.54726275  0.62481648  0.09866247  1.0
  Bi  Bi428  1  0.54726275  0.95814981  0.09866247  1.0
  Bi  Bi429  1  0.88059608  0.29148315  0.09866247  1.0
  Bi  Bi430  1  0.88059608  0.62481648  0.09866247  1.0
  Bi  Bi431  1  0.88059608  0.95814981  0.09866247  1.0
  Bi  Bi432  1  0.11879918  0.04056945  0.03036675  1.0
  Bi  Bi433  1  0.11879918  0.37390278  0.03036675  1.0
  Bi  Bi434  1  0.11879918  0.70723612  0.03036675  1.0
  Bi  Bi435  1  0.45213251  0.04056945  0.03036675  1.0
  Bi  Bi436  1  0.45213251  0.37390278  0.03036675  1.0
  Bi  Bi437  1  0.45213251  0.70723612  0.03036675  1.0
  Bi  Bi438  1  0.78546584  0.04056945  0.03036675  1.0
  Bi  Bi439  1  0.78546584  0.37390278  0.03036675  1.0
  Bi  Bi440  1  0.78546584  0.70723612  0.03036675  1.0
  Bi  Bi441  1  0.28546584  0.04056945  0.10179533  1.0
  Bi  Bi442  1  0.28546584  0.37390278  0.10179533  1.0
  Bi  Bi443  1  0.28546584  0.70723612  0.10179533  1.0
  Bi  Bi444  1  0.61879917  0.04056945  0.10179533  1.0
  Bi  Bi445  1  0.61879917  0.37390278  0.10179533  1.0
  Bi  Bi446  1  0.61879917  0.70723612  0.10179533  1.0
  Bi  Bi447  1  0.95213251  0.04056945  0.10179533  1.0
  Bi  Bi448  1  0.95213251  0.37390278  0.10179533  1.0
  Bi  Bi449  1  0.95213251  0.70723612  0.10179533  1.0
  Bi  Bi450  1  0.12349779  0.29148315  0.05990605  1.0
  Bi  Bi451  1  0.12349779  0.62481648  0.05990605  1.0
  Bi  Bi452  1  0.12349779  0.95814981  0.05990605  1.0
  Bi  Bi453  1  0.45683112  0.29148315  0.05990605  1.0
  Bi  Bi454  1  0.45683112  0.62481648  0.05990605  1.0
  Bi  Bi455  1  0.45683112  0.95814981  0.05990605  1.0
  Bi  Bi456  1  0.79016445  0.29148315  0.05990605  1.0
  Bi  Bi457  1  0.79016445  0.62481648  0.05990605  1.0
  Bi  Bi458  1  0.79016445  0.95814981  0.05990605  1.0
  Bi  Bi459  1  0.29016445  0.29148315  0.13133462  1.0
  Bi  Bi460  1  0.29016445  0.62481648  0.13133462  1.0
  Bi  Bi461  1  0.29016445  0.95814981  0.13133462  1.0
  Bi  Bi462  1  0.62349779  0.29148315  0.13133462  1.0
  Bi  Bi463  1  0.62349779  0.62481648  0.13133463  1.0
  Bi  Bi464  1  0.62349779  0.95814981  0.13133462  1.0
  Bi  Bi465  1  0.95683112  0.29148315  0.13133462  1.0
  Bi  Bi466  1  0.95683112  0.62481648  0.13133462  1.0
  Bi  Bi467  1  0.95683112  0.95814981  0.13133462  1.0
  Bi  Bi468  1  0.11882478  0.04082674  0.10799406  1.0
  Bi  Bi469  1  0.11882478  0.37416007  0.10799406  1.0
  Bi  Bi470  1  0.11882478  0.70749340  0.10799406  1.0
  Bi  Bi471  1  0.45215811  0.04082674  0.10799406  1.0
  Bi  Bi472  1  0.45215811  0.37416007  0.10799406  1.0
  Bi  Bi473  1  0.45215811  0.70749340  0.10799406  1.0
  Bi  Bi474  1  0.78549145  0.04082674  0.10799406  1.0
  Bi  Bi475  1  0.78549145  0.37416007  0.10799406  1.0
  Bi  Bi476  1  0.78549145  0.70749340  0.10799406  1.0
  Bi  Bi477  1  0.28549145  0.04082674  0.03656549  1.0
  Bi  Bi478  1  0.28549145  0.37416007  0.03656549  1.0
  Bi  Bi479  1  0.28549145  0.70749340  0.03656549  1.0
  Bi  Bi480  1  0.61882478  0.04082674  0.03656549  1.0
  Bi  Bi481  1  0.61882478  0.37416007  0.03656549  1.0
  Bi  Bi482  1  0.61882478  0.70749340  0.03656549  1.0
  Bi  Bi483  1  0.95215811  0.04082674  0.03656549  1.0
  Bi  Bi484  1  0.95215811  0.37416007  0.03656549  1.0
  Bi  Bi485  1  0.95215811  0.70749340  0.03656549  1.0
  Bi  Bi486  1  0.04771019  0.29136184  0.09205492  1.0
  Bi  Bi487  1  0.04771019  0.62469518  0.09205492  1.0
  Bi  Bi488  1  0.04771019  0.95802851  0.09205492  1.0
  Bi  Bi489  1  0.38104353  0.29136184  0.09205492  1.0
  Bi  Bi490  1  0.38104353  0.62469518  0.09205492  1.0
  Bi  Bi491  1  0.38104353  0.95802851  0.09205492  1.0
  Bi  Bi492  1  0.71437686  0.29136184  0.09205492  1.0
  Bi  Bi493  1  0.71437686  0.62469518  0.09205492  1.0
  Bi  Bi494  1  0.71437686  0.95802851  0.09205492  1.0
  Bi  Bi495  1  0.21437686  0.29136184  0.02062634  1.0
  Bi  Bi496  1  0.21437686  0.62469518  0.02062634  1.0
  Bi  Bi497  1  0.21437686  0.95802851  0.02062634  1.0
  Bi  Bi498  1  0.54771019  0.29136184  0.02062634  1.0
  Bi  Bi499  1  0.54771019  0.62469518  0.02062634  1.0
  Bi  Bi500  1  0.54771019  0.95802851  0.02062634  1.0
  Bi  Bi501  1  0.88104353  0.29136184  0.02062634  1.0
  Bi  Bi502  1  0.88104353  0.62469518  0.02062634  1.0
  Bi  Bi503  1  0.88104353  0.95802851  0.02062634  1.0
  Bi  Bi504  1  0.16460394  0.12307709  0.07893927  1.0
  Bi  Bi505  1  0.16460394  0.45641043  0.07893927  1.0
  Bi  Bi506  1  0.16460394  0.78974376  0.07893927  1.0
  Bi  Bi507  1  0.49793727  0.12307709  0.07893927  1.0
  Bi  Bi508  1  0.49793727  0.45641043  0.07893927  1.0
  Bi  Bi509  1  0.49793727  0.78974376  0.07893927  1.0
  Bi  Bi510  1  0.83127060  0.12307709  0.07893927  1.0
  Bi  Bi511  1  0.83127060  0.45641043  0.07893927  1.0
  Bi  Bi512  1  0.83127060  0.78974376  0.07893927  1.0
  Bi  Bi513  1  0.33127060  0.12307709  0.00751069  1.0
  Bi  Bi514  1  0.33127061  0.45641043  0.00751069  1.0
  Bi  Bi515  1  0.33127061  0.78974376  0.00751069  1.0
  Bi  Bi516  1  0.66460394  0.12307709  0.00751069  1.0
  Bi  Bi517  1  0.66460394  0.45641043  0.00751069  1.0
  Bi  Bi518  1  0.66460394  0.78974376  0.00751069  1.0
  Bi  Bi519  1  0.99793727  0.12307709  0.00751069  1.0
  Bi  Bi520  1  0.99793727  0.45641043  0.00751069  1.0
  Bi  Bi521  1  0.99793727  0.78974376  0.00751069  1.0
  Bi  Bi522  1  0.07872234  0.20879518  0.01394827  1.0
  Bi  Bi523  1  0.07872234  0.54212851  0.01394827  1.0
  Bi  Bi524  1  0.07872234  0.87546184  0.01394827  1.0
  Bi  Bi525  1  0.41205567  0.20879518  0.01394827  1.0
  Bi  Bi526  1  0.41205567  0.54212851  0.01394827  1.0
  Bi  Bi527  1  0.41205567  0.87546184  0.01394827  1.0
  Bi  Bi528  1  0.74538900  0.20879518  0.01394827  1.0
  Bi  Bi529  1  0.74538900  0.54212851  0.01394827  1.0
  Bi  Bi530  1  0.74538900  0.87546184  0.01394827  1.0
  Bi  Bi531  1  0.24538900  0.20879518  0.08537684  1.0
  Bi  Bi532  1  0.24538900  0.54212851  0.08537684  1.0
  Bi  Bi533  1  0.24538900  0.87546184  0.08537684  1.0
  Bi  Bi534  1  0.57872234  0.20879518  0.08537684  1.0
  Bi  Bi535  1  0.57872233  0.54212851  0.08537684  1.0
  Bi  Bi536  1  0.57872234  0.87546184  0.08537684  1.0
  Bi  Bi537  1  0.91205567  0.20879518  0.08537684  1.0
  Bi  Bi538  1  0.91205567  0.54212851  0.08537684  1.0
  Bi  Bi539  1  0.91205567  0.87546184  0.08537684  1.0
  Bi  Bi540  1  0.08870729  0.12307709  0.04641213  1.0
  Bi  Bi541  1  0.08870729  0.45641043  0.04641213  1.0
  Bi  Bi542  1  0.08870729  0.78974376  0.04641213  1.0
  Bi  Bi543  1  0.42204062  0.12307709  0.04641213  1.0
  Bi  Bi544  1  0.42204062  0.45641043  0.04641213  1.0
  Bi  Bi545  1  0.42204062  0.78974376  0.04641213  1.0
  Bi  Bi546  1  0.75537395  0.12307709  0.04641213  1.0
  Bi  Bi547  1  0.75537395  0.45641043  0.04641213  1.0
  Bi  Bi548  1  0.75537395  0.78974376  0.04641213  1.0
  Bi  Bi549  1  0.25537395  0.12307709  0.11784070  1.0
  Bi  Bi550  1  0.25537395  0.45641043  0.11784070  1.0
  Bi  Bi551  1  0.25537395  0.78974376  0.11784070  1.0
  Bi  Bi552  1  0.58870729  0.12307709  0.11784070  1.0
  Bi  Bi553  1  0.58870729  0.45641043  0.11784070  1.0
  Bi  Bi554  1  0.58870729  0.78974376  0.11784070  1.0
  Bi  Bi555  1  0.92204062  0.12307709  0.11784070  1.0
  Bi  Bi556  1  0.92204062  0.45641043  0.11784070  1.0
  Bi  Bi557  1  0.92204062  0.78974376  0.11784070  1.0
  Bi  Bi558  1  0.16461188  0.20879518  0.05075807  1.0
  Bi  Bi559  1  0.16461188  0.54212851  0.05075807  1.0
  Bi  Bi560  1  0.16461188  0.87546184  0.05075807  1.0
  Bi  Bi561  1  0.49794521  0.20879518  0.05075807  1.0
  Bi  Bi562  1  0.49794521  0.54212851  0.05075807  1.0
  Bi  Bi563  1  0.49794521  0.87546184  0.05075807  1.0
  Bi  Bi564  1  0.83127854  0.20879518  0.05075807  1.0
  Bi  Bi565  1  0.83127854  0.54212851  0.05075807  1.0
  Bi  Bi566  1  0.83127854  0.87546184  0.05075807  1.0
  Bi  Bi567  1  0.33127855  0.20879518  0.12218664  1.0
  Bi  Bi568  1  0.33127854  0.54212851  0.12218664  1.0
  Bi  Bi569  1  0.33127854  0.87546184  0.12218664  1.0
  Bi  Bi570  1  0.66461188  0.20879518  0.12218664  1.0
  Bi  Bi571  1  0.66461188  0.54212851  0.12218664  1.0
  Bi  Bi572  1  0.66461188  0.87546184  0.12218664  1.0
  Bi  Bi573  1  0.99794521  0.20879518  0.12218664  1.0
  Bi  Bi574  1  0.99794521  0.54212851  0.12218664  1.0
  Bi  Bi575  1  0.99794521  0.87546184  0.12218664  1.0
  Ni  Ni576  1  0.04191281  0.16451091  0.15387338  1.0
  Ni  Ni577  1  0.04191281  0.49784424  0.15387338  1.0
  Ni  Ni578  1  0.04191281  0.83117758  0.15387338  1.0
  Ni  Ni579  1  0.37524614  0.16451091  0.15387338  1.0
  Ni  Ni580  1  0.37524614  0.49784424  0.15387338  1.0
  Ni  Ni581  1  0.37524614  0.83117758  0.15387338  1.0
  Ni  Ni582  1  0.70857947  0.16451091  0.15387338  1.0
  Ni  Ni583  1  0.70857947  0.49784424  0.15387338  1.0
  Ni  Ni584  1  0.70857947  0.83117758  0.15387338  1.0
  Ni  Ni585  1  0.20857947  0.16451091  0.22530195  1.0
  Ni  Ni586  1  0.20857947  0.49784424  0.22530195  1.0
  Ni  Ni587  1  0.20857947  0.83117758  0.22530195  1.0
  Ni  Ni588  1  0.54191281  0.16451091  0.22530195  1.0
  Ni  Ni589  1  0.54191281  0.49784424  0.22530195  1.0
  Ni  Ni590  1  0.54191281  0.83117758  0.22530195  1.0
  Ni  Ni591  1  0.87524614  0.16451091  0.22530195  1.0
  Ni  Ni592  1  0.87524614  0.49784424  0.22530195  1.0
  Ni  Ni593  1  0.87524614  0.83117758  0.22530195  1.0
  Ni  Ni594  1  0.12608223  0.17288136  0.18492536  1.0
  Ni  Ni595  1  0.12608223  0.50621470  0.18492536  1.0
  Ni  Ni596  1  0.12608223  0.83954803  0.18492536  1.0
  Ni  Ni597  1  0.45941556  0.17288136  0.18492536  1.0
  Ni  Ni598  1  0.45941556  0.50621470  0.18492536  1.0
  Ni  Ni599  1  0.45941556  0.83954803  0.18492536  1.0
  Ni  Ni600  1  0.79274889  0.17288136  0.18492536  1.0
  Ni  Ni601  1  0.79274889  0.50621470  0.18492536  1.0
  Ni  Ni602  1  0.79274890  0.83954803  0.18492536  1.0
  Ni  Ni603  1  0.29274890  0.17288136  0.25635393  1.0
  Ni  Ni604  1  0.29274890  0.50621470  0.25635393  1.0
  Ni  Ni605  1  0.29274890  0.83954803  0.25635393  1.0
  Ni  Ni606  1  0.62608223  0.17288136  0.25635393  1.0
  Ni  Ni607  1  0.62608223  0.50621470  0.25635393  1.0
  Ni  Ni608  1  0.62608223  0.83954803  0.25635393  1.0
  Ni  Ni609  1  0.95941556  0.17288136  0.25635393  1.0
  Ni  Ni610  1  0.95941556  0.50621470  0.25635393  1.0
  Ni  Ni611  1  0.95941556  0.83954803  0.25635393  1.0
  Ni  Ni612  1  0.14916596  0.04084589  0.21183291  1.0
  Ni  Ni613  1  0.14916596  0.37417923  0.21183291  1.0
  Ni  Ni614  1  0.14916596  0.70751256  0.21183291  1.0
  Ni  Ni615  1  0.48249929  0.04084589  0.21183291  1.0
  Ni  Ni616  1  0.48249929  0.37417923  0.21183291  1.0
  Ni  Ni617  1  0.48249929  0.70751256  0.21183291  1.0
  Ni  Ni618  1  0.81583263  0.04084589  0.21183291  1.0
  Ni  Ni619  1  0.81583263  0.37417923  0.21183291  1.0
  Ni  Ni620  1  0.81583263  0.70751256  0.21183291  1.0
  Ni  Ni621  1  0.31583263  0.04084589  0.28326148  1.0
  Ni  Ni622  1  0.31583263  0.37417923  0.28326148  1.0
  Ni  Ni623  1  0.31583263  0.70751256  0.28326148  1.0
  Ni  Ni624  1  0.64916596  0.04084589  0.28326148  1.0
  Ni  Ni625  1  0.64916596  0.37417923  0.28326148  1.0
  Ni  Ni626  1  0.64916596  0.70751256  0.28326148  1.0
  Ni  Ni627  1  0.98249929  0.04084589  0.28326148  1.0
  Ni  Ni628  1  0.98249929  0.37417923  0.28326148  1.0
  Ni  Ni629  1  0.98249929  0.70751256  0.28326148  1.0
  Ni  Ni630  1  0.01750996  0.29208067  0.27343286  1.0
  Ni  Ni631  1  0.01750996  0.62541401  0.27343286  1.0
  Ni  Ni632  1  0.01750996  0.95874734  0.27343286  1.0
  Ni  Ni633  1  0.35084329  0.29208067  0.27343286  1.0
  Ni  Ni634  1  0.35084329  0.62541401  0.27343286  1.0
  Ni  Ni635  1  0.35084329  0.95874734  0.27343286  1.0
  Ni  Ni636  1  0.68417663  0.29208067  0.27343286  1.0
  Ni  Ni637  1  0.68417663  0.62541401  0.27343286  1.0
  Ni  Ni638  1  0.68417663  0.95874734  0.27343286  1.0
  Ni  Ni639  1  0.18417663  0.29208067  0.20200429  1.0
  Ni  Ni640  1  0.18417663  0.62541401  0.20200429  1.0
  Ni  Ni641  1  0.18417663  0.95874734  0.20200429  1.0
  Ni  Ni642  1  0.51750996  0.29208067  0.20200429  1.0
  Ni  Ni643  1  0.51750996  0.62541401  0.20200429  1.0
  Ni  Ni644  1  0.51750996  0.95874734  0.20200429  1.0
  Ni  Ni645  1  0.85084329  0.29208067  0.20200429  1.0
  Ni  Ni646  1  0.85084329  0.62541401  0.20200429  1.0
  Ni  Ni647  1  0.85084329  0.95874734  0.20200429  1.0
  Ni  Ni648  1  0.02032014  0.08292331  0.21660151  1.0
  Ni  Ni649  1  0.02032014  0.41625664  0.21660151  1.0
  Ni  Ni650  1  0.02032013  0.74958997  0.21660151  1.0
  Ni  Ni651  1  0.35365347  0.08292331  0.21660151  1.0
  Ni  Ni652  1  0.35365347  0.41625664  0.21660151  1.0
  Ni  Ni653  1  0.35365347  0.74958997  0.21660151  1.0
  Ni  Ni654  1  0.68698680  0.08292331  0.21660151  1.0
  Ni  Ni655  1  0.68698680  0.41625664  0.21660151  1.0
  Ni  Ni656  1  0.68698680  0.74958997  0.21660151  1.0
  Ni  Ni657  1  0.18698680  0.08292331  0.14517293  1.0
  Ni  Ni658  1  0.18698680  0.41625664  0.14517293  1.0
  Ni  Ni659  1  0.18698680  0.74958997  0.14517293  1.0
  Ni  Ni660  1  0.52032013  0.08292331  0.14517293  1.0
  Ni  Ni661  1  0.52032013  0.41625664  0.14517293  1.0
  Ni  Ni662  1  0.52032013  0.74958997  0.14517293  1.0
  Ni  Ni663  1  0.85365347  0.08292331  0.14517293  1.0
  Ni  Ni664  1  0.85365347  0.41625664  0.14517293  1.0
  Ni  Ni665  1  0.85365347  0.74958997  0.14517293  1.0
  Ni  Ni666  1  0.14726257  0.25215451  0.26657644  1.0
  Ni  Ni667  1  0.14726256  0.58548784  0.26657644  1.0
  Ni  Ni668  1  0.14726257  0.91882118  0.26657644  1.0
  Ni  Ni669  1  0.48059590  0.25215451  0.26657644  1.0
  Ni  Ni670  1  0.48059590  0.58548784  0.26657644  1.0
  Ni  Ni671  1  0.48059590  0.91882118  0.26657644  1.0
  Ni  Ni672  1  0.81392923  0.25215451  0.26657644  1.0
  Ni  Ni673  1  0.81392923  0.58548784  0.26657644  1.0
  Ni  Ni674  1  0.81392923  0.91882118  0.26657644  1.0
  Ni  Ni675  1  0.31392923  0.25215451  0.19514787  1.0
  Ni  Ni676  1  0.31392923  0.58548784  0.19514787  1.0
  Ni  Ni677  1  0.31392923  0.91882118  0.19514787  1.0
  Ni  Ni678  1  0.64726257  0.25215451  0.19514787  1.0
  Ni  Ni679  1  0.64726257  0.58548784  0.19514787  1.0
  Ni  Ni680  1  0.64726257  0.91882118  0.19514787  1.0
  Ni  Ni681  1  0.98059590  0.25215451  0.19514787  1.0
  Ni  Ni682  1  0.98059590  0.58548784  0.19514787  1.0
  Ni  Ni683  1  0.98059590  0.91882118  0.19514787  1.0
  Ni  Ni684  1  0.04368440  0.16586454  0.22626208  1.0
  Ni  Ni685  1  0.04368440  0.49919788  0.22626208  1.0
  Ni  Ni686  1  0.04368440  0.83253121  0.22626208  1.0
  Ni  Ni687  1  0.37701773  0.16586454  0.22626208  1.0
  Ni  Ni688  1  0.37701773  0.49919788  0.22626208  1.0
  Ni  Ni689  1  0.37701773  0.83253121  0.22626208  1.0
  Ni  Ni690  1  0.71035106  0.16586454  0.22626208  1.0
  Ni  Ni691  1  0.71035106  0.49919788  0.22626208  1.0
  Ni  Ni692  1  0.71035106  0.83253121  0.22626208  1.0
  Ni  Ni693  1  0.21035106  0.16586454  0.15483350  1.0
  Ni  Ni694  1  0.21035106  0.49919788  0.15483350  1.0
  Ni  Ni695  1  0.21035106  0.83253121  0.15483350  1.0
  Ni  Ni696  1  0.54368439  0.16586454  0.15483350  1.0
  Ni  Ni697  1  0.54368440  0.49919788  0.15483350  1.0
  Ni  Ni698  1  0.54368439  0.83253121  0.15483350  1.0
  Ni  Ni699  1  0.87701773  0.16586454  0.15483350  1.0
  Ni  Ni700  1  0.87701773  0.49919788  0.15483350  1.0
  Ni  Ni701  1  0.87701773  0.83253121  0.15483350  1.0
  Ni  Ni702  1  0.12256339  0.16586454  0.26006736  1.0
  Ni  Ni703  1  0.12256339  0.49919788  0.26006736  1.0
  Ni  Ni704  1  0.12256339  0.83253121  0.26006736  1.0
  Ni  Ni705  1  0.45589672  0.16586454  0.26006736  1.0
  Ni  Ni706  1  0.45589672  0.49919788  0.26006736  1.0
  Ni  Ni707  1  0.45589672  0.83253121  0.26006736  1.0
  Ni  Ni708  1  0.78923005  0.16586454  0.26006736  1.0
  Ni  Ni709  1  0.78923005  0.49919788  0.26006736  1.0
  Ni  Ni710  1  0.78923005  0.83253121  0.26006736  1.0
  Ni  Ni711  1  0.28923005  0.16586454  0.18863879  1.0
  Ni  Ni712  1  0.28923005  0.49919788  0.18863879  1.0
  Ni  Ni713  1  0.28923005  0.83253121  0.18863879  1.0
  Ni  Ni714  1  0.62256339  0.16586454  0.18863879  1.0
  Ni  Ni715  1  0.62256339  0.49919788  0.18863879  1.0
  Ni  Ni716  1  0.62256339  0.83253121  0.18863879  1.0
  Ni  Ni717  1  0.95589672  0.16586454  0.18863879  1.0
  Ni  Ni718  1  0.95589672  0.49919788  0.18863879  1.0
  Ni  Ni719  1  0.95589672  0.83253121  0.18863879  1.0
  Ni  Ni720  1  0.00000063  0.00027197  0.27814859  1.0
  Ni  Ni721  1  0.00000063  0.33360531  0.27814859  1.0
  Ni  Ni722  1  0.00000063  0.66693864  0.27814859  1.0
  Ni  Ni723  1  0.33333396  0.00027197  0.27814859  1.0
  Ni  Ni724  1  0.33333396  0.33360531  0.27814859  1.0
  Ni  Ni725  1  0.33333396  0.66693864  0.27814859  1.0
  Ni  Ni726  1  0.66666729  0.00027197  0.27814859  1.0
  Ni  Ni727  1  0.66666729  0.33360531  0.27814859  1.0
  Ni  Ni728  1  0.66666729  0.66693864  0.27814859  1.0
  Ni  Ni729  1  0.16666729  0.00027197  0.20672002  1.0
  Ni  Ni730  1  0.16666729  0.33360531  0.20672002  1.0
  Ni  Ni731  1  0.16666729  0.66693864  0.20672002  1.0
  Ni  Ni732  1  0.50000063  0.00027197  0.20672002  1.0
  Ni  Ni733  1  0.50000063  0.33360531  0.20672002  1.0
  Ni  Ni734  1  0.50000063  0.66693864  0.20672002  1.0
  Ni  Ni735  1  0.83333396  0.00027197  0.20672002  1.0
  Ni  Ni736  1  0.83333396  0.33360531  0.20672002  1.0
  Ni  Ni737  1  0.83333396  0.66693864  0.20672002  1.0
  Ni  Ni738  1  0.02028846  0.08387028  0.14356550  1.0
  Ni  Ni739  1  0.02028846  0.41720362  0.14356550  1.0
  Ni  Ni740  1  0.02028846  0.75053695  0.14356550  1.0
  Ni  Ni741  1  0.35362179  0.08387028  0.14356550  1.0
  Ni  Ni742  1  0.35362179  0.41720362  0.14356550  1.0
  Ni  Ni743  1  0.35362179  0.75053695  0.14356550  1.0
  Ni  Ni744  1  0.68695512  0.08387028  0.14356550  1.0
  Ni  Ni745  1  0.68695512  0.41720362  0.14356550  1.0
  Ni  Ni746  1  0.68695512  0.75053695  0.14356550  1.0
  Ni  Ni747  1  0.18695512  0.08387028  0.21499407  1.0
  Ni  Ni748  1  0.18695512  0.41720362  0.21499407  1.0
  Ni  Ni749  1  0.18695512  0.75053695  0.21499407  1.0
  Ni  Ni750  1  0.52028846  0.08387028  0.21499407  1.0
  Ni  Ni751  1  0.52028846  0.41720362  0.21499407  1.0
  Ni  Ni752  1  0.52028846  0.75053695  0.21499407  1.0
  Ni  Ni753  1  0.85362179  0.08387028  0.21499407  1.0
  Ni  Ni754  1  0.85362179  0.41720362  0.21499407  1.0
  Ni  Ni755  1  0.85362179  0.75053695  0.21499407  1.0
  Ni  Ni756  1  0.06091284  0.25041725  0.16158068  1.0
  Ni  Ni757  1  0.06091284  0.58375058  0.16158068  1.0
  Ni  Ni758  1  0.06091283  0.91708392  0.16158068  1.0
  Ni  Ni759  1  0.39424617  0.25041725  0.16158068  1.0
  Ni  Ni760  1  0.39424617  0.58375058  0.16158068  1.0
  Ni  Ni761  1  0.39424617  0.91708392  0.16158068  1.0
  Ni  Ni762  1  0.72757950  0.25041725  0.16158068  1.0
  Ni  Ni763  1  0.72757950  0.58375058  0.16158068  1.0
  Ni  Ni764  1  0.72757950  0.91708392  0.16158068  1.0
  Ni  Ni765  1  0.22757950  0.25041725  0.23300925  1.0
  Ni  Ni766  1  0.22757950  0.58375058  0.23300925  1.0
  Ni  Ni767  1  0.22757950  0.91708392  0.23300925  1.0
  Ni  Ni768  1  0.56091284  0.25041725  0.23300925  1.0
  Ni  Ni769  1  0.56091283  0.58375058  0.23300925  1.0
  Ni  Ni770  1  0.56091283  0.91708392  0.23300925  1.0
  Ni  Ni771  1  0.89424617  0.25041725  0.23300925  1.0
  Ni  Ni772  1  0.89424617  0.58375058  0.23300925  1.0
  Ni  Ni773  1  0.89424617  0.91708392  0.23300925  1.0
  Ni  Ni774  1  0.10507116  0.08387028  0.17990094  1.0
  Ni  Ni775  1  0.10507116  0.41720362  0.17990094  1.0
  Ni  Ni776  1  0.10507116  0.75053695  0.17990094  1.0
  Ni  Ni777  1  0.43840450  0.08387028  0.17990094  1.0
  Ni  Ni778  1  0.43840450  0.41720362  0.17990094  1.0
  Ni  Ni779  1  0.43840450  0.75053695  0.17990094  1.0
  Ni  Ni780  1  0.77173783  0.08387028  0.17990094  1.0
  Ni  Ni781  1  0.77173783  0.41720362  0.17990094  1.0
  Ni  Ni782  1  0.77173783  0.75053695  0.17990094  1.0
  Ni  Ni783  1  0.27173783  0.08387028  0.25132951  1.0
  Ni  Ni784  1  0.27173783  0.41720362  0.25132951  1.0
  Ni  Ni785  1  0.27173783  0.75053695  0.25132951  1.0
  Ni  Ni786  1  0.60507116  0.08387028  0.25132951  1.0
  Ni  Ni787  1  0.60507116  0.41720362  0.25132951  1.0
  Ni  Ni788  1  0.60507116  0.75053695  0.25132951  1.0
  Ni  Ni789  1  0.93840449  0.08387028  0.25132951  1.0
  Ni  Ni790  1  0.93840449  0.41720362  0.25132951  1.0
  Ni  Ni791  1  0.93840450  0.75053695  0.25132951  1.0
  Ni  Ni792  1  0.14713445  0.25041725  0.19853280  1.0
  Ni  Ni793  1  0.14713445  0.58375058  0.19853280  1.0
  Ni  Ni794  1  0.14713445  0.91708392  0.19853280  1.0
  Ni  Ni795  1  0.48046778  0.25041725  0.19853280  1.0
  Ni  Ni796  1  0.48046778  0.58375058  0.19853280  1.0
  Ni  Ni797  1  0.48046778  0.91708392  0.19853280  1.0
  Ni  Ni798  1  0.81380111  0.25041725  0.19853280  1.0
  Ni  Ni799  1  0.81380111  0.58375058  0.19853280  1.0
  Ni  Ni800  1  0.81380111  0.91708392  0.19853280  1.0
  Ni  Ni801  1  0.31380111  0.25041725  0.26996137  1.0
  Ni  Ni802  1  0.31380111  0.58375058  0.26996137  1.0
  Ni  Ni803  1  0.31380111  0.91708392  0.26996137  1.0
  Ni  Ni804  1  0.64713445  0.25041725  0.26996137  1.0
  Ni  Ni805  1  0.64713445  0.58375058  0.26996137  1.0
  Ni  Ni806  1  0.64713445  0.91708392  0.26996137  1.0
  Ni  Ni807  1  0.98046778  0.25041725  0.26996137  1.0
  Ni  Ni808  1  0.98046778  0.58375058  0.26996137  1.0
  Ni  Ni809  1  0.98046778  0.91708392  0.26996137  1.0
  Ni  Ni810  1  0.16653134  0.00006070  0.27820359  1.0
  Ni  Ni811  1  0.16653134  0.33339404  0.27820359  1.0
  Ni  Ni812  1  0.16653134  0.66672737  0.27820359  1.0
  Ni  Ni813  1  0.49986467  0.00006070  0.27820359  1.0
  Ni  Ni814  1  0.49986467  0.33339404  0.27820359  1.0
  Ni  Ni815  1  0.49986467  0.66672737  0.27820359  1.0
  Ni  Ni816  1  0.83319801  0.00006070  0.27820359  1.0
  Ni  Ni817  1  0.83319801  0.33339404  0.27820359  1.0
  Ni  Ni818  1  0.83319801  0.66672737  0.27820359  1.0
  Ni  Ni819  1  0.33319801  0.00006070  0.20677502  1.0
  Ni  Ni820  1  0.33319801  0.33339404  0.20677502  1.0
  Ni  Ni821  1  0.33319801  0.66672737  0.20677502  1.0
  Ni  Ni822  1  0.66653134  0.00006070  0.20677502  1.0
  Ni  Ni823  1  0.66653134  0.33339404  0.20677502  1.0
  Ni  Ni824  1  0.66653134  0.66672737  0.20677502  1.0
  Ni  Ni825  1  0.99986467  0.00006070  0.20677502  1.0
  Ni  Ni826  1  0.99986467  0.33339404  0.20677502  1.0
  Ni  Ni827  1  0.99986467  0.66672737  0.20677502  1.0
  Ni  Ni828  1  0.08344340  0.00006070  0.24259447  1.0
  Ni  Ni829  1  0.08344340  0.33339404  0.24259447  1.0
  Ni  Ni830  1  0.08344340  0.66672737  0.24259447  1.0
  Ni  Ni831  1  0.41677673  0.00006070  0.24259447  1.0
  Ni  Ni832  1  0.41677673  0.33339404  0.24259447  1.0
  Ni  Ni833  1  0.41677673  0.66672737  0.24259447  1.0
  Ni  Ni834  1  0.75011007  0.00006070  0.24259447  1.0
  Ni  Ni835  1  0.75011007  0.33339404  0.24259447  1.0
  Ni  Ni836  1  0.75011007  0.66672737  0.24259447  1.0
  Ni  Ni837  1  0.25011007  0.00006070  0.17116590  1.0
  Ni  Ni838  1  0.25011007  0.33339404  0.17116590  1.0
  Ni  Ni839  1  0.25011007  0.66672737  0.17116590  1.0
  Ni  Ni840  1  0.58344340  0.00006070  0.17116590  1.0
  Ni  Ni841  1  0.58344340  0.33339404  0.17116590  1.0
  Ni  Ni842  1  0.58344340  0.66672737  0.17116590  1.0
  Ni  Ni843  1  0.91677673  0.00006070  0.17116590  1.0
  Ni  Ni844  1  0.91677673  0.33339404  0.17116590  1.0
  Ni  Ni845  1  0.91677673  0.66672737  0.17116590  1.0
  Ni  Ni846  1  0.05915412  0.12621890  0.14811685  1.0
  Ni  Ni847  1  0.05915412  0.45955224  0.14811685  1.0
  Ni  Ni848  1  0.05915412  0.79288557  0.14811685  1.0
  Ni  Ni849  1  0.39248745  0.12621890  0.14811685  1.0
  Ni  Ni850  1  0.39248745  0.45955224  0.14811685  1.0
  Ni  Ni851  1  0.39248745  0.79288557  0.14811685  1.0
  Ni  Ni852  1  0.72582078  0.12621890  0.14811685  1.0
  Ni  Ni853  1  0.72582078  0.45955224  0.14811685  1.0
  Ni  Ni854  1  0.72582078  0.79288557  0.14811685  1.0
  Ni  Ni855  1  0.22582078  0.12621890  0.21954542  1.0
  Ni  Ni856  1  0.22582078  0.45955224  0.21954542  1.0
  Ni  Ni857  1  0.22582078  0.79288557  0.21954542  1.0
  Ni  Ni858  1  0.55915412  0.12621890  0.21954542  1.0
  Ni  Ni859  1  0.55915412  0.45955224  0.21954542  1.0
  Ni  Ni860  1  0.55915412  0.79288557  0.21954542  1.0
  Ni  Ni861  1  0.89248745  0.12621890  0.21954542  1.0
  Ni  Ni862  1  0.89248745  0.45955224  0.21954542  1.0
  Ni  Ni863  1  0.89248745  0.79288557  0.21954542  1.0
  Bi  Bi864  1  0.08899154  0.12396491  0.25357758  1.0
  Bi  Bi865  1  0.08899154  0.45729825  0.25357758  1.0
  Bi  Bi866  1  0.08899154  0.79063158  0.25357758  1.0
  Bi  Bi867  1  0.42232487  0.12396491  0.25357758  1.0
  Bi  Bi868  1  0.42232487  0.45729825  0.25357758  1.0
  Bi  Bi869  1  0.42232487  0.79063158  0.25357758  1.0
  Bi  Bi870  1  0.75565821  0.12396491  0.25357758  1.0
  Bi  Bi871  1  0.75565821  0.45729825  0.25357758  1.0
  Bi  Bi872  1  0.75565821  0.79063158  0.25357758  1.0
  Bi  Bi873  1  0.25565821  0.12396491  0.18214901  1.0
  Bi  Bi874  1  0.25565821  0.45729825  0.18214901  1.0
  Bi  Bi875  1  0.25565821  0.79063158  0.18214901  1.0
  Bi  Bi876  1  0.58899154  0.12396491  0.18214901  1.0
  Bi  Bi877  1  0.58899154  0.45729825  0.18214901  1.0
  Bi  Bi878  1  0.58899154  0.79063158  0.18214901  1.0
  Bi  Bi879  1  0.92232487  0.12396491  0.18214901  1.0
  Bi  Bi880  1  0.92232487  0.45729825  0.18214901  1.0
  Bi  Bi881  1  0.92232488  0.79063158  0.18214901  1.0
  Bi  Bi882  1  0.07984042  0.21012291  0.22841845  1.0
  Bi  Bi883  1  0.07984042  0.54345625  0.22841845  1.0
  Bi  Bi884  1  0.07984042  0.87678958  0.22841845  1.0
  Bi  Bi885  1  0.41317376  0.21012291  0.22841845  1.0
  Bi  Bi886  1  0.41317376  0.54345625  0.22841845  1.0
  Bi  Bi887  1  0.41317376  0.87678958  0.22841845  1.0
  Bi  Bi888  1  0.74650709  0.21012291  0.22841845  1.0
  Bi  Bi889  1  0.74650709  0.54345625  0.22841845  1.0
  Bi  Bi890  1  0.74650709  0.87678958  0.22841845  1.0
  Bi  Bi891  1  0.24650709  0.21012291  0.15698987  1.0
  Bi  Bi892  1  0.24650709  0.54345625  0.15698987  1.0
  Bi  Bi893  1  0.24650709  0.87678958  0.15698987  1.0
  Bi  Bi894  1  0.57984042  0.21012291  0.15698987  1.0
  Bi  Bi895  1  0.57984042  0.54345625  0.15698987  1.0
  Bi  Bi896  1  0.57984042  0.87678958  0.15698987  1.0
  Bi  Bi897  1  0.91317376  0.21012291  0.15698987  1.0
  Bi  Bi898  1  0.91317376  0.54345625  0.15698987  1.0
  Bi  Bi899  1  0.91317376  0.87678958  0.15698988  1.0
  Bi  Bi900  1  0.00379560  0.12626186  0.21927367  1.0
  Bi  Bi901  1  0.00379560  0.45959519  0.21927367  1.0
  Bi  Bi902  1  0.00379560  0.79292852  0.21927367  1.0
  Bi  Bi903  1  0.33712894  0.12626186  0.21927367  1.0
  Bi  Bi904  1  0.33712894  0.45959519  0.21927367  1.0
  Bi  Bi905  1  0.33712894  0.79292852  0.21927367  1.0
  Bi  Bi906  1  0.67046227  0.12626186  0.21927367  1.0
  Bi  Bi907  1  0.67046227  0.45959519  0.21927367  1.0
  Bi  Bi908  1  0.67046227  0.79292852  0.21927367  1.0
  Bi  Bi909  1  0.17046227  0.12626186  0.14784510  1.0
  Bi  Bi910  1  0.17046227  0.45959519  0.14784510  1.0
  Bi  Bi911  1  0.17046227  0.79292852  0.14784510  1.0
  Bi  Bi912  1  0.50379560  0.12626186  0.14784510  1.0
  Bi  Bi913  1  0.50379560  0.45959519  0.14784510  1.0
  Bi  Bi914  1  0.50379560  0.79292852  0.14784510  1.0
  Bi  Bi915  1  0.83712894  0.12626186  0.14784510  1.0
  Bi  Bi916  1  0.83712894  0.45959519  0.14784510  1.0
  Bi  Bi917  1  0.83712894  0.79292852  0.14784510  1.0
  Bi  Bi918  1  0.16317186  0.20653424  0.26567318  1.0
  Bi  Bi919  1  0.16317186  0.53986758  0.26567318  1.0
  Bi  Bi920  1  0.16317185  0.87320091  0.26567318  1.0
  Bi  Bi921  1  0.49650519  0.20653424  0.26567318  1.0
  Bi  Bi922  1  0.49650519  0.53986758  0.26567318  1.0
  Bi  Bi923  1  0.49650519  0.87320091  0.26567318  1.0
  Bi  Bi924  1  0.82983852  0.20653424  0.26567318  1.0
  Bi  Bi925  1  0.82983852  0.53986758  0.26567318  1.0
  Bi  Bi926  1  0.82983852  0.87320091  0.26567318  1.0
  Bi  Bi927  1  0.32983852  0.20653424  0.19424461  1.0
  Bi  Bi928  1  0.32983852  0.53986758  0.19424461  1.0
  Bi  Bi929  1  0.32983852  0.87320091  0.19424461  1.0
  Bi  Bi930  1  0.66317185  0.20653424  0.19424461  1.0
  Bi  Bi931  1  0.66317186  0.53986758  0.19424461  1.0
  Bi  Bi932  1  0.66317185  0.87320091  0.19424461  1.0
  Bi  Bi933  1  0.99650519  0.20653424  0.19424461  1.0
  Bi  Bi934  1  0.99650519  0.53986758  0.19424461  1.0
  Bi  Bi935  1  0.99650519  0.87320091  0.19424461  1.0
  Bi  Bi936  1  0.03824235  0.04141162  0.21134938  1.0
  Bi  Bi937  1  0.03824235  0.37474496  0.21134938  1.0
  Bi  Bi938  1  0.03824235  0.70807829  0.21134938  1.0
  Bi  Bi939  1  0.37157568  0.04141162  0.21134938  1.0
  Bi  Bi940  1  0.37157568  0.37474496  0.21134938  1.0
  Bi  Bi941  1  0.37157568  0.70807829  0.21134938  1.0
  Bi  Bi942  1  0.70490901  0.04141162  0.21134938  1.0
  Bi  Bi943  1  0.70490901  0.37474496  0.21134938  1.0
  Bi  Bi944  1  0.70490901  0.70807829  0.21134938  1.0
  Bi  Bi945  1  0.20490901  0.04141162  0.28277796  1.0
  Bi  Bi946  1  0.20490901  0.37474496  0.28277796  1.0
  Bi  Bi947  1  0.20490901  0.70807829  0.28277796  1.0
  Bi  Bi948  1  0.53824235  0.04141162  0.28277796  1.0
  Bi  Bi949  1  0.53824235  0.37474496  0.28277795  1.0
  Bi  Bi950  1  0.53824235  0.70807829  0.28277796  1.0
  Bi  Bi951  1  0.87157568  0.04141162  0.28277796  1.0
  Bi  Bi952  1  0.87157568  0.37474496  0.28277796  1.0
  Bi  Bi953  1  0.87157568  0.70807829  0.28277796  1.0
  Bi  Bi954  1  0.12803217  0.28981970  0.27515901  1.0
  Bi  Bi955  1  0.12803217  0.62315303  0.27515901  1.0
  Bi  Bi956  1  0.12803217  0.95648637  0.27515901  1.0
  Bi  Bi957  1  0.46136550  0.28981970  0.27515901  1.0
  Bi  Bi958  1  0.46136550  0.62315303  0.27515901  1.0
  Bi  Bi959  1  0.46136550  0.95648637  0.27515901  1.0
  Bi  Bi960  1  0.79469883  0.28981970  0.27515901  1.0
  Bi  Bi961  1  0.79469883  0.62315303  0.27515901  1.0
  Bi  Bi962  1  0.79469883  0.95648637  0.27515901  1.0
  Bi  Bi963  1  0.29469883  0.28981970  0.20373044  1.0
  Bi  Bi964  1  0.29469883  0.62315303  0.20373044  1.0
  Bi  Bi965  1  0.29469883  0.95648637  0.20373044  1.0
  Bi  Bi966  1  0.62803217  0.28981970  0.20373044  1.0
  Bi  Bi967  1  0.62803217  0.62315303  0.20373044  1.0
  Bi  Bi968  1  0.62803217  0.95648637  0.20373044  1.0
  Bi  Bi969  1  0.96136550  0.28981970  0.20373044  1.0
  Bi  Bi970  1  0.96136550  0.62315303  0.20373044  1.0
  Bi  Bi971  1  0.96136550  0.95648637  0.20373044  1.0
  Bi  Bi972  1  0.04286475  0.04056945  0.28353772  1.0
  Bi  Bi973  1  0.04286475  0.37390278  0.28353772  1.0
  Bi  Bi974  1  0.04286475  0.70723612  0.28353772  1.0
  Bi  Bi975  1  0.37619809  0.04056945  0.28353772  1.0
  Bi  Bi976  1  0.37619809  0.37390278  0.28353772  1.0
  Bi  Bi977  1  0.37619809  0.70723612  0.28353772  1.0
  Bi  Bi978  1  0.70953142  0.04056945  0.28353772  1.0
  Bi  Bi979  1  0.70953142  0.37390278  0.28353772  1.0
  Bi  Bi980  1  0.70953142  0.70723612  0.28353772  1.0
  Bi  Bi981  1  0.20953142  0.04056945  0.21210914  1.0
  Bi  Bi982  1  0.20953142  0.37390278  0.21210914  1.0
  Bi  Bi983  1  0.20953142  0.70723612  0.21210914  1.0
  Bi  Bi984  1  0.54286475  0.04056945  0.21210914  1.0
  Bi  Bi985  1  0.54286475  0.37390278  0.21210914  1.0
  Bi  Bi986  1  0.54286475  0.70723612  0.21210914  1.0
  Bi  Bi987  1  0.87619809  0.04056945  0.21210914  1.0
  Bi  Bi988  1  0.87619809  0.37390278  0.21210914  1.0
  Bi  Bi989  1  0.87619809  0.70723612  0.21210914  1.0
  Bi  Bi990  1  0.04726275  0.29148315  0.17009104  1.0
  Bi  Bi991  1  0.04726275  0.62481648  0.17009104  1.0
  Bi  Bi992  1  0.04726275  0.95814981  0.17009104  1.0
  Bi  Bi993  1  0.38059608  0.29148315  0.17009104  1.0
  Bi  Bi994  1  0.38059608  0.62481648  0.17009104  1.0
  Bi  Bi995  1  0.38059608  0.95814981  0.17009104  1.0
  Bi  Bi996  1  0.71392942  0.29148315  0.17009104  1.0
  Bi  Bi997  1  0.71392942  0.62481648  0.17009104  1.0
  Bi  Bi998  1  0.71392942  0.95814981  0.17009104  1.0
  Bi  Bi999  1  0.21392942  0.29148315  0.24151961  1.0
  Bi  Bi1000  1  0.21392942  0.62481648  0.24151961  1.0
  Bi  Bi1001  1  0.21392942  0.95814981  0.24151961  1.0
  Bi  Bi1002  1  0.54726275  0.29148315  0.24151961  1.0
  Bi  Bi1003  1  0.54726275  0.62481648  0.24151961  1.0
  Bi  Bi1004  1  0.54726275  0.95814981  0.24151961  1.0
  Bi  Bi1005  1  0.88059608  0.29148315  0.24151961  1.0
  Bi  Bi1006  1  0.88059608  0.62481648  0.24151961  1.0
  Bi  Bi1007  1  0.88059608  0.95814981  0.24151961  1.0
  Bi  Bi1008  1  0.11879918  0.04056945  0.17322390  1.0
  Bi  Bi1009  1  0.11879918  0.37390278  0.17322390  1.0
  Bi  Bi1010  1  0.11879918  0.70723612  0.17322390  1.0
  Bi  Bi1011  1  0.45213251  0.04056945  0.17322390  1.0
  Bi  Bi1012  1  0.45213251  0.37390278  0.17322390  1.0
  Bi  Bi1013  1  0.45213251  0.70723612  0.17322390  1.0
  Bi  Bi1014  1  0.78546584  0.04056945  0.17322390  1.0
  Bi  Bi1015  1  0.78546584  0.37390278  0.17322390  1.0
  Bi  Bi1016  1  0.78546584  0.70723612  0.17322390  1.0
  Bi  Bi1017  1  0.28546584  0.04056945  0.24465247  1.0
  Bi  Bi1018  1  0.28546584  0.37390278  0.24465247  1.0
  Bi  Bi1019  1  0.28546584  0.70723612  0.24465247  1.0
  Bi  Bi1020  1  0.61879917  0.04056945  0.24465247  1.0
  Bi  Bi1021  1  0.61879917  0.37390278  0.24465247  1.0
  Bi  Bi1022  1  0.61879917  0.70723612  0.24465247  1.0
  Bi  Bi1023  1  0.95213251  0.04056945  0.24465247  1.0
  Bi  Bi1024  1  0.95213251  0.37390278  0.24465247  1.0
  Bi  Bi1025  1  0.95213251  0.70723612  0.24465247  1.0
  Bi  Bi1026  1  0.12349779  0.29148315  0.20276320  1.0
  Bi  Bi1027  1  0.12349779  0.62481648  0.20276320  1.0
  Bi  Bi1028  1  0.12349779  0.95814981  0.20276320  1.0
  Bi  Bi1029  1  0.45683112  0.29148315  0.20276320  1.0
  Bi  Bi1030  1  0.45683112  0.62481648  0.20276320  1.0
  Bi  Bi1031  1  0.45683112  0.95814981  0.20276320  1.0
  Bi  Bi1032  1  0.79016445  0.29148315  0.20276320  1.0
  Bi  Bi1033  1  0.79016445  0.62481648  0.20276320  1.0
  Bi  Bi1034  1  0.79016445  0.95814981  0.20276320  1.0
  Bi  Bi1035  1  0.29016445  0.29148315  0.27419177  1.0
  Bi  Bi1036  1  0.29016445  0.62481648  0.27419177  1.0
  Bi  Bi1037  1  0.29016445  0.95814981  0.27419177  1.0
  Bi  Bi1038  1  0.62349779  0.29148315  0.27419177  1.0
  Bi  Bi1039  1  0.62349779  0.62481648  0.27419177  1.0
  Bi  Bi1040  1  0.62349779  0.95814981  0.27419177  1.0
  Bi  Bi1041  1  0.95683112  0.29148315  0.27419177  1.0
  Bi  Bi1042  1  0.95683112  0.62481648  0.27419177  1.0
  Bi  Bi1043  1  0.95683112  0.95814981  0.27419177  1.0
  Bi  Bi1044  1  0.11882478  0.04082674  0.25085121  1.0
  Bi  Bi1045  1  0.11882478  0.37416007  0.25085121  1.0
  Bi  Bi1046  1  0.11882478  0.70749340  0.25085121  1.0
  Bi  Bi1047  1  0.45215811  0.04082674  0.25085121  1.0
  Bi  Bi1048  1  0.45215811  0.37416007  0.25085121  1.0
  Bi  Bi1049  1  0.45215811  0.70749340  0.25085121  1.0
  Bi  Bi1050  1  0.78549145  0.04082674  0.25085121  1.0
  Bi  Bi1051  1  0.78549145  0.37416007  0.25085121  1.0
  Bi  Bi1052  1  0.78549145  0.70749340  0.25085121  1.0
  Bi  Bi1053  1  0.28549145  0.04082674  0.17942263  1.0
  Bi  Bi1054  1  0.28549145  0.37416007  0.17942263  1.0
  Bi  Bi1055  1  0.28549145  0.70749340  0.17942263  1.0
  Bi  Bi1056  1  0.61882478  0.04082674  0.17942263  1.0
  Bi  Bi1057  1  0.61882478  0.37416007  0.17942263  1.0
  Bi  Bi1058  1  0.61882478  0.70749340  0.17942263  1.0
  Bi  Bi1059  1  0.95215811  0.04082674  0.17942263  1.0
  Bi  Bi1060  1  0.95215811  0.37416007  0.17942263  1.0
  Bi  Bi1061  1  0.95215811  0.70749340  0.17942264  1.0
  Bi  Bi1062  1  0.04771019  0.29136184  0.23491206  1.0
  Bi  Bi1063  1  0.04771019  0.62469518  0.23491206  1.0
  Bi  Bi1064  1  0.04771019  0.95802851  0.23491206  1.0
  Bi  Bi1065  1  0.38104353  0.29136184  0.23491206  1.0
  Bi  Bi1066  1  0.38104353  0.62469518  0.23491206  1.0
  Bi  Bi1067  1  0.38104353  0.95802851  0.23491206  1.0
  Bi  Bi1068  1  0.71437686  0.29136184  0.23491206  1.0
  Bi  Bi1069  1  0.71437686  0.62469518  0.23491206  1.0
  Bi  Bi1070  1  0.71437686  0.95802851  0.23491206  1.0
  Bi  Bi1071  1  0.21437686  0.29136184  0.16348349  1.0
  Bi  Bi1072  1  0.21437686  0.62469518  0.16348349  1.0
  Bi  Bi1073  1  0.21437686  0.95802851  0.16348349  1.0
  Bi  Bi1074  1  0.54771019  0.29136184  0.16348349  1.0
  Bi  Bi1075  1  0.54771019  0.62469518  0.16348349  1.0
  Bi  Bi1076  1  0.54771019  0.95802851  0.16348349  1.0
  Bi  Bi1077  1  0.88104353  0.29136184  0.16348349  1.0
  Bi  Bi1078  1  0.88104353  0.62469518  0.16348349  1.0
  Bi  Bi1079  1  0.88104353  0.95802851  0.16348349  1.0
  Bi  Bi1080  1  0.16460394  0.12307709  0.22179641  1.0
  Bi  Bi1081  1  0.16460394  0.45641043  0.22179641  1.0
  Bi  Bi1082  1  0.16460394  0.78974376  0.22179641  1.0
  Bi  Bi1083  1  0.49793727  0.12307709  0.22179641  1.0
  Bi  Bi1084  1  0.49793727  0.45641043  0.22179641  1.0
  Bi  Bi1085  1  0.49793727  0.78974376  0.22179641  1.0
  Bi  Bi1086  1  0.83127060  0.12307709  0.22179641  1.0
  Bi  Bi1087  1  0.83127060  0.45641043  0.22179641  1.0
  Bi  Bi1088  1  0.83127060  0.78974376  0.22179641  1.0
  Bi  Bi1089  1  0.33127060  0.12307709  0.15036784  1.0
  Bi  Bi1090  1  0.33127061  0.45641043  0.15036784  1.0
  Bi  Bi1091  1  0.33127061  0.78974376  0.15036784  1.0
  Bi  Bi1092  1  0.66460394  0.12307709  0.15036784  1.0
  Bi  Bi1093  1  0.66460394  0.45641043  0.15036784  1.0
  Bi  Bi1094  1  0.66460394  0.78974376  0.15036784  1.0
  Bi  Bi1095  1  0.99793727  0.12307709  0.15036784  1.0
  Bi  Bi1096  1  0.99793727  0.45641043  0.15036784  1.0
  Bi  Bi1097  1  0.99793727  0.78974376  0.15036784  1.0
  Bi  Bi1098  1  0.07872234  0.20879518  0.15680541  1.0
  Bi  Bi1099  1  0.07872234  0.54212851  0.15680541  1.0
  Bi  Bi1100  1  0.07872234  0.87546184  0.15680541  1.0
  Bi  Bi1101  1  0.41205567  0.20879518  0.15680541  1.0
  Bi  Bi1102  1  0.41205567  0.54212851  0.15680541  1.0
  Bi  Bi1103  1  0.41205567  0.87546184  0.15680541  1.0
  Bi  Bi1104  1  0.74538900  0.20879518  0.15680541  1.0
  Bi  Bi1105  1  0.74538900  0.54212851  0.15680541  1.0
  Bi  Bi1106  1  0.74538900  0.87546184  0.15680541  1.0
  Bi  Bi1107  1  0.24538900  0.20879518  0.22823398  1.0
  Bi  Bi1108  1  0.24538900  0.54212851  0.22823398  1.0
  Bi  Bi1109  1  0.24538900  0.87546184  0.22823398  1.0
  Bi  Bi1110  1  0.57872234  0.20879518  0.22823398  1.0
  Bi  Bi1111  1  0.57872233  0.54212851  0.22823398  1.0
  Bi  Bi1112  1  0.57872234  0.87546184  0.22823398  1.0
  Bi  Bi1113  1  0.91205567  0.20879518  0.22823398  1.0
  Bi  Bi1114  1  0.91205567  0.54212851  0.22823398  1.0
  Bi  Bi1115  1  0.91205567  0.87546184  0.22823398  1.0
  Bi  Bi1116  1  0.08870729  0.12307709  0.18926927  1.0
  Bi  Bi1117  1  0.08870729  0.45641043  0.18926927  1.0
  Bi  Bi1118  1  0.08870729  0.78974376  0.18926927  1.0
  Bi  Bi1119  1  0.42204062  0.12307709  0.18926927  1.0
  Bi  Bi1120  1  0.42204062  0.45641043  0.18926927  1.0
  Bi  Bi1121  1  0.42204062  0.78974376  0.18926927  1.0
  Bi  Bi1122  1  0.75537395  0.12307709  0.18926927  1.0
  Bi  Bi1123  1  0.75537395  0.45641043  0.18926927  1.0
  Bi  Bi1124  1  0.75537395  0.78974376  0.18926927  1.0
  Bi  Bi1125  1  0.25537395  0.12307709  0.26069784  1.0
  Bi  Bi1126  1  0.25537395  0.45641043  0.26069784  1.0
  Bi  Bi1127  1  0.25537395  0.78974376  0.26069784  1.0
  Bi  Bi1128  1  0.58870729  0.12307709  0.26069784  1.0
  Bi  Bi1129  1  0.58870729  0.45641043  0.26069784  1.0
  Bi  Bi1130  1  0.58870729  0.78974376  0.26069784  1.0
  Bi  Bi1131  1  0.92204062  0.12307709  0.26069784  1.0
  Bi  Bi1132  1  0.92204062  0.45641043  0.26069784  1.0
  Bi  Bi1133  1  0.92204062  0.78974376  0.26069784  1.0
  Bi  Bi1134  1  0.16461188  0.20879518  0.19361521  1.0
  Bi  Bi1135  1  0.16461188  0.54212851  0.19361521  1.0
  Bi  Bi1136  1  0.16461188  0.87546184  0.19361521  1.0
  Bi  Bi1137  1  0.49794521  0.20879518  0.19361521  1.0
  Bi  Bi1138  1  0.49794521  0.54212851  0.19361521  1.0
  Bi  Bi1139  1  0.49794521  0.87546184  0.19361521  1.0
  Bi  Bi1140  1  0.83127854  0.20879518  0.19361521  1.0
  Bi  Bi1141  1  0.83127854  0.54212851  0.19361521  1.0
  Bi  Bi1142  1  0.83127854  0.87546184  0.19361521  1.0
  Bi  Bi1143  1  0.33127855  0.20879518  0.26504379  1.0
  Bi  Bi1144  1  0.33127854  0.54212851  0.26504379  1.0
  Bi  Bi1145  1  0.33127854  0.87546184  0.26504379  1.0
  Bi  Bi1146  1  0.66461188  0.20879518  0.26504379  1.0
  Bi  Bi1147  1  0.66461188  0.54212851  0.26504379  1.0
  Bi  Bi1148  1  0.66461188  0.87546184  0.26504379  1.0
  Bi  Bi1149  1  0.99794521  0.20879518  0.26504379  1.0
  Bi  Bi1150  1  0.99794521  0.54212851  0.26504379  1.0
  Bi  Bi1151  1  0.99794521  0.87546184  0.26504379  1.0
  Ni  Ni1152  1  0.04191281  0.16451091  0.29673053  1.0
  Ni  Ni1153  1  0.04191281  0.49784424  0.29673053  1.0
  Ni  Ni1154  1  0.04191281  0.83117758  0.29673053  1.0
  Ni  Ni1155  1  0.37524614  0.16451091  0.29673053  1.0
  Ni  Ni1156  1  0.37524614  0.49784424  0.29673053  1.0
  Ni  Ni1157  1  0.37524614  0.83117758  0.29673053  1.0
  Ni  Ni1158  1  0.70857947  0.16451091  0.29673053  1.0
  Ni  Ni1159  1  0.70857947  0.49784424  0.29673053  1.0
  Ni  Ni1160  1  0.70857947  0.83117758  0.29673053  1.0
  Ni  Ni1161  1  0.20857947  0.16451091  0.36815910  1.0
  Ni  Ni1162  1  0.20857947  0.49784424  0.36815910  1.0
  Ni  Ni1163  1  0.20857947  0.83117758  0.36815910  1.0
  Ni  Ni1164  1  0.54191281  0.16451091  0.36815910  1.0
  Ni  Ni1165  1  0.54191281  0.49784424  0.36815910  1.0
  Ni  Ni1166  1  0.54191281  0.83117758  0.36815910  1.0
  Ni  Ni1167  1  0.87524614  0.16451091  0.36815910  1.0
  Ni  Ni1168  1  0.87524614  0.49784424  0.36815910  1.0
  Ni  Ni1169  1  0.87524614  0.83117758  0.36815910  1.0
  Ni  Ni1170  1  0.12608223  0.17288136  0.32778250  1.0
  Ni  Ni1171  1  0.12608223  0.50621470  0.32778250  1.0
  Ni  Ni1172  1  0.12608223  0.83954803  0.32778250  1.0
  Ni  Ni1173  1  0.45941556  0.17288136  0.32778250  1.0
  Ni  Ni1174  1  0.45941556  0.50621470  0.32778250  1.0
  Ni  Ni1175  1  0.45941556  0.83954803  0.32778250  1.0
  Ni  Ni1176  1  0.79274889  0.17288136  0.32778250  1.0
  Ni  Ni1177  1  0.79274889  0.50621470  0.32778250  1.0
  Ni  Ni1178  1  0.79274890  0.83954803  0.32778250  1.0
  Ni  Ni1179  1  0.29274890  0.17288136  0.39921108  1.0
  Ni  Ni1180  1  0.29274890  0.50621470  0.39921108  1.0
  Ni  Ni1181  1  0.29274890  0.83954803  0.39921108  1.0
  Ni  Ni1182  1  0.62608223  0.17288136  0.39921108  1.0
  Ni  Ni1183  1  0.62608223  0.50621470  0.39921108  1.0
  Ni  Ni1184  1  0.62608223  0.83954803  0.39921108  1.0
  Ni  Ni1185  1  0.95941556  0.17288136  0.39921108  1.0
  Ni  Ni1186  1  0.95941556  0.50621470  0.39921108  1.0
  Ni  Ni1187  1  0.95941556  0.83954803  0.39921108  1.0
  Ni  Ni1188  1  0.14916596  0.04084589  0.35469005  1.0
  Ni  Ni1189  1  0.14916596  0.37417923  0.35469005  1.0
  Ni  Ni1190  1  0.14916596  0.70751256  0.35469005  1.0
  Ni  Ni1191  1  0.48249929  0.04084589  0.35469005  1.0
  Ni  Ni1192  1  0.48249929  0.37417923  0.35469005  1.0
  Ni  Ni1193  1  0.48249929  0.70751256  0.35469005  1.0
  Ni  Ni1194  1  0.81583263  0.04084589  0.35469005  1.0
  Ni  Ni1195  1  0.81583263  0.37417923  0.35469005  1.0
  Ni  Ni1196  1  0.81583263  0.70751256  0.35469005  1.0
  Ni  Ni1197  1  0.31583263  0.04084589  0.42611862  1.0
  Ni  Ni1198  1  0.31583263  0.37417923  0.42611862  1.0
  Ni  Ni1199  1  0.31583263  0.70751256  0.42611862  1.0
  Ni  Ni1200  1  0.64916596  0.04084589  0.42611862  1.0
  Ni  Ni1201  1  0.64916596  0.37417923  0.42611862  1.0
  Ni  Ni1202  1  0.64916596  0.70751256  0.42611862  1.0
  Ni  Ni1203  1  0.98249929  0.04084589  0.42611862  1.0
  Ni  Ni1204  1  0.98249929  0.37417923  0.42611862  1.0
  Ni  Ni1205  1  0.98249929  0.70751256  0.42611862  1.0
  Ni  Ni1206  1  0.01750996  0.29208067  0.41629000  1.0
  Ni  Ni1207  1  0.01750996  0.62541401  0.41629000  1.0
  Ni  Ni1208  1  0.01750996  0.95874734  0.41629000  1.0
  Ni  Ni1209  1  0.35084329  0.29208067  0.41629000  1.0
  Ni  Ni1210  1  0.35084329  0.62541401  0.41629000  1.0
  Ni  Ni1211  1  0.35084329  0.95874734  0.41629000  1.0
  Ni  Ni1212  1  0.68417663  0.29208067  0.41629000  1.0
  Ni  Ni1213  1  0.68417663  0.62541401  0.41629000  1.0
  Ni  Ni1214  1  0.68417663  0.95874734  0.41629000  1.0
  Ni  Ni1215  1  0.18417663  0.29208067  0.34486143  1.0
  Ni  Ni1216  1  0.18417663  0.62541401  0.34486143  1.0
  Ni  Ni1217  1  0.18417663  0.95874734  0.34486143  1.0
  Ni  Ni1218  1  0.51750996  0.29208067  0.34486143  1.0
  Ni  Ni1219  1  0.51750996  0.62541401  0.34486143  1.0
  Ni  Ni1220  1  0.51750996  0.95874734  0.34486143  1.0
  Ni  Ni1221  1  0.85084329  0.29208067  0.34486143  1.0
  Ni  Ni1222  1  0.85084329  0.62541401  0.34486143  1.0
  Ni  Ni1223  1  0.85084329  0.95874734  0.34486143  1.0
  Ni  Ni1224  1  0.02032014  0.08292331  0.35945865  1.0
  Ni  Ni1225  1  0.02032014  0.41625664  0.35945865  1.0
  Ni  Ni1226  1  0.02032013  0.74958997  0.35945865  1.0
  Ni  Ni1227  1  0.35365347  0.08292331  0.35945865  1.0
  Ni  Ni1228  1  0.35365347  0.41625664  0.35945865  1.0
  Ni  Ni1229  1  0.35365347  0.74958997  0.35945865  1.0
  Ni  Ni1230  1  0.68698680  0.08292331  0.35945865  1.0
  Ni  Ni1231  1  0.68698680  0.41625664  0.35945865  1.0
  Ni  Ni1232  1  0.68698680  0.74958997  0.35945865  1.0
  Ni  Ni1233  1  0.18698680  0.08292331  0.28803008  1.0
  Ni  Ni1234  1  0.18698680  0.41625664  0.28803008  1.0
  Ni  Ni1235  1  0.18698680  0.74958997  0.28803008  1.0
  Ni  Ni1236  1  0.52032013  0.08292331  0.28803008  1.0
  Ni  Ni1237  1  0.52032013  0.41625664  0.28803008  1.0
  Ni  Ni1238  1  0.52032013  0.74958997  0.28803008  1.0
  Ni  Ni1239  1  0.85365347  0.08292331  0.28803008  1.0
  Ni  Ni1240  1  0.85365347  0.41625664  0.28803008  1.0
  Ni  Ni1241  1  0.85365347  0.74958997  0.28803008  1.0
  Ni  Ni1242  1  0.14726257  0.25215451  0.40943358  1.0
  Ni  Ni1243  1  0.14726256  0.58548784  0.40943358  1.0
  Ni  Ni1244  1  0.14726257  0.91882118  0.40943358  1.0
  Ni  Ni1245  1  0.48059590  0.25215451  0.40943358  1.0
  Ni  Ni1246  1  0.48059590  0.58548784  0.40943358  1.0
  Ni  Ni1247  1  0.48059590  0.91882118  0.40943358  1.0
  Ni  Ni1248  1  0.81392923  0.25215451  0.40943358  1.0
  Ni  Ni1249  1  0.81392923  0.58548784  0.40943358  1.0
  Ni  Ni1250  1  0.81392923  0.91882118  0.40943358  1.0
  Ni  Ni1251  1  0.31392923  0.25215451  0.33800501  1.0
  Ni  Ni1252  1  0.31392923  0.58548784  0.33800501  1.0
  Ni  Ni1253  1  0.31392923  0.91882118  0.33800501  1.0
  Ni  Ni1254  1  0.64726257  0.25215451  0.33800501  1.0
  Ni  Ni1255  1  0.64726257  0.58548784  0.33800501  1.0
  Ni  Ni1256  1  0.64726257  0.91882118  0.33800501  1.0
  Ni  Ni1257  1  0.98059590  0.25215451  0.33800501  1.0
  Ni  Ni1258  1  0.98059590  0.58548784  0.33800501  1.0
  Ni  Ni1259  1  0.98059590  0.91882118  0.33800501  1.0
  Ni  Ni1260  1  0.04368440  0.16586454  0.36911922  1.0
  Ni  Ni1261  1  0.04368440  0.49919788  0.36911922  1.0
  Ni  Ni1262  1  0.04368440  0.83253121  0.36911922  1.0
  Ni  Ni1263  1  0.37701773  0.16586454  0.36911922  1.0
  Ni  Ni1264  1  0.37701773  0.49919788  0.36911922  1.0
  Ni  Ni1265  1  0.37701773  0.83253121  0.36911922  1.0
  Ni  Ni1266  1  0.71035106  0.16586454  0.36911922  1.0
  Ni  Ni1267  1  0.71035106  0.49919788  0.36911922  1.0
  Ni  Ni1268  1  0.71035106  0.83253121  0.36911922  1.0
  Ni  Ni1269  1  0.21035106  0.16586454  0.29769065  1.0
  Ni  Ni1270  1  0.21035106  0.49919788  0.29769065  1.0
  Ni  Ni1271  1  0.21035106  0.83253121  0.29769065  1.0
  Ni  Ni1272  1  0.54368439  0.16586454  0.29769065  1.0
  Ni  Ni1273  1  0.54368440  0.49919788  0.29769065  1.0
  Ni  Ni1274  1  0.54368439  0.83253121  0.29769065  1.0
  Ni  Ni1275  1  0.87701773  0.16586454  0.29769065  1.0
  Ni  Ni1276  1  0.87701773  0.49919788  0.29769065  1.0
  Ni  Ni1277  1  0.87701773  0.83253121  0.29769065  1.0
  Ni  Ni1278  1  0.12256339  0.16586454  0.40292450  1.0
  Ni  Ni1279  1  0.12256339  0.49919788  0.40292450  1.0
  Ni  Ni1280  1  0.12256339  0.83253121  0.40292450  1.0
  Ni  Ni1281  1  0.45589672  0.16586454  0.40292450  1.0
  Ni  Ni1282  1  0.45589672  0.49919788  0.40292450  1.0
  Ni  Ni1283  1  0.45589672  0.83253121  0.40292450  1.0
  Ni  Ni1284  1  0.78923005  0.16586454  0.40292450  1.0
  Ni  Ni1285  1  0.78923005  0.49919788  0.40292450  1.0
  Ni  Ni1286  1  0.78923005  0.83253121  0.40292450  1.0
  Ni  Ni1287  1  0.28923005  0.16586454  0.33149593  1.0
  Ni  Ni1288  1  0.28923005  0.49919788  0.33149593  1.0
  Ni  Ni1289  1  0.28923005  0.83253121  0.33149593  1.0
  Ni  Ni1290  1  0.62256339  0.16586454  0.33149593  1.0
  Ni  Ni1291  1  0.62256339  0.49919788  0.33149593  1.0
  Ni  Ni1292  1  0.62256339  0.83253121  0.33149593  1.0
  Ni  Ni1293  1  0.95589672  0.16586454  0.33149593  1.0
  Ni  Ni1294  1  0.95589672  0.49919788  0.33149593  1.0
  Ni  Ni1295  1  0.95589672  0.83253121  0.33149593  1.0
  Ni  Ni1296  1  0.00000063  0.00027197  0.42100573  1.0
  Ni  Ni1297  1  0.00000063  0.33360531  0.42100573  1.0
  Ni  Ni1298  1  0.00000063  0.66693864  0.42100573  1.0
  Ni  Ni1299  1  0.33333396  0.00027197  0.42100573  1.0
  Ni  Ni1300  1  0.33333396  0.33360531  0.42100573  1.0
  Ni  Ni1301  1  0.33333396  0.66693864  0.42100573  1.0
  Ni  Ni1302  1  0.66666729  0.00027197  0.42100573  1.0
  Ni  Ni1303  1  0.66666729  0.33360531  0.42100573  1.0
  Ni  Ni1304  1  0.66666729  0.66693864  0.42100573  1.0
  Ni  Ni1305  1  0.16666729  0.00027197  0.34957716  1.0
  Ni  Ni1306  1  0.16666729  0.33360531  0.34957716  1.0
  Ni  Ni1307  1  0.16666729  0.66693864  0.34957716  1.0
  Ni  Ni1308  1  0.50000063  0.00027197  0.34957716  1.0
  Ni  Ni1309  1  0.50000063  0.33360531  0.34957716  1.0
  Ni  Ni1310  1  0.50000063  0.66693864  0.34957716  1.0
  Ni  Ni1311  1  0.83333396  0.00027197  0.34957716  1.0
  Ni  Ni1312  1  0.83333396  0.33360531  0.34957716  1.0
  Ni  Ni1313  1  0.83333396  0.66693864  0.34957716  1.0
  Ni  Ni1314  1  0.02028846  0.08387028  0.28642264  1.0
  Ni  Ni1315  1  0.02028846  0.41720362  0.28642264  1.0
  Ni  Ni1316  1  0.02028846  0.75053695  0.28642264  1.0
  Ni  Ni1317  1  0.35362179  0.08387028  0.28642264  1.0
  Ni  Ni1318  1  0.35362179  0.41720362  0.28642264  1.0
  Ni  Ni1319  1  0.35362179  0.75053695  0.28642264  1.0
  Ni  Ni1320  1  0.68695512  0.08387028  0.28642264  1.0
  Ni  Ni1321  1  0.68695512  0.41720362  0.28642264  1.0
  Ni  Ni1322  1  0.68695512  0.75053695  0.28642264  1.0
  Ni  Ni1323  1  0.18695512  0.08387028  0.35785121  1.0
  Ni  Ni1324  1  0.18695512  0.41720362  0.35785121  1.0
  Ni  Ni1325  1  0.18695512  0.75053695  0.35785121  1.0
  Ni  Ni1326  1  0.52028846  0.08387028  0.35785121  1.0
  Ni  Ni1327  1  0.52028846  0.41720362  0.35785121  1.0
  Ni  Ni1328  1  0.52028846  0.75053695  0.35785121  1.0
  Ni  Ni1329  1  0.85362179  0.08387028  0.35785121  1.0
  Ni  Ni1330  1  0.85362179  0.41720362  0.35785121  1.0
  Ni  Ni1331  1  0.85362179  0.75053695  0.35785121  1.0
  Ni  Ni1332  1  0.06091284  0.25041725  0.30443782  1.0
  Ni  Ni1333  1  0.06091284  0.58375058  0.30443782  1.0
  Ni  Ni1334  1  0.06091283  0.91708392  0.30443782  1.0
  Ni  Ni1335  1  0.39424617  0.25041725  0.30443782  1.0
  Ni  Ni1336  1  0.39424617  0.58375058  0.30443782  1.0
  Ni  Ni1337  1  0.39424617  0.91708392  0.30443782  1.0
  Ni  Ni1338  1  0.72757950  0.25041725  0.30443782  1.0
  Ni  Ni1339  1  0.72757950  0.58375058  0.30443782  1.0
  Ni  Ni1340  1  0.72757950  0.91708392  0.30443782  1.0
  Ni  Ni1341  1  0.22757950  0.25041725  0.37586639  1.0
  Ni  Ni1342  1  0.22757950  0.58375058  0.37586639  1.0
  Ni  Ni1343  1  0.22757950  0.91708392  0.37586639  1.0
  Ni  Ni1344  1  0.56091284  0.25041725  0.37586639  1.0
  Ni  Ni1345  1  0.56091283  0.58375058  0.37586639  1.0
  Ni  Ni1346  1  0.56091283  0.91708392  0.37586639  1.0
  Ni  Ni1347  1  0.89424617  0.25041725  0.37586639  1.0
  Ni  Ni1348  1  0.89424617  0.58375058  0.37586639  1.0
  Ni  Ni1349  1  0.89424617  0.91708392  0.37586639  1.0
  Ni  Ni1350  1  0.10507116  0.08387028  0.32275809  1.0
  Ni  Ni1351  1  0.10507116  0.41720362  0.32275809  1.0
  Ni  Ni1352  1  0.10507116  0.75053695  0.32275809  1.0
  Ni  Ni1353  1  0.43840450  0.08387028  0.32275809  1.0
  Ni  Ni1354  1  0.43840450  0.41720362  0.32275809  1.0
  Ni  Ni1355  1  0.43840450  0.75053695  0.32275809  1.0
  Ni  Ni1356  1  0.77173783  0.08387028  0.32275809  1.0
  Ni  Ni1357  1  0.77173783  0.41720362  0.32275809  1.0
  Ni  Ni1358  1  0.77173783  0.75053695  0.32275809  1.0
  Ni  Ni1359  1  0.27173783  0.08387028  0.39418666  1.0
  Ni  Ni1360  1  0.27173783  0.41720362  0.39418666  1.0
  Ni  Ni1361  1  0.27173783  0.75053695  0.39418666  1.0
  Ni  Ni1362  1  0.60507116  0.08387028  0.39418666  1.0
  Ni  Ni1363  1  0.60507116  0.41720362  0.39418666  1.0
  Ni  Ni1364  1  0.60507116  0.75053695  0.39418666  1.0
  Ni  Ni1365  1  0.93840449  0.08387028  0.39418666  1.0
  Ni  Ni1366  1  0.93840449  0.41720362  0.39418666  1.0
  Ni  Ni1367  1  0.93840450  0.75053695  0.39418666  1.0
  Ni  Ni1368  1  0.14713445  0.25041725  0.34138994  1.0
  Ni  Ni1369  1  0.14713445  0.58375058  0.34138994  1.0
  Ni  Ni1370  1  0.14713445  0.91708392  0.34138994  1.0
  Ni  Ni1371  1  0.48046778  0.25041725  0.34138994  1.0
  Ni  Ni1372  1  0.48046778  0.58375058  0.34138994  1.0
  Ni  Ni1373  1  0.48046778  0.91708392  0.34138994  1.0
  Ni  Ni1374  1  0.81380111  0.25041725  0.34138994  1.0
  Ni  Ni1375  1  0.81380111  0.58375058  0.34138994  1.0
  Ni  Ni1376  1  0.81380111  0.91708392  0.34138994  1.0
  Ni  Ni1377  1  0.31380111  0.25041725  0.41281851  1.0
  Ni  Ni1378  1  0.31380111  0.58375058  0.41281851  1.0
  Ni  Ni1379  1  0.31380111  0.91708392  0.41281851  1.0
  Ni  Ni1380  1  0.64713445  0.25041725  0.41281851  1.0
  Ni  Ni1381  1  0.64713445  0.58375058  0.41281851  1.0
  Ni  Ni1382  1  0.64713445  0.91708392  0.41281851  1.0
  Ni  Ni1383  1  0.98046778  0.25041725  0.41281851  1.0
  Ni  Ni1384  1  0.98046778  0.58375058  0.41281851  1.0
  Ni  Ni1385  1  0.98046778  0.91708392  0.41281851  1.0
  Ni  Ni1386  1  0.16653134  0.00006070  0.42106073  1.0
  Ni  Ni1387  1  0.16653134  0.33339404  0.42106073  1.0
  Ni  Ni1388  1  0.16653134  0.66672737  0.42106073  1.0
  Ni  Ni1389  1  0.49986467  0.00006070  0.42106073  1.0
  Ni  Ni1390  1  0.49986467  0.33339404  0.42106073  1.0
  Ni  Ni1391  1  0.49986467  0.66672737  0.42106073  1.0
  Ni  Ni1392  1  0.83319801  0.00006070  0.42106073  1.0
  Ni  Ni1393  1  0.83319801  0.33339404  0.42106073  1.0
  Ni  Ni1394  1  0.83319801  0.66672737  0.42106073  1.0
  Ni  Ni1395  1  0.33319801  0.00006070  0.34963216  1.0
  Ni  Ni1396  1  0.33319801  0.33339404  0.34963216  1.0
  Ni  Ni1397  1  0.33319801  0.66672737  0.34963216  1.0
  Ni  Ni1398  1  0.66653134  0.00006070  0.34963216  1.0
  Ni  Ni1399  1  0.66653134  0.33339404  0.34963216  1.0
  Ni  Ni1400  1  0.66653134  0.66672737  0.34963216  1.0
  Ni  Ni1401  1  0.99986467  0.00006070  0.34963216  1.0
  Ni  Ni1402  1  0.99986467  0.33339404  0.34963216  1.0
  Ni  Ni1403  1  0.99986467  0.66672737  0.34963216  1.0
  Ni  Ni1404  1  0.08344340  0.00006070  0.38545162  1.0
  Ni  Ni1405  1  0.08344340  0.33339404  0.38545162  1.0
  Ni  Ni1406  1  0.08344340  0.66672737  0.38545162  1.0
  Ni  Ni1407  1  0.41677673  0.00006070  0.38545162  1.0
  Ni  Ni1408  1  0.41677673  0.33339404  0.38545162  1.0
  Ni  Ni1409  1  0.41677673  0.66672737  0.38545162  1.0
  Ni  Ni1410  1  0.75011007  0.00006070  0.38545162  1.0
  Ni  Ni1411  1  0.75011007  0.33339404  0.38545162  1.0
  Ni  Ni1412  1  0.75011007  0.66672737  0.38545162  1.0
  Ni  Ni1413  1  0.25011007  0.00006070  0.31402305  1.0
  Ni  Ni1414  1  0.25011007  0.33339404  0.31402304  1.0
  Ni  Ni1415  1  0.25011007  0.66672737  0.31402305  1.0
  Ni  Ni1416  1  0.58344340  0.00006070  0.31402304  1.0
  Ni  Ni1417  1  0.58344340  0.33339404  0.31402305  1.0
  Ni  Ni1418  1  0.58344340  0.66672737  0.31402304  1.0
  Ni  Ni1419  1  0.91677673  0.00006070  0.31402304  1.0
  Ni  Ni1420  1  0.91677673  0.33339404  0.31402304  1.0
  Ni  Ni1421  1  0.91677673  0.66672737  0.31402304  1.0
  Ni  Ni1422  1  0.05915412  0.12621890  0.29097399  1.0
  Ni  Ni1423  1  0.05915412  0.45955224  0.29097399  1.0
  Ni  Ni1424  1  0.05915412  0.79288557  0.29097399  1.0
  Ni  Ni1425  1  0.39248745  0.12621890  0.29097399  1.0
  Ni  Ni1426  1  0.39248745  0.45955224  0.29097399  1.0
  Ni  Ni1427  1  0.39248745  0.79288557  0.29097399  1.0
  Ni  Ni1428  1  0.72582078  0.12621890  0.29097399  1.0
  Ni  Ni1429  1  0.72582078  0.45955224  0.29097399  1.0
  Ni  Ni1430  1  0.72582078  0.79288557  0.29097399  1.0
  Ni  Ni1431  1  0.22582078  0.12621890  0.36240256  1.0
  Ni  Ni1432  1  0.22582078  0.45955224  0.36240256  1.0
  Ni  Ni1433  1  0.22582078  0.79288557  0.36240256  1.0
  Ni  Ni1434  1  0.55915412  0.12621890  0.36240256  1.0
  Ni  Ni1435  1  0.55915412  0.45955224  0.36240256  1.0
  Ni  Ni1436  1  0.55915412  0.79288557  0.36240256  1.0
  Ni  Ni1437  1  0.89248745  0.12621890  0.36240256  1.0
  Ni  Ni1438  1  0.89248745  0.45955224  0.36240256  1.0
  Ni  Ni1439  1  0.89248745  0.79288557  0.36240256  1.0
  Bi  Bi1440  1  0.08899154  0.12396491  0.39643472  1.0
  Bi  Bi1441  1  0.08899154  0.45729825  0.39643472  1.0
  Bi  Bi1442  1  0.08899154  0.79063158  0.39643472  1.0
  Bi  Bi1443  1  0.42232487  0.12396491  0.39643472  1.0
  Bi  Bi1444  1  0.42232487  0.45729825  0.39643472  1.0
  Bi  Bi1445  1  0.42232487  0.79063158  0.39643472  1.0
  Bi  Bi1446  1  0.75565821  0.12396491  0.39643472  1.0
  Bi  Bi1447  1  0.75565821  0.45729825  0.39643472  1.0
  Bi  Bi1448  1  0.75565821  0.79063158  0.39643472  1.0
  Bi  Bi1449  1  0.25565821  0.12396491  0.32500615  1.0
  Bi  Bi1450  1  0.25565821  0.45729825  0.32500615  1.0
  Bi  Bi1451  1  0.25565821  0.79063158  0.32500615  1.0
  Bi  Bi1452  1  0.58899154  0.12396491  0.32500615  1.0
  Bi  Bi1453  1  0.58899154  0.45729825  0.32500615  1.0
  Bi  Bi1454  1  0.58899154  0.79063158  0.32500615  1.0
  Bi  Bi1455  1  0.92232487  0.12396491  0.32500615  1.0
  Bi  Bi1456  1  0.92232487  0.45729825  0.32500615  1.0
  Bi  Bi1457  1  0.92232488  0.79063158  0.32500615  1.0
  Bi  Bi1458  1  0.07984042  0.21012291  0.37127559  1.0
  Bi  Bi1459  1  0.07984042  0.54345625  0.37127559  1.0
  Bi  Bi1460  1  0.07984042  0.87678958  0.37127559  1.0
  Bi  Bi1461  1  0.41317376  0.21012291  0.37127559  1.0
  Bi  Bi1462  1  0.41317376  0.54345625  0.37127559  1.0
  Bi  Bi1463  1  0.41317376  0.87678958  0.37127559  1.0
  Bi  Bi1464  1  0.74650709  0.21012291  0.37127559  1.0
  Bi  Bi1465  1  0.74650709  0.54345625  0.37127559  1.0
  Bi  Bi1466  1  0.74650709  0.87678958  0.37127559  1.0
  Bi  Bi1467  1  0.24650709  0.21012291  0.29984702  1.0
  Bi  Bi1468  1  0.24650709  0.54345625  0.29984702  1.0
  Bi  Bi1469  1  0.24650709  0.87678958  0.29984702  1.0
  Bi  Bi1470  1  0.57984042  0.21012291  0.29984702  1.0
  Bi  Bi1471  1  0.57984042  0.54345625  0.29984702  1.0
  Bi  Bi1472  1  0.57984042  0.87678958  0.29984702  1.0
  Bi  Bi1473  1  0.91317376  0.21012291  0.29984702  1.0
  Bi  Bi1474  1  0.91317376  0.54345625  0.29984702  1.0
  Bi  Bi1475  1  0.91317376  0.87678958  0.29984702  1.0
  Bi  Bi1476  1  0.00379560  0.12626186  0.36213081  1.0
  Bi  Bi1477  1  0.00379560  0.45959519  0.36213081  1.0
  Bi  Bi1478  1  0.00379560  0.79292852  0.36213081  1.0
  Bi  Bi1479  1  0.33712894  0.12626186  0.36213081  1.0
  Bi  Bi1480  1  0.33712894  0.45959519  0.36213081  1.0
  Bi  Bi1481  1  0.33712894  0.79292852  0.36213081  1.0
  Bi  Bi1482  1  0.67046227  0.12626186  0.36213081  1.0
  Bi  Bi1483  1  0.67046227  0.45959519  0.36213081  1.0
  Bi  Bi1484  1  0.67046227  0.79292852  0.36213081  1.0
  Bi  Bi1485  1  0.17046227  0.12626186  0.29070224  1.0
  Bi  Bi1486  1  0.17046227  0.45959519  0.29070224  1.0
  Bi  Bi1487  1  0.17046227  0.79292852  0.29070224  1.0
  Bi  Bi1488  1  0.50379560  0.12626186  0.29070224  1.0
  Bi  Bi1489  1  0.50379560  0.45959519  0.29070224  1.0
  Bi  Bi1490  1  0.50379560  0.79292852  0.29070224  1.0
  Bi  Bi1491  1  0.83712894  0.12626186  0.29070224  1.0
  Bi  Bi1492  1  0.83712894  0.45959519  0.29070224  1.0
  Bi  Bi1493  1  0.83712894  0.79292852  0.29070224  1.0
  Bi  Bi1494  1  0.16317186  0.20653424  0.40853032  1.0
  Bi  Bi1495  1  0.16317186  0.53986758  0.40853032  1.0
  Bi  Bi1496  1  0.16317185  0.87320091  0.40853032  1.0
  Bi  Bi1497  1  0.49650519  0.20653424  0.40853032  1.0
  Bi  Bi1498  1  0.49650519  0.53986758  0.40853032  1.0
  Bi  Bi1499  1  0.49650519  0.87320091  0.40853032  1.0
  Bi  Bi1500  1  0.82983852  0.20653424  0.40853032  1.0
  Bi  Bi1501  1  0.82983852  0.53986758  0.40853032  1.0
  Bi  Bi1502  1  0.82983852  0.87320091  0.40853032  1.0
  Bi  Bi1503  1  0.32983852  0.20653424  0.33710175  1.0
  Bi  Bi1504  1  0.32983852  0.53986758  0.33710175  1.0
  Bi  Bi1505  1  0.32983852  0.87320091  0.33710175  1.0
  Bi  Bi1506  1  0.66317185  0.20653424  0.33710175  1.0
  Bi  Bi1507  1  0.66317186  0.53986758  0.33710175  1.0
  Bi  Bi1508  1  0.66317185  0.87320091  0.33710175  1.0
  Bi  Bi1509  1  0.99650519  0.20653424  0.33710175  1.0
  Bi  Bi1510  1  0.99650519  0.53986758  0.33710175  1.0
  Bi  Bi1511  1  0.99650519  0.87320091  0.33710175  1.0
  Bi  Bi1512  1  0.03824235  0.04141162  0.35420653  1.0
  Bi  Bi1513  1  0.03824235  0.37474496  0.35420653  1.0
  Bi  Bi1514  1  0.03824235  0.70807829  0.35420653  1.0
  Bi  Bi1515  1  0.37157568  0.04141162  0.35420653  1.0
  Bi  Bi1516  1  0.37157568  0.37474496  0.35420653  1.0
  Bi  Bi1517  1  0.37157568  0.70807829  0.35420653  1.0
  Bi  Bi1518  1  0.70490901  0.04141162  0.35420653  1.0
  Bi  Bi1519  1  0.70490901  0.37474496  0.35420653  1.0
  Bi  Bi1520  1  0.70490901  0.70807829  0.35420653  1.0
  Bi  Bi1521  1  0.20490901  0.04141162  0.42563510  1.0
  Bi  Bi1522  1  0.20490901  0.37474496  0.42563510  1.0
  Bi  Bi1523  1  0.20490901  0.70807829  0.42563510  1.0
  Bi  Bi1524  1  0.53824235  0.04141162  0.42563510  1.0
  Bi  Bi1525  1  0.53824235  0.37474496  0.42563510  1.0
  Bi  Bi1526  1  0.53824235  0.70807829  0.42563510  1.0
  Bi  Bi1527  1  0.87157568  0.04141162  0.42563510  1.0
  Bi  Bi1528  1  0.87157568  0.37474496  0.42563510  1.0
  Bi  Bi1529  1  0.87157568  0.70807829  0.42563510  1.0
  Bi  Bi1530  1  0.12803217  0.28981970  0.41801615  1.0
  Bi  Bi1531  1  0.12803217  0.62315303  0.41801615  1.0
  Bi  Bi1532  1  0.12803217  0.95648637  0.41801615  1.0
  Bi  Bi1533  1  0.46136550  0.28981970  0.41801615  1.0
  Bi  Bi1534  1  0.46136550  0.62315303  0.41801615  1.0
  Bi  Bi1535  1  0.46136550  0.95648637  0.41801615  1.0
  Bi  Bi1536  1  0.79469883  0.28981970  0.41801615  1.0
  Bi  Bi1537  1  0.79469883  0.62315303  0.41801615  1.0
  Bi  Bi1538  1  0.79469883  0.95648637  0.41801615  1.0
  Bi  Bi1539  1  0.29469883  0.28981970  0.34658758  1.0
  Bi  Bi1540  1  0.29469883  0.62315303  0.34658758  1.0
  Bi  Bi1541  1  0.29469883  0.95648637  0.34658758  1.0
  Bi  Bi1542  1  0.62803217  0.28981970  0.34658758  1.0
  Bi  Bi1543  1  0.62803217  0.62315303  0.34658758  1.0
  Bi  Bi1544  1  0.62803217  0.95648637  0.34658758  1.0
  Bi  Bi1545  1  0.96136550  0.28981970  0.34658758  1.0
  Bi  Bi1546  1  0.96136550  0.62315303  0.34658758  1.0
  Bi  Bi1547  1  0.96136550  0.95648637  0.34658758  1.0
  Bi  Bi1548  1  0.04286475  0.04056945  0.42639486  1.0
  Bi  Bi1549  1  0.04286475  0.37390278  0.42639486  1.0
  Bi  Bi1550  1  0.04286475  0.70723612  0.42639486  1.0
  Bi  Bi1551  1  0.37619809  0.04056945  0.42639486  1.0
  Bi  Bi1552  1  0.37619809  0.37390278  0.42639486  1.0
  Bi  Bi1553  1  0.37619809  0.70723612  0.42639486  1.0
  Bi  Bi1554  1  0.70953142  0.04056945  0.42639486  1.0
  Bi  Bi1555  1  0.70953142  0.37390278  0.42639486  1.0
  Bi  Bi1556  1  0.70953142  0.70723612  0.42639486  1.0
  Bi  Bi1557  1  0.20953142  0.04056945  0.35496629  1.0
  Bi  Bi1558  1  0.20953142  0.37390278  0.35496629  1.0
  Bi  Bi1559  1  0.20953142  0.70723612  0.35496629  1.0
  Bi  Bi1560  1  0.54286475  0.04056945  0.35496629  1.0
  Bi  Bi1561  1  0.54286475  0.37390278  0.35496629  1.0
  Bi  Bi1562  1  0.54286475  0.70723612  0.35496629  1.0
  Bi  Bi1563  1  0.87619809  0.04056945  0.35496629  1.0
  Bi  Bi1564  1  0.87619809  0.37390278  0.35496629  1.0
  Bi  Bi1565  1  0.87619809  0.70723612  0.35496629  1.0
  Bi  Bi1566  1  0.04726275  0.29148315  0.31294818  1.0
  Bi  Bi1567  1  0.04726275  0.62481648  0.31294818  1.0
  Bi  Bi1568  1  0.04726275  0.95814981  0.31294818  1.0
  Bi  Bi1569  1  0.38059608  0.29148315  0.31294818  1.0
  Bi  Bi1570  1  0.38059608  0.62481648  0.31294818  1.0
  Bi  Bi1571  1  0.38059608  0.95814981  0.31294818  1.0
  Bi  Bi1572  1  0.71392942  0.29148315  0.31294818  1.0
  Bi  Bi1573  1  0.71392942  0.62481648  0.31294818  1.0
  Bi  Bi1574  1  0.71392942  0.95814981  0.31294818  1.0
  Bi  Bi1575  1  0.21392942  0.29148315  0.38437675  1.0
  Bi  Bi1576  1  0.21392942  0.62481648  0.38437675  1.0
  Bi  Bi1577  1  0.21392942  0.95814981  0.38437675  1.0
  Bi  Bi1578  1  0.54726275  0.29148315  0.38437675  1.0
  Bi  Bi1579  1  0.54726275  0.62481648  0.38437675  1.0
  Bi  Bi1580  1  0.54726275  0.95814981  0.38437675  1.0
  Bi  Bi1581  1  0.88059608  0.29148315  0.38437675  1.0
  Bi  Bi1582  1  0.88059608  0.62481648  0.38437675  1.0
  Bi  Bi1583  1  0.88059608  0.95814981  0.38437675  1.0
  Bi  Bi1584  1  0.11879918  0.04056945  0.31608104  1.0
  Bi  Bi1585  1  0.11879918  0.37390278  0.31608104  1.0
  Bi  Bi1586  1  0.11879918  0.70723612  0.31608104  1.0
  Bi  Bi1587  1  0.45213251  0.04056945  0.31608104  1.0
  Bi  Bi1588  1  0.45213251  0.37390278  0.31608104  1.0
  Bi  Bi1589  1  0.45213251  0.70723612  0.31608104  1.0
  Bi  Bi1590  1  0.78546584  0.04056945  0.31608104  1.0
  Bi  Bi1591  1  0.78546584  0.37390278  0.31608104  1.0
  Bi  Bi1592  1  0.78546584  0.70723612  0.31608104  1.0
  Bi  Bi1593  1  0.28546584  0.04056945  0.38750961  1.0
  Bi  Bi1594  1  0.28546584  0.37390278  0.38750961  1.0
  Bi  Bi1595  1  0.28546584  0.70723612  0.38750961  1.0
  Bi  Bi1596  1  0.61879917  0.04056945  0.38750961  1.0
  Bi  Bi1597  1  0.61879917  0.37390278  0.38750961  1.0
  Bi  Bi1598  1  0.61879917  0.70723612  0.38750961  1.0
  Bi  Bi1599  1  0.95213251  0.04056945  0.38750961  1.0
  Bi  Bi1600  1  0.95213251  0.37390278  0.38750961  1.0
  Bi  Bi1601  1  0.95213251  0.70723612  0.38750961  1.0
  Bi  Bi1602  1  0.12349779  0.29148315  0.34562034  1.0
  Bi  Bi1603  1  0.12349779  0.62481648  0.34562034  1.0
  Bi  Bi1604  1  0.12349779  0.95814981  0.34562034  1.0
  Bi  Bi1605  1  0.45683112  0.29148315  0.34562034  1.0
  Bi  Bi1606  1  0.45683112  0.62481648  0.34562034  1.0
  Bi  Bi1607  1  0.45683112  0.95814981  0.34562034  1.0
  Bi  Bi1608  1  0.79016445  0.29148315  0.34562034  1.0
  Bi  Bi1609  1  0.79016445  0.62481648  0.34562034  1.0
  Bi  Bi1610  1  0.79016445  0.95814981  0.34562034  1.0
  Bi  Bi1611  1  0.29016445  0.29148315  0.41704891  1.0
  Bi  Bi1612  1  0.29016445  0.62481648  0.41704891  1.0
  Bi  Bi1613  1  0.29016445  0.95814981  0.41704891  1.0
  Bi  Bi1614  1  0.62349779  0.29148315  0.41704891  1.0
  Bi  Bi1615  1  0.62349779  0.62481648  0.41704891  1.0
  Bi  Bi1616  1  0.62349779  0.95814981  0.41704891  1.0
  Bi  Bi1617  1  0.95683112  0.29148315  0.41704891  1.0
  Bi  Bi1618  1  0.95683112  0.62481648  0.41704891  1.0
  Bi  Bi1619  1  0.95683112  0.95814981  0.41704891  1.0
  Bi  Bi1620  1  0.11882478  0.04082674  0.39370835  1.0
  Bi  Bi1621  1  0.11882478  0.37416007  0.39370835  1.0
  Bi  Bi1622  1  0.11882478  0.70749340  0.39370835  1.0
  Bi  Bi1623  1  0.45215811  0.04082674  0.39370835  1.0
  Bi  Bi1624  1  0.45215811  0.37416007  0.39370835  1.0
  Bi  Bi1625  1  0.45215811  0.70749340  0.39370835  1.0
  Bi  Bi1626  1  0.78549145  0.04082674  0.39370835  1.0
  Bi  Bi1627  1  0.78549145  0.37416007  0.39370835  1.0
  Bi  Bi1628  1  0.78549145  0.70749340  0.39370835  1.0
  Bi  Bi1629  1  0.28549145  0.04082674  0.32227978  1.0
  Bi  Bi1630  1  0.28549145  0.37416007  0.32227978  1.0
  Bi  Bi1631  1  0.28549145  0.70749340  0.32227978  1.0
  Bi  Bi1632  1  0.61882478  0.04082674  0.32227978  1.0
  Bi  Bi1633  1  0.61882478  0.37416007  0.32227978  1.0
  Bi  Bi1634  1  0.61882478  0.70749340  0.32227978  1.0
  Bi  Bi1635  1  0.95215811  0.04082674  0.32227978  1.0
  Bi  Bi1636  1  0.95215811  0.37416007  0.32227978  1.0
  Bi  Bi1637  1  0.95215811  0.70749340  0.32227978  1.0
  Bi  Bi1638  1  0.04771019  0.29136184  0.37776920  1.0
  Bi  Bi1639  1  0.04771019  0.62469518  0.37776920  1.0
  Bi  Bi1640  1  0.04771019  0.95802851  0.37776920  1.0
  Bi  Bi1641  1  0.38104353  0.29136184  0.37776920  1.0
  Bi  Bi1642  1  0.38104353  0.62469518  0.37776920  1.0
  Bi  Bi1643  1  0.38104353  0.95802851  0.37776920  1.0
  Bi  Bi1644  1  0.71437686  0.29136184  0.37776920  1.0
  Bi  Bi1645  1  0.71437686  0.62469518  0.37776920  1.0
  Bi  Bi1646  1  0.71437686  0.95802851  0.37776920  1.0
  Bi  Bi1647  1  0.21437686  0.29136184  0.30634063  1.0
  Bi  Bi1648  1  0.21437686  0.62469518  0.30634063  1.0
  Bi  Bi1649  1  0.21437686  0.95802851  0.30634063  1.0
  Bi  Bi1650  1  0.54771019  0.29136184  0.30634063  1.0
  Bi  Bi1651  1  0.54771019  0.62469518  0.30634063  1.0
  Bi  Bi1652  1  0.54771019  0.95802851  0.30634063  1.0
  Bi  Bi1653  1  0.88104353  0.29136184  0.30634063  1.0
  Bi  Bi1654  1  0.88104353  0.62469518  0.30634063  1.0
  Bi  Bi1655  1  0.88104353  0.95802851  0.30634063  1.0
  Bi  Bi1656  1  0.16460394  0.12307709  0.36465355  1.0
  Bi  Bi1657  1  0.16460394  0.45641043  0.36465355  1.0
  Bi  Bi1658  1  0.16460394  0.78974376  0.36465355  1.0
  Bi  Bi1659  1  0.49793727  0.12307709  0.36465355  1.0
  Bi  Bi1660  1  0.49793727  0.45641043  0.36465355  1.0
  Bi  Bi1661  1  0.49793727  0.78974376  0.36465355  1.0
  Bi  Bi1662  1  0.83127060  0.12307709  0.36465355  1.0
  Bi  Bi1663  1  0.83127060  0.45641043  0.36465355  1.0
  Bi  Bi1664  1  0.83127060  0.78974376  0.36465355  1.0
  Bi  Bi1665  1  0.33127060  0.12307709  0.29322498  1.0
  Bi  Bi1666  1  0.33127061  0.45641043  0.29322498  1.0
  Bi  Bi1667  1  0.33127061  0.78974376  0.29322498  1.0
  Bi  Bi1668  1  0.66460394  0.12307709  0.29322498  1.0
  Bi  Bi1669  1  0.66460394  0.45641043  0.29322498  1.0
  Bi  Bi1670  1  0.66460394  0.78974376  0.29322498  1.0
  Bi  Bi1671  1  0.99793727  0.12307709  0.29322498  1.0
  Bi  Bi1672  1  0.99793727  0.45641043  0.29322498  1.0
  Bi  Bi1673  1  0.99793727  0.78974376  0.29322498  1.0
  Bi  Bi1674  1  0.07872234  0.20879518  0.29966255  1.0
  Bi  Bi1675  1  0.07872234  0.54212851  0.29966255  1.0
  Bi  Bi1676  1  0.07872234  0.87546184  0.29966255  1.0
  Bi  Bi1677  1  0.41205567  0.20879518  0.29966255  1.0
  Bi  Bi1678  1  0.41205567  0.54212851  0.29966255  1.0
  Bi  Bi1679  1  0.41205567  0.87546184  0.29966255  1.0
  Bi  Bi1680  1  0.74538900  0.20879518  0.29966255  1.0
  Bi  Bi1681  1  0.74538900  0.54212851  0.29966255  1.0
  Bi  Bi1682  1  0.74538900  0.87546184  0.29966255  1.0
  Bi  Bi1683  1  0.24538900  0.20879518  0.37109112  1.0
  Bi  Bi1684  1  0.24538900  0.54212851  0.37109112  1.0
  Bi  Bi1685  1  0.24538900  0.87546184  0.37109112  1.0
  Bi  Bi1686  1  0.57872234  0.20879518  0.37109112  1.0
  Bi  Bi1687  1  0.57872233  0.54212851  0.37109112  1.0
  Bi  Bi1688  1  0.57872234  0.87546184  0.37109112  1.0
  Bi  Bi1689  1  0.91205567  0.20879518  0.37109112  1.0
  Bi  Bi1690  1  0.91205567  0.54212851  0.37109112  1.0
  Bi  Bi1691  1  0.91205567  0.87546184  0.37109112  1.0
  Bi  Bi1692  1  0.08870729  0.12307709  0.33212641  1.0
  Bi  Bi1693  1  0.08870729  0.45641043  0.33212641  1.0
  Bi  Bi1694  1  0.08870729  0.78974376  0.33212641  1.0
  Bi  Bi1695  1  0.42204062  0.12307709  0.33212642  1.0
  Bi  Bi1696  1  0.42204062  0.45641043  0.33212642  1.0
  Bi  Bi1697  1  0.42204062  0.78974376  0.33212641  1.0
  Bi  Bi1698  1  0.75537395  0.12307709  0.33212641  1.0
  Bi  Bi1699  1  0.75537395  0.45641043  0.33212641  1.0
  Bi  Bi1700  1  0.75537395  0.78974376  0.33212641  1.0
  Bi  Bi1701  1  0.25537395  0.12307709  0.40355499  1.0
  Bi  Bi1702  1  0.25537395  0.45641043  0.40355499  1.0
  Bi  Bi1703  1  0.25537395  0.78974376  0.40355499  1.0
  Bi  Bi1704  1  0.58870729  0.12307709  0.40355499  1.0
  Bi  Bi1705  1  0.58870729  0.45641043  0.40355499  1.0
  Bi  Bi1706  1  0.58870729  0.78974376  0.40355499  1.0
  Bi  Bi1707  1  0.92204062  0.12307709  0.40355499  1.0
  Bi  Bi1708  1  0.92204062  0.45641043  0.40355499  1.0
  Bi  Bi1709  1  0.92204062  0.78974376  0.40355499  1.0
  Bi  Bi1710  1  0.16461188  0.20879518  0.33647236  1.0
  Bi  Bi1711  1  0.16461188  0.54212851  0.33647236  1.0
  Bi  Bi1712  1  0.16461188  0.87546184  0.33647236  1.0
  Bi  Bi1713  1  0.49794521  0.20879518  0.33647236  1.0
  Bi  Bi1714  1  0.49794521  0.54212851  0.33647236  1.0
  Bi  Bi1715  1  0.49794521  0.87546184  0.33647236  1.0
  Bi  Bi1716  1  0.83127854  0.20879518  0.33647236  1.0
  Bi  Bi1717  1  0.83127854  0.54212851  0.33647236  1.0
  Bi  Bi1718  1  0.83127854  0.87546184  0.33647236  1.0
  Bi  Bi1719  1  0.33127855  0.20879518  0.40790093  1.0
  Bi  Bi1720  1  0.33127854  0.54212851  0.40790093  1.0
  Bi  Bi1721  1  0.33127854  0.87546184  0.40790093  1.0
  Bi  Bi1722  1  0.66461188  0.20879518  0.40790093  1.0
  Bi  Bi1723  1  0.66461188  0.54212851  0.40790093  1.0
  Bi  Bi1724  1  0.66461188  0.87546184  0.40790093  1.0
  Bi  Bi1725  1  0.99794521  0.20879518  0.40790093  1.0
  Bi  Bi1726  1  0.99794521  0.54212851  0.40790093  1.0
  Bi  Bi1727  1  0.99794521  0.87546184  0.40790093  1.0
