# generated using pymatgen
data_NiBi3
_symmetry_space_group_name_H-M   'P 1'
_cell_length_a   26.72847000
_cell_length_b   70.39599029
_cell_length_c   29.11176100
_cell_angle_alpha   100.20861171
_cell_angle_beta   90.00000000
_cell_angle_gamma   90.00000000
_symmetry_Int_Tables_number   1
_chemical_formula_structural   NiBi3
_chemical_formula_sum   'Ni216 Bi648'
_cell_volume   53908.86297440
_cell_formula_units_Z   216
loop_
 _symmetry_equiv_pos_site_id
 _symmetry_equiv_pos_as_xyz
  1  'x, y, z'
loop_
 _atom_site_type_symbol
 _atom_site_label
 _atom_site_symmetry_multiplicity
 _atom_site_fract_x
 _atom_site_fract_y
 _atom_site_fract_z
 _atom_site_occupancy
  Ni  Ni0  1  0.19636400  0.16350367  0.10317061  1.0
  Ni  Ni1  1  0.19636400  0.49683700  0.10317061  1.0
  Ni  Ni2  1  0.19636400  0.83017033  0.10317061  1.0
  Ni  Ni3  1  0.52969733  0.16350367  0.10317061  1.0
  Ni  Ni4  1  0.52969733  0.49683700  0.10317061  1.0
  Ni  Ni5  1  0.52969733  0.83017033  0.10317061  1.0
  Ni  Ni6  1  0.86303067  0.16350367  0.10317061  1.0
  Ni  Ni7  1  0.86303067  0.49683700  0.10317061  1.0
  Ni  Ni8  1  0.86303067  0.83017033  0.10317061  1.0
  Ni  Ni9  1  0.19636400  0.33017033  0.03174204  1.0
  Ni  Ni10  1  0.19636400  0.66350367  0.03174204  1.0
  Ni  Ni11  1  0.19636400  0.99683700  0.03174204  1.0
  Ni  Ni12  1  0.52969733  0.33017033  0.03174204  1.0
  Ni  Ni13  1  0.52969733  0.66350367  0.03174204  1.0
  Ni  Ni14  1  0.52969733  0.99683700  0.03174204  1.0
  Ni  Ni15  1  0.86303067  0.33017033  0.03174204  1.0
  Ni  Ni16  1  0.86303067  0.66350367  0.03174204  1.0
  Ni  Ni17  1  0.86303067  0.99683700  0.03174204  1.0
  Ni  Ni18  1  0.13696933  0.00316300  0.10588175  1.0
  Ni  Ni19  1  0.13696933  0.33649633  0.10588175  1.0
  Ni  Ni20  1  0.13696933  0.66982967  0.10588175  1.0
  Ni  Ni21  1  0.47030267  0.00316300  0.10588175  1.0
  Ni  Ni22  1  0.47030267  0.33649633  0.10588175  1.0
  Ni  Ni23  1  0.47030267  0.66982967  0.10588175  1.0
  Ni  Ni24  1  0.80363600  0.00316300  0.10588175  1.0
  Ni  Ni25  1  0.80363600  0.33649633  0.10588175  1.0
  Ni  Ni26  1  0.80363600  0.66982967  0.10588175  1.0
  Ni  Ni27  1  0.13696933  0.16982967  0.03445318  1.0
  Ni  Ni28  1  0.13696933  0.50316300  0.03445318  1.0
  Ni  Ni29  1  0.13696933  0.83649633  0.03445318  1.0
  Ni  Ni30  1  0.47030267  0.16982967  0.03445318  1.0
  Ni  Ni31  1  0.47030267  0.50316300  0.03445318  1.0
  Ni  Ni32  1  0.47030267  0.83649633  0.03445318  1.0
  Ni  Ni33  1  0.80363600  0.16982967  0.03445318  1.0
  Ni  Ni34  1  0.80363600  0.50316300  0.03445318  1.0
  Ni  Ni35  1  0.80363600  0.83649633  0.03445318  1.0
  Ni  Ni36  1  0.02969733  0.08649633  0.07016746  1.0
  Ni  Ni37  1  0.02969733  0.41982967  0.07016746  1.0
  Ni  Ni38  1  0.02969733  0.75316300  0.07016746  1.0
  Ni  Ni39  1  0.36303067  0.08649633  0.07016746  1.0
  Ni  Ni40  1  0.36303067  0.41982967  0.07016746  1.0
  Ni  Ni41  1  0.36303067  0.75316300  0.07016746  1.0
  Ni  Ni42  1  0.69636400  0.08649633  0.07016746  1.0
  Ni  Ni43  1  0.69636400  0.41982967  0.07016746  1.0
  Ni  Ni44  1  0.69636400  0.75316300  0.07016746  1.0
  Ni  Ni45  1  0.02969733  0.25316300  0.14159604  1.0
  Ni  Ni46  1  0.02969733  0.58649633  0.14159604  1.0
  Ni  Ni47  1  0.02969733  0.91982967  0.14159604  1.0
  Ni  Ni48  1  0.36303067  0.25316300  0.14159604  1.0
  Ni  Ni49  1  0.36303067  0.58649633  0.14159604  1.0
  Ni  Ni50  1  0.36303067  0.91982967  0.14159604  1.0
  Ni  Ni51  1  0.69636400  0.25316300  0.14159604  1.0
  Ni  Ni52  1  0.69636400  0.58649633  0.14159604  1.0
  Ni  Ni53  1  0.69636400  0.91982967  0.14159604  1.0
  Ni  Ni54  1  0.30363600  0.08017033  0.13888489  1.0
  Ni  Ni55  1  0.30363600  0.41350367  0.13888489  1.0
  Ni  Ni56  1  0.30363600  0.74683700  0.13888489  1.0
  Ni  Ni57  1  0.63696933  0.08017033  0.13888489  1.0
  Ni  Ni58  1  0.63696933  0.41350367  0.13888489  1.0
  Ni  Ni59  1  0.63696933  0.74683700  0.13888489  1.0
  Ni  Ni60  1  0.97030267  0.08017033  0.13888489  1.0
  Ni  Ni61  1  0.97030267  0.41350367  0.13888489  1.0
  Ni  Ni62  1  0.97030267  0.74683700  0.13888489  1.0
  Ni  Ni63  1  0.30363600  0.24683700  0.06745632  1.0
  Ni  Ni64  1  0.30363600  0.58017033  0.06745632  1.0
  Ni  Ni65  1  0.30363600  0.91350367  0.06745632  1.0
  Ni  Ni66  1  0.63696933  0.24683700  0.06745632  1.0
  Ni  Ni67  1  0.63696933  0.58017033  0.06745632  1.0
  Ni  Ni68  1  0.63696933  0.91350367  0.06745632  1.0
  Ni  Ni69  1  0.97030267  0.24683700  0.06745632  1.0
  Ni  Ni70  1  0.97030267  0.58017033  0.06745632  1.0
  Ni  Ni71  1  0.97030267  0.91350367  0.06745632  1.0
  Bi  Bi72  1  0.23390333  0.01824000  0.11234332  1.0
  Bi  Bi73  1  0.23390333  0.35157333  0.11234332  1.0
  Bi  Bi74  1  0.23390333  0.68490667  0.11234332  1.0
  Bi  Bi75  1  0.56723667  0.01824000  0.11234332  1.0
  Bi  Bi76  1  0.56723667  0.35157333  0.11234332  1.0
  Bi  Bi77  1  0.56723667  0.68490667  0.11234332  1.0
  Bi  Bi78  1  0.90057000  0.01824000  0.11234332  1.0
  Bi  Bi79  1  0.90057000  0.35157333  0.11234332  1.0
  Bi  Bi80  1  0.90057000  0.68490667  0.11234332  1.0
  Bi  Bi81  1  0.23390333  0.18490667  0.04091475  1.0
  Bi  Bi82  1  0.23390333  0.51824000  0.04091475  1.0
  Bi  Bi83  1  0.23390333  0.85157333  0.04091475  1.0
  Bi  Bi84  1  0.56723667  0.18490667  0.04091475  1.0
  Bi  Bi85  1  0.56723667  0.51824000  0.04091475  1.0
  Bi  Bi86  1  0.56723667  0.85157333  0.04091475  1.0
  Bi  Bi87  1  0.90057000  0.18490667  0.04091475  1.0
  Bi  Bi88  1  0.90057000  0.51824000  0.04091475  1.0
  Bi  Bi89  1  0.90057000  0.85157333  0.04091475  1.0
  Bi  Bi90  1  0.09943000  0.14842667  0.09670904  1.0
  Bi  Bi91  1  0.09943000  0.48176000  0.09670904  1.0
  Bi  Bi92  1  0.09943000  0.81509333  0.09670904  1.0
  Bi  Bi93  1  0.43276333  0.14842667  0.09670904  1.0
  Bi  Bi94  1  0.43276333  0.48176000  0.09670904  1.0
  Bi  Bi95  1  0.43276333  0.81509333  0.09670904  1.0
  Bi  Bi96  1  0.76609667  0.14842667  0.09670904  1.0
  Bi  Bi97  1  0.76609667  0.48176000  0.09670904  1.0
  Bi  Bi98  1  0.76609667  0.81509333  0.09670904  1.0
  Bi  Bi99  1  0.09943000  0.31509333  0.02528046  1.0
  Bi  Bi100  1  0.09943000  0.64842667  0.02528046  1.0
  Bi  Bi101  1  0.09943000  0.98176000  0.02528046  1.0
  Bi  Bi102  1  0.43276333  0.31509333  0.02528046  1.0
  Bi  Bi103  1  0.43276333  0.64842667  0.02528046  1.0
  Bi  Bi104  1  0.43276333  0.98176000  0.02528046  1.0
  Bi  Bi105  1  0.76609667  0.31509333  0.02528046  1.0
  Bi  Bi106  1  0.76609667  0.64842667  0.02528046  1.0
  Bi  Bi107  1  0.76609667  0.98176000  0.02528046  1.0
  Bi  Bi108  1  0.06723667  0.06509333  0.13242332  1.0
  Bi  Bi109  1  0.06723667  0.39842667  0.13242332  1.0
  Bi  Bi110  1  0.06723667  0.73176000  0.13242332  1.0
  Bi  Bi111  1  0.40057000  0.06509333  0.13242332  1.0
  Bi  Bi112  1  0.40057000  0.39842667  0.13242332  1.0
  Bi  Bi113  1  0.40057000  0.73176000  0.13242332  1.0
  Bi  Bi114  1  0.73390333  0.06509333  0.13242332  1.0
  Bi  Bi115  1  0.73390333  0.39842667  0.13242332  1.0
  Bi  Bi116  1  0.73390333  0.73176000  0.13242332  1.0
  Bi  Bi117  1  0.06723667  0.23176000  0.06099475  1.0
  Bi  Bi118  1  0.06723667  0.56509333  0.06099475  1.0
  Bi  Bi119  1  0.06723667  0.89842667  0.06099475  1.0
  Bi  Bi120  1  0.40057000  0.23176000  0.06099475  1.0
  Bi  Bi121  1  0.40057000  0.56509333  0.06099475  1.0
  Bi  Bi122  1  0.40057000  0.89842667  0.06099475  1.0
  Bi  Bi123  1  0.73390333  0.23176000  0.06099475  1.0
  Bi  Bi124  1  0.73390333  0.56509333  0.06099475  1.0
  Bi  Bi125  1  0.73390333  0.89842667  0.06099475  1.0
  Bi  Bi126  1  0.26609667  0.10157333  0.07662904  1.0
  Bi  Bi127  1  0.26609667  0.43490667  0.07662904  1.0
  Bi  Bi128  1  0.26609667  0.76824000  0.07662904  1.0
  Bi  Bi129  1  0.59943000  0.10157333  0.07662904  1.0
  Bi  Bi130  1  0.59943000  0.43490667  0.07662904  1.0
  Bi  Bi131  1  0.59943000  0.76824000  0.07662904  1.0
  Bi  Bi132  1  0.93276333  0.10157333  0.07662904  1.0
  Bi  Bi133  1  0.93276333  0.43490667  0.07662904  1.0
  Bi  Bi134  1  0.93276333  0.76824000  0.07662904  1.0
  Bi  Bi135  1  0.26609667  0.26824000  0.00520046  1.0
  Bi  Bi136  1  0.26609667  0.60157333  0.00520046  1.0
  Bi  Bi137  1  0.26609667  0.93490667  0.00520046  1.0
  Bi  Bi138  1  0.59943000  0.26824000  0.00520046  1.0
  Bi  Bi139  1  0.59943000  0.60157333  0.00520046  1.0
  Bi  Bi140  1  0.59943000  0.93490667  0.00520046  1.0
  Bi  Bi141  1  0.93276333  0.26824000  0.00520046  1.0
  Bi  Bi142  1  0.93276333  0.60157333  0.00520046  1.0
  Bi  Bi143  1  0.93276333  0.93490667  0.00520046  1.0
  Bi  Bi144  1  0.20657400  0.06795917  0.13365154  1.0
  Bi  Bi145  1  0.20657400  0.40129250  0.13365154  1.0
  Bi  Bi146  1  0.20657400  0.73462583  0.13365154  1.0
  Bi  Bi147  1  0.53990733  0.06795917  0.13365154  1.0
  Bi  Bi148  1  0.53990733  0.40129250  0.13365154  1.0
  Bi  Bi149  1  0.53990733  0.73462583  0.13365154  1.0
  Bi  Bi150  1  0.87324067  0.06795917  0.13365154  1.0
  Bi  Bi151  1  0.87324067  0.40129250  0.13365154  1.0
  Bi  Bi152  1  0.87324067  0.73462583  0.13365154  1.0
  Bi  Bi153  1  0.20657400  0.23462583  0.06222296  1.0
  Bi  Bi154  1  0.20657400  0.56795917  0.06222296  1.0
  Bi  Bi155  1  0.20657400  0.90129250  0.06222296  1.0
  Bi  Bi156  1  0.53990733  0.23462583  0.06222296  1.0
  Bi  Bi157  1  0.53990733  0.56795917  0.06222296  1.0
  Bi  Bi158  1  0.53990733  0.90129250  0.06222296  1.0
  Bi  Bi159  1  0.87324067  0.23462583  0.06222296  1.0
  Bi  Bi160  1  0.87324067  0.56795917  0.06222296  1.0
  Bi  Bi161  1  0.87324067  0.90129250  0.06222296  1.0
  Bi  Bi162  1  0.12675933  0.09870750  0.07540082  1.0
  Bi  Bi163  1  0.12675933  0.43204083  0.07540082  1.0
  Bi  Bi164  1  0.12675933  0.76537417  0.07540082  1.0
  Bi  Bi165  1  0.46009267  0.09870750  0.07540082  1.0
  Bi  Bi166  1  0.46009267  0.43204083  0.07540082  1.0
  Bi  Bi167  1  0.46009267  0.76537417  0.07540082  1.0
  Bi  Bi168  1  0.79342600  0.09870750  0.07540082  1.0
  Bi  Bi169  1  0.79342600  0.43204083  0.07540082  1.0
  Bi  Bi170  1  0.79342600  0.76537417  0.07540082  1.0
  Bi  Bi171  1  0.12675933  0.26537417  0.00397225  1.0
  Bi  Bi172  1  0.12675933  0.59870750  0.00397225  1.0
  Bi  Bi173  1  0.12675933  0.93204083  0.00397225  1.0
  Bi  Bi174  1  0.46009267  0.26537417  0.00397225  1.0
  Bi  Bi175  1  0.46009267  0.59870750  0.00397225  1.0
  Bi  Bi176  1  0.46009267  0.93204083  0.00397225  1.0
  Bi  Bi177  1  0.79342600  0.26537417  0.00397225  1.0
  Bi  Bi178  1  0.79342600  0.59870750  0.00397225  1.0
  Bi  Bi179  1  0.79342600  0.93204083  0.00397225  1.0
  Bi  Bi180  1  0.03990733  0.01537417  0.11111511  1.0
  Bi  Bi181  1  0.03990733  0.34870750  0.11111511  1.0
  Bi  Bi182  1  0.03990733  0.68204083  0.11111511  1.0
  Bi  Bi183  1  0.37324067  0.01537417  0.11111511  1.0
  Bi  Bi184  1  0.37324067  0.34870750  0.11111511  1.0
  Bi  Bi185  1  0.37324067  0.68204083  0.11111511  1.0
  Bi  Bi186  1  0.70657400  0.01537417  0.11111511  1.0
  Bi  Bi187  1  0.70657400  0.34870750  0.11111511  1.0
  Bi  Bi188  1  0.70657400  0.68204083  0.11111511  1.0
  Bi  Bi189  1  0.03990733  0.18204083  0.03968654  1.0
  Bi  Bi190  1  0.03990733  0.51537417  0.03968654  1.0
  Bi  Bi191  1  0.03990733  0.84870750  0.03968654  1.0
  Bi  Bi192  1  0.37324067  0.18204083  0.03968654  1.0
  Bi  Bi193  1  0.37324067  0.51537417  0.03968654  1.0
  Bi  Bi194  1  0.37324067  0.84870750  0.03968654  1.0
  Bi  Bi195  1  0.70657400  0.18204083  0.03968654  1.0
  Bi  Bi196  1  0.70657400  0.51537417  0.03968654  1.0
  Bi  Bi197  1  0.70657400  0.84870750  0.03968654  1.0
  Bi  Bi198  1  0.29342600  0.15129250  0.09793725  1.0
  Bi  Bi199  1  0.29342600  0.48462583  0.09793725  1.0
  Bi  Bi200  1  0.29342600  0.81795917  0.09793725  1.0
  Bi  Bi201  1  0.62675933  0.15129250  0.09793725  1.0
  Bi  Bi202  1  0.62675933  0.48462583  0.09793725  1.0
  Bi  Bi203  1  0.62675933  0.81795917  0.09793725  1.0
  Bi  Bi204  1  0.96009267  0.15129250  0.09793725  1.0
  Bi  Bi205  1  0.96009267  0.48462583  0.09793725  1.0
  Bi  Bi206  1  0.96009267  0.81795917  0.09793725  1.0
  Bi  Bi207  1  0.29342600  0.31795917  0.02650868  1.0
  Bi  Bi208  1  0.29342600  0.65129250  0.02650868  1.0
  Bi  Bi209  1  0.29342600  0.98462583  0.02650868  1.0
  Bi  Bi210  1  0.62675933  0.31795917  0.02650868  1.0
  Bi  Bi211  1  0.62675933  0.65129250  0.02650868  1.0
  Bi  Bi212  1  0.62675933  0.98462583  0.02650868  1.0
  Bi  Bi213  1  0.96009267  0.31795917  0.02650868  1.0
  Bi  Bi214  1  0.96009267  0.65129250  0.02650868  1.0
  Bi  Bi215  1  0.96009267  0.98462583  0.02650868  1.0
  Bi  Bi216  1  0.30351367  0.05378833  0.05614975  1.0
  Bi  Bi217  1  0.30351367  0.38712167  0.05614975  1.0
  Bi  Bi218  1  0.30351367  0.72045500  0.05614975  1.0
  Bi  Bi219  1  0.63684700  0.05378833  0.05614975  1.0
  Bi  Bi220  1  0.63684700  0.38712167  0.05614975  1.0
  Bi  Bi221  1  0.63684700  0.72045500  0.05614975  1.0
  Bi  Bi222  1  0.97018033  0.05378833  0.05614975  1.0
  Bi  Bi223  1  0.97018033  0.38712167  0.05614975  1.0
  Bi  Bi224  1  0.97018033  0.72045500  0.05614975  1.0
  Bi  Bi225  1  0.30351367  0.22045500  0.12757832  1.0
  Bi  Bi226  1  0.30351367  0.55378833  0.12757832  1.0
  Bi  Bi227  1  0.30351367  0.88712167  0.12757832  1.0
  Bi  Bi228  1  0.63684700  0.22045500  0.12757832  1.0
  Bi  Bi229  1  0.63684700  0.55378833  0.12757832  1.0
  Bi  Bi230  1  0.63684700  0.88712167  0.12757832  1.0
  Bi  Bi231  1  0.97018033  0.22045500  0.12757832  1.0
  Bi  Bi232  1  0.97018033  0.55378833  0.12757832  1.0
  Bi  Bi233  1  0.97018033  0.88712167  0.12757832  1.0
  Bi  Bi234  1  0.02981967  0.11287833  0.01004546  1.0
  Bi  Bi235  1  0.02981967  0.44621167  0.01004546  1.0
  Bi  Bi236  1  0.02981967  0.77954500  0.01004546  1.0
  Bi  Bi237  1  0.36315300  0.11287833  0.01004546  1.0
  Bi  Bi238  1  0.36315300  0.44621167  0.01004546  1.0
  Bi  Bi239  1  0.36315300  0.77954500  0.01004546  1.0
  Bi  Bi240  1  0.69648633  0.11287833  0.01004546  1.0
  Bi  Bi241  1  0.69648633  0.44621167  0.01004546  1.0
  Bi  Bi242  1  0.69648633  0.77954500  0.01004546  1.0
  Bi  Bi243  1  0.02981967  0.27954500  0.08147404  1.0
  Bi  Bi244  1  0.02981967  0.61287833  0.08147404  1.0
  Bi  Bi245  1  0.02981967  0.94621167  0.08147404  1.0
  Bi  Bi246  1  0.36315300  0.27954500  0.08147404  1.0
  Bi  Bi247  1  0.36315300  0.61287833  0.08147404  1.0
  Bi  Bi248  1  0.36315300  0.94621167  0.08147404  1.0
  Bi  Bi249  1  0.69648633  0.27954500  0.08147404  1.0
  Bi  Bi250  1  0.69648633  0.61287833  0.08147404  1.0
  Bi  Bi251  1  0.69648633  0.94621167  0.08147404  1.0
  Bi  Bi252  1  0.13684700  0.02954500  0.04575975  1.0
  Bi  Bi253  1  0.13684700  0.36287833  0.04575975  1.0
  Bi  Bi254  1  0.13684700  0.69621167  0.04575975  1.0
  Bi  Bi255  1  0.47018033  0.02954500  0.04575975  1.0
  Bi  Bi256  1  0.47018033  0.36287833  0.04575975  1.0
  Bi  Bi257  1  0.47018033  0.69621167  0.04575975  1.0
  Bi  Bi258  1  0.80351367  0.02954500  0.04575975  1.0
  Bi  Bi259  1  0.80351367  0.36287833  0.04575975  1.0
  Bi  Bi260  1  0.80351367  0.69621167  0.04575975  1.0
  Bi  Bi261  1  0.13684700  0.19621167  0.11718832  1.0
  Bi  Bi262  1  0.13684700  0.52954500  0.11718832  1.0
  Bi  Bi263  1  0.13684700  0.86287833  0.11718832  1.0
  Bi  Bi264  1  0.47018033  0.19621167  0.11718832  1.0
  Bi  Bi265  1  0.47018033  0.52954500  0.11718832  1.0
  Bi  Bi266  1  0.47018033  0.86287833  0.11718832  1.0
  Bi  Bi267  1  0.80351367  0.19621167  0.11718832  1.0
  Bi  Bi268  1  0.80351367  0.52954500  0.11718832  1.0
  Bi  Bi269  1  0.80351367  0.86287833  0.11718832  1.0
  Bi  Bi270  1  0.19648633  0.13712167  0.02043546  1.0
  Bi  Bi271  1  0.19648633  0.47045500  0.02043546  1.0
  Bi  Bi272  1  0.19648633  0.80378833  0.02043546  1.0
  Bi  Bi273  1  0.52981967  0.13712167  0.02043546  1.0
  Bi  Bi274  1  0.52981967  0.47045500  0.02043546  1.0
  Bi  Bi275  1  0.52981967  0.80378833  0.02043546  1.0
  Bi  Bi276  1  0.86315300  0.13712167  0.02043546  1.0
  Bi  Bi277  1  0.86315300  0.47045500  0.02043546  1.0
  Bi  Bi278  1  0.86315300  0.80378833  0.02043546  1.0
  Bi  Bi279  1  0.19648633  0.30378833  0.09186404  1.0
  Bi  Bi280  1  0.19648633  0.63712167  0.09186404  1.0
  Bi  Bi281  1  0.19648633  0.97045500  0.09186404  1.0
  Bi  Bi282  1  0.52981967  0.30378833  0.09186404  1.0
  Bi  Bi283  1  0.52981967  0.63712167  0.09186404  1.0
  Bi  Bi284  1  0.52981967  0.97045500  0.09186404  1.0
  Bi  Bi285  1  0.86315300  0.30378833  0.09186404  1.0
  Bi  Bi286  1  0.86315300  0.63712167  0.09186404  1.0
  Bi  Bi287  1  0.86315300  0.97045500  0.09186404  1.0
  Ni  Ni288  1  0.19636400  0.16350367  0.24602775  1.0
  Ni  Ni289  1  0.19636400  0.49683700  0.24602775  1.0
  Ni  Ni290  1  0.19636400  0.83017033  0.24602775  1.0
  Ni  Ni291  1  0.52969733  0.16350367  0.24602775  1.0
  Ni  Ni292  1  0.52969733  0.49683700  0.24602775  1.0
  Ni  Ni293  1  0.52969733  0.83017033  0.24602775  1.0
  Ni  Ni294  1  0.86303067  0.16350367  0.24602775  1.0
  Ni  Ni295  1  0.86303067  0.49683700  0.24602775  1.0
  Ni  Ni296  1  0.86303067  0.83017033  0.24602775  1.0
  Ni  Ni297  1  0.19636400  0.33017033  0.17459918  1.0
  Ni  Ni298  1  0.19636400  0.66350367  0.17459918  1.0
  Ni  Ni299  1  0.19636400  0.99683700  0.17459918  1.0
  Ni  Ni300  1  0.52969733  0.33017033  0.17459918  1.0
  Ni  Ni301  1  0.52969733  0.66350367  0.17459918  1.0
  Ni  Ni302  1  0.52969733  0.99683700  0.17459918  1.0
  Ni  Ni303  1  0.86303067  0.33017033  0.17459918  1.0
  Ni  Ni304  1  0.86303067  0.66350367  0.17459918  1.0
  Ni  Ni305  1  0.86303067  0.99683700  0.17459918  1.0
  Ni  Ni306  1  0.13696933  0.00316300  0.24873889  1.0
  Ni  Ni307  1  0.13696933  0.33649633  0.24873889  1.0
  Ni  Ni308  1  0.13696933  0.66982967  0.24873889  1.0
  Ni  Ni309  1  0.47030267  0.00316300  0.24873889  1.0
  Ni  Ni310  1  0.47030267  0.33649633  0.24873889  1.0
  Ni  Ni311  1  0.47030267  0.66982967  0.24873889  1.0
  Ni  Ni312  1  0.80363600  0.00316300  0.24873889  1.0
  Ni  Ni313  1  0.80363600  0.33649633  0.24873889  1.0
  Ni  Ni314  1  0.80363600  0.66982967  0.24873889  1.0
  Ni  Ni315  1  0.13696933  0.16982967  0.17731032  1.0
  Ni  Ni316  1  0.13696933  0.50316300  0.17731032  1.0
  Ni  Ni317  1  0.13696933  0.83649633  0.17731032  1.0
  Ni  Ni318  1  0.47030267  0.16982967  0.17731032  1.0
  Ni  Ni319  1  0.47030267  0.50316300  0.17731032  1.0
  Ni  Ni320  1  0.47030267  0.83649633  0.17731032  1.0
  Ni  Ni321  1  0.80363600  0.16982967  0.17731032  1.0
  Ni  Ni322  1  0.80363600  0.50316300  0.17731032  1.0
  Ni  Ni323  1  0.80363600  0.83649633  0.17731032  1.0
  Ni  Ni324  1  0.02969733  0.08649633  0.21302461  1.0
  Ni  Ni325  1  0.02969733  0.41982967  0.21302461  1.0
  Ni  Ni326  1  0.02969733  0.75316300  0.21302461  1.0
  Ni  Ni327  1  0.36303067  0.08649633  0.21302461  1.0
  Ni  Ni328  1  0.36303067  0.41982967  0.21302461  1.0
  Ni  Ni329  1  0.36303067  0.75316300  0.21302461  1.0
  Ni  Ni330  1  0.69636400  0.08649633  0.21302461  1.0
  Ni  Ni331  1  0.69636400  0.41982967  0.21302461  1.0
  Ni  Ni332  1  0.69636400  0.75316300  0.21302461  1.0
  Ni  Ni333  1  0.02969733  0.25316300  0.28445318  1.0
  Ni  Ni334  1  0.02969733  0.58649633  0.28445318  1.0
  Ni  Ni335  1  0.02969733  0.91982967  0.28445318  1.0
  Ni  Ni336  1  0.36303067  0.25316300  0.28445318  1.0
  Ni  Ni337  1  0.36303067  0.58649633  0.28445318  1.0
  Ni  Ni338  1  0.36303067  0.91982967  0.28445318  1.0
  Ni  Ni339  1  0.69636400  0.25316300  0.28445318  1.0
  Ni  Ni340  1  0.69636400  0.58649633  0.28445318  1.0
  Ni  Ni341  1  0.69636400  0.91982967  0.28445318  1.0
  Ni  Ni342  1  0.30363600  0.08017033  0.28174204  1.0
  Ni  Ni343  1  0.30363600  0.41350367  0.28174204  1.0
  Ni  Ni344  1  0.30363600  0.74683700  0.28174204  1.0
  Ni  Ni345  1  0.63696933  0.08017033  0.28174204  1.0
  Ni  Ni346  1  0.63696933  0.41350367  0.28174204  1.0
  Ni  Ni347  1  0.63696933  0.74683700  0.28174204  1.0
  Ni  Ni348  1  0.97030267  0.08017033  0.28174204  1.0
  Ni  Ni349  1  0.97030267  0.41350367  0.28174204  1.0
  Ni  Ni350  1  0.97030267  0.74683700  0.28174204  1.0
  Ni  Ni351  1  0.30363600  0.24683700  0.21031346  1.0
  Ni  Ni352  1  0.30363600  0.58017033  0.21031346  1.0
  Ni  Ni353  1  0.30363600  0.91350367  0.21031346  1.0
  Ni  Ni354  1  0.63696933  0.24683700  0.21031346  1.0
  Ni  Ni355  1  0.63696933  0.58017033  0.21031346  1.0
  Ni  Ni356  1  0.63696933  0.91350367  0.21031346  1.0
  Ni  Ni357  1  0.97030267  0.24683700  0.21031346  1.0
  Ni  Ni358  1  0.97030267  0.58017033  0.21031346  1.0
  Ni  Ni359  1  0.97030267  0.91350367  0.21031346  1.0
  Bi  Bi360  1  0.23390333  0.01824000  0.25520046  1.0
  Bi  Bi361  1  0.23390333  0.35157333  0.25520046  1.0
  Bi  Bi362  1  0.23390333  0.68490667  0.25520046  1.0
  Bi  Bi363  1  0.56723667  0.01824000  0.25520046  1.0
  Bi  Bi364  1  0.56723667  0.35157333  0.25520046  1.0
  Bi  Bi365  1  0.56723667  0.68490667  0.25520046  1.0
  Bi  Bi366  1  0.90057000  0.01824000  0.25520046  1.0
  Bi  Bi367  1  0.90057000  0.35157333  0.25520046  1.0
  Bi  Bi368  1  0.90057000  0.68490667  0.25520046  1.0
  Bi  Bi369  1  0.23390333  0.18490667  0.18377189  1.0
  Bi  Bi370  1  0.23390333  0.51824000  0.18377189  1.0
  Bi  Bi371  1  0.23390333  0.85157333  0.18377189  1.0
  Bi  Bi372  1  0.56723667  0.18490667  0.18377189  1.0
  Bi  Bi373  1  0.56723667  0.51824000  0.18377189  1.0
  Bi  Bi374  1  0.56723667  0.85157333  0.18377189  1.0
  Bi  Bi375  1  0.90057000  0.18490667  0.18377189  1.0
  Bi  Bi376  1  0.90057000  0.51824000  0.18377189  1.0
  Bi  Bi377  1  0.90057000  0.85157333  0.18377189  1.0
  Bi  Bi378  1  0.09943000  0.14842667  0.23956618  1.0
  Bi  Bi379  1  0.09943000  0.48176000  0.23956618  1.0
  Bi  Bi380  1  0.09943000  0.81509333  0.23956618  1.0
  Bi  Bi381  1  0.43276333  0.14842667  0.23956618  1.0
  Bi  Bi382  1  0.43276333  0.48176000  0.23956618  1.0
  Bi  Bi383  1  0.43276333  0.81509333  0.23956618  1.0
  Bi  Bi384  1  0.76609667  0.14842667  0.23956618  1.0
  Bi  Bi385  1  0.76609667  0.48176000  0.23956618  1.0
  Bi  Bi386  1  0.76609667  0.81509333  0.23956618  1.0
  Bi  Bi387  1  0.09943000  0.31509333  0.16813761  1.0
  Bi  Bi388  1  0.09943000  0.64842667  0.16813761  1.0
  Bi  Bi389  1  0.09943000  0.98176000  0.16813761  1.0
  Bi  Bi390  1  0.43276333  0.31509333  0.16813761  1.0
  Bi  Bi391  1  0.43276333  0.64842667  0.16813761  1.0
  Bi  Bi392  1  0.43276333  0.98176000  0.16813761  1.0
  Bi  Bi393  1  0.76609667  0.31509333  0.16813761  1.0
  Bi  Bi394  1  0.76609667  0.64842667  0.16813761  1.0
  Bi  Bi395  1  0.76609667  0.98176000  0.16813761  1.0
  Bi  Bi396  1  0.06723667  0.06509333  0.27528046  1.0
  Bi  Bi397  1  0.06723667  0.39842667  0.27528046  1.0
  Bi  Bi398  1  0.06723667  0.73176000  0.27528046  1.0
  Bi  Bi399  1  0.40057000  0.06509333  0.27528046  1.0
  Bi  Bi400  1  0.40057000  0.39842667  0.27528046  1.0
  Bi  Bi401  1  0.40057000  0.73176000  0.27528046  1.0
  Bi  Bi402  1  0.73390333  0.06509333  0.27528046  1.0
  Bi  Bi403  1  0.73390333  0.39842667  0.27528046  1.0
  Bi  Bi404  1  0.73390333  0.73176000  0.27528046  1.0
  Bi  Bi405  1  0.06723667  0.23176000  0.20385189  1.0
  Bi  Bi406  1  0.06723667  0.56509333  0.20385189  1.0
  Bi  Bi407  1  0.06723667  0.89842667  0.20385189  1.0
  Bi  Bi408  1  0.40057000  0.23176000  0.20385189  1.0
  Bi  Bi409  1  0.40057000  0.56509333  0.20385189  1.0
  Bi  Bi410  1  0.40057000  0.89842667  0.20385189  1.0
  Bi  Bi411  1  0.73390333  0.23176000  0.20385189  1.0
  Bi  Bi412  1  0.73390333  0.56509333  0.20385189  1.0
  Bi  Bi413  1  0.73390333  0.89842667  0.20385189  1.0
  Bi  Bi414  1  0.26609667  0.10157333  0.21948618  1.0
  Bi  Bi415  1  0.26609667  0.43490667  0.21948618  1.0
  Bi  Bi416  1  0.26609667  0.76824000  0.21948618  1.0
  Bi  Bi417  1  0.59943000  0.10157333  0.21948618  1.0
  Bi  Bi418  1  0.59943000  0.43490667  0.21948618  1.0
  Bi  Bi419  1  0.59943000  0.76824000  0.21948618  1.0
  Bi  Bi420  1  0.93276333  0.10157333  0.21948618  1.0
  Bi  Bi421  1  0.93276333  0.43490667  0.21948618  1.0
  Bi  Bi422  1  0.93276333  0.76824000  0.21948618  1.0
  Bi  Bi423  1  0.26609667  0.26824000  0.14805761  1.0
  Bi  Bi424  1  0.26609667  0.60157333  0.14805761  1.0
  Bi  Bi425  1  0.26609667  0.93490667  0.14805761  1.0
  Bi  Bi426  1  0.59943000  0.26824000  0.14805761  1.0
  Bi  Bi427  1  0.59943000  0.60157333  0.14805761  1.0
  Bi  Bi428  1  0.59943000  0.93490667  0.14805761  1.0
  Bi  Bi429  1  0.93276333  0.26824000  0.14805761  1.0
  Bi  Bi430  1  0.93276333  0.60157333  0.14805761  1.0
  Bi  Bi431  1  0.93276333  0.93490667  0.14805761  1.0
  Bi  Bi432  1  0.20657400  0.06795917  0.27650868  1.0
  Bi  Bi433  1  0.20657400  0.40129250  0.27650868  1.0
  Bi  Bi434  1  0.20657400  0.73462583  0.27650868  1.0
  Bi  Bi435  1  0.53990733  0.06795917  0.27650868  1.0
  Bi  Bi436  1  0.53990733  0.40129250  0.27650868  1.0
  Bi  Bi437  1  0.53990733  0.73462583  0.27650868  1.0
  Bi  Bi438  1  0.87324067  0.06795917  0.27650868  1.0
  Bi  Bi439  1  0.87324067  0.40129250  0.27650868  1.0
  Bi  Bi440  1  0.87324067  0.73462583  0.27650868  1.0
  Bi  Bi441  1  0.20657400  0.23462583  0.20508011  1.0
  Bi  Bi442  1  0.20657400  0.56795917  0.20508011  1.0
  Bi  Bi443  1  0.20657400  0.90129250  0.20508011  1.0
  Bi  Bi444  1  0.53990733  0.23462583  0.20508011  1.0
  Bi  Bi445  1  0.53990733  0.56795917  0.20508011  1.0
  Bi  Bi446  1  0.53990733  0.90129250  0.20508011  1.0
  Bi  Bi447  1  0.87324067  0.23462583  0.20508011  1.0
  Bi  Bi448  1  0.87324067  0.56795917  0.20508011  1.0
  Bi  Bi449  1  0.87324067  0.90129250  0.20508011  1.0
  Bi  Bi450  1  0.12675933  0.09870750  0.21825796  1.0
  Bi  Bi451  1  0.12675933  0.43204083  0.21825796  1.0
  Bi  Bi452  1  0.12675933  0.76537417  0.21825796  1.0
  Bi  Bi453  1  0.46009267  0.09870750  0.21825796  1.0
  Bi  Bi454  1  0.46009267  0.43204083  0.21825796  1.0
  Bi  Bi455  1  0.46009267  0.76537417  0.21825796  1.0
  Bi  Bi456  1  0.79342600  0.09870750  0.21825796  1.0
  Bi  Bi457  1  0.79342600  0.43204083  0.21825796  1.0
  Bi  Bi458  1  0.79342600  0.76537417  0.21825796  1.0
  Bi  Bi459  1  0.12675933  0.26537417  0.14682939  1.0
  Bi  Bi460  1  0.12675933  0.59870750  0.14682939  1.0
  Bi  Bi461  1  0.12675933  0.93204083  0.14682939  1.0
  Bi  Bi462  1  0.46009267  0.26537417  0.14682939  1.0
  Bi  Bi463  1  0.46009267  0.59870750  0.14682939  1.0
  Bi  Bi464  1  0.46009267  0.93204083  0.14682939  1.0
  Bi  Bi465  1  0.79342600  0.26537417  0.14682939  1.0
  Bi  Bi466  1  0.79342600  0.59870750  0.14682939  1.0
  Bi  Bi467  1  0.79342600  0.93204083  0.14682939  1.0
  Bi  Bi468  1  0.03990733  0.01537417  0.25397225  1.0
  Bi  Bi469  1  0.03990733  0.34870750  0.25397225  1.0
  Bi  Bi470  1  0.03990733  0.68204083  0.25397225  1.0
  Bi  Bi471  1  0.37324067  0.01537417  0.25397225  1.0
  Bi  Bi472  1  0.37324067  0.34870750  0.25397225  1.0
  Bi  Bi473  1  0.37324067  0.68204083  0.25397225  1.0
  Bi  Bi474  1  0.70657400  0.01537417  0.25397225  1.0
  Bi  Bi475  1  0.70657400  0.34870750  0.25397225  1.0
  Bi  Bi476  1  0.70657400  0.68204083  0.25397225  1.0
  Bi  Bi477  1  0.03990733  0.18204083  0.18254368  1.0
  Bi  Bi478  1  0.03990733  0.51537417  0.18254368  1.0
  Bi  Bi479  1  0.03990733  0.84870750  0.18254368  1.0
  Bi  Bi480  1  0.37324067  0.18204083  0.18254368  1.0
  Bi  Bi481  1  0.37324067  0.51537417  0.18254368  1.0
  Bi  Bi482  1  0.37324067  0.84870750  0.18254368  1.0
  Bi  Bi483  1  0.70657400  0.18204083  0.18254368  1.0
  Bi  Bi484  1  0.70657400  0.51537417  0.18254368  1.0
  Bi  Bi485  1  0.70657400  0.84870750  0.18254368  1.0
  Bi  Bi486  1  0.29342600  0.15129250  0.24079439  1.0
  Bi  Bi487  1  0.29342600  0.48462583  0.24079439  1.0
  Bi  Bi488  1  0.29342600  0.81795917  0.24079439  1.0
  Bi  Bi489  1  0.62675933  0.15129250  0.24079439  1.0
  Bi  Bi490  1  0.62675933  0.48462583  0.24079439  1.0
  Bi  Bi491  1  0.62675933  0.81795917  0.24079439  1.0
  Bi  Bi492  1  0.96009267  0.15129250  0.24079439  1.0
  Bi  Bi493  1  0.96009267  0.48462583  0.24079439  1.0
  Bi  Bi494  1  0.96009267  0.81795917  0.24079439  1.0
  Bi  Bi495  1  0.29342600  0.31795917  0.16936582  1.0
  Bi  Bi496  1  0.29342600  0.65129250  0.16936582  1.0
  Bi  Bi497  1  0.29342600  0.98462583  0.16936582  1.0
  Bi  Bi498  1  0.62675933  0.31795917  0.16936582  1.0
  Bi  Bi499  1  0.62675933  0.65129250  0.16936582  1.0
  Bi  Bi500  1  0.62675933  0.98462583  0.16936582  1.0
  Bi  Bi501  1  0.96009267  0.31795917  0.16936582  1.0
  Bi  Bi502  1  0.96009267  0.65129250  0.16936582  1.0
  Bi  Bi503  1  0.96009267  0.98462583  0.16936582  1.0
  Bi  Bi504  1  0.30351367  0.05378833  0.19900689  1.0
  Bi  Bi505  1  0.30351367  0.38712167  0.19900689  1.0
  Bi  Bi506  1  0.30351367  0.72045500  0.19900689  1.0
  Bi  Bi507  1  0.63684700  0.05378833  0.19900689  1.0
  Bi  Bi508  1  0.63684700  0.38712167  0.19900689  1.0
  Bi  Bi509  1  0.63684700  0.72045500  0.19900689  1.0
  Bi  Bi510  1  0.97018033  0.05378833  0.19900689  1.0
  Bi  Bi511  1  0.97018033  0.38712167  0.19900689  1.0
  Bi  Bi512  1  0.97018033  0.72045500  0.19900689  1.0
  Bi  Bi513  1  0.30351367  0.22045500  0.27043546  1.0
  Bi  Bi514  1  0.30351367  0.55378833  0.27043546  1.0
  Bi  Bi515  1  0.30351367  0.88712167  0.27043546  1.0
  Bi  Bi516  1  0.63684700  0.22045500  0.27043546  1.0
  Bi  Bi517  1  0.63684700  0.55378833  0.27043546  1.0
  Bi  Bi518  1  0.63684700  0.88712167  0.27043546  1.0
  Bi  Bi519  1  0.97018033  0.22045500  0.27043546  1.0
  Bi  Bi520  1  0.97018033  0.55378833  0.27043546  1.0
  Bi  Bi521  1  0.97018033  0.88712167  0.27043546  1.0
  Bi  Bi522  1  0.02981967  0.11287833  0.15290261  1.0
  Bi  Bi523  1  0.02981967  0.44621167  0.15290261  1.0
  Bi  Bi524  1  0.02981967  0.77954500  0.15290261  1.0
  Bi  Bi525  1  0.36315300  0.11287833  0.15290261  1.0
  Bi  Bi526  1  0.36315300  0.44621167  0.15290261  1.0
  Bi  Bi527  1  0.36315300  0.77954500  0.15290261  1.0
  Bi  Bi528  1  0.69648633  0.11287833  0.15290261  1.0
  Bi  Bi529  1  0.69648633  0.44621167  0.15290261  1.0
  Bi  Bi530  1  0.69648633  0.77954500  0.15290261  1.0
  Bi  Bi531  1  0.02981967  0.27954500  0.22433118  1.0
  Bi  Bi532  1  0.02981967  0.61287833  0.22433118  1.0
  Bi  Bi533  1  0.02981967  0.94621167  0.22433118  1.0
  Bi  Bi534  1  0.36315300  0.27954500  0.22433118  1.0
  Bi  Bi535  1  0.36315300  0.61287833  0.22433118  1.0
  Bi  Bi536  1  0.36315300  0.94621167  0.22433118  1.0
  Bi  Bi537  1  0.69648633  0.27954500  0.22433118  1.0
  Bi  Bi538  1  0.69648633  0.61287833  0.22433118  1.0
  Bi  Bi539  1  0.69648633  0.94621167  0.22433118  1.0
  Bi  Bi540  1  0.13684700  0.02954500  0.18861689  1.0
  Bi  Bi541  1  0.13684700  0.36287833  0.18861689  1.0
  Bi  Bi542  1  0.13684700  0.69621167  0.18861689  1.0
  Bi  Bi543  1  0.47018033  0.02954500  0.18861689  1.0
  Bi  Bi544  1  0.47018033  0.36287833  0.18861689  1.0
  Bi  Bi545  1  0.47018033  0.69621167  0.18861689  1.0
  Bi  Bi546  1  0.80351367  0.02954500  0.18861689  1.0
  Bi  Bi547  1  0.80351367  0.36287833  0.18861689  1.0
  Bi  Bi548  1  0.80351367  0.69621167  0.18861689  1.0
  Bi  Bi549  1  0.13684700  0.19621167  0.26004546  1.0
  Bi  Bi550  1  0.13684700  0.52954500  0.26004546  1.0
  Bi  Bi551  1  0.13684700  0.86287833  0.26004546  1.0
  Bi  Bi552  1  0.47018033  0.19621167  0.26004546  1.0
  Bi  Bi553  1  0.47018033  0.52954500  0.26004546  1.0
  Bi  Bi554  1  0.47018033  0.86287833  0.26004546  1.0
  Bi  Bi555  1  0.80351367  0.19621167  0.26004546  1.0
  Bi  Bi556  1  0.80351367  0.52954500  0.26004546  1.0
  Bi  Bi557  1  0.80351367  0.86287833  0.26004546  1.0
  Bi  Bi558  1  0.19648633  0.13712167  0.16329261  1.0
  Bi  Bi559  1  0.19648633  0.47045500  0.16329261  1.0
  Bi  Bi560  1  0.19648633  0.80378833  0.16329261  1.0
  Bi  Bi561  1  0.52981967  0.13712167  0.16329261  1.0
  Bi  Bi562  1  0.52981967  0.47045500  0.16329261  1.0
  Bi  Bi563  1  0.52981967  0.80378833  0.16329261  1.0
  Bi  Bi564  1  0.86315300  0.13712167  0.16329261  1.0
  Bi  Bi565  1  0.86315300  0.47045500  0.16329261  1.0
  Bi  Bi566  1  0.86315300  0.80378833  0.16329261  1.0
  Bi  Bi567  1  0.19648633  0.30378833  0.23472118  1.0
  Bi  Bi568  1  0.19648633  0.63712167  0.23472118  1.0
  Bi  Bi569  1  0.19648633  0.97045500  0.23472118  1.0
  Bi  Bi570  1  0.52981967  0.30378833  0.23472118  1.0
  Bi  Bi571  1  0.52981967  0.63712167  0.23472118  1.0
  Bi  Bi572  1  0.52981967  0.97045500  0.23472118  1.0
  Bi  Bi573  1  0.86315300  0.30378833  0.23472118  1.0
  Bi  Bi574  1  0.86315300  0.63712167  0.23472118  1.0
  Bi  Bi575  1  0.86315300  0.97045500  0.23472118  1.0
  Ni  Ni576  1  0.19636400  0.16350367  0.38888489  1.0
  Ni  Ni577  1  0.19636400  0.49683700  0.38888489  1.0
  Ni  Ni578  1  0.19636400  0.83017033  0.38888489  1.0
  Ni  Ni579  1  0.52969733  0.16350367  0.38888489  1.0
  Ni  Ni580  1  0.52969733  0.49683700  0.38888489  1.0
  Ni  Ni581  1  0.52969733  0.83017033  0.38888489  1.0
  Ni  Ni582  1  0.86303067  0.16350367  0.38888489  1.0
  Ni  Ni583  1  0.86303067  0.49683700  0.38888489  1.0
  Ni  Ni584  1  0.86303067  0.83017033  0.38888489  1.0
  Ni  Ni585  1  0.19636400  0.33017033  0.31745632  1.0
  Ni  Ni586  1  0.19636400  0.66350367  0.31745632  1.0
  Ni  Ni587  1  0.19636400  0.99683700  0.31745632  1.0
  Ni  Ni588  1  0.52969733  0.33017033  0.31745632  1.0
  Ni  Ni589  1  0.52969733  0.66350367  0.31745632  1.0
  Ni  Ni590  1  0.52969733  0.99683700  0.31745632  1.0
  Ni  Ni591  1  0.86303067  0.33017033  0.31745632  1.0
  Ni  Ni592  1  0.86303067  0.66350367  0.31745632  1.0
  Ni  Ni593  1  0.86303067  0.99683700  0.31745632  1.0
  Ni  Ni594  1  0.13696933  0.00316300  0.39159604  1.0
  Ni  Ni595  1  0.13696933  0.33649633  0.39159604  1.0
  Ni  Ni596  1  0.13696933  0.66982967  0.39159604  1.0
  Ni  Ni597  1  0.47030267  0.00316300  0.39159604  1.0
  Ni  Ni598  1  0.47030267  0.33649633  0.39159604  1.0
  Ni  Ni599  1  0.47030267  0.66982967  0.39159604  1.0
  Ni  Ni600  1  0.80363600  0.00316300  0.39159604  1.0
  Ni  Ni601  1  0.80363600  0.33649633  0.39159604  1.0
  Ni  Ni602  1  0.80363600  0.66982967  0.39159604  1.0
  Ni  Ni603  1  0.13696933  0.16982967  0.32016746  1.0
  Ni  Ni604  1  0.13696933  0.50316300  0.32016746  1.0
  Ni  Ni605  1  0.13696933  0.83649633  0.32016746  1.0
  Ni  Ni606  1  0.47030267  0.16982967  0.32016746  1.0
  Ni  Ni607  1  0.47030267  0.50316300  0.32016746  1.0
  Ni  Ni608  1  0.47030267  0.83649633  0.32016746  1.0
  Ni  Ni609  1  0.80363600  0.16982967  0.32016746  1.0
  Ni  Ni610  1  0.80363600  0.50316300  0.32016746  1.0
  Ni  Ni611  1  0.80363600  0.83649633  0.32016746  1.0
  Ni  Ni612  1  0.02969733  0.08649633  0.35588175  1.0
  Ni  Ni613  1  0.02969733  0.41982967  0.35588175  1.0
  Ni  Ni614  1  0.02969733  0.75316300  0.35588175  1.0
  Ni  Ni615  1  0.36303067  0.08649633  0.35588175  1.0
  Ni  Ni616  1  0.36303067  0.41982967  0.35588175  1.0
  Ni  Ni617  1  0.36303067  0.75316300  0.35588175  1.0
  Ni  Ni618  1  0.69636400  0.08649633  0.35588175  1.0
  Ni  Ni619  1  0.69636400  0.41982967  0.35588175  1.0
  Ni  Ni620  1  0.69636400  0.75316300  0.35588175  1.0
  Ni  Ni621  1  0.02969733  0.25316300  0.42731032  1.0
  Ni  Ni622  1  0.02969733  0.58649633  0.42731032  1.0
  Ni  Ni623  1  0.02969733  0.91982967  0.42731032  1.0
  Ni  Ni624  1  0.36303067  0.25316300  0.42731032  1.0
  Ni  Ni625  1  0.36303067  0.58649633  0.42731032  1.0
  Ni  Ni626  1  0.36303067  0.91982967  0.42731032  1.0
  Ni  Ni627  1  0.69636400  0.25316300  0.42731032  1.0
  Ni  Ni628  1  0.69636400  0.58649633  0.42731032  1.0
  Ni  Ni629  1  0.69636400  0.91982967  0.42731032  1.0
  Ni  Ni630  1  0.30363600  0.08017033  0.42459918  1.0
  Ni  Ni631  1  0.30363600  0.41350367  0.42459918  1.0
  Ni  Ni632  1  0.30363600  0.74683700  0.42459918  1.0
  Ni  Ni633  1  0.63696933  0.08017033  0.42459918  1.0
  Ni  Ni634  1  0.63696933  0.41350367  0.42459918  1.0
  Ni  Ni635  1  0.63696933  0.74683700  0.42459918  1.0
  Ni  Ni636  1  0.97030267  0.08017033  0.42459918  1.0
  Ni  Ni637  1  0.97030267  0.41350367  0.42459918  1.0
  Ni  Ni638  1  0.97030267  0.74683700  0.42459918  1.0
  Ni  Ni639  1  0.30363600  0.24683700  0.35317061  1.0
  Ni  Ni640  1  0.30363600  0.58017033  0.35317061  1.0
  Ni  Ni641  1  0.30363600  0.91350367  0.35317061  1.0
  Ni  Ni642  1  0.63696933  0.24683700  0.35317061  1.0
  Ni  Ni643  1  0.63696933  0.58017033  0.35317061  1.0
  Ni  Ni644  1  0.63696933  0.91350367  0.35317061  1.0
  Ni  Ni645  1  0.97030267  0.24683700  0.35317061  1.0
  Ni  Ni646  1  0.97030267  0.58017033  0.35317061  1.0
  Ni  Ni647  1  0.97030267  0.91350367  0.35317061  1.0
  Bi  Bi648  1  0.23390333  0.01824000  0.39805761  1.0
  Bi  Bi649  1  0.23390333  0.35157333  0.39805761  1.0
  Bi  Bi650  1  0.23390333  0.68490667  0.39805761  1.0
  Bi  Bi651  1  0.56723667  0.01824000  0.39805761  1.0
  Bi  Bi652  1  0.56723667  0.35157333  0.39805761  1.0
  Bi  Bi653  1  0.56723667  0.68490667  0.39805761  1.0
  Bi  Bi654  1  0.90057000  0.01824000  0.39805761  1.0
  Bi  Bi655  1  0.90057000  0.35157333  0.39805761  1.0
  Bi  Bi656  1  0.90057000  0.68490667  0.39805761  1.0
  Bi  Bi657  1  0.23390333  0.18490667  0.32662904  1.0
  Bi  Bi658  1  0.23390333  0.51824000  0.32662904  1.0
  Bi  Bi659  1  0.23390333  0.85157333  0.32662904  1.0
  Bi  Bi660  1  0.56723667  0.18490667  0.32662904  1.0
  Bi  Bi661  1  0.56723667  0.51824000  0.32662904  1.0
  Bi  Bi662  1  0.56723667  0.85157333  0.32662904  1.0
  Bi  Bi663  1  0.90057000  0.18490667  0.32662904  1.0
  Bi  Bi664  1  0.90057000  0.51824000  0.32662904  1.0
  Bi  Bi665  1  0.90057000  0.85157333  0.32662904  1.0
  Bi  Bi666  1  0.09943000  0.14842667  0.38242332  1.0
  Bi  Bi667  1  0.09943000  0.48176000  0.38242332  1.0
  Bi  Bi668  1  0.09943000  0.81509333  0.38242332  1.0
  Bi  Bi669  1  0.43276333  0.14842667  0.38242332  1.0
  Bi  Bi670  1  0.43276333  0.48176000  0.38242332  1.0
  Bi  Bi671  1  0.43276333  0.81509333  0.38242332  1.0
  Bi  Bi672  1  0.76609667  0.14842667  0.38242332  1.0
  Bi  Bi673  1  0.76609667  0.48176000  0.38242332  1.0
  Bi  Bi674  1  0.76609667  0.81509333  0.38242332  1.0
  Bi  Bi675  1  0.09943000  0.31509333  0.31099475  1.0
  Bi  Bi676  1  0.09943000  0.64842667  0.31099475  1.0
  Bi  Bi677  1  0.09943000  0.98176000  0.31099475  1.0
  Bi  Bi678  1  0.43276333  0.31509333  0.31099475  1.0
  Bi  Bi679  1  0.43276333  0.64842667  0.31099475  1.0
  Bi  Bi680  1  0.43276333  0.98176000  0.31099475  1.0
  Bi  Bi681  1  0.76609667  0.31509333  0.31099475  1.0
  Bi  Bi682  1  0.76609667  0.64842667  0.31099475  1.0
  Bi  Bi683  1  0.76609667  0.98176000  0.31099475  1.0
  Bi  Bi684  1  0.06723667  0.06509333  0.41813761  1.0
  Bi  Bi685  1  0.06723667  0.39842667  0.41813761  1.0
  Bi  Bi686  1  0.06723667  0.73176000  0.41813761  1.0
  Bi  Bi687  1  0.40057000  0.06509333  0.41813761  1.0
  Bi  Bi688  1  0.40057000  0.39842667  0.41813761  1.0
  Bi  Bi689  1  0.40057000  0.73176000  0.41813761  1.0
  Bi  Bi690  1  0.73390333  0.06509333  0.41813761  1.0
  Bi  Bi691  1  0.73390333  0.39842667  0.41813761  1.0
  Bi  Bi692  1  0.73390333  0.73176000  0.41813761  1.0
  Bi  Bi693  1  0.06723667  0.23176000  0.34670904  1.0
  Bi  Bi694  1  0.06723667  0.56509333  0.34670904  1.0
  Bi  Bi695  1  0.06723667  0.89842667  0.34670904  1.0
  Bi  Bi696  1  0.40057000  0.23176000  0.34670904  1.0
  Bi  Bi697  1  0.40057000  0.56509333  0.34670904  1.0
  Bi  Bi698  1  0.40057000  0.89842667  0.34670904  1.0
  Bi  Bi699  1  0.73390333  0.23176000  0.34670904  1.0
  Bi  Bi700  1  0.73390333  0.56509333  0.34670904  1.0
  Bi  Bi701  1  0.73390333  0.89842667  0.34670904  1.0
  Bi  Bi702  1  0.26609667  0.10157333  0.36234332  1.0
  Bi  Bi703  1  0.26609667  0.43490667  0.36234332  1.0
  Bi  Bi704  1  0.26609667  0.76824000  0.36234332  1.0
  Bi  Bi705  1  0.59943000  0.10157333  0.36234332  1.0
  Bi  Bi706  1  0.59943000  0.43490667  0.36234332  1.0
  Bi  Bi707  1  0.59943000  0.76824000  0.36234332  1.0
  Bi  Bi708  1  0.93276333  0.10157333  0.36234332  1.0
  Bi  Bi709  1  0.93276333  0.43490667  0.36234332  1.0
  Bi  Bi710  1  0.93276333  0.76824000  0.36234332  1.0
  Bi  Bi711  1  0.26609667  0.26824000  0.29091475  1.0
  Bi  Bi712  1  0.26609667  0.60157333  0.29091475  1.0
  Bi  Bi713  1  0.26609667  0.93490667  0.29091475  1.0
  Bi  Bi714  1  0.59943000  0.26824000  0.29091475  1.0
  Bi  Bi715  1  0.59943000  0.60157333  0.29091475  1.0
  Bi  Bi716  1  0.59943000  0.93490667  0.29091475  1.0
  Bi  Bi717  1  0.93276333  0.26824000  0.29091475  1.0
  Bi  Bi718  1  0.93276333  0.60157333  0.29091475  1.0
  Bi  Bi719  1  0.93276333  0.93490667  0.29091475  1.0
  Bi  Bi720  1  0.20657400  0.06795917  0.41936582  1.0
  Bi  Bi721  1  0.20657400  0.40129250  0.41936582  1.0
  Bi  Bi722  1  0.20657400  0.73462583  0.41936582  1.0
  Bi  Bi723  1  0.53990733  0.06795917  0.41936582  1.0
  Bi  Bi724  1  0.53990733  0.40129250  0.41936582  1.0
  Bi  Bi725  1  0.53990733  0.73462583  0.41936582  1.0
  Bi  Bi726  1  0.87324067  0.06795917  0.41936582  1.0
  Bi  Bi727  1  0.87324067  0.40129250  0.41936582  1.0
  Bi  Bi728  1  0.87324067  0.73462583  0.41936582  1.0
  Bi  Bi729  1  0.20657400  0.23462583  0.34793725  1.0
  Bi  Bi730  1  0.20657400  0.56795917  0.34793725  1.0
  Bi  Bi731  1  0.20657400  0.90129250  0.34793725  1.0
  Bi  Bi732  1  0.53990733  0.23462583  0.34793725  1.0
  Bi  Bi733  1  0.53990733  0.56795917  0.34793725  1.0
  Bi  Bi734  1  0.53990733  0.90129250  0.34793725  1.0
  Bi  Bi735  1  0.87324067  0.23462583  0.34793725  1.0
  Bi  Bi736  1  0.87324067  0.56795917  0.34793725  1.0
  Bi  Bi737  1  0.87324067  0.90129250  0.34793725  1.0
  Bi  Bi738  1  0.12675933  0.09870750  0.36111511  1.0
  Bi  Bi739  1  0.12675933  0.43204083  0.36111511  1.0
  Bi  Bi740  1  0.12675933  0.76537417  0.36111511  1.0
  Bi  Bi741  1  0.46009267  0.09870750  0.36111511  1.0
  Bi  Bi742  1  0.46009267  0.43204083  0.36111511  1.0
  Bi  Bi743  1  0.46009267  0.76537417  0.36111511  1.0
  Bi  Bi744  1  0.79342600  0.09870750  0.36111511  1.0
  Bi  Bi745  1  0.79342600  0.43204083  0.36111511  1.0
  Bi  Bi746  1  0.79342600  0.76537417  0.36111511  1.0
  Bi  Bi747  1  0.12675933  0.26537417  0.28968654  1.0
  Bi  Bi748  1  0.12675933  0.59870750  0.28968654  1.0
  Bi  Bi749  1  0.12675933  0.93204083  0.28968654  1.0
  Bi  Bi750  1  0.46009267  0.26537417  0.28968654  1.0
  Bi  Bi751  1  0.46009267  0.59870750  0.28968654  1.0
  Bi  Bi752  1  0.46009267  0.93204083  0.28968654  1.0
  Bi  Bi753  1  0.79342600  0.26537417  0.28968654  1.0
  Bi  Bi754  1  0.79342600  0.59870750  0.28968654  1.0
  Bi  Bi755  1  0.79342600  0.93204083  0.28968654  1.0
  Bi  Bi756  1  0.03990733  0.01537417  0.39682939  1.0
  Bi  Bi757  1  0.03990733  0.34870750  0.39682939  1.0
  Bi  Bi758  1  0.03990733  0.68204083  0.39682939  1.0
  Bi  Bi759  1  0.37324067  0.01537417  0.39682939  1.0
  Bi  Bi760  1  0.37324067  0.34870750  0.39682939  1.0
  Bi  Bi761  1  0.37324067  0.68204083  0.39682939  1.0
  Bi  Bi762  1  0.70657400  0.01537417  0.39682939  1.0
  Bi  Bi763  1  0.70657400  0.34870750  0.39682939  1.0
  Bi  Bi764  1  0.70657400  0.68204083  0.39682939  1.0
  Bi  Bi765  1  0.03990733  0.18204083  0.32540082  1.0
  Bi  Bi766  1  0.03990733  0.51537417  0.32540082  1.0
  Bi  Bi767  1  0.03990733  0.84870750  0.32540082  1.0
  Bi  Bi768  1  0.37324067  0.18204083  0.32540082  1.0
  Bi  Bi769  1  0.37324067  0.51537417  0.32540082  1.0
  Bi  Bi770  1  0.37324067  0.84870750  0.32540082  1.0
  Bi  Bi771  1  0.70657400  0.18204083  0.32540082  1.0
  Bi  Bi772  1  0.70657400  0.51537417  0.32540082  1.0
  Bi  Bi773  1  0.70657400  0.84870750  0.32540082  1.0
  Bi  Bi774  1  0.29342600  0.15129250  0.38365154  1.0
  Bi  Bi775  1  0.29342600  0.48462583  0.38365154  1.0
  Bi  Bi776  1  0.29342600  0.81795917  0.38365154  1.0
  Bi  Bi777  1  0.62675933  0.15129250  0.38365154  1.0
  Bi  Bi778  1  0.62675933  0.48462583  0.38365154  1.0
  Bi  Bi779  1  0.62675933  0.81795917  0.38365154  1.0
  Bi  Bi780  1  0.96009267  0.15129250  0.38365154  1.0
  Bi  Bi781  1  0.96009267  0.48462583  0.38365154  1.0
  Bi  Bi782  1  0.96009267  0.81795917  0.38365154  1.0
  Bi  Bi783  1  0.29342600  0.31795917  0.31222296  1.0
  Bi  Bi784  1  0.29342600  0.65129250  0.31222296  1.0
  Bi  Bi785  1  0.29342600  0.98462583  0.31222296  1.0
  Bi  Bi786  1  0.62675933  0.31795917  0.31222296  1.0
  Bi  Bi787  1  0.62675933  0.65129250  0.31222296  1.0
  Bi  Bi788  1  0.62675933  0.98462583  0.31222296  1.0
  Bi  Bi789  1  0.96009267  0.31795917  0.31222296  1.0
  Bi  Bi790  1  0.96009267  0.65129250  0.31222296  1.0
  Bi  Bi791  1  0.96009267  0.98462583  0.31222296  1.0
  Bi  Bi792  1  0.30351367  0.05378833  0.34186404  1.0
  Bi  Bi793  1  0.30351367  0.38712167  0.34186404  1.0
  Bi  Bi794  1  0.30351367  0.72045500  0.34186404  1.0
  Bi  Bi795  1  0.63684700  0.05378833  0.34186404  1.0
  Bi  Bi796  1  0.63684700  0.38712167  0.34186404  1.0
  Bi  Bi797  1  0.63684700  0.72045500  0.34186404  1.0
  Bi  Bi798  1  0.97018033  0.05378833  0.34186404  1.0
  Bi  Bi799  1  0.97018033  0.38712167  0.34186404  1.0
  Bi  Bi800  1  0.97018033  0.72045500  0.34186404  1.0
  Bi  Bi801  1  0.30351367  0.22045500  0.41329261  1.0
  Bi  Bi802  1  0.30351367  0.55378833  0.41329261  1.0
  Bi  Bi803  1  0.30351367  0.88712167  0.41329261  1.0
  Bi  Bi804  1  0.63684700  0.22045500  0.41329261  1.0
  Bi  Bi805  1  0.63684700  0.55378833  0.41329261  1.0
  Bi  Bi806  1  0.63684700  0.88712167  0.41329261  1.0
  Bi  Bi807  1  0.97018033  0.22045500  0.41329261  1.0
  Bi  Bi808  1  0.97018033  0.55378833  0.41329261  1.0
  Bi  Bi809  1  0.97018033  0.88712167  0.41329261  1.0
  Bi  Bi810  1  0.02981967  0.11287833  0.29575975  1.0
  Bi  Bi811  1  0.02981967  0.44621167  0.29575975  1.0
  Bi  Bi812  1  0.02981967  0.77954500  0.29575975  1.0
  Bi  Bi813  1  0.36315300  0.11287833  0.29575975  1.0
  Bi  Bi814  1  0.36315300  0.44621167  0.29575975  1.0
  Bi  Bi815  1  0.36315300  0.77954500  0.29575975  1.0
  Bi  Bi816  1  0.69648633  0.11287833  0.29575975  1.0
  Bi  Bi817  1  0.69648633  0.44621167  0.29575975  1.0
  Bi  Bi818  1  0.69648633  0.77954500  0.29575975  1.0
  Bi  Bi819  1  0.02981967  0.27954500  0.36718832  1.0
  Bi  Bi820  1  0.02981967  0.61287833  0.36718832  1.0
  Bi  Bi821  1  0.02981967  0.94621167  0.36718832  1.0
  Bi  Bi822  1  0.36315300  0.27954500  0.36718832  1.0
  Bi  Bi823  1  0.36315300  0.61287833  0.36718832  1.0
  Bi  Bi824  1  0.36315300  0.94621167  0.36718832  1.0
  Bi  Bi825  1  0.69648633  0.27954500  0.36718832  1.0
  Bi  Bi826  1  0.69648633  0.61287833  0.36718832  1.0
  Bi  Bi827  1  0.69648633  0.94621167  0.36718832  1.0
  Bi  Bi828  1  0.13684700  0.02954500  0.33147404  1.0
  Bi  Bi829  1  0.13684700  0.36287833  0.33147404  1.0
  Bi  Bi830  1  0.13684700  0.69621167  0.33147404  1.0
  Bi  Bi831  1  0.47018033  0.02954500  0.33147404  1.0
  Bi  Bi832  1  0.47018033  0.36287833  0.33147404  1.0
  Bi  Bi833  1  0.47018033  0.69621167  0.33147404  1.0
  Bi  Bi834  1  0.80351367  0.02954500  0.33147404  1.0
  Bi  Bi835  1  0.80351367  0.36287833  0.33147404  1.0
  Bi  Bi836  1  0.80351367  0.69621167  0.33147404  1.0
  Bi  Bi837  1  0.13684700  0.19621167  0.40290261  1.0
  Bi  Bi838  1  0.13684700  0.52954500  0.40290261  1.0
  Bi  Bi839  1  0.13684700  0.86287833  0.40290261  1.0
  Bi  Bi840  1  0.47018033  0.19621167  0.40290261  1.0
  Bi  Bi841  1  0.47018033  0.52954500  0.40290261  1.0
  Bi  Bi842  1  0.47018033  0.86287833  0.40290261  1.0
  Bi  Bi843  1  0.80351367  0.19621167  0.40290261  1.0
  Bi  Bi844  1  0.80351367  0.52954500  0.40290261  1.0
  Bi  Bi845  1  0.80351367  0.86287833  0.40290261  1.0
  Bi  Bi846  1  0.19648633  0.13712167  0.30614975  1.0
  Bi  Bi847  1  0.19648633  0.47045500  0.30614975  1.0
  Bi  Bi848  1  0.19648633  0.80378833  0.30614975  1.0
  Bi  Bi849  1  0.52981967  0.13712167  0.30614975  1.0
  Bi  Bi850  1  0.52981967  0.47045500  0.30614975  1.0
  Bi  Bi851  1  0.52981967  0.80378833  0.30614975  1.0
  Bi  Bi852  1  0.86315300  0.13712167  0.30614975  1.0
  Bi  Bi853  1  0.86315300  0.47045500  0.30614975  1.0
  Bi  Bi854  1  0.86315300  0.80378833  0.30614975  1.0
  Bi  Bi855  1  0.19648633  0.30378833  0.37757832  1.0
  Bi  Bi856  1  0.19648633  0.63712167  0.37757832  1.0
  Bi  Bi857  1  0.19648633  0.97045500  0.37757832  1.0
  Bi  Bi858  1  0.52981967  0.30378833  0.37757832  1.0
  Bi  Bi859  1  0.52981967  0.63712167  0.37757832  1.0
  Bi  Bi860  1  0.52981967  0.97045500  0.37757832  1.0
  Bi  Bi861  1  0.86315300  0.30378833  0.37757832  1.0
  Bi  Bi862  1  0.86315300  0.63712167  0.37757832  1.0
  Bi  Bi863  1  0.86315300  0.97045500  0.37757832  1.0
