# generated using pymatgen
data_NiGe2
_symmetry_space_group_name_H-M   'P 1'
_cell_length_a   49.86566068
_cell_length_b   25.42672003
_cell_length_c   52.20794700
_cell_angle_alpha   46.80970122
_cell_angle_beta   90.00000000
_cell_angle_gamma   54.96998110
_symmetry_Int_Tables_number   1
_chemical_formula_structural   NiGe2
_chemical_formula_sum   'Ni288 Ge576'
_cell_volume   29757.21134494
_cell_formula_units_Z   288
loop_
 _symmetry_equiv_pos_site_id
 _symmetry_equiv_pos_as_xyz
  1  'x, y, z'
loop_
 _atom_site_type_symbol
 _atom_site_label
 _atom_site_symmetry_multiplicity
 _atom_site_fract_x
 _atom_site_fract_y
 _atom_site_fract_z
 _atom_site_occupancy
  Ni  Ni0  1  0.18591817  0.18591817  0.04573714  1.0
  Ni  Ni1  1  0.18591817  0.51925150  0.04573714  1.0
  Ni  Ni2  1  0.18591817  0.85258483  0.04573714  1.0
  Ni  Ni3  1  0.51925150  0.18591817  0.04573714  1.0
  Ni  Ni4  1  0.51925150  0.51925150  0.04573714  1.0
  Ni  Ni5  1  0.51925150  0.85258483  0.04573714  1.0
  Ni  Ni6  1  0.85258483  0.18591817  0.04573714  1.0
  Ni  Ni7  1  0.85258483  0.51925150  0.04573714  1.0
  Ni  Ni8  1  0.85258483  0.85258483  0.04573714  1.0
  Ni  Ni9  1  0.01925150  0.01925150  0.10129269  1.0
  Ni  Ni10  1  0.01925150  0.35258483  0.10129269  1.0
  Ni  Ni11  1  0.01925150  0.68591817  0.10129269  1.0
  Ni  Ni12  1  0.35258483  0.01925150  0.10129269  1.0
  Ni  Ni13  1  0.35258483  0.35258483  0.10129269  1.0
  Ni  Ni14  1  0.35258483  0.68591817  0.10129269  1.0
  Ni  Ni15  1  0.68591817  0.01925150  0.10129269  1.0
  Ni  Ni16  1  0.68591817  0.35258483  0.10129269  1.0
  Ni  Ni17  1  0.68591817  0.68591817  0.10129269  1.0
  Ni  Ni18  1  0.23074850  0.23074850  0.08634925  1.0
  Ni  Ni19  1  0.23074850  0.56408183  0.08634925  1.0
  Ni  Ni20  1  0.23074850  0.89741517  0.08634925  1.0
  Ni  Ni21  1  0.56408183  0.23074850  0.08634925  1.0
  Ni  Ni22  1  0.56408183  0.56408183  0.08634925  1.0
  Ni  Ni23  1  0.56408183  0.89741517  0.08634925  1.0
  Ni  Ni24  1  0.89741517  0.23074850  0.08634925  1.0
  Ni  Ni25  1  0.89741517  0.56408183  0.08634925  1.0
  Ni  Ni26  1  0.89741517  0.89741517  0.08634925  1.0
  Ni  Ni27  1  0.06408183  0.06408183  0.03079369  1.0
  Ni  Ni28  1  0.06408183  0.39741517  0.03079369  1.0
  Ni  Ni29  1  0.06408183  0.73074850  0.03079369  1.0
  Ni  Ni30  1  0.39741517  0.06408183  0.03079369  1.0
  Ni  Ni31  1  0.39741517  0.39741517  0.03079369  1.0
  Ni  Ni32  1  0.39741517  0.73074850  0.03079369  1.0
  Ni  Ni33  1  0.73074850  0.06408183  0.03079369  1.0
  Ni  Ni34  1  0.73074850  0.39741517  0.03079369  1.0
  Ni  Ni35  1  0.73074850  0.73074850  0.03079369  1.0
  Ni  Ni36  1  0.31408183  0.31408183  0.00301592  1.0
  Ni  Ni37  1  0.31408183  0.64741517  0.00301592  1.0
  Ni  Ni38  1  0.31408183  0.98074850  0.00301592  1.0
  Ni  Ni39  1  0.64741517  0.31408183  0.00301592  1.0
  Ni  Ni40  1  0.64741517  0.64741517  0.00301592  1.0
  Ni  Ni41  1  0.64741517  0.98074850  0.00301592  1.0
  Ni  Ni42  1  0.98074850  0.31408183  0.00301592  1.0
  Ni  Ni43  1  0.98074850  0.64741517  0.00301592  1.0
  Ni  Ni44  1  0.98074850  0.98074850  0.00301592  1.0
  Ni  Ni45  1  0.14741517  0.14741517  0.05857147  1.0
  Ni  Ni46  1  0.14741517  0.48074850  0.05857147  1.0
  Ni  Ni47  1  0.14741517  0.81408183  0.05857147  1.0
  Ni  Ni48  1  0.48074850  0.14741517  0.05857147  1.0
  Ni  Ni49  1  0.48074850  0.48074850  0.05857147  1.0
  Ni  Ni50  1  0.48074850  0.81408183  0.05857147  1.0
  Ni  Ni51  1  0.81408183  0.14741517  0.05857147  1.0
  Ni  Ni52  1  0.81408183  0.48074850  0.05857147  1.0
  Ni  Ni53  1  0.81408183  0.81408183  0.05857147  1.0
  Ni  Ni54  1  0.26925150  0.26925150  0.07351492  1.0
  Ni  Ni55  1  0.26925150  0.60258483  0.07351492  1.0
  Ni  Ni56  1  0.26925150  0.93591817  0.07351492  1.0
  Ni  Ni57  1  0.60258483  0.26925150  0.07351492  1.0
  Ni  Ni58  1  0.60258483  0.60258483  0.07351492  1.0
  Ni  Ni59  1  0.60258483  0.93591817  0.07351492  1.0
  Ni  Ni60  1  0.93591817  0.26925150  0.07351492  1.0
  Ni  Ni61  1  0.93591817  0.60258483  0.07351492  1.0
  Ni  Ni62  1  0.93591817  0.93591817  0.07351492  1.0
  Ni  Ni63  1  0.10258483  0.10258483  0.01795936  1.0
  Ni  Ni64  1  0.10258483  0.43591817  0.01795936  1.0
  Ni  Ni65  1  0.10258483  0.76925150  0.01795936  1.0
  Ni  Ni66  1  0.43591817  0.10258483  0.01795936  1.0
  Ni  Ni67  1  0.43591817  0.43591817  0.01795936  1.0
  Ni  Ni68  1  0.43591817  0.76925150  0.01795936  1.0
  Ni  Ni69  1  0.76925150  0.10258483  0.01795936  1.0
  Ni  Ni70  1  0.76925150  0.43591817  0.01795936  1.0
  Ni  Ni71  1  0.76925150  0.76925150  0.01795936  1.0
  Ge  Ge72  1  0.19238833  0.08950167  0.03972808  1.0
  Ge  Ge73  1  0.19238833  0.42283500  0.03972808  1.0
  Ge  Ge74  1  0.19238833  0.75616833  0.03972808  1.0
  Ge  Ge75  1  0.52572167  0.08950167  0.03972808  1.0
  Ge  Ge76  1  0.52572167  0.42283500  0.03972808  1.0
  Ge  Ge77  1  0.52572167  0.75616833  0.03972808  1.0
  Ge  Ge78  1  0.85905500  0.08950167  0.03972808  1.0
  Ge  Ge79  1  0.85905500  0.42283500  0.03972808  1.0
  Ge  Ge80  1  0.85905500  0.75616833  0.03972808  1.0
  Ge  Ge81  1  0.02572167  0.25616833  0.09528364  1.0
  Ge  Ge82  1  0.02572167  0.58950167  0.09528364  1.0
  Ge  Ge83  1  0.02572167  0.92283500  0.09528364  1.0
  Ge  Ge84  1  0.35905500  0.25616833  0.09528364  1.0
  Ge  Ge85  1  0.35905500  0.58950167  0.09528364  1.0
  Ge  Ge86  1  0.35905500  0.92283500  0.09528364  1.0
  Ge  Ge87  1  0.69238833  0.25616833  0.09528364  1.0
  Ge  Ge88  1  0.69238833  0.58950167  0.09528364  1.0
  Ge  Ge89  1  0.69238833  0.92283500  0.09528364  1.0
  Ge  Ge90  1  0.22427833  0.32716500  0.01606253  1.0
  Ge  Ge91  1  0.22427833  0.66049833  0.01606253  1.0
  Ge  Ge92  1  0.22427833  0.99383167  0.01606253  1.0
  Ge  Ge93  1  0.55761167  0.32716500  0.01606253  1.0
  Ge  Ge94  1  0.55761167  0.66049833  0.01606253  1.0
  Ge  Ge95  1  0.55761167  0.99383167  0.01606253  1.0
  Ge  Ge96  1  0.89094500  0.32716500  0.01606253  1.0
  Ge  Ge97  1  0.89094500  0.66049833  0.01606253  1.0
  Ge  Ge98  1  0.89094500  0.99383167  0.01606253  1.0
  Ge  Ge99  1  0.05761167  0.16049833  0.07161808  1.0
  Ge  Ge100  1  0.05761167  0.49383167  0.07161808  1.0
  Ge  Ge101  1  0.05761167  0.82716500  0.07161808  1.0
  Ge  Ge102  1  0.39094500  0.16049833  0.07161808  1.0
  Ge  Ge103  1  0.39094500  0.49383167  0.07161808  1.0
  Ge  Ge104  1  0.39094500  0.82716500  0.07161808  1.0
  Ge  Ge105  1  0.72427833  0.16049833  0.07161808  1.0
  Ge  Ge106  1  0.72427833  0.49383167  0.07161808  1.0
  Ge  Ge107  1  0.72427833  0.82716500  0.07161808  1.0
  Ge  Ge108  1  0.27572167  0.17283500  0.03269053  1.0
  Ge  Ge109  1  0.27572167  0.50616833  0.03269053  1.0
  Ge  Ge110  1  0.27572167  0.83950167  0.03269053  1.0
  Ge  Ge111  1  0.60905500  0.17283500  0.03269053  1.0
  Ge  Ge112  1  0.60905500  0.50616833  0.03269053  1.0
  Ge  Ge113  1  0.60905500  0.83950167  0.03269053  1.0
  Ge  Ge114  1  0.94238833  0.17283500  0.03269053  1.0
  Ge  Ge115  1  0.94238833  0.50616833  0.03269053  1.0
  Ge  Ge116  1  0.94238833  0.83950167  0.03269053  1.0
  Ge  Ge117  1  0.10905500  0.00616833  0.08824608  1.0
  Ge  Ge118  1  0.10905500  0.33950167  0.08824608  1.0
  Ge  Ge119  1  0.10905500  0.67283500  0.08824608  1.0
  Ge  Ge120  1  0.44238833  0.00616833  0.08824608  1.0
  Ge  Ge121  1  0.44238833  0.33950167  0.08824608  1.0
  Ge  Ge122  1  0.44238833  0.67283500  0.08824608  1.0
  Ge  Ge123  1  0.77572167  0.00616833  0.08824608  1.0
  Ge  Ge124  1  0.77572167  0.33950167  0.08824608  1.0
  Ge  Ge125  1  0.77572167  0.67283500  0.08824608  1.0
  Ge  Ge126  1  0.30761167  0.07716500  0.00902497  1.0
  Ge  Ge127  1  0.30761167  0.41049833  0.00902497  1.0
  Ge  Ge128  1  0.30761167  0.74383167  0.00902497  1.0
  Ge  Ge129  1  0.64094500  0.07716500  0.00902497  1.0
  Ge  Ge130  1  0.64094500  0.41049833  0.00902497  1.0
  Ge  Ge131  1  0.64094500  0.74383167  0.00902497  1.0
  Ge  Ge132  1  0.97427833  0.07716500  0.00902497  1.0
  Ge  Ge133  1  0.97427833  0.41049833  0.00902497  1.0
  Ge  Ge134  1  0.97427833  0.74383167  0.00902497  1.0
  Ge  Ge135  1  0.14094500  0.24383167  0.06458053  1.0
  Ge  Ge136  1  0.14094500  0.57716500  0.06458053  1.0
  Ge  Ge137  1  0.14094500  0.91049833  0.06458053  1.0
  Ge  Ge138  1  0.47427833  0.24383167  0.06458053  1.0
  Ge  Ge139  1  0.47427833  0.57716500  0.06458053  1.0
  Ge  Ge140  1  0.47427833  0.91049833  0.06458053  1.0
  Ge  Ge141  1  0.80761167  0.24383167  0.06458053  1.0
  Ge  Ge142  1  0.80761167  0.57716500  0.06458053  1.0
  Ge  Ge143  1  0.80761167  0.91049833  0.06458053  1.0
  Ge  Ge144  1  0.24961467  0.08448933  0.05176897  1.0
  Ge  Ge145  1  0.24961467  0.41782267  0.05176897  1.0
  Ge  Ge146  1  0.24961467  0.75115600  0.05176897  1.0
  Ge  Ge147  1  0.58294800  0.08448933  0.05176897  1.0
  Ge  Ge148  1  0.58294800  0.41782267  0.05176897  1.0
  Ge  Ge149  1  0.58294800  0.75115600  0.05176897  1.0
  Ge  Ge150  1  0.91628133  0.08448933  0.05176897  1.0
  Ge  Ge151  1  0.91628133  0.41782267  0.05176897  1.0
  Ge  Ge152  1  0.91628133  0.75115600  0.05176897  1.0
  Ge  Ge153  1  0.08294800  0.25115600  0.10732453  1.0
  Ge  Ge154  1  0.08294800  0.58448933  0.10732453  1.0
  Ge  Ge155  1  0.08294800  0.91782267  0.10732453  1.0
  Ge  Ge156  1  0.41628133  0.25115600  0.10732453  1.0
  Ge  Ge157  1  0.41628133  0.58448933  0.10732453  1.0
  Ge  Ge158  1  0.41628133  0.91782267  0.10732453  1.0
  Ge  Ge159  1  0.74961467  0.25115600  0.10732453  1.0
  Ge  Ge160  1  0.74961467  0.58448933  0.10732453  1.0
  Ge  Ge161  1  0.74961467  0.91782267  0.10732453  1.0
  Ge  Ge162  1  0.16705200  0.33217733  0.02476186  1.0
  Ge  Ge163  1  0.16705200  0.66551067  0.02476186  1.0
  Ge  Ge164  1  0.16705200  0.99884400  0.02476186  1.0
  Ge  Ge165  1  0.50038533  0.33217733  0.02476186  1.0
  Ge  Ge166  1  0.50038533  0.66551067  0.02476186  1.0
  Ge  Ge167  1  0.50038533  0.99884400  0.02476186  1.0
  Ge  Ge168  1  0.83371867  0.33217733  0.02476186  1.0
  Ge  Ge169  1  0.83371867  0.66551067  0.02476186  1.0
  Ge  Ge170  1  0.83371867  0.99884400  0.02476186  1.0
  Ge  Ge171  1  0.00038533  0.16551067  0.08031742  1.0
  Ge  Ge172  1  0.00038533  0.49884400  0.08031742  1.0
  Ge  Ge173  1  0.00038533  0.83217733  0.08031742  1.0
  Ge  Ge174  1  0.33371867  0.16551067  0.08031742  1.0
  Ge  Ge175  1  0.33371867  0.49884400  0.08031742  1.0
  Ge  Ge176  1  0.33371867  0.83217733  0.08031742  1.0
  Ge  Ge177  1  0.66705200  0.16551067  0.08031742  1.0
  Ge  Ge178  1  0.66705200  0.49884400  0.08031742  1.0
  Ge  Ge179  1  0.66705200  0.83217733  0.08031742  1.0
  Ge  Ge180  1  0.25038533  0.08217733  0.10809519  1.0
  Ge  Ge181  1  0.25038533  0.41551067  0.10809519  1.0
  Ge  Ge182  1  0.25038533  0.74884400  0.10809519  1.0
  Ge  Ge183  1  0.58371867  0.08217733  0.10809519  1.0
  Ge  Ge184  1  0.58371867  0.41551067  0.10809519  1.0
  Ge  Ge185  1  0.58371867  0.74884400  0.10809519  1.0
  Ge  Ge186  1  0.91705200  0.08217733  0.10809519  1.0
  Ge  Ge187  1  0.91705200  0.41551067  0.10809519  1.0
  Ge  Ge188  1  0.91705200  0.74884400  0.10809519  1.0
  Ge  Ge189  1  0.08371867  0.24884400  0.05253964  1.0
  Ge  Ge190  1  0.08371867  0.58217733  0.05253964  1.0
  Ge  Ge191  1  0.08371867  0.91551067  0.05253964  1.0
  Ge  Ge192  1  0.41705200  0.24884400  0.05253964  1.0
  Ge  Ge193  1  0.41705200  0.58217733  0.05253964  1.0
  Ge  Ge194  1  0.41705200  0.91551067  0.05253964  1.0
  Ge  Ge195  1  0.75038533  0.24884400  0.05253964  1.0
  Ge  Ge196  1  0.75038533  0.58217733  0.05253964  1.0
  Ge  Ge197  1  0.75038533  0.91551067  0.05253964  1.0
  Ge  Ge198  1  0.33294800  0.16782267  0.02399119  1.0
  Ge  Ge199  1  0.33294800  0.50115600  0.02399119  1.0
  Ge  Ge200  1  0.33294800  0.83448933  0.02399119  1.0
  Ge  Ge201  1  0.66628133  0.16782267  0.02399119  1.0
  Ge  Ge202  1  0.66628133  0.50115600  0.02399119  1.0
  Ge  Ge203  1  0.66628133  0.83448933  0.02399119  1.0
  Ge  Ge204  1  0.99961467  0.16782267  0.02399119  1.0
  Ge  Ge205  1  0.99961467  0.50115600  0.02399119  1.0
  Ge  Ge206  1  0.99961467  0.83448933  0.02399119  1.0
  Ge  Ge207  1  0.16628133  0.00115600  0.07954675  1.0
  Ge  Ge208  1  0.16628133  0.33448933  0.07954675  1.0
  Ge  Ge209  1  0.16628133  0.66782267  0.07954675  1.0
  Ge  Ge210  1  0.49961467  0.00115600  0.07954675  1.0
  Ge  Ge211  1  0.49961467  0.33448933  0.07954675  1.0
  Ge  Ge212  1  0.49961467  0.66782267  0.07954675  1.0
  Ge  Ge213  1  0.83294800  0.00115600  0.07954675  1.0
  Ge  Ge214  1  0.83294800  0.33448933  0.07954675  1.0
  Ge  Ge215  1  0.83294800  0.66782267  0.07954675  1.0
  Ni  Ni216  1  0.18591817  0.18591817  0.15684825  1.0
  Ni  Ni217  1  0.18591817  0.51925150  0.15684825  1.0
  Ni  Ni218  1  0.18591817  0.85258483  0.15684825  1.0
  Ni  Ni219  1  0.51925150  0.18591817  0.15684825  1.0
  Ni  Ni220  1  0.51925150  0.51925150  0.15684825  1.0
  Ni  Ni221  1  0.51925150  0.85258483  0.15684825  1.0
  Ni  Ni222  1  0.85258483  0.18591817  0.15684825  1.0
  Ni  Ni223  1  0.85258483  0.51925150  0.15684825  1.0
  Ni  Ni224  1  0.85258483  0.85258483  0.15684825  1.0
  Ni  Ni225  1  0.01925150  0.01925150  0.21240381  1.0
  Ni  Ni226  1  0.01925150  0.35258483  0.21240381  1.0
  Ni  Ni227  1  0.01925150  0.68591817  0.21240381  1.0
  Ni  Ni228  1  0.35258483  0.01925150  0.21240381  1.0
  Ni  Ni229  1  0.35258483  0.35258483  0.21240381  1.0
  Ni  Ni230  1  0.35258483  0.68591817  0.21240381  1.0
  Ni  Ni231  1  0.68591817  0.01925150  0.21240381  1.0
  Ni  Ni232  1  0.68591817  0.35258483  0.21240381  1.0
  Ni  Ni233  1  0.68591817  0.68591817  0.21240381  1.0
  Ni  Ni234  1  0.23074850  0.23074850  0.19746036  1.0
  Ni  Ni235  1  0.23074850  0.56408183  0.19746036  1.0
  Ni  Ni236  1  0.23074850  0.89741517  0.19746036  1.0
  Ni  Ni237  1  0.56408183  0.23074850  0.19746036  1.0
  Ni  Ni238  1  0.56408183  0.56408183  0.19746036  1.0
  Ni  Ni239  1  0.56408183  0.89741517  0.19746036  1.0
  Ni  Ni240  1  0.89741517  0.23074850  0.19746036  1.0
  Ni  Ni241  1  0.89741517  0.56408183  0.19746036  1.0
  Ni  Ni242  1  0.89741517  0.89741517  0.19746036  1.0
  Ni  Ni243  1  0.06408183  0.06408183  0.14190481  1.0
  Ni  Ni244  1  0.06408183  0.39741517  0.14190481  1.0
  Ni  Ni245  1  0.06408183  0.73074850  0.14190481  1.0
  Ni  Ni246  1  0.39741517  0.06408183  0.14190481  1.0
  Ni  Ni247  1  0.39741517  0.39741517  0.14190481  1.0
  Ni  Ni248  1  0.39741517  0.73074850  0.14190481  1.0
  Ni  Ni249  1  0.73074850  0.06408183  0.14190481  1.0
  Ni  Ni250  1  0.73074850  0.39741517  0.14190481  1.0
  Ni  Ni251  1  0.73074850  0.73074850  0.14190481  1.0
  Ni  Ni252  1  0.31408183  0.31408183  0.11412703  1.0
  Ni  Ni253  1  0.31408183  0.64741517  0.11412703  1.0
  Ni  Ni254  1  0.31408183  0.98074850  0.11412703  1.0
  Ni  Ni255  1  0.64741517  0.31408183  0.11412703  1.0
  Ni  Ni256  1  0.64741517  0.64741517  0.11412703  1.0
  Ni  Ni257  1  0.64741517  0.98074850  0.11412703  1.0
  Ni  Ni258  1  0.98074850  0.31408183  0.11412703  1.0
  Ni  Ni259  1  0.98074850  0.64741517  0.11412703  1.0
  Ni  Ni260  1  0.98074850  0.98074850  0.11412703  1.0
  Ni  Ni261  1  0.14741517  0.14741517  0.16968258  1.0
  Ni  Ni262  1  0.14741517  0.48074850  0.16968258  1.0
  Ni  Ni263  1  0.14741517  0.81408183  0.16968258  1.0
  Ni  Ni264  1  0.48074850  0.14741517  0.16968258  1.0
  Ni  Ni265  1  0.48074850  0.48074850  0.16968258  1.0
  Ni  Ni266  1  0.48074850  0.81408183  0.16968258  1.0
  Ni  Ni267  1  0.81408183  0.14741517  0.16968258  1.0
  Ni  Ni268  1  0.81408183  0.48074850  0.16968258  1.0
  Ni  Ni269  1  0.81408183  0.81408183  0.16968258  1.0
  Ni  Ni270  1  0.26925150  0.26925150  0.18462603  1.0
  Ni  Ni271  1  0.26925150  0.60258483  0.18462603  1.0
  Ni  Ni272  1  0.26925150  0.93591817  0.18462603  1.0
  Ni  Ni273  1  0.60258483  0.26925150  0.18462603  1.0
  Ni  Ni274  1  0.60258483  0.60258483  0.18462603  1.0
  Ni  Ni275  1  0.60258483  0.93591817  0.18462603  1.0
  Ni  Ni276  1  0.93591817  0.26925150  0.18462603  1.0
  Ni  Ni277  1  0.93591817  0.60258483  0.18462603  1.0
  Ni  Ni278  1  0.93591817  0.93591817  0.18462603  1.0
  Ni  Ni279  1  0.10258483  0.10258483  0.12907047  1.0
  Ni  Ni280  1  0.10258483  0.43591817  0.12907047  1.0
  Ni  Ni281  1  0.10258483  0.76925150  0.12907047  1.0
  Ni  Ni282  1  0.43591817  0.10258483  0.12907047  1.0
  Ni  Ni283  1  0.43591817  0.43591817  0.12907047  1.0
  Ni  Ni284  1  0.43591817  0.76925150  0.12907047  1.0
  Ni  Ni285  1  0.76925150  0.10258483  0.12907047  1.0
  Ni  Ni286  1  0.76925150  0.43591817  0.12907047  1.0
  Ni  Ni287  1  0.76925150  0.76925150  0.12907047  1.0
  Ge  Ge288  1  0.19238833  0.08950167  0.15083919  1.0
  Ge  Ge289  1  0.19238833  0.42283500  0.15083919  1.0
  Ge  Ge290  1  0.19238833  0.75616833  0.15083919  1.0
  Ge  Ge291  1  0.52572167  0.08950167  0.15083919  1.0
  Ge  Ge292  1  0.52572167  0.42283500  0.15083919  1.0
  Ge  Ge293  1  0.52572167  0.75616833  0.15083919  1.0
  Ge  Ge294  1  0.85905500  0.08950167  0.15083919  1.0
  Ge  Ge295  1  0.85905500  0.42283500  0.15083919  1.0
  Ge  Ge296  1  0.85905500  0.75616833  0.15083919  1.0
  Ge  Ge297  1  0.02572167  0.25616833  0.20639475  1.0
  Ge  Ge298  1  0.02572167  0.58950167  0.20639475  1.0
  Ge  Ge299  1  0.02572167  0.92283500  0.20639475  1.0
  Ge  Ge300  1  0.35905500  0.25616833  0.20639475  1.0
  Ge  Ge301  1  0.35905500  0.58950167  0.20639475  1.0
  Ge  Ge302  1  0.35905500  0.92283500  0.20639475  1.0
  Ge  Ge303  1  0.69238833  0.25616833  0.20639475  1.0
  Ge  Ge304  1  0.69238833  0.58950167  0.20639475  1.0
  Ge  Ge305  1  0.69238833  0.92283500  0.20639475  1.0
  Ge  Ge306  1  0.22427833  0.32716500  0.12717364  1.0
  Ge  Ge307  1  0.22427833  0.66049833  0.12717364  1.0
  Ge  Ge308  1  0.22427833  0.99383167  0.12717364  1.0
  Ge  Ge309  1  0.55761167  0.32716500  0.12717364  1.0
  Ge  Ge310  1  0.55761167  0.66049833  0.12717364  1.0
  Ge  Ge311  1  0.55761167  0.99383167  0.12717364  1.0
  Ge  Ge312  1  0.89094500  0.32716500  0.12717364  1.0
  Ge  Ge313  1  0.89094500  0.66049833  0.12717364  1.0
  Ge  Ge314  1  0.89094500  0.99383167  0.12717364  1.0
  Ge  Ge315  1  0.05761167  0.16049833  0.18272919  1.0
  Ge  Ge316  1  0.05761167  0.49383167  0.18272919  1.0
  Ge  Ge317  1  0.05761167  0.82716500  0.18272919  1.0
  Ge  Ge318  1  0.39094500  0.16049833  0.18272919  1.0
  Ge  Ge319  1  0.39094500  0.49383167  0.18272919  1.0
  Ge  Ge320  1  0.39094500  0.82716500  0.18272919  1.0
  Ge  Ge321  1  0.72427833  0.16049833  0.18272919  1.0
  Ge  Ge322  1  0.72427833  0.49383167  0.18272919  1.0
  Ge  Ge323  1  0.72427833  0.82716500  0.18272919  1.0
  Ge  Ge324  1  0.27572167  0.17283500  0.14380164  1.0
  Ge  Ge325  1  0.27572167  0.50616833  0.14380164  1.0
  Ge  Ge326  1  0.27572167  0.83950167  0.14380164  1.0
  Ge  Ge327  1  0.60905500  0.17283500  0.14380164  1.0
  Ge  Ge328  1  0.60905500  0.50616833  0.14380164  1.0
  Ge  Ge329  1  0.60905500  0.83950167  0.14380164  1.0
  Ge  Ge330  1  0.94238833  0.17283500  0.14380164  1.0
  Ge  Ge331  1  0.94238833  0.50616833  0.14380164  1.0
  Ge  Ge332  1  0.94238833  0.83950167  0.14380164  1.0
  Ge  Ge333  1  0.10905500  0.00616833  0.19935719  1.0
  Ge  Ge334  1  0.10905500  0.33950167  0.19935719  1.0
  Ge  Ge335  1  0.10905500  0.67283500  0.19935719  1.0
  Ge  Ge336  1  0.44238833  0.00616833  0.19935719  1.0
  Ge  Ge337  1  0.44238833  0.33950167  0.19935719  1.0
  Ge  Ge338  1  0.44238833  0.67283500  0.19935719  1.0
  Ge  Ge339  1  0.77572167  0.00616833  0.19935719  1.0
  Ge  Ge340  1  0.77572167  0.33950167  0.19935719  1.0
  Ge  Ge341  1  0.77572167  0.67283500  0.19935719  1.0
  Ge  Ge342  1  0.30761167  0.07716500  0.12013608  1.0
  Ge  Ge343  1  0.30761167  0.41049833  0.12013608  1.0
  Ge  Ge344  1  0.30761167  0.74383167  0.12013608  1.0
  Ge  Ge345  1  0.64094500  0.07716500  0.12013608  1.0
  Ge  Ge346  1  0.64094500  0.41049833  0.12013608  1.0
  Ge  Ge347  1  0.64094500  0.74383167  0.12013608  1.0
  Ge  Ge348  1  0.97427833  0.07716500  0.12013608  1.0
  Ge  Ge349  1  0.97427833  0.41049833  0.12013608  1.0
  Ge  Ge350  1  0.97427833  0.74383167  0.12013608  1.0
  Ge  Ge351  1  0.14094500  0.24383167  0.17569164  1.0
  Ge  Ge352  1  0.14094500  0.57716500  0.17569164  1.0
  Ge  Ge353  1  0.14094500  0.91049833  0.17569164  1.0
  Ge  Ge354  1  0.47427833  0.24383167  0.17569164  1.0
  Ge  Ge355  1  0.47427833  0.57716500  0.17569164  1.0
  Ge  Ge356  1  0.47427833  0.91049833  0.17569164  1.0
  Ge  Ge357  1  0.80761167  0.24383167  0.17569164  1.0
  Ge  Ge358  1  0.80761167  0.57716500  0.17569164  1.0
  Ge  Ge359  1  0.80761167  0.91049833  0.17569164  1.0
  Ge  Ge360  1  0.24961467  0.08448933  0.16288008  1.0
  Ge  Ge361  1  0.24961467  0.41782267  0.16288008  1.0
  Ge  Ge362  1  0.24961467  0.75115600  0.16288008  1.0
  Ge  Ge363  1  0.58294800  0.08448933  0.16288008  1.0
  Ge  Ge364  1  0.58294800  0.41782267  0.16288008  1.0
  Ge  Ge365  1  0.58294800  0.75115600  0.16288008  1.0
  Ge  Ge366  1  0.91628133  0.08448933  0.16288008  1.0
  Ge  Ge367  1  0.91628133  0.41782267  0.16288008  1.0
  Ge  Ge368  1  0.91628133  0.75115600  0.16288008  1.0
  Ge  Ge369  1  0.08294800  0.25115600  0.21843564  1.0
  Ge  Ge370  1  0.08294800  0.58448933  0.21843564  1.0
  Ge  Ge371  1  0.08294800  0.91782267  0.21843564  1.0
  Ge  Ge372  1  0.41628133  0.25115600  0.21843564  1.0
  Ge  Ge373  1  0.41628133  0.58448933  0.21843564  1.0
  Ge  Ge374  1  0.41628133  0.91782267  0.21843564  1.0
  Ge  Ge375  1  0.74961467  0.25115600  0.21843564  1.0
  Ge  Ge376  1  0.74961467  0.58448933  0.21843564  1.0
  Ge  Ge377  1  0.74961467  0.91782267  0.21843564  1.0
  Ge  Ge378  1  0.16705200  0.33217733  0.13587297  1.0
  Ge  Ge379  1  0.16705200  0.66551067  0.13587297  1.0
  Ge  Ge380  1  0.16705200  0.99884400  0.13587297  1.0
  Ge  Ge381  1  0.50038533  0.33217733  0.13587297  1.0
  Ge  Ge382  1  0.50038533  0.66551067  0.13587297  1.0
  Ge  Ge383  1  0.50038533  0.99884400  0.13587297  1.0
  Ge  Ge384  1  0.83371867  0.33217733  0.13587297  1.0
  Ge  Ge385  1  0.83371867  0.66551067  0.13587297  1.0
  Ge  Ge386  1  0.83371867  0.99884400  0.13587297  1.0
  Ge  Ge387  1  0.00038533  0.16551067  0.19142853  1.0
  Ge  Ge388  1  0.00038533  0.49884400  0.19142853  1.0
  Ge  Ge389  1  0.00038533  0.83217733  0.19142853  1.0
  Ge  Ge390  1  0.33371867  0.16551067  0.19142853  1.0
  Ge  Ge391  1  0.33371867  0.49884400  0.19142853  1.0
  Ge  Ge392  1  0.33371867  0.83217733  0.19142853  1.0
  Ge  Ge393  1  0.66705200  0.16551067  0.19142853  1.0
  Ge  Ge394  1  0.66705200  0.49884400  0.19142853  1.0
  Ge  Ge395  1  0.66705200  0.83217733  0.19142853  1.0
  Ge  Ge396  1  0.25038533  0.08217733  0.21920631  1.0
  Ge  Ge397  1  0.25038533  0.41551067  0.21920631  1.0
  Ge  Ge398  1  0.25038533  0.74884400  0.21920631  1.0
  Ge  Ge399  1  0.58371867  0.08217733  0.21920631  1.0
  Ge  Ge400  1  0.58371867  0.41551067  0.21920631  1.0
  Ge  Ge401  1  0.58371867  0.74884400  0.21920631  1.0
  Ge  Ge402  1  0.91705200  0.08217733  0.21920631  1.0
  Ge  Ge403  1  0.91705200  0.41551067  0.21920631  1.0
  Ge  Ge404  1  0.91705200  0.74884400  0.21920631  1.0
  Ge  Ge405  1  0.08371867  0.24884400  0.16365075  1.0
  Ge  Ge406  1  0.08371867  0.58217733  0.16365075  1.0
  Ge  Ge407  1  0.08371867  0.91551067  0.16365075  1.0
  Ge  Ge408  1  0.41705200  0.24884400  0.16365075  1.0
  Ge  Ge409  1  0.41705200  0.58217733  0.16365075  1.0
  Ge  Ge410  1  0.41705200  0.91551067  0.16365075  1.0
  Ge  Ge411  1  0.75038533  0.24884400  0.16365075  1.0
  Ge  Ge412  1  0.75038533  0.58217733  0.16365075  1.0
  Ge  Ge413  1  0.75038533  0.91551067  0.16365075  1.0
  Ge  Ge414  1  0.33294800  0.16782267  0.13510231  1.0
  Ge  Ge415  1  0.33294800  0.50115600  0.13510231  1.0
  Ge  Ge416  1  0.33294800  0.83448933  0.13510231  1.0
  Ge  Ge417  1  0.66628133  0.16782267  0.13510231  1.0
  Ge  Ge418  1  0.66628133  0.50115600  0.13510231  1.0
  Ge  Ge419  1  0.66628133  0.83448933  0.13510231  1.0
  Ge  Ge420  1  0.99961467  0.16782267  0.13510231  1.0
  Ge  Ge421  1  0.99961467  0.50115600  0.13510231  1.0
  Ge  Ge422  1  0.99961467  0.83448933  0.13510231  1.0
  Ge  Ge423  1  0.16628133  0.00115600  0.19065786  1.0
  Ge  Ge424  1  0.16628133  0.33448933  0.19065786  1.0
  Ge  Ge425  1  0.16628133  0.66782267  0.19065786  1.0
  Ge  Ge426  1  0.49961467  0.00115600  0.19065786  1.0
  Ge  Ge427  1  0.49961467  0.33448933  0.19065786  1.0
  Ge  Ge428  1  0.49961467  0.66782267  0.19065786  1.0
  Ge  Ge429  1  0.83294800  0.00115600  0.19065786  1.0
  Ge  Ge430  1  0.83294800  0.33448933  0.19065786  1.0
  Ge  Ge431  1  0.83294800  0.66782267  0.19065786  1.0
  Ni  Ni432  1  0.18591817  0.18591817  0.26795936  1.0
  Ni  Ni433  1  0.18591817  0.51925150  0.26795936  1.0
  Ni  Ni434  1  0.18591817  0.85258483  0.26795936  1.0
  Ni  Ni435  1  0.51925150  0.18591817  0.26795936  1.0
  Ni  Ni436  1  0.51925150  0.51925150  0.26795936  1.0
  Ni  Ni437  1  0.51925150  0.85258483  0.26795936  1.0
  Ni  Ni438  1  0.85258483  0.18591817  0.26795936  1.0
  Ni  Ni439  1  0.85258483  0.51925150  0.26795936  1.0
  Ni  Ni440  1  0.85258483  0.85258483  0.26795936  1.0
  Ni  Ni441  1  0.01925150  0.01925150  0.32351492  1.0
  Ni  Ni442  1  0.01925150  0.35258483  0.32351492  1.0
  Ni  Ni443  1  0.01925150  0.68591817  0.32351492  1.0
  Ni  Ni444  1  0.35258483  0.01925150  0.32351492  1.0
  Ni  Ni445  1  0.35258483  0.35258483  0.32351492  1.0
  Ni  Ni446  1  0.35258483  0.68591817  0.32351492  1.0
  Ni  Ni447  1  0.68591817  0.01925150  0.32351492  1.0
  Ni  Ni448  1  0.68591817  0.35258483  0.32351492  1.0
  Ni  Ni449  1  0.68591817  0.68591817  0.32351492  1.0
  Ni  Ni450  1  0.23074850  0.23074850  0.30857147  1.0
  Ni  Ni451  1  0.23074850  0.56408183  0.30857147  1.0
  Ni  Ni452  1  0.23074850  0.89741517  0.30857147  1.0
  Ni  Ni453  1  0.56408183  0.23074850  0.30857147  1.0
  Ni  Ni454  1  0.56408183  0.56408183  0.30857147  1.0
  Ni  Ni455  1  0.56408183  0.89741517  0.30857147  1.0
  Ni  Ni456  1  0.89741517  0.23074850  0.30857147  1.0
  Ni  Ni457  1  0.89741517  0.56408183  0.30857147  1.0
  Ni  Ni458  1  0.89741517  0.89741517  0.30857147  1.0
  Ni  Ni459  1  0.06408183  0.06408183  0.25301592  1.0
  Ni  Ni460  1  0.06408183  0.39741517  0.25301592  1.0
  Ni  Ni461  1  0.06408183  0.73074850  0.25301592  1.0
  Ni  Ni462  1  0.39741517  0.06408183  0.25301592  1.0
  Ni  Ni463  1  0.39741517  0.39741517  0.25301592  1.0
  Ni  Ni464  1  0.39741517  0.73074850  0.25301592  1.0
  Ni  Ni465  1  0.73074850  0.06408183  0.25301592  1.0
  Ni  Ni466  1  0.73074850  0.39741517  0.25301592  1.0
  Ni  Ni467  1  0.73074850  0.73074850  0.25301592  1.0
  Ni  Ni468  1  0.31408183  0.31408183  0.22523814  1.0
  Ni  Ni469  1  0.31408183  0.64741517  0.22523814  1.0
  Ni  Ni470  1  0.31408183  0.98074850  0.22523814  1.0
  Ni  Ni471  1  0.64741517  0.31408183  0.22523814  1.0
  Ni  Ni472  1  0.64741517  0.64741517  0.22523814  1.0
  Ni  Ni473  1  0.64741517  0.98074850  0.22523814  1.0
  Ni  Ni474  1  0.98074850  0.31408183  0.22523814  1.0
  Ni  Ni475  1  0.98074850  0.64741517  0.22523814  1.0
  Ni  Ni476  1  0.98074850  0.98074850  0.22523814  1.0
  Ni  Ni477  1  0.14741517  0.14741517  0.28079369  1.0
  Ni  Ni478  1  0.14741517  0.48074850  0.28079369  1.0
  Ni  Ni479  1  0.14741517  0.81408183  0.28079369  1.0
  Ni  Ni480  1  0.48074850  0.14741517  0.28079369  1.0
  Ni  Ni481  1  0.48074850  0.48074850  0.28079369  1.0
  Ni  Ni482  1  0.48074850  0.81408183  0.28079369  1.0
  Ni  Ni483  1  0.81408183  0.14741517  0.28079369  1.0
  Ni  Ni484  1  0.81408183  0.48074850  0.28079369  1.0
  Ni  Ni485  1  0.81408183  0.81408183  0.28079369  1.0
  Ni  Ni486  1  0.26925150  0.26925150  0.29573714  1.0
  Ni  Ni487  1  0.26925150  0.60258483  0.29573714  1.0
  Ni  Ni488  1  0.26925150  0.93591817  0.29573714  1.0
  Ni  Ni489  1  0.60258483  0.26925150  0.29573714  1.0
  Ni  Ni490  1  0.60258483  0.60258483  0.29573714  1.0
  Ni  Ni491  1  0.60258483  0.93591817  0.29573714  1.0
  Ni  Ni492  1  0.93591817  0.26925150  0.29573714  1.0
  Ni  Ni493  1  0.93591817  0.60258483  0.29573714  1.0
  Ni  Ni494  1  0.93591817  0.93591817  0.29573714  1.0
  Ni  Ni495  1  0.10258483  0.10258483  0.24018158  1.0
  Ni  Ni496  1  0.10258483  0.43591817  0.24018158  1.0
  Ni  Ni497  1  0.10258483  0.76925150  0.24018158  1.0
  Ni  Ni498  1  0.43591817  0.10258483  0.24018158  1.0
  Ni  Ni499  1  0.43591817  0.43591817  0.24018158  1.0
  Ni  Ni500  1  0.43591817  0.76925150  0.24018158  1.0
  Ni  Ni501  1  0.76925150  0.10258483  0.24018158  1.0
  Ni  Ni502  1  0.76925150  0.43591817  0.24018158  1.0
  Ni  Ni503  1  0.76925150  0.76925150  0.24018158  1.0
  Ge  Ge504  1  0.19238833  0.08950167  0.26195031  1.0
  Ge  Ge505  1  0.19238833  0.42283500  0.26195031  1.0
  Ge  Ge506  1  0.19238833  0.75616833  0.26195031  1.0
  Ge  Ge507  1  0.52572167  0.08950167  0.26195031  1.0
  Ge  Ge508  1  0.52572167  0.42283500  0.26195031  1.0
  Ge  Ge509  1  0.52572167  0.75616833  0.26195031  1.0
  Ge  Ge510  1  0.85905500  0.08950167  0.26195031  1.0
  Ge  Ge511  1  0.85905500  0.42283500  0.26195031  1.0
  Ge  Ge512  1  0.85905500  0.75616833  0.26195031  1.0
  Ge  Ge513  1  0.02572167  0.25616833  0.31750586  1.0
  Ge  Ge514  1  0.02572167  0.58950167  0.31750586  1.0
  Ge  Ge515  1  0.02572167  0.92283500  0.31750586  1.0
  Ge  Ge516  1  0.35905500  0.25616833  0.31750586  1.0
  Ge  Ge517  1  0.35905500  0.58950167  0.31750586  1.0
  Ge  Ge518  1  0.35905500  0.92283500  0.31750586  1.0
  Ge  Ge519  1  0.69238833  0.25616833  0.31750586  1.0
  Ge  Ge520  1  0.69238833  0.58950167  0.31750586  1.0
  Ge  Ge521  1  0.69238833  0.92283500  0.31750586  1.0
  Ge  Ge522  1  0.22427833  0.32716500  0.23828475  1.0
  Ge  Ge523  1  0.22427833  0.66049833  0.23828475  1.0
  Ge  Ge524  1  0.22427833  0.99383167  0.23828475  1.0
  Ge  Ge525  1  0.55761167  0.32716500  0.23828475  1.0
  Ge  Ge526  1  0.55761167  0.66049833  0.23828475  1.0
  Ge  Ge527  1  0.55761167  0.99383167  0.23828475  1.0
  Ge  Ge528  1  0.89094500  0.32716500  0.23828475  1.0
  Ge  Ge529  1  0.89094500  0.66049833  0.23828475  1.0
  Ge  Ge530  1  0.89094500  0.99383167  0.23828475  1.0
  Ge  Ge531  1  0.05761167  0.16049833  0.29384031  1.0
  Ge  Ge532  1  0.05761167  0.49383167  0.29384031  1.0
  Ge  Ge533  1  0.05761167  0.82716500  0.29384031  1.0
  Ge  Ge534  1  0.39094500  0.16049833  0.29384031  1.0
  Ge  Ge535  1  0.39094500  0.49383167  0.29384031  1.0
  Ge  Ge536  1  0.39094500  0.82716500  0.29384031  1.0
  Ge  Ge537  1  0.72427833  0.16049833  0.29384031  1.0
  Ge  Ge538  1  0.72427833  0.49383167  0.29384031  1.0
  Ge  Ge539  1  0.72427833  0.82716500  0.29384031  1.0
  Ge  Ge540  1  0.27572167  0.17283500  0.25491275  1.0
  Ge  Ge541  1  0.27572167  0.50616833  0.25491275  1.0
  Ge  Ge542  1  0.27572167  0.83950167  0.25491275  1.0
  Ge  Ge543  1  0.60905500  0.17283500  0.25491275  1.0
  Ge  Ge544  1  0.60905500  0.50616833  0.25491275  1.0
  Ge  Ge545  1  0.60905500  0.83950167  0.25491275  1.0
  Ge  Ge546  1  0.94238833  0.17283500  0.25491275  1.0
  Ge  Ge547  1  0.94238833  0.50616833  0.25491275  1.0
  Ge  Ge548  1  0.94238833  0.83950167  0.25491275  1.0
  Ge  Ge549  1  0.10905500  0.00616833  0.31046831  1.0
  Ge  Ge550  1  0.10905500  0.33950167  0.31046831  1.0
  Ge  Ge551  1  0.10905500  0.67283500  0.31046831  1.0
  Ge  Ge552  1  0.44238833  0.00616833  0.31046831  1.0
  Ge  Ge553  1  0.44238833  0.33950167  0.31046831  1.0
  Ge  Ge554  1  0.44238833  0.67283500  0.31046831  1.0
  Ge  Ge555  1  0.77572167  0.00616833  0.31046831  1.0
  Ge  Ge556  1  0.77572167  0.33950167  0.31046831  1.0
  Ge  Ge557  1  0.77572167  0.67283500  0.31046831  1.0
  Ge  Ge558  1  0.30761167  0.07716500  0.23124719  1.0
  Ge  Ge559  1  0.30761167  0.41049833  0.23124719  1.0
  Ge  Ge560  1  0.30761167  0.74383167  0.23124719  1.0
  Ge  Ge561  1  0.64094500  0.07716500  0.23124719  1.0
  Ge  Ge562  1  0.64094500  0.41049833  0.23124719  1.0
  Ge  Ge563  1  0.64094500  0.74383167  0.23124719  1.0
  Ge  Ge564  1  0.97427833  0.07716500  0.23124719  1.0
  Ge  Ge565  1  0.97427833  0.41049833  0.23124719  1.0
  Ge  Ge566  1  0.97427833  0.74383167  0.23124719  1.0
  Ge  Ge567  1  0.14094500  0.24383167  0.28680275  1.0
  Ge  Ge568  1  0.14094500  0.57716500  0.28680275  1.0
  Ge  Ge569  1  0.14094500  0.91049833  0.28680275  1.0
  Ge  Ge570  1  0.47427833  0.24383167  0.28680275  1.0
  Ge  Ge571  1  0.47427833  0.57716500  0.28680275  1.0
  Ge  Ge572  1  0.47427833  0.91049833  0.28680275  1.0
  Ge  Ge573  1  0.80761167  0.24383167  0.28680275  1.0
  Ge  Ge574  1  0.80761167  0.57716500  0.28680275  1.0
  Ge  Ge575  1  0.80761167  0.91049833  0.28680275  1.0
  Ge  Ge576  1  0.24961467  0.08448933  0.27399119  1.0
  Ge  Ge577  1  0.24961467  0.41782267  0.27399119  1.0
  Ge  Ge578  1  0.24961467  0.75115600  0.27399119  1.0
  Ge  Ge579  1  0.58294800  0.08448933  0.27399119  1.0
  Ge  Ge580  1  0.58294800  0.41782267  0.27399119  1.0
  Ge  Ge581  1  0.58294800  0.75115600  0.27399119  1.0
  Ge  Ge582  1  0.91628133  0.08448933  0.27399119  1.0
  Ge  Ge583  1  0.91628133  0.41782267  0.27399119  1.0
  Ge  Ge584  1  0.91628133  0.75115600  0.27399119  1.0
  Ge  Ge585  1  0.08294800  0.25115600  0.32954675  1.0
  Ge  Ge586  1  0.08294800  0.58448933  0.32954675  1.0
  Ge  Ge587  1  0.08294800  0.91782267  0.32954675  1.0
  Ge  Ge588  1  0.41628133  0.25115600  0.32954675  1.0
  Ge  Ge589  1  0.41628133  0.58448933  0.32954675  1.0
  Ge  Ge590  1  0.41628133  0.91782267  0.32954675  1.0
  Ge  Ge591  1  0.74961467  0.25115600  0.32954675  1.0
  Ge  Ge592  1  0.74961467  0.58448933  0.32954675  1.0
  Ge  Ge593  1  0.74961467  0.91782267  0.32954675  1.0
  Ge  Ge594  1  0.16705200  0.33217733  0.24698408  1.0
  Ge  Ge595  1  0.16705200  0.66551067  0.24698408  1.0
  Ge  Ge596  1  0.16705200  0.99884400  0.24698408  1.0
  Ge  Ge597  1  0.50038533  0.33217733  0.24698408  1.0
  Ge  Ge598  1  0.50038533  0.66551067  0.24698408  1.0
  Ge  Ge599  1  0.50038533  0.99884400  0.24698408  1.0
  Ge  Ge600  1  0.83371867  0.33217733  0.24698408  1.0
  Ge  Ge601  1  0.83371867  0.66551067  0.24698408  1.0
  Ge  Ge602  1  0.83371867  0.99884400  0.24698408  1.0
  Ge  Ge603  1  0.00038533  0.16551067  0.30253964  1.0
  Ge  Ge604  1  0.00038533  0.49884400  0.30253964  1.0
  Ge  Ge605  1  0.00038533  0.83217733  0.30253964  1.0
  Ge  Ge606  1  0.33371867  0.16551067  0.30253964  1.0
  Ge  Ge607  1  0.33371867  0.49884400  0.30253964  1.0
  Ge  Ge608  1  0.33371867  0.83217733  0.30253964  1.0
  Ge  Ge609  1  0.66705200  0.16551067  0.30253964  1.0
  Ge  Ge610  1  0.66705200  0.49884400  0.30253964  1.0
  Ge  Ge611  1  0.66705200  0.83217733  0.30253964  1.0
  Ge  Ge612  1  0.25038533  0.08217733  0.33031742  1.0
  Ge  Ge613  1  0.25038533  0.41551067  0.33031742  1.0
  Ge  Ge614  1  0.25038533  0.74884400  0.33031742  1.0
  Ge  Ge615  1  0.58371867  0.08217733  0.33031742  1.0
  Ge  Ge616  1  0.58371867  0.41551067  0.33031742  1.0
  Ge  Ge617  1  0.58371867  0.74884400  0.33031742  1.0
  Ge  Ge618  1  0.91705200  0.08217733  0.33031742  1.0
  Ge  Ge619  1  0.91705200  0.41551067  0.33031742  1.0
  Ge  Ge620  1  0.91705200  0.74884400  0.33031742  1.0
  Ge  Ge621  1  0.08371867  0.24884400  0.27476186  1.0
  Ge  Ge622  1  0.08371867  0.58217733  0.27476186  1.0
  Ge  Ge623  1  0.08371867  0.91551067  0.27476186  1.0
  Ge  Ge624  1  0.41705200  0.24884400  0.27476186  1.0
  Ge  Ge625  1  0.41705200  0.58217733  0.27476186  1.0
  Ge  Ge626  1  0.41705200  0.91551067  0.27476186  1.0
  Ge  Ge627  1  0.75038533  0.24884400  0.27476186  1.0
  Ge  Ge628  1  0.75038533  0.58217733  0.27476186  1.0
  Ge  Ge629  1  0.75038533  0.91551067  0.27476186  1.0
  Ge  Ge630  1  0.33294800  0.16782267  0.24621342  1.0
  Ge  Ge631  1  0.33294800  0.50115600  0.24621342  1.0
  Ge  Ge632  1  0.33294800  0.83448933  0.24621342  1.0
  Ge  Ge633  1  0.66628133  0.16782267  0.24621342  1.0
  Ge  Ge634  1  0.66628133  0.50115600  0.24621342  1.0
  Ge  Ge635  1  0.66628133  0.83448933  0.24621342  1.0
  Ge  Ge636  1  0.99961467  0.16782267  0.24621342  1.0
  Ge  Ge637  1  0.99961467  0.50115600  0.24621342  1.0
  Ge  Ge638  1  0.99961467  0.83448933  0.24621342  1.0
  Ge  Ge639  1  0.16628133  0.00115600  0.30176897  1.0
  Ge  Ge640  1  0.16628133  0.33448933  0.30176897  1.0
  Ge  Ge641  1  0.16628133  0.66782267  0.30176897  1.0
  Ge  Ge642  1  0.49961467  0.00115600  0.30176897  1.0
  Ge  Ge643  1  0.49961467  0.33448933  0.30176897  1.0
  Ge  Ge644  1  0.49961467  0.66782267  0.30176897  1.0
  Ge  Ge645  1  0.83294800  0.00115600  0.30176897  1.0
  Ge  Ge646  1  0.83294800  0.33448933  0.30176897  1.0
  Ge  Ge647  1  0.83294800  0.66782267  0.30176897  1.0
  Ni  Ni648  1  0.18591817  0.18591817  0.37907047  1.0
  Ni  Ni649  1  0.18591817  0.51925150  0.37907047  1.0
  Ni  Ni650  1  0.18591817  0.85258483  0.37907047  1.0
  Ni  Ni651  1  0.51925150  0.18591817  0.37907047  1.0
  Ni  Ni652  1  0.51925150  0.51925150  0.37907047  1.0
  Ni  Ni653  1  0.51925150  0.85258483  0.37907047  1.0
  Ni  Ni654  1  0.85258483  0.18591817  0.37907047  1.0
  Ni  Ni655  1  0.85258483  0.51925150  0.37907047  1.0
  Ni  Ni656  1  0.85258483  0.85258483  0.37907047  1.0
  Ni  Ni657  1  0.01925150  0.01925150  0.43462603  1.0
  Ni  Ni658  1  0.01925150  0.35258483  0.43462603  1.0
  Ni  Ni659  1  0.01925150  0.68591817  0.43462603  1.0
  Ni  Ni660  1  0.35258483  0.01925150  0.43462603  1.0
  Ni  Ni661  1  0.35258483  0.35258483  0.43462603  1.0
  Ni  Ni662  1  0.35258483  0.68591817  0.43462603  1.0
  Ni  Ni663  1  0.68591817  0.01925150  0.43462603  1.0
  Ni  Ni664  1  0.68591817  0.35258483  0.43462603  1.0
  Ni  Ni665  1  0.68591817  0.68591817  0.43462603  1.0
  Ni  Ni666  1  0.23074850  0.23074850  0.41968258  1.0
  Ni  Ni667  1  0.23074850  0.56408183  0.41968258  1.0
  Ni  Ni668  1  0.23074850  0.89741517  0.41968258  1.0
  Ni  Ni669  1  0.56408183  0.23074850  0.41968258  1.0
  Ni  Ni670  1  0.56408183  0.56408183  0.41968258  1.0
  Ni  Ni671  1  0.56408183  0.89741517  0.41968258  1.0
  Ni  Ni672  1  0.89741517  0.23074850  0.41968258  1.0
  Ni  Ni673  1  0.89741517  0.56408183  0.41968258  1.0
  Ni  Ni674  1  0.89741517  0.89741517  0.41968258  1.0
  Ni  Ni675  1  0.06408183  0.06408183  0.36412703  1.0
  Ni  Ni676  1  0.06408183  0.39741517  0.36412703  1.0
  Ni  Ni677  1  0.06408183  0.73074850  0.36412703  1.0
  Ni  Ni678  1  0.39741517  0.06408183  0.36412703  1.0
  Ni  Ni679  1  0.39741517  0.39741517  0.36412703  1.0
  Ni  Ni680  1  0.39741517  0.73074850  0.36412703  1.0
  Ni  Ni681  1  0.73074850  0.06408183  0.36412703  1.0
  Ni  Ni682  1  0.73074850  0.39741517  0.36412703  1.0
  Ni  Ni683  1  0.73074850  0.73074850  0.36412703  1.0
  Ni  Ni684  1  0.31408183  0.31408183  0.33634925  1.0
  Ni  Ni685  1  0.31408183  0.64741517  0.33634925  1.0
  Ni  Ni686  1  0.31408183  0.98074850  0.33634925  1.0
  Ni  Ni687  1  0.64741517  0.31408183  0.33634925  1.0
  Ni  Ni688  1  0.64741517  0.64741517  0.33634925  1.0
  Ni  Ni689  1  0.64741517  0.98074850  0.33634925  1.0
  Ni  Ni690  1  0.98074850  0.31408183  0.33634925  1.0
  Ni  Ni691  1  0.98074850  0.64741517  0.33634925  1.0
  Ni  Ni692  1  0.98074850  0.98074850  0.33634925  1.0
  Ni  Ni693  1  0.14741517  0.14741517  0.39190481  1.0
  Ni  Ni694  1  0.14741517  0.48074850  0.39190481  1.0
  Ni  Ni695  1  0.14741517  0.81408183  0.39190481  1.0
  Ni  Ni696  1  0.48074850  0.14741517  0.39190481  1.0
  Ni  Ni697  1  0.48074850  0.48074850  0.39190481  1.0
  Ni  Ni698  1  0.48074850  0.81408183  0.39190481  1.0
  Ni  Ni699  1  0.81408183  0.14741517  0.39190481  1.0
  Ni  Ni700  1  0.81408183  0.48074850  0.39190481  1.0
  Ni  Ni701  1  0.81408183  0.81408183  0.39190481  1.0
  Ni  Ni702  1  0.26925150  0.26925150  0.40684825  1.0
  Ni  Ni703  1  0.26925150  0.60258483  0.40684825  1.0
  Ni  Ni704  1  0.26925150  0.93591817  0.40684825  1.0
  Ni  Ni705  1  0.60258483  0.26925150  0.40684825  1.0
  Ni  Ni706  1  0.60258483  0.60258483  0.40684825  1.0
  Ni  Ni707  1  0.60258483  0.93591817  0.40684825  1.0
  Ni  Ni708  1  0.93591817  0.26925150  0.40684825  1.0
  Ni  Ni709  1  0.93591817  0.60258483  0.40684825  1.0
  Ni  Ni710  1  0.93591817  0.93591817  0.40684825  1.0
  Ni  Ni711  1  0.10258483  0.10258483  0.35129269  1.0
  Ni  Ni712  1  0.10258483  0.43591817  0.35129269  1.0
  Ni  Ni713  1  0.10258483  0.76925150  0.35129269  1.0
  Ni  Ni714  1  0.43591817  0.10258483  0.35129269  1.0
  Ni  Ni715  1  0.43591817  0.43591817  0.35129269  1.0
  Ni  Ni716  1  0.43591817  0.76925150  0.35129269  1.0
  Ni  Ni717  1  0.76925150  0.10258483  0.35129269  1.0
  Ni  Ni718  1  0.76925150  0.43591817  0.35129269  1.0
  Ni  Ni719  1  0.76925150  0.76925150  0.35129269  1.0
  Ge  Ge720  1  0.19238833  0.08950167  0.37306142  1.0
  Ge  Ge721  1  0.19238833  0.42283500  0.37306142  1.0
  Ge  Ge722  1  0.19238833  0.75616833  0.37306142  1.0
  Ge  Ge723  1  0.52572167  0.08950167  0.37306142  1.0
  Ge  Ge724  1  0.52572167  0.42283500  0.37306142  1.0
  Ge  Ge725  1  0.52572167  0.75616833  0.37306142  1.0
  Ge  Ge726  1  0.85905500  0.08950167  0.37306142  1.0
  Ge  Ge727  1  0.85905500  0.42283500  0.37306142  1.0
  Ge  Ge728  1  0.85905500  0.75616833  0.37306142  1.0
  Ge  Ge729  1  0.02572167  0.25616833  0.42861697  1.0
  Ge  Ge730  1  0.02572167  0.58950167  0.42861697  1.0
  Ge  Ge731  1  0.02572167  0.92283500  0.42861697  1.0
  Ge  Ge732  1  0.35905500  0.25616833  0.42861697  1.0
  Ge  Ge733  1  0.35905500  0.58950167  0.42861697  1.0
  Ge  Ge734  1  0.35905500  0.92283500  0.42861697  1.0
  Ge  Ge735  1  0.69238833  0.25616833  0.42861697  1.0
  Ge  Ge736  1  0.69238833  0.58950167  0.42861697  1.0
  Ge  Ge737  1  0.69238833  0.92283500  0.42861697  1.0
  Ge  Ge738  1  0.22427833  0.32716500  0.34939586  1.0
  Ge  Ge739  1  0.22427833  0.66049833  0.34939586  1.0
  Ge  Ge740  1  0.22427833  0.99383167  0.34939586  1.0
  Ge  Ge741  1  0.55761167  0.32716500  0.34939586  1.0
  Ge  Ge742  1  0.55761167  0.66049833  0.34939586  1.0
  Ge  Ge743  1  0.55761167  0.99383167  0.34939586  1.0
  Ge  Ge744  1  0.89094500  0.32716500  0.34939586  1.0
  Ge  Ge745  1  0.89094500  0.66049833  0.34939586  1.0
  Ge  Ge746  1  0.89094500  0.99383167  0.34939586  1.0
  Ge  Ge747  1  0.05761167  0.16049833  0.40495142  1.0
  Ge  Ge748  1  0.05761167  0.49383167  0.40495142  1.0
  Ge  Ge749  1  0.05761167  0.82716500  0.40495142  1.0
  Ge  Ge750  1  0.39094500  0.16049833  0.40495142  1.0
  Ge  Ge751  1  0.39094500  0.49383167  0.40495142  1.0
  Ge  Ge752  1  0.39094500  0.82716500  0.40495142  1.0
  Ge  Ge753  1  0.72427833  0.16049833  0.40495142  1.0
  Ge  Ge754  1  0.72427833  0.49383167  0.40495142  1.0
  Ge  Ge755  1  0.72427833  0.82716500  0.40495142  1.0
  Ge  Ge756  1  0.27572167  0.17283500  0.36602386  1.0
  Ge  Ge757  1  0.27572167  0.50616833  0.36602386  1.0
  Ge  Ge758  1  0.27572167  0.83950167  0.36602386  1.0
  Ge  Ge759  1  0.60905500  0.17283500  0.36602386  1.0
  Ge  Ge760  1  0.60905500  0.50616833  0.36602386  1.0
  Ge  Ge761  1  0.60905500  0.83950167  0.36602386  1.0
  Ge  Ge762  1  0.94238833  0.17283500  0.36602386  1.0
  Ge  Ge763  1  0.94238833  0.50616833  0.36602386  1.0
  Ge  Ge764  1  0.94238833  0.83950167  0.36602386  1.0
  Ge  Ge765  1  0.10905500  0.00616833  0.42157942  1.0
  Ge  Ge766  1  0.10905500  0.33950167  0.42157942  1.0
  Ge  Ge767  1  0.10905500  0.67283500  0.42157942  1.0
  Ge  Ge768  1  0.44238833  0.00616833  0.42157942  1.0
  Ge  Ge769  1  0.44238833  0.33950167  0.42157942  1.0
  Ge  Ge770  1  0.44238833  0.67283500  0.42157942  1.0
  Ge  Ge771  1  0.77572167  0.00616833  0.42157942  1.0
  Ge  Ge772  1  0.77572167  0.33950167  0.42157942  1.0
  Ge  Ge773  1  0.77572167  0.67283500  0.42157942  1.0
  Ge  Ge774  1  0.30761167  0.07716500  0.34235831  1.0
  Ge  Ge775  1  0.30761167  0.41049833  0.34235831  1.0
  Ge  Ge776  1  0.30761167  0.74383167  0.34235831  1.0
  Ge  Ge777  1  0.64094500  0.07716500  0.34235831  1.0
  Ge  Ge778  1  0.64094500  0.41049833  0.34235831  1.0
  Ge  Ge779  1  0.64094500  0.74383167  0.34235831  1.0
  Ge  Ge780  1  0.97427833  0.07716500  0.34235831  1.0
  Ge  Ge781  1  0.97427833  0.41049833  0.34235831  1.0
  Ge  Ge782  1  0.97427833  0.74383167  0.34235831  1.0
  Ge  Ge783  1  0.14094500  0.24383167  0.39791386  1.0
  Ge  Ge784  1  0.14094500  0.57716500  0.39791386  1.0
  Ge  Ge785  1  0.14094500  0.91049833  0.39791386  1.0
  Ge  Ge786  1  0.47427833  0.24383167  0.39791386  1.0
  Ge  Ge787  1  0.47427833  0.57716500  0.39791386  1.0
  Ge  Ge788  1  0.47427833  0.91049833  0.39791386  1.0
  Ge  Ge789  1  0.80761167  0.24383167  0.39791386  1.0
  Ge  Ge790  1  0.80761167  0.57716500  0.39791386  1.0
  Ge  Ge791  1  0.80761167  0.91049833  0.39791386  1.0
  Ge  Ge792  1  0.24961467  0.08448933  0.38510231  1.0
  Ge  Ge793  1  0.24961467  0.41782267  0.38510231  1.0
  Ge  Ge794  1  0.24961467  0.75115600  0.38510231  1.0
  Ge  Ge795  1  0.58294800  0.08448933  0.38510231  1.0
  Ge  Ge796  1  0.58294800  0.41782267  0.38510231  1.0
  Ge  Ge797  1  0.58294800  0.75115600  0.38510231  1.0
  Ge  Ge798  1  0.91628133  0.08448933  0.38510231  1.0
  Ge  Ge799  1  0.91628133  0.41782267  0.38510231  1.0
  Ge  Ge800  1  0.91628133  0.75115600  0.38510231  1.0
  Ge  Ge801  1  0.08294800  0.25115600  0.44065786  1.0
  Ge  Ge802  1  0.08294800  0.58448933  0.44065786  1.0
  Ge  Ge803  1  0.08294800  0.91782267  0.44065786  1.0
  Ge  Ge804  1  0.41628133  0.25115600  0.44065786  1.0
  Ge  Ge805  1  0.41628133  0.58448933  0.44065786  1.0
  Ge  Ge806  1  0.41628133  0.91782267  0.44065786  1.0
  Ge  Ge807  1  0.74961467  0.25115600  0.44065786  1.0
  Ge  Ge808  1  0.74961467  0.58448933  0.44065786  1.0
  Ge  Ge809  1  0.74961467  0.91782267  0.44065786  1.0
  Ge  Ge810  1  0.16705200  0.33217733  0.35809519  1.0
  Ge  Ge811  1  0.16705200  0.66551067  0.35809519  1.0
  Ge  Ge812  1  0.16705200  0.99884400  0.35809519  1.0
  Ge  Ge813  1  0.50038533  0.33217733  0.35809519  1.0
  Ge  Ge814  1  0.50038533  0.66551067  0.35809519  1.0
  Ge  Ge815  1  0.50038533  0.99884400  0.35809519  1.0
  Ge  Ge816  1  0.83371867  0.33217733  0.35809519  1.0
  Ge  Ge817  1  0.83371867  0.66551067  0.35809519  1.0
  Ge  Ge818  1  0.83371867  0.99884400  0.35809519  1.0
  Ge  Ge819  1  0.00038533  0.16551067  0.41365075  1.0
  Ge  Ge820  1  0.00038533  0.49884400  0.41365075  1.0
  Ge  Ge821  1  0.00038533  0.83217733  0.41365075  1.0
  Ge  Ge822  1  0.33371867  0.16551067  0.41365075  1.0
  Ge  Ge823  1  0.33371867  0.49884400  0.41365075  1.0
  Ge  Ge824  1  0.33371867  0.83217733  0.41365075  1.0
  Ge  Ge825  1  0.66705200  0.16551067  0.41365075  1.0
  Ge  Ge826  1  0.66705200  0.49884400  0.41365075  1.0
  Ge  Ge827  1  0.66705200  0.83217733  0.41365075  1.0
  Ge  Ge828  1  0.25038533  0.08217733  0.44142853  1.0
  Ge  Ge829  1  0.25038533  0.41551067  0.44142853  1.0
  Ge  Ge830  1  0.25038533  0.74884400  0.44142853  1.0
  Ge  Ge831  1  0.58371867  0.08217733  0.44142853  1.0
  Ge  Ge832  1  0.58371867  0.41551067  0.44142853  1.0
  Ge  Ge833  1  0.58371867  0.74884400  0.44142853  1.0
  Ge  Ge834  1  0.91705200  0.08217733  0.44142853  1.0
  Ge  Ge835  1  0.91705200  0.41551067  0.44142853  1.0
  Ge  Ge836  1  0.91705200  0.74884400  0.44142853  1.0
  Ge  Ge837  1  0.08371867  0.24884400  0.38587297  1.0
  Ge  Ge838  1  0.08371867  0.58217733  0.38587297  1.0
  Ge  Ge839  1  0.08371867  0.91551067  0.38587297  1.0
  Ge  Ge840  1  0.41705200  0.24884400  0.38587297  1.0
  Ge  Ge841  1  0.41705200  0.58217733  0.38587297  1.0
  Ge  Ge842  1  0.41705200  0.91551067  0.38587297  1.0
  Ge  Ge843  1  0.75038533  0.24884400  0.38587297  1.0
  Ge  Ge844  1  0.75038533  0.58217733  0.38587297  1.0
  Ge  Ge845  1  0.75038533  0.91551067  0.38587297  1.0
  Ge  Ge846  1  0.33294800  0.16782267  0.35732453  1.0
  Ge  Ge847  1  0.33294800  0.50115600  0.35732453  1.0
  Ge  Ge848  1  0.33294800  0.83448933  0.35732453  1.0
  Ge  Ge849  1  0.66628133  0.16782267  0.35732453  1.0
  Ge  Ge850  1  0.66628133  0.50115600  0.35732453  1.0
  Ge  Ge851  1  0.66628133  0.83448933  0.35732453  1.0
  Ge  Ge852  1  0.99961467  0.16782267  0.35732453  1.0
  Ge  Ge853  1  0.99961467  0.50115600  0.35732453  1.0
  Ge  Ge854  1  0.99961467  0.83448933  0.35732453  1.0
  Ge  Ge855  1  0.16628133  0.00115600  0.41288008  1.0
  Ge  Ge856  1  0.16628133  0.33448933  0.41288008  1.0
  Ge  Ge857  1  0.16628133  0.66782267  0.41288008  1.0
  Ge  Ge858  1  0.49961467  0.00115600  0.41288008  1.0
  Ge  Ge859  1  0.49961467  0.33448933  0.41288008  1.0
  Ge  Ge860  1  0.49961467  0.66782267  0.41288008  1.0
  Ge  Ge861  1  0.83294800  0.00115600  0.41288008  1.0
  Ge  Ge862  1  0.83294800  0.33448933  0.41288008  1.0
  Ge  Ge863  1  0.83294800  0.66782267  0.41288008  1.0
