# generated using pymatgen
data_NiSb3
_symmetry_space_group_name_H-M   'P 1'
_cell_length_a   39.25486326
_cell_length_b   60.49580720
_cell_length_c   72.11578869
_cell_angle_alpha   131.47293431
_cell_angle_beta   144.73561032
_cell_angle_gamma   71.06817682
_symmetry_Int_Tables_number   1
_chemical_formula_structural   NiSb3
_chemical_formula_sum   'Ni288 Sb864'
_cell_volume   64158.86435067
_cell_formula_units_Z   288
loop_
 _symmetry_equiv_pos_site_id
 _symmetry_equiv_pos_as_xyz
  1  'x, y, z'
loop_
 _atom_site_type_symbol
 _atom_site_label
 _atom_site_symmetry_multiplicity
 _atom_site_fract_x
 _atom_site_fract_y
 _atom_site_fract_z
 _atom_site_occupancy
  Ni  Ni0  1  0.00000000  0.08333333  0.02308864  1.0
  Ni  Ni1  1  0.00000000  0.41666667  0.02308864  1.0
  Ni  Ni2  1  0.00000000  0.75000000  0.02308864  1.0
  Ni  Ni3  1  0.33333333  0.08333333  0.02308864  1.0
  Ni  Ni4  1  0.33333333  0.41666667  0.02308864  1.0
  Ni  Ni5  1  0.33333333  0.75000000  0.02308864  1.0
  Ni  Ni6  1  0.66666667  0.08333333  0.02308864  1.0
  Ni  Ni7  1  0.66666667  0.41666667  0.02308864  1.0
  Ni  Ni8  1  0.66666667  0.75000000  0.02308864  1.0
  Ni  Ni9  1  0.00000000  0.25000000  0.07864419  1.0
  Ni  Ni10  1  0.00000000  0.58333333  0.07864419  1.0
  Ni  Ni11  1  0.00000000  0.91666667  0.07864419  1.0
  Ni  Ni12  1  0.33333333  0.25000000  0.07864419  1.0
  Ni  Ni13  1  0.33333333  0.58333333  0.07864419  1.0
  Ni  Ni14  1  0.33333333  0.91666667  0.07864419  1.0
  Ni  Ni15  1  0.66666667  0.25000000  0.07864419  1.0
  Ni  Ni16  1  0.66666667  0.58333333  0.07864419  1.0
  Ni  Ni17  1  0.66666667  0.91666667  0.07864419  1.0
  Ni  Ni18  1  0.00000000  0.00000000  0.05086642  1.0
  Ni  Ni19  1  0.00000000  0.33333333  0.05086642  1.0
  Ni  Ni20  1  0.00000000  0.66666667  0.05086642  1.0
  Ni  Ni21  1  0.33333333  0.00000000  0.05086642  1.0
  Ni  Ni22  1  0.33333333  0.33333333  0.05086642  1.0
  Ni  Ni23  1  0.33333333  0.66666667  0.05086642  1.0
  Ni  Ni24  1  0.66666667  0.00000000  0.05086642  1.0
  Ni  Ni25  1  0.66666667  0.33333333  0.05086642  1.0
  Ni  Ni26  1  0.66666667  0.66666667  0.05086642  1.0
  Ni  Ni27  1  0.00000000  0.16666667  0.10642197  1.0
  Ni  Ni28  1  0.00000000  0.50000000  0.10642197  1.0
  Ni  Ni29  1  0.00000000  0.83333333  0.10642197  1.0
  Ni  Ni30  1  0.33333333  0.16666667  0.10642197  1.0
  Ni  Ni31  1  0.33333333  0.50000000  0.10642197  1.0
  Ni  Ni32  1  0.33333333  0.83333333  0.10642197  1.0
  Ni  Ni33  1  0.66666667  0.16666667  0.10642197  1.0
  Ni  Ni34  1  0.66666667  0.50000000  0.10642197  1.0
  Ni  Ni35  1  0.66666667  0.83333333  0.10642197  1.0
  Ni  Ni36  1  0.16666667  0.00000000  0.05086642  1.0
  Ni  Ni37  1  0.16666667  0.33333333  0.05086642  1.0
  Ni  Ni38  1  0.16666667  0.66666667  0.05086642  1.0
  Ni  Ni39  1  0.50000000  0.00000000  0.05086642  1.0
  Ni  Ni40  1  0.50000000  0.33333333  0.05086642  1.0
  Ni  Ni41  1  0.50000000  0.66666667  0.05086642  1.0
  Ni  Ni42  1  0.83333333  0.00000000  0.05086642  1.0
  Ni  Ni43  1  0.83333333  0.33333333  0.05086642  1.0
  Ni  Ni44  1  0.83333333  0.66666667  0.05086642  1.0
  Ni  Ni45  1  0.16666667  0.16666667  0.10642197  1.0
  Ni  Ni46  1  0.16666667  0.50000000  0.10642197  1.0
  Ni  Ni47  1  0.16666667  0.83333333  0.10642197  1.0
  Ni  Ni48  1  0.50000000  0.16666667  0.10642197  1.0
  Ni  Ni49  1  0.50000000  0.50000000  0.10642197  1.0
  Ni  Ni50  1  0.50000000  0.83333333  0.10642197  1.0
  Ni  Ni51  1  0.83333333  0.16666667  0.10642197  1.0
  Ni  Ni52  1  0.83333333  0.50000000  0.10642197  1.0
  Ni  Ni53  1  0.83333333  0.83333333  0.10642197  1.0
  Ni  Ni54  1  0.16666667  0.08333333  0.02308864  1.0
  Ni  Ni55  1  0.16666667  0.41666667  0.02308864  1.0
  Ni  Ni56  1  0.16666667  0.75000000  0.02308864  1.0
  Ni  Ni57  1  0.50000000  0.08333333  0.02308864  1.0
  Ni  Ni58  1  0.50000000  0.41666667  0.02308864  1.0
  Ni  Ni59  1  0.50000000  0.75000000  0.02308864  1.0
  Ni  Ni60  1  0.83333333  0.08333333  0.02308864  1.0
  Ni  Ni61  1  0.83333333  0.41666667  0.02308864  1.0
  Ni  Ni62  1  0.83333333  0.75000000  0.02308864  1.0
  Ni  Ni63  1  0.16666667  0.25000000  0.07864419  1.0
  Ni  Ni64  1  0.16666667  0.58333333  0.07864419  1.0
  Ni  Ni65  1  0.16666667  0.91666667  0.07864419  1.0
  Ni  Ni66  1  0.50000000  0.25000000  0.07864419  1.0
  Ni  Ni67  1  0.50000000  0.58333333  0.07864419  1.0
  Ni  Ni68  1  0.50000000  0.91666667  0.07864419  1.0
  Ni  Ni69  1  0.83333333  0.25000000  0.07864419  1.0
  Ni  Ni70  1  0.83333333  0.58333333  0.07864419  1.0
  Ni  Ni71  1  0.83333333  0.91666667  0.07864419  1.0
  Sb  Sb72  1  0.27385333  0.11032117  0.02999492  1.0
  Sb  Sb73  1  0.27385333  0.44365450  0.02999492  1.0
  Sb  Sb74  1  0.27385333  0.77698783  0.02999492  1.0
  Sb  Sb75  1  0.60718667  0.11032117  0.02999492  1.0
  Sb  Sb76  1  0.60718667  0.44365450  0.02999492  1.0
  Sb  Sb77  1  0.60718667  0.77698783  0.02999492  1.0
  Sb  Sb78  1  0.94052000  0.11032117  0.02999492  1.0
  Sb  Sb79  1  0.94052000  0.44365450  0.02999492  1.0
  Sb  Sb80  1  0.94052000  0.77698783  0.02999492  1.0
  Sb  Sb81  1  0.27385333  0.27698783  0.08555047  1.0
  Sb  Sb82  1  0.27385333  0.61032117  0.08555047  1.0
  Sb  Sb83  1  0.27385333  0.94365450  0.08555047  1.0
  Sb  Sb84  1  0.60718667  0.27698783  0.08555047  1.0
  Sb  Sb85  1  0.60718667  0.61032117  0.08555047  1.0
  Sb  Sb86  1  0.60718667  0.94365450  0.08555047  1.0
  Sb  Sb87  1  0.94052000  0.27698783  0.08555047  1.0
  Sb  Sb88  1  0.94052000  0.61032117  0.08555047  1.0
  Sb  Sb89  1  0.94052000  0.94365450  0.08555047  1.0
  Sb  Sb90  1  0.05948000  0.05634550  0.01618236  1.0
  Sb  Sb91  1  0.05948000  0.38967883  0.01618236  1.0
  Sb  Sb92  1  0.05948000  0.72301217  0.01618236  1.0
  Sb  Sb93  1  0.39281333  0.05634550  0.01618236  1.0
  Sb  Sb94  1  0.39281333  0.38967883  0.01618236  1.0
  Sb  Sb95  1  0.39281333  0.72301217  0.01618236  1.0
  Sb  Sb96  1  0.72614667  0.05634550  0.01618236  1.0
  Sb  Sb97  1  0.72614667  0.38967883  0.01618236  1.0
  Sb  Sb98  1  0.72614667  0.72301217  0.01618236  1.0
  Sb  Sb99  1  0.05948000  0.22301217  0.07173792  1.0
  Sb  Sb100  1  0.05948000  0.55634550  0.07173792  1.0
  Sb  Sb101  1  0.05948000  0.88967883  0.07173792  1.0
  Sb  Sb102  1  0.39281333  0.22301217  0.07173792  1.0
  Sb  Sb103  1  0.39281333  0.55634550  0.07173792  1.0
  Sb  Sb104  1  0.39281333  0.88967883  0.07173792  1.0
  Sb  Sb105  1  0.72614667  0.22301217  0.07173792  1.0
  Sb  Sb106  1  0.72614667  0.55634550  0.07173792  1.0
  Sb  Sb107  1  0.72614667  0.88967883  0.07173792  1.0
  Sb  Sb108  1  0.16743133  0.11032117  0.07015803  1.0
  Sb  Sb109  1  0.16743133  0.44365450  0.07015803  1.0
  Sb  Sb110  1  0.16743133  0.77698783  0.07015803  1.0
  Sb  Sb111  1  0.50076467  0.11032117  0.07015803  1.0
  Sb  Sb112  1  0.50076467  0.44365450  0.07015803  1.0
  Sb  Sb113  1  0.50076467  0.77698783  0.07015803  1.0
  Sb  Sb114  1  0.83409800  0.11032117  0.07015803  1.0
  Sb  Sb115  1  0.83409800  0.44365450  0.07015803  1.0
  Sb  Sb116  1  0.83409800  0.77698783  0.07015803  1.0
  Sb  Sb117  1  0.16743133  0.27698783  0.01460247  1.0
  Sb  Sb118  1  0.16743133  0.61032117  0.01460247  1.0
  Sb  Sb119  1  0.16743133  0.94365450  0.01460247  1.0
  Sb  Sb120  1  0.50076467  0.27698783  0.01460247  1.0
  Sb  Sb121  1  0.50076467  0.61032117  0.01460247  1.0
  Sb  Sb122  1  0.50076467  0.94365450  0.01460247  1.0
  Sb  Sb123  1  0.83409800  0.27698783  0.01460247  1.0
  Sb  Sb124  1  0.83409800  0.61032117  0.01460247  1.0
  Sb  Sb125  1  0.83409800  0.94365450  0.01460247  1.0
  Sb  Sb126  1  0.16590200  0.05634550  0.08713036  1.0
  Sb  Sb127  1  0.16590200  0.38967883  0.08713036  1.0
  Sb  Sb128  1  0.16590200  0.72301217  0.08713036  1.0
  Sb  Sb129  1  0.49923533  0.05634550  0.08713036  1.0
  Sb  Sb130  1  0.49923533  0.38967883  0.08713036  1.0
  Sb  Sb131  1  0.49923533  0.72301217  0.08713036  1.0
  Sb  Sb132  1  0.83256867  0.05634550  0.08713036  1.0
  Sb  Sb133  1  0.83256867  0.38967883  0.08713036  1.0
  Sb  Sb134  1  0.83256867  0.72301217  0.08713036  1.0
  Sb  Sb135  1  0.16590200  0.22301217  0.03157481  1.0
  Sb  Sb136  1  0.16590200  0.55634550  0.03157481  1.0
  Sb  Sb137  1  0.16590200  0.88967883  0.03157481  1.0
  Sb  Sb138  1  0.49923533  0.22301217  0.03157481  1.0
  Sb  Sb139  1  0.49923533  0.55634550  0.03157481  1.0
  Sb  Sb140  1  0.49923533  0.88967883  0.03157481  1.0
  Sb  Sb141  1  0.83256867  0.22301217  0.03157481  1.0
  Sb  Sb142  1  0.83256867  0.55634550  0.03157481  1.0
  Sb  Sb143  1  0.83256867  0.88967883  0.03157481  1.0
  Sb  Sb144  1  0.22064233  0.02660550  0.05790014  1.0
  Sb  Sb145  1  0.22064233  0.35993883  0.05790014  1.0
  Sb  Sb146  1  0.22064233  0.69327217  0.05790014  1.0
  Sb  Sb147  1  0.55397567  0.02660550  0.05790014  1.0
  Sb  Sb148  1  0.55397567  0.35993883  0.05790014  1.0
  Sb  Sb149  1  0.55397567  0.69327217  0.05790014  1.0
  Sb  Sb150  1  0.88730900  0.02660550  0.05790014  1.0
  Sb  Sb151  1  0.88730900  0.35993883  0.05790014  1.0
  Sb  Sb152  1  0.88730900  0.69327217  0.05790014  1.0
  Sb  Sb153  1  0.22064233  0.19327217  0.00234458  1.0
  Sb  Sb154  1  0.22064233  0.52660550  0.00234458  1.0
  Sb  Sb155  1  0.22064233  0.85993883  0.00234458  1.0
  Sb  Sb156  1  0.55397567  0.19327217  0.00234458  1.0
  Sb  Sb157  1  0.55397567  0.52660550  0.00234458  1.0
  Sb  Sb158  1  0.55397567  0.85993883  0.00234458  1.0
  Sb  Sb159  1  0.88730900  0.19327217  0.00234458  1.0
  Sb  Sb160  1  0.88730900  0.52660550  0.00234458  1.0
  Sb  Sb161  1  0.88730900  0.85993883  0.00234458  1.0
  Sb  Sb162  1  0.11269100  0.14006117  0.09938825  1.0
  Sb  Sb163  1  0.11269100  0.47339450  0.09938825  1.0
  Sb  Sb164  1  0.11269100  0.80672783  0.09938825  1.0
  Sb  Sb165  1  0.44602433  0.14006117  0.09938825  1.0
  Sb  Sb166  1  0.44602433  0.47339450  0.09938825  1.0
  Sb  Sb167  1  0.44602433  0.80672783  0.09938825  1.0
  Sb  Sb168  1  0.77935767  0.14006117  0.09938825  1.0
  Sb  Sb169  1  0.77935767  0.47339450  0.09938825  1.0
  Sb  Sb170  1  0.77935767  0.80672783  0.09938825  1.0
  Sb  Sb171  1  0.11269100  0.30672783  0.04383269  1.0
  Sb  Sb172  1  0.11269100  0.64006117  0.04383269  1.0
  Sb  Sb173  1  0.11269100  0.97339450  0.04383269  1.0
  Sb  Sb174  1  0.44602433  0.30672783  0.04383269  1.0
  Sb  Sb175  1  0.44602433  0.64006117  0.04383269  1.0
  Sb  Sb176  1  0.44602433  0.97339450  0.04383269  1.0
  Sb  Sb177  1  0.77935767  0.30672783  0.04383269  1.0
  Sb  Sb178  1  0.77935767  0.64006117  0.04383269  1.0
  Sb  Sb179  1  0.77935767  0.97339450  0.04383269  1.0
  Sb  Sb180  1  0.22064233  0.14006117  0.06024469  1.0
  Sb  Sb181  1  0.22064233  0.47339450  0.06024469  1.0
  Sb  Sb182  1  0.22064233  0.80672783  0.06024469  1.0
  Sb  Sb183  1  0.55397567  0.14006117  0.06024469  1.0
  Sb  Sb184  1  0.55397567  0.47339450  0.06024469  1.0
  Sb  Sb185  1  0.55397567  0.80672783  0.06024469  1.0
  Sb  Sb186  1  0.88730900  0.14006117  0.06024469  1.0
  Sb  Sb187  1  0.88730900  0.47339450  0.06024469  1.0
  Sb  Sb188  1  0.88730900  0.80672783  0.06024469  1.0
  Sb  Sb189  1  0.22064233  0.30672783  0.00468914  1.0
  Sb  Sb190  1  0.22064233  0.64006117  0.00468914  1.0
  Sb  Sb191  1  0.22064233  0.97339450  0.00468914  1.0
  Sb  Sb192  1  0.55397567  0.30672783  0.00468914  1.0
  Sb  Sb193  1  0.55397567  0.64006117  0.00468914  1.0
  Sb  Sb194  1  0.55397567  0.97339450  0.00468914  1.0
  Sb  Sb195  1  0.88730900  0.30672783  0.00468914  1.0
  Sb  Sb196  1  0.88730900  0.64006117  0.00468914  1.0
  Sb  Sb197  1  0.88730900  0.97339450  0.00468914  1.0
  Sb  Sb198  1  0.11269100  0.02660550  0.09704369  1.0
  Sb  Sb199  1  0.11269100  0.35993883  0.09704369  1.0
  Sb  Sb200  1  0.11269100  0.69327217  0.09704369  1.0
  Sb  Sb201  1  0.44602433  0.02660550  0.09704369  1.0
  Sb  Sb202  1  0.44602433  0.35993883  0.09704369  1.0
  Sb  Sb203  1  0.44602433  0.69327217  0.09704369  1.0
  Sb  Sb204  1  0.77935767  0.02660550  0.09704369  1.0
  Sb  Sb205  1  0.77935767  0.35993883  0.09704369  1.0
  Sb  Sb206  1  0.77935767  0.69327217  0.09704369  1.0
  Sb  Sb207  1  0.11269100  0.19327217  0.04148814  1.0
  Sb  Sb208  1  0.11269100  0.52660550  0.04148814  1.0
  Sb  Sb209  1  0.11269100  0.85993883  0.04148814  1.0
  Sb  Sb210  1  0.44602433  0.19327217  0.04148814  1.0
  Sb  Sb211  1  0.44602433  0.52660550  0.04148814  1.0
  Sb  Sb212  1  0.44602433  0.85993883  0.04148814  1.0
  Sb  Sb213  1  0.77935767  0.19327217  0.04148814  1.0
  Sb  Sb214  1  0.77935767  0.52660550  0.04148814  1.0
  Sb  Sb215  1  0.77935767  0.85993883  0.04148814  1.0
  Sb  Sb216  1  0.05321100  0.13692667  0.02112642  1.0
  Sb  Sb217  1  0.05321100  0.47026000  0.02112642  1.0
  Sb  Sb218  1  0.05321100  0.80359333  0.02112642  1.0
  Sb  Sb219  1  0.38654433  0.13692667  0.02112642  1.0
  Sb  Sb220  1  0.38654433  0.47026000  0.02112642  1.0
  Sb  Sb221  1  0.38654433  0.80359333  0.02112642  1.0
  Sb  Sb222  1  0.71987767  0.13692667  0.02112642  1.0
  Sb  Sb223  1  0.71987767  0.47026000  0.02112642  1.0
  Sb  Sb224  1  0.71987767  0.80359333  0.02112642  1.0
  Sb  Sb225  1  0.05321100  0.30359333  0.07668197  1.0
  Sb  Sb226  1  0.05321100  0.63692667  0.07668197  1.0
  Sb  Sb227  1  0.05321100  0.97026000  0.07668197  1.0
  Sb  Sb228  1  0.38654433  0.30359333  0.07668197  1.0
  Sb  Sb229  1  0.38654433  0.63692667  0.07668197  1.0
  Sb  Sb230  1  0.38654433  0.97026000  0.07668197  1.0
  Sb  Sb231  1  0.71987767  0.30359333  0.07668197  1.0
  Sb  Sb232  1  0.71987767  0.63692667  0.07668197  1.0
  Sb  Sb233  1  0.71987767  0.97026000  0.07668197  1.0
  Sb  Sb234  1  0.28012233  0.02974000  0.02505086  1.0
  Sb  Sb235  1  0.28012233  0.36307333  0.02505086  1.0
  Sb  Sb236  1  0.28012233  0.69640667  0.02505086  1.0
  Sb  Sb237  1  0.61345567  0.02974000  0.02505086  1.0
  Sb  Sb238  1  0.61345567  0.36307333  0.02505086  1.0
  Sb  Sb239  1  0.61345567  0.69640667  0.02505086  1.0
  Sb  Sb240  1  0.94678900  0.02974000  0.02505086  1.0
  Sb  Sb241  1  0.94678900  0.36307333  0.02505086  1.0
  Sb  Sb242  1  0.94678900  0.69640667  0.02505086  1.0
  Sb  Sb243  1  0.28012233  0.19640667  0.08060642  1.0
  Sb  Sb244  1  0.28012233  0.52974000  0.08060642  1.0
  Sb  Sb245  1  0.28012233  0.86307333  0.08060642  1.0
  Sb  Sb246  1  0.61345567  0.19640667  0.08060642  1.0
  Sb  Sb247  1  0.61345567  0.52974000  0.08060642  1.0
  Sb  Sb248  1  0.61345567  0.86307333  0.08060642  1.0
  Sb  Sb249  1  0.94678900  0.19640667  0.08060642  1.0
  Sb  Sb250  1  0.94678900  0.52974000  0.08060642  1.0
  Sb  Sb251  1  0.94678900  0.86307333  0.08060642  1.0
  Sb  Sb252  1  0.28012233  0.08371567  0.07902653  1.0
  Sb  Sb253  1  0.28012233  0.41704900  0.07902653  1.0
  Sb  Sb254  1  0.28012233  0.75038233  0.07902653  1.0
  Sb  Sb255  1  0.61345567  0.08371567  0.07902653  1.0
  Sb  Sb256  1  0.61345567  0.41704900  0.07902653  1.0
  Sb  Sb257  1  0.61345567  0.75038233  0.07902653  1.0
  Sb  Sb258  1  0.94678900  0.08371567  0.07902653  1.0
  Sb  Sb259  1  0.94678900  0.41704900  0.07902653  1.0
  Sb  Sb260  1  0.94678900  0.75038233  0.07902653  1.0
  Sb  Sb261  1  0.28012233  0.25038233  0.02347097  1.0
  Sb  Sb262  1  0.28012233  0.58371567  0.02347097  1.0
  Sb  Sb263  1  0.28012233  0.91704900  0.02347097  1.0
  Sb  Sb264  1  0.61345567  0.25038233  0.02347097  1.0
  Sb  Sb265  1  0.61345567  0.58371567  0.02347097  1.0
  Sb  Sb266  1  0.61345567  0.91704900  0.02347097  1.0
  Sb  Sb267  1  0.94678900  0.25038233  0.02347097  1.0
  Sb  Sb268  1  0.94678900  0.58371567  0.02347097  1.0
  Sb  Sb269  1  0.94678900  0.91704900  0.02347097  1.0
  Sb  Sb270  1  0.05321100  0.08295100  0.07826186  1.0
  Sb  Sb271  1  0.05321100  0.41628433  0.07826186  1.0
  Sb  Sb272  1  0.05321100  0.74961767  0.07826186  1.0
  Sb  Sb273  1  0.38654433  0.08295100  0.07826186  1.0
  Sb  Sb274  1  0.38654433  0.41628433  0.07826186  1.0
  Sb  Sb275  1  0.38654433  0.74961767  0.07826186  1.0
  Sb  Sb276  1  0.71987767  0.08295100  0.07826186  1.0
  Sb  Sb277  1  0.71987767  0.41628433  0.07826186  1.0
  Sb  Sb278  1  0.71987767  0.74961767  0.07826186  1.0
  Sb  Sb279  1  0.05321100  0.24961767  0.02270631  1.0
  Sb  Sb280  1  0.05321100  0.58295100  0.02270631  1.0
  Sb  Sb281  1  0.05321100  0.91628433  0.02270631  1.0
  Sb  Sb282  1  0.38654433  0.24961767  0.02270631  1.0
  Sb  Sb283  1  0.38654433  0.58295100  0.02270631  1.0
  Sb  Sb284  1  0.38654433  0.91628433  0.02270631  1.0
  Sb  Sb285  1  0.71987767  0.24961767  0.02270631  1.0
  Sb  Sb286  1  0.71987767  0.58295100  0.02270631  1.0
  Sb  Sb287  1  0.71987767  0.91628433  0.02270631  1.0
  Ni  Ni288  1  0.00000000  0.08333333  0.13419975  1.0
  Ni  Ni289  1  0.00000000  0.41666667  0.13419975  1.0
  Ni  Ni290  1  0.00000000  0.75000000  0.13419975  1.0
  Ni  Ni291  1  0.33333333  0.08333333  0.13419975  1.0
  Ni  Ni292  1  0.33333333  0.41666667  0.13419975  1.0
  Ni  Ni293  1  0.33333333  0.75000000  0.13419975  1.0
  Ni  Ni294  1  0.66666667  0.08333333  0.13419975  1.0
  Ni  Ni295  1  0.66666667  0.41666667  0.13419975  1.0
  Ni  Ni296  1  0.66666667  0.75000000  0.13419975  1.0
  Ni  Ni297  1  0.00000000  0.25000000  0.18975531  1.0
  Ni  Ni298  1  0.00000000  0.58333333  0.18975531  1.0
  Ni  Ni299  1  0.00000000  0.91666667  0.18975531  1.0
  Ni  Ni300  1  0.33333333  0.25000000  0.18975531  1.0
  Ni  Ni301  1  0.33333333  0.58333333  0.18975531  1.0
  Ni  Ni302  1  0.33333333  0.91666667  0.18975531  1.0
  Ni  Ni303  1  0.66666667  0.25000000  0.18975531  1.0
  Ni  Ni304  1  0.66666667  0.58333333  0.18975531  1.0
  Ni  Ni305  1  0.66666667  0.91666667  0.18975531  1.0
  Ni  Ni306  1  0.00000000  0.00000000  0.16197753  1.0
  Ni  Ni307  1  0.00000000  0.33333333  0.16197753  1.0
  Ni  Ni308  1  0.00000000  0.66666667  0.16197753  1.0
  Ni  Ni309  1  0.33333333  0.00000000  0.16197753  1.0
  Ni  Ni310  1  0.33333333  0.33333333  0.16197753  1.0
  Ni  Ni311  1  0.33333333  0.66666667  0.16197753  1.0
  Ni  Ni312  1  0.66666667  0.00000000  0.16197753  1.0
  Ni  Ni313  1  0.66666667  0.33333333  0.16197753  1.0
  Ni  Ni314  1  0.66666667  0.66666667  0.16197753  1.0
  Ni  Ni315  1  0.00000000  0.16666667  0.21753308  1.0
  Ni  Ni316  1  0.00000000  0.50000000  0.21753308  1.0
  Ni  Ni317  1  0.00000000  0.83333333  0.21753308  1.0
  Ni  Ni318  1  0.33333333  0.16666667  0.21753308  1.0
  Ni  Ni319  1  0.33333333  0.50000000  0.21753308  1.0
  Ni  Ni320  1  0.33333333  0.83333333  0.21753308  1.0
  Ni  Ni321  1  0.66666667  0.16666667  0.21753308  1.0
  Ni  Ni322  1  0.66666667  0.50000000  0.21753308  1.0
  Ni  Ni323  1  0.66666667  0.83333333  0.21753308  1.0
  Ni  Ni324  1  0.16666667  0.00000000  0.16197753  1.0
  Ni  Ni325  1  0.16666667  0.33333333  0.16197753  1.0
  Ni  Ni326  1  0.16666667  0.66666667  0.16197753  1.0
  Ni  Ni327  1  0.50000000  0.00000000  0.16197753  1.0
  Ni  Ni328  1  0.50000000  0.33333333  0.16197753  1.0
  Ni  Ni329  1  0.50000000  0.66666667  0.16197753  1.0
  Ni  Ni330  1  0.83333333  0.00000000  0.16197753  1.0
  Ni  Ni331  1  0.83333333  0.33333333  0.16197753  1.0
  Ni  Ni332  1  0.83333333  0.66666667  0.16197753  1.0
  Ni  Ni333  1  0.16666667  0.16666667  0.21753308  1.0
  Ni  Ni334  1  0.16666667  0.50000000  0.21753308  1.0
  Ni  Ni335  1  0.16666667  0.83333333  0.21753308  1.0
  Ni  Ni336  1  0.50000000  0.16666667  0.21753308  1.0
  Ni  Ni337  1  0.50000000  0.50000000  0.21753308  1.0
  Ni  Ni338  1  0.50000000  0.83333333  0.21753308  1.0
  Ni  Ni339  1  0.83333333  0.16666667  0.21753308  1.0
  Ni  Ni340  1  0.83333333  0.50000000  0.21753308  1.0
  Ni  Ni341  1  0.83333333  0.83333333  0.21753308  1.0
  Ni  Ni342  1  0.16666667  0.08333333  0.13419975  1.0
  Ni  Ni343  1  0.16666667  0.41666667  0.13419975  1.0
  Ni  Ni344  1  0.16666667  0.75000000  0.13419975  1.0
  Ni  Ni345  1  0.50000000  0.08333333  0.13419975  1.0
  Ni  Ni346  1  0.50000000  0.41666667  0.13419975  1.0
  Ni  Ni347  1  0.50000000  0.75000000  0.13419975  1.0
  Ni  Ni348  1  0.83333333  0.08333333  0.13419975  1.0
  Ni  Ni349  1  0.83333333  0.41666667  0.13419975  1.0
  Ni  Ni350  1  0.83333333  0.75000000  0.13419975  1.0
  Ni  Ni351  1  0.16666667  0.25000000  0.18975531  1.0
  Ni  Ni352  1  0.16666667  0.58333333  0.18975531  1.0
  Ni  Ni353  1  0.16666667  0.91666667  0.18975531  1.0
  Ni  Ni354  1  0.50000000  0.25000000  0.18975531  1.0
  Ni  Ni355  1  0.50000000  0.58333333  0.18975531  1.0
  Ni  Ni356  1  0.50000000  0.91666667  0.18975531  1.0
  Ni  Ni357  1  0.83333333  0.25000000  0.18975531  1.0
  Ni  Ni358  1  0.83333333  0.58333333  0.18975531  1.0
  Ni  Ni359  1  0.83333333  0.91666667  0.18975531  1.0
  Sb  Sb360  1  0.27385333  0.11032117  0.14110603  1.0
  Sb  Sb361  1  0.27385333  0.44365450  0.14110603  1.0
  Sb  Sb362  1  0.27385333  0.77698783  0.14110603  1.0
  Sb  Sb363  1  0.60718667  0.11032117  0.14110603  1.0
  Sb  Sb364  1  0.60718667  0.44365450  0.14110603  1.0
  Sb  Sb365  1  0.60718667  0.77698783  0.14110603  1.0
  Sb  Sb366  1  0.94052000  0.11032117  0.14110603  1.0
  Sb  Sb367  1  0.94052000  0.44365450  0.14110603  1.0
  Sb  Sb368  1  0.94052000  0.77698783  0.14110603  1.0
  Sb  Sb369  1  0.27385333  0.27698783  0.19666158  1.0
  Sb  Sb370  1  0.27385333  0.61032117  0.19666158  1.0
  Sb  Sb371  1  0.27385333  0.94365450  0.19666158  1.0
  Sb  Sb372  1  0.60718667  0.27698783  0.19666158  1.0
  Sb  Sb373  1  0.60718667  0.61032117  0.19666158  1.0
  Sb  Sb374  1  0.60718667  0.94365450  0.19666158  1.0
  Sb  Sb375  1  0.94052000  0.27698783  0.19666158  1.0
  Sb  Sb376  1  0.94052000  0.61032117  0.19666158  1.0
  Sb  Sb377  1  0.94052000  0.94365450  0.19666158  1.0
  Sb  Sb378  1  0.05948000  0.05634550  0.12729347  1.0
  Sb  Sb379  1  0.05948000  0.38967883  0.12729347  1.0
  Sb  Sb380  1  0.05948000  0.72301217  0.12729347  1.0
  Sb  Sb381  1  0.39281333  0.05634550  0.12729347  1.0
  Sb  Sb382  1  0.39281333  0.38967883  0.12729347  1.0
  Sb  Sb383  1  0.39281333  0.72301217  0.12729347  1.0
  Sb  Sb384  1  0.72614667  0.05634550  0.12729347  1.0
  Sb  Sb385  1  0.72614667  0.38967883  0.12729347  1.0
  Sb  Sb386  1  0.72614667  0.72301217  0.12729347  1.0
  Sb  Sb387  1  0.05948000  0.22301217  0.18284903  1.0
  Sb  Sb388  1  0.05948000  0.55634550  0.18284903  1.0
  Sb  Sb389  1  0.05948000  0.88967883  0.18284903  1.0
  Sb  Sb390  1  0.39281333  0.22301217  0.18284903  1.0
  Sb  Sb391  1  0.39281333  0.55634550  0.18284903  1.0
  Sb  Sb392  1  0.39281333  0.88967883  0.18284903  1.0
  Sb  Sb393  1  0.72614667  0.22301217  0.18284903  1.0
  Sb  Sb394  1  0.72614667  0.55634550  0.18284903  1.0
  Sb  Sb395  1  0.72614667  0.88967883  0.18284903  1.0
  Sb  Sb396  1  0.16743133  0.11032117  0.18126914  1.0
  Sb  Sb397  1  0.16743133  0.44365450  0.18126914  1.0
  Sb  Sb398  1  0.16743133  0.77698783  0.18126914  1.0
  Sb  Sb399  1  0.50076467  0.11032117  0.18126914  1.0
  Sb  Sb400  1  0.50076467  0.44365450  0.18126914  1.0
  Sb  Sb401  1  0.50076467  0.77698783  0.18126914  1.0
  Sb  Sb402  1  0.83409800  0.11032117  0.18126914  1.0
  Sb  Sb403  1  0.83409800  0.44365450  0.18126914  1.0
  Sb  Sb404  1  0.83409800  0.77698783  0.18126914  1.0
  Sb  Sb405  1  0.16743133  0.27698783  0.12571358  1.0
  Sb  Sb406  1  0.16743133  0.61032117  0.12571358  1.0
  Sb  Sb407  1  0.16743133  0.94365450  0.12571358  1.0
  Sb  Sb408  1  0.50076467  0.27698783  0.12571358  1.0
  Sb  Sb409  1  0.50076467  0.61032117  0.12571358  1.0
  Sb  Sb410  1  0.50076467  0.94365450  0.12571358  1.0
  Sb  Sb411  1  0.83409800  0.27698783  0.12571358  1.0
  Sb  Sb412  1  0.83409800  0.61032117  0.12571358  1.0
  Sb  Sb413  1  0.83409800  0.94365450  0.12571358  1.0
  Sb  Sb414  1  0.16590200  0.05634550  0.19824147  1.0
  Sb  Sb415  1  0.16590200  0.38967883  0.19824147  1.0
  Sb  Sb416  1  0.16590200  0.72301217  0.19824147  1.0
  Sb  Sb417  1  0.49923533  0.05634550  0.19824147  1.0
  Sb  Sb418  1  0.49923533  0.38967883  0.19824147  1.0
  Sb  Sb419  1  0.49923533  0.72301217  0.19824147  1.0
  Sb  Sb420  1  0.83256867  0.05634550  0.19824147  1.0
  Sb  Sb421  1  0.83256867  0.38967883  0.19824147  1.0
  Sb  Sb422  1  0.83256867  0.72301217  0.19824147  1.0
  Sb  Sb423  1  0.16590200  0.22301217  0.14268592  1.0
  Sb  Sb424  1  0.16590200  0.55634550  0.14268592  1.0
  Sb  Sb425  1  0.16590200  0.88967883  0.14268592  1.0
  Sb  Sb426  1  0.49923533  0.22301217  0.14268592  1.0
  Sb  Sb427  1  0.49923533  0.55634550  0.14268592  1.0
  Sb  Sb428  1  0.49923533  0.88967883  0.14268592  1.0
  Sb  Sb429  1  0.83256867  0.22301217  0.14268592  1.0
  Sb  Sb430  1  0.83256867  0.55634550  0.14268592  1.0
  Sb  Sb431  1  0.83256867  0.88967883  0.14268592  1.0
  Sb  Sb432  1  0.22064233  0.02660550  0.16901125  1.0
  Sb  Sb433  1  0.22064233  0.35993883  0.16901125  1.0
  Sb  Sb434  1  0.22064233  0.69327217  0.16901125  1.0
  Sb  Sb435  1  0.55397567  0.02660550  0.16901125  1.0
  Sb  Sb436  1  0.55397567  0.35993883  0.16901125  1.0
  Sb  Sb437  1  0.55397567  0.69327217  0.16901125  1.0
  Sb  Sb438  1  0.88730900  0.02660550  0.16901125  1.0
  Sb  Sb439  1  0.88730900  0.35993883  0.16901125  1.0
  Sb  Sb440  1  0.88730900  0.69327217  0.16901125  1.0
  Sb  Sb441  1  0.22064233  0.19327217  0.11345569  1.0
  Sb  Sb442  1  0.22064233  0.52660550  0.11345569  1.0
  Sb  Sb443  1  0.22064233  0.85993883  0.11345569  1.0
  Sb  Sb444  1  0.55397567  0.19327217  0.11345569  1.0
  Sb  Sb445  1  0.55397567  0.52660550  0.11345569  1.0
  Sb  Sb446  1  0.55397567  0.85993883  0.11345569  1.0
  Sb  Sb447  1  0.88730900  0.19327217  0.11345569  1.0
  Sb  Sb448  1  0.88730900  0.52660550  0.11345569  1.0
  Sb  Sb449  1  0.88730900  0.85993883  0.11345569  1.0
  Sb  Sb450  1  0.11269100  0.14006117  0.21049936  1.0
  Sb  Sb451  1  0.11269100  0.47339450  0.21049936  1.0
  Sb  Sb452  1  0.11269100  0.80672783  0.21049936  1.0
  Sb  Sb453  1  0.44602433  0.14006117  0.21049936  1.0
  Sb  Sb454  1  0.44602433  0.47339450  0.21049936  1.0
  Sb  Sb455  1  0.44602433  0.80672783  0.21049936  1.0
  Sb  Sb456  1  0.77935767  0.14006117  0.21049936  1.0
  Sb  Sb457  1  0.77935767  0.47339450  0.21049936  1.0
  Sb  Sb458  1  0.77935767  0.80672783  0.21049936  1.0
  Sb  Sb459  1  0.11269100  0.30672783  0.15494381  1.0
  Sb  Sb460  1  0.11269100  0.64006117  0.15494381  1.0
  Sb  Sb461  1  0.11269100  0.97339450  0.15494381  1.0
  Sb  Sb462  1  0.44602433  0.30672783  0.15494381  1.0
  Sb  Sb463  1  0.44602433  0.64006117  0.15494381  1.0
  Sb  Sb464  1  0.44602433  0.97339450  0.15494381  1.0
  Sb  Sb465  1  0.77935767  0.30672783  0.15494381  1.0
  Sb  Sb466  1  0.77935767  0.64006117  0.15494381  1.0
  Sb  Sb467  1  0.77935767  0.97339450  0.15494381  1.0
  Sb  Sb468  1  0.22064233  0.14006117  0.17135581  1.0
  Sb  Sb469  1  0.22064233  0.47339450  0.17135581  1.0
  Sb  Sb470  1  0.22064233  0.80672783  0.17135581  1.0
  Sb  Sb471  1  0.55397567  0.14006117  0.17135581  1.0
  Sb  Sb472  1  0.55397567  0.47339450  0.17135581  1.0
  Sb  Sb473  1  0.55397567  0.80672783  0.17135581  1.0
  Sb  Sb474  1  0.88730900  0.14006117  0.17135581  1.0
  Sb  Sb475  1  0.88730900  0.47339450  0.17135581  1.0
  Sb  Sb476  1  0.88730900  0.80672783  0.17135581  1.0
  Sb  Sb477  1  0.22064233  0.30672783  0.11580025  1.0
  Sb  Sb478  1  0.22064233  0.64006117  0.11580025  1.0
  Sb  Sb479  1  0.22064233  0.97339450  0.11580025  1.0
  Sb  Sb480  1  0.55397567  0.30672783  0.11580025  1.0
  Sb  Sb481  1  0.55397567  0.64006117  0.11580025  1.0
  Sb  Sb482  1  0.55397567  0.97339450  0.11580025  1.0
  Sb  Sb483  1  0.88730900  0.30672783  0.11580025  1.0
  Sb  Sb484  1  0.88730900  0.64006117  0.11580025  1.0
  Sb  Sb485  1  0.88730900  0.97339450  0.11580025  1.0
  Sb  Sb486  1  0.11269100  0.02660550  0.20815481  1.0
  Sb  Sb487  1  0.11269100  0.35993883  0.20815481  1.0
  Sb  Sb488  1  0.11269100  0.69327217  0.20815481  1.0
  Sb  Sb489  1  0.44602433  0.02660550  0.20815481  1.0
  Sb  Sb490  1  0.44602433  0.35993883  0.20815481  1.0
  Sb  Sb491  1  0.44602433  0.69327217  0.20815481  1.0
  Sb  Sb492  1  0.77935767  0.02660550  0.20815481  1.0
  Sb  Sb493  1  0.77935767  0.35993883  0.20815481  1.0
  Sb  Sb494  1  0.77935767  0.69327217  0.20815481  1.0
  Sb  Sb495  1  0.11269100  0.19327217  0.15259925  1.0
  Sb  Sb496  1  0.11269100  0.52660550  0.15259925  1.0
  Sb  Sb497  1  0.11269100  0.85993883  0.15259925  1.0
  Sb  Sb498  1  0.44602433  0.19327217  0.15259925  1.0
  Sb  Sb499  1  0.44602433  0.52660550  0.15259925  1.0
  Sb  Sb500  1  0.44602433  0.85993883  0.15259925  1.0
  Sb  Sb501  1  0.77935767  0.19327217  0.15259925  1.0
  Sb  Sb502  1  0.77935767  0.52660550  0.15259925  1.0
  Sb  Sb503  1  0.77935767  0.85993883  0.15259925  1.0
  Sb  Sb504  1  0.05321100  0.13692667  0.13223753  1.0
  Sb  Sb505  1  0.05321100  0.47026000  0.13223753  1.0
  Sb  Sb506  1  0.05321100  0.80359333  0.13223753  1.0
  Sb  Sb507  1  0.38654433  0.13692667  0.13223753  1.0
  Sb  Sb508  1  0.38654433  0.47026000  0.13223753  1.0
  Sb  Sb509  1  0.38654433  0.80359333  0.13223753  1.0
  Sb  Sb510  1  0.71987767  0.13692667  0.13223753  1.0
  Sb  Sb511  1  0.71987767  0.47026000  0.13223753  1.0
  Sb  Sb512  1  0.71987767  0.80359333  0.13223753  1.0
  Sb  Sb513  1  0.05321100  0.30359333  0.18779308  1.0
  Sb  Sb514  1  0.05321100  0.63692667  0.18779308  1.0
  Sb  Sb515  1  0.05321100  0.97026000  0.18779308  1.0
  Sb  Sb516  1  0.38654433  0.30359333  0.18779308  1.0
  Sb  Sb517  1  0.38654433  0.63692667  0.18779308  1.0
  Sb  Sb518  1  0.38654433  0.97026000  0.18779308  1.0
  Sb  Sb519  1  0.71987767  0.30359333  0.18779308  1.0
  Sb  Sb520  1  0.71987767  0.63692667  0.18779308  1.0
  Sb  Sb521  1  0.71987767  0.97026000  0.18779308  1.0
  Sb  Sb522  1  0.28012233  0.02974000  0.13616197  1.0
  Sb  Sb523  1  0.28012233  0.36307333  0.13616197  1.0
  Sb  Sb524  1  0.28012233  0.69640667  0.13616197  1.0
  Sb  Sb525  1  0.61345567  0.02974000  0.13616197  1.0
  Sb  Sb526  1  0.61345567  0.36307333  0.13616197  1.0
  Sb  Sb527  1  0.61345567  0.69640667  0.13616197  1.0
  Sb  Sb528  1  0.94678900  0.02974000  0.13616197  1.0
  Sb  Sb529  1  0.94678900  0.36307333  0.13616197  1.0
  Sb  Sb530  1  0.94678900  0.69640667  0.13616197  1.0
  Sb  Sb531  1  0.28012233  0.19640667  0.19171753  1.0
  Sb  Sb532  1  0.28012233  0.52974000  0.19171753  1.0
  Sb  Sb533  1  0.28012233  0.86307333  0.19171753  1.0
  Sb  Sb534  1  0.61345567  0.19640667  0.19171753  1.0
  Sb  Sb535  1  0.61345567  0.52974000  0.19171753  1.0
  Sb  Sb536  1  0.61345567  0.86307333  0.19171753  1.0
  Sb  Sb537  1  0.94678900  0.19640667  0.19171753  1.0
  Sb  Sb538  1  0.94678900  0.52974000  0.19171753  1.0
  Sb  Sb539  1  0.94678900  0.86307333  0.19171753  1.0
  Sb  Sb540  1  0.28012233  0.08371567  0.19013764  1.0
  Sb  Sb541  1  0.28012233  0.41704900  0.19013764  1.0
  Sb  Sb542  1  0.28012233  0.75038233  0.19013764  1.0
  Sb  Sb543  1  0.61345567  0.08371567  0.19013764  1.0
  Sb  Sb544  1  0.61345567  0.41704900  0.19013764  1.0
  Sb  Sb545  1  0.61345567  0.75038233  0.19013764  1.0
  Sb  Sb546  1  0.94678900  0.08371567  0.19013764  1.0
  Sb  Sb547  1  0.94678900  0.41704900  0.19013764  1.0
  Sb  Sb548  1  0.94678900  0.75038233  0.19013764  1.0
  Sb  Sb549  1  0.28012233  0.25038233  0.13458208  1.0
  Sb  Sb550  1  0.28012233  0.58371567  0.13458208  1.0
  Sb  Sb551  1  0.28012233  0.91704900  0.13458208  1.0
  Sb  Sb552  1  0.61345567  0.25038233  0.13458208  1.0
  Sb  Sb553  1  0.61345567  0.58371567  0.13458208  1.0
  Sb  Sb554  1  0.61345567  0.91704900  0.13458208  1.0
  Sb  Sb555  1  0.94678900  0.25038233  0.13458208  1.0
  Sb  Sb556  1  0.94678900  0.58371567  0.13458208  1.0
  Sb  Sb557  1  0.94678900  0.91704900  0.13458208  1.0
  Sb  Sb558  1  0.05321100  0.08295100  0.18937297  1.0
  Sb  Sb559  1  0.05321100  0.41628433  0.18937297  1.0
  Sb  Sb560  1  0.05321100  0.74961767  0.18937297  1.0
  Sb  Sb561  1  0.38654433  0.08295100  0.18937297  1.0
  Sb  Sb562  1  0.38654433  0.41628433  0.18937297  1.0
  Sb  Sb563  1  0.38654433  0.74961767  0.18937297  1.0
  Sb  Sb564  1  0.71987767  0.08295100  0.18937297  1.0
  Sb  Sb565  1  0.71987767  0.41628433  0.18937297  1.0
  Sb  Sb566  1  0.71987767  0.74961767  0.18937297  1.0
  Sb  Sb567  1  0.05321100  0.24961767  0.13381742  1.0
  Sb  Sb568  1  0.05321100  0.58295100  0.13381742  1.0
  Sb  Sb569  1  0.05321100  0.91628433  0.13381742  1.0
  Sb  Sb570  1  0.38654433  0.24961767  0.13381742  1.0
  Sb  Sb571  1  0.38654433  0.58295100  0.13381742  1.0
  Sb  Sb572  1  0.38654433  0.91628433  0.13381742  1.0
  Sb  Sb573  1  0.71987767  0.24961767  0.13381742  1.0
  Sb  Sb574  1  0.71987767  0.58295100  0.13381742  1.0
  Sb  Sb575  1  0.71987767  0.91628433  0.13381742  1.0
  Ni  Ni576  1  0.00000000  0.08333333  0.24531086  1.0
  Ni  Ni577  1  0.00000000  0.41666667  0.24531086  1.0
  Ni  Ni578  1  0.00000000  0.75000000  0.24531086  1.0
  Ni  Ni579  1  0.33333333  0.08333333  0.24531086  1.0
  Ni  Ni580  1  0.33333333  0.41666667  0.24531086  1.0
  Ni  Ni581  1  0.33333333  0.75000000  0.24531086  1.0
  Ni  Ni582  1  0.66666667  0.08333333  0.24531086  1.0
  Ni  Ni583  1  0.66666667  0.41666667  0.24531086  1.0
  Ni  Ni584  1  0.66666667  0.75000000  0.24531086  1.0
  Ni  Ni585  1  0.00000000  0.25000000  0.30086642  1.0
  Ni  Ni586  1  0.00000000  0.58333333  0.30086642  1.0
  Ni  Ni587  1  0.00000000  0.91666667  0.30086642  1.0
  Ni  Ni588  1  0.33333333  0.25000000  0.30086642  1.0
  Ni  Ni589  1  0.33333333  0.58333333  0.30086642  1.0
  Ni  Ni590  1  0.33333333  0.91666667  0.30086642  1.0
  Ni  Ni591  1  0.66666667  0.25000000  0.30086642  1.0
  Ni  Ni592  1  0.66666667  0.58333333  0.30086642  1.0
  Ni  Ni593  1  0.66666667  0.91666667  0.30086642  1.0
  Ni  Ni594  1  0.00000000  0.00000000  0.27308864  1.0
  Ni  Ni595  1  0.00000000  0.33333333  0.27308864  1.0
  Ni  Ni596  1  0.00000000  0.66666667  0.27308864  1.0
  Ni  Ni597  1  0.33333333  0.00000000  0.27308864  1.0
  Ni  Ni598  1  0.33333333  0.33333333  0.27308864  1.0
  Ni  Ni599  1  0.33333333  0.66666667  0.27308864  1.0
  Ni  Ni600  1  0.66666667  0.00000000  0.27308864  1.0
  Ni  Ni601  1  0.66666667  0.33333333  0.27308864  1.0
  Ni  Ni602  1  0.66666667  0.66666667  0.27308864  1.0
  Ni  Ni603  1  0.00000000  0.16666667  0.32864419  1.0
  Ni  Ni604  1  0.00000000  0.50000000  0.32864419  1.0
  Ni  Ni605  1  0.00000000  0.83333333  0.32864419  1.0
  Ni  Ni606  1  0.33333333  0.16666667  0.32864419  1.0
  Ni  Ni607  1  0.33333333  0.50000000  0.32864419  1.0
  Ni  Ni608  1  0.33333333  0.83333333  0.32864419  1.0
  Ni  Ni609  1  0.66666667  0.16666667  0.32864419  1.0
  Ni  Ni610  1  0.66666667  0.50000000  0.32864419  1.0
  Ni  Ni611  1  0.66666667  0.83333333  0.32864419  1.0
  Ni  Ni612  1  0.16666667  0.00000000  0.27308864  1.0
  Ni  Ni613  1  0.16666667  0.33333333  0.27308864  1.0
  Ni  Ni614  1  0.16666667  0.66666667  0.27308864  1.0
  Ni  Ni615  1  0.50000000  0.00000000  0.27308864  1.0
  Ni  Ni616  1  0.50000000  0.33333333  0.27308864  1.0
  Ni  Ni617  1  0.50000000  0.66666667  0.27308864  1.0
  Ni  Ni618  1  0.83333333  0.00000000  0.27308864  1.0
  Ni  Ni619  1  0.83333333  0.33333333  0.27308864  1.0
  Ni  Ni620  1  0.83333333  0.66666667  0.27308864  1.0
  Ni  Ni621  1  0.16666667  0.16666667  0.32864419  1.0
  Ni  Ni622  1  0.16666667  0.50000000  0.32864419  1.0
  Ni  Ni623  1  0.16666667  0.83333333  0.32864419  1.0
  Ni  Ni624  1  0.50000000  0.16666667  0.32864419  1.0
  Ni  Ni625  1  0.50000000  0.50000000  0.32864419  1.0
  Ni  Ni626  1  0.50000000  0.83333333  0.32864419  1.0
  Ni  Ni627  1  0.83333333  0.16666667  0.32864419  1.0
  Ni  Ni628  1  0.83333333  0.50000000  0.32864419  1.0
  Ni  Ni629  1  0.83333333  0.83333333  0.32864419  1.0
  Ni  Ni630  1  0.16666667  0.08333333  0.24531086  1.0
  Ni  Ni631  1  0.16666667  0.41666667  0.24531086  1.0
  Ni  Ni632  1  0.16666667  0.75000000  0.24531086  1.0
  Ni  Ni633  1  0.50000000  0.08333333  0.24531086  1.0
  Ni  Ni634  1  0.50000000  0.41666667  0.24531086  1.0
  Ni  Ni635  1  0.50000000  0.75000000  0.24531086  1.0
  Ni  Ni636  1  0.83333333  0.08333333  0.24531086  1.0
  Ni  Ni637  1  0.83333333  0.41666667  0.24531086  1.0
  Ni  Ni638  1  0.83333333  0.75000000  0.24531086  1.0
  Ni  Ni639  1  0.16666667  0.25000000  0.30086642  1.0
  Ni  Ni640  1  0.16666667  0.58333333  0.30086642  1.0
  Ni  Ni641  1  0.16666667  0.91666667  0.30086642  1.0
  Ni  Ni642  1  0.50000000  0.25000000  0.30086642  1.0
  Ni  Ni643  1  0.50000000  0.58333333  0.30086642  1.0
  Ni  Ni644  1  0.50000000  0.91666667  0.30086642  1.0
  Ni  Ni645  1  0.83333333  0.25000000  0.30086642  1.0
  Ni  Ni646  1  0.83333333  0.58333333  0.30086642  1.0
  Ni  Ni647  1  0.83333333  0.91666667  0.30086642  1.0
  Sb  Sb648  1  0.27385333  0.11032117  0.25221714  1.0
  Sb  Sb649  1  0.27385333  0.44365450  0.25221714  1.0
  Sb  Sb650  1  0.27385333  0.77698783  0.25221714  1.0
  Sb  Sb651  1  0.60718667  0.11032117  0.25221714  1.0
  Sb  Sb652  1  0.60718667  0.44365450  0.25221714  1.0
  Sb  Sb653  1  0.60718667  0.77698783  0.25221714  1.0
  Sb  Sb654  1  0.94052000  0.11032117  0.25221714  1.0
  Sb  Sb655  1  0.94052000  0.44365450  0.25221714  1.0
  Sb  Sb656  1  0.94052000  0.77698783  0.25221714  1.0
  Sb  Sb657  1  0.27385333  0.27698783  0.30777269  1.0
  Sb  Sb658  1  0.27385333  0.61032117  0.30777269  1.0
  Sb  Sb659  1  0.27385333  0.94365450  0.30777269  1.0
  Sb  Sb660  1  0.60718667  0.27698783  0.30777269  1.0
  Sb  Sb661  1  0.60718667  0.61032117  0.30777269  1.0
  Sb  Sb662  1  0.60718667  0.94365450  0.30777269  1.0
  Sb  Sb663  1  0.94052000  0.27698783  0.30777269  1.0
  Sb  Sb664  1  0.94052000  0.61032117  0.30777269  1.0
  Sb  Sb665  1  0.94052000  0.94365450  0.30777269  1.0
  Sb  Sb666  1  0.05948000  0.05634550  0.23840458  1.0
  Sb  Sb667  1  0.05948000  0.38967883  0.23840458  1.0
  Sb  Sb668  1  0.05948000  0.72301217  0.23840458  1.0
  Sb  Sb669  1  0.39281333  0.05634550  0.23840458  1.0
  Sb  Sb670  1  0.39281333  0.38967883  0.23840458  1.0
  Sb  Sb671  1  0.39281333  0.72301217  0.23840458  1.0
  Sb  Sb672  1  0.72614667  0.05634550  0.23840458  1.0
  Sb  Sb673  1  0.72614667  0.38967883  0.23840458  1.0
  Sb  Sb674  1  0.72614667  0.72301217  0.23840458  1.0
  Sb  Sb675  1  0.05948000  0.22301217  0.29396014  1.0
  Sb  Sb676  1  0.05948000  0.55634550  0.29396014  1.0
  Sb  Sb677  1  0.05948000  0.88967883  0.29396014  1.0
  Sb  Sb678  1  0.39281333  0.22301217  0.29396014  1.0
  Sb  Sb679  1  0.39281333  0.55634550  0.29396014  1.0
  Sb  Sb680  1  0.39281333  0.88967883  0.29396014  1.0
  Sb  Sb681  1  0.72614667  0.22301217  0.29396014  1.0
  Sb  Sb682  1  0.72614667  0.55634550  0.29396014  1.0
  Sb  Sb683  1  0.72614667  0.88967883  0.29396014  1.0
  Sb  Sb684  1  0.16743133  0.11032117  0.29238025  1.0
  Sb  Sb685  1  0.16743133  0.44365450  0.29238025  1.0
  Sb  Sb686  1  0.16743133  0.77698783  0.29238025  1.0
  Sb  Sb687  1  0.50076467  0.11032117  0.29238025  1.0
  Sb  Sb688  1  0.50076467  0.44365450  0.29238025  1.0
  Sb  Sb689  1  0.50076467  0.77698783  0.29238025  1.0
  Sb  Sb690  1  0.83409800  0.11032117  0.29238025  1.0
  Sb  Sb691  1  0.83409800  0.44365450  0.29238025  1.0
  Sb  Sb692  1  0.83409800  0.77698783  0.29238025  1.0
  Sb  Sb693  1  0.16743133  0.27698783  0.23682469  1.0
  Sb  Sb694  1  0.16743133  0.61032117  0.23682469  1.0
  Sb  Sb695  1  0.16743133  0.94365450  0.23682469  1.0
  Sb  Sb696  1  0.50076467  0.27698783  0.23682469  1.0
  Sb  Sb697  1  0.50076467  0.61032117  0.23682469  1.0
  Sb  Sb698  1  0.50076467  0.94365450  0.23682469  1.0
  Sb  Sb699  1  0.83409800  0.27698783  0.23682469  1.0
  Sb  Sb700  1  0.83409800  0.61032117  0.23682469  1.0
  Sb  Sb701  1  0.83409800  0.94365450  0.23682469  1.0
  Sb  Sb702  1  0.16590200  0.05634550  0.30935258  1.0
  Sb  Sb703  1  0.16590200  0.38967883  0.30935258  1.0
  Sb  Sb704  1  0.16590200  0.72301217  0.30935258  1.0
  Sb  Sb705  1  0.49923533  0.05634550  0.30935258  1.0
  Sb  Sb706  1  0.49923533  0.38967883  0.30935258  1.0
  Sb  Sb707  1  0.49923533  0.72301217  0.30935258  1.0
  Sb  Sb708  1  0.83256867  0.05634550  0.30935258  1.0
  Sb  Sb709  1  0.83256867  0.38967883  0.30935258  1.0
  Sb  Sb710  1  0.83256867  0.72301217  0.30935258  1.0
  Sb  Sb711  1  0.16590200  0.22301217  0.25379703  1.0
  Sb  Sb712  1  0.16590200  0.55634550  0.25379703  1.0
  Sb  Sb713  1  0.16590200  0.88967883  0.25379703  1.0
  Sb  Sb714  1  0.49923533  0.22301217  0.25379703  1.0
  Sb  Sb715  1  0.49923533  0.55634550  0.25379703  1.0
  Sb  Sb716  1  0.49923533  0.88967883  0.25379703  1.0
  Sb  Sb717  1  0.83256867  0.22301217  0.25379703  1.0
  Sb  Sb718  1  0.83256867  0.55634550  0.25379703  1.0
  Sb  Sb719  1  0.83256867  0.88967883  0.25379703  1.0
  Sb  Sb720  1  0.22064233  0.02660550  0.28012236  1.0
  Sb  Sb721  1  0.22064233  0.35993883  0.28012236  1.0
  Sb  Sb722  1  0.22064233  0.69327217  0.28012236  1.0
  Sb  Sb723  1  0.55397567  0.02660550  0.28012236  1.0
  Sb  Sb724  1  0.55397567  0.35993883  0.28012236  1.0
  Sb  Sb725  1  0.55397567  0.69327217  0.28012236  1.0
  Sb  Sb726  1  0.88730900  0.02660550  0.28012236  1.0
  Sb  Sb727  1  0.88730900  0.35993883  0.28012236  1.0
  Sb  Sb728  1  0.88730900  0.69327217  0.28012236  1.0
  Sb  Sb729  1  0.22064233  0.19327217  0.22456681  1.0
  Sb  Sb730  1  0.22064233  0.52660550  0.22456681  1.0
  Sb  Sb731  1  0.22064233  0.85993883  0.22456681  1.0
  Sb  Sb732  1  0.55397567  0.19327217  0.22456681  1.0
  Sb  Sb733  1  0.55397567  0.52660550  0.22456681  1.0
  Sb  Sb734  1  0.55397567  0.85993883  0.22456681  1.0
  Sb  Sb735  1  0.88730900  0.19327217  0.22456681  1.0
  Sb  Sb736  1  0.88730900  0.52660550  0.22456681  1.0
  Sb  Sb737  1  0.88730900  0.85993883  0.22456681  1.0
  Sb  Sb738  1  0.11269100  0.14006117  0.32161047  1.0
  Sb  Sb739  1  0.11269100  0.47339450  0.32161047  1.0
  Sb  Sb740  1  0.11269100  0.80672783  0.32161047  1.0
  Sb  Sb741  1  0.44602433  0.14006117  0.32161047  1.0
  Sb  Sb742  1  0.44602433  0.47339450  0.32161047  1.0
  Sb  Sb743  1  0.44602433  0.80672783  0.32161047  1.0
  Sb  Sb744  1  0.77935767  0.14006117  0.32161047  1.0
  Sb  Sb745  1  0.77935767  0.47339450  0.32161047  1.0
  Sb  Sb746  1  0.77935767  0.80672783  0.32161047  1.0
  Sb  Sb747  1  0.11269100  0.30672783  0.26605492  1.0
  Sb  Sb748  1  0.11269100  0.64006117  0.26605492  1.0
  Sb  Sb749  1  0.11269100  0.97339450  0.26605492  1.0
  Sb  Sb750  1  0.44602433  0.30672783  0.26605492  1.0
  Sb  Sb751  1  0.44602433  0.64006117  0.26605492  1.0
  Sb  Sb752  1  0.44602433  0.97339450  0.26605492  1.0
  Sb  Sb753  1  0.77935767  0.30672783  0.26605492  1.0
  Sb  Sb754  1  0.77935767  0.64006117  0.26605492  1.0
  Sb  Sb755  1  0.77935767  0.97339450  0.26605492  1.0
  Sb  Sb756  1  0.22064233  0.14006117  0.28246692  1.0
  Sb  Sb757  1  0.22064233  0.47339450  0.28246692  1.0
  Sb  Sb758  1  0.22064233  0.80672783  0.28246692  1.0
  Sb  Sb759  1  0.55397567  0.14006117  0.28246692  1.0
  Sb  Sb760  1  0.55397567  0.47339450  0.28246692  1.0
  Sb  Sb761  1  0.55397567  0.80672783  0.28246692  1.0
  Sb  Sb762  1  0.88730900  0.14006117  0.28246692  1.0
  Sb  Sb763  1  0.88730900  0.47339450  0.28246692  1.0
  Sb  Sb764  1  0.88730900  0.80672783  0.28246692  1.0
  Sb  Sb765  1  0.22064233  0.30672783  0.22691136  1.0
  Sb  Sb766  1  0.22064233  0.64006117  0.22691136  1.0
  Sb  Sb767  1  0.22064233  0.97339450  0.22691136  1.0
  Sb  Sb768  1  0.55397567  0.30672783  0.22691136  1.0
  Sb  Sb769  1  0.55397567  0.64006117  0.22691136  1.0
  Sb  Sb770  1  0.55397567  0.97339450  0.22691136  1.0
  Sb  Sb771  1  0.88730900  0.30672783  0.22691136  1.0
  Sb  Sb772  1  0.88730900  0.64006117  0.22691136  1.0
  Sb  Sb773  1  0.88730900  0.97339450  0.22691136  1.0
  Sb  Sb774  1  0.11269100  0.02660550  0.31926592  1.0
  Sb  Sb775  1  0.11269100  0.35993883  0.31926592  1.0
  Sb  Sb776  1  0.11269100  0.69327217  0.31926592  1.0
  Sb  Sb777  1  0.44602433  0.02660550  0.31926592  1.0
  Sb  Sb778  1  0.44602433  0.35993883  0.31926592  1.0
  Sb  Sb779  1  0.44602433  0.69327217  0.31926592  1.0
  Sb  Sb780  1  0.77935767  0.02660550  0.31926592  1.0
  Sb  Sb781  1  0.77935767  0.35993883  0.31926592  1.0
  Sb  Sb782  1  0.77935767  0.69327217  0.31926592  1.0
  Sb  Sb783  1  0.11269100  0.19327217  0.26371036  1.0
  Sb  Sb784  1  0.11269100  0.52660550  0.26371036  1.0
  Sb  Sb785  1  0.11269100  0.85993883  0.26371036  1.0
  Sb  Sb786  1  0.44602433  0.19327217  0.26371036  1.0
  Sb  Sb787  1  0.44602433  0.52660550  0.26371036  1.0
  Sb  Sb788  1  0.44602433  0.85993883  0.26371036  1.0
  Sb  Sb789  1  0.77935767  0.19327217  0.26371036  1.0
  Sb  Sb790  1  0.77935767  0.52660550  0.26371036  1.0
  Sb  Sb791  1  0.77935767  0.85993883  0.26371036  1.0
  Sb  Sb792  1  0.05321100  0.13692667  0.24334864  1.0
  Sb  Sb793  1  0.05321100  0.47026000  0.24334864  1.0
  Sb  Sb794  1  0.05321100  0.80359333  0.24334864  1.0
  Sb  Sb795  1  0.38654433  0.13692667  0.24334864  1.0
  Sb  Sb796  1  0.38654433  0.47026000  0.24334864  1.0
  Sb  Sb797  1  0.38654433  0.80359333  0.24334864  1.0
  Sb  Sb798  1  0.71987767  0.13692667  0.24334864  1.0
  Sb  Sb799  1  0.71987767  0.47026000  0.24334864  1.0
  Sb  Sb800  1  0.71987767  0.80359333  0.24334864  1.0
  Sb  Sb801  1  0.05321100  0.30359333  0.29890419  1.0
  Sb  Sb802  1  0.05321100  0.63692667  0.29890419  1.0
  Sb  Sb803  1  0.05321100  0.97026000  0.29890419  1.0
  Sb  Sb804  1  0.38654433  0.30359333  0.29890419  1.0
  Sb  Sb805  1  0.38654433  0.63692667  0.29890419  1.0
  Sb  Sb806  1  0.38654433  0.97026000  0.29890419  1.0
  Sb  Sb807  1  0.71987767  0.30359333  0.29890419  1.0
  Sb  Sb808  1  0.71987767  0.63692667  0.29890419  1.0
  Sb  Sb809  1  0.71987767  0.97026000  0.29890419  1.0
  Sb  Sb810  1  0.28012233  0.02974000  0.24727308  1.0
  Sb  Sb811  1  0.28012233  0.36307333  0.24727308  1.0
  Sb  Sb812  1  0.28012233  0.69640667  0.24727308  1.0
  Sb  Sb813  1  0.61345567  0.02974000  0.24727308  1.0
  Sb  Sb814  1  0.61345567  0.36307333  0.24727308  1.0
  Sb  Sb815  1  0.61345567  0.69640667  0.24727308  1.0
  Sb  Sb816  1  0.94678900  0.02974000  0.24727308  1.0
  Sb  Sb817  1  0.94678900  0.36307333  0.24727308  1.0
  Sb  Sb818  1  0.94678900  0.69640667  0.24727308  1.0
  Sb  Sb819  1  0.28012233  0.19640667  0.30282864  1.0
  Sb  Sb820  1  0.28012233  0.52974000  0.30282864  1.0
  Sb  Sb821  1  0.28012233  0.86307333  0.30282864  1.0
  Sb  Sb822  1  0.61345567  0.19640667  0.30282864  1.0
  Sb  Sb823  1  0.61345567  0.52974000  0.30282864  1.0
  Sb  Sb824  1  0.61345567  0.86307333  0.30282864  1.0
  Sb  Sb825  1  0.94678900  0.19640667  0.30282864  1.0
  Sb  Sb826  1  0.94678900  0.52974000  0.30282864  1.0
  Sb  Sb827  1  0.94678900  0.86307333  0.30282864  1.0
  Sb  Sb828  1  0.28012233  0.08371567  0.30124875  1.0
  Sb  Sb829  1  0.28012233  0.41704900  0.30124875  1.0
  Sb  Sb830  1  0.28012233  0.75038233  0.30124875  1.0
  Sb  Sb831  1  0.61345567  0.08371567  0.30124875  1.0
  Sb  Sb832  1  0.61345567  0.41704900  0.30124875  1.0
  Sb  Sb833  1  0.61345567  0.75038233  0.30124875  1.0
  Sb  Sb834  1  0.94678900  0.08371567  0.30124875  1.0
  Sb  Sb835  1  0.94678900  0.41704900  0.30124875  1.0
  Sb  Sb836  1  0.94678900  0.75038233  0.30124875  1.0
  Sb  Sb837  1  0.28012233  0.25038233  0.24569319  1.0
  Sb  Sb838  1  0.28012233  0.58371567  0.24569319  1.0
  Sb  Sb839  1  0.28012233  0.91704900  0.24569319  1.0
  Sb  Sb840  1  0.61345567  0.25038233  0.24569319  1.0
  Sb  Sb841  1  0.61345567  0.58371567  0.24569319  1.0
  Sb  Sb842  1  0.61345567  0.91704900  0.24569319  1.0
  Sb  Sb843  1  0.94678900  0.25038233  0.24569319  1.0
  Sb  Sb844  1  0.94678900  0.58371567  0.24569319  1.0
  Sb  Sb845  1  0.94678900  0.91704900  0.24569319  1.0
  Sb  Sb846  1  0.05321100  0.08295100  0.30048408  1.0
  Sb  Sb847  1  0.05321100  0.41628433  0.30048408  1.0
  Sb  Sb848  1  0.05321100  0.74961767  0.30048408  1.0
  Sb  Sb849  1  0.38654433  0.08295100  0.30048408  1.0
  Sb  Sb850  1  0.38654433  0.41628433  0.30048408  1.0
  Sb  Sb851  1  0.38654433  0.74961767  0.30048408  1.0
  Sb  Sb852  1  0.71987767  0.08295100  0.30048408  1.0
  Sb  Sb853  1  0.71987767  0.41628433  0.30048408  1.0
  Sb  Sb854  1  0.71987767  0.74961767  0.30048408  1.0
  Sb  Sb855  1  0.05321100  0.24961767  0.24492853  1.0
  Sb  Sb856  1  0.05321100  0.58295100  0.24492853  1.0
  Sb  Sb857  1  0.05321100  0.91628433  0.24492853  1.0
  Sb  Sb858  1  0.38654433  0.24961767  0.24492853  1.0
  Sb  Sb859  1  0.38654433  0.58295100  0.24492853  1.0
  Sb  Sb860  1  0.38654433  0.91628433  0.24492853  1.0
  Sb  Sb861  1  0.71987767  0.24961767  0.24492853  1.0
  Sb  Sb862  1  0.71987767  0.58295100  0.24492853  1.0
  Sb  Sb863  1  0.71987767  0.91628433  0.24492853  1.0
  Ni  Ni864  1  0.00000000  0.08333333  0.35642197  1.0
  Ni  Ni865  1  0.00000000  0.41666667  0.35642197  1.0
  Ni  Ni866  1  0.00000000  0.75000000  0.35642197  1.0
  Ni  Ni867  1  0.33333333  0.08333333  0.35642197  1.0
  Ni  Ni868  1  0.33333333  0.41666667  0.35642197  1.0
  Ni  Ni869  1  0.33333333  0.75000000  0.35642197  1.0
  Ni  Ni870  1  0.66666667  0.08333333  0.35642197  1.0
  Ni  Ni871  1  0.66666667  0.41666667  0.35642197  1.0
  Ni  Ni872  1  0.66666667  0.75000000  0.35642197  1.0
  Ni  Ni873  1  0.00000000  0.25000000  0.41197753  1.0
  Ni  Ni874  1  0.00000000  0.58333333  0.41197753  1.0
  Ni  Ni875  1  0.00000000  0.91666667  0.41197753  1.0
  Ni  Ni876  1  0.33333333  0.25000000  0.41197753  1.0
  Ni  Ni877  1  0.33333333  0.58333333  0.41197753  1.0
  Ni  Ni878  1  0.33333333  0.91666667  0.41197753  1.0
  Ni  Ni879  1  0.66666667  0.25000000  0.41197753  1.0
  Ni  Ni880  1  0.66666667  0.58333333  0.41197753  1.0
  Ni  Ni881  1  0.66666667  0.91666667  0.41197753  1.0
  Ni  Ni882  1  0.00000000  0.00000000  0.38419975  1.0
  Ni  Ni883  1  0.00000000  0.33333333  0.38419975  1.0
  Ni  Ni884  1  0.00000000  0.66666667  0.38419975  1.0
  Ni  Ni885  1  0.33333333  0.00000000  0.38419975  1.0
  Ni  Ni886  1  0.33333333  0.33333333  0.38419975  1.0
  Ni  Ni887  1  0.33333333  0.66666667  0.38419975  1.0
  Ni  Ni888  1  0.66666667  0.00000000  0.38419975  1.0
  Ni  Ni889  1  0.66666667  0.33333333  0.38419975  1.0
  Ni  Ni890  1  0.66666667  0.66666667  0.38419975  1.0
  Ni  Ni891  1  0.00000000  0.16666667  0.43975531  1.0
  Ni  Ni892  1  0.00000000  0.50000000  0.43975531  1.0
  Ni  Ni893  1  0.00000000  0.83333333  0.43975531  1.0
  Ni  Ni894  1  0.33333333  0.16666667  0.43975531  1.0
  Ni  Ni895  1  0.33333333  0.50000000  0.43975531  1.0
  Ni  Ni896  1  0.33333333  0.83333333  0.43975531  1.0
  Ni  Ni897  1  0.66666667  0.16666667  0.43975531  1.0
  Ni  Ni898  1  0.66666667  0.50000000  0.43975531  1.0
  Ni  Ni899  1  0.66666667  0.83333333  0.43975531  1.0
  Ni  Ni900  1  0.16666667  0.00000000  0.38419975  1.0
  Ni  Ni901  1  0.16666667  0.33333333  0.38419975  1.0
  Ni  Ni902  1  0.16666667  0.66666667  0.38419975  1.0
  Ni  Ni903  1  0.50000000  0.00000000  0.38419975  1.0
  Ni  Ni904  1  0.50000000  0.33333333  0.38419975  1.0
  Ni  Ni905  1  0.50000000  0.66666667  0.38419975  1.0
  Ni  Ni906  1  0.83333333  0.00000000  0.38419975  1.0
  Ni  Ni907  1  0.83333333  0.33333333  0.38419975  1.0
  Ni  Ni908  1  0.83333333  0.66666667  0.38419975  1.0
  Ni  Ni909  1  0.16666667  0.16666667  0.43975531  1.0
  Ni  Ni910  1  0.16666667  0.50000000  0.43975531  1.0
  Ni  Ni911  1  0.16666667  0.83333333  0.43975531  1.0
  Ni  Ni912  1  0.50000000  0.16666667  0.43975531  1.0
  Ni  Ni913  1  0.50000000  0.50000000  0.43975531  1.0
  Ni  Ni914  1  0.50000000  0.83333333  0.43975531  1.0
  Ni  Ni915  1  0.83333333  0.16666667  0.43975531  1.0
  Ni  Ni916  1  0.83333333  0.50000000  0.43975531  1.0
  Ni  Ni917  1  0.83333333  0.83333333  0.43975531  1.0
  Ni  Ni918  1  0.16666667  0.08333333  0.35642197  1.0
  Ni  Ni919  1  0.16666667  0.41666667  0.35642197  1.0
  Ni  Ni920  1  0.16666667  0.75000000  0.35642197  1.0
  Ni  Ni921  1  0.50000000  0.08333333  0.35642197  1.0
  Ni  Ni922  1  0.50000000  0.41666667  0.35642197  1.0
  Ni  Ni923  1  0.50000000  0.75000000  0.35642197  1.0
  Ni  Ni924  1  0.83333333  0.08333333  0.35642197  1.0
  Ni  Ni925  1  0.83333333  0.41666667  0.35642197  1.0
  Ni  Ni926  1  0.83333333  0.75000000  0.35642197  1.0
  Ni  Ni927  1  0.16666667  0.25000000  0.41197753  1.0
  Ni  Ni928  1  0.16666667  0.58333333  0.41197753  1.0
  Ni  Ni929  1  0.16666667  0.91666667  0.41197753  1.0
  Ni  Ni930  1  0.50000000  0.25000000  0.41197753  1.0
  Ni  Ni931  1  0.50000000  0.58333333  0.41197753  1.0
  Ni  Ni932  1  0.50000000  0.91666667  0.41197753  1.0
  Ni  Ni933  1  0.83333333  0.25000000  0.41197753  1.0
  Ni  Ni934  1  0.83333333  0.58333333  0.41197753  1.0
  Ni  Ni935  1  0.83333333  0.91666667  0.41197753  1.0
  Sb  Sb936  1  0.27385333  0.11032117  0.36332825  1.0
  Sb  Sb937  1  0.27385333  0.44365450  0.36332825  1.0
  Sb  Sb938  1  0.27385333  0.77698783  0.36332825  1.0
  Sb  Sb939  1  0.60718667  0.11032117  0.36332825  1.0
  Sb  Sb940  1  0.60718667  0.44365450  0.36332825  1.0
  Sb  Sb941  1  0.60718667  0.77698783  0.36332825  1.0
  Sb  Sb942  1  0.94052000  0.11032117  0.36332825  1.0
  Sb  Sb943  1  0.94052000  0.44365450  0.36332825  1.0
  Sb  Sb944  1  0.94052000  0.77698783  0.36332825  1.0
  Sb  Sb945  1  0.27385333  0.27698783  0.41888381  1.0
  Sb  Sb946  1  0.27385333  0.61032117  0.41888381  1.0
  Sb  Sb947  1  0.27385333  0.94365450  0.41888381  1.0
  Sb  Sb948  1  0.60718667  0.27698783  0.41888381  1.0
  Sb  Sb949  1  0.60718667  0.61032117  0.41888381  1.0
  Sb  Sb950  1  0.60718667  0.94365450  0.41888381  1.0
  Sb  Sb951  1  0.94052000  0.27698783  0.41888381  1.0
  Sb  Sb952  1  0.94052000  0.61032117  0.41888381  1.0
  Sb  Sb953  1  0.94052000  0.94365450  0.41888381  1.0
  Sb  Sb954  1  0.05948000  0.05634550  0.34951569  1.0
  Sb  Sb955  1  0.05948000  0.38967883  0.34951569  1.0
  Sb  Sb956  1  0.05948000  0.72301217  0.34951569  1.0
  Sb  Sb957  1  0.39281333  0.05634550  0.34951569  1.0
  Sb  Sb958  1  0.39281333  0.38967883  0.34951569  1.0
  Sb  Sb959  1  0.39281333  0.72301217  0.34951569  1.0
  Sb  Sb960  1  0.72614667  0.05634550  0.34951569  1.0
  Sb  Sb961  1  0.72614667  0.38967883  0.34951569  1.0
  Sb  Sb962  1  0.72614667  0.72301217  0.34951569  1.0
  Sb  Sb963  1  0.05948000  0.22301217  0.40507125  1.0
  Sb  Sb964  1  0.05948000  0.55634550  0.40507125  1.0
  Sb  Sb965  1  0.05948000  0.88967883  0.40507125  1.0
  Sb  Sb966  1  0.39281333  0.22301217  0.40507125  1.0
  Sb  Sb967  1  0.39281333  0.55634550  0.40507125  1.0
  Sb  Sb968  1  0.39281333  0.88967883  0.40507125  1.0
  Sb  Sb969  1  0.72614667  0.22301217  0.40507125  1.0
  Sb  Sb970  1  0.72614667  0.55634550  0.40507125  1.0
  Sb  Sb971  1  0.72614667  0.88967883  0.40507125  1.0
  Sb  Sb972  1  0.16743133  0.11032117  0.40349136  1.0
  Sb  Sb973  1  0.16743133  0.44365450  0.40349136  1.0
  Sb  Sb974  1  0.16743133  0.77698783  0.40349136  1.0
  Sb  Sb975  1  0.50076467  0.11032117  0.40349136  1.0
  Sb  Sb976  1  0.50076467  0.44365450  0.40349136  1.0
  Sb  Sb977  1  0.50076467  0.77698783  0.40349136  1.0
  Sb  Sb978  1  0.83409800  0.11032117  0.40349136  1.0
  Sb  Sb979  1  0.83409800  0.44365450  0.40349136  1.0
  Sb  Sb980  1  0.83409800  0.77698783  0.40349136  1.0
  Sb  Sb981  1  0.16743133  0.27698783  0.34793581  1.0
  Sb  Sb982  1  0.16743133  0.61032117  0.34793581  1.0
  Sb  Sb983  1  0.16743133  0.94365450  0.34793581  1.0
  Sb  Sb984  1  0.50076467  0.27698783  0.34793581  1.0
  Sb  Sb985  1  0.50076467  0.61032117  0.34793581  1.0
  Sb  Sb986  1  0.50076467  0.94365450  0.34793581  1.0
  Sb  Sb987  1  0.83409800  0.27698783  0.34793581  1.0
  Sb  Sb988  1  0.83409800  0.61032117  0.34793581  1.0
  Sb  Sb989  1  0.83409800  0.94365450  0.34793581  1.0
  Sb  Sb990  1  0.16590200  0.05634550  0.42046369  1.0
  Sb  Sb991  1  0.16590200  0.38967883  0.42046369  1.0
  Sb  Sb992  1  0.16590200  0.72301217  0.42046369  1.0
  Sb  Sb993  1  0.49923533  0.05634550  0.42046369  1.0
  Sb  Sb994  1  0.49923533  0.38967883  0.42046369  1.0
  Sb  Sb995  1  0.49923533  0.72301217  0.42046369  1.0
  Sb  Sb996  1  0.83256867  0.05634550  0.42046369  1.0
  Sb  Sb997  1  0.83256867  0.38967883  0.42046369  1.0
  Sb  Sb998  1  0.83256867  0.72301217  0.42046369  1.0
  Sb  Sb999  1  0.16590200  0.22301217  0.36490814  1.0
  Sb  Sb1000  1  0.16590200  0.55634550  0.36490814  1.0
  Sb  Sb1001  1  0.16590200  0.88967883  0.36490814  1.0
  Sb  Sb1002  1  0.49923533  0.22301217  0.36490814  1.0
  Sb  Sb1003  1  0.49923533  0.55634550  0.36490814  1.0
  Sb  Sb1004  1  0.49923533  0.88967883  0.36490814  1.0
  Sb  Sb1005  1  0.83256867  0.22301217  0.36490814  1.0
  Sb  Sb1006  1  0.83256867  0.55634550  0.36490814  1.0
  Sb  Sb1007  1  0.83256867  0.88967883  0.36490814  1.0
  Sb  Sb1008  1  0.22064233  0.02660550  0.39123347  1.0
  Sb  Sb1009  1  0.22064233  0.35993883  0.39123347  1.0
  Sb  Sb1010  1  0.22064233  0.69327217  0.39123347  1.0
  Sb  Sb1011  1  0.55397567  0.02660550  0.39123347  1.0
  Sb  Sb1012  1  0.55397567  0.35993883  0.39123347  1.0
  Sb  Sb1013  1  0.55397567  0.69327217  0.39123347  1.0
  Sb  Sb1014  1  0.88730900  0.02660550  0.39123347  1.0
  Sb  Sb1015  1  0.88730900  0.35993883  0.39123347  1.0
  Sb  Sb1016  1  0.88730900  0.69327217  0.39123347  1.0
  Sb  Sb1017  1  0.22064233  0.19327217  0.33567792  1.0
  Sb  Sb1018  1  0.22064233  0.52660550  0.33567792  1.0
  Sb  Sb1019  1  0.22064233  0.85993883  0.33567792  1.0
  Sb  Sb1020  1  0.55397567  0.19327217  0.33567792  1.0
  Sb  Sb1021  1  0.55397567  0.52660550  0.33567792  1.0
  Sb  Sb1022  1  0.55397567  0.85993883  0.33567792  1.0
  Sb  Sb1023  1  0.88730900  0.19327217  0.33567792  1.0
  Sb  Sb1024  1  0.88730900  0.52660550  0.33567792  1.0
  Sb  Sb1025  1  0.88730900  0.85993883  0.33567792  1.0
  Sb  Sb1026  1  0.11269100  0.14006117  0.43272158  1.0
  Sb  Sb1027  1  0.11269100  0.47339450  0.43272158  1.0
  Sb  Sb1028  1  0.11269100  0.80672783  0.43272158  1.0
  Sb  Sb1029  1  0.44602433  0.14006117  0.43272158  1.0
  Sb  Sb1030  1  0.44602433  0.47339450  0.43272158  1.0
  Sb  Sb1031  1  0.44602433  0.80672783  0.43272158  1.0
  Sb  Sb1032  1  0.77935767  0.14006117  0.43272158  1.0
  Sb  Sb1033  1  0.77935767  0.47339450  0.43272158  1.0
  Sb  Sb1034  1  0.77935767  0.80672783  0.43272158  1.0
  Sb  Sb1035  1  0.11269100  0.30672783  0.37716603  1.0
  Sb  Sb1036  1  0.11269100  0.64006117  0.37716603  1.0
  Sb  Sb1037  1  0.11269100  0.97339450  0.37716603  1.0
  Sb  Sb1038  1  0.44602433  0.30672783  0.37716603  1.0
  Sb  Sb1039  1  0.44602433  0.64006117  0.37716603  1.0
  Sb  Sb1040  1  0.44602433  0.97339450  0.37716603  1.0
  Sb  Sb1041  1  0.77935767  0.30672783  0.37716603  1.0
  Sb  Sb1042  1  0.77935767  0.64006117  0.37716603  1.0
  Sb  Sb1043  1  0.77935767  0.97339450  0.37716603  1.0
  Sb  Sb1044  1  0.22064233  0.14006117  0.39357803  1.0
  Sb  Sb1045  1  0.22064233  0.47339450  0.39357803  1.0
  Sb  Sb1046  1  0.22064233  0.80672783  0.39357803  1.0
  Sb  Sb1047  1  0.55397567  0.14006117  0.39357803  1.0
  Sb  Sb1048  1  0.55397567  0.47339450  0.39357803  1.0
  Sb  Sb1049  1  0.55397567  0.80672783  0.39357803  1.0
  Sb  Sb1050  1  0.88730900  0.14006117  0.39357803  1.0
  Sb  Sb1051  1  0.88730900  0.47339450  0.39357803  1.0
  Sb  Sb1052  1  0.88730900  0.80672783  0.39357803  1.0
  Sb  Sb1053  1  0.22064233  0.30672783  0.33802247  1.0
  Sb  Sb1054  1  0.22064233  0.64006117  0.33802247  1.0
  Sb  Sb1055  1  0.22064233  0.97339450  0.33802247  1.0
  Sb  Sb1056  1  0.55397567  0.30672783  0.33802247  1.0
  Sb  Sb1057  1  0.55397567  0.64006117  0.33802247  1.0
  Sb  Sb1058  1  0.55397567  0.97339450  0.33802247  1.0
  Sb  Sb1059  1  0.88730900  0.30672783  0.33802247  1.0
  Sb  Sb1060  1  0.88730900  0.64006117  0.33802247  1.0
  Sb  Sb1061  1  0.88730900  0.97339450  0.33802247  1.0
  Sb  Sb1062  1  0.11269100  0.02660550  0.43037703  1.0
  Sb  Sb1063  1  0.11269100  0.35993883  0.43037703  1.0
  Sb  Sb1064  1  0.11269100  0.69327217  0.43037703  1.0
  Sb  Sb1065  1  0.44602433  0.02660550  0.43037703  1.0
  Sb  Sb1066  1  0.44602433  0.35993883  0.43037703  1.0
  Sb  Sb1067  1  0.44602433  0.69327217  0.43037703  1.0
  Sb  Sb1068  1  0.77935767  0.02660550  0.43037703  1.0
  Sb  Sb1069  1  0.77935767  0.35993883  0.43037703  1.0
  Sb  Sb1070  1  0.77935767  0.69327217  0.43037703  1.0
  Sb  Sb1071  1  0.11269100  0.19327217  0.37482147  1.0
  Sb  Sb1072  1  0.11269100  0.52660550  0.37482147  1.0
  Sb  Sb1073  1  0.11269100  0.85993883  0.37482147  1.0
  Sb  Sb1074  1  0.44602433  0.19327217  0.37482147  1.0
  Sb  Sb1075  1  0.44602433  0.52660550  0.37482147  1.0
  Sb  Sb1076  1  0.44602433  0.85993883  0.37482147  1.0
  Sb  Sb1077  1  0.77935767  0.19327217  0.37482147  1.0
  Sb  Sb1078  1  0.77935767  0.52660550  0.37482147  1.0
  Sb  Sb1079  1  0.77935767  0.85993883  0.37482147  1.0
  Sb  Sb1080  1  0.05321100  0.13692667  0.35445975  1.0
  Sb  Sb1081  1  0.05321100  0.47026000  0.35445975  1.0
  Sb  Sb1082  1  0.05321100  0.80359333  0.35445975  1.0
  Sb  Sb1083  1  0.38654433  0.13692667  0.35445975  1.0
  Sb  Sb1084  1  0.38654433  0.47026000  0.35445975  1.0
  Sb  Sb1085  1  0.38654433  0.80359333  0.35445975  1.0
  Sb  Sb1086  1  0.71987767  0.13692667  0.35445975  1.0
  Sb  Sb1087  1  0.71987767  0.47026000  0.35445975  1.0
  Sb  Sb1088  1  0.71987767  0.80359333  0.35445975  1.0
  Sb  Sb1089  1  0.05321100  0.30359333  0.41001531  1.0
  Sb  Sb1090  1  0.05321100  0.63692667  0.41001531  1.0
  Sb  Sb1091  1  0.05321100  0.97026000  0.41001531  1.0
  Sb  Sb1092  1  0.38654433  0.30359333  0.41001531  1.0
  Sb  Sb1093  1  0.38654433  0.63692667  0.41001531  1.0
  Sb  Sb1094  1  0.38654433  0.97026000  0.41001531  1.0
  Sb  Sb1095  1  0.71987767  0.30359333  0.41001531  1.0
  Sb  Sb1096  1  0.71987767  0.63692667  0.41001531  1.0
  Sb  Sb1097  1  0.71987767  0.97026000  0.41001531  1.0
  Sb  Sb1098  1  0.28012233  0.02974000  0.35838419  1.0
  Sb  Sb1099  1  0.28012233  0.36307333  0.35838419  1.0
  Sb  Sb1100  1  0.28012233  0.69640667  0.35838419  1.0
  Sb  Sb1101  1  0.61345567  0.02974000  0.35838419  1.0
  Sb  Sb1102  1  0.61345567  0.36307333  0.35838419  1.0
  Sb  Sb1103  1  0.61345567  0.69640667  0.35838419  1.0
  Sb  Sb1104  1  0.94678900  0.02974000  0.35838419  1.0
  Sb  Sb1105  1  0.94678900  0.36307333  0.35838419  1.0
  Sb  Sb1106  1  0.94678900  0.69640667  0.35838419  1.0
  Sb  Sb1107  1  0.28012233  0.19640667  0.41393975  1.0
  Sb  Sb1108  1  0.28012233  0.52974000  0.41393975  1.0
  Sb  Sb1109  1  0.28012233  0.86307333  0.41393975  1.0
  Sb  Sb1110  1  0.61345567  0.19640667  0.41393975  1.0
  Sb  Sb1111  1  0.61345567  0.52974000  0.41393975  1.0
  Sb  Sb1112  1  0.61345567  0.86307333  0.41393975  1.0
  Sb  Sb1113  1  0.94678900  0.19640667  0.41393975  1.0
  Sb  Sb1114  1  0.94678900  0.52974000  0.41393975  1.0
  Sb  Sb1115  1  0.94678900  0.86307333  0.41393975  1.0
  Sb  Sb1116  1  0.28012233  0.08371567  0.41235986  1.0
  Sb  Sb1117  1  0.28012233  0.41704900  0.41235986  1.0
  Sb  Sb1118  1  0.28012233  0.75038233  0.41235986  1.0
  Sb  Sb1119  1  0.61345567  0.08371567  0.41235986  1.0
  Sb  Sb1120  1  0.61345567  0.41704900  0.41235986  1.0
  Sb  Sb1121  1  0.61345567  0.75038233  0.41235986  1.0
  Sb  Sb1122  1  0.94678900  0.08371567  0.41235986  1.0
  Sb  Sb1123  1  0.94678900  0.41704900  0.41235986  1.0
  Sb  Sb1124  1  0.94678900  0.75038233  0.41235986  1.0
  Sb  Sb1125  1  0.28012233  0.25038233  0.35680431  1.0
  Sb  Sb1126  1  0.28012233  0.58371567  0.35680431  1.0
  Sb  Sb1127  1  0.28012233  0.91704900  0.35680431  1.0
  Sb  Sb1128  1  0.61345567  0.25038233  0.35680431  1.0
  Sb  Sb1129  1  0.61345567  0.58371567  0.35680431  1.0
  Sb  Sb1130  1  0.61345567  0.91704900  0.35680431  1.0
  Sb  Sb1131  1  0.94678900  0.25038233  0.35680431  1.0
  Sb  Sb1132  1  0.94678900  0.58371567  0.35680431  1.0
  Sb  Sb1133  1  0.94678900  0.91704900  0.35680431  1.0
  Sb  Sb1134  1  0.05321100  0.08295100  0.41159519  1.0
  Sb  Sb1135  1  0.05321100  0.41628433  0.41159519  1.0
  Sb  Sb1136  1  0.05321100  0.74961767  0.41159519  1.0
  Sb  Sb1137  1  0.38654433  0.08295100  0.41159519  1.0
  Sb  Sb1138  1  0.38654433  0.41628433  0.41159519  1.0
  Sb  Sb1139  1  0.38654433  0.74961767  0.41159519  1.0
  Sb  Sb1140  1  0.71987767  0.08295100  0.41159519  1.0
  Sb  Sb1141  1  0.71987767  0.41628433  0.41159519  1.0
  Sb  Sb1142  1  0.71987767  0.74961767  0.41159519  1.0
  Sb  Sb1143  1  0.05321100  0.24961767  0.35603964  1.0
  Sb  Sb1144  1  0.05321100  0.58295100  0.35603964  1.0
  Sb  Sb1145  1  0.05321100  0.91628433  0.35603964  1.0
  Sb  Sb1146  1  0.38654433  0.24961767  0.35603964  1.0
  Sb  Sb1147  1  0.38654433  0.58295100  0.35603964  1.0
  Sb  Sb1148  1  0.38654433  0.91628433  0.35603964  1.0
  Sb  Sb1149  1  0.71987767  0.24961767  0.35603964  1.0
  Sb  Sb1150  1  0.71987767  0.58295100  0.35603964  1.0
  Sb  Sb1151  1  0.71987767  0.91628433  0.35603964  1.0
