# generated using pymatgen
data_NiSb3
_symmetry_space_group_name_H-M   'P 1'
_cell_length_a   39.25486326
_cell_length_b   46.03040733
_cell_length_c   27.75738001
_cell_angle_alpha   95.76818118
_cell_angle_beta   90.00000000
_cell_angle_gamma   90.00000000
_symmetry_Int_Tables_number   1
_chemical_formula_structural   NiSb3
_chemical_formula_sum   'Ni216 Sb648'
_cell_volume   49901.33893941
_cell_formula_units_Z   216
loop_
 _symmetry_equiv_pos_site_id
 _symmetry_equiv_pos_as_xyz
  1  'x, y, z'
loop_
 _atom_site_type_symbol
 _atom_site_label
 _atom_site_symmetry_multiplicity
 _atom_site_fract_x
 _atom_site_fract_y
 _atom_site_fract_z
 _atom_site_occupancy
  Ni  Ni0  1  0.25000000  0.05315637  0.03017696  1.0
  Ni  Ni1  1  0.25000000  0.38648970  0.03017696  1.0
  Ni  Ni2  1  0.25000000  0.71982304  0.03017696  1.0
  Ni  Ni3  1  0.58333333  0.05315637  0.03017696  1.0
  Ni  Ni4  1  0.58333333  0.38648970  0.03017696  1.0
  Ni  Ni5  1  0.58333333  0.71982304  0.03017696  1.0
  Ni  Ni6  1  0.91666667  0.05315637  0.03017696  1.0
  Ni  Ni7  1  0.91666667  0.38648970  0.03017696  1.0
  Ni  Ni8  1  0.91666667  0.71982304  0.03017696  1.0
  Ni  Ni9  1  0.08333333  0.14839446  0.10160554  1.0
  Ni  Ni10  1  0.08333333  0.48172780  0.10160554  1.0
  Ni  Ni11  1  0.08333333  0.81506113  0.10160554  1.0
  Ni  Ni12  1  0.41666667  0.14839446  0.10160554  1.0
  Ni  Ni13  1  0.41666667  0.48172780  0.10160554  1.0
  Ni  Ni14  1  0.41666667  0.81506113  0.10160554  1.0
  Ni  Ni15  1  0.75000000  0.14839446  0.10160554  1.0
  Ni  Ni16  1  0.75000000  0.48172780  0.10160554  1.0
  Ni  Ni17  1  0.75000000  0.81506113  0.10160554  1.0
  Ni  Ni18  1  0.00000000  0.26744208  0.06589125  1.0
  Ni  Ni19  1  0.00000000  0.60077542  0.06589125  1.0
  Ni  Ni20  1  0.00000000  0.93410875  0.06589125  1.0
  Ni  Ni21  1  0.33333333  0.26744208  0.06589125  1.0
  Ni  Ni22  1  0.33333333  0.60077542  0.06589125  1.0
  Ni  Ni23  1  0.33333333  0.93410875  0.06589125  1.0
  Ni  Ni24  1  0.66666667  0.26744208  0.06589125  1.0
  Ni  Ni25  1  0.66666667  0.60077542  0.06589125  1.0
  Ni  Ni26  1  0.66666667  0.93410875  0.06589125  1.0
  Ni  Ni27  1  0.16666667  0.02934685  0.13731982  1.0
  Ni  Ni28  1  0.16666667  0.36268018  0.13731982  1.0
  Ni  Ni29  1  0.16666667  0.69601351  0.13731982  1.0
  Ni  Ni30  1  0.50000000  0.02934685  0.13731982  1.0
  Ni  Ni31  1  0.50000000  0.36268018  0.13731982  1.0
  Ni  Ni32  1  0.50000000  0.69601351  0.13731982  1.0
  Ni  Ni33  1  0.83333333  0.02934685  0.13731982  1.0
  Ni  Ni34  1  0.83333333  0.36268018  0.13731982  1.0
  Ni  Ni35  1  0.83333333  0.69601351  0.13731982  1.0
  Ni  Ni36  1  0.08333333  0.05315637  0.03017696  1.0
  Ni  Ni37  1  0.08333333  0.38648970  0.03017696  1.0
  Ni  Ni38  1  0.08333333  0.71982304  0.03017696  1.0
  Ni  Ni39  1  0.41666667  0.05315637  0.03017696  1.0
  Ni  Ni40  1  0.41666667  0.38648970  0.03017696  1.0
  Ni  Ni41  1  0.41666667  0.71982304  0.03017696  1.0
  Ni  Ni42  1  0.75000000  0.05315637  0.03017696  1.0
  Ni  Ni43  1  0.75000000  0.38648970  0.03017696  1.0
  Ni  Ni44  1  0.75000000  0.71982304  0.03017696  1.0
  Ni  Ni45  1  0.25000000  0.14839446  0.10160554  1.0
  Ni  Ni46  1  0.25000000  0.48172780  0.10160554  1.0
  Ni  Ni47  1  0.25000000  0.81506113  0.10160554  1.0
  Ni  Ni48  1  0.58333333  0.14839446  0.10160554  1.0
  Ni  Ni49  1  0.58333333  0.48172780  0.10160554  1.0
  Ni  Ni50  1  0.58333333  0.81506113  0.10160554  1.0
  Ni  Ni51  1  0.91666667  0.14839446  0.10160554  1.0
  Ni  Ni52  1  0.91666667  0.48172780  0.10160554  1.0
  Ni  Ni53  1  0.91666667  0.81506113  0.10160554  1.0
  Ni  Ni54  1  0.00000000  0.02934685  0.13731982  1.0
  Ni  Ni55  1  0.00000000  0.36268018  0.13731982  1.0
  Ni  Ni56  1  0.00000000  0.69601351  0.13731982  1.0
  Ni  Ni57  1  0.33333333  0.02934685  0.13731982  1.0
  Ni  Ni58  1  0.33333333  0.36268018  0.13731982  1.0
  Ni  Ni59  1  0.33333333  0.69601351  0.13731982  1.0
  Ni  Ni60  1  0.66666667  0.02934685  0.13731982  1.0
  Ni  Ni61  1  0.66666667  0.36268018  0.13731982  1.0
  Ni  Ni62  1  0.66666667  0.69601351  0.13731982  1.0
  Ni  Ni63  1  0.16666667  0.26744208  0.06589125  1.0
  Ni  Ni64  1  0.16666667  0.60077542  0.06589125  1.0
  Ni  Ni65  1  0.16666667  0.93410875  0.06589125  1.0
  Ni  Ni66  1  0.50000000  0.26744208  0.06589125  1.0
  Ni  Ni67  1  0.50000000  0.60077542  0.06589125  1.0
  Ni  Ni68  1  0.50000000  0.93410875  0.06589125  1.0
  Ni  Ni69  1  0.83333333  0.26744208  0.06589125  1.0
  Ni  Ni70  1  0.83333333  0.60077542  0.06589125  1.0
  Ni  Ni71  1  0.83333333  0.93410875  0.06589125  1.0
  Ni  Ni72  1  0.25000000  0.24363256  0.17303411  1.0
  Ni  Ni73  1  0.25000000  0.57696589  0.17303411  1.0
  Ni  Ni74  1  0.25000000  0.91029923  0.17303411  1.0
  Ni  Ni75  1  0.58333333  0.24363256  0.17303411  1.0
  Ni  Ni76  1  0.58333333  0.57696589  0.17303411  1.0
  Ni  Ni77  1  0.58333333  0.91029923  0.17303411  1.0
  Ni  Ni78  1  0.91666667  0.24363256  0.17303411  1.0
  Ni  Ni79  1  0.91666667  0.57696589  0.17303411  1.0
  Ni  Ni80  1  0.91666667  0.91029923  0.17303411  1.0
  Ni  Ni81  1  0.08333333  0.00553732  0.24446268  1.0
  Ni  Ni82  1  0.08333333  0.33887065  0.24446268  1.0
  Ni  Ni83  1  0.08333333  0.67220399  0.24446268  1.0
  Ni  Ni84  1  0.41666667  0.00553732  0.24446268  1.0
  Ni  Ni85  1  0.41666667  0.33887065  0.24446268  1.0
  Ni  Ni86  1  0.41666667  0.67220399  0.24446268  1.0
  Ni  Ni87  1  0.75000000  0.00553732  0.24446268  1.0
  Ni  Ni88  1  0.75000000  0.33887065  0.24446268  1.0
  Ni  Ni89  1  0.75000000  0.67220399  0.24446268  1.0
  Ni  Ni90  1  0.33333333  0.12458494  0.20874839  1.0
  Ni  Ni91  1  0.33333333  0.45791827  0.20874839  1.0
  Ni  Ni92  1  0.33333333  0.79125161  0.20874839  1.0
  Ni  Ni93  1  0.66666667  0.12458494  0.20874839  1.0
  Ni  Ni94  1  0.66666667  0.45791827  0.20874839  1.0
  Ni  Ni95  1  0.66666667  0.79125161  0.20874839  1.0
  Ni  Ni96  1  1.00000000  0.12458494  0.20874839  1.0
  Ni  Ni97  1  1.00000000  0.45791827  0.20874839  1.0
  Ni  Ni98  1  1.00000000  0.79125161  0.20874839  1.0
  Ni  Ni99  1  0.16666667  0.21982304  0.28017696  1.0
  Ni  Ni100  1  0.16666667  0.55315637  0.28017696  1.0
  Ni  Ni101  1  0.16666667  0.88648970  0.28017696  1.0
  Ni  Ni102  1  0.50000000  0.21982304  0.28017696  1.0
  Ni  Ni103  1  0.50000000  0.55315637  0.28017696  1.0
  Ni  Ni104  1  0.50000000  0.88648970  0.28017696  1.0
  Ni  Ni105  1  0.83333333  0.21982304  0.28017696  1.0
  Ni  Ni106  1  0.83333333  0.55315637  0.28017696  1.0
  Ni  Ni107  1  0.83333333  0.88648970  0.28017696  1.0
  Ni  Ni108  1  0.08333333  0.24363256  0.17303411  1.0
  Ni  Ni109  1  0.08333333  0.57696589  0.17303411  1.0
  Ni  Ni110  1  0.08333333  0.91029923  0.17303411  1.0
  Ni  Ni111  1  0.41666667  0.24363256  0.17303411  1.0
  Ni  Ni112  1  0.41666667  0.57696589  0.17303411  1.0
  Ni  Ni113  1  0.41666667  0.91029923  0.17303411  1.0
  Ni  Ni114  1  0.75000000  0.24363256  0.17303411  1.0
  Ni  Ni115  1  0.75000000  0.57696589  0.17303411  1.0
  Ni  Ni116  1  0.75000000  0.91029923  0.17303411  1.0
  Ni  Ni117  1  0.25000000  0.00553732  0.24446268  1.0
  Ni  Ni118  1  0.25000000  0.33887065  0.24446268  1.0
  Ni  Ni119  1  0.25000000  0.67220399  0.24446268  1.0
  Ni  Ni120  1  0.58333333  0.00553732  0.24446268  1.0
  Ni  Ni121  1  0.58333333  0.33887065  0.24446268  1.0
  Ni  Ni122  1  0.58333333  0.67220399  0.24446268  1.0
  Ni  Ni123  1  0.91666667  0.00553732  0.24446268  1.0
  Ni  Ni124  1  0.91666667  0.33887065  0.24446268  1.0
  Ni  Ni125  1  0.91666667  0.67220399  0.24446268  1.0
  Ni  Ni126  1  0.33333333  0.21982304  0.28017696  1.0
  Ni  Ni127  1  0.33333333  0.55315637  0.28017696  1.0
  Ni  Ni128  1  0.33333333  0.88648970  0.28017696  1.0
  Ni  Ni129  1  0.66666667  0.21982304  0.28017696  1.0
  Ni  Ni130  1  0.66666667  0.55315637  0.28017696  1.0
  Ni  Ni131  1  0.66666667  0.88648970  0.28017696  1.0
  Ni  Ni132  1  1.00000000  0.21982304  0.28017696  1.0
  Ni  Ni133  1  0.00000000  0.55315637  0.28017696  1.0
  Ni  Ni134  1  0.00000000  0.88648970  0.28017696  1.0
  Ni  Ni135  1  0.16666667  0.12458494  0.20874839  1.0
  Ni  Ni136  1  0.16666667  0.45791827  0.20874839  1.0
  Ni  Ni137  1  0.16666667  0.79125161  0.20874839  1.0
  Ni  Ni138  1  0.50000000  0.12458494  0.20874839  1.0
  Ni  Ni139  1  0.50000000  0.45791827  0.20874839  1.0
  Ni  Ni140  1  0.50000000  0.79125161  0.20874839  1.0
  Ni  Ni141  1  0.83333333  0.12458494  0.20874839  1.0
  Ni  Ni142  1  0.83333333  0.45791827  0.20874839  1.0
  Ni  Ni143  1  0.83333333  0.79125161  0.20874839  1.0
  Ni  Ni144  1  0.25000000  0.10077542  0.31589125  1.0
  Ni  Ni145  1  0.25000000  0.43410875  0.31589125  1.0
  Ni  Ni146  1  0.25000000  0.76744208  0.31589125  1.0
  Ni  Ni147  1  0.58333333  0.10077542  0.31589125  1.0
  Ni  Ni148  1  0.58333333  0.43410875  0.31589125  1.0
  Ni  Ni149  1  0.58333333  0.76744208  0.31589125  1.0
  Ni  Ni150  1  0.91666667  0.10077542  0.31589125  1.0
  Ni  Ni151  1  0.91666667  0.43410875  0.31589125  1.0
  Ni  Ni152  1  0.91666667  0.76744208  0.31589125  1.0
  Ni  Ni153  1  0.08333333  0.19601351  0.38731982  1.0
  Ni  Ni154  1  0.08333333  0.52934685  0.38731982  1.0
  Ni  Ni155  1  0.08333333  0.86268018  0.38731982  1.0
  Ni  Ni156  1  0.41666667  0.19601351  0.38731982  1.0
  Ni  Ni157  1  0.41666667  0.52934685  0.38731982  1.0
  Ni  Ni158  1  0.41666667  0.86268018  0.38731982  1.0
  Ni  Ni159  1  0.75000000  0.19601351  0.38731982  1.0
  Ni  Ni160  1  0.75000000  0.52934685  0.38731982  1.0
  Ni  Ni161  1  0.75000000  0.86268018  0.38731982  1.0
  Ni  Ni162  1  0.33333333  0.31506113  0.35160554  1.0
  Ni  Ni163  1  0.33333333  0.64839446  0.35160554  1.0
  Ni  Ni164  1  0.33333333  0.98172780  0.35160554  1.0
  Ni  Ni165  1  0.66666667  0.31506113  0.35160554  1.0
  Ni  Ni166  1  0.66666667  0.64839446  0.35160554  1.0
  Ni  Ni167  1  0.66666667  0.98172780  0.35160554  1.0
  Ni  Ni168  1  1.00000000  0.31506113  0.35160554  1.0
  Ni  Ni169  1  0.00000000  0.64839446  0.35160554  1.0
  Ni  Ni170  1  0.00000000  0.98172780  0.35160554  1.0
  Ni  Ni171  1  0.16666667  0.07696589  0.42303411  1.0
  Ni  Ni172  1  0.16666667  0.41029923  0.42303411  1.0
  Ni  Ni173  1  0.16666667  0.74363256  0.42303411  1.0
  Ni  Ni174  1  0.50000000  0.07696589  0.42303411  1.0
  Ni  Ni175  1  0.50000000  0.41029923  0.42303411  1.0
  Ni  Ni176  1  0.50000000  0.74363256  0.42303411  1.0
  Ni  Ni177  1  0.83333333  0.07696589  0.42303411  1.0
  Ni  Ni178  1  0.83333333  0.41029923  0.42303411  1.0
  Ni  Ni179  1  0.83333333  0.74363256  0.42303411  1.0
  Ni  Ni180  1  0.08333333  0.10077542  0.31589125  1.0
  Ni  Ni181  1  0.08333333  0.43410875  0.31589125  1.0
  Ni  Ni182  1  0.08333333  0.76744208  0.31589125  1.0
  Ni  Ni183  1  0.41666667  0.10077542  0.31589125  1.0
  Ni  Ni184  1  0.41666667  0.43410875  0.31589125  1.0
  Ni  Ni185  1  0.41666667  0.76744208  0.31589125  1.0
  Ni  Ni186  1  0.75000000  0.10077542  0.31589125  1.0
  Ni  Ni187  1  0.75000000  0.43410875  0.31589125  1.0
  Ni  Ni188  1  0.75000000  0.76744208  0.31589125  1.0
  Ni  Ni189  1  0.25000000  0.19601351  0.38731982  1.0
  Ni  Ni190  1  0.25000000  0.52934685  0.38731982  1.0
  Ni  Ni191  1  0.25000000  0.86268018  0.38731982  1.0
  Ni  Ni192  1  0.58333333  0.19601351  0.38731982  1.0
  Ni  Ni193  1  0.58333333  0.52934685  0.38731982  1.0
  Ni  Ni194  1  0.58333333  0.86268018  0.38731982  1.0
  Ni  Ni195  1  0.91666667  0.19601351  0.38731982  1.0
  Ni  Ni196  1  0.91666667  0.52934685  0.38731982  1.0
  Ni  Ni197  1  0.91666667  0.86268018  0.38731982  1.0
  Ni  Ni198  1  0.33333333  0.07696589  0.42303411  1.0
  Ni  Ni199  1  0.33333333  0.41029923  0.42303411  1.0
  Ni  Ni200  1  0.33333333  0.74363256  0.42303411  1.0
  Ni  Ni201  1  0.66666667  0.07696589  0.42303411  1.0
  Ni  Ni202  1  0.66666667  0.41029923  0.42303411  1.0
  Ni  Ni203  1  0.66666667  0.74363256  0.42303411  1.0
  Ni  Ni204  1  1.00000000  0.07696589  0.42303411  1.0
  Ni  Ni205  1  1.00000000  0.41029923  0.42303411  1.0
  Ni  Ni206  1  1.00000000  0.74363256  0.42303411  1.0
  Ni  Ni207  1  0.16666667  0.31506113  0.35160554  1.0
  Ni  Ni208  1  0.16666667  0.64839446  0.35160554  1.0
  Ni  Ni209  1  0.16666667  0.98172780  0.35160554  1.0
  Ni  Ni210  1  0.50000000  0.31506113  0.35160554  1.0
  Ni  Ni211  1  0.50000000  0.64839446  0.35160554  1.0
  Ni  Ni212  1  0.50000000  0.98172780  0.35160554  1.0
  Ni  Ni213  1  0.83333333  0.31506113  0.35160554  1.0
  Ni  Ni214  1  0.83333333  0.64839446  0.35160554  1.0
  Ni  Ni215  1  0.83333333  0.98172780  0.35160554  1.0
  Sb  Sb216  1  0.02660550  0.12401708  0.12323075  1.0
  Sb  Sb217  1  0.02660550  0.45735042  0.12323075  1.0
  Sb  Sb218  1  0.02660550  0.79068375  0.12323075  1.0
  Sb  Sb219  1  0.35993883  0.12401708  0.12323075  1.0
  Sb  Sb220  1  0.35993883  0.45735042  0.12323075  1.0
  Sb  Sb221  1  0.35993883  0.79068375  0.12323075  1.0
  Sb  Sb222  1  0.69327217  0.12401708  0.12323075  1.0
  Sb  Sb223  1  0.69327217  0.45735042  0.12323075  1.0
  Sb  Sb224  1  0.69327217  0.79068375  0.12323075  1.0
  Sb  Sb225  1  0.19327217  0.02877899  0.05180218  1.0
  Sb  Sb226  1  0.19327217  0.36211232  0.05180218  1.0
  Sb  Sb227  1  0.19327217  0.69544565  0.05180218  1.0
  Sb  Sb228  1  0.52660550  0.02877899  0.05180218  1.0
  Sb  Sb229  1  0.52660550  0.36211232  0.05180218  1.0
  Sb  Sb230  1  0.52660550  0.69544565  0.05180218  1.0
  Sb  Sb231  1  0.85993883  0.02877899  0.05180218  1.0
  Sb  Sb232  1  0.85993883  0.36211232  0.05180218  1.0
  Sb  Sb233  1  0.85993883  0.69544565  0.05180218  1.0
  Sb  Sb234  1  0.30672783  0.07753375  0.00855175  1.0
  Sb  Sb235  1  0.30672783  0.41086708  0.00855175  1.0
  Sb  Sb236  1  0.30672783  0.74420042  0.00855175  1.0
  Sb  Sb237  1  0.64006117  0.07753375  0.00855175  1.0
  Sb  Sb238  1  0.64006117  0.41086708  0.00855175  1.0
  Sb  Sb239  1  0.64006117  0.74420042  0.00855175  1.0
  Sb  Sb240  1  0.97339450  0.07753375  0.00855175  1.0
  Sb  Sb241  1  0.97339450  0.41086708  0.00855175  1.0
  Sb  Sb242  1  0.97339450  0.74420042  0.00855175  1.0
  Sb  Sb243  1  0.14006117  0.17277185  0.07998032  1.0
  Sb  Sb244  1  0.14006117  0.50610518  0.07998032  1.0
  Sb  Sb245  1  0.14006117  0.83943851  0.07998032  1.0
  Sb  Sb246  1  0.47339450  0.17277185  0.07998032  1.0
  Sb  Sb247  1  0.47339450  0.50610518  0.07998032  1.0
  Sb  Sb248  1  0.47339450  0.83943851  0.07998032  1.0
  Sb  Sb249  1  0.80672783  0.17277185  0.07998032  1.0
  Sb  Sb250  1  0.80672783  0.50610518  0.07998032  1.0
  Sb  Sb251  1  0.80672783  0.83943851  0.07998032  1.0
  Sb  Sb252  1  0.30672783  0.13922023  0.05481661  1.0
  Sb  Sb253  1  0.30672783  0.47255356  0.05481661  1.0
  Sb  Sb254  1  0.30672783  0.80588689  0.05481661  1.0
  Sb  Sb255  1  0.64006117  0.13922023  0.05481661  1.0
  Sb  Sb256  1  0.64006117  0.47255356  0.05481661  1.0
  Sb  Sb257  1  0.64006117  0.80588689  0.05481661  1.0
  Sb  Sb258  1  0.97339450  0.13922023  0.05481661  1.0
  Sb  Sb259  1  0.97339450  0.47255356  0.05481661  1.0
  Sb  Sb260  1  0.97339450  0.80588689  0.05481661  1.0
  Sb  Sb261  1  0.14006117  0.23445832  0.12624518  1.0
  Sb  Sb262  1  0.14006117  0.56779165  0.12624518  1.0
  Sb  Sb263  1  0.14006117  0.90112499  0.12624518  1.0
  Sb  Sb264  1  0.47339450  0.23445832  0.12624518  1.0
  Sb  Sb265  1  0.47339450  0.56779165  0.12624518  1.0
  Sb  Sb266  1  0.47339450  0.90112499  0.12624518  1.0
  Sb  Sb267  1  0.80672783  0.23445832  0.12624518  1.0
  Sb  Sb268  1  0.80672783  0.56779165  0.12624518  1.0
  Sb  Sb269  1  0.80672783  0.90112499  0.12624518  1.0
  Sb  Sb270  1  0.02660550  0.06233061  0.07696589  1.0
  Sb  Sb271  1  0.02660550  0.39566394  0.07696589  1.0
  Sb  Sb272  1  0.02660550  0.72899727  0.07696589  1.0
  Sb  Sb273  1  0.35993883  0.06233061  0.07696589  1.0
  Sb  Sb274  1  0.35993883  0.39566394  0.07696589  1.0
  Sb  Sb275  1  0.35993883  0.72899727  0.07696589  1.0
  Sb  Sb276  1  0.69327217  0.06233061  0.07696589  1.0
  Sb  Sb277  1  0.69327217  0.39566394  0.07696589  1.0
  Sb  Sb278  1  0.69327217  0.72899727  0.07696589  1.0
  Sb  Sb279  1  0.19327217  0.30042585  0.00553732  1.0
  Sb  Sb280  1  0.19327217  0.63375918  0.00553732  1.0
  Sb  Sb281  1  0.19327217  0.96709251  0.00553732  1.0
  Sb  Sb282  1  0.52660550  0.30042585  0.00553732  1.0
  Sb  Sb283  1  0.52660550  0.63375918  0.00553732  1.0
  Sb  Sb284  1  0.52660550  0.96709251  0.00553732  1.0
  Sb  Sb285  1  0.85993883  0.30042585  0.00553732  1.0
  Sb  Sb286  1  0.85993883  0.63375918  0.00553732  1.0
  Sb  Sb287  1  0.85993883  0.96709251  0.00553732  1.0
  Sb  Sb288  1  0.08371567  0.10927256  0.02765411  1.0
  Sb  Sb289  1  0.08371567  0.44260589  0.02765411  1.0
  Sb  Sb290  1  0.08371567  0.77593923  0.02765411  1.0
  Sb  Sb291  1  0.41704900  0.10927256  0.02765411  1.0
  Sb  Sb292  1  0.41704900  0.44260589  0.02765411  1.0
  Sb  Sb293  1  0.41704900  0.77593923  0.02765411  1.0
  Sb  Sb294  1  0.75038233  0.10927256  0.02765411  1.0
  Sb  Sb295  1  0.75038233  0.44260589  0.02765411  1.0
  Sb  Sb296  1  0.75038233  0.77593923  0.02765411  1.0
  Sb  Sb297  1  0.25038233  0.20451065  0.09908268  1.0
  Sb  Sb298  1  0.25038233  0.53784399  0.09908268  1.0
  Sb  Sb299  1  0.25038233  0.87117732  0.09908268  1.0
  Sb  Sb300  1  0.58371567  0.20451065  0.09908268  1.0
  Sb  Sb301  1  0.58371567  0.53784399  0.09908268  1.0
  Sb  Sb302  1  0.58371567  0.87117732  0.09908268  1.0
  Sb  Sb303  1  0.91704900  0.20451065  0.09908268  1.0
  Sb  Sb304  1  0.91704900  0.53784399  0.09908268  1.0
  Sb  Sb305  1  0.91704900  0.87117732  0.09908268  1.0
  Sb  Sb306  1  0.24961767  0.09227827  0.10412839  1.0
  Sb  Sb307  1  0.24961767  0.42561161  0.10412839  1.0
  Sb  Sb308  1  0.24961767  0.75894494  0.10412839  1.0
  Sb  Sb309  1  0.58295100  0.09227827  0.10412839  1.0
  Sb  Sb310  1  0.58295100  0.42561161  0.10412839  1.0
  Sb  Sb311  1  0.58295100  0.75894494  0.10412839  1.0
  Sb  Sb312  1  0.91628433  0.09227827  0.10412839  1.0
  Sb  Sb313  1  0.91628433  0.42561161  0.10412839  1.0
  Sb  Sb314  1  0.91628433  0.75894494  0.10412839  1.0
  Sb  Sb315  1  0.08295100  0.33037351  0.03269982  1.0
  Sb  Sb316  1  0.08295100  0.66370685  0.03269982  1.0
  Sb  Sb317  1  0.08295100  0.99704018  0.03269982  1.0
  Sb  Sb318  1  0.41628433  0.33037351  0.03269982  1.0
  Sb  Sb319  1  0.41628433  0.66370685  0.03269982  1.0
  Sb  Sb320  1  0.41628433  0.99704018  0.03269982  1.0
  Sb  Sb321  1  0.74961767  0.33037351  0.03269982  1.0
  Sb  Sb322  1  0.74961767  0.66370685  0.03269982  1.0
  Sb  Sb323  1  0.74961767  0.99704018  0.03269982  1.0
  Sb  Sb324  1  0.30359333  0.21971380  0.03066854  1.0
  Sb  Sb325  1  0.30359333  0.55304713  0.03066854  1.0
  Sb  Sb326  1  0.30359333  0.88638046  0.03066854  1.0
  Sb  Sb327  1  0.63692667  0.21971380  0.03066854  1.0
  Sb  Sb328  1  0.63692667  0.55304713  0.03066854  1.0
  Sb  Sb329  1  0.63692667  0.88638046  0.03066854  1.0
  Sb  Sb330  1  0.97026000  0.21971380  0.03066854  1.0
  Sb  Sb331  1  0.97026000  0.55304713  0.03066854  1.0
  Sb  Sb332  1  0.97026000  0.88638046  0.03066854  1.0
  Sb  Sb333  1  0.13692667  0.31495189  0.10209711  1.0
  Sb  Sb334  1  0.13692667  0.64828523  0.10209711  1.0
  Sb  Sb335  1  0.13692667  0.98161856  0.10209711  1.0
  Sb  Sb336  1  0.47026000  0.31495189  0.10209711  1.0
  Sb  Sb337  1  0.47026000  0.64828523  0.10209711  1.0
  Sb  Sb338  1  0.47026000  0.98161856  0.10209711  1.0
  Sb  Sb339  1  0.80359333  0.31495189  0.10209711  1.0
  Sb  Sb340  1  0.80359333  0.64828523  0.10209711  1.0
  Sb  Sb341  1  0.80359333  0.98161856  0.10209711  1.0
  Sb  Sb342  1  0.02974000  0.31517037  0.10111396  1.0
  Sb  Sb343  1  0.02974000  0.64850370  0.10111396  1.0
  Sb  Sb344  1  0.02974000  0.98183704  0.10111396  1.0
  Sb  Sb345  1  0.36307333  0.31517037  0.10111396  1.0
  Sb  Sb346  1  0.36307333  0.64850370  0.10111396  1.0
  Sb  Sb347  1  0.36307333  0.98183704  0.10111396  1.0
  Sb  Sb348  1  0.69640667  0.31517037  0.10111396  1.0
  Sb  Sb349  1  0.69640667  0.64850370  0.10111396  1.0
  Sb  Sb350  1  0.69640667  0.98183704  0.10111396  1.0
  Sb  Sb351  1  0.19640667  0.21993227  0.02968539  1.0
  Sb  Sb352  1  0.19640667  0.55326561  0.02968539  1.0
  Sb  Sb353  1  0.19640667  0.88659894  0.02968539  1.0
  Sb  Sb354  1  0.52974000  0.21993227  0.02968539  1.0
  Sb  Sb355  1  0.52974000  0.55326561  0.02968539  1.0
  Sb  Sb356  1  0.52974000  0.88659894  0.02968539  1.0
  Sb  Sb357  1  0.86307333  0.21993227  0.02968539  1.0
  Sb  Sb358  1  0.86307333  0.55326561  0.02968539  1.0
  Sb  Sb359  1  0.86307333  0.88659894  0.02968539  1.0
  Sb  Sb360  1  0.22301217  0.14728042  0.01625175  1.0
  Sb  Sb361  1  0.22301217  0.48061375  0.01625175  1.0
  Sb  Sb362  1  0.22301217  0.81394708  0.01625175  1.0
  Sb  Sb363  1  0.55634550  0.14728042  0.01625175  1.0
  Sb  Sb364  1  0.55634550  0.48061375  0.01625175  1.0
  Sb  Sb365  1  0.55634550  0.81394708  0.01625175  1.0
  Sb  Sb366  1  0.88967883  0.14728042  0.01625175  1.0
  Sb  Sb367  1  0.88967883  0.48061375  0.01625175  1.0
  Sb  Sb368  1  0.88967883  0.81394708  0.01625175  1.0
  Sb  Sb369  1  0.05634550  0.24251851  0.08768032  1.0
  Sb  Sb370  1  0.05634550  0.57585185  0.08768032  1.0
  Sb  Sb371  1  0.05634550  0.90918518  0.08768032  1.0
  Sb  Sb372  1  0.38967883  0.24251851  0.08768032  1.0
  Sb  Sb373  1  0.38967883  0.57585185  0.08768032  1.0
  Sb  Sb374  1  0.38967883  0.90918518  0.08768032  1.0
  Sb  Sb375  1  0.72301217  0.24251851  0.08768032  1.0
  Sb  Sb376  1  0.72301217  0.57585185  0.08768032  1.0
  Sb  Sb377  1  0.72301217  0.90918518  0.08768032  1.0
  Sb  Sb378  1  0.11032117  0.05427042  0.11553075  1.0
  Sb  Sb379  1  0.11032117  0.38760375  0.11553075  1.0
  Sb  Sb380  1  0.11032117  0.72093708  0.11553075  1.0
  Sb  Sb381  1  0.44365450  0.05427042  0.11553075  1.0
  Sb  Sb382  1  0.44365450  0.38760375  0.11553075  1.0
  Sb  Sb383  1  0.44365450  0.72093708  0.11553075  1.0
  Sb  Sb384  1  0.77698783  0.05427042  0.11553075  1.0
  Sb  Sb385  1  0.77698783  0.38760375  0.11553075  1.0
  Sb  Sb386  1  0.77698783  0.72093708  0.11553075  1.0
  Sb  Sb387  1  0.27698783  0.29236565  0.04410218  1.0
  Sb  Sb388  1  0.27698783  0.62569899  0.04410218  1.0
  Sb  Sb389  1  0.27698783  0.95903232  0.04410218  1.0
  Sb  Sb390  1  0.61032117  0.29236565  0.04410218  1.0
  Sb  Sb391  1  0.61032117  0.62569899  0.04410218  1.0
  Sb  Sb392  1  0.61032117  0.95903232  0.04410218  1.0
  Sb  Sb393  1  0.94365450  0.29236565  0.04410218  1.0
  Sb  Sb394  1  0.94365450  0.62569899  0.04410218  1.0
  Sb  Sb395  1  0.94365450  0.95903232  0.04410218  1.0
  Sb  Sb396  1  0.05634550  0.18170594  0.04207089  1.0
  Sb  Sb397  1  0.05634550  0.51503927  0.04207089  1.0
  Sb  Sb398  1  0.05634550  0.84837261  0.04207089  1.0
  Sb  Sb399  1  0.38967883  0.18170594  0.04207089  1.0
  Sb  Sb400  1  0.38967883  0.51503927  0.04207089  1.0
  Sb  Sb401  1  0.38967883  0.84837261  0.04207089  1.0
  Sb  Sb402  1  0.72301217  0.18170594  0.04207089  1.0
  Sb  Sb403  1  0.72301217  0.51503927  0.04207089  1.0
  Sb  Sb404  1  0.72301217  0.84837261  0.04207089  1.0
  Sb  Sb405  1  0.22301217  0.27694404  0.11349946  1.0
  Sb  Sb406  1  0.22301217  0.61027737  0.11349946  1.0
  Sb  Sb407  1  0.22301217  0.94361070  0.11349946  1.0
  Sb  Sb408  1  0.55634550  0.27694404  0.11349946  1.0
  Sb  Sb409  1  0.55634550  0.61027737  0.11349946  1.0
  Sb  Sb410  1  0.55634550  0.94361070  0.11349946  1.0
  Sb  Sb411  1  0.88967883  0.27694404  0.11349946  1.0
  Sb  Sb412  1  0.88967883  0.61027737  0.11349946  1.0
  Sb  Sb413  1  0.88967883  0.94361070  0.11349946  1.0
  Sb  Sb414  1  0.27698783  0.01984489  0.08971161  1.0
  Sb  Sb415  1  0.27698783  0.35317823  0.08971161  1.0
  Sb  Sb416  1  0.27698783  0.68651156  0.08971161  1.0
  Sb  Sb417  1  0.61032117  0.01984489  0.08971161  1.0
  Sb  Sb418  1  0.61032117  0.35317823  0.08971161  1.0
  Sb  Sb419  1  0.61032117  0.68651156  0.08971161  1.0
  Sb  Sb420  1  0.94365450  0.01984489  0.08971161  1.0
  Sb  Sb421  1  0.94365450  0.35317823  0.08971161  1.0
  Sb  Sb422  1  0.94365450  0.68651156  0.08971161  1.0
  Sb  Sb423  1  0.11032117  0.25794013  0.01828304  1.0
  Sb  Sb424  1  0.11032117  0.59127346  0.01828304  1.0
  Sb  Sb425  1  0.11032117  0.92460680  0.01828304  1.0
  Sb  Sb426  1  0.44365450  0.25794013  0.01828304  1.0
  Sb  Sb427  1  0.44365450  0.59127346  0.01828304  1.0
  Sb  Sb428  1  0.44365450  0.92460680  0.01828304  1.0
  Sb  Sb429  1  0.77698783  0.25794013  0.01828304  1.0
  Sb  Sb430  1  0.77698783  0.59127346  0.01828304  1.0
  Sb  Sb431  1  0.77698783  0.92460680  0.01828304  1.0
  Sb  Sb432  1  0.02660550  0.31449327  0.26608789  1.0
  Sb  Sb433  1  0.02660550  0.64782661  0.26608789  1.0
  Sb  Sb434  1  0.02660550  0.98115994  0.26608789  1.0
  Sb  Sb435  1  0.35993883  0.31449327  0.26608789  1.0
  Sb  Sb436  1  0.35993883  0.64782661  0.26608789  1.0
  Sb  Sb437  1  0.35993883  0.98115994  0.26608789  1.0
  Sb  Sb438  1  0.69327217  0.31449327  0.26608789  1.0
  Sb  Sb439  1  0.69327217  0.64782661  0.26608789  1.0
  Sb  Sb440  1  0.69327217  0.98115994  0.26608789  1.0
  Sb  Sb441  1  0.19327217  0.21925518  0.19465932  1.0
  Sb  Sb442  1  0.19327217  0.55258851  0.19465932  1.0
  Sb  Sb443  1  0.19327217  0.88592185  0.19465932  1.0
  Sb  Sb444  1  0.52660550  0.21925518  0.19465932  1.0
  Sb  Sb445  1  0.52660550  0.55258851  0.19465932  1.0
  Sb  Sb446  1  0.52660550  0.88592185  0.19465932  1.0
  Sb  Sb447  1  0.85993883  0.21925518  0.19465932  1.0
  Sb  Sb448  1  0.85993883  0.55258851  0.19465932  1.0
  Sb  Sb449  1  0.85993883  0.88592185  0.19465932  1.0
  Sb  Sb450  1  0.30672783  0.26800994  0.15140889  1.0
  Sb  Sb451  1  0.30672783  0.60134327  0.15140889  1.0
  Sb  Sb452  1  0.30672783  0.93467661  0.15140889  1.0
  Sb  Sb453  1  0.64006117  0.26800994  0.15140889  1.0
  Sb  Sb454  1  0.64006117  0.60134327  0.15140889  1.0
  Sb  Sb455  1  0.64006117  0.93467661  0.15140889  1.0
  Sb  Sb456  1  0.97339450  0.26800994  0.15140889  1.0
  Sb  Sb457  1  0.97339450  0.60134327  0.15140889  1.0
  Sb  Sb458  1  0.97339450  0.93467661  0.15140889  1.0
  Sb  Sb459  1  0.14006117  0.02991470  0.22283746  1.0
  Sb  Sb460  1  0.14006117  0.36324804  0.22283746  1.0
  Sb  Sb461  1  0.14006117  0.69658137  0.22283746  1.0
  Sb  Sb462  1  0.47339450  0.02991470  0.22283746  1.0
  Sb  Sb463  1  0.47339450  0.36324804  0.22283746  1.0
  Sb  Sb464  1  0.47339450  0.69658137  0.22283746  1.0
  Sb  Sb465  1  0.80672783  0.02991470  0.22283746  1.0
  Sb  Sb466  1  0.80672783  0.36324804  0.22283746  1.0
  Sb  Sb467  1  0.80672783  0.69658137  0.22283746  1.0
  Sb  Sb468  1  0.30672783  0.32969642  0.19767375  1.0
  Sb  Sb469  1  0.30672783  0.66302975  0.19767375  1.0
  Sb  Sb470  1  0.30672783  0.99636308  0.19767375  1.0
  Sb  Sb471  1  0.64006117  0.32969642  0.19767375  1.0
  Sb  Sb472  1  0.64006117  0.66302975  0.19767375  1.0
  Sb  Sb473  1  0.64006117  0.99636308  0.19767375  1.0
  Sb  Sb474  1  0.97339450  0.32969642  0.19767375  1.0
  Sb  Sb475  1  0.97339450  0.66302975  0.19767375  1.0
  Sb  Sb476  1  0.97339450  0.99636308  0.19767375  1.0
  Sb  Sb477  1  0.14006117  0.09160118  0.26910232  1.0
  Sb  Sb478  1  0.14006117  0.42493451  0.26910232  1.0
  Sb  Sb479  1  0.14006117  0.75826785  0.26910232  1.0
  Sb  Sb480  1  0.47339450  0.09160118  0.26910232  1.0
  Sb  Sb481  1  0.47339450  0.42493451  0.26910232  1.0
  Sb  Sb482  1  0.47339450  0.75826785  0.26910232  1.0
  Sb  Sb483  1  0.80672783  0.09160118  0.26910232  1.0
  Sb  Sb484  1  0.80672783  0.42493451  0.26910232  1.0
  Sb  Sb485  1  0.80672783  0.75826785  0.26910232  1.0
  Sb  Sb486  1  0.02660550  0.25280680  0.21982304  1.0
  Sb  Sb487  1  0.02660550  0.58614013  0.21982304  1.0
  Sb  Sb488  1  0.02660550  0.91947346  0.21982304  1.0
  Sb  Sb489  1  0.35993883  0.25280680  0.21982304  1.0
  Sb  Sb490  1  0.35993883  0.58614013  0.21982304  1.0
  Sb  Sb491  1  0.35993883  0.91947346  0.21982304  1.0
  Sb  Sb492  1  0.69327217  0.25280680  0.21982304  1.0
  Sb  Sb493  1  0.69327217  0.58614013  0.21982304  1.0
  Sb  Sb494  1  0.69327217  0.91947346  0.21982304  1.0
  Sb  Sb495  1  0.19327217  0.15756870  0.14839446  1.0
  Sb  Sb496  1  0.19327217  0.49090204  0.14839446  1.0
  Sb  Sb497  1  0.19327217  0.82423537  0.14839446  1.0
  Sb  Sb498  1  0.52660550  0.15756870  0.14839446  1.0
  Sb  Sb499  1  0.52660550  0.49090204  0.14839446  1.0
  Sb  Sb500  1  0.52660550  0.82423537  0.14839446  1.0
  Sb  Sb501  1  0.85993883  0.15756870  0.14839446  1.0
  Sb  Sb502  1  0.85993883  0.49090204  0.14839446  1.0
  Sb  Sb503  1  0.85993883  0.82423537  0.14839446  1.0
  Sb  Sb504  1  0.08371567  0.29974875  0.17051125  1.0
  Sb  Sb505  1  0.08371567  0.63308208  0.17051125  1.0
  Sb  Sb506  1  0.08371567  0.96641542  0.17051125  1.0
  Sb  Sb507  1  0.41704900  0.29974875  0.17051125  1.0
  Sb  Sb508  1  0.41704900  0.63308208  0.17051125  1.0
  Sb  Sb509  1  0.41704900  0.96641542  0.17051125  1.0
  Sb  Sb510  1  0.75038233  0.29974875  0.17051125  1.0
  Sb  Sb511  1  0.75038233  0.63308208  0.17051125  1.0
  Sb  Sb512  1  0.75038233  0.96641542  0.17051125  1.0
  Sb  Sb513  1  0.25038233  0.06165351  0.24193982  1.0
  Sb  Sb514  1  0.25038233  0.39498685  0.24193982  1.0
  Sb  Sb515  1  0.25038233  0.72832018  0.24193982  1.0
  Sb  Sb516  1  0.58371567  0.06165351  0.24193982  1.0
  Sb  Sb517  1  0.58371567  0.39498685  0.24193982  1.0
  Sb  Sb518  1  0.58371567  0.72832018  0.24193982  1.0
  Sb  Sb519  1  0.91704900  0.06165351  0.24193982  1.0
  Sb  Sb520  1  0.91704900  0.39498685  0.24193982  1.0
  Sb  Sb521  1  0.91704900  0.72832018  0.24193982  1.0
  Sb  Sb522  1  0.24961767  0.28275446  0.24698554  1.0
  Sb  Sb523  1  0.24961767  0.61608780  0.24698554  1.0
  Sb  Sb524  1  0.24961767  0.94942113  0.24698554  1.0
  Sb  Sb525  1  0.58295100  0.28275446  0.24698554  1.0
  Sb  Sb526  1  0.58295100  0.61608780  0.24698554  1.0
  Sb  Sb527  1  0.58295100  0.94942113  0.24698554  1.0
  Sb  Sb528  1  0.91628433  0.28275446  0.24698554  1.0
  Sb  Sb529  1  0.91628433  0.61608780  0.24698554  1.0
  Sb  Sb530  1  0.91628433  0.94942113  0.24698554  1.0
  Sb  Sb531  1  0.08295100  0.18751637  0.17555696  1.0
  Sb  Sb532  1  0.08295100  0.52084970  0.17555696  1.0
  Sb  Sb533  1  0.08295100  0.85418304  0.17555696  1.0
  Sb  Sb534  1  0.41628433  0.18751637  0.17555696  1.0
  Sb  Sb535  1  0.41628433  0.52084970  0.17555696  1.0
  Sb  Sb536  1  0.41628433  0.85418304  0.17555696  1.0
  Sb  Sb537  1  0.74961767  0.18751637  0.17555696  1.0
  Sb  Sb538  1  0.74961767  0.52084970  0.17555696  1.0
  Sb  Sb539  1  0.74961767  0.85418304  0.17555696  1.0
  Sb  Sb540  1  0.30359333  0.07685665  0.17352568  1.0
  Sb  Sb541  1  0.30359333  0.41018999  0.17352568  1.0
  Sb  Sb542  1  0.30359333  0.74352332  0.17352568  1.0
  Sb  Sb543  1  0.63692667  0.07685665  0.17352568  1.0
  Sb  Sb544  1  0.63692667  0.41018999  0.17352568  1.0
  Sb  Sb545  1  0.63692667  0.74352332  0.17352568  1.0
  Sb  Sb546  1  0.97026000  0.07685665  0.17352568  1.0
  Sb  Sb547  1  0.97026000  0.41018999  0.17352568  1.0
  Sb  Sb548  1  0.97026000  0.74352332  0.17352568  1.0
  Sb  Sb549  1  0.13692667  0.17209475  0.24495425  1.0
  Sb  Sb550  1  0.13692667  0.50542808  0.24495425  1.0
  Sb  Sb551  1  0.13692667  0.83876142  0.24495425  1.0
  Sb  Sb552  1  0.47026000  0.17209475  0.24495425  1.0
  Sb  Sb553  1  0.47026000  0.50542808  0.24495425  1.0
  Sb  Sb554  1  0.47026000  0.83876142  0.24495425  1.0
  Sb  Sb555  1  0.80359333  0.17209475  0.24495425  1.0
  Sb  Sb556  1  0.80359333  0.50542808  0.24495425  1.0
  Sb  Sb557  1  0.80359333  0.83876142  0.24495425  1.0
  Sb  Sb558  1  0.02974000  0.17231323  0.24397111  1.0
  Sb  Sb559  1  0.02974000  0.50564656  0.24397111  1.0
  Sb  Sb560  1  0.02974000  0.83897989  0.24397111  1.0
  Sb  Sb561  1  0.36307333  0.17231323  0.24397111  1.0
  Sb  Sb562  1  0.36307333  0.50564656  0.24397111  1.0
  Sb  Sb563  1  0.36307333  0.83897989  0.24397111  1.0
  Sb  Sb564  1  0.69640667  0.17231323  0.24397111  1.0
  Sb  Sb565  1  0.69640667  0.50564656  0.24397111  1.0
  Sb  Sb566  1  0.69640667  0.83897989  0.24397111  1.0
  Sb  Sb567  1  0.19640667  0.07707513  0.17254254  1.0
  Sb  Sb568  1  0.19640667  0.41040846  0.17254254  1.0
  Sb  Sb569  1  0.19640667  0.74374180  0.17254254  1.0
  Sb  Sb570  1  0.52974000  0.07707513  0.17254254  1.0
  Sb  Sb571  1  0.52974000  0.41040846  0.17254254  1.0
  Sb  Sb572  1  0.52974000  0.74374180  0.17254254  1.0
  Sb  Sb573  1  0.86307333  0.07707513  0.17254254  1.0
  Sb  Sb574  1  0.86307333  0.41040846  0.17254254  1.0
  Sb  Sb575  1  0.86307333  0.74374180  0.17254254  1.0
  Sb  Sb576  1  0.22301217  0.00442327  0.15910889  1.0
  Sb  Sb577  1  0.22301217  0.33775661  0.15910889  1.0
  Sb  Sb578  1  0.22301217  0.67108994  0.15910889  1.0
  Sb  Sb579  1  0.55634550  0.00442327  0.15910889  1.0
  Sb  Sb580  1  0.55634550  0.33775661  0.15910889  1.0
  Sb  Sb581  1  0.55634550  0.67108994  0.15910889  1.0
  Sb  Sb582  1  0.88967883  0.00442327  0.15910889  1.0
  Sb  Sb583  1  0.88967883  0.33775661  0.15910889  1.0
  Sb  Sb584  1  0.88967883  0.67108994  0.15910889  1.0
  Sb  Sb585  1  0.05634550  0.09966137  0.23053746  1.0
  Sb  Sb586  1  0.05634550  0.43299470  0.23053746  1.0
  Sb  Sb587  1  0.05634550  0.76632804  0.23053746  1.0
  Sb  Sb588  1  0.38967883  0.09966137  0.23053746  1.0
  Sb  Sb589  1  0.38967883  0.43299470  0.23053746  1.0
  Sb  Sb590  1  0.38967883  0.76632804  0.23053746  1.0
  Sb  Sb591  1  0.72301217  0.09966137  0.23053746  1.0
  Sb  Sb592  1  0.72301217  0.43299470  0.23053746  1.0
  Sb  Sb593  1  0.72301217  0.76632804  0.23053746  1.0
  Sb  Sb594  1  0.11032117  0.24474661  0.25838789  1.0
  Sb  Sb595  1  0.11032117  0.57807994  0.25838789  1.0
  Sb  Sb596  1  0.11032117  0.91141327  0.25838789  1.0
  Sb  Sb597  1  0.44365450  0.24474661  0.25838789  1.0
  Sb  Sb598  1  0.44365450  0.57807994  0.25838789  1.0
  Sb  Sb599  1  0.44365450  0.91141327  0.25838789  1.0
  Sb  Sb600  1  0.77698783  0.24474661  0.25838789  1.0
  Sb  Sb601  1  0.77698783  0.57807994  0.25838789  1.0
  Sb  Sb602  1  0.77698783  0.91141327  0.25838789  1.0
  Sb  Sb603  1  0.27698783  0.14950851  0.18695932  1.0
  Sb  Sb604  1  0.27698783  0.48284185  0.18695932  1.0
  Sb  Sb605  1  0.27698783  0.81617518  0.18695932  1.0
  Sb  Sb606  1  0.61032117  0.14950851  0.18695932  1.0
  Sb  Sb607  1  0.61032117  0.48284185  0.18695932  1.0
  Sb  Sb608  1  0.61032117  0.81617518  0.18695932  1.0
  Sb  Sb609  1  0.94365450  0.14950851  0.18695932  1.0
  Sb  Sb610  1  0.94365450  0.48284185  0.18695932  1.0
  Sb  Sb611  1  0.94365450  0.81617518  0.18695932  1.0
  Sb  Sb612  1  0.05634550  0.03884880  0.18492804  1.0
  Sb  Sb613  1  0.05634550  0.37218213  0.18492804  1.0
  Sb  Sb614  1  0.05634550  0.70551546  0.18492804  1.0
  Sb  Sb615  1  0.38967883  0.03884880  0.18492804  1.0
  Sb  Sb616  1  0.38967883  0.37218213  0.18492804  1.0
  Sb  Sb617  1  0.38967883  0.70551546  0.18492804  1.0
  Sb  Sb618  1  0.72301217  0.03884880  0.18492804  1.0
  Sb  Sb619  1  0.72301217  0.37218213  0.18492804  1.0
  Sb  Sb620  1  0.72301217  0.70551546  0.18492804  1.0
  Sb  Sb621  1  0.22301217  0.13408689  0.25635661  1.0
  Sb  Sb622  1  0.22301217  0.46742023  0.25635661  1.0
  Sb  Sb623  1  0.22301217  0.80075356  0.25635661  1.0
  Sb  Sb624  1  0.55634550  0.13408689  0.25635661  1.0
  Sb  Sb625  1  0.55634550  0.46742023  0.25635661  1.0
  Sb  Sb626  1  0.55634550  0.80075356  0.25635661  1.0
  Sb  Sb627  1  0.88967883  0.13408689  0.25635661  1.0
  Sb  Sb628  1  0.88967883  0.46742023  0.25635661  1.0
  Sb  Sb629  1  0.88967883  0.80075356  0.25635661  1.0
  Sb  Sb630  1  0.27698783  0.21032108  0.23256875  1.0
  Sb  Sb631  1  0.27698783  0.54365442  0.23256875  1.0
  Sb  Sb632  1  0.27698783  0.87698775  0.23256875  1.0
  Sb  Sb633  1  0.61032117  0.21032108  0.23256875  1.0
  Sb  Sb634  1  0.61032117  0.54365442  0.23256875  1.0
  Sb  Sb635  1  0.61032117  0.87698775  0.23256875  1.0
  Sb  Sb636  1  0.94365450  0.21032108  0.23256875  1.0
  Sb  Sb637  1  0.94365450  0.54365442  0.23256875  1.0
  Sb  Sb638  1  0.94365450  0.87698775  0.23256875  1.0
  Sb  Sb639  1  0.11032117  0.11508299  0.16114018  1.0
  Sb  Sb640  1  0.11032117  0.44841632  0.16114018  1.0
  Sb  Sb641  1  0.11032117  0.78174965  0.16114018  1.0
  Sb  Sb642  1  0.44365450  0.11508299  0.16114018  1.0
  Sb  Sb643  1  0.44365450  0.44841632  0.16114018  1.0
  Sb  Sb644  1  0.44365450  0.78174965  0.16114018  1.0
  Sb  Sb645  1  0.77698783  0.11508299  0.16114018  1.0
  Sb  Sb646  1  0.77698783  0.44841632  0.16114018  1.0
  Sb  Sb647  1  0.77698783  0.78174965  0.16114018  1.0
  Sb  Sb648  1  0.02660550  0.17163613  0.40894504  1.0
  Sb  Sb649  1  0.02660550  0.50496946  0.40894504  1.0
  Sb  Sb650  1  0.02660550  0.83830280  0.40894504  1.0
  Sb  Sb651  1  0.35993883  0.17163613  0.40894504  1.0
  Sb  Sb652  1  0.35993883  0.50496946  0.40894504  1.0
  Sb  Sb653  1  0.35993883  0.83830280  0.40894504  1.0
  Sb  Sb654  1  0.69327217  0.17163613  0.40894504  1.0
  Sb  Sb655  1  0.69327217  0.50496946  0.40894504  1.0
  Sb  Sb656  1  0.69327217  0.83830280  0.40894504  1.0
  Sb  Sb657  1  0.19327217  0.07639804  0.33751646  1.0
  Sb  Sb658  1  0.19327217  0.40973137  0.33751646  1.0
  Sb  Sb659  1  0.19327217  0.74306470  0.33751646  1.0
  Sb  Sb660  1  0.52660550  0.07639804  0.33751646  1.0
  Sb  Sb661  1  0.52660550  0.40973137  0.33751646  1.0
  Sb  Sb662  1  0.52660550  0.74306470  0.33751646  1.0
  Sb  Sb663  1  0.85993883  0.07639804  0.33751646  1.0
  Sb  Sb664  1  0.85993883  0.40973137  0.33751646  1.0
  Sb  Sb665  1  0.85993883  0.74306470  0.33751646  1.0
  Sb  Sb666  1  0.30672783  0.12515280  0.29426604  1.0
  Sb  Sb667  1  0.30672783  0.45848613  0.29426604  1.0
  Sb  Sb668  1  0.30672783  0.79181946  0.29426604  1.0
  Sb  Sb669  1  0.64006117  0.12515280  0.29426604  1.0
  Sb  Sb670  1  0.64006117  0.45848613  0.29426604  1.0
  Sb  Sb671  1  0.64006117  0.79181946  0.29426604  1.0
  Sb  Sb672  1  0.97339450  0.12515280  0.29426604  1.0
  Sb  Sb673  1  0.97339450  0.45848613  0.29426604  1.0
  Sb  Sb674  1  0.97339450  0.79181946  0.29426604  1.0
  Sb  Sb675  1  0.14006117  0.22039089  0.36569461  1.0
  Sb  Sb676  1  0.14006117  0.55372423  0.36569461  1.0
  Sb  Sb677  1  0.14006117  0.88705756  0.36569461  1.0
  Sb  Sb678  1  0.47339450  0.22039089  0.36569461  1.0
  Sb  Sb679  1  0.47339450  0.55372423  0.36569461  1.0
  Sb  Sb680  1  0.47339450  0.88705756  0.36569461  1.0
  Sb  Sb681  1  0.80672783  0.22039089  0.36569461  1.0
  Sb  Sb682  1  0.80672783  0.55372423  0.36569461  1.0
  Sb  Sb683  1  0.80672783  0.88705756  0.36569461  1.0
  Sb  Sb684  1  0.30672783  0.18683927  0.34053089  1.0
  Sb  Sb685  1  0.30672783  0.52017261  0.34053089  1.0
  Sb  Sb686  1  0.30672783  0.85350594  0.34053089  1.0
  Sb  Sb687  1  0.64006117  0.18683927  0.34053089  1.0
  Sb  Sb688  1  0.64006117  0.52017261  0.34053089  1.0
  Sb  Sb689  1  0.64006117  0.85350594  0.34053089  1.0
  Sb  Sb690  1  0.97339450  0.18683927  0.34053089  1.0
  Sb  Sb691  1  0.97339450  0.52017261  0.34053089  1.0
  Sb  Sb692  1  0.97339450  0.85350594  0.34053089  1.0
  Sb  Sb693  1  0.14006117  0.28207737  0.41195946  1.0
  Sb  Sb694  1  0.14006117  0.61541070  0.41195946  1.0
  Sb  Sb695  1  0.14006117  0.94874404  0.41195946  1.0
  Sb  Sb696  1  0.47339450  0.28207737  0.41195946  1.0
  Sb  Sb697  1  0.47339450  0.61541070  0.41195946  1.0
  Sb  Sb698  1  0.47339450  0.94874404  0.41195946  1.0
  Sb  Sb699  1  0.80672783  0.28207737  0.41195946  1.0
  Sb  Sb700  1  0.80672783  0.61541070  0.41195946  1.0
  Sb  Sb701  1  0.80672783  0.94874404  0.41195946  1.0
  Sb  Sb702  1  0.02660550  0.10994965  0.36268018  1.0
  Sb  Sb703  1  0.02660550  0.44328299  0.36268018  1.0
  Sb  Sb704  1  0.02660550  0.77661632  0.36268018  1.0
  Sb  Sb705  1  0.35993883  0.10994965  0.36268018  1.0
  Sb  Sb706  1  0.35993883  0.44328299  0.36268018  1.0
  Sb  Sb707  1  0.35993883  0.77661632  0.36268018  1.0
  Sb  Sb708  1  0.69327217  0.10994965  0.36268018  1.0
  Sb  Sb709  1  0.69327217  0.44328299  0.36268018  1.0
  Sb  Sb710  1  0.69327217  0.77661632  0.36268018  1.0
  Sb  Sb711  1  0.19327217  0.01471156  0.29125161  1.0
  Sb  Sb712  1  0.19327217  0.34804489  0.29125161  1.0
  Sb  Sb713  1  0.19327217  0.68137823  0.29125161  1.0
  Sb  Sb714  1  0.52660550  0.01471156  0.29125161  1.0
  Sb  Sb715  1  0.52660550  0.34804489  0.29125161  1.0
  Sb  Sb716  1  0.52660550  0.68137823  0.29125161  1.0
  Sb  Sb717  1  0.85993883  0.01471156  0.29125161  1.0
  Sb  Sb718  1  0.85993883  0.34804489  0.29125161  1.0
  Sb  Sb719  1  0.85993883  0.68137823  0.29125161  1.0
  Sb  Sb720  1  0.08371567  0.15689161  0.31336839  1.0
  Sb  Sb721  1  0.08371567  0.49022494  0.31336839  1.0
  Sb  Sb722  1  0.08371567  0.82355827  0.31336839  1.0
  Sb  Sb723  1  0.41704900  0.15689161  0.31336839  1.0
  Sb  Sb724  1  0.41704900  0.49022494  0.31336839  1.0
  Sb  Sb725  1  0.41704900  0.82355827  0.31336839  1.0
  Sb  Sb726  1  0.75038233  0.15689161  0.31336839  1.0
  Sb  Sb727  1  0.75038233  0.49022494  0.31336839  1.0
  Sb  Sb728  1  0.75038233  0.82355827  0.31336839  1.0
  Sb  Sb729  1  0.25038233  0.25212970  0.38479696  1.0
  Sb  Sb730  1  0.25038233  0.58546304  0.38479696  1.0
  Sb  Sb731  1  0.25038233  0.91879637  0.38479696  1.0
  Sb  Sb732  1  0.58371567  0.25212970  0.38479696  1.0
  Sb  Sb733  1  0.58371567  0.58546304  0.38479696  1.0
  Sb  Sb734  1  0.58371567  0.91879637  0.38479696  1.0
  Sb  Sb735  1  0.91704900  0.25212970  0.38479696  1.0
  Sb  Sb736  1  0.91704900  0.58546304  0.38479696  1.0
  Sb  Sb737  1  0.91704900  0.91879637  0.38479696  1.0
  Sb  Sb738  1  0.24961767  0.13989732  0.38984268  1.0
  Sb  Sb739  1  0.24961767  0.47323065  0.38984268  1.0
  Sb  Sb740  1  0.24961767  0.80656399  0.38984268  1.0
  Sb  Sb741  1  0.58295100  0.13989732  0.38984268  1.0
  Sb  Sb742  1  0.58295100  0.47323065  0.38984268  1.0
  Sb  Sb743  1  0.58295100  0.80656399  0.38984268  1.0
  Sb  Sb744  1  0.91628433  0.13989732  0.38984268  1.0
  Sb  Sb745  1  0.91628433  0.47323065  0.38984268  1.0
  Sb  Sb746  1  0.91628433  0.80656399  0.38984268  1.0
  Sb  Sb747  1  0.08295100  0.04465923  0.31841411  1.0
  Sb  Sb748  1  0.08295100  0.37799256  0.31841411  1.0
  Sb  Sb749  1  0.08295100  0.71132589  0.31841411  1.0
  Sb  Sb750  1  0.41628433  0.04465923  0.31841411  1.0
  Sb  Sb751  1  0.41628433  0.37799256  0.31841411  1.0
  Sb  Sb752  1  0.41628433  0.71132589  0.31841411  1.0
  Sb  Sb753  1  0.74961767  0.04465923  0.31841411  1.0
  Sb  Sb754  1  0.74961767  0.37799256  0.31841411  1.0
  Sb  Sb755  1  0.74961767  0.71132589  0.31841411  1.0
  Sb  Sb756  1  0.30359333  0.26733285  0.31638282  1.0
  Sb  Sb757  1  0.30359333  0.60066618  0.31638282  1.0
  Sb  Sb758  1  0.30359333  0.93399951  0.31638282  1.0
  Sb  Sb759  1  0.63692667  0.26733285  0.31638282  1.0
  Sb  Sb760  1  0.63692667  0.60066618  0.31638282  1.0
  Sb  Sb761  1  0.63692667  0.93399951  0.31638282  1.0
  Sb  Sb762  1  0.97026000  0.26733285  0.31638282  1.0
  Sb  Sb763  1  0.97026000  0.60066618  0.31638282  1.0
  Sb  Sb764  1  0.97026000  0.93399951  0.31638282  1.0
  Sb  Sb765  1  0.13692667  0.02923761  0.38781139  1.0
  Sb  Sb766  1  0.13692667  0.36257094  0.38781139  1.0
  Sb  Sb767  1  0.13692667  0.69590427  0.38781139  1.0
  Sb  Sb768  1  0.47026000  0.02923761  0.38781139  1.0
  Sb  Sb769  1  0.47026000  0.36257094  0.38781139  1.0
  Sb  Sb770  1  0.47026000  0.69590427  0.38781139  1.0
  Sb  Sb771  1  0.80359333  0.02923761  0.38781139  1.0
  Sb  Sb772  1  0.80359333  0.36257094  0.38781139  1.0
  Sb  Sb773  1  0.80359333  0.69590427  0.38781139  1.0
  Sb  Sb774  1  0.02974000  0.02945608  0.38682825  1.0
  Sb  Sb775  1  0.02974000  0.36278942  0.38682825  1.0
  Sb  Sb776  1  0.02974000  0.69612275  0.38682825  1.0
  Sb  Sb777  1  0.36307333  0.02945608  0.38682825  1.0
  Sb  Sb778  1  0.36307333  0.36278942  0.38682825  1.0
  Sb  Sb779  1  0.36307333  0.69612275  0.38682825  1.0
  Sb  Sb780  1  0.69640667  0.02945608  0.38682825  1.0
  Sb  Sb781  1  0.69640667  0.36278942  0.38682825  1.0
  Sb  Sb782  1  0.69640667  0.69612275  0.38682825  1.0
  Sb  Sb783  1  0.19640667  0.26755132  0.31539968  1.0
  Sb  Sb784  1  0.19640667  0.60088465  0.31539968  1.0
  Sb  Sb785  1  0.19640667  0.93421799  0.31539968  1.0
  Sb  Sb786  1  0.52974000  0.26755132  0.31539968  1.0
  Sb  Sb787  1  0.52974000  0.60088465  0.31539968  1.0
  Sb  Sb788  1  0.52974000  0.93421799  0.31539968  1.0
  Sb  Sb789  1  0.86307333  0.26755132  0.31539968  1.0
  Sb  Sb790  1  0.86307333  0.60088465  0.31539968  1.0
  Sb  Sb791  1  0.86307333  0.93421799  0.31539968  1.0
  Sb  Sb792  1  0.22301217  0.19489946  0.30196604  1.0
  Sb  Sb793  1  0.22301217  0.52823280  0.30196604  1.0
  Sb  Sb794  1  0.22301217  0.86156613  0.30196604  1.0
  Sb  Sb795  1  0.55634550  0.19489946  0.30196604  1.0
  Sb  Sb796  1  0.55634550  0.52823280  0.30196604  1.0
  Sb  Sb797  1  0.55634550  0.86156613  0.30196604  1.0
  Sb  Sb798  1  0.88967883  0.19489946  0.30196604  1.0
  Sb  Sb799  1  0.88967883  0.52823280  0.30196604  1.0
  Sb  Sb800  1  0.88967883  0.86156613  0.30196604  1.0
  Sb  Sb801  1  0.05634550  0.29013756  0.37339461  1.0
  Sb  Sb802  1  0.05634550  0.62347089  0.37339461  1.0
  Sb  Sb803  1  0.05634550  0.95680423  0.37339461  1.0
  Sb  Sb804  1  0.38967883  0.29013756  0.37339461  1.0
  Sb  Sb805  1  0.38967883  0.62347089  0.37339461  1.0
  Sb  Sb806  1  0.38967883  0.95680423  0.37339461  1.0
  Sb  Sb807  1  0.72301217  0.29013756  0.37339461  1.0
  Sb  Sb808  1  0.72301217  0.62347089  0.37339461  1.0
  Sb  Sb809  1  0.72301217  0.95680423  0.37339461  1.0
  Sb  Sb810  1  0.11032117  0.10188946  0.40124504  1.0
  Sb  Sb811  1  0.11032117  0.43522280  0.40124504  1.0
  Sb  Sb812  1  0.11032117  0.76855613  0.40124504  1.0
  Sb  Sb813  1  0.44365450  0.10188946  0.40124504  1.0
  Sb  Sb814  1  0.44365450  0.43522280  0.40124504  1.0
  Sb  Sb815  1  0.44365450  0.76855613  0.40124504  1.0
  Sb  Sb816  1  0.77698783  0.10188946  0.40124504  1.0
  Sb  Sb817  1  0.77698783  0.43522280  0.40124504  1.0
  Sb  Sb818  1  0.77698783  0.76855613  0.40124504  1.0
  Sb  Sb819  1  0.27698783  0.00665137  0.32981646  1.0
  Sb  Sb820  1  0.27698783  0.33998470  0.32981646  1.0
  Sb  Sb821  1  0.27698783  0.67331804  0.32981646  1.0
  Sb  Sb822  1  0.61032117  0.00665137  0.32981646  1.0
  Sb  Sb823  1  0.61032117  0.33998470  0.32981646  1.0
  Sb  Sb824  1  0.61032117  0.67331804  0.32981646  1.0
  Sb  Sb825  1  0.94365450  0.00665137  0.32981646  1.0
  Sb  Sb826  1  0.94365450  0.33998470  0.32981646  1.0
  Sb  Sb827  1  0.94365450  0.67331804  0.32981646  1.0
  Sb  Sb828  1  0.05634550  0.22932499  0.32778518  1.0
  Sb  Sb829  1  0.05634550  0.56265832  0.32778518  1.0
  Sb  Sb830  1  0.05634550  0.89599165  0.32778518  1.0
  Sb  Sb831  1  0.38967883  0.22932499  0.32778518  1.0
  Sb  Sb832  1  0.38967883  0.56265832  0.32778518  1.0
  Sb  Sb833  1  0.38967883  0.89599165  0.32778518  1.0
  Sb  Sb834  1  0.72301217  0.22932499  0.32778518  1.0
  Sb  Sb835  1  0.72301217  0.56265832  0.32778518  1.0
  Sb  Sb836  1  0.72301217  0.89599165  0.32778518  1.0
  Sb  Sb837  1  0.22301217  0.32456308  0.39921375  1.0
  Sb  Sb838  1  0.22301217  0.65789642  0.39921375  1.0
  Sb  Sb839  1  0.22301217  0.99122975  0.39921375  1.0
  Sb  Sb840  1  0.55634550  0.32456308  0.39921375  1.0
  Sb  Sb841  1  0.55634550  0.65789642  0.39921375  1.0
  Sb  Sb842  1  0.55634550  0.99122975  0.39921375  1.0
  Sb  Sb843  1  0.88967883  0.32456308  0.39921375  1.0
  Sb  Sb844  1  0.88967883  0.65789642  0.39921375  1.0
  Sb  Sb845  1  0.88967883  0.99122975  0.39921375  1.0
  Sb  Sb846  1  0.27698783  0.06746394  0.37542589  1.0
  Sb  Sb847  1  0.27698783  0.40079727  0.37542589  1.0
  Sb  Sb848  1  0.27698783  0.73413061  0.37542589  1.0
  Sb  Sb849  1  0.61032117  0.06746394  0.37542589  1.0
  Sb  Sb850  1  0.61032117  0.40079727  0.37542589  1.0
  Sb  Sb851  1  0.61032117  0.73413061  0.37542589  1.0
  Sb  Sb852  1  0.94365450  0.06746394  0.37542589  1.0
  Sb  Sb853  1  0.94365450  0.40079727  0.37542589  1.0
  Sb  Sb854  1  0.94365450  0.73413061  0.37542589  1.0
  Sb  Sb855  1  0.11032117  0.30555918  0.30399732  1.0
  Sb  Sb856  1  0.11032117  0.63889251  0.30399732  1.0
  Sb  Sb857  1  0.11032117  0.97222585  0.30399732  1.0
  Sb  Sb858  1  0.44365450  0.30555918  0.30399732  1.0
  Sb  Sb859  1  0.44365450  0.63889251  0.30399732  1.0
  Sb  Sb860  1  0.44365450  0.97222585  0.30399732  1.0
  Sb  Sb861  1  0.77698783  0.30555918  0.30399732  1.0
  Sb  Sb862  1  0.77698783  0.63889251  0.30399732  1.0
  Sb  Sb863  1  0.77698783  0.97222585  0.30399732  1.0
