# generated using pymatgen
data_NiSn
_symmetry_space_group_name_H-M   'P 1'
_cell_length_a   15.68786100
_cell_length_b   75.90239594
_cell_length_c   28.94122700
_cell_angle_alpha   99.40501255
_cell_angle_beta   90.00000000
_cell_angle_gamma   90.00000000
_symmetry_Int_Tables_number   1
_chemical_formula_structural   NiSn
_chemical_formula_sum   'Ni432 Sn432'
_cell_volume   33998.41904099
_cell_formula_units_Z   432
loop_
 _symmetry_equiv_pos_site_id
 _symmetry_equiv_pos_as_xyz
  1  'x, y, z'
loop_
 _atom_site_type_symbol
 _atom_site_label
 _atom_site_symmetry_multiplicity
 _atom_site_fract_x
 _atom_site_fract_y
 _atom_site_fract_z
 _atom_site_occupancy
  Ni  Ni0  1  0.23896633  0.13132167  0.05348021  1.0
  Ni  Ni1  1  0.23896633  0.46465500  0.05348021  1.0
  Ni  Ni2  1  0.23896633  0.79798833  0.05348021  1.0
  Ni  Ni3  1  0.57229967  0.13132167  0.05348021  1.0
  Ni  Ni4  1  0.57229967  0.46465500  0.05348021  1.0
  Ni  Ni5  1  0.57229967  0.79798833  0.05348021  1.0
  Ni  Ni6  1  0.90563300  0.13132167  0.05348021  1.0
  Ni  Ni7  1  0.90563300  0.46465500  0.05348021  1.0
  Ni  Ni8  1  0.90563300  0.79798833  0.05348021  1.0
  Ni  Ni9  1  0.07229967  0.03534500  0.01234736  1.0
  Ni  Ni10  1  0.07229967  0.36867833  0.01234736  1.0
  Ni  Ni11  1  0.07229967  0.70201167  0.01234736  1.0
  Ni  Ni12  1  0.40563300  0.03534500  0.01234736  1.0
  Ni  Ni13  1  0.40563300  0.36867833  0.01234736  1.0
  Ni  Ni14  1  0.40563300  0.70201167  0.01234736  1.0
  Ni  Ni15  1  0.73896633  0.03534500  0.01234736  1.0
  Ni  Ni16  1  0.73896633  0.36867833  0.01234736  1.0
  Ni  Ni17  1  0.73896633  0.70201167  0.01234736  1.0
  Ni  Ni18  1  0.07101233  0.08515367  0.10512250  1.0
  Ni  Ni19  1  0.07101233  0.41848700  0.10512250  1.0
  Ni  Ni20  1  0.07101233  0.75182033  0.10512250  1.0
  Ni  Ni21  1  0.40434567  0.08515367  0.10512250  1.0
  Ni  Ni22  1  0.40434567  0.41848700  0.10512250  1.0
  Ni  Ni23  1  0.40434567  0.75182033  0.10512250  1.0
  Ni  Ni24  1  0.73767900  0.08515367  0.10512250  1.0
  Ni  Ni25  1  0.73767900  0.41848700  0.10512250  1.0
  Ni  Ni26  1  0.73767900  0.75182033  0.10512250  1.0
  Ni  Ni27  1  0.00091067  0.21359833  0.01731307  1.0
  Ni  Ni28  1  0.00091067  0.54693167  0.01731307  1.0
  Ni  Ni29  1  0.00091067  0.88026500  0.01731307  1.0
  Ni  Ni30  1  0.33424400  0.21359833  0.01731307  1.0
  Ni  Ni31  1  0.33424400  0.54693167  0.01731307  1.0
  Ni  Ni32  1  0.33424400  0.88026500  0.01731307  1.0
  Ni  Ni33  1  0.66757733  0.21359833  0.01731307  1.0
  Ni  Ni34  1  0.66757733  0.54693167  0.01731307  1.0
  Ni  Ni35  1  0.66757733  0.88026500  0.01731307  1.0
  Ni  Ni36  1  0.16757733  0.28640167  0.04851450  1.0
  Ni  Ni37  1  0.16757733  0.61973500  0.04851450  1.0
  Ni  Ni38  1  0.16757733  0.95306833  0.04851450  1.0
  Ni  Ni39  1  0.50091067  0.28640167  0.04851450  1.0
  Ni  Ni40  1  0.50091067  0.61973500  0.04851450  1.0
  Ni  Ni41  1  0.50091067  0.95306833  0.04851450  1.0
  Ni  Ni42  1  0.83424400  0.28640167  0.04851450  1.0
  Ni  Ni43  1  0.83424400  0.61973500  0.04851450  1.0
  Ni  Ni44  1  0.83424400  0.95306833  0.04851450  1.0
  Ni  Ni45  1  0.09565433  0.25182033  0.03369393  1.0
  Ni  Ni46  1  0.09565433  0.58515367  0.03369393  1.0
  Ni  Ni47  1  0.09565433  0.91848700  0.03369393  1.0
  Ni  Ni48  1  0.42898767  0.25182033  0.03369393  1.0
  Ni  Ni49  1  0.42898767  0.58515367  0.03369393  1.0
  Ni  Ni50  1  0.42898767  0.91848700  0.03369393  1.0
  Ni  Ni51  1  0.76232100  0.25182033  0.03369393  1.0
  Ni  Ni52  1  0.76232100  0.58515367  0.03369393  1.0
  Ni  Ni53  1  0.76232100  0.91848700  0.03369393  1.0
  Ni  Ni54  1  0.00000000  0.16666667  0.06862807  1.0
  Ni  Ni55  1  0.00000000  0.50000000  0.06862807  1.0
  Ni  Ni56  1  0.00000000  0.83333333  0.06862807  1.0
  Ni  Ni57  1  0.33333333  0.16666667  0.06862807  1.0
  Ni  Ni58  1  0.33333333  0.50000000  0.06862807  1.0
  Ni  Ni59  1  0.33333333  0.83333333  0.06862807  1.0
  Ni  Ni60  1  0.66666667  0.16666667  0.06862807  1.0
  Ni  Ni61  1  0.66666667  0.50000000  0.06862807  1.0
  Ni  Ni62  1  0.66666667  0.83333333  0.06862807  1.0
  Ni  Ni63  1  0.33242267  0.11973500  0.11994307  1.0
  Ni  Ni64  1  0.33242267  0.45306833  0.11994307  1.0
  Ni  Ni65  1  0.33242267  0.78640167  0.11994307  1.0
  Ni  Ni66  1  0.66575600  0.11973500  0.11994307  1.0
  Ni  Ni67  1  0.66575600  0.45306833  0.11994307  1.0
  Ni  Ni68  1  0.66575600  0.78640167  0.11994307  1.0
  Ni  Ni69  1  0.99908933  0.11973500  0.11994307  1.0
  Ni  Ni70  1  0.99908933  0.45306833  0.11994307  1.0
  Ni  Ni71  1  0.99908933  0.78640167  0.11994307  1.0
  Ni  Ni72  1  0.26232100  0.24817967  0.03213364  1.0
  Ni  Ni73  1  0.26232100  0.58151300  0.03213364  1.0
  Ni  Ni74  1  0.26232100  0.91484633  0.03213364  1.0
  Ni  Ni75  1  0.59565433  0.24817967  0.03213364  1.0
  Ni  Ni76  1  0.59565433  0.58151300  0.03213364  1.0
  Ni  Ni77  1  0.59565433  0.91484633  0.03213364  1.0
  Ni  Ni78  1  0.92898767  0.24817967  0.03213364  1.0
  Ni  Ni79  1  0.92898767  0.58151300  0.03213364  1.0
  Ni  Ni80  1  0.92898767  0.91484633  0.03213364  1.0
  Ni  Ni81  1  0.26103367  0.29798833  0.12490879  1.0
  Ni  Ni82  1  0.26103367  0.63132167  0.12490879  1.0
  Ni  Ni83  1  0.26103367  0.96465500  0.12490879  1.0
  Ni  Ni84  1  0.59436700  0.29798833  0.12490879  1.0
  Ni  Ni85  1  0.59436700  0.63132167  0.12490879  1.0
  Ni  Ni86  1  0.59436700  0.96465500  0.12490879  1.0
  Ni  Ni87  1  0.92770033  0.29798833  0.12490879  1.0
  Ni  Ni88  1  0.92770033  0.63132167  0.12490879  1.0
  Ni  Ni89  1  0.92770033  0.96465500  0.12490879  1.0
  Ni  Ni90  1  0.23767900  0.08151300  0.10356221  1.0
  Ni  Ni91  1  0.23767900  0.41484633  0.10356221  1.0
  Ni  Ni92  1  0.23767900  0.74817967  0.10356221  1.0
  Ni  Ni93  1  0.57101233  0.08151300  0.10356221  1.0
  Ni  Ni94  1  0.57101233  0.41484633  0.10356221  1.0
  Ni  Ni95  1  0.57101233  0.74817967  0.10356221  1.0
  Ni  Ni96  1  0.90434567  0.08151300  0.10356221  1.0
  Ni  Ni97  1  0.90434567  0.41484633  0.10356221  1.0
  Ni  Ni98  1  0.90434567  0.74817967  0.10356221  1.0
  Ni  Ni99  1  0.09436700  0.20201167  0.08377593  1.0
  Ni  Ni100  1  0.09436700  0.53534500  0.08377593  1.0
  Ni  Ni101  1  0.09436700  0.86867833  0.08377593  1.0
  Ni  Ni102  1  0.42770033  0.20201167  0.08377593  1.0
  Ni  Ni103  1  0.42770033  0.53534500  0.08377593  1.0
  Ni  Ni104  1  0.42770033  0.86867833  0.08377593  1.0
  Ni  Ni105  1  0.76103367  0.20201167  0.08377593  1.0
  Ni  Ni106  1  0.76103367  0.53534500  0.08377593  1.0
  Ni  Ni107  1  0.76103367  0.86867833  0.08377593  1.0
  Ni  Ni108  1  0.16575600  0.04693167  0.08874164  1.0
  Ni  Ni109  1  0.16575600  0.38026500  0.08874164  1.0
  Ni  Ni110  1  0.16575600  0.71359833  0.08874164  1.0
  Ni  Ni111  1  0.49908933  0.04693167  0.08874164  1.0
  Ni  Ni112  1  0.49908933  0.38026500  0.08874164  1.0
  Ni  Ni113  1  0.49908933  0.71359833  0.08874164  1.0
  Ni  Ni114  1  0.83242267  0.04693167  0.08874164  1.0
  Ni  Ni115  1  0.83242267  0.38026500  0.08874164  1.0
  Ni  Ni116  1  0.83242267  0.71359833  0.08874164  1.0
  Ni  Ni117  1  0.00000000  0.00000000  0.14005664  1.0
  Ni  Ni118  1  0.00000000  0.33333333  0.14005664  1.0
  Ni  Ni119  1  0.00000000  0.66666667  0.14005664  1.0
  Ni  Ni120  1  0.33333333  0.00000000  0.14005664  1.0
  Ni  Ni121  1  0.33333333  0.33333333  0.14005664  1.0
  Ni  Ni122  1  0.33333333  0.66666667  0.14005664  1.0
  Ni  Ni123  1  0.66666667  0.00000000  0.14005664  1.0
  Ni  Ni124  1  0.66666667  0.33333333  0.14005664  1.0
  Ni  Ni125  1  0.66666667  0.66666667  0.14005664  1.0
  Ni  Ni126  1  0.16666667  0.16666667  0.06862807  1.0
  Ni  Ni127  1  0.16666667  0.50000000  0.06862807  1.0
  Ni  Ni128  1  0.16666667  0.83333333  0.06862807  1.0
  Ni  Ni129  1  0.50000000  0.16666667  0.06862807  1.0
  Ni  Ni130  1  0.50000000  0.50000000  0.06862807  1.0
  Ni  Ni131  1  0.50000000  0.83333333  0.06862807  1.0
  Ni  Ni132  1  0.83333333  0.16666667  0.06862807  1.0
  Ni  Ni133  1  0.83333333  0.50000000  0.06862807  1.0
  Ni  Ni134  1  0.83333333  0.83333333  0.06862807  1.0
  Ni  Ni135  1  0.16666667  0.00000000  0.14005664  1.0
  Ni  Ni136  1  0.16666667  0.33333333  0.14005664  1.0
  Ni  Ni137  1  0.16666667  0.66666667  0.14005664  1.0
  Ni  Ni138  1  0.50000000  0.00000000  0.14005664  1.0
  Ni  Ni139  1  0.50000000  0.33333333  0.14005664  1.0
  Ni  Ni140  1  0.50000000  0.66666667  0.14005664  1.0
  Ni  Ni141  1  0.83333333  0.00000000  0.14005664  1.0
  Ni  Ni142  1  0.83333333  0.33333333  0.14005664  1.0
  Ni  Ni143  1  0.83333333  0.66666667  0.14005664  1.0
  Sn  Sn144  1  0.08493467  0.01306900  0.07422907  1.0
  Sn  Sn145  1  0.08493467  0.34640233  0.07422907  1.0
  Sn  Sn146  1  0.08493467  0.67973567  0.07422907  1.0
  Sn  Sn147  1  0.41826800  0.01306900  0.07422907  1.0
  Sn  Sn148  1  0.41826800  0.34640233  0.07422907  1.0
  Sn  Sn149  1  0.41826800  0.67973567  0.07422907  1.0
  Sn  Sn150  1  0.75160133  0.01306900  0.07422907  1.0
  Sn  Sn151  1  0.75160133  0.34640233  0.07422907  1.0
  Sn  Sn152  1  0.75160133  0.67973567  0.07422907  1.0
  Sn  Sn153  1  0.09251367  0.30323433  0.12715707  1.0
  Sn  Sn154  1  0.09251367  0.63656767  0.12715707  1.0
  Sn  Sn155  1  0.09251367  0.96990100  0.12715707  1.0
  Sn  Sn156  1  0.42584700  0.30323433  0.12715707  1.0
  Sn  Sn157  1  0.42584700  0.63656767  0.12715707  1.0
  Sn  Sn158  1  0.42584700  0.96990100  0.12715707  1.0
  Sn  Sn159  1  0.75918033  0.30323433  0.12715707  1.0
  Sn  Sn160  1  0.75918033  0.63656767  0.12715707  1.0
  Sn  Sn161  1  0.75918033  0.96990100  0.12715707  1.0
  Sn  Sn162  1  0.24081967  0.03009900  0.01009907  1.0
  Sn  Sn163  1  0.24081967  0.36343233  0.01009907  1.0
  Sn  Sn164  1  0.24081967  0.69676567  0.01009907  1.0
  Sn  Sn165  1  0.57415300  0.03009900  0.01009907  1.0
  Sn  Sn166  1  0.57415300  0.36343233  0.01009907  1.0
  Sn  Sn167  1  0.57415300  0.69676567  0.01009907  1.0
  Sn  Sn168  1  0.90748633  0.03009900  0.01009907  1.0
  Sn  Sn169  1  0.90748633  0.36343233  0.01009907  1.0
  Sn  Sn170  1  0.90748633  0.69676567  0.01009907  1.0
  Sn  Sn171  1  0.00028500  0.27971567  0.04564907  1.0
  Sn  Sn172  1  0.00028500  0.61304900  0.04564907  1.0
  Sn  Sn173  1  0.00028500  0.94638233  0.04564907  1.0
  Sn  Sn174  1  0.33361833  0.27971567  0.04564907  1.0
  Sn  Sn175  1  0.33361833  0.61304900  0.04564907  1.0
  Sn  Sn176  1  0.33361833  0.94638233  0.04564907  1.0
  Sn  Sn177  1  0.66695167  0.27971567  0.04564907  1.0
  Sn  Sn178  1  0.66695167  0.61304900  0.04564907  1.0
  Sn  Sn179  1  0.66695167  0.94638233  0.04564907  1.0
  Sn  Sn180  1  0.24839867  0.32026433  0.06302707  1.0
  Sn  Sn181  1  0.24839867  0.65359767  0.06302707  1.0
  Sn  Sn182  1  0.24839867  0.98693100  0.06302707  1.0
  Sn  Sn183  1  0.58173200  0.32026433  0.06302707  1.0
  Sn  Sn184  1  0.58173200  0.65359767  0.06302707  1.0
  Sn  Sn185  1  0.58173200  0.98693100  0.06302707  1.0
  Sn  Sn186  1  0.91506533  0.32026433  0.06302707  1.0
  Sn  Sn187  1  0.91506533  0.65359767  0.06302707  1.0
  Sn  Sn188  1  0.91506533  0.98693100  0.06302707  1.0
  Sn  Sn189  1  0.25918033  0.19676567  0.08152764  1.0
  Sn  Sn190  1  0.25918033  0.53009900  0.08152764  1.0
  Sn  Sn191  1  0.25918033  0.86343233  0.08152764  1.0
  Sn  Sn192  1  0.59251367  0.19676567  0.08152764  1.0
  Sn  Sn193  1  0.59251367  0.53009900  0.08152764  1.0
  Sn  Sn194  1  0.59251367  0.86343233  0.08152764  1.0
  Sn  Sn195  1  0.92584700  0.19676567  0.08152764  1.0
  Sn  Sn196  1  0.92584700  0.53009900  0.08152764  1.0
  Sn  Sn197  1  0.92584700  0.86343233  0.08152764  1.0
  Sn  Sn198  1  0.31568800  0.09666667  0.03862807  1.0
  Sn  Sn199  1  0.31568800  0.43000000  0.03862807  1.0
  Sn  Sn200  1  0.31568800  0.76333333  0.03862807  1.0
  Sn  Sn201  1  0.64902133  0.09666667  0.03862807  1.0
  Sn  Sn202  1  0.64902133  0.43000000  0.03862807  1.0
  Sn  Sn203  1  0.64902133  0.76333333  0.03862807  1.0
  Sn  Sn204  1  0.98235467  0.09666667  0.03862807  1.0
  Sn  Sn205  1  0.98235467  0.43000000  0.03862807  1.0
  Sn  Sn206  1  0.98235467  0.76333333  0.03862807  1.0
  Sn  Sn207  1  0.14902133  0.07000000  0.02719950  1.0
  Sn  Sn208  1  0.14902133  0.40333333  0.02719950  1.0
  Sn  Sn209  1  0.14902133  0.73666667  0.02719950  1.0
  Sn  Sn210  1  0.48235467  0.07000000  0.02719950  1.0
  Sn  Sn211  1  0.48235467  0.40333333  0.02719950  1.0
  Sn  Sn212  1  0.48235467  0.73666667  0.02719950  1.0
  Sn  Sn213  1  0.81568800  0.07000000  0.02719950  1.0
  Sn  Sn214  1  0.81568800  0.40333333  0.02719950  1.0
  Sn  Sn215  1  0.81568800  0.73666667  0.02719950  1.0
  Sn  Sn216  1  0.18431200  0.26333333  0.11005664  1.0
  Sn  Sn217  1  0.18431200  0.59666667  0.11005664  1.0
  Sn  Sn218  1  0.18431200  0.93000000  0.11005664  1.0
  Sn  Sn219  1  0.51764533  0.26333333  0.11005664  1.0
  Sn  Sn220  1  0.51764533  0.59666667  0.11005664  1.0
  Sn  Sn221  1  0.51764533  0.93000000  0.11005664  1.0
  Sn  Sn222  1  0.85097867  0.26333333  0.11005664  1.0
  Sn  Sn223  1  0.85097867  0.59666667  0.11005664  1.0
  Sn  Sn224  1  0.85097867  0.93000000  0.11005664  1.0
  Sn  Sn225  1  0.08173200  0.17973567  0.00280050  1.0
  Sn  Sn226  1  0.08173200  0.51306900  0.00280050  1.0
  Sn  Sn227  1  0.08173200  0.84640233  0.00280050  1.0
  Sn  Sn228  1  0.41506533  0.17973567  0.00280050  1.0
  Sn  Sn229  1  0.41506533  0.51306900  0.00280050  1.0
  Sn  Sn230  1  0.41506533  0.84640233  0.00280050  1.0
  Sn  Sn231  1  0.74839867  0.17973567  0.00280050  1.0
  Sn  Sn232  1  0.74839867  0.51306900  0.00280050  1.0
  Sn  Sn233  1  0.74839867  0.84640233  0.00280050  1.0
  Sn  Sn234  1  0.07415300  0.13656767  0.05572850  1.0
  Sn  Sn235  1  0.07415300  0.46990100  0.05572850  1.0
  Sn  Sn236  1  0.07415300  0.80323433  0.05572850  1.0
  Sn  Sn237  1  0.40748633  0.13656767  0.05572850  1.0
  Sn  Sn238  1  0.40748633  0.46990100  0.05572850  1.0
  Sn  Sn239  1  0.40748633  0.80323433  0.05572850  1.0
  Sn  Sn240  1  0.74081967  0.13656767  0.05572850  1.0
  Sn  Sn241  1  0.74081967  0.46990100  0.05572850  1.0
  Sn  Sn242  1  0.74081967  0.80323433  0.05572850  1.0
  Sn  Sn243  1  0.25160133  0.15359767  0.13445564  1.0
  Sn  Sn244  1  0.25160133  0.48693100  0.13445564  1.0
  Sn  Sn245  1  0.25160133  0.82026433  0.13445564  1.0
  Sn  Sn246  1  0.58493467  0.15359767  0.13445564  1.0
  Sn  Sn247  1  0.58493467  0.48693100  0.13445564  1.0
  Sn  Sn248  1  0.58493467  0.82026433  0.13445564  1.0
  Sn  Sn249  1  0.91826800  0.15359767  0.13445564  1.0
  Sn  Sn250  1  0.91826800  0.48693100  0.13445564  1.0
  Sn  Sn251  1  0.91826800  0.82026433  0.13445564  1.0
  Sn  Sn252  1  0.01764533  0.23666667  0.09862807  1.0
  Sn  Sn253  1  0.01764533  0.57000000  0.09862807  1.0
  Sn  Sn254  1  0.01764533  0.90333333  0.09862807  1.0
  Sn  Sn255  1  0.35097867  0.23666667  0.09862807  1.0
  Sn  Sn256  1  0.35097867  0.57000000  0.09862807  1.0
  Sn  Sn257  1  0.35097867  0.90333333  0.09862807  1.0
  Sn  Sn258  1  0.68431200  0.23666667  0.09862807  1.0
  Sn  Sn259  1  0.68431200  0.57000000  0.09862807  1.0
  Sn  Sn260  1  0.68431200  0.90333333  0.09862807  1.0
  Sn  Sn261  1  0.16695167  0.22028433  0.02017850  1.0
  Sn  Sn262  1  0.16695167  0.55361767  0.02017850  1.0
  Sn  Sn263  1  0.16695167  0.88695100  0.02017850  1.0
  Sn  Sn264  1  0.50028500  0.22028433  0.02017850  1.0
  Sn  Sn265  1  0.50028500  0.55361767  0.02017850  1.0
  Sn  Sn266  1  0.50028500  0.88695100  0.02017850  1.0
  Sn  Sn267  1  0.83361833  0.22028433  0.02017850  1.0
  Sn  Sn268  1  0.83361833  0.55361767  0.02017850  1.0
  Sn  Sn269  1  0.83361833  0.88695100  0.02017850  1.0
  Sn  Sn270  1  0.33304833  0.05361767  0.09160707  1.0
  Sn  Sn271  1  0.33304833  0.38695100  0.09160707  1.0
  Sn  Sn272  1  0.33304833  0.72028433  0.09160707  1.0
  Sn  Sn273  1  0.66638167  0.05361767  0.09160707  1.0
  Sn  Sn274  1  0.66638167  0.38695100  0.09160707  1.0
  Sn  Sn275  1  0.66638167  0.72028433  0.09160707  1.0
  Sn  Sn276  1  0.99971500  0.05361767  0.09160707  1.0
  Sn  Sn277  1  0.99971500  0.38695100  0.09160707  1.0
  Sn  Sn278  1  0.99971500  0.72028433  0.09160707  1.0
  Sn  Sn279  1  0.16638167  0.11304900  0.11707764  1.0
  Sn  Sn280  1  0.16638167  0.44638233  0.11707764  1.0
  Sn  Sn281  1  0.16638167  0.77971567  0.11707764  1.0
  Sn  Sn282  1  0.49971500  0.11304900  0.11707764  1.0
  Sn  Sn283  1  0.49971500  0.44638233  0.11707764  1.0
  Sn  Sn284  1  0.49971500  0.77971567  0.11707764  1.0
  Sn  Sn285  1  0.83304833  0.11304900  0.11707764  1.0
  Sn  Sn286  1  0.83304833  0.44638233  0.11707764  1.0
  Sn  Sn287  1  0.83304833  0.77971567  0.11707764  1.0
  Ni  Ni288  1  0.23896633  0.13132167  0.19633736  1.0
  Ni  Ni289  1  0.23896633  0.46465500  0.19633736  1.0
  Ni  Ni290  1  0.23896633  0.79798833  0.19633736  1.0
  Ni  Ni291  1  0.57229967  0.13132167  0.19633736  1.0
  Ni  Ni292  1  0.57229967  0.46465500  0.19633736  1.0
  Ni  Ni293  1  0.57229967  0.79798833  0.19633736  1.0
  Ni  Ni294  1  0.90563300  0.13132167  0.19633736  1.0
  Ni  Ni295  1  0.90563300  0.46465500  0.19633736  1.0
  Ni  Ni296  1  0.90563300  0.79798833  0.19633736  1.0
  Ni  Ni297  1  0.07229967  0.03534500  0.15520450  1.0
  Ni  Ni298  1  0.07229967  0.36867833  0.15520450  1.0
  Ni  Ni299  1  0.07229967  0.70201167  0.15520450  1.0
  Ni  Ni300  1  0.40563300  0.03534500  0.15520450  1.0
  Ni  Ni301  1  0.40563300  0.36867833  0.15520450  1.0
  Ni  Ni302  1  0.40563300  0.70201167  0.15520450  1.0
  Ni  Ni303  1  0.73896633  0.03534500  0.15520450  1.0
  Ni  Ni304  1  0.73896633  0.36867833  0.15520450  1.0
  Ni  Ni305  1  0.73896633  0.70201167  0.15520450  1.0
  Ni  Ni306  1  0.07101233  0.08515367  0.24797964  1.0
  Ni  Ni307  1  0.07101233  0.41848700  0.24797964  1.0
  Ni  Ni308  1  0.07101233  0.75182033  0.24797964  1.0
  Ni  Ni309  1  0.40434567  0.08515367  0.24797964  1.0
  Ni  Ni310  1  0.40434567  0.41848700  0.24797964  1.0
  Ni  Ni311  1  0.40434567  0.75182033  0.24797964  1.0
  Ni  Ni312  1  0.73767900  0.08515367  0.24797964  1.0
  Ni  Ni313  1  0.73767900  0.41848700  0.24797964  1.0
  Ni  Ni314  1  0.73767900  0.75182033  0.24797964  1.0
  Ni  Ni315  1  0.00091067  0.21359833  0.16017021  1.0
  Ni  Ni316  1  0.00091067  0.54693167  0.16017021  1.0
  Ni  Ni317  1  0.00091067  0.88026500  0.16017021  1.0
  Ni  Ni318  1  0.33424400  0.21359833  0.16017021  1.0
  Ni  Ni319  1  0.33424400  0.54693167  0.16017021  1.0
  Ni  Ni320  1  0.33424400  0.88026500  0.16017021  1.0
  Ni  Ni321  1  0.66757733  0.21359833  0.16017021  1.0
  Ni  Ni322  1  0.66757733  0.54693167  0.16017021  1.0
  Ni  Ni323  1  0.66757733  0.88026500  0.16017021  1.0
  Ni  Ni324  1  0.16757733  0.28640167  0.19137164  1.0
  Ni  Ni325  1  0.16757733  0.61973500  0.19137164  1.0
  Ni  Ni326  1  0.16757733  0.95306833  0.19137164  1.0
  Ni  Ni327  1  0.50091067  0.28640167  0.19137164  1.0
  Ni  Ni328  1  0.50091067  0.61973500  0.19137164  1.0
  Ni  Ni329  1  0.50091067  0.95306833  0.19137164  1.0
  Ni  Ni330  1  0.83424400  0.28640167  0.19137164  1.0
  Ni  Ni331  1  0.83424400  0.61973500  0.19137164  1.0
  Ni  Ni332  1  0.83424400  0.95306833  0.19137164  1.0
  Ni  Ni333  1  0.09565433  0.25182033  0.17655107  1.0
  Ni  Ni334  1  0.09565433  0.58515367  0.17655107  1.0
  Ni  Ni335  1  0.09565433  0.91848700  0.17655107  1.0
  Ni  Ni336  1  0.42898767  0.25182033  0.17655107  1.0
  Ni  Ni337  1  0.42898767  0.58515367  0.17655107  1.0
  Ni  Ni338  1  0.42898767  0.91848700  0.17655107  1.0
  Ni  Ni339  1  0.76232100  0.25182033  0.17655107  1.0
  Ni  Ni340  1  0.76232100  0.58515367  0.17655107  1.0
  Ni  Ni341  1  0.76232100  0.91848700  0.17655107  1.0
  Ni  Ni342  1  0.00000000  0.16666667  0.21148521  1.0
  Ni  Ni343  1  0.00000000  0.50000000  0.21148521  1.0
  Ni  Ni344  1  0.00000000  0.83333333  0.21148521  1.0
  Ni  Ni345  1  0.33333333  0.16666667  0.21148521  1.0
  Ni  Ni346  1  0.33333333  0.50000000  0.21148521  1.0
  Ni  Ni347  1  0.33333333  0.83333333  0.21148521  1.0
  Ni  Ni348  1  0.66666667  0.16666667  0.21148521  1.0
  Ni  Ni349  1  0.66666667  0.50000000  0.21148521  1.0
  Ni  Ni350  1  0.66666667  0.83333333  0.21148521  1.0
  Ni  Ni351  1  0.33242267  0.11973500  0.26280021  1.0
  Ni  Ni352  1  0.33242267  0.45306833  0.26280021  1.0
  Ni  Ni353  1  0.33242267  0.78640167  0.26280021  1.0
  Ni  Ni354  1  0.66575600  0.11973500  0.26280021  1.0
  Ni  Ni355  1  0.66575600  0.45306833  0.26280021  1.0
  Ni  Ni356  1  0.66575600  0.78640167  0.26280021  1.0
  Ni  Ni357  1  0.99908933  0.11973500  0.26280021  1.0
  Ni  Ni358  1  0.99908933  0.45306833  0.26280021  1.0
  Ni  Ni359  1  0.99908933  0.78640167  0.26280021  1.0
  Ni  Ni360  1  0.26232100  0.24817967  0.17499079  1.0
  Ni  Ni361  1  0.26232100  0.58151300  0.17499079  1.0
  Ni  Ni362  1  0.26232100  0.91484633  0.17499079  1.0
  Ni  Ni363  1  0.59565433  0.24817967  0.17499079  1.0
  Ni  Ni364  1  0.59565433  0.58151300  0.17499079  1.0
  Ni  Ni365  1  0.59565433  0.91484633  0.17499079  1.0
  Ni  Ni366  1  0.92898767  0.24817967  0.17499079  1.0
  Ni  Ni367  1  0.92898767  0.58151300  0.17499079  1.0
  Ni  Ni368  1  0.92898767  0.91484633  0.17499079  1.0
  Ni  Ni369  1  0.26103367  0.29798833  0.26776593  1.0
  Ni  Ni370  1  0.26103367  0.63132167  0.26776593  1.0
  Ni  Ni371  1  0.26103367  0.96465500  0.26776593  1.0
  Ni  Ni372  1  0.59436700  0.29798833  0.26776593  1.0
  Ni  Ni373  1  0.59436700  0.63132167  0.26776593  1.0
  Ni  Ni374  1  0.59436700  0.96465500  0.26776593  1.0
  Ni  Ni375  1  0.92770033  0.29798833  0.26776593  1.0
  Ni  Ni376  1  0.92770033  0.63132167  0.26776593  1.0
  Ni  Ni377  1  0.92770033  0.96465500  0.26776593  1.0
  Ni  Ni378  1  0.23767900  0.08151300  0.24641936  1.0
  Ni  Ni379  1  0.23767900  0.41484633  0.24641936  1.0
  Ni  Ni380  1  0.23767900  0.74817967  0.24641936  1.0
  Ni  Ni381  1  0.57101233  0.08151300  0.24641936  1.0
  Ni  Ni382  1  0.57101233  0.41484633  0.24641936  1.0
  Ni  Ni383  1  0.57101233  0.74817967  0.24641936  1.0
  Ni  Ni384  1  0.90434567  0.08151300  0.24641936  1.0
  Ni  Ni385  1  0.90434567  0.41484633  0.24641936  1.0
  Ni  Ni386  1  0.90434567  0.74817967  0.24641936  1.0
  Ni  Ni387  1  0.09436700  0.20201167  0.22663307  1.0
  Ni  Ni388  1  0.09436700  0.53534500  0.22663307  1.0
  Ni  Ni389  1  0.09436700  0.86867833  0.22663307  1.0
  Ni  Ni390  1  0.42770033  0.20201167  0.22663307  1.0
  Ni  Ni391  1  0.42770033  0.53534500  0.22663307  1.0
  Ni  Ni392  1  0.42770033  0.86867833  0.22663307  1.0
  Ni  Ni393  1  0.76103367  0.20201167  0.22663307  1.0
  Ni  Ni394  1  0.76103367  0.53534500  0.22663307  1.0
  Ni  Ni395  1  0.76103367  0.86867833  0.22663307  1.0
  Ni  Ni396  1  0.16575600  0.04693167  0.23159879  1.0
  Ni  Ni397  1  0.16575600  0.38026500  0.23159879  1.0
  Ni  Ni398  1  0.16575600  0.71359833  0.23159879  1.0
  Ni  Ni399  1  0.49908933  0.04693167  0.23159879  1.0
  Ni  Ni400  1  0.49908933  0.38026500  0.23159879  1.0
  Ni  Ni401  1  0.49908933  0.71359833  0.23159879  1.0
  Ni  Ni402  1  0.83242267  0.04693167  0.23159879  1.0
  Ni  Ni403  1  0.83242267  0.38026500  0.23159879  1.0
  Ni  Ni404  1  0.83242267  0.71359833  0.23159879  1.0
  Ni  Ni405  1  0.00000000  0.00000000  0.28291379  1.0
  Ni  Ni406  1  0.00000000  0.33333333  0.28291379  1.0
  Ni  Ni407  1  0.00000000  0.66666667  0.28291379  1.0
  Ni  Ni408  1  0.33333333  0.00000000  0.28291379  1.0
  Ni  Ni409  1  0.33333333  0.33333333  0.28291379  1.0
  Ni  Ni410  1  0.33333333  0.66666667  0.28291379  1.0
  Ni  Ni411  1  0.66666667  0.00000000  0.28291379  1.0
  Ni  Ni412  1  0.66666667  0.33333333  0.28291379  1.0
  Ni  Ni413  1  0.66666667  0.66666667  0.28291379  1.0
  Ni  Ni414  1  0.16666667  0.16666667  0.21148521  1.0
  Ni  Ni415  1  0.16666667  0.50000000  0.21148521  1.0
  Ni  Ni416  1  0.16666667  0.83333333  0.21148521  1.0
  Ni  Ni417  1  0.50000000  0.16666667  0.21148521  1.0
  Ni  Ni418  1  0.50000000  0.50000000  0.21148521  1.0
  Ni  Ni419  1  0.50000000  0.83333333  0.21148521  1.0
  Ni  Ni420  1  0.83333333  0.16666667  0.21148521  1.0
  Ni  Ni421  1  0.83333333  0.50000000  0.21148521  1.0
  Ni  Ni422  1  0.83333333  0.83333333  0.21148521  1.0
  Ni  Ni423  1  0.16666667  0.00000000  0.28291379  1.0
  Ni  Ni424  1  0.16666667  0.33333333  0.28291379  1.0
  Ni  Ni425  1  0.16666667  0.66666667  0.28291379  1.0
  Ni  Ni426  1  0.50000000  0.00000000  0.28291379  1.0
  Ni  Ni427  1  0.50000000  0.33333333  0.28291379  1.0
  Ni  Ni428  1  0.50000000  0.66666667  0.28291379  1.0
  Ni  Ni429  1  0.83333333  0.00000000  0.28291379  1.0
  Ni  Ni430  1  0.83333333  0.33333333  0.28291379  1.0
  Ni  Ni431  1  0.83333333  0.66666667  0.28291379  1.0
  Sn  Sn432  1  0.08493467  0.01306900  0.21708621  1.0
  Sn  Sn433  1  0.08493467  0.34640233  0.21708621  1.0
  Sn  Sn434  1  0.08493467  0.67973567  0.21708621  1.0
  Sn  Sn435  1  0.41826800  0.01306900  0.21708621  1.0
  Sn  Sn436  1  0.41826800  0.34640233  0.21708621  1.0
  Sn  Sn437  1  0.41826800  0.67973567  0.21708621  1.0
  Sn  Sn438  1  0.75160133  0.01306900  0.21708621  1.0
  Sn  Sn439  1  0.75160133  0.34640233  0.21708621  1.0
  Sn  Sn440  1  0.75160133  0.67973567  0.21708621  1.0
  Sn  Sn441  1  0.09251367  0.30323433  0.27001421  1.0
  Sn  Sn442  1  0.09251367  0.63656767  0.27001421  1.0
  Sn  Sn443  1  0.09251367  0.96990100  0.27001421  1.0
  Sn  Sn444  1  0.42584700  0.30323433  0.27001421  1.0
  Sn  Sn445  1  0.42584700  0.63656767  0.27001421  1.0
  Sn  Sn446  1  0.42584700  0.96990100  0.27001421  1.0
  Sn  Sn447  1  0.75918033  0.30323433  0.27001421  1.0
  Sn  Sn448  1  0.75918033  0.63656767  0.27001421  1.0
  Sn  Sn449  1  0.75918033  0.96990100  0.27001421  1.0
  Sn  Sn450  1  0.24081967  0.03009900  0.15295621  1.0
  Sn  Sn451  1  0.24081967  0.36343233  0.15295621  1.0
  Sn  Sn452  1  0.24081967  0.69676567  0.15295621  1.0
  Sn  Sn453  1  0.57415300  0.03009900  0.15295621  1.0
  Sn  Sn454  1  0.57415300  0.36343233  0.15295621  1.0
  Sn  Sn455  1  0.57415300  0.69676567  0.15295621  1.0
  Sn  Sn456  1  0.90748633  0.03009900  0.15295621  1.0
  Sn  Sn457  1  0.90748633  0.36343233  0.15295621  1.0
  Sn  Sn458  1  0.90748633  0.69676567  0.15295621  1.0
  Sn  Sn459  1  0.00028500  0.27971567  0.18850621  1.0
  Sn  Sn460  1  0.00028500  0.61304900  0.18850621  1.0
  Sn  Sn461  1  0.00028500  0.94638233  0.18850621  1.0
  Sn  Sn462  1  0.33361833  0.27971567  0.18850621  1.0
  Sn  Sn463  1  0.33361833  0.61304900  0.18850621  1.0
  Sn  Sn464  1  0.33361833  0.94638233  0.18850621  1.0
  Sn  Sn465  1  0.66695167  0.27971567  0.18850621  1.0
  Sn  Sn466  1  0.66695167  0.61304900  0.18850621  1.0
  Sn  Sn467  1  0.66695167  0.94638233  0.18850621  1.0
  Sn  Sn468  1  0.24839867  0.32026433  0.20588421  1.0
  Sn  Sn469  1  0.24839867  0.65359767  0.20588421  1.0
  Sn  Sn470  1  0.24839867  0.98693100  0.20588421  1.0
  Sn  Sn471  1  0.58173200  0.32026433  0.20588421  1.0
  Sn  Sn472  1  0.58173200  0.65359767  0.20588421  1.0
  Sn  Sn473  1  0.58173200  0.98693100  0.20588421  1.0
  Sn  Sn474  1  0.91506533  0.32026433  0.20588421  1.0
  Sn  Sn475  1  0.91506533  0.65359767  0.20588421  1.0
  Sn  Sn476  1  0.91506533  0.98693100  0.20588421  1.0
  Sn  Sn477  1  0.25918033  0.19676567  0.22438479  1.0
  Sn  Sn478  1  0.25918033  0.53009900  0.22438479  1.0
  Sn  Sn479  1  0.25918033  0.86343233  0.22438479  1.0
  Sn  Sn480  1  0.59251367  0.19676567  0.22438479  1.0
  Sn  Sn481  1  0.59251367  0.53009900  0.22438479  1.0
  Sn  Sn482  1  0.59251367  0.86343233  0.22438479  1.0
  Sn  Sn483  1  0.92584700  0.19676567  0.22438479  1.0
  Sn  Sn484  1  0.92584700  0.53009900  0.22438479  1.0
  Sn  Sn485  1  0.92584700  0.86343233  0.22438479  1.0
  Sn  Sn486  1  0.31568800  0.09666667  0.18148521  1.0
  Sn  Sn487  1  0.31568800  0.43000000  0.18148521  1.0
  Sn  Sn488  1  0.31568800  0.76333333  0.18148521  1.0
  Sn  Sn489  1  0.64902133  0.09666667  0.18148521  1.0
  Sn  Sn490  1  0.64902133  0.43000000  0.18148521  1.0
  Sn  Sn491  1  0.64902133  0.76333333  0.18148521  1.0
  Sn  Sn492  1  0.98235467  0.09666667  0.18148521  1.0
  Sn  Sn493  1  0.98235467  0.43000000  0.18148521  1.0
  Sn  Sn494  1  0.98235467  0.76333333  0.18148521  1.0
  Sn  Sn495  1  0.14902133  0.07000000  0.17005664  1.0
  Sn  Sn496  1  0.14902133  0.40333333  0.17005664  1.0
  Sn  Sn497  1  0.14902133  0.73666667  0.17005664  1.0
  Sn  Sn498  1  0.48235467  0.07000000  0.17005664  1.0
  Sn  Sn499  1  0.48235467  0.40333333  0.17005664  1.0
  Sn  Sn500  1  0.48235467  0.73666667  0.17005664  1.0
  Sn  Sn501  1  0.81568800  0.07000000  0.17005664  1.0
  Sn  Sn502  1  0.81568800  0.40333333  0.17005664  1.0
  Sn  Sn503  1  0.81568800  0.73666667  0.17005664  1.0
  Sn  Sn504  1  0.18431200  0.26333333  0.25291379  1.0
  Sn  Sn505  1  0.18431200  0.59666667  0.25291379  1.0
  Sn  Sn506  1  0.18431200  0.93000000  0.25291379  1.0
  Sn  Sn507  1  0.51764533  0.26333333  0.25291379  1.0
  Sn  Sn508  1  0.51764533  0.59666667  0.25291379  1.0
  Sn  Sn509  1  0.51764533  0.93000000  0.25291379  1.0
  Sn  Sn510  1  0.85097867  0.26333333  0.25291379  1.0
  Sn  Sn511  1  0.85097867  0.59666667  0.25291379  1.0
  Sn  Sn512  1  0.85097867  0.93000000  0.25291379  1.0
  Sn  Sn513  1  0.08173200  0.17973567  0.14565764  1.0
  Sn  Sn514  1  0.08173200  0.51306900  0.14565764  1.0
  Sn  Sn515  1  0.08173200  0.84640233  0.14565764  1.0
  Sn  Sn516  1  0.41506533  0.17973567  0.14565764  1.0
  Sn  Sn517  1  0.41506533  0.51306900  0.14565764  1.0
  Sn  Sn518  1  0.41506533  0.84640233  0.14565764  1.0
  Sn  Sn519  1  0.74839867  0.17973567  0.14565764  1.0
  Sn  Sn520  1  0.74839867  0.51306900  0.14565764  1.0
  Sn  Sn521  1  0.74839867  0.84640233  0.14565764  1.0
  Sn  Sn522  1  0.07415300  0.13656767  0.19858564  1.0
  Sn  Sn523  1  0.07415300  0.46990100  0.19858564  1.0
  Sn  Sn524  1  0.07415300  0.80323433  0.19858564  1.0
  Sn  Sn525  1  0.40748633  0.13656767  0.19858564  1.0
  Sn  Sn526  1  0.40748633  0.46990100  0.19858564  1.0
  Sn  Sn527  1  0.40748633  0.80323433  0.19858564  1.0
  Sn  Sn528  1  0.74081967  0.13656767  0.19858564  1.0
  Sn  Sn529  1  0.74081967  0.46990100  0.19858564  1.0
  Sn  Sn530  1  0.74081967  0.80323433  0.19858564  1.0
  Sn  Sn531  1  0.25160133  0.15359767  0.27731279  1.0
  Sn  Sn532  1  0.25160133  0.48693100  0.27731279  1.0
  Sn  Sn533  1  0.25160133  0.82026433  0.27731279  1.0
  Sn  Sn534  1  0.58493467  0.15359767  0.27731279  1.0
  Sn  Sn535  1  0.58493467  0.48693100  0.27731279  1.0
  Sn  Sn536  1  0.58493467  0.82026433  0.27731279  1.0
  Sn  Sn537  1  0.91826800  0.15359767  0.27731279  1.0
  Sn  Sn538  1  0.91826800  0.48693100  0.27731279  1.0
  Sn  Sn539  1  0.91826800  0.82026433  0.27731279  1.0
  Sn  Sn540  1  0.01764533  0.23666667  0.24148521  1.0
  Sn  Sn541  1  0.01764533  0.57000000  0.24148521  1.0
  Sn  Sn542  1  0.01764533  0.90333333  0.24148521  1.0
  Sn  Sn543  1  0.35097867  0.23666667  0.24148521  1.0
  Sn  Sn544  1  0.35097867  0.57000000  0.24148521  1.0
  Sn  Sn545  1  0.35097867  0.90333333  0.24148521  1.0
  Sn  Sn546  1  0.68431200  0.23666667  0.24148521  1.0
  Sn  Sn547  1  0.68431200  0.57000000  0.24148521  1.0
  Sn  Sn548  1  0.68431200  0.90333333  0.24148521  1.0
  Sn  Sn549  1  0.16695167  0.22028433  0.16303564  1.0
  Sn  Sn550  1  0.16695167  0.55361767  0.16303564  1.0
  Sn  Sn551  1  0.16695167  0.88695100  0.16303564  1.0
  Sn  Sn552  1  0.50028500  0.22028433  0.16303564  1.0
  Sn  Sn553  1  0.50028500  0.55361767  0.16303564  1.0
  Sn  Sn554  1  0.50028500  0.88695100  0.16303564  1.0
  Sn  Sn555  1  0.83361833  0.22028433  0.16303564  1.0
  Sn  Sn556  1  0.83361833  0.55361767  0.16303564  1.0
  Sn  Sn557  1  0.83361833  0.88695100  0.16303564  1.0
  Sn  Sn558  1  0.33304833  0.05361767  0.23446421  1.0
  Sn  Sn559  1  0.33304833  0.38695100  0.23446421  1.0
  Sn  Sn560  1  0.33304833  0.72028433  0.23446421  1.0
  Sn  Sn561  1  0.66638167  0.05361767  0.23446421  1.0
  Sn  Sn562  1  0.66638167  0.38695100  0.23446421  1.0
  Sn  Sn563  1  0.66638167  0.72028433  0.23446421  1.0
  Sn  Sn564  1  0.99971500  0.05361767  0.23446421  1.0
  Sn  Sn565  1  0.99971500  0.38695100  0.23446421  1.0
  Sn  Sn566  1  0.99971500  0.72028433  0.23446421  1.0
  Sn  Sn567  1  0.16638167  0.11304900  0.25993479  1.0
  Sn  Sn568  1  0.16638167  0.44638233  0.25993479  1.0
  Sn  Sn569  1  0.16638167  0.77971567  0.25993479  1.0
  Sn  Sn570  1  0.49971500  0.11304900  0.25993479  1.0
  Sn  Sn571  1  0.49971500  0.44638233  0.25993479  1.0
  Sn  Sn572  1  0.49971500  0.77971567  0.25993479  1.0
  Sn  Sn573  1  0.83304833  0.11304900  0.25993479  1.0
  Sn  Sn574  1  0.83304833  0.44638233  0.25993479  1.0
  Sn  Sn575  1  0.83304833  0.77971567  0.25993479  1.0
  Ni  Ni576  1  0.23896633  0.13132167  0.33919450  1.0
  Ni  Ni577  1  0.23896633  0.46465500  0.33919450  1.0
  Ni  Ni578  1  0.23896633  0.79798833  0.33919450  1.0
  Ni  Ni579  1  0.57229967  0.13132167  0.33919450  1.0
  Ni  Ni580  1  0.57229967  0.46465500  0.33919450  1.0
  Ni  Ni581  1  0.57229967  0.79798833  0.33919450  1.0
  Ni  Ni582  1  0.90563300  0.13132167  0.33919450  1.0
  Ni  Ni583  1  0.90563300  0.46465500  0.33919450  1.0
  Ni  Ni584  1  0.90563300  0.79798833  0.33919450  1.0
  Ni  Ni585  1  0.07229967  0.03534500  0.29806164  1.0
  Ni  Ni586  1  0.07229967  0.36867833  0.29806164  1.0
  Ni  Ni587  1  0.07229967  0.70201167  0.29806164  1.0
  Ni  Ni588  1  0.40563300  0.03534500  0.29806164  1.0
  Ni  Ni589  1  0.40563300  0.36867833  0.29806164  1.0
  Ni  Ni590  1  0.40563300  0.70201167  0.29806164  1.0
  Ni  Ni591  1  0.73896633  0.03534500  0.29806164  1.0
  Ni  Ni592  1  0.73896633  0.36867833  0.29806164  1.0
  Ni  Ni593  1  0.73896633  0.70201167  0.29806164  1.0
  Ni  Ni594  1  0.07101233  0.08515367  0.39083679  1.0
  Ni  Ni595  1  0.07101233  0.41848700  0.39083679  1.0
  Ni  Ni596  1  0.07101233  0.75182033  0.39083679  1.0
  Ni  Ni597  1  0.40434567  0.08515367  0.39083679  1.0
  Ni  Ni598  1  0.40434567  0.41848700  0.39083679  1.0
  Ni  Ni599  1  0.40434567  0.75182033  0.39083679  1.0
  Ni  Ni600  1  0.73767900  0.08515367  0.39083679  1.0
  Ni  Ni601  1  0.73767900  0.41848700  0.39083679  1.0
  Ni  Ni602  1  0.73767900  0.75182033  0.39083679  1.0
  Ni  Ni603  1  0.00091067  0.21359833  0.30302736  1.0
  Ni  Ni604  1  0.00091067  0.54693167  0.30302736  1.0
  Ni  Ni605  1  0.00091067  0.88026500  0.30302736  1.0
  Ni  Ni606  1  0.33424400  0.21359833  0.30302736  1.0
  Ni  Ni607  1  0.33424400  0.54693167  0.30302736  1.0
  Ni  Ni608  1  0.33424400  0.88026500  0.30302736  1.0
  Ni  Ni609  1  0.66757733  0.21359833  0.30302736  1.0
  Ni  Ni610  1  0.66757733  0.54693167  0.30302736  1.0
  Ni  Ni611  1  0.66757733  0.88026500  0.30302736  1.0
  Ni  Ni612  1  0.16757733  0.28640167  0.33422879  1.0
  Ni  Ni613  1  0.16757733  0.61973500  0.33422879  1.0
  Ni  Ni614  1  0.16757733  0.95306833  0.33422879  1.0
  Ni  Ni615  1  0.50091067  0.28640167  0.33422879  1.0
  Ni  Ni616  1  0.50091067  0.61973500  0.33422879  1.0
  Ni  Ni617  1  0.50091067  0.95306833  0.33422879  1.0
  Ni  Ni618  1  0.83424400  0.28640167  0.33422879  1.0
  Ni  Ni619  1  0.83424400  0.61973500  0.33422879  1.0
  Ni  Ni620  1  0.83424400  0.95306833  0.33422879  1.0
  Ni  Ni621  1  0.09565433  0.25182033  0.31940821  1.0
  Ni  Ni622  1  0.09565433  0.58515367  0.31940821  1.0
  Ni  Ni623  1  0.09565433  0.91848700  0.31940821  1.0
  Ni  Ni624  1  0.42898767  0.25182033  0.31940821  1.0
  Ni  Ni625  1  0.42898767  0.58515367  0.31940821  1.0
  Ni  Ni626  1  0.42898767  0.91848700  0.31940821  1.0
  Ni  Ni627  1  0.76232100  0.25182033  0.31940821  1.0
  Ni  Ni628  1  0.76232100  0.58515367  0.31940821  1.0
  Ni  Ni629  1  0.76232100  0.91848700  0.31940821  1.0
  Ni  Ni630  1  0.00000000  0.16666667  0.35434236  1.0
  Ni  Ni631  1  0.00000000  0.50000000  0.35434236  1.0
  Ni  Ni632  1  0.00000000  0.83333333  0.35434236  1.0
  Ni  Ni633  1  0.33333333  0.16666667  0.35434236  1.0
  Ni  Ni634  1  0.33333333  0.50000000  0.35434236  1.0
  Ni  Ni635  1  0.33333333  0.83333333  0.35434236  1.0
  Ni  Ni636  1  0.66666667  0.16666667  0.35434236  1.0
  Ni  Ni637  1  0.66666667  0.50000000  0.35434236  1.0
  Ni  Ni638  1  0.66666667  0.83333333  0.35434236  1.0
  Ni  Ni639  1  0.33242267  0.11973500  0.40565736  1.0
  Ni  Ni640  1  0.33242267  0.45306833  0.40565736  1.0
  Ni  Ni641  1  0.33242267  0.78640167  0.40565736  1.0
  Ni  Ni642  1  0.66575600  0.11973500  0.40565736  1.0
  Ni  Ni643  1  0.66575600  0.45306833  0.40565736  1.0
  Ni  Ni644  1  0.66575600  0.78640167  0.40565736  1.0
  Ni  Ni645  1  0.99908933  0.11973500  0.40565736  1.0
  Ni  Ni646  1  0.99908933  0.45306833  0.40565736  1.0
  Ni  Ni647  1  0.99908933  0.78640167  0.40565736  1.0
  Ni  Ni648  1  0.26232100  0.24817967  0.31784793  1.0
  Ni  Ni649  1  0.26232100  0.58151300  0.31784793  1.0
  Ni  Ni650  1  0.26232100  0.91484633  0.31784793  1.0
  Ni  Ni651  1  0.59565433  0.24817967  0.31784793  1.0
  Ni  Ni652  1  0.59565433  0.58151300  0.31784793  1.0
  Ni  Ni653  1  0.59565433  0.91484633  0.31784793  1.0
  Ni  Ni654  1  0.92898767  0.24817967  0.31784793  1.0
  Ni  Ni655  1  0.92898767  0.58151300  0.31784793  1.0
  Ni  Ni656  1  0.92898767  0.91484633  0.31784793  1.0
  Ni  Ni657  1  0.26103367  0.29798833  0.41062307  1.0
  Ni  Ni658  1  0.26103367  0.63132167  0.41062307  1.0
  Ni  Ni659  1  0.26103367  0.96465500  0.41062307  1.0
  Ni  Ni660  1  0.59436700  0.29798833  0.41062307  1.0
  Ni  Ni661  1  0.59436700  0.63132167  0.41062307  1.0
  Ni  Ni662  1  0.59436700  0.96465500  0.41062307  1.0
  Ni  Ni663  1  0.92770033  0.29798833  0.41062307  1.0
  Ni  Ni664  1  0.92770033  0.63132167  0.41062307  1.0
  Ni  Ni665  1  0.92770033  0.96465500  0.41062307  1.0
  Ni  Ni666  1  0.23767900  0.08151300  0.38927650  1.0
  Ni  Ni667  1  0.23767900  0.41484633  0.38927650  1.0
  Ni  Ni668  1  0.23767900  0.74817967  0.38927650  1.0
  Ni  Ni669  1  0.57101233  0.08151300  0.38927650  1.0
  Ni  Ni670  1  0.57101233  0.41484633  0.38927650  1.0
  Ni  Ni671  1  0.57101233  0.74817967  0.38927650  1.0
  Ni  Ni672  1  0.90434567  0.08151300  0.38927650  1.0
  Ni  Ni673  1  0.90434567  0.41484633  0.38927650  1.0
  Ni  Ni674  1  0.90434567  0.74817967  0.38927650  1.0
  Ni  Ni675  1  0.09436700  0.20201167  0.36949021  1.0
  Ni  Ni676  1  0.09436700  0.53534500  0.36949021  1.0
  Ni  Ni677  1  0.09436700  0.86867833  0.36949021  1.0
  Ni  Ni678  1  0.42770033  0.20201167  0.36949021  1.0
  Ni  Ni679  1  0.42770033  0.53534500  0.36949021  1.0
  Ni  Ni680  1  0.42770033  0.86867833  0.36949021  1.0
  Ni  Ni681  1  0.76103367  0.20201167  0.36949021  1.0
  Ni  Ni682  1  0.76103367  0.53534500  0.36949021  1.0
  Ni  Ni683  1  0.76103367  0.86867833  0.36949021  1.0
  Ni  Ni684  1  0.16575600  0.04693167  0.37445593  1.0
  Ni  Ni685  1  0.16575600  0.38026500  0.37445593  1.0
  Ni  Ni686  1  0.16575600  0.71359833  0.37445593  1.0
  Ni  Ni687  1  0.49908933  0.04693167  0.37445593  1.0
  Ni  Ni688  1  0.49908933  0.38026500  0.37445593  1.0
  Ni  Ni689  1  0.49908933  0.71359833  0.37445593  1.0
  Ni  Ni690  1  0.83242267  0.04693167  0.37445593  1.0
  Ni  Ni691  1  0.83242267  0.38026500  0.37445593  1.0
  Ni  Ni692  1  0.83242267  0.71359833  0.37445593  1.0
  Ni  Ni693  1  0.00000000  0.00000000  0.42577093  1.0
  Ni  Ni694  1  0.00000000  0.33333333  0.42577093  1.0
  Ni  Ni695  1  0.00000000  0.66666667  0.42577093  1.0
  Ni  Ni696  1  0.33333333  0.00000000  0.42577093  1.0
  Ni  Ni697  1  0.33333333  0.33333333  0.42577093  1.0
  Ni  Ni698  1  0.33333333  0.66666667  0.42577093  1.0
  Ni  Ni699  1  0.66666667  0.00000000  0.42577093  1.0
  Ni  Ni700  1  0.66666667  0.33333333  0.42577093  1.0
  Ni  Ni701  1  0.66666667  0.66666667  0.42577093  1.0
  Ni  Ni702  1  0.16666667  0.16666667  0.35434236  1.0
  Ni  Ni703  1  0.16666667  0.50000000  0.35434236  1.0
  Ni  Ni704  1  0.16666667  0.83333333  0.35434236  1.0
  Ni  Ni705  1  0.50000000  0.16666667  0.35434236  1.0
  Ni  Ni706  1  0.50000000  0.50000000  0.35434236  1.0
  Ni  Ni707  1  0.50000000  0.83333333  0.35434236  1.0
  Ni  Ni708  1  0.83333333  0.16666667  0.35434236  1.0
  Ni  Ni709  1  0.83333333  0.50000000  0.35434236  1.0
  Ni  Ni710  1  0.83333333  0.83333333  0.35434236  1.0
  Ni  Ni711  1  0.16666667  0.00000000  0.42577093  1.0
  Ni  Ni712  1  0.16666667  0.33333333  0.42577093  1.0
  Ni  Ni713  1  0.16666667  0.66666667  0.42577093  1.0
  Ni  Ni714  1  0.50000000  0.00000000  0.42577093  1.0
  Ni  Ni715  1  0.50000000  0.33333333  0.42577093  1.0
  Ni  Ni716  1  0.50000000  0.66666667  0.42577093  1.0
  Ni  Ni717  1  0.83333333  0.00000000  0.42577093  1.0
  Ni  Ni718  1  0.83333333  0.33333333  0.42577093  1.0
  Ni  Ni719  1  0.83333333  0.66666667  0.42577093  1.0
  Sn  Sn720  1  0.08493467  0.01306900  0.35994336  1.0
  Sn  Sn721  1  0.08493467  0.34640233  0.35994336  1.0
  Sn  Sn722  1  0.08493467  0.67973567  0.35994336  1.0
  Sn  Sn723  1  0.41826800  0.01306900  0.35994336  1.0
  Sn  Sn724  1  0.41826800  0.34640233  0.35994336  1.0
  Sn  Sn725  1  0.41826800  0.67973567  0.35994336  1.0
  Sn  Sn726  1  0.75160133  0.01306900  0.35994336  1.0
  Sn  Sn727  1  0.75160133  0.34640233  0.35994336  1.0
  Sn  Sn728  1  0.75160133  0.67973567  0.35994336  1.0
  Sn  Sn729  1  0.09251367  0.30323433  0.41287136  1.0
  Sn  Sn730  1  0.09251367  0.63656767  0.41287136  1.0
  Sn  Sn731  1  0.09251367  0.96990100  0.41287136  1.0
  Sn  Sn732  1  0.42584700  0.30323433  0.41287136  1.0
  Sn  Sn733  1  0.42584700  0.63656767  0.41287136  1.0
  Sn  Sn734  1  0.42584700  0.96990100  0.41287136  1.0
  Sn  Sn735  1  0.75918033  0.30323433  0.41287136  1.0
  Sn  Sn736  1  0.75918033  0.63656767  0.41287136  1.0
  Sn  Sn737  1  0.75918033  0.96990100  0.41287136  1.0
  Sn  Sn738  1  0.24081967  0.03009900  0.29581336  1.0
  Sn  Sn739  1  0.24081967  0.36343233  0.29581336  1.0
  Sn  Sn740  1  0.24081967  0.69676567  0.29581336  1.0
  Sn  Sn741  1  0.57415300  0.03009900  0.29581336  1.0
  Sn  Sn742  1  0.57415300  0.36343233  0.29581336  1.0
  Sn  Sn743  1  0.57415300  0.69676567  0.29581336  1.0
  Sn  Sn744  1  0.90748633  0.03009900  0.29581336  1.0
  Sn  Sn745  1  0.90748633  0.36343233  0.29581336  1.0
  Sn  Sn746  1  0.90748633  0.69676567  0.29581336  1.0
  Sn  Sn747  1  0.00028500  0.27971567  0.33136336  1.0
  Sn  Sn748  1  0.00028500  0.61304900  0.33136336  1.0
  Sn  Sn749  1  0.00028500  0.94638233  0.33136336  1.0
  Sn  Sn750  1  0.33361833  0.27971567  0.33136336  1.0
  Sn  Sn751  1  0.33361833  0.61304900  0.33136336  1.0
  Sn  Sn752  1  0.33361833  0.94638233  0.33136336  1.0
  Sn  Sn753  1  0.66695167  0.27971567  0.33136336  1.0
  Sn  Sn754  1  0.66695167  0.61304900  0.33136336  1.0
  Sn  Sn755  1  0.66695167  0.94638233  0.33136336  1.0
  Sn  Sn756  1  0.24839867  0.32026433  0.34874136  1.0
  Sn  Sn757  1  0.24839867  0.65359767  0.34874136  1.0
  Sn  Sn758  1  0.24839867  0.98693100  0.34874136  1.0
  Sn  Sn759  1  0.58173200  0.32026433  0.34874136  1.0
  Sn  Sn760  1  0.58173200  0.65359767  0.34874136  1.0
  Sn  Sn761  1  0.58173200  0.98693100  0.34874136  1.0
  Sn  Sn762  1  0.91506533  0.32026433  0.34874136  1.0
  Sn  Sn763  1  0.91506533  0.65359767  0.34874136  1.0
  Sn  Sn764  1  0.91506533  0.98693100  0.34874136  1.0
  Sn  Sn765  1  0.25918033  0.19676567  0.36724193  1.0
  Sn  Sn766  1  0.25918033  0.53009900  0.36724193  1.0
  Sn  Sn767  1  0.25918033  0.86343233  0.36724193  1.0
  Sn  Sn768  1  0.59251367  0.19676567  0.36724193  1.0
  Sn  Sn769  1  0.59251367  0.53009900  0.36724193  1.0
  Sn  Sn770  1  0.59251367  0.86343233  0.36724193  1.0
  Sn  Sn771  1  0.92584700  0.19676567  0.36724193  1.0
  Sn  Sn772  1  0.92584700  0.53009900  0.36724193  1.0
  Sn  Sn773  1  0.92584700  0.86343233  0.36724193  1.0
  Sn  Sn774  1  0.31568800  0.09666667  0.32434236  1.0
  Sn  Sn775  1  0.31568800  0.43000000  0.32434236  1.0
  Sn  Sn776  1  0.31568800  0.76333333  0.32434236  1.0
  Sn  Sn777  1  0.64902133  0.09666667  0.32434236  1.0
  Sn  Sn778  1  0.64902133  0.43000000  0.32434236  1.0
  Sn  Sn779  1  0.64902133  0.76333333  0.32434236  1.0
  Sn  Sn780  1  0.98235467  0.09666667  0.32434236  1.0
  Sn  Sn781  1  0.98235467  0.43000000  0.32434236  1.0
  Sn  Sn782  1  0.98235467  0.76333333  0.32434236  1.0
  Sn  Sn783  1  0.14902133  0.07000000  0.31291379  1.0
  Sn  Sn784  1  0.14902133  0.40333333  0.31291379  1.0
  Sn  Sn785  1  0.14902133  0.73666667  0.31291379  1.0
  Sn  Sn786  1  0.48235467  0.07000000  0.31291379  1.0
  Sn  Sn787  1  0.48235467  0.40333333  0.31291379  1.0
  Sn  Sn788  1  0.48235467  0.73666667  0.31291379  1.0
  Sn  Sn789  1  0.81568800  0.07000000  0.31291379  1.0
  Sn  Sn790  1  0.81568800  0.40333333  0.31291379  1.0
  Sn  Sn791  1  0.81568800  0.73666667  0.31291379  1.0
  Sn  Sn792  1  0.18431200  0.26333333  0.39577093  1.0
  Sn  Sn793  1  0.18431200  0.59666667  0.39577093  1.0
  Sn  Sn794  1  0.18431200  0.93000000  0.39577093  1.0
  Sn  Sn795  1  0.51764533  0.26333333  0.39577093  1.0
  Sn  Sn796  1  0.51764533  0.59666667  0.39577093  1.0
  Sn  Sn797  1  0.51764533  0.93000000  0.39577093  1.0
  Sn  Sn798  1  0.85097867  0.26333333  0.39577093  1.0
  Sn  Sn799  1  0.85097867  0.59666667  0.39577093  1.0
  Sn  Sn800  1  0.85097867  0.93000000  0.39577093  1.0
  Sn  Sn801  1  0.08173200  0.17973567  0.28851479  1.0
  Sn  Sn802  1  0.08173200  0.51306900  0.28851479  1.0
  Sn  Sn803  1  0.08173200  0.84640233  0.28851479  1.0
  Sn  Sn804  1  0.41506533  0.17973567  0.28851479  1.0
  Sn  Sn805  1  0.41506533  0.51306900  0.28851479  1.0
  Sn  Sn806  1  0.41506533  0.84640233  0.28851479  1.0
  Sn  Sn807  1  0.74839867  0.17973567  0.28851479  1.0
  Sn  Sn808  1  0.74839867  0.51306900  0.28851479  1.0
  Sn  Sn809  1  0.74839867  0.84640233  0.28851479  1.0
  Sn  Sn810  1  0.07415300  0.13656767  0.34144279  1.0
  Sn  Sn811  1  0.07415300  0.46990100  0.34144279  1.0
  Sn  Sn812  1  0.07415300  0.80323433  0.34144279  1.0
  Sn  Sn813  1  0.40748633  0.13656767  0.34144279  1.0
  Sn  Sn814  1  0.40748633  0.46990100  0.34144279  1.0
  Sn  Sn815  1  0.40748633  0.80323433  0.34144279  1.0
  Sn  Sn816  1  0.74081967  0.13656767  0.34144279  1.0
  Sn  Sn817  1  0.74081967  0.46990100  0.34144279  1.0
  Sn  Sn818  1  0.74081967  0.80323433  0.34144279  1.0
  Sn  Sn819  1  0.25160133  0.15359767  0.42016993  1.0
  Sn  Sn820  1  0.25160133  0.48693100  0.42016993  1.0
  Sn  Sn821  1  0.25160133  0.82026433  0.42016993  1.0
  Sn  Sn822  1  0.58493467  0.15359767  0.42016993  1.0
  Sn  Sn823  1  0.58493467  0.48693100  0.42016993  1.0
  Sn  Sn824  1  0.58493467  0.82026433  0.42016993  1.0
  Sn  Sn825  1  0.91826800  0.15359767  0.42016993  1.0
  Sn  Sn826  1  0.91826800  0.48693100  0.42016993  1.0
  Sn  Sn827  1  0.91826800  0.82026433  0.42016993  1.0
  Sn  Sn828  1  0.01764533  0.23666667  0.38434236  1.0
  Sn  Sn829  1  0.01764533  0.57000000  0.38434236  1.0
  Sn  Sn830  1  0.01764533  0.90333333  0.38434236  1.0
  Sn  Sn831  1  0.35097867  0.23666667  0.38434236  1.0
  Sn  Sn832  1  0.35097867  0.57000000  0.38434236  1.0
  Sn  Sn833  1  0.35097867  0.90333333  0.38434236  1.0
  Sn  Sn834  1  0.68431200  0.23666667  0.38434236  1.0
  Sn  Sn835  1  0.68431200  0.57000000  0.38434236  1.0
  Sn  Sn836  1  0.68431200  0.90333333  0.38434236  1.0
  Sn  Sn837  1  0.16695167  0.22028433  0.30589279  1.0
  Sn  Sn838  1  0.16695167  0.55361767  0.30589279  1.0
  Sn  Sn839  1  0.16695167  0.88695100  0.30589279  1.0
  Sn  Sn840  1  0.50028500  0.22028433  0.30589279  1.0
  Sn  Sn841  1  0.50028500  0.55361767  0.30589279  1.0
  Sn  Sn842  1  0.50028500  0.88695100  0.30589279  1.0
  Sn  Sn843  1  0.83361833  0.22028433  0.30589279  1.0
  Sn  Sn844  1  0.83361833  0.55361767  0.30589279  1.0
  Sn  Sn845  1  0.83361833  0.88695100  0.30589279  1.0
  Sn  Sn846  1  0.33304833  0.05361767  0.37732136  1.0
  Sn  Sn847  1  0.33304833  0.38695100  0.37732136  1.0
  Sn  Sn848  1  0.33304833  0.72028433  0.37732136  1.0
  Sn  Sn849  1  0.66638167  0.05361767  0.37732136  1.0
  Sn  Sn850  1  0.66638167  0.38695100  0.37732136  1.0
  Sn  Sn851  1  0.66638167  0.72028433  0.37732136  1.0
  Sn  Sn852  1  0.99971500  0.05361767  0.37732136  1.0
  Sn  Sn853  1  0.99971500  0.38695100  0.37732136  1.0
  Sn  Sn854  1  0.99971500  0.72028433  0.37732136  1.0
  Sn  Sn855  1  0.16638167  0.11304900  0.40279193  1.0
  Sn  Sn856  1  0.16638167  0.44638233  0.40279193  1.0
  Sn  Sn857  1  0.16638167  0.77971567  0.40279193  1.0
  Sn  Sn858  1  0.49971500  0.11304900  0.40279193  1.0
  Sn  Sn859  1  0.49971500  0.44638233  0.40279193  1.0
  Sn  Sn860  1  0.49971500  0.77971567  0.40279193  1.0
  Sn  Sn861  1  0.83304833  0.11304900  0.40279193  1.0
  Sn  Sn862  1  0.83304833  0.44638233  0.40279193  1.0
  Sn  Sn863  1  0.83304833  0.77971567  0.40279193  1.0
