# generated using pymatgen
data_NiSn
_symmetry_space_group_name_H-M   'P 1'
_cell_length_a   12.40338300
_cell_length_b   150.58362520
_cell_length_c   26.14643500
_cell_angle_alpha   95.97994746
_cell_angle_beta   90.00000000
_cell_angle_gamma   90.00000000
_symmetry_Int_Tables_number   1
_chemical_formula_structural   NiSn
_chemical_formula_sum   'Ni576 Sn576'
_cell_volume   48569.17005856
_cell_formula_units_Z   576
loop_
 _symmetry_equiv_pos_site_id
 _symmetry_equiv_pos_as_xyz
  1  'x, y, z'
loop_
 _atom_site_type_symbol
 _atom_site_label
 _atom_site_symmetry_multiplicity
 _atom_site_fract_x
 _atom_site_fract_y
 _atom_site_fract_z
 _atom_site_occupancy
  Ni  Ni0  1  0.00000000  0.10100583  0.10653735  1.0
  Ni  Ni1  1  0.00000000  0.43433917  0.10653735  1.0
  Ni  Ni2  1  0.00000000  0.76767250  0.10653735  1.0
  Ni  Ni3  1  0.33333333  0.10100583  0.10653735  1.0
  Ni  Ni4  1  0.33333333  0.43433917  0.10653735  1.0
  Ni  Ni5  1  0.33333333  0.76767250  0.10653735  1.0
  Ni  Ni6  1  0.66666667  0.10100583  0.10653735  1.0
  Ni  Ni7  1  0.66666667  0.43433917  0.10653735  1.0
  Ni  Ni8  1  0.66666667  0.76767250  0.10653735  1.0
  Ni  Ni9  1  0.00000000  0.26767250  0.00653735  1.0
  Ni  Ni10  1  0.00000000  0.60100583  0.00653735  1.0
  Ni  Ni11  1  0.00000000  0.93433917  0.00653735  1.0
  Ni  Ni12  1  0.33333333  0.26767250  0.00653735  1.0
  Ni  Ni13  1  0.33333333  0.60100583  0.00653735  1.0
  Ni  Ni14  1  0.33333333  0.93433917  0.00653735  1.0
  Ni  Ni15  1  0.66666667  0.26767250  0.00653735  1.0
  Ni  Ni16  1  0.66666667  0.60100583  0.00653735  1.0
  Ni  Ni17  1  0.66666667  0.93433917  0.00653735  1.0
  Ni  Ni18  1  0.00000000  0.14899417  0.03533035  1.0
  Ni  Ni19  1  0.00000000  0.48232750  0.03533035  1.0
  Ni  Ni20  1  0.00000000  0.81566083  0.03533035  1.0
  Ni  Ni21  1  0.33333333  0.14899417  0.03533035  1.0
  Ni  Ni22  1  0.33333333  0.48232750  0.03533035  1.0
  Ni  Ni23  1  0.33333333  0.81566083  0.03533035  1.0
  Ni  Ni24  1  0.66666667  0.14899417  0.03533035  1.0
  Ni  Ni25  1  0.66666667  0.48232750  0.03533035  1.0
  Ni  Ni26  1  0.66666667  0.81566083  0.03533035  1.0
  Ni  Ni27  1  0.00000000  0.31566083  0.13533035  1.0
  Ni  Ni28  1  0.00000000  0.64899417  0.13533035  1.0
  Ni  Ni29  1  0.00000000  0.98232750  0.13533035  1.0
  Ni  Ni30  1  0.33333333  0.31566083  0.13533035  1.0
  Ni  Ni31  1  0.33333333  0.64899417  0.13533035  1.0
  Ni  Ni32  1  0.33333333  0.98232750  0.13533035  1.0
  Ni  Ni33  1  0.66666667  0.31566083  0.13533035  1.0
  Ni  Ni34  1  0.66666667  0.64899417  0.13533035  1.0
  Ni  Ni35  1  0.66666667  0.98232750  0.13533035  1.0
  Ni  Ni36  1  0.16666667  0.12408983  0.02116015  1.0
  Ni  Ni37  1  0.16666667  0.45742317  0.02116015  1.0
  Ni  Ni38  1  0.16666667  0.79075650  0.02116015  1.0
  Ni  Ni39  1  0.50000000  0.12408983  0.02116015  1.0
  Ni  Ni40  1  0.50000000  0.45742317  0.02116015  1.0
  Ni  Ni41  1  0.50000000  0.79075650  0.02116015  1.0
  Ni  Ni42  1  0.83333333  0.12408983  0.02116015  1.0
  Ni  Ni43  1  0.83333333  0.45742317  0.02116015  1.0
  Ni  Ni44  1  0.83333333  0.79075650  0.02116015  1.0
  Ni  Ni45  1  0.16666667  0.29075650  0.12116015  1.0
  Ni  Ni46  1  0.16666667  0.62408983  0.12116015  1.0
  Ni  Ni47  1  0.16666667  0.95742317  0.12116015  1.0
  Ni  Ni48  1  0.50000000  0.29075650  0.12116015  1.0
  Ni  Ni49  1  0.50000000  0.62408983  0.12116015  1.0
  Ni  Ni50  1  0.50000000  0.95742317  0.12116015  1.0
  Ni  Ni51  1  0.83333333  0.29075650  0.12116015  1.0
  Ni  Ni52  1  0.83333333  0.62408983  0.12116015  1.0
  Ni  Ni53  1  0.83333333  0.95742317  0.12116015  1.0
  Ni  Ni54  1  0.16666667  0.05986750  0.02468775  1.0
  Ni  Ni55  1  0.16666667  0.39320083  0.02468775  1.0
  Ni  Ni56  1  0.16666667  0.72653417  0.02468775  1.0
  Ni  Ni57  1  0.50000000  0.05986750  0.02468775  1.0
  Ni  Ni58  1  0.50000000  0.39320083  0.02468775  1.0
  Ni  Ni59  1  0.50000000  0.72653417  0.02468775  1.0
  Ni  Ni60  1  0.83333333  0.05986750  0.02468775  1.0
  Ni  Ni61  1  0.83333333  0.39320083  0.02468775  1.0
  Ni  Ni62  1  0.83333333  0.72653417  0.02468775  1.0
  Ni  Ni63  1  0.16666667  0.22653417  0.12468775  1.0
  Ni  Ni64  1  0.16666667  0.55986750  0.12468775  1.0
  Ni  Ni65  1  0.16666667  0.89320083  0.12468775  1.0
  Ni  Ni66  1  0.50000000  0.22653417  0.12468775  1.0
  Ni  Ni67  1  0.50000000  0.55986750  0.12468775  1.0
  Ni  Ni68  1  0.50000000  0.89320083  0.12468775  1.0
  Ni  Ni69  1  0.83333333  0.22653417  0.12468775  1.0
  Ni  Ni70  1  0.83333333  0.55986750  0.12468775  1.0
  Ni  Ni71  1  0.83333333  0.89320083  0.12468775  1.0
  Ni  Ni72  1  0.16666667  0.02346583  0.10284675  1.0
  Ni  Ni73  1  0.16666667  0.35679917  0.10284675  1.0
  Ni  Ni74  1  0.16666667  0.69013250  0.10284675  1.0
  Ni  Ni75  1  0.50000000  0.02346583  0.10284675  1.0
  Ni  Ni76  1  0.50000000  0.35679917  0.10284675  1.0
  Ni  Ni77  1  0.50000000  0.69013250  0.10284675  1.0
  Ni  Ni78  1  0.83333333  0.02346583  0.10284675  1.0
  Ni  Ni79  1  0.83333333  0.35679917  0.10284675  1.0
  Ni  Ni80  1  0.83333333  0.69013250  0.10284675  1.0
  Ni  Ni81  1  0.16666667  0.19013250  0.00284675  1.0
  Ni  Ni82  1  0.16666667  0.52346583  0.00284675  1.0
  Ni  Ni83  1  0.16666667  0.85679917  0.00284675  1.0
  Ni  Ni84  1  0.50000000  0.19013250  0.00284675  1.0
  Ni  Ni85  1  0.50000000  0.52346583  0.00284675  1.0
  Ni  Ni86  1  0.50000000  0.85679917  0.00284675  1.0
  Ni  Ni87  1  0.83333333  0.19013250  0.00284675  1.0
  Ni  Ni88  1  0.83333333  0.52346583  0.00284675  1.0
  Ni  Ni89  1  0.83333333  0.85679917  0.00284675  1.0
  Ni  Ni90  1  0.16666667  0.04075650  0.15637495  1.0
  Ni  Ni91  1  0.16666667  0.37408983  0.15637495  1.0
  Ni  Ni92  1  0.16666667  0.70742317  0.15637495  1.0
  Ni  Ni93  1  0.50000000  0.04075650  0.15637495  1.0
  Ni  Ni94  1  0.50000000  0.37408983  0.15637495  1.0
  Ni  Ni95  1  0.50000000  0.70742317  0.15637495  1.0
  Ni  Ni96  1  0.83333333  0.04075650  0.15637495  1.0
  Ni  Ni97  1  0.83333333  0.37408983  0.15637495  1.0
  Ni  Ni98  1  0.83333333  0.70742317  0.15637495  1.0
  Ni  Ni99  1  0.16666667  0.20742317  0.05637495  1.0
  Ni  Ni100  1  0.16666667  0.54075650  0.05637495  1.0
  Ni  Ni101  1  0.16666667  0.87408983  0.05637495  1.0
  Ni  Ni102  1  0.50000000  0.20742317  0.05637495  1.0
  Ni  Ni103  1  0.50000000  0.54075650  0.05637495  1.0
  Ni  Ni104  1  0.50000000  0.87408983  0.05637495  1.0
  Ni  Ni105  1  0.83333333  0.20742317  0.05637495  1.0
  Ni  Ni106  1  0.83333333  0.54075650  0.05637495  1.0
  Ni  Ni107  1  0.83333333  0.87408983  0.05637495  1.0
  Ni  Ni108  1  0.00000000  0.08333333  0.03931365  1.0
  Ni  Ni109  1  0.00000000  0.41666667  0.03931365  1.0
  Ni  Ni110  1  0.00000000  0.75000000  0.03931365  1.0
  Ni  Ni111  1  0.33333333  0.08333333  0.03931365  1.0
  Ni  Ni112  1  0.33333333  0.41666667  0.03931365  1.0
  Ni  Ni113  1  0.33333333  0.75000000  0.03931365  1.0
  Ni  Ni114  1  0.66666667  0.08333333  0.03931365  1.0
  Ni  Ni115  1  0.66666667  0.41666667  0.03931365  1.0
  Ni  Ni116  1  0.66666667  0.75000000  0.03931365  1.0
  Ni  Ni117  1  0.00000000  0.25000000  0.13931365  1.0
  Ni  Ni118  1  0.00000000  0.58333333  0.13931365  1.0
  Ni  Ni119  1  0.00000000  0.91666667  0.13931365  1.0
  Ni  Ni120  1  0.33333333  0.25000000  0.13931365  1.0
  Ni  Ni121  1  0.33333333  0.58333333  0.13931365  1.0
  Ni  Ni122  1  0.33333333  0.91666667  0.13931365  1.0
  Ni  Ni123  1  0.66666667  0.25000000  0.13931365  1.0
  Ni  Ni124  1  0.66666667  0.58333333  0.13931365  1.0
  Ni  Ni125  1  0.66666667  0.91666667  0.13931365  1.0
  Ni  Ni126  1  0.16666667  0.10679917  0.05393955  1.0
  Ni  Ni127  1  0.16666667  0.44013250  0.05393955  1.0
  Ni  Ni128  1  0.16666667  0.77346583  0.05393955  1.0
  Ni  Ni129  1  0.50000000  0.10679917  0.05393955  1.0
  Ni  Ni130  1  0.50000000  0.44013250  0.05393955  1.0
  Ni  Ni131  1  0.50000000  0.77346583  0.05393955  1.0
  Ni  Ni132  1  0.83333333  0.10679917  0.05393955  1.0
  Ni  Ni133  1  0.83333333  0.44013250  0.05393955  1.0
  Ni  Ni134  1  0.83333333  0.77346583  0.05393955  1.0
  Ni  Ni135  1  0.16666667  0.27346583  0.15393955  1.0
  Ni  Ni136  1  0.16666667  0.60679917  0.15393955  1.0
  Ni  Ni137  1  0.16666667  0.94013250  0.15393955  1.0
  Ni  Ni138  1  0.50000000  0.27346583  0.15393955  1.0
  Ni  Ni139  1  0.50000000  0.60679917  0.15393955  1.0
  Ni  Ni140  1  0.50000000  0.94013250  0.15393955  1.0
  Ni  Ni141  1  0.83333333  0.27346583  0.15393955  1.0
  Ni  Ni142  1  0.83333333  0.60679917  0.15393955  1.0
  Ni  Ni143  1  0.83333333  0.94013250  0.15393955  1.0
  Ni  Ni144  1  0.16666667  0.04257683  0.05746715  1.0
  Ni  Ni145  1  0.16666667  0.37591017  0.05746715  1.0
  Ni  Ni146  1  0.16666667  0.70924350  0.05746715  1.0
  Ni  Ni147  1  0.50000000  0.04257683  0.05746715  1.0
  Ni  Ni148  1  0.50000000  0.37591017  0.05746715  1.0
  Ni  Ni149  1  0.50000000  0.70924350  0.05746715  1.0
  Ni  Ni150  1  0.83333333  0.04257683  0.05746715  1.0
  Ni  Ni151  1  0.83333333  0.37591017  0.05746715  1.0
  Ni  Ni152  1  0.83333333  0.70924350  0.05746715  1.0
  Ni  Ni153  1  0.16666667  0.20924350  0.15746715  1.0
  Ni  Ni154  1  0.16666667  0.54257683  0.15746715  1.0
  Ni  Ni155  1  0.16666667  0.87591017  0.15746715  1.0
  Ni  Ni156  1  0.50000000  0.20924350  0.15746715  1.0
  Ni  Ni157  1  0.50000000  0.54257683  0.15746715  1.0
  Ni  Ni158  1  0.50000000  0.87591017  0.15746715  1.0
  Ni  Ni159  1  0.83333333  0.20924350  0.15746715  1.0
  Ni  Ni160  1  0.83333333  0.54257683  0.15746715  1.0
  Ni  Ni161  1  0.83333333  0.87591017  0.15746715  1.0
  Ni  Ni162  1  0.00000000  0.01767250  0.04329695  1.0
  Ni  Ni163  1  0.00000000  0.35100583  0.04329695  1.0
  Ni  Ni164  1  0.00000000  0.68433917  0.04329695  1.0
  Ni  Ni165  1  0.33333333  0.01767250  0.04329695  1.0
  Ni  Ni166  1  0.33333333  0.35100583  0.04329695  1.0
  Ni  Ni167  1  0.33333333  0.68433917  0.04329695  1.0
  Ni  Ni168  1  0.66666667  0.01767250  0.04329695  1.0
  Ni  Ni169  1  0.66666667  0.35100583  0.04329695  1.0
  Ni  Ni170  1  0.66666667  0.68433917  0.04329695  1.0
  Ni  Ni171  1  0.00000000  0.18433917  0.14329695  1.0
  Ni  Ni172  1  0.00000000  0.51767250  0.14329695  1.0
  Ni  Ni173  1  0.00000000  0.85100583  0.14329695  1.0
  Ni  Ni174  1  0.33333333  0.18433917  0.14329695  1.0
  Ni  Ni175  1  0.33333333  0.51767250  0.14329695  1.0
  Ni  Ni176  1  0.33333333  0.85100583  0.14329695  1.0
  Ni  Ni177  1  0.66666667  0.18433917  0.14329695  1.0
  Ni  Ni178  1  0.66666667  0.51767250  0.14329695  1.0
  Ni  Ni179  1  0.66666667  0.85100583  0.14329695  1.0
  Ni  Ni180  1  0.16666667  0.12591017  0.12225235  1.0
  Ni  Ni181  1  0.16666667  0.45924350  0.12225235  1.0
  Ni  Ni182  1  0.16666667  0.79257683  0.12225235  1.0
  Ni  Ni183  1  0.50000000  0.12591017  0.12225235  1.0
  Ni  Ni184  1  0.50000000  0.45924350  0.12225235  1.0
  Ni  Ni185  1  0.50000000  0.79257683  0.12225235  1.0
  Ni  Ni186  1  0.83333333  0.12591017  0.12225235  1.0
  Ni  Ni187  1  0.83333333  0.45924350  0.12225235  1.0
  Ni  Ni188  1  0.83333333  0.79257683  0.12225235  1.0
  Ni  Ni189  1  0.16666667  0.29257683  0.02225235  1.0
  Ni  Ni190  1  0.16666667  0.62591017  0.02225235  1.0
  Ni  Ni191  1  0.16666667  0.95924350  0.02225235  1.0
  Ni  Ni192  1  0.50000000  0.29257683  0.02225235  1.0
  Ni  Ni193  1  0.50000000  0.62591017  0.02225235  1.0
  Ni  Ni194  1  0.50000000  0.95924350  0.02225235  1.0
  Ni  Ni195  1  0.83333333  0.29257683  0.02225235  1.0
  Ni  Ni196  1  0.83333333  0.62591017  0.02225235  1.0
  Ni  Ni197  1  0.83333333  0.95924350  0.02225235  1.0
  Ni  Ni198  1  0.00000000  0.06566083  0.17208995  1.0
  Ni  Ni199  1  0.00000000  0.39899417  0.17208995  1.0
  Ni  Ni200  1  0.00000000  0.73232750  0.17208995  1.0
  Ni  Ni201  1  0.33333333  0.06566083  0.17208995  1.0
  Ni  Ni202  1  0.33333333  0.39899417  0.17208995  1.0
  Ni  Ni203  1  0.33333333  0.73232750  0.17208995  1.0
  Ni  Ni204  1  0.66666667  0.06566083  0.17208995  1.0
  Ni  Ni205  1  0.66666667  0.39899417  0.17208995  1.0
  Ni  Ni206  1  0.66666667  0.73232750  0.17208995  1.0
  Ni  Ni207  1  0.00000000  0.23232750  0.07208995  1.0
  Ni  Ni208  1  0.00000000  0.56566083  0.07208995  1.0
  Ni  Ni209  1  0.00000000  0.89899417  0.07208995  1.0
  Ni  Ni210  1  0.33333333  0.23232750  0.07208995  1.0
  Ni  Ni211  1  0.33333333  0.56566083  0.07208995  1.0
  Ni  Ni212  1  0.33333333  0.89899417  0.07208995  1.0
  Ni  Ni213  1  0.66666667  0.23232750  0.07208995  1.0
  Ni  Ni214  1  0.66666667  0.56566083  0.07208995  1.0
  Ni  Ni215  1  0.66666667  0.89899417  0.07208995  1.0
  Ni  Ni216  1  0.16666667  0.14320083  0.17578055  1.0
  Ni  Ni217  1  0.16666667  0.47653417  0.17578055  1.0
  Ni  Ni218  1  0.16666667  0.80986750  0.17578055  1.0
  Ni  Ni219  1  0.50000000  0.14320083  0.17578055  1.0
  Ni  Ni220  1  0.50000000  0.47653417  0.17578055  1.0
  Ni  Ni221  1  0.50000000  0.80986750  0.17578055  1.0
  Ni  Ni222  1  0.83333333  0.14320083  0.17578055  1.0
  Ni  Ni223  1  0.83333333  0.47653417  0.17578055  1.0
  Ni  Ni224  1  0.83333333  0.80986750  0.17578055  1.0
  Ni  Ni225  1  0.16666667  0.30986750  0.07578055  1.0
  Ni  Ni226  1  0.16666667  0.64320083  0.07578055  1.0
  Ni  Ni227  1  0.16666667  0.97653417  0.07578055  1.0
  Ni  Ni228  1  0.50000000  0.30986750  0.07578055  1.0
  Ni  Ni229  1  0.50000000  0.64320083  0.07578055  1.0
  Ni  Ni230  1  0.50000000  0.97653417  0.07578055  1.0
  Ni  Ni231  1  0.83333333  0.30986750  0.07578055  1.0
  Ni  Ni232  1  0.83333333  0.64320083  0.07578055  1.0
  Ni  Ni233  1  0.83333333  0.97653417  0.07578055  1.0
  Ni  Ni234  1  0.00000000  0.16666667  0.08931365  1.0
  Ni  Ni235  1  0.00000000  0.50000000  0.08931365  1.0
  Ni  Ni236  1  0.00000000  0.83333333  0.08931365  1.0
  Ni  Ni237  1  0.33333333  0.16666667  0.08931365  1.0
  Ni  Ni238  1  0.33333333  0.50000000  0.08931365  1.0
  Ni  Ni239  1  0.33333333  0.83333333  0.08931365  1.0
  Ni  Ni240  1  0.66666667  0.16666667  0.08931365  1.0
  Ni  Ni241  1  0.66666667  0.50000000  0.08931365  1.0
  Ni  Ni242  1  0.66666667  0.83333333  0.08931365  1.0
  Ni  Ni243  1  0.00000000  0.00000000  0.18931365  1.0
  Ni  Ni244  1  0.00000000  0.33333333  0.18931365  1.0
  Ni  Ni245  1  0.00000000  0.66666667  0.18931365  1.0
  Ni  Ni246  1  0.33333333  0.00000000  0.18931365  1.0
  Ni  Ni247  1  0.33333333  0.33333333  0.18931365  1.0
  Ni  Ni248  1  0.33333333  0.66666667  0.18931365  1.0
  Ni  Ni249  1  0.66666667  0.00000000  0.18931365  1.0
  Ni  Ni250  1  0.66666667  0.33333333  0.18931365  1.0
  Ni  Ni251  1  0.66666667  0.66666667  0.18931365  1.0
  Ni  Ni252  1  0.00000000  0.08333333  0.13931365  1.0
  Ni  Ni253  1  0.00000000  0.41666667  0.13931365  1.0
  Ni  Ni254  1  0.00000000  0.75000000  0.13931365  1.0
  Ni  Ni255  1  0.33333333  0.08333333  0.13931365  1.0
  Ni  Ni256  1  0.33333333  0.41666667  0.13931365  1.0
  Ni  Ni257  1  0.33333333  0.75000000  0.13931365  1.0
  Ni  Ni258  1  0.66666667  0.08333333  0.13931365  1.0
  Ni  Ni259  1  0.66666667  0.41666667  0.13931365  1.0
  Ni  Ni260  1  0.66666667  0.75000000  0.13931365  1.0
  Ni  Ni261  1  0.00000000  0.25000000  0.03931365  1.0
  Ni  Ni262  1  0.00000000  0.58333333  0.03931365  1.0
  Ni  Ni263  1  0.00000000  0.91666667  0.03931365  1.0
  Ni  Ni264  1  0.33333333  0.25000000  0.03931365  1.0
  Ni  Ni265  1  0.33333333  0.58333333  0.03931365  1.0
  Ni  Ni266  1  0.33333333  0.91666667  0.03931365  1.0
  Ni  Ni267  1  0.66666667  0.25000000  0.03931365  1.0
  Ni  Ni268  1  0.66666667  0.58333333  0.03931365  1.0
  Ni  Ni269  1  0.66666667  0.91666667  0.03931365  1.0
  Ni  Ni270  1  0.00000000  0.16666667  0.18931365  1.0
  Ni  Ni271  1  0.00000000  0.50000000  0.18931365  1.0
  Ni  Ni272  1  0.00000000  0.83333333  0.18931365  1.0
  Ni  Ni273  1  0.33333333  0.16666667  0.18931365  1.0
  Ni  Ni274  1  0.33333333  0.50000000  0.18931365  1.0
  Ni  Ni275  1  0.33333333  0.83333333  0.18931365  1.0
  Ni  Ni276  1  0.66666667  0.16666667  0.18931365  1.0
  Ni  Ni277  1  0.66666667  0.50000000  0.18931365  1.0
  Ni  Ni278  1  0.66666667  0.83333333  0.18931365  1.0
  Ni  Ni279  1  0.00000000  0.00000000  0.08931365  1.0
  Ni  Ni280  1  0.00000000  0.33333333  0.08931365  1.0
  Ni  Ni281  1  0.00000000  0.66666667  0.08931365  1.0
  Ni  Ni282  1  0.33333333  0.00000000  0.08931365  1.0
  Ni  Ni283  1  0.33333333  0.33333333  0.08931365  1.0
  Ni  Ni284  1  0.33333333  0.66666667  0.08931365  1.0
  Ni  Ni285  1  0.66666667  0.00000000  0.08931365  1.0
  Ni  Ni286  1  0.66666667  0.33333333  0.08931365  1.0
  Ni  Ni287  1  0.66666667  0.66666667  0.08931365  1.0
  Sn  Sn288  1  0.16666667  0.16013217  0.03443215  1.0
  Sn  Sn289  1  0.16666667  0.49346550  0.03443215  1.0
  Sn  Sn290  1  0.16666667  0.82679883  0.03443215  1.0
  Sn  Sn291  1  0.50000000  0.16013217  0.03443215  1.0
  Sn  Sn292  1  0.50000000  0.49346550  0.03443215  1.0
  Sn  Sn293  1  0.50000000  0.82679883  0.03443215  1.0
  Sn  Sn294  1  0.83333333  0.16013217  0.03443215  1.0
  Sn  Sn295  1  0.83333333  0.49346550  0.03443215  1.0
  Sn  Sn296  1  0.83333333  0.82679883  0.03443215  1.0
  Sn  Sn297  1  0.16666667  0.32679883  0.13443215  1.0
  Sn  Sn298  1  0.16666667  0.66013217  0.13443215  1.0
  Sn  Sn299  1  0.16666667  0.99346550  0.13443215  1.0
  Sn  Sn300  1  0.50000000  0.32679883  0.13443215  1.0
  Sn  Sn301  1  0.50000000  0.66013217  0.13443215  1.0
  Sn  Sn302  1  0.50000000  0.99346550  0.13443215  1.0
  Sn  Sn303  1  0.83333333  0.32679883  0.13443215  1.0
  Sn  Sn304  1  0.83333333  0.66013217  0.13443215  1.0
  Sn  Sn305  1  0.83333333  0.99346550  0.13443215  1.0
  Sn  Sn306  1  0.00000000  0.01504950  0.14283515  1.0
  Sn  Sn307  1  0.00000000  0.34838283  0.14283515  1.0
  Sn  Sn308  1  0.00000000  0.68171617  0.14283515  1.0
  Sn  Sn309  1  0.33333333  0.01504950  0.14283515  1.0
  Sn  Sn310  1  0.33333333  0.34838283  0.14283515  1.0
  Sn  Sn311  1  0.33333333  0.68171617  0.14283515  1.0
  Sn  Sn312  1  0.66666667  0.01504950  0.14283515  1.0
  Sn  Sn313  1  0.66666667  0.34838283  0.14283515  1.0
  Sn  Sn314  1  0.66666667  0.68171617  0.14283515  1.0
  Sn  Sn315  1  0.00000000  0.18171617  0.04283515  1.0
  Sn  Sn316  1  0.00000000  0.51504950  0.04283515  1.0
  Sn  Sn317  1  0.00000000  0.84838283  0.04283515  1.0
  Sn  Sn318  1  0.33333333  0.18171617  0.04283515  1.0
  Sn  Sn319  1  0.33333333  0.51504950  0.04283515  1.0
  Sn  Sn320  1  0.33333333  0.84838283  0.04283515  1.0
  Sn  Sn321  1  0.66666667  0.18171617  0.04283515  1.0
  Sn  Sn322  1  0.66666667  0.51504950  0.04283515  1.0
  Sn  Sn323  1  0.66666667  0.84838283  0.04283515  1.0
  Sn  Sn324  1  0.00000000  0.15161717  0.13579215  1.0
  Sn  Sn325  1  0.00000000  0.48495050  0.13579215  1.0
  Sn  Sn326  1  0.00000000  0.81828383  0.13579215  1.0
  Sn  Sn327  1  0.33333333  0.15161717  0.13579215  1.0
  Sn  Sn328  1  0.33333333  0.48495050  0.13579215  1.0
  Sn  Sn329  1  0.33333333  0.81828383  0.13579215  1.0
  Sn  Sn330  1  0.66666667  0.15161717  0.13579215  1.0
  Sn  Sn331  1  0.66666667  0.48495050  0.13579215  1.0
  Sn  Sn332  1  0.66666667  0.81828383  0.13579215  1.0
  Sn  Sn333  1  0.00000000  0.31828383  0.03579215  1.0
  Sn  Sn334  1  0.00000000  0.65161717  0.03579215  1.0
  Sn  Sn335  1  0.00000000  0.98495050  0.03579215  1.0
  Sn  Sn336  1  0.33333333  0.31828383  0.03579215  1.0
  Sn  Sn337  1  0.33333333  0.65161717  0.03579215  1.0
  Sn  Sn338  1  0.33333333  0.98495050  0.03579215  1.0
  Sn  Sn339  1  0.66666667  0.31828383  0.03579215  1.0
  Sn  Sn340  1  0.66666667  0.65161717  0.03579215  1.0
  Sn  Sn341  1  0.66666667  0.98495050  0.03579215  1.0
  Sn  Sn342  1  0.16666667  0.02680883  0.00522795  1.0
  Sn  Sn343  1  0.16666667  0.36014217  0.00522795  1.0
  Sn  Sn344  1  0.16666667  0.69347550  0.00522795  1.0
  Sn  Sn345  1  0.50000000  0.02680883  0.00522795  1.0
  Sn  Sn346  1  0.50000000  0.36014217  0.00522795  1.0
  Sn  Sn347  1  0.50000000  0.69347550  0.00522795  1.0
  Sn  Sn348  1  0.83333333  0.02680883  0.00522795  1.0
  Sn  Sn349  1  0.83333333  0.36014217  0.00522795  1.0
  Sn  Sn350  1  0.83333333  0.69347550  0.00522795  1.0
  Sn  Sn351  1  0.16666667  0.19347550  0.10522795  1.0
  Sn  Sn352  1  0.16666667  0.52680883  0.10522795  1.0
  Sn  Sn353  1  0.16666667  0.86014217  0.10522795  1.0
  Sn  Sn354  1  0.50000000  0.19347550  0.10522795  1.0
  Sn  Sn355  1  0.50000000  0.52680883  0.10522795  1.0
  Sn  Sn356  1  0.50000000  0.86014217  0.10522795  1.0
  Sn  Sn357  1  0.83333333  0.19347550  0.10522795  1.0
  Sn  Sn358  1  0.83333333  0.52680883  0.10522795  1.0
  Sn  Sn359  1  0.83333333  0.86014217  0.10522795  1.0
  Sn  Sn360  1  0.16666667  0.00653450  0.04419515  1.0
  Sn  Sn361  1  0.16666667  0.33986783  0.04419515  1.0
  Sn  Sn362  1  0.16666667  0.67320117  0.04419515  1.0
  Sn  Sn363  1  0.50000000  0.00653450  0.04419515  1.0
  Sn  Sn364  1  0.50000000  0.33986783  0.04419515  1.0
  Sn  Sn365  1  0.50000000  0.67320117  0.04419515  1.0
  Sn  Sn366  1  0.83333333  0.00653450  0.04419515  1.0
  Sn  Sn367  1  0.83333333  0.33986783  0.04419515  1.0
  Sn  Sn368  1  0.83333333  0.67320117  0.04419515  1.0
  Sn  Sn369  1  0.16666667  0.17320117  0.14419515  1.0
  Sn  Sn370  1  0.16666667  0.50653450  0.14419515  1.0
  Sn  Sn371  1  0.16666667  0.83986783  0.14419515  1.0
  Sn  Sn372  1  0.50000000  0.17320117  0.14419515  1.0
  Sn  Sn373  1  0.50000000  0.50653450  0.14419515  1.0
  Sn  Sn374  1  0.50000000  0.83986783  0.14419515  1.0
  Sn  Sn375  1  0.83333333  0.17320117  0.14419515  1.0
  Sn  Sn376  1  0.83333333  0.50653450  0.14419515  1.0
  Sn  Sn377  1  0.83333333  0.83986783  0.14419515  1.0
  Sn  Sn378  1  0.00000000  0.06828383  0.07477575  1.0
  Sn  Sn379  1  0.00000000  0.40161717  0.07477575  1.0
  Sn  Sn380  1  0.00000000  0.73495050  0.07477575  1.0
  Sn  Sn381  1  0.33333333  0.06828383  0.07477575  1.0
  Sn  Sn382  1  0.33333333  0.40161717  0.07477575  1.0
  Sn  Sn383  1  0.33333333  0.73495050  0.07477575  1.0
  Sn  Sn384  1  0.66666667  0.06828383  0.07477575  1.0
  Sn  Sn385  1  0.66666667  0.40161717  0.07477575  1.0
  Sn  Sn386  1  0.66666667  0.73495050  0.07477575  1.0
  Sn  Sn387  1  0.00000000  0.23495050  0.17477575  1.0
  Sn  Sn388  1  0.00000000  0.56828383  0.17477575  1.0
  Sn  Sn389  1  0.00000000  0.90161717  0.17477575  1.0
  Sn  Sn390  1  0.33333333  0.23495050  0.17477575  1.0
  Sn  Sn391  1  0.33333333  0.56828383  0.17477575  1.0
  Sn  Sn392  1  0.33333333  0.90161717  0.17477575  1.0
  Sn  Sn393  1  0.66666667  0.23495050  0.17477575  1.0
  Sn  Sn394  1  0.66666667  0.56828383  0.17477575  1.0
  Sn  Sn395  1  0.66666667  0.90161717  0.17477575  1.0
  Sn  Sn396  1  0.00000000  0.11833333  0.07090085  1.0
  Sn  Sn397  1  0.00000000  0.45166667  0.07090085  1.0
  Sn  Sn398  1  0.00000000  0.78500000  0.07090085  1.0
  Sn  Sn399  1  0.33333333  0.11833333  0.07090085  1.0
  Sn  Sn400  1  0.33333333  0.45166667  0.07090085  1.0
  Sn  Sn401  1  0.33333333  0.78500000  0.07090085  1.0
  Sn  Sn402  1  0.66666667  0.11833333  0.07090085  1.0
  Sn  Sn403  1  0.66666667  0.45166667  0.07090085  1.0
  Sn  Sn404  1  0.66666667  0.78500000  0.07090085  1.0
  Sn  Sn405  1  0.00000000  0.28500000  0.17090085  1.0
  Sn  Sn406  1  0.00000000  0.61833333  0.17090085  1.0
  Sn  Sn407  1  0.00000000  0.95166667  0.17090085  1.0
  Sn  Sn408  1  0.33333333  0.28500000  0.17090085  1.0
  Sn  Sn409  1  0.33333333  0.61833333  0.17090085  1.0
  Sn  Sn410  1  0.33333333  0.95166667  0.17090085  1.0
  Sn  Sn411  1  0.66666667  0.28500000  0.17090085  1.0
  Sn  Sn412  1  0.66666667  0.61833333  0.17090085  1.0
  Sn  Sn413  1  0.66666667  0.95166667  0.17090085  1.0
  Sn  Sn414  1  0.00000000  0.13166667  0.17890085  1.0
  Sn  Sn415  1  0.00000000  0.46500000  0.17890085  1.0
  Sn  Sn416  1  0.00000000  0.79833333  0.17890085  1.0
  Sn  Sn417  1  0.33333333  0.13166667  0.17890085  1.0
  Sn  Sn418  1  0.33333333  0.46500000  0.17890085  1.0
  Sn  Sn419  1  0.33333333  0.79833333  0.17890085  1.0
  Sn  Sn420  1  0.66666667  0.13166667  0.17890085  1.0
  Sn  Sn421  1  0.66666667  0.46500000  0.17890085  1.0
  Sn  Sn422  1  0.66666667  0.79833333  0.17890085  1.0
  Sn  Sn423  1  0.00000000  0.29833333  0.07890085  1.0
  Sn  Sn424  1  0.00000000  0.63166667  0.07890085  1.0
  Sn  Sn425  1  0.00000000  0.96500000  0.07890085  1.0
  Sn  Sn426  1  0.33333333  0.29833333  0.07890085  1.0
  Sn  Sn427  1  0.33333333  0.63166667  0.07890085  1.0
  Sn  Sn428  1  0.33333333  0.96500000  0.07890085  1.0
  Sn  Sn429  1  0.66666667  0.29833333  0.07890085  1.0
  Sn  Sn430  1  0.66666667  0.63166667  0.07890085  1.0
  Sn  Sn431  1  0.66666667  0.96500000  0.07890085  1.0
  Sn  Sn432  1  0.00000000  0.03500000  0.09972645  1.0
  Sn  Sn433  1  0.00000000  0.36833333  0.09972645  1.0
  Sn  Sn434  1  0.00000000  0.70166667  0.09972645  1.0
  Sn  Sn435  1  0.33333333  0.03500000  0.09972645  1.0
  Sn  Sn436  1  0.33333333  0.36833333  0.09972645  1.0
  Sn  Sn437  1  0.33333333  0.70166667  0.09972645  1.0
  Sn  Sn438  1  0.66666667  0.03500000  0.09972645  1.0
  Sn  Sn439  1  0.66666667  0.36833333  0.09972645  1.0
  Sn  Sn440  1  0.66666667  0.70166667  0.09972645  1.0
  Sn  Sn441  1  0.00000000  0.20166667  0.19972645  1.0
  Sn  Sn442  1  0.00000000  0.53500000  0.19972645  1.0
  Sn  Sn443  1  0.00000000  0.86833333  0.19972645  1.0
  Sn  Sn444  1  0.33333333  0.20166667  0.19972645  1.0
  Sn  Sn445  1  0.33333333  0.53500000  0.19972645  1.0
  Sn  Sn446  1  0.33333333  0.86833333  0.19972645  1.0
  Sn  Sn447  1  0.66666667  0.20166667  0.19972645  1.0
  Sn  Sn448  1  0.66666667  0.53500000  0.19972645  1.0
  Sn  Sn449  1  0.66666667  0.86833333  0.19972645  1.0
  Sn  Sn450  1  0.16666667  0.07679883  0.18635375  1.0
  Sn  Sn451  1  0.16666667  0.41013217  0.18635375  1.0
  Sn  Sn452  1  0.16666667  0.74346550  0.18635375  1.0
  Sn  Sn453  1  0.50000000  0.07679883  0.18635375  1.0
  Sn  Sn454  1  0.50000000  0.41013217  0.18635375  1.0
  Sn  Sn455  1  0.50000000  0.74346550  0.18635375  1.0
  Sn  Sn456  1  0.83333333  0.07679883  0.18635375  1.0
  Sn  Sn457  1  0.83333333  0.41013217  0.18635375  1.0
  Sn  Sn458  1  0.83333333  0.74346550  0.18635375  1.0
  Sn  Sn459  1  0.16666667  0.24346550  0.08635375  1.0
  Sn  Sn460  1  0.16666667  0.57679883  0.08635375  1.0
  Sn  Sn461  1  0.16666667  0.91013217  0.08635375  1.0
  Sn  Sn462  1  0.50000000  0.24346550  0.08635375  1.0
  Sn  Sn463  1  0.50000000  0.57679883  0.08635375  1.0
  Sn  Sn464  1  0.50000000  0.91013217  0.08635375  1.0
  Sn  Sn465  1  0.83333333  0.24346550  0.08635375  1.0
  Sn  Sn466  1  0.83333333  0.57679883  0.08635375  1.0
  Sn  Sn467  1  0.83333333  0.91013217  0.08635375  1.0
  Sn  Sn468  1  0.00000000  0.09838283  0.00385155  1.0
  Sn  Sn469  1  0.00000000  0.43171617  0.00385155  1.0
  Sn  Sn470  1  0.00000000  0.76504950  0.00385155  1.0
  Sn  Sn471  1  0.33333333  0.09838283  0.00385155  1.0
  Sn  Sn472  1  0.33333333  0.43171617  0.00385155  1.0
  Sn  Sn473  1  0.33333333  0.76504950  0.00385155  1.0
  Sn  Sn474  1  0.66666667  0.09838283  0.00385155  1.0
  Sn  Sn475  1  0.66666667  0.43171617  0.00385155  1.0
  Sn  Sn476  1  0.66666667  0.76504950  0.00385155  1.0
  Sn  Sn477  1  0.00000000  0.26504950  0.10385155  1.0
  Sn  Sn478  1  0.00000000  0.59838283  0.10385155  1.0
  Sn  Sn479  1  0.00000000  0.93171617  0.10385155  1.0
  Sn  Sn480  1  0.33333333  0.26504950  0.10385155  1.0
  Sn  Sn481  1  0.33333333  0.59838283  0.10385155  1.0
  Sn  Sn482  1  0.33333333  0.93171617  0.10385155  1.0
  Sn  Sn483  1  0.66666667  0.26504950  0.10385155  1.0
  Sn  Sn484  1  0.66666667  0.59838283  0.10385155  1.0
  Sn  Sn485  1  0.66666667  0.93171617  0.10385155  1.0
  Sn  Sn486  1  0.16666667  0.08986783  0.09227355  1.0
  Sn  Sn487  1  0.16666667  0.42320117  0.09227355  1.0
  Sn  Sn488  1  0.16666667  0.75653450  0.09227355  1.0
  Sn  Sn489  1  0.50000000  0.08986783  0.09227355  1.0
  Sn  Sn490  1  0.50000000  0.42320117  0.09227355  1.0
  Sn  Sn491  1  0.50000000  0.75653450  0.09227355  1.0
  Sn  Sn492  1  0.83333333  0.08986783  0.09227355  1.0
  Sn  Sn493  1  0.83333333  0.42320117  0.09227355  1.0
  Sn  Sn494  1  0.83333333  0.75653450  0.09227355  1.0
  Sn  Sn495  1  0.16666667  0.25653450  0.19227355  1.0
  Sn  Sn496  1  0.16666667  0.58986783  0.19227355  1.0
  Sn  Sn497  1  0.16666667  0.92320117  0.19227355  1.0
  Sn  Sn498  1  0.50000000  0.25653450  0.19227355  1.0
  Sn  Sn499  1  0.50000000  0.58986783  0.19227355  1.0
  Sn  Sn500  1  0.50000000  0.92320117  0.19227355  1.0
  Sn  Sn501  1  0.83333333  0.25653450  0.19227355  1.0
  Sn  Sn502  1  0.83333333  0.58986783  0.19227355  1.0
  Sn  Sn503  1  0.83333333  0.92320117  0.19227355  1.0
  Sn  Sn504  1  0.00000000  0.04833333  0.00772645  1.0
  Sn  Sn505  1  0.00000000  0.38166667  0.00772645  1.0
  Sn  Sn506  1  0.00000000  0.71500000  0.00772645  1.0
  Sn  Sn507  1  0.33333333  0.04833333  0.00772645  1.0
  Sn  Sn508  1  0.33333333  0.38166667  0.00772645  1.0
  Sn  Sn509  1  0.33333333  0.71500000  0.00772645  1.0
  Sn  Sn510  1  0.66666667  0.04833333  0.00772645  1.0
  Sn  Sn511  1  0.66666667  0.38166667  0.00772645  1.0
  Sn  Sn512  1  0.66666667  0.71500000  0.00772645  1.0
  Sn  Sn513  1  0.00000000  0.21500000  0.10772645  1.0
  Sn  Sn514  1  0.00000000  0.54833333  0.10772645  1.0
  Sn  Sn515  1  0.00000000  0.88166667  0.10772645  1.0
  Sn  Sn516  1  0.33333333  0.21500000  0.10772645  1.0
  Sn  Sn517  1  0.33333333  0.54833333  0.10772645  1.0
  Sn  Sn518  1  0.33333333  0.88166667  0.10772645  1.0
  Sn  Sn519  1  0.66666667  0.21500000  0.10772645  1.0
  Sn  Sn520  1  0.66666667  0.54833333  0.10772645  1.0
  Sn  Sn521  1  0.66666667  0.88166667  0.10772645  1.0
  Sn  Sn522  1  0.16666667  0.05652450  0.12305735  1.0
  Sn  Sn523  1  0.16666667  0.38985783  0.12305735  1.0
  Sn  Sn524  1  0.16666667  0.72319117  0.12305735  1.0
  Sn  Sn525  1  0.50000000  0.05652450  0.12305735  1.0
  Sn  Sn526  1  0.50000000  0.38985783  0.12305735  1.0
  Sn  Sn527  1  0.50000000  0.72319117  0.12305735  1.0
  Sn  Sn528  1  0.83333333  0.05652450  0.12305735  1.0
  Sn  Sn529  1  0.83333333  0.38985783  0.12305735  1.0
  Sn  Sn530  1  0.83333333  0.72319117  0.12305735  1.0
  Sn  Sn531  1  0.16666667  0.22319117  0.02305735  1.0
  Sn  Sn532  1  0.16666667  0.55652450  0.02305735  1.0
  Sn  Sn533  1  0.16666667  0.88985783  0.02305735  1.0
  Sn  Sn534  1  0.50000000  0.22319117  0.02305735  1.0
  Sn  Sn535  1  0.50000000  0.55652450  0.02305735  1.0
  Sn  Sn536  1  0.50000000  0.88985783  0.02305735  1.0
  Sn  Sn537  1  0.83333333  0.22319117  0.02305735  1.0
  Sn  Sn538  1  0.83333333  0.55652450  0.02305735  1.0
  Sn  Sn539  1  0.83333333  0.88985783  0.02305735  1.0
  Sn  Sn540  1  0.16666667  0.13985783  0.07339935  1.0
  Sn  Sn541  1  0.16666667  0.47319117  0.07339935  1.0
  Sn  Sn542  1  0.16666667  0.80652450  0.07339935  1.0
  Sn  Sn543  1  0.50000000  0.13985783  0.07339935  1.0
  Sn  Sn544  1  0.50000000  0.47319117  0.07339935  1.0
  Sn  Sn545  1  0.50000000  0.80652450  0.07339935  1.0
  Sn  Sn546  1  0.83333333  0.13985783  0.07339935  1.0
  Sn  Sn547  1  0.83333333  0.47319117  0.07339935  1.0
  Sn  Sn548  1  0.83333333  0.80652450  0.07339935  1.0
  Sn  Sn549  1  0.16666667  0.30652450  0.17339935  1.0
  Sn  Sn550  1  0.16666667  0.63985783  0.17339935  1.0
  Sn  Sn551  1  0.16666667  0.97319117  0.17339935  1.0
  Sn  Sn552  1  0.50000000  0.30652450  0.17339935  1.0
  Sn  Sn553  1  0.50000000  0.63985783  0.17339935  1.0
  Sn  Sn554  1  0.50000000  0.97319117  0.17339935  1.0
  Sn  Sn555  1  0.83333333  0.30652450  0.17339935  1.0
  Sn  Sn556  1  0.83333333  0.63985783  0.17339935  1.0
  Sn  Sn557  1  0.83333333  0.97319117  0.17339935  1.0
  Sn  Sn558  1  0.16666667  0.11014217  0.15556995  1.0
  Sn  Sn559  1  0.16666667  0.44347550  0.15556995  1.0
  Sn  Sn560  1  0.16666667  0.77680883  0.15556995  1.0
  Sn  Sn561  1  0.50000000  0.11014217  0.15556995  1.0
  Sn  Sn562  1  0.50000000  0.44347550  0.15556995  1.0
  Sn  Sn563  1  0.50000000  0.77680883  0.15556995  1.0
  Sn  Sn564  1  0.83333333  0.11014217  0.15556995  1.0
  Sn  Sn565  1  0.83333333  0.44347550  0.15556995  1.0
  Sn  Sn566  1  0.83333333  0.77680883  0.15556995  1.0
  Sn  Sn567  1  0.16666667  0.27680883  0.05556995  1.0
  Sn  Sn568  1  0.16666667  0.61014217  0.05556995  1.0
  Sn  Sn569  1  0.16666667  0.94347550  0.05556995  1.0
  Sn  Sn570  1  0.50000000  0.27680883  0.05556995  1.0
  Sn  Sn571  1  0.50000000  0.61014217  0.05556995  1.0
  Sn  Sn572  1  0.50000000  0.94347550  0.05556995  1.0
  Sn  Sn573  1  0.83333333  0.27680883  0.05556995  1.0
  Sn  Sn574  1  0.83333333  0.61014217  0.05556995  1.0
  Sn  Sn575  1  0.83333333  0.94347550  0.05556995  1.0
  Ni  Ni576  1  0.00000000  0.10100583  0.30653735  1.0
  Ni  Ni577  1  0.00000000  0.43433917  0.30653735  1.0
  Ni  Ni578  1  0.00000000  0.76767250  0.30653735  1.0
  Ni  Ni579  1  0.33333333  0.10100583  0.30653735  1.0
  Ni  Ni580  1  0.33333333  0.43433917  0.30653735  1.0
  Ni  Ni581  1  0.33333333  0.76767250  0.30653735  1.0
  Ni  Ni582  1  0.66666667  0.10100583  0.30653735  1.0
  Ni  Ni583  1  0.66666667  0.43433917  0.30653735  1.0
  Ni  Ni584  1  0.66666667  0.76767250  0.30653735  1.0
  Ni  Ni585  1  0.00000000  0.26767250  0.20653735  1.0
  Ni  Ni586  1  0.00000000  0.60100583  0.20653735  1.0
  Ni  Ni587  1  0.00000000  0.93433917  0.20653735  1.0
  Ni  Ni588  1  0.33333333  0.26767250  0.20653735  1.0
  Ni  Ni589  1  0.33333333  0.60100583  0.20653735  1.0
  Ni  Ni590  1  0.33333333  0.93433917  0.20653735  1.0
  Ni  Ni591  1  0.66666667  0.26767250  0.20653735  1.0
  Ni  Ni592  1  0.66666667  0.60100583  0.20653735  1.0
  Ni  Ni593  1  0.66666667  0.93433917  0.20653735  1.0
  Ni  Ni594  1  0.00000000  0.14899417  0.23533035  1.0
  Ni  Ni595  1  0.00000000  0.48232750  0.23533035  1.0
  Ni  Ni596  1  0.00000000  0.81566083  0.23533035  1.0
  Ni  Ni597  1  0.33333333  0.14899417  0.23533035  1.0
  Ni  Ni598  1  0.33333333  0.48232750  0.23533035  1.0
  Ni  Ni599  1  0.33333333  0.81566083  0.23533035  1.0
  Ni  Ni600  1  0.66666667  0.14899417  0.23533035  1.0
  Ni  Ni601  1  0.66666667  0.48232750  0.23533035  1.0
  Ni  Ni602  1  0.66666667  0.81566083  0.23533035  1.0
  Ni  Ni603  1  0.00000000  0.31566083  0.33533035  1.0
  Ni  Ni604  1  0.00000000  0.64899417  0.33533035  1.0
  Ni  Ni605  1  0.00000000  0.98232750  0.33533035  1.0
  Ni  Ni606  1  0.33333333  0.31566083  0.33533035  1.0
  Ni  Ni607  1  0.33333333  0.64899417  0.33533035  1.0
  Ni  Ni608  1  0.33333333  0.98232750  0.33533035  1.0
  Ni  Ni609  1  0.66666667  0.31566083  0.33533035  1.0
  Ni  Ni610  1  0.66666667  0.64899417  0.33533035  1.0
  Ni  Ni611  1  0.66666667  0.98232750  0.33533035  1.0
  Ni  Ni612  1  0.16666667  0.12408983  0.22116015  1.0
  Ni  Ni613  1  0.16666667  0.45742317  0.22116015  1.0
  Ni  Ni614  1  0.16666667  0.79075650  0.22116015  1.0
  Ni  Ni615  1  0.50000000  0.12408983  0.22116015  1.0
  Ni  Ni616  1  0.50000000  0.45742317  0.22116015  1.0
  Ni  Ni617  1  0.50000000  0.79075650  0.22116015  1.0
  Ni  Ni618  1  0.83333333  0.12408983  0.22116015  1.0
  Ni  Ni619  1  0.83333333  0.45742317  0.22116015  1.0
  Ni  Ni620  1  0.83333333  0.79075650  0.22116015  1.0
  Ni  Ni621  1  0.16666667  0.29075650  0.32116015  1.0
  Ni  Ni622  1  0.16666667  0.62408983  0.32116015  1.0
  Ni  Ni623  1  0.16666667  0.95742317  0.32116015  1.0
  Ni  Ni624  1  0.50000000  0.29075650  0.32116015  1.0
  Ni  Ni625  1  0.50000000  0.62408983  0.32116015  1.0
  Ni  Ni626  1  0.50000000  0.95742317  0.32116015  1.0
  Ni  Ni627  1  0.83333333  0.29075650  0.32116015  1.0
  Ni  Ni628  1  0.83333333  0.62408983  0.32116015  1.0
  Ni  Ni629  1  0.83333333  0.95742317  0.32116015  1.0
  Ni  Ni630  1  0.16666667  0.05986750  0.22468775  1.0
  Ni  Ni631  1  0.16666667  0.39320083  0.22468775  1.0
  Ni  Ni632  1  0.16666667  0.72653417  0.22468775  1.0
  Ni  Ni633  1  0.50000000  0.05986750  0.22468775  1.0
  Ni  Ni634  1  0.50000000  0.39320083  0.22468775  1.0
  Ni  Ni635  1  0.50000000  0.72653417  0.22468775  1.0
  Ni  Ni636  1  0.83333333  0.05986750  0.22468775  1.0
  Ni  Ni637  1  0.83333333  0.39320083  0.22468775  1.0
  Ni  Ni638  1  0.83333333  0.72653417  0.22468775  1.0
  Ni  Ni639  1  0.16666667  0.22653417  0.32468775  1.0
  Ni  Ni640  1  0.16666667  0.55986750  0.32468775  1.0
  Ni  Ni641  1  0.16666667  0.89320083  0.32468775  1.0
  Ni  Ni642  1  0.50000000  0.22653417  0.32468775  1.0
  Ni  Ni643  1  0.50000000  0.55986750  0.32468775  1.0
  Ni  Ni644  1  0.50000000  0.89320083  0.32468775  1.0
  Ni  Ni645  1  0.83333333  0.22653417  0.32468775  1.0
  Ni  Ni646  1  0.83333333  0.55986750  0.32468775  1.0
  Ni  Ni647  1  0.83333333  0.89320083  0.32468775  1.0
  Ni  Ni648  1  0.16666667  0.02346583  0.30284675  1.0
  Ni  Ni649  1  0.16666667  0.35679917  0.30284675  1.0
  Ni  Ni650  1  0.16666667  0.69013250  0.30284675  1.0
  Ni  Ni651  1  0.50000000  0.02346583  0.30284675  1.0
  Ni  Ni652  1  0.50000000  0.35679917  0.30284675  1.0
  Ni  Ni653  1  0.50000000  0.69013250  0.30284675  1.0
  Ni  Ni654  1  0.83333333  0.02346583  0.30284675  1.0
  Ni  Ni655  1  0.83333333  0.35679917  0.30284675  1.0
  Ni  Ni656  1  0.83333333  0.69013250  0.30284675  1.0
  Ni  Ni657  1  0.16666667  0.19013250  0.20284675  1.0
  Ni  Ni658  1  0.16666667  0.52346583  0.20284675  1.0
  Ni  Ni659  1  0.16666667  0.85679917  0.20284675  1.0
  Ni  Ni660  1  0.50000000  0.19013250  0.20284675  1.0
  Ni  Ni661  1  0.50000000  0.52346583  0.20284675  1.0
  Ni  Ni662  1  0.50000000  0.85679917  0.20284675  1.0
  Ni  Ni663  1  0.83333333  0.19013250  0.20284675  1.0
  Ni  Ni664  1  0.83333333  0.52346583  0.20284675  1.0
  Ni  Ni665  1  0.83333333  0.85679917  0.20284675  1.0
  Ni  Ni666  1  0.16666667  0.04075650  0.35637495  1.0
  Ni  Ni667  1  0.16666667  0.37408983  0.35637495  1.0
  Ni  Ni668  1  0.16666667  0.70742317  0.35637495  1.0
  Ni  Ni669  1  0.50000000  0.04075650  0.35637495  1.0
  Ni  Ni670  1  0.50000000  0.37408983  0.35637495  1.0
  Ni  Ni671  1  0.50000000  0.70742317  0.35637495  1.0
  Ni  Ni672  1  0.83333333  0.04075650  0.35637495  1.0
  Ni  Ni673  1  0.83333333  0.37408983  0.35637495  1.0
  Ni  Ni674  1  0.83333333  0.70742317  0.35637495  1.0
  Ni  Ni675  1  0.16666667  0.20742317  0.25637495  1.0
  Ni  Ni676  1  0.16666667  0.54075650  0.25637495  1.0
  Ni  Ni677  1  0.16666667  0.87408983  0.25637495  1.0
  Ni  Ni678  1  0.50000000  0.20742317  0.25637495  1.0
  Ni  Ni679  1  0.50000000  0.54075650  0.25637495  1.0
  Ni  Ni680  1  0.50000000  0.87408983  0.25637495  1.0
  Ni  Ni681  1  0.83333333  0.20742317  0.25637495  1.0
  Ni  Ni682  1  0.83333333  0.54075650  0.25637495  1.0
  Ni  Ni683  1  0.83333333  0.87408983  0.25637495  1.0
  Ni  Ni684  1  0.00000000  0.08333333  0.23931365  1.0
  Ni  Ni685  1  0.00000000  0.41666667  0.23931365  1.0
  Ni  Ni686  1  0.00000000  0.75000000  0.23931365  1.0
  Ni  Ni687  1  0.33333333  0.08333333  0.23931365  1.0
  Ni  Ni688  1  0.33333333  0.41666667  0.23931365  1.0
  Ni  Ni689  1  0.33333333  0.75000000  0.23931365  1.0
  Ni  Ni690  1  0.66666667  0.08333333  0.23931365  1.0
  Ni  Ni691  1  0.66666667  0.41666667  0.23931365  1.0
  Ni  Ni692  1  0.66666667  0.75000000  0.23931365  1.0
  Ni  Ni693  1  0.00000000  0.25000000  0.33931365  1.0
  Ni  Ni694  1  0.00000000  0.58333333  0.33931365  1.0
  Ni  Ni695  1  0.00000000  0.91666667  0.33931365  1.0
  Ni  Ni696  1  0.33333333  0.25000000  0.33931365  1.0
  Ni  Ni697  1  0.33333333  0.58333333  0.33931365  1.0
  Ni  Ni698  1  0.33333333  0.91666667  0.33931365  1.0
  Ni  Ni699  1  0.66666667  0.25000000  0.33931365  1.0
  Ni  Ni700  1  0.66666667  0.58333333  0.33931365  1.0
  Ni  Ni701  1  0.66666667  0.91666667  0.33931365  1.0
  Ni  Ni702  1  0.16666667  0.10679917  0.25393955  1.0
  Ni  Ni703  1  0.16666667  0.44013250  0.25393955  1.0
  Ni  Ni704  1  0.16666667  0.77346583  0.25393955  1.0
  Ni  Ni705  1  0.50000000  0.10679917  0.25393955  1.0
  Ni  Ni706  1  0.50000000  0.44013250  0.25393955  1.0
  Ni  Ni707  1  0.50000000  0.77346583  0.25393955  1.0
  Ni  Ni708  1  0.83333333  0.10679917  0.25393955  1.0
  Ni  Ni709  1  0.83333333  0.44013250  0.25393955  1.0
  Ni  Ni710  1  0.83333333  0.77346583  0.25393955  1.0
  Ni  Ni711  1  0.16666667  0.27346583  0.35393955  1.0
  Ni  Ni712  1  0.16666667  0.60679917  0.35393955  1.0
  Ni  Ni713  1  0.16666667  0.94013250  0.35393955  1.0
  Ni  Ni714  1  0.50000000  0.27346583  0.35393955  1.0
  Ni  Ni715  1  0.50000000  0.60679917  0.35393955  1.0
  Ni  Ni716  1  0.50000000  0.94013250  0.35393955  1.0
  Ni  Ni717  1  0.83333333  0.27346583  0.35393955  1.0
  Ni  Ni718  1  0.83333333  0.60679917  0.35393955  1.0
  Ni  Ni719  1  0.83333333  0.94013250  0.35393955  1.0
  Ni  Ni720  1  0.16666667  0.04257683  0.25746715  1.0
  Ni  Ni721  1  0.16666667  0.37591017  0.25746715  1.0
  Ni  Ni722  1  0.16666667  0.70924350  0.25746715  1.0
  Ni  Ni723  1  0.50000000  0.04257683  0.25746715  1.0
  Ni  Ni724  1  0.50000000  0.37591017  0.25746715  1.0
  Ni  Ni725  1  0.50000000  0.70924350  0.25746715  1.0
  Ni  Ni726  1  0.83333333  0.04257683  0.25746715  1.0
  Ni  Ni727  1  0.83333333  0.37591017  0.25746715  1.0
  Ni  Ni728  1  0.83333333  0.70924350  0.25746715  1.0
  Ni  Ni729  1  0.16666667  0.20924350  0.35746715  1.0
  Ni  Ni730  1  0.16666667  0.54257683  0.35746715  1.0
  Ni  Ni731  1  0.16666667  0.87591017  0.35746715  1.0
  Ni  Ni732  1  0.50000000  0.20924350  0.35746715  1.0
  Ni  Ni733  1  0.50000000  0.54257683  0.35746715  1.0
  Ni  Ni734  1  0.50000000  0.87591017  0.35746715  1.0
  Ni  Ni735  1  0.83333333  0.20924350  0.35746715  1.0
  Ni  Ni736  1  0.83333333  0.54257683  0.35746715  1.0
  Ni  Ni737  1  0.83333333  0.87591017  0.35746715  1.0
  Ni  Ni738  1  0.00000000  0.01767250  0.24329695  1.0
  Ni  Ni739  1  0.00000000  0.35100583  0.24329695  1.0
  Ni  Ni740  1  0.00000000  0.68433917  0.24329695  1.0
  Ni  Ni741  1  0.33333333  0.01767250  0.24329695  1.0
  Ni  Ni742  1  0.33333333  0.35100583  0.24329695  1.0
  Ni  Ni743  1  0.33333333  0.68433917  0.24329695  1.0
  Ni  Ni744  1  0.66666667  0.01767250  0.24329695  1.0
  Ni  Ni745  1  0.66666667  0.35100583  0.24329695  1.0
  Ni  Ni746  1  0.66666667  0.68433917  0.24329695  1.0
  Ni  Ni747  1  0.00000000  0.18433917  0.34329695  1.0
  Ni  Ni748  1  0.00000000  0.51767250  0.34329695  1.0
  Ni  Ni749  1  0.00000000  0.85100583  0.34329695  1.0
  Ni  Ni750  1  0.33333333  0.18433917  0.34329695  1.0
  Ni  Ni751  1  0.33333333  0.51767250  0.34329695  1.0
  Ni  Ni752  1  0.33333333  0.85100583  0.34329695  1.0
  Ni  Ni753  1  0.66666667  0.18433917  0.34329695  1.0
  Ni  Ni754  1  0.66666667  0.51767250  0.34329695  1.0
  Ni  Ni755  1  0.66666667  0.85100583  0.34329695  1.0
  Ni  Ni756  1  0.16666667  0.12591017  0.32225235  1.0
  Ni  Ni757  1  0.16666667  0.45924350  0.32225235  1.0
  Ni  Ni758  1  0.16666667  0.79257683  0.32225235  1.0
  Ni  Ni759  1  0.50000000  0.12591017  0.32225235  1.0
  Ni  Ni760  1  0.50000000  0.45924350  0.32225235  1.0
  Ni  Ni761  1  0.50000000  0.79257683  0.32225235  1.0
  Ni  Ni762  1  0.83333333  0.12591017  0.32225235  1.0
  Ni  Ni763  1  0.83333333  0.45924350  0.32225235  1.0
  Ni  Ni764  1  0.83333333  0.79257683  0.32225235  1.0
  Ni  Ni765  1  0.16666667  0.29257683  0.22225235  1.0
  Ni  Ni766  1  0.16666667  0.62591017  0.22225235  1.0
  Ni  Ni767  1  0.16666667  0.95924350  0.22225235  1.0
  Ni  Ni768  1  0.50000000  0.29257683  0.22225235  1.0
  Ni  Ni769  1  0.50000000  0.62591017  0.22225235  1.0
  Ni  Ni770  1  0.50000000  0.95924350  0.22225235  1.0
  Ni  Ni771  1  0.83333333  0.29257683  0.22225235  1.0
  Ni  Ni772  1  0.83333333  0.62591017  0.22225235  1.0
  Ni  Ni773  1  0.83333333  0.95924350  0.22225235  1.0
  Ni  Ni774  1  0.00000000  0.06566083  0.37208995  1.0
  Ni  Ni775  1  0.00000000  0.39899417  0.37208995  1.0
  Ni  Ni776  1  0.00000000  0.73232750  0.37208995  1.0
  Ni  Ni777  1  0.33333333  0.06566083  0.37208995  1.0
  Ni  Ni778  1  0.33333333  0.39899417  0.37208995  1.0
  Ni  Ni779  1  0.33333333  0.73232750  0.37208995  1.0
  Ni  Ni780  1  0.66666667  0.06566083  0.37208995  1.0
  Ni  Ni781  1  0.66666667  0.39899417  0.37208995  1.0
  Ni  Ni782  1  0.66666667  0.73232750  0.37208995  1.0
  Ni  Ni783  1  0.00000000  0.23232750  0.27208995  1.0
  Ni  Ni784  1  0.00000000  0.56566083  0.27208995  1.0
  Ni  Ni785  1  0.00000000  0.89899417  0.27208995  1.0
  Ni  Ni786  1  0.33333333  0.23232750  0.27208995  1.0
  Ni  Ni787  1  0.33333333  0.56566083  0.27208995  1.0
  Ni  Ni788  1  0.33333333  0.89899417  0.27208995  1.0
  Ni  Ni789  1  0.66666667  0.23232750  0.27208995  1.0
  Ni  Ni790  1  0.66666667  0.56566083  0.27208995  1.0
  Ni  Ni791  1  0.66666667  0.89899417  0.27208995  1.0
  Ni  Ni792  1  0.16666667  0.14320083  0.37578055  1.0
  Ni  Ni793  1  0.16666667  0.47653417  0.37578055  1.0
  Ni  Ni794  1  0.16666667  0.80986750  0.37578055  1.0
  Ni  Ni795  1  0.50000000  0.14320083  0.37578055  1.0
  Ni  Ni796  1  0.50000000  0.47653417  0.37578055  1.0
  Ni  Ni797  1  0.50000000  0.80986750  0.37578055  1.0
  Ni  Ni798  1  0.83333333  0.14320083  0.37578055  1.0
  Ni  Ni799  1  0.83333333  0.47653417  0.37578055  1.0
  Ni  Ni800  1  0.83333333  0.80986750  0.37578055  1.0
  Ni  Ni801  1  0.16666667  0.30986750  0.27578055  1.0
  Ni  Ni802  1  0.16666667  0.64320083  0.27578055  1.0
  Ni  Ni803  1  0.16666667  0.97653417  0.27578055  1.0
  Ni  Ni804  1  0.50000000  0.30986750  0.27578055  1.0
  Ni  Ni805  1  0.50000000  0.64320083  0.27578055  1.0
  Ni  Ni806  1  0.50000000  0.97653417  0.27578055  1.0
  Ni  Ni807  1  0.83333333  0.30986750  0.27578055  1.0
  Ni  Ni808  1  0.83333333  0.64320083  0.27578055  1.0
  Ni  Ni809  1  0.83333333  0.97653417  0.27578055  1.0
  Ni  Ni810  1  0.00000000  0.16666667  0.28931365  1.0
  Ni  Ni811  1  0.00000000  0.50000000  0.28931365  1.0
  Ni  Ni812  1  0.00000000  0.83333333  0.28931365  1.0
  Ni  Ni813  1  0.33333333  0.16666667  0.28931365  1.0
  Ni  Ni814  1  0.33333333  0.50000000  0.28931365  1.0
  Ni  Ni815  1  0.33333333  0.83333333  0.28931365  1.0
  Ni  Ni816  1  0.66666667  0.16666667  0.28931365  1.0
  Ni  Ni817  1  0.66666667  0.50000000  0.28931365  1.0
  Ni  Ni818  1  0.66666667  0.83333333  0.28931365  1.0
  Ni  Ni819  1  0.00000000  0.00000000  0.38931365  1.0
  Ni  Ni820  1  0.00000000  0.33333333  0.38931365  1.0
  Ni  Ni821  1  0.00000000  0.66666667  0.38931365  1.0
  Ni  Ni822  1  0.33333333  0.00000000  0.38931365  1.0
  Ni  Ni823  1  0.33333333  0.33333333  0.38931365  1.0
  Ni  Ni824  1  0.33333333  0.66666667  0.38931365  1.0
  Ni  Ni825  1  0.66666667  0.00000000  0.38931365  1.0
  Ni  Ni826  1  0.66666667  0.33333333  0.38931365  1.0
  Ni  Ni827  1  0.66666667  0.66666667  0.38931365  1.0
  Ni  Ni828  1  0.00000000  0.08333333  0.33931365  1.0
  Ni  Ni829  1  0.00000000  0.41666667  0.33931365  1.0
  Ni  Ni830  1  0.00000000  0.75000000  0.33931365  1.0
  Ni  Ni831  1  0.33333333  0.08333333  0.33931365  1.0
  Ni  Ni832  1  0.33333333  0.41666667  0.33931365  1.0
  Ni  Ni833  1  0.33333333  0.75000000  0.33931365  1.0
  Ni  Ni834  1  0.66666667  0.08333333  0.33931365  1.0
  Ni  Ni835  1  0.66666667  0.41666667  0.33931365  1.0
  Ni  Ni836  1  0.66666667  0.75000000  0.33931365  1.0
  Ni  Ni837  1  0.00000000  0.25000000  0.23931365  1.0
  Ni  Ni838  1  0.00000000  0.58333333  0.23931365  1.0
  Ni  Ni839  1  0.00000000  0.91666667  0.23931365  1.0
  Ni  Ni840  1  0.33333333  0.25000000  0.23931365  1.0
  Ni  Ni841  1  0.33333333  0.58333333  0.23931365  1.0
  Ni  Ni842  1  0.33333333  0.91666667  0.23931365  1.0
  Ni  Ni843  1  0.66666667  0.25000000  0.23931365  1.0
  Ni  Ni844  1  0.66666667  0.58333333  0.23931365  1.0
  Ni  Ni845  1  0.66666667  0.91666667  0.23931365  1.0
  Ni  Ni846  1  0.00000000  0.16666667  0.38931365  1.0
  Ni  Ni847  1  0.00000000  0.50000000  0.38931365  1.0
  Ni  Ni848  1  0.00000000  0.83333333  0.38931365  1.0
  Ni  Ni849  1  0.33333333  0.16666667  0.38931365  1.0
  Ni  Ni850  1  0.33333333  0.50000000  0.38931365  1.0
  Ni  Ni851  1  0.33333333  0.83333333  0.38931365  1.0
  Ni  Ni852  1  0.66666667  0.16666667  0.38931365  1.0
  Ni  Ni853  1  0.66666667  0.50000000  0.38931365  1.0
  Ni  Ni854  1  0.66666667  0.83333333  0.38931365  1.0
  Ni  Ni855  1  0.00000000  0.00000000  0.28931365  1.0
  Ni  Ni856  1  0.00000000  0.33333333  0.28931365  1.0
  Ni  Ni857  1  0.00000000  0.66666667  0.28931365  1.0
  Ni  Ni858  1  0.33333333  0.00000000  0.28931365  1.0
  Ni  Ni859  1  0.33333333  0.33333333  0.28931365  1.0
  Ni  Ni860  1  0.33333333  0.66666667  0.28931365  1.0
  Ni  Ni861  1  0.66666667  0.00000000  0.28931365  1.0
  Ni  Ni862  1  0.66666667  0.33333333  0.28931365  1.0
  Ni  Ni863  1  0.66666667  0.66666667  0.28931365  1.0
  Sn  Sn864  1  0.16666667  0.16013217  0.23443215  1.0
  Sn  Sn865  1  0.16666667  0.49346550  0.23443215  1.0
  Sn  Sn866  1  0.16666667  0.82679883  0.23443215  1.0
  Sn  Sn867  1  0.50000000  0.16013217  0.23443215  1.0
  Sn  Sn868  1  0.50000000  0.49346550  0.23443215  1.0
  Sn  Sn869  1  0.50000000  0.82679883  0.23443215  1.0
  Sn  Sn870  1  0.83333333  0.16013217  0.23443215  1.0
  Sn  Sn871  1  0.83333333  0.49346550  0.23443215  1.0
  Sn  Sn872  1  0.83333333  0.82679883  0.23443215  1.0
  Sn  Sn873  1  0.16666667  0.32679883  0.33443215  1.0
  Sn  Sn874  1  0.16666667  0.66013217  0.33443215  1.0
  Sn  Sn875  1  0.16666667  0.99346550  0.33443215  1.0
  Sn  Sn876  1  0.50000000  0.32679883  0.33443215  1.0
  Sn  Sn877  1  0.50000000  0.66013217  0.33443215  1.0
  Sn  Sn878  1  0.50000000  0.99346550  0.33443215  1.0
  Sn  Sn879  1  0.83333333  0.32679883  0.33443215  1.0
  Sn  Sn880  1  0.83333333  0.66013217  0.33443215  1.0
  Sn  Sn881  1  0.83333333  0.99346550  0.33443215  1.0
  Sn  Sn882  1  0.00000000  0.01504950  0.34283515  1.0
  Sn  Sn883  1  0.00000000  0.34838283  0.34283515  1.0
  Sn  Sn884  1  0.00000000  0.68171617  0.34283515  1.0
  Sn  Sn885  1  0.33333333  0.01504950  0.34283515  1.0
  Sn  Sn886  1  0.33333333  0.34838283  0.34283515  1.0
  Sn  Sn887  1  0.33333333  0.68171617  0.34283515  1.0
  Sn  Sn888  1  0.66666667  0.01504950  0.34283515  1.0
  Sn  Sn889  1  0.66666667  0.34838283  0.34283515  1.0
  Sn  Sn890  1  0.66666667  0.68171617  0.34283515  1.0
  Sn  Sn891  1  0.00000000  0.18171617  0.24283515  1.0
  Sn  Sn892  1  0.00000000  0.51504950  0.24283515  1.0
  Sn  Sn893  1  0.00000000  0.84838283  0.24283515  1.0
  Sn  Sn894  1  0.33333333  0.18171617  0.24283515  1.0
  Sn  Sn895  1  0.33333333  0.51504950  0.24283515  1.0
  Sn  Sn896  1  0.33333333  0.84838283  0.24283515  1.0
  Sn  Sn897  1  0.66666667  0.18171617  0.24283515  1.0
  Sn  Sn898  1  0.66666667  0.51504950  0.24283515  1.0
  Sn  Sn899  1  0.66666667  0.84838283  0.24283515  1.0
  Sn  Sn900  1  0.00000000  0.15161717  0.33579215  1.0
  Sn  Sn901  1  0.00000000  0.48495050  0.33579215  1.0
  Sn  Sn902  1  0.00000000  0.81828383  0.33579215  1.0
  Sn  Sn903  1  0.33333333  0.15161717  0.33579215  1.0
  Sn  Sn904  1  0.33333333  0.48495050  0.33579215  1.0
  Sn  Sn905  1  0.33333333  0.81828383  0.33579215  1.0
  Sn  Sn906  1  0.66666667  0.15161717  0.33579215  1.0
  Sn  Sn907  1  0.66666667  0.48495050  0.33579215  1.0
  Sn  Sn908  1  0.66666667  0.81828383  0.33579215  1.0
  Sn  Sn909  1  0.00000000  0.31828383  0.23579215  1.0
  Sn  Sn910  1  0.00000000  0.65161717  0.23579215  1.0
  Sn  Sn911  1  0.00000000  0.98495050  0.23579215  1.0
  Sn  Sn912  1  0.33333333  0.31828383  0.23579215  1.0
  Sn  Sn913  1  0.33333333  0.65161717  0.23579215  1.0
  Sn  Sn914  1  0.33333333  0.98495050  0.23579215  1.0
  Sn  Sn915  1  0.66666667  0.31828383  0.23579215  1.0
  Sn  Sn916  1  0.66666667  0.65161717  0.23579215  1.0
  Sn  Sn917  1  0.66666667  0.98495050  0.23579215  1.0
  Sn  Sn918  1  0.16666667  0.02680883  0.20522795  1.0
  Sn  Sn919  1  0.16666667  0.36014217  0.20522795  1.0
  Sn  Sn920  1  0.16666667  0.69347550  0.20522795  1.0
  Sn  Sn921  1  0.50000000  0.02680883  0.20522795  1.0
  Sn  Sn922  1  0.50000000  0.36014217  0.20522795  1.0
  Sn  Sn923  1  0.50000000  0.69347550  0.20522795  1.0
  Sn  Sn924  1  0.83333333  0.02680883  0.20522795  1.0
  Sn  Sn925  1  0.83333333  0.36014217  0.20522795  1.0
  Sn  Sn926  1  0.83333333  0.69347550  0.20522795  1.0
  Sn  Sn927  1  0.16666667  0.19347550  0.30522795  1.0
  Sn  Sn928  1  0.16666667  0.52680883  0.30522795  1.0
  Sn  Sn929  1  0.16666667  0.86014217  0.30522795  1.0
  Sn  Sn930  1  0.50000000  0.19347550  0.30522795  1.0
  Sn  Sn931  1  0.50000000  0.52680883  0.30522795  1.0
  Sn  Sn932  1  0.50000000  0.86014217  0.30522795  1.0
  Sn  Sn933  1  0.83333333  0.19347550  0.30522795  1.0
  Sn  Sn934  1  0.83333333  0.52680883  0.30522795  1.0
  Sn  Sn935  1  0.83333333  0.86014217  0.30522795  1.0
  Sn  Sn936  1  0.16666667  0.00653450  0.24419515  1.0
  Sn  Sn937  1  0.16666667  0.33986783  0.24419515  1.0
  Sn  Sn938  1  0.16666667  0.67320117  0.24419515  1.0
  Sn  Sn939  1  0.50000000  0.00653450  0.24419515  1.0
  Sn  Sn940  1  0.50000000  0.33986783  0.24419515  1.0
  Sn  Sn941  1  0.50000000  0.67320117  0.24419515  1.0
  Sn  Sn942  1  0.83333333  0.00653450  0.24419515  1.0
  Sn  Sn943  1  0.83333333  0.33986783  0.24419515  1.0
  Sn  Sn944  1  0.83333333  0.67320117  0.24419515  1.0
  Sn  Sn945  1  0.16666667  0.17320117  0.34419515  1.0
  Sn  Sn946  1  0.16666667  0.50653450  0.34419515  1.0
  Sn  Sn947  1  0.16666667  0.83986783  0.34419515  1.0
  Sn  Sn948  1  0.50000000  0.17320117  0.34419515  1.0
  Sn  Sn949  1  0.50000000  0.50653450  0.34419515  1.0
  Sn  Sn950  1  0.50000000  0.83986783  0.34419515  1.0
  Sn  Sn951  1  0.83333333  0.17320117  0.34419515  1.0
  Sn  Sn952  1  0.83333333  0.50653450  0.34419515  1.0
  Sn  Sn953  1  0.83333333  0.83986783  0.34419515  1.0
  Sn  Sn954  1  0.00000000  0.06828383  0.27477575  1.0
  Sn  Sn955  1  0.00000000  0.40161717  0.27477575  1.0
  Sn  Sn956  1  0.00000000  0.73495050  0.27477575  1.0
  Sn  Sn957  1  0.33333333  0.06828383  0.27477575  1.0
  Sn  Sn958  1  0.33333333  0.40161717  0.27477575  1.0
  Sn  Sn959  1  0.33333333  0.73495050  0.27477575  1.0
  Sn  Sn960  1  0.66666667  0.06828383  0.27477575  1.0
  Sn  Sn961  1  0.66666667  0.40161717  0.27477575  1.0
  Sn  Sn962  1  0.66666667  0.73495050  0.27477575  1.0
  Sn  Sn963  1  0.00000000  0.23495050  0.37477575  1.0
  Sn  Sn964  1  0.00000000  0.56828383  0.37477575  1.0
  Sn  Sn965  1  0.00000000  0.90161717  0.37477575  1.0
  Sn  Sn966  1  0.33333333  0.23495050  0.37477575  1.0
  Sn  Sn967  1  0.33333333  0.56828383  0.37477575  1.0
  Sn  Sn968  1  0.33333333  0.90161717  0.37477575  1.0
  Sn  Sn969  1  0.66666667  0.23495050  0.37477575  1.0
  Sn  Sn970  1  0.66666667  0.56828383  0.37477575  1.0
  Sn  Sn971  1  0.66666667  0.90161717  0.37477575  1.0
  Sn  Sn972  1  0.00000000  0.11833333  0.27090085  1.0
  Sn  Sn973  1  0.00000000  0.45166667  0.27090085  1.0
  Sn  Sn974  1  0.00000000  0.78500000  0.27090085  1.0
  Sn  Sn975  1  0.33333333  0.11833333  0.27090085  1.0
  Sn  Sn976  1  0.33333333  0.45166667  0.27090085  1.0
  Sn  Sn977  1  0.33333333  0.78500000  0.27090085  1.0
  Sn  Sn978  1  0.66666667  0.11833333  0.27090085  1.0
  Sn  Sn979  1  0.66666667  0.45166667  0.27090085  1.0
  Sn  Sn980  1  0.66666667  0.78500000  0.27090085  1.0
  Sn  Sn981  1  0.00000000  0.28500000  0.37090085  1.0
  Sn  Sn982  1  0.00000000  0.61833333  0.37090085  1.0
  Sn  Sn983  1  0.00000000  0.95166667  0.37090085  1.0
  Sn  Sn984  1  0.33333333  0.28500000  0.37090085  1.0
  Sn  Sn985  1  0.33333333  0.61833333  0.37090085  1.0
  Sn  Sn986  1  0.33333333  0.95166667  0.37090085  1.0
  Sn  Sn987  1  0.66666667  0.28500000  0.37090085  1.0
  Sn  Sn988  1  0.66666667  0.61833333  0.37090085  1.0
  Sn  Sn989  1  0.66666667  0.95166667  0.37090085  1.0
  Sn  Sn990  1  0.00000000  0.13166667  0.37890085  1.0
  Sn  Sn991  1  0.00000000  0.46500000  0.37890085  1.0
  Sn  Sn992  1  0.00000000  0.79833333  0.37890085  1.0
  Sn  Sn993  1  0.33333333  0.13166667  0.37890085  1.0
  Sn  Sn994  1  0.33333333  0.46500000  0.37890085  1.0
  Sn  Sn995  1  0.33333333  0.79833333  0.37890085  1.0
  Sn  Sn996  1  0.66666667  0.13166667  0.37890085  1.0
  Sn  Sn997  1  0.66666667  0.46500000  0.37890085  1.0
  Sn  Sn998  1  0.66666667  0.79833333  0.37890085  1.0
  Sn  Sn999  1  0.00000000  0.29833333  0.27890085  1.0
  Sn  Sn1000  1  0.00000000  0.63166667  0.27890085  1.0
  Sn  Sn1001  1  0.00000000  0.96500000  0.27890085  1.0
  Sn  Sn1002  1  0.33333333  0.29833333  0.27890085  1.0
  Sn  Sn1003  1  0.33333333  0.63166667  0.27890085  1.0
  Sn  Sn1004  1  0.33333333  0.96500000  0.27890085  1.0
  Sn  Sn1005  1  0.66666667  0.29833333  0.27890085  1.0
  Sn  Sn1006  1  0.66666667  0.63166667  0.27890085  1.0
  Sn  Sn1007  1  0.66666667  0.96500000  0.27890085  1.0
  Sn  Sn1008  1  0.00000000  0.03500000  0.29972645  1.0
  Sn  Sn1009  1  0.00000000  0.36833333  0.29972645  1.0
  Sn  Sn1010  1  0.00000000  0.70166667  0.29972645  1.0
  Sn  Sn1011  1  0.33333333  0.03500000  0.29972645  1.0
  Sn  Sn1012  1  0.33333333  0.36833333  0.29972645  1.0
  Sn  Sn1013  1  0.33333333  0.70166667  0.29972645  1.0
  Sn  Sn1014  1  0.66666667  0.03500000  0.29972645  1.0
  Sn  Sn1015  1  0.66666667  0.36833333  0.29972645  1.0
  Sn  Sn1016  1  0.66666667  0.70166667  0.29972645  1.0
  Sn  Sn1017  1  0.00000000  0.20166667  0.39972645  1.0
  Sn  Sn1018  1  0.00000000  0.53500000  0.39972645  1.0
  Sn  Sn1019  1  0.00000000  0.86833333  0.39972645  1.0
  Sn  Sn1020  1  0.33333333  0.20166667  0.39972645  1.0
  Sn  Sn1021  1  0.33333333  0.53500000  0.39972645  1.0
  Sn  Sn1022  1  0.33333333  0.86833333  0.39972645  1.0
  Sn  Sn1023  1  0.66666667  0.20166667  0.39972645  1.0
  Sn  Sn1024  1  0.66666667  0.53500000  0.39972645  1.0
  Sn  Sn1025  1  0.66666667  0.86833333  0.39972645  1.0
  Sn  Sn1026  1  0.16666667  0.07679883  0.38635375  1.0
  Sn  Sn1027  1  0.16666667  0.41013217  0.38635375  1.0
  Sn  Sn1028  1  0.16666667  0.74346550  0.38635375  1.0
  Sn  Sn1029  1  0.50000000  0.07679883  0.38635375  1.0
  Sn  Sn1030  1  0.50000000  0.41013217  0.38635375  1.0
  Sn  Sn1031  1  0.50000000  0.74346550  0.38635375  1.0
  Sn  Sn1032  1  0.83333333  0.07679883  0.38635375  1.0
  Sn  Sn1033  1  0.83333333  0.41013217  0.38635375  1.0
  Sn  Sn1034  1  0.83333333  0.74346550  0.38635375  1.0
  Sn  Sn1035  1  0.16666667  0.24346550  0.28635375  1.0
  Sn  Sn1036  1  0.16666667  0.57679883  0.28635375  1.0
  Sn  Sn1037  1  0.16666667  0.91013217  0.28635375  1.0
  Sn  Sn1038  1  0.50000000  0.24346550  0.28635375  1.0
  Sn  Sn1039  1  0.50000000  0.57679883  0.28635375  1.0
  Sn  Sn1040  1  0.50000000  0.91013217  0.28635375  1.0
  Sn  Sn1041  1  0.83333333  0.24346550  0.28635375  1.0
  Sn  Sn1042  1  0.83333333  0.57679883  0.28635375  1.0
  Sn  Sn1043  1  0.83333333  0.91013217  0.28635375  1.0
  Sn  Sn1044  1  0.00000000  0.09838283  0.20385155  1.0
  Sn  Sn1045  1  0.00000000  0.43171617  0.20385155  1.0
  Sn  Sn1046  1  0.00000000  0.76504950  0.20385155  1.0
  Sn  Sn1047  1  0.33333333  0.09838283  0.20385155  1.0
  Sn  Sn1048  1  0.33333333  0.43171617  0.20385155  1.0
  Sn  Sn1049  1  0.33333333  0.76504950  0.20385155  1.0
  Sn  Sn1050  1  0.66666667  0.09838283  0.20385155  1.0
  Sn  Sn1051  1  0.66666667  0.43171617  0.20385155  1.0
  Sn  Sn1052  1  0.66666667  0.76504950  0.20385155  1.0
  Sn  Sn1053  1  0.00000000  0.26504950  0.30385155  1.0
  Sn  Sn1054  1  0.00000000  0.59838283  0.30385155  1.0
  Sn  Sn1055  1  0.00000000  0.93171617  0.30385155  1.0
  Sn  Sn1056  1  0.33333333  0.26504950  0.30385155  1.0
  Sn  Sn1057  1  0.33333333  0.59838283  0.30385155  1.0
  Sn  Sn1058  1  0.33333333  0.93171617  0.30385155  1.0
  Sn  Sn1059  1  0.66666667  0.26504950  0.30385155  1.0
  Sn  Sn1060  1  0.66666667  0.59838283  0.30385155  1.0
  Sn  Sn1061  1  0.66666667  0.93171617  0.30385155  1.0
  Sn  Sn1062  1  0.16666667  0.08986783  0.29227355  1.0
  Sn  Sn1063  1  0.16666667  0.42320117  0.29227355  1.0
  Sn  Sn1064  1  0.16666667  0.75653450  0.29227355  1.0
  Sn  Sn1065  1  0.50000000  0.08986783  0.29227355  1.0
  Sn  Sn1066  1  0.50000000  0.42320117  0.29227355  1.0
  Sn  Sn1067  1  0.50000000  0.75653450  0.29227355  1.0
  Sn  Sn1068  1  0.83333333  0.08986783  0.29227355  1.0
  Sn  Sn1069  1  0.83333333  0.42320117  0.29227355  1.0
  Sn  Sn1070  1  0.83333333  0.75653450  0.29227355  1.0
  Sn  Sn1071  1  0.16666667  0.25653450  0.39227355  1.0
  Sn  Sn1072  1  0.16666667  0.58986783  0.39227355  1.0
  Sn  Sn1073  1  0.16666667  0.92320117  0.39227355  1.0
  Sn  Sn1074  1  0.50000000  0.25653450  0.39227355  1.0
  Sn  Sn1075  1  0.50000000  0.58986783  0.39227355  1.0
  Sn  Sn1076  1  0.50000000  0.92320117  0.39227355  1.0
  Sn  Sn1077  1  0.83333333  0.25653450  0.39227355  1.0
  Sn  Sn1078  1  0.83333333  0.58986783  0.39227355  1.0
  Sn  Sn1079  1  0.83333333  0.92320117  0.39227355  1.0
  Sn  Sn1080  1  0.00000000  0.04833333  0.20772645  1.0
  Sn  Sn1081  1  0.00000000  0.38166667  0.20772645  1.0
  Sn  Sn1082  1  0.00000000  0.71500000  0.20772645  1.0
  Sn  Sn1083  1  0.33333333  0.04833333  0.20772645  1.0
  Sn  Sn1084  1  0.33333333  0.38166667  0.20772645  1.0
  Sn  Sn1085  1  0.33333333  0.71500000  0.20772645  1.0
  Sn  Sn1086  1  0.66666667  0.04833333  0.20772645  1.0
  Sn  Sn1087  1  0.66666667  0.38166667  0.20772645  1.0
  Sn  Sn1088  1  0.66666667  0.71500000  0.20772645  1.0
  Sn  Sn1089  1  0.00000000  0.21500000  0.30772645  1.0
  Sn  Sn1090  1  0.00000000  0.54833333  0.30772645  1.0
  Sn  Sn1091  1  0.00000000  0.88166667  0.30772645  1.0
  Sn  Sn1092  1  0.33333333  0.21500000  0.30772645  1.0
  Sn  Sn1093  1  0.33333333  0.54833333  0.30772645  1.0
  Sn  Sn1094  1  0.33333333  0.88166667  0.30772645  1.0
  Sn  Sn1095  1  0.66666667  0.21500000  0.30772645  1.0
  Sn  Sn1096  1  0.66666667  0.54833333  0.30772645  1.0
  Sn  Sn1097  1  0.66666667  0.88166667  0.30772645  1.0
  Sn  Sn1098  1  0.16666667  0.05652450  0.32305735  1.0
  Sn  Sn1099  1  0.16666667  0.38985783  0.32305735  1.0
  Sn  Sn1100  1  0.16666667  0.72319117  0.32305735  1.0
  Sn  Sn1101  1  0.50000000  0.05652450  0.32305735  1.0
  Sn  Sn1102  1  0.50000000  0.38985783  0.32305735  1.0
  Sn  Sn1103  1  0.50000000  0.72319117  0.32305735  1.0
  Sn  Sn1104  1  0.83333333  0.05652450  0.32305735  1.0
  Sn  Sn1105  1  0.83333333  0.38985783  0.32305735  1.0
  Sn  Sn1106  1  0.83333333  0.72319117  0.32305735  1.0
  Sn  Sn1107  1  0.16666667  0.22319117  0.22305735  1.0
  Sn  Sn1108  1  0.16666667  0.55652450  0.22305735  1.0
  Sn  Sn1109  1  0.16666667  0.88985783  0.22305735  1.0
  Sn  Sn1110  1  0.50000000  0.22319117  0.22305735  1.0
  Sn  Sn1111  1  0.50000000  0.55652450  0.22305735  1.0
  Sn  Sn1112  1  0.50000000  0.88985783  0.22305735  1.0
  Sn  Sn1113  1  0.83333333  0.22319117  0.22305735  1.0
  Sn  Sn1114  1  0.83333333  0.55652450  0.22305735  1.0
  Sn  Sn1115  1  0.83333333  0.88985783  0.22305735  1.0
  Sn  Sn1116  1  0.16666667  0.13985783  0.27339935  1.0
  Sn  Sn1117  1  0.16666667  0.47319117  0.27339935  1.0
  Sn  Sn1118  1  0.16666667  0.80652450  0.27339935  1.0
  Sn  Sn1119  1  0.50000000  0.13985783  0.27339935  1.0
  Sn  Sn1120  1  0.50000000  0.47319117  0.27339935  1.0
  Sn  Sn1121  1  0.50000000  0.80652450  0.27339935  1.0
  Sn  Sn1122  1  0.83333333  0.13985783  0.27339935  1.0
  Sn  Sn1123  1  0.83333333  0.47319117  0.27339935  1.0
  Sn  Sn1124  1  0.83333333  0.80652450  0.27339935  1.0
  Sn  Sn1125  1  0.16666667  0.30652450  0.37339935  1.0
  Sn  Sn1126  1  0.16666667  0.63985783  0.37339935  1.0
  Sn  Sn1127  1  0.16666667  0.97319117  0.37339935  1.0
  Sn  Sn1128  1  0.50000000  0.30652450  0.37339935  1.0
  Sn  Sn1129  1  0.50000000  0.63985783  0.37339935  1.0
  Sn  Sn1130  1  0.50000000  0.97319117  0.37339935  1.0
  Sn  Sn1131  1  0.83333333  0.30652450  0.37339935  1.0
  Sn  Sn1132  1  0.83333333  0.63985783  0.37339935  1.0
  Sn  Sn1133  1  0.83333333  0.97319117  0.37339935  1.0
  Sn  Sn1134  1  0.16666667  0.11014217  0.35556995  1.0
  Sn  Sn1135  1  0.16666667  0.44347550  0.35556995  1.0
  Sn  Sn1136  1  0.16666667  0.77680883  0.35556995  1.0
  Sn  Sn1137  1  0.50000000  0.11014217  0.35556995  1.0
  Sn  Sn1138  1  0.50000000  0.44347550  0.35556995  1.0
  Sn  Sn1139  1  0.50000000  0.77680883  0.35556995  1.0
  Sn  Sn1140  1  0.83333333  0.11014217  0.35556995  1.0
  Sn  Sn1141  1  0.83333333  0.44347550  0.35556995  1.0
  Sn  Sn1142  1  0.83333333  0.77680883  0.35556995  1.0
  Sn  Sn1143  1  0.16666667  0.27680883  0.25556995  1.0
  Sn  Sn1144  1  0.16666667  0.61014217  0.25556995  1.0
  Sn  Sn1145  1  0.16666667  0.94347550  0.25556995  1.0
  Sn  Sn1146  1  0.50000000  0.27680883  0.25556995  1.0
  Sn  Sn1147  1  0.50000000  0.61014217  0.25556995  1.0
  Sn  Sn1148  1  0.50000000  0.94347550  0.25556995  1.0
  Sn  Sn1149  1  0.83333333  0.27680883  0.25556995  1.0
  Sn  Sn1150  1  0.83333333  0.61014217  0.25556995  1.0
  Sn  Sn1151  1  0.83333333  0.94347550  0.25556995  1.0
