# generated using pymatgen
data_NiSn
_symmetry_space_group_name_H-M   'P 1'
_cell_length_a   29.35105828
_cell_length_b   75.90239594
_cell_length_c   36.60500900
_cell_angle_alpha   90.00000000
_cell_angle_beta   57.69063691
_cell_angle_gamma   82.06139610
_symmetry_Int_Tables_number   1
_chemical_formula_structural   NiSn
_chemical_formula_sum   'Ni864 Sn864'
_cell_volume   67996.83808198
_cell_formula_units_Z   864
loop_
 _symmetry_equiv_pos_site_id
 _symmetry_equiv_pos_as_xyz
  1  'x, y, z'
loop_
 _atom_site_type_symbol
 _atom_site_label
 _atom_site_symmetry_multiplicity
 _atom_site_fract_x
 _atom_site_fract_y
 _atom_site_fract_z
 _atom_site_occupancy
  Ni  Ni0  1  0.10100583  0.13132167  0.05738254  1.0
  Ni  Ni1  1  0.10100583  0.46465500  0.05738254  1.0
  Ni  Ni2  1  0.10100583  0.79798833  0.05738254  1.0
  Ni  Ni3  1  0.43433917  0.13132167  0.05738254  1.0
  Ni  Ni4  1  0.43433917  0.46465500  0.05738254  1.0
  Ni  Ni5  1  0.43433917  0.79798833  0.05738254  1.0
  Ni  Ni6  1  0.76767250  0.13132167  0.05738254  1.0
  Ni  Ni7  1  0.76767250  0.46465500  0.05738254  1.0
  Ni  Ni8  1  0.76767250  0.79798833  0.05738254  1.0
  Ni  Ni9  1  0.26767250  0.13132167  0.12881111  1.0
  Ni  Ni10  1  0.26767250  0.46465500  0.12881111  1.0
  Ni  Ni11  1  0.26767250  0.79798833  0.12881111  1.0
  Ni  Ni12  1  0.60100583  0.13132167  0.12881111  1.0
  Ni  Ni13  1  0.60100583  0.46465500  0.12881111  1.0
  Ni  Ni14  1  0.60100583  0.79798833  0.12881111  1.0
  Ni  Ni15  1  0.93433917  0.13132167  0.12881111  1.0
  Ni  Ni16  1  0.93433917  0.46465500  0.12881111  1.0
  Ni  Ni17  1  0.93433917  0.79798833  0.12881111  1.0
  Ni  Ni18  1  0.14899417  0.03534500  0.10824468  1.0
  Ni  Ni19  1  0.14899417  0.36867833  0.10824468  1.0
  Ni  Ni20  1  0.14899417  0.70201167  0.10824468  1.0
  Ni  Ni21  1  0.48232750  0.03534500  0.10824468  1.0
  Ni  Ni22  1  0.48232750  0.36867833  0.10824468  1.0
  Ni  Ni23  1  0.48232750  0.70201167  0.10824468  1.0
  Ni  Ni24  1  0.81566083  0.03534500  0.10824468  1.0
  Ni  Ni25  1  0.81566083  0.36867833  0.10824468  1.0
  Ni  Ni26  1  0.81566083  0.70201167  0.10824468  1.0
  Ni  Ni27  1  0.31566083  0.03534500  0.03681611  1.0
  Ni  Ni28  1  0.31566083  0.36867833  0.03681611  1.0
  Ni  Ni29  1  0.31566083  0.70201167  0.03681611  1.0
  Ni  Ni30  1  0.64899417  0.03534500  0.03681611  1.0
  Ni  Ni31  1  0.64899417  0.36867833  0.03681611  1.0
  Ni  Ni32  1  0.64899417  0.70201167  0.03681611  1.0
  Ni  Ni33  1  0.98232750  0.03534500  0.03681611  1.0
  Ni  Ni34  1  0.98232750  0.36867833  0.03681611  1.0
  Ni  Ni35  1  0.98232750  0.70201167  0.03681611  1.0
  Ni  Ni36  1  0.04075650  0.08515367  0.01122339  1.0
  Ni  Ni37  1  0.04075650  0.41848700  0.01122339  1.0
  Ni  Ni38  1  0.04075650  0.75182033  0.01122339  1.0
  Ni  Ni39  1  0.37408983  0.08515367  0.01122339  1.0
  Ni  Ni40  1  0.37408983  0.41848700  0.01122339  1.0
  Ni  Ni41  1  0.37408983  0.75182033  0.01122339  1.0
  Ni  Ni42  1  0.70742317  0.08515367  0.01122339  1.0
  Ni  Ni43  1  0.70742317  0.41848700  0.01122339  1.0
  Ni  Ni44  1  0.70742317  0.75182033  0.01122339  1.0
  Ni  Ni45  1  0.20742317  0.08515367  0.08265196  1.0
  Ni  Ni46  1  0.20742317  0.41848700  0.08265196  1.0
  Ni  Ni47  1  0.20742317  0.75182033  0.08265196  1.0
  Ni  Ni48  1  0.54075650  0.08515367  0.08265196  1.0
  Ni  Ni49  1  0.54075650  0.41848700  0.08265196  1.0
  Ni  Ni50  1  0.54075650  0.75182033  0.08265196  1.0
  Ni  Ni51  1  0.87408983  0.08515367  0.08265196  1.0
  Ni  Ni52  1  0.87408983  0.41848700  0.08265196  1.0
  Ni  Ni53  1  0.87408983  0.75182033  0.08265196  1.0
  Ni  Ni54  1  0.30986750  0.21359833  0.00870368  1.0
  Ni  Ni55  1  0.30986750  0.54693167  0.00870368  1.0
  Ni  Ni56  1  0.30986750  0.88026500  0.00870368  1.0
  Ni  Ni57  1  0.64320083  0.21359833  0.00870368  1.0
  Ni  Ni58  1  0.64320083  0.54693167  0.00870368  1.0
  Ni  Ni59  1  0.64320083  0.88026500  0.00870368  1.0
  Ni  Ni60  1  0.97653417  0.21359833  0.00870368  1.0
  Ni  Ni61  1  0.97653417  0.54693167  0.00870368  1.0
  Ni  Ni62  1  0.97653417  0.88026500  0.00870368  1.0
  Ni  Ni63  1  0.14320083  0.21359833  0.08013225  1.0
  Ni  Ni64  1  0.14320083  0.54693167  0.08013225  1.0
  Ni  Ni65  1  0.14320083  0.88026500  0.08013225  1.0
  Ni  Ni66  1  0.47653417  0.21359833  0.08013225  1.0
  Ni  Ni67  1  0.47653417  0.54693167  0.08013225  1.0
  Ni  Ni68  1  0.47653417  0.88026500  0.08013225  1.0
  Ni  Ni69  1  0.80986750  0.21359833  0.08013225  1.0
  Ni  Ni70  1  0.80986750  0.54693167  0.08013225  1.0
  Ni  Ni71  1  0.80986750  0.88026500  0.08013225  1.0
  Ni  Ni72  1  0.27346583  0.28640167  0.09573296  1.0
  Ni  Ni73  1  0.27346583  0.61973500  0.09573296  1.0
  Ni  Ni74  1  0.27346583  0.95306833  0.09573296  1.0
  Ni  Ni75  1  0.60679917  0.28640167  0.09573296  1.0
  Ni  Ni76  1  0.60679917  0.61973500  0.09573296  1.0
  Ni  Ni77  1  0.60679917  0.95306833  0.09573296  1.0
  Ni  Ni78  1  0.94013250  0.28640167  0.09573296  1.0
  Ni  Ni79  1  0.94013250  0.61973500  0.09573296  1.0
  Ni  Ni80  1  0.94013250  0.95306833  0.09573296  1.0
  Ni  Ni81  1  0.10679917  0.28640167  0.02430439  1.0
  Ni  Ni82  1  0.10679917  0.61973500  0.02430439  1.0
  Ni  Ni83  1  0.10679917  0.95306833  0.02430439  1.0
  Ni  Ni84  1  0.44013250  0.28640167  0.02430439  1.0
  Ni  Ni85  1  0.44013250  0.61973500  0.02430439  1.0
  Ni  Ni86  1  0.44013250  0.95306833  0.02430439  1.0
  Ni  Ni87  1  0.77346583  0.28640167  0.02430439  1.0
  Ni  Ni88  1  0.77346583  0.61973500  0.02430439  1.0
  Ni  Ni89  1  0.77346583  0.95306833  0.02430439  1.0
  Ni  Ni90  1  0.29075650  0.25182033  0.05749854  1.0
  Ni  Ni91  1  0.29075650  0.58515367  0.05749854  1.0
  Ni  Ni92  1  0.29075650  0.91848700  0.05749854  1.0
  Ni  Ni93  1  0.62408983  0.25182033  0.05749854  1.0
  Ni  Ni94  1  0.62408983  0.58515367  0.05749854  1.0
  Ni  Ni95  1  0.62408983  0.91848700  0.05749854  1.0
  Ni  Ni96  1  0.95742317  0.25182033  0.05749854  1.0
  Ni  Ni97  1  0.95742317  0.58515367  0.05749854  1.0
  Ni  Ni98  1  0.95742317  0.91848700  0.05749854  1.0
  Ni  Ni99  1  0.12408983  0.25182033  0.12892711  1.0
  Ni  Ni100  1  0.12408983  0.58515367  0.12892711  1.0
  Ni  Ni101  1  0.12408983  0.91848700  0.12892711  1.0
  Ni  Ni102  1  0.45742317  0.25182033  0.12892711  1.0
  Ni  Ni103  1  0.45742317  0.58515367  0.12892711  1.0
  Ni  Ni104  1  0.45742317  0.91848700  0.12892711  1.0
  Ni  Ni105  1  0.79075650  0.25182033  0.12892711  1.0
  Ni  Ni106  1  0.79075650  0.58515367  0.12892711  1.0
  Ni  Ni107  1  0.79075650  0.91848700  0.12892711  1.0
  Ni  Ni108  1  0.08333333  0.16666667  0.10539946  1.0
  Ni  Ni109  1  0.08333333  0.50000000  0.10539946  1.0
  Ni  Ni110  1  0.08333333  0.83333333  0.10539946  1.0
  Ni  Ni111  1  0.41666667  0.16666667  0.10539946  1.0
  Ni  Ni112  1  0.41666667  0.50000000  0.10539946  1.0
  Ni  Ni113  1  0.41666667  0.83333333  0.10539946  1.0
  Ni  Ni114  1  0.75000000  0.16666667  0.10539946  1.0
  Ni  Ni115  1  0.75000000  0.50000000  0.10539946  1.0
  Ni  Ni116  1  0.75000000  0.83333333  0.10539946  1.0
  Ni  Ni117  1  0.25000000  0.16666667  0.03397089  1.0
  Ni  Ni118  1  0.25000000  0.50000000  0.03397089  1.0
  Ni  Ni119  1  0.25000000  0.83333333  0.03397089  1.0
  Ni  Ni120  1  0.58333333  0.16666667  0.03397089  1.0
  Ni  Ni121  1  0.58333333  0.50000000  0.03397089  1.0
  Ni  Ni122  1  0.58333333  0.83333333  0.03397089  1.0
  Ni  Ni123  1  0.91666667  0.16666667  0.03397089  1.0
  Ni  Ni124  1  0.91666667  0.50000000  0.03397089  1.0
  Ni  Ni125  1  0.91666667  0.83333333  0.03397089  1.0
  Ni  Ni126  1  0.02346583  0.11973500  0.13066668  1.0
  Ni  Ni127  1  0.02346583  0.45306833  0.13066668  1.0
  Ni  Ni128  1  0.02346583  0.78640167  0.13066668  1.0
  Ni  Ni129  1  0.35679917  0.11973500  0.13066668  1.0
  Ni  Ni130  1  0.35679917  0.45306833  0.13066668  1.0
  Ni  Ni131  1  0.35679917  0.78640167  0.13066668  1.0
  Ni  Ni132  1  0.69013250  0.11973500  0.13066668  1.0
  Ni  Ni133  1  0.69013250  0.45306833  0.13066668  1.0
  Ni  Ni134  1  0.69013250  0.78640167  0.13066668  1.0
  Ni  Ni135  1  0.19013250  0.11973500  0.05923811  1.0
  Ni  Ni136  1  0.19013250  0.45306833  0.05923811  1.0
  Ni  Ni137  1  0.19013250  0.78640167  0.05923811  1.0
  Ni  Ni138  1  0.52346583  0.11973500  0.05923811  1.0
  Ni  Ni139  1  0.52346583  0.45306833  0.05923811  1.0
  Ni  Ni140  1  0.52346583  0.78640167  0.05923811  1.0
  Ni  Ni141  1  0.85679917  0.11973500  0.05923811  1.0
  Ni  Ni142  1  0.85679917  0.45306833  0.05923811  1.0
  Ni  Ni143  1  0.85679917  0.78640167  0.05923811  1.0
  Ni  Ni144  1  0.29257683  0.24817967  0.12814696  1.0
  Ni  Ni145  1  0.29257683  0.58151300  0.12814696  1.0
  Ni  Ni146  1  0.29257683  0.91484633  0.12814696  1.0
  Ni  Ni147  1  0.62591017  0.24817967  0.12814696  1.0
  Ni  Ni148  1  0.62591017  0.58151300  0.12814696  1.0
  Ni  Ni149  1  0.62591017  0.91484633  0.12814696  1.0
  Ni  Ni150  1  0.95924350  0.24817967  0.12814696  1.0
  Ni  Ni151  1  0.95924350  0.58151300  0.12814696  1.0
  Ni  Ni152  1  0.95924350  0.91484633  0.12814696  1.0
  Ni  Ni153  1  0.12591017  0.24817967  0.05671839  1.0
  Ni  Ni154  1  0.12591017  0.58151300  0.05671839  1.0
  Ni  Ni155  1  0.12591017  0.91484633  0.05671839  1.0
  Ni  Ni156  1  0.45924350  0.24817967  0.05671839  1.0
  Ni  Ni157  1  0.45924350  0.58151300  0.05671839  1.0
  Ni  Ni158  1  0.45924350  0.91484633  0.05671839  1.0
  Ni  Ni159  1  0.79257683  0.24817967  0.05671839  1.0
  Ni  Ni160  1  0.79257683  0.58151300  0.05671839  1.0
  Ni  Ni161  1  0.79257683  0.91484633  0.05671839  1.0
  Ni  Ni162  1  0.01767250  0.29798833  0.10255425  1.0
  Ni  Ni163  1  0.01767250  0.63132167  0.10255425  1.0
  Ni  Ni164  1  0.01767250  0.96465500  0.10255425  1.0
  Ni  Ni165  1  0.35100583  0.29798833  0.10255425  1.0
  Ni  Ni166  1  0.35100583  0.63132167  0.10255425  1.0
  Ni  Ni167  1  0.35100583  0.96465500  0.10255425  1.0
  Ni  Ni168  1  0.68433917  0.29798833  0.10255425  1.0
  Ni  Ni169  1  0.68433917  0.63132167  0.10255425  1.0
  Ni  Ni170  1  0.68433917  0.96465500  0.10255425  1.0
  Ni  Ni171  1  0.18433917  0.29798833  0.03112568  1.0
  Ni  Ni172  1  0.18433917  0.63132167  0.03112568  1.0
  Ni  Ni173  1  0.18433917  0.96465500  0.03112568  1.0
  Ni  Ni174  1  0.51767250  0.29798833  0.03112568  1.0
  Ni  Ni175  1  0.51767250  0.63132167  0.03112568  1.0
  Ni  Ni176  1  0.51767250  0.96465500  0.03112568  1.0
  Ni  Ni177  1  0.85100583  0.29798833  0.03112568  1.0
  Ni  Ni178  1  0.85100583  0.63132167  0.03112568  1.0
  Ni  Ni179  1  0.85100583  0.96465500  0.03112568  1.0
  Ni  Ni180  1  0.04257683  0.08151300  0.08187182  1.0
  Ni  Ni181  1  0.04257683  0.41484633  0.08187182  1.0
  Ni  Ni182  1  0.04257683  0.74817967  0.08187182  1.0
  Ni  Ni183  1  0.37591017  0.08151300  0.08187182  1.0
  Ni  Ni184  1  0.37591017  0.41484633  0.08187182  1.0
  Ni  Ni185  1  0.37591017  0.74817967  0.08187182  1.0
  Ni  Ni186  1  0.70924350  0.08151300  0.08187182  1.0
  Ni  Ni187  1  0.70924350  0.41484633  0.08187182  1.0
  Ni  Ni188  1  0.70924350  0.74817967  0.08187182  1.0
  Ni  Ni189  1  0.20924350  0.08151300  0.01044325  1.0
  Ni  Ni190  1  0.20924350  0.41484633  0.01044325  1.0
  Ni  Ni191  1  0.20924350  0.74817967  0.01044325  1.0
  Ni  Ni192  1  0.54257683  0.08151300  0.01044325  1.0
  Ni  Ni193  1  0.54257683  0.41484633  0.01044325  1.0
  Ni  Ni194  1  0.54257683  0.74817967  0.01044325  1.0
  Ni  Ni195  1  0.87591017  0.08151300  0.01044325  1.0
  Ni  Ni196  1  0.87591017  0.41484633  0.01044325  1.0
  Ni  Ni197  1  0.87591017  0.74817967  0.01044325  1.0
  Ni  Ni198  1  0.06566083  0.20201167  0.01055925  1.0
  Ni  Ni199  1  0.06566083  0.53534500  0.01055925  1.0
  Ni  Ni200  1  0.06566083  0.86867833  0.01055925  1.0
  Ni  Ni201  1  0.39899417  0.20201167  0.01055925  1.0
  Ni  Ni202  1  0.39899417  0.53534500  0.01055925  1.0
  Ni  Ni203  1  0.39899417  0.86867833  0.01055925  1.0
  Ni  Ni204  1  0.73232750  0.20201167  0.01055925  1.0
  Ni  Ni205  1  0.73232750  0.53534500  0.01055925  1.0
  Ni  Ni206  1  0.73232750  0.86867833  0.01055925  1.0
  Ni  Ni207  1  0.23232750  0.20201167  0.08198782  1.0
  Ni  Ni208  1  0.23232750  0.53534500  0.08198782  1.0
  Ni  Ni209  1  0.23232750  0.86867833  0.08198782  1.0
  Ni  Ni210  1  0.56566083  0.20201167  0.08198782  1.0
  Ni  Ni211  1  0.56566083  0.53534500  0.08198782  1.0
  Ni  Ni212  1  0.56566083  0.86867833  0.08198782  1.0
  Ni  Ni213  1  0.89899417  0.20201167  0.08198782  1.0
  Ni  Ni214  1  0.89899417  0.53534500  0.08198782  1.0
  Ni  Ni215  1  0.89899417  0.86867833  0.08198782  1.0
  Ni  Ni216  1  0.05986750  0.04693167  0.04363739  1.0
  Ni  Ni217  1  0.05986750  0.38026500  0.04363739  1.0
  Ni  Ni218  1  0.05986750  0.71359833  0.04363739  1.0
  Ni  Ni219  1  0.39320083  0.04693167  0.04363739  1.0
  Ni  Ni220  1  0.39320083  0.38026500  0.04363739  1.0
  Ni  Ni221  1  0.39320083  0.71359833  0.04363739  1.0
  Ni  Ni222  1  0.72653417  0.04693167  0.04363739  1.0
  Ni  Ni223  1  0.72653417  0.38026500  0.04363739  1.0
  Ni  Ni224  1  0.72653417  0.71359833  0.04363739  1.0
  Ni  Ni225  1  0.22653417  0.04693167  0.11506596  1.0
  Ni  Ni226  1  0.22653417  0.38026500  0.11506596  1.0
  Ni  Ni227  1  0.22653417  0.71359833  0.11506596  1.0
  Ni  Ni228  1  0.55986750  0.04693167  0.11506596  1.0
  Ni  Ni229  1  0.55986750  0.38026500  0.11506596  1.0
  Ni  Ni230  1  0.55986750  0.71359833  0.11506596  1.0
  Ni  Ni231  1  0.89320083  0.04693167  0.11506596  1.0
  Ni  Ni232  1  0.89320083  0.38026500  0.11506596  1.0
  Ni  Ni233  1  0.89320083  0.71359833  0.11506596  1.0
  Ni  Ni234  1  0.16666667  0.00000000  0.06968518  1.0
  Ni  Ni235  1  0.16666667  0.33333333  0.06968518  1.0
  Ni  Ni236  1  0.16666667  0.66666667  0.06968518  1.0
  Ni  Ni237  1  0.50000000  0.00000000  0.06968518  1.0
  Ni  Ni238  1  0.50000000  0.33333333  0.06968518  1.0
  Ni  Ni239  1  0.50000000  0.66666667  0.06968518  1.0
  Ni  Ni240  1  0.83333333  0.00000000  0.06968518  1.0
  Ni  Ni241  1  0.83333333  0.33333333  0.06968518  1.0
  Ni  Ni242  1  0.83333333  0.66666667  0.06968518  1.0
  Ni  Ni243  1  0.00000000  0.00000000  0.14111375  1.0
  Ni  Ni244  1  0.00000000  0.33333333  0.14111375  1.0
  Ni  Ni245  1  0.00000000  0.66666667  0.14111375  1.0
  Ni  Ni246  1  0.33333333  0.00000000  0.14111375  1.0
  Ni  Ni247  1  0.33333333  0.33333333  0.14111375  1.0
  Ni  Ni248  1  0.33333333  0.66666667  0.14111375  1.0
  Ni  Ni249  1  0.66666667  0.00000000  0.14111375  1.0
  Ni  Ni250  1  0.66666667  0.33333333  0.14111375  1.0
  Ni  Ni251  1  0.66666667  0.66666667  0.14111375  1.0
  Ni  Ni252  1  0.08333333  0.16666667  0.03397089  1.0
  Ni  Ni253  1  0.08333333  0.50000000  0.03397089  1.0
  Ni  Ni254  1  0.08333333  0.83333333  0.03397089  1.0
  Ni  Ni255  1  0.41666667  0.16666667  0.03397089  1.0
  Ni  Ni256  1  0.41666667  0.50000000  0.03397089  1.0
  Ni  Ni257  1  0.41666667  0.83333333  0.03397089  1.0
  Ni  Ni258  1  0.75000000  0.16666667  0.03397089  1.0
  Ni  Ni259  1  0.75000000  0.50000000  0.03397089  1.0
  Ni  Ni260  1  0.75000000  0.83333333  0.03397089  1.0
  Ni  Ni261  1  0.25000000  0.16666667  0.10539946  1.0
  Ni  Ni262  1  0.25000000  0.50000000  0.10539946  1.0
  Ni  Ni263  1  0.25000000  0.83333333  0.10539946  1.0
  Ni  Ni264  1  0.58333333  0.16666667  0.10539946  1.0
  Ni  Ni265  1  0.58333333  0.50000000  0.10539946  1.0
  Ni  Ni266  1  0.58333333  0.83333333  0.10539946  1.0
  Ni  Ni267  1  0.91666667  0.16666667  0.10539946  1.0
  Ni  Ni268  1  0.91666667  0.50000000  0.10539946  1.0
  Ni  Ni269  1  0.91666667  0.83333333  0.10539946  1.0
  Ni  Ni270  1  0.16666667  0.00000000  0.14111375  1.0
  Ni  Ni271  1  0.16666667  0.33333333  0.14111375  1.0
  Ni  Ni272  1  0.16666667  0.66666667  0.14111375  1.0
  Ni  Ni273  1  0.50000000  0.00000000  0.14111375  1.0
  Ni  Ni274  1  0.50000000  0.33333333  0.14111375  1.0
  Ni  Ni275  1  0.50000000  0.66666667  0.14111375  1.0
  Ni  Ni276  1  0.83333333  0.00000000  0.14111375  1.0
  Ni  Ni277  1  0.83333333  0.33333333  0.14111375  1.0
  Ni  Ni278  1  0.83333333  0.66666667  0.14111375  1.0
  Ni  Ni279  1  0.00000000  0.00000000  0.06968518  1.0
  Ni  Ni280  1  0.00000000  0.33333333  0.06968518  1.0
  Ni  Ni281  1  0.00000000  0.66666667  0.06968518  1.0
  Ni  Ni282  1  0.33333333  0.00000000  0.06968518  1.0
  Ni  Ni283  1  0.33333333  0.33333333  0.06968518  1.0
  Ni  Ni284  1  0.33333333  0.66666667  0.06968518  1.0
  Ni  Ni285  1  0.66666667  0.00000000  0.06968518  1.0
  Ni  Ni286  1  0.66666667  0.33333333  0.06968518  1.0
  Ni  Ni287  1  0.66666667  0.66666667  0.06968518  1.0
  Sn  Sn288  1  0.07679883  0.01306900  0.00174339  1.0
  Sn  Sn289  1  0.07679883  0.34640233  0.00174339  1.0
  Sn  Sn290  1  0.07679883  0.67973567  0.00174339  1.0
  Sn  Sn291  1  0.41013217  0.01306900  0.00174339  1.0
  Sn  Sn292  1  0.41013217  0.34640233  0.00174339  1.0
  Sn  Sn293  1  0.41013217  0.67973567  0.00174339  1.0
  Sn  Sn294  1  0.74346550  0.01306900  0.00174339  1.0
  Sn  Sn295  1  0.74346550  0.34640233  0.00174339  1.0
  Sn  Sn296  1  0.74346550  0.67973567  0.00174339  1.0
  Sn  Sn297  1  0.24346550  0.01306900  0.07317196  1.0
  Sn  Sn298  1  0.24346550  0.34640233  0.07317196  1.0
  Sn  Sn299  1  0.24346550  0.67973567  0.07317196  1.0
  Sn  Sn300  1  0.57679883  0.01306900  0.07317196  1.0
  Sn  Sn301  1  0.57679883  0.34640233  0.07317196  1.0
  Sn  Sn302  1  0.57679883  0.67973567  0.07317196  1.0
  Sn  Sn303  1  0.91013217  0.01306900  0.07317196  1.0
  Sn  Sn304  1  0.91013217  0.34640233  0.07317196  1.0
  Sn  Sn305  1  0.91013217  0.67973567  0.07317196  1.0
  Sn  Sn306  1  0.01504950  0.30323433  0.03145554  1.0
  Sn  Sn307  1  0.01504950  0.63656767  0.03145554  1.0
  Sn  Sn308  1  0.01504950  0.96990100  0.03145554  1.0
  Sn  Sn309  1  0.34838283  0.30323433  0.03145554  1.0
  Sn  Sn310  1  0.34838283  0.63656767  0.03145554  1.0
  Sn  Sn311  1  0.34838283  0.96990100  0.03145554  1.0
  Sn  Sn312  1  0.68171617  0.30323433  0.03145554  1.0
  Sn  Sn313  1  0.68171617  0.63656767  0.03145554  1.0
  Sn  Sn314  1  0.68171617  0.96990100  0.03145554  1.0
  Sn  Sn315  1  0.18171617  0.30323433  0.10288411  1.0
  Sn  Sn316  1  0.18171617  0.63656767  0.10288411  1.0
  Sn  Sn317  1  0.18171617  0.96990100  0.10288411  1.0
  Sn  Sn318  1  0.51504950  0.30323433  0.10288411  1.0
  Sn  Sn319  1  0.51504950  0.63656767  0.10288411  1.0
  Sn  Sn320  1  0.51504950  0.96990100  0.10288411  1.0
  Sn  Sn321  1  0.84838283  0.30323433  0.10288411  1.0
  Sn  Sn322  1  0.84838283  0.63656767  0.10288411  1.0
  Sn  Sn323  1  0.84838283  0.96990100  0.10288411  1.0
  Sn  Sn324  1  0.15161717  0.03009900  0.03648625  1.0
  Sn  Sn325  1  0.15161717  0.36343233  0.03648625  1.0
  Sn  Sn326  1  0.15161717  0.69676567  0.03648625  1.0
  Sn  Sn327  1  0.48495050  0.03009900  0.03648625  1.0
  Sn  Sn328  1  0.48495050  0.36343233  0.03648625  1.0
  Sn  Sn329  1  0.48495050  0.69676567  0.03648625  1.0
  Sn  Sn330  1  0.81828383  0.03009900  0.03648625  1.0
  Sn  Sn331  1  0.81828383  0.36343233  0.03648625  1.0
  Sn  Sn332  1  0.81828383  0.69676567  0.03648625  1.0
  Sn  Sn333  1  0.31828383  0.03009900  0.10791482  1.0
  Sn  Sn334  1  0.31828383  0.36343233  0.10791482  1.0
  Sn  Sn335  1  0.31828383  0.69676567  0.10791482  1.0
  Sn  Sn336  1  0.65161717  0.03009900  0.10791482  1.0
  Sn  Sn337  1  0.65161717  0.36343233  0.10791482  1.0
  Sn  Sn338  1  0.65161717  0.69676567  0.10791482  1.0
  Sn  Sn339  1  0.98495050  0.03009900  0.10791482  1.0
  Sn  Sn340  1  0.98495050  0.36343233  0.10791482  1.0
  Sn  Sn341  1  0.98495050  0.69676567  0.10791482  1.0
  Sn  Sn342  1  0.27680883  0.27971567  0.02260354  1.0
  Sn  Sn343  1  0.27680883  0.61304900  0.02260354  1.0
  Sn  Sn344  1  0.27680883  0.94638233  0.02260354  1.0
  Sn  Sn345  1  0.61014217  0.27971567  0.02260354  1.0
  Sn  Sn346  1  0.61014217  0.61304900  0.02260354  1.0
  Sn  Sn347  1  0.61014217  0.94638233  0.02260354  1.0
  Sn  Sn348  1  0.94347550  0.27971567  0.02260354  1.0
  Sn  Sn349  1  0.94347550  0.61304900  0.02260354  1.0
  Sn  Sn350  1  0.94347550  0.94638233  0.02260354  1.0
  Sn  Sn351  1  0.11014217  0.27971567  0.09403211  1.0
  Sn  Sn352  1  0.11014217  0.61304900  0.09403211  1.0
  Sn  Sn353  1  0.11014217  0.94638233  0.09403211  1.0
  Sn  Sn354  1  0.44347550  0.27971567  0.09403211  1.0
  Sn  Sn355  1  0.44347550  0.61304900  0.09403211  1.0
  Sn  Sn356  1  0.44347550  0.94638233  0.09403211  1.0
  Sn  Sn357  1  0.77680883  0.27971567  0.09403211  1.0
  Sn  Sn358  1  0.77680883  0.61304900  0.09403211  1.0
  Sn  Sn359  1  0.77680883  0.94638233  0.09403211  1.0
  Sn  Sn360  1  0.25653450  0.32026433  0.13762696  1.0
  Sn  Sn361  1  0.25653450  0.65359767  0.13762696  1.0
  Sn  Sn362  1  0.25653450  0.98693100  0.13762696  1.0
  Sn  Sn363  1  0.58986783  0.32026433  0.13762696  1.0
  Sn  Sn364  1  0.58986783  0.65359767  0.13762696  1.0
  Sn  Sn365  1  0.58986783  0.98693100  0.13762696  1.0
  Sn  Sn366  1  0.92320117  0.32026433  0.13762696  1.0
  Sn  Sn367  1  0.92320117  0.65359767  0.13762696  1.0
  Sn  Sn368  1  0.92320117  0.98693100  0.13762696  1.0
  Sn  Sn369  1  0.08986783  0.32026433  0.06619839  1.0
  Sn  Sn370  1  0.08986783  0.65359767  0.06619839  1.0
  Sn  Sn371  1  0.08986783  0.98693100  0.06619839  1.0
  Sn  Sn372  1  0.42320117  0.32026433  0.06619839  1.0
  Sn  Sn373  1  0.42320117  0.65359767  0.06619839  1.0
  Sn  Sn374  1  0.42320117  0.98693100  0.06619839  1.0
  Sn  Sn375  1  0.75653450  0.32026433  0.06619839  1.0
  Sn  Sn376  1  0.75653450  0.65359767  0.06619839  1.0
  Sn  Sn377  1  0.75653450  0.98693100  0.06619839  1.0
  Sn  Sn378  1  0.06828383  0.19676567  0.08006939  1.0
  Sn  Sn379  1  0.06828383  0.53009900  0.08006939  1.0
  Sn  Sn380  1  0.06828383  0.86343233  0.08006939  1.0
  Sn  Sn381  1  0.40161717  0.19676567  0.08006939  1.0
  Sn  Sn382  1  0.40161717  0.53009900  0.08006939  1.0
  Sn  Sn383  1  0.40161717  0.86343233  0.08006939  1.0
  Sn  Sn384  1  0.73495050  0.19676567  0.08006939  1.0
  Sn  Sn385  1  0.73495050  0.53009900  0.08006939  1.0
  Sn  Sn386  1  0.73495050  0.86343233  0.08006939  1.0
  Sn  Sn387  1  0.23495050  0.19676567  0.00864082  1.0
  Sn  Sn388  1  0.23495050  0.53009900  0.00864082  1.0
  Sn  Sn389  1  0.23495050  0.86343233  0.00864082  1.0
  Sn  Sn390  1  0.56828383  0.19676567  0.00864082  1.0
  Sn  Sn391  1  0.56828383  0.53009900  0.00864082  1.0
  Sn  Sn392  1  0.56828383  0.86343233  0.00864082  1.0
  Sn  Sn393  1  0.90161717  0.19676567  0.00864082  1.0
  Sn  Sn394  1  0.90161717  0.53009900  0.00864082  1.0
  Sn  Sn395  1  0.90161717  0.86343233  0.00864082  1.0
  Sn  Sn396  1  0.11833333  0.09666667  0.08283718  1.0
  Sn  Sn397  1  0.11833333  0.43000000  0.08283718  1.0
  Sn  Sn398  1  0.11833333  0.76333333  0.08283718  1.0
  Sn  Sn399  1  0.45166667  0.09666667  0.08283718  1.0
  Sn  Sn400  1  0.45166667  0.43000000  0.08283718  1.0
  Sn  Sn401  1  0.45166667  0.76333333  0.08283718  1.0
  Sn  Sn402  1  0.78500000  0.09666667  0.08283718  1.0
  Sn  Sn403  1  0.78500000  0.43000000  0.08283718  1.0
  Sn  Sn404  1  0.78500000  0.76333333  0.08283718  1.0
  Sn  Sn405  1  0.28500000  0.09666667  0.01140861  1.0
  Sn  Sn406  1  0.28500000  0.43000000  0.01140861  1.0
  Sn  Sn407  1  0.28500000  0.76333333  0.01140861  1.0
  Sn  Sn408  1  0.61833333  0.09666667  0.01140861  1.0
  Sn  Sn409  1  0.61833333  0.43000000  0.01140861  1.0
  Sn  Sn410  1  0.61833333  0.76333333  0.01140861  1.0
  Sn  Sn411  1  0.95166667  0.09666667  0.01140861  1.0
  Sn  Sn412  1  0.95166667  0.43000000  0.01140861  1.0
  Sn  Sn413  1  0.95166667  0.76333333  0.01140861  1.0
  Sn  Sn414  1  0.13166667  0.07000000  0.00569432  1.0
  Sn  Sn415  1  0.13166667  0.40333333  0.00569432  1.0
  Sn  Sn416  1  0.13166667  0.73666667  0.00569432  1.0
  Sn  Sn417  1  0.46500000  0.07000000  0.00569432  1.0
  Sn  Sn418  1  0.46500000  0.40333333  0.00569432  1.0
  Sn  Sn419  1  0.46500000  0.73666667  0.00569432  1.0
  Sn  Sn420  1  0.79833333  0.07000000  0.00569432  1.0
  Sn  Sn421  1  0.79833333  0.40333333  0.00569432  1.0
  Sn  Sn422  1  0.79833333  0.73666667  0.00569432  1.0
  Sn  Sn423  1  0.29833333  0.07000000  0.07712289  1.0
  Sn  Sn424  1  0.29833333  0.40333333  0.07712289  1.0
  Sn  Sn425  1  0.29833333  0.73666667  0.07712289  1.0
  Sn  Sn426  1  0.63166667  0.07000000  0.07712289  1.0
  Sn  Sn427  1  0.63166667  0.40333333  0.07712289  1.0
  Sn  Sn428  1  0.63166667  0.73666667  0.07712289  1.0
  Sn  Sn429  1  0.96500000  0.07000000  0.07712289  1.0
  Sn  Sn430  1  0.96500000  0.40333333  0.07712289  1.0
  Sn  Sn431  1  0.96500000  0.73666667  0.07712289  1.0
  Sn  Sn432  1  0.03500000  0.26333333  0.06224746  1.0
  Sn  Sn433  1  0.03500000  0.59666667  0.06224746  1.0
  Sn  Sn434  1  0.03500000  0.93000000  0.06224746  1.0
  Sn  Sn435  1  0.36833333  0.26333333  0.06224746  1.0
  Sn  Sn436  1  0.36833333  0.59666667  0.06224746  1.0
  Sn  Sn437  1  0.36833333  0.93000000  0.06224746  1.0
  Sn  Sn438  1  0.70166667  0.26333333  0.06224746  1.0
  Sn  Sn439  1  0.70166667  0.59666667  0.06224746  1.0
  Sn  Sn440  1  0.70166667  0.93000000  0.06224746  1.0
  Sn  Sn441  1  0.20166667  0.26333333  0.13367604  1.0
  Sn  Sn442  1  0.20166667  0.59666667  0.13367604  1.0
  Sn  Sn443  1  0.20166667  0.93000000  0.13367604  1.0
  Sn  Sn444  1  0.53500000  0.26333333  0.13367604  1.0
  Sn  Sn445  1  0.53500000  0.59666667  0.13367604  1.0
  Sn  Sn446  1  0.53500000  0.93000000  0.13367604  1.0
  Sn  Sn447  1  0.86833333  0.26333333  0.13367604  1.0
  Sn  Sn448  1  0.86833333  0.59666667  0.13367604  1.0
  Sn  Sn449  1  0.86833333  0.93000000  0.13367604  1.0
  Sn  Sn450  1  0.32679883  0.17973567  0.03608511  1.0
  Sn  Sn451  1  0.32679883  0.51306900  0.03608511  1.0
  Sn  Sn452  1  0.32679883  0.84640233  0.03608511  1.0
  Sn  Sn453  1  0.66013217  0.17973567  0.03608511  1.0
  Sn  Sn454  1  0.66013217  0.51306900  0.03608511  1.0
  Sn  Sn455  1  0.66013217  0.84640233  0.03608511  1.0
  Sn  Sn456  1  0.99346550  0.17973567  0.03608511  1.0
  Sn  Sn457  1  0.99346550  0.51306900  0.03608511  1.0
  Sn  Sn458  1  0.99346550  0.84640233  0.03608511  1.0
  Sn  Sn459  1  0.16013217  0.17973567  0.10751368  1.0
  Sn  Sn460  1  0.16013217  0.51306900  0.10751368  1.0
  Sn  Sn461  1  0.16013217  0.84640233  0.10751368  1.0
  Sn  Sn462  1  0.49346550  0.17973567  0.10751368  1.0
  Sn  Sn463  1  0.49346550  0.51306900  0.10751368  1.0
  Sn  Sn464  1  0.49346550  0.84640233  0.10751368  1.0
  Sn  Sn465  1  0.82679883  0.17973567  0.10751368  1.0
  Sn  Sn466  1  0.82679883  0.51306900  0.10751368  1.0
  Sn  Sn467  1  0.82679883  0.84640233  0.10751368  1.0
  Sn  Sn468  1  0.09838283  0.13656767  0.13072954  1.0
  Sn  Sn469  1  0.09838283  0.46990100  0.13072954  1.0
  Sn  Sn470  1  0.09838283  0.80323433  0.13072954  1.0
  Sn  Sn471  1  0.43171617  0.13656767  0.13072954  1.0
  Sn  Sn472  1  0.43171617  0.46990100  0.13072954  1.0
  Sn  Sn473  1  0.43171617  0.80323433  0.13072954  1.0
  Sn  Sn474  1  0.76504950  0.13656767  0.13072954  1.0
  Sn  Sn475  1  0.76504950  0.46990100  0.13072954  1.0
  Sn  Sn476  1  0.76504950  0.80323433  0.13072954  1.0
  Sn  Sn477  1  0.26504950  0.13656767  0.05930096  1.0
  Sn  Sn478  1  0.26504950  0.46990100  0.05930096  1.0
  Sn  Sn479  1  0.26504950  0.80323433  0.05930096  1.0
  Sn  Sn480  1  0.59838283  0.13656767  0.05930096  1.0
  Sn  Sn481  1  0.59838283  0.46990100  0.05930096  1.0
  Sn  Sn482  1  0.59838283  0.80323433  0.05930096  1.0
  Sn  Sn483  1  0.93171617  0.13656767  0.05930096  1.0
  Sn  Sn484  1  0.93171617  0.46990100  0.05930096  1.0
  Sn  Sn485  1  0.93171617  0.80323433  0.05930096  1.0
  Sn  Sn486  1  0.00653450  0.15359767  0.10328525  1.0
  Sn  Sn487  1  0.00653450  0.48693100  0.10328525  1.0
  Sn  Sn488  1  0.00653450  0.82026433  0.10328525  1.0
  Sn  Sn489  1  0.33986783  0.15359767  0.10328525  1.0
  Sn  Sn490  1  0.33986783  0.48693100  0.10328525  1.0
  Sn  Sn491  1  0.33986783  0.82026433  0.10328525  1.0
  Sn  Sn492  1  0.67320117  0.15359767  0.10328525  1.0
  Sn  Sn493  1  0.67320117  0.48693100  0.10328525  1.0
  Sn  Sn494  1  0.67320117  0.82026433  0.10328525  1.0
  Sn  Sn495  1  0.17320117  0.15359767  0.03185668  1.0
  Sn  Sn496  1  0.17320117  0.48693100  0.03185668  1.0
  Sn  Sn497  1  0.17320117  0.82026433  0.03185668  1.0
  Sn  Sn498  1  0.50653450  0.15359767  0.03185668  1.0
  Sn  Sn499  1  0.50653450  0.48693100  0.03185668  1.0
  Sn  Sn500  1  0.50653450  0.82026433  0.03185668  1.0
  Sn  Sn501  1  0.83986783  0.15359767  0.03185668  1.0
  Sn  Sn502  1  0.83986783  0.48693100  0.03185668  1.0
  Sn  Sn503  1  0.83986783  0.82026433  0.03185668  1.0
  Sn  Sn504  1  0.04833333  0.23666667  0.12796175  1.0
  Sn  Sn505  1  0.04833333  0.57000000  0.12796175  1.0
  Sn  Sn506  1  0.04833333  0.90333333  0.12796175  1.0
  Sn  Sn507  1  0.38166667  0.23666667  0.12796175  1.0
  Sn  Sn508  1  0.38166667  0.57000000  0.12796175  1.0
  Sn  Sn509  1  0.38166667  0.90333333  0.12796175  1.0
  Sn  Sn510  1  0.71500000  0.23666667  0.12796175  1.0
  Sn  Sn511  1  0.71500000  0.57000000  0.12796175  1.0
  Sn  Sn512  1  0.71500000  0.90333333  0.12796175  1.0
  Sn  Sn513  1  0.21500000  0.23666667  0.05653318  1.0
  Sn  Sn514  1  0.21500000  0.57000000  0.05653318  1.0
  Sn  Sn515  1  0.21500000  0.90333333  0.05653318  1.0
  Sn  Sn516  1  0.54833333  0.23666667  0.05653318  1.0
  Sn  Sn517  1  0.54833333  0.57000000  0.05653318  1.0
  Sn  Sn518  1  0.54833333  0.90333333  0.05653318  1.0
  Sn  Sn519  1  0.88166667  0.23666667  0.05653318  1.0
  Sn  Sn520  1  0.88166667  0.57000000  0.05653318  1.0
  Sn  Sn521  1  0.88166667  0.90333333  0.05653318  1.0
  Sn  Sn522  1  0.30652450  0.22028433  0.08129682  1.0
  Sn  Sn523  1  0.30652450  0.55361767  0.08129682  1.0
  Sn  Sn524  1  0.30652450  0.88695100  0.08129682  1.0
  Sn  Sn525  1  0.63985783  0.22028433  0.08129682  1.0
  Sn  Sn526  1  0.63985783  0.55361767  0.08129682  1.0
  Sn  Sn527  1  0.63985783  0.88695100  0.08129682  1.0
  Sn  Sn528  1  0.97319117  0.22028433  0.08129682  1.0
  Sn  Sn529  1  0.97319117  0.55361767  0.08129682  1.0
  Sn  Sn530  1  0.97319117  0.88695100  0.08129682  1.0
  Sn  Sn531  1  0.13985783  0.22028433  0.00986825  1.0
  Sn  Sn532  1  0.13985783  0.55361767  0.00986825  1.0
  Sn  Sn533  1  0.13985783  0.88695100  0.00986825  1.0
  Sn  Sn534  1  0.47319117  0.22028433  0.00986825  1.0
  Sn  Sn535  1  0.47319117  0.55361767  0.00986825  1.0
  Sn  Sn536  1  0.47319117  0.88695100  0.00986825  1.0
  Sn  Sn537  1  0.80652450  0.22028433  0.00986825  1.0
  Sn  Sn538  1  0.80652450  0.55361767  0.00986825  1.0
  Sn  Sn539  1  0.80652450  0.88695100  0.00986825  1.0
  Sn  Sn540  1  0.05652450  0.05361767  0.11676682  1.0
  Sn  Sn541  1  0.05652450  0.38695100  0.11676682  1.0
  Sn  Sn542  1  0.05652450  0.72028433  0.11676682  1.0
  Sn  Sn543  1  0.38985783  0.05361767  0.11676682  1.0
  Sn  Sn544  1  0.38985783  0.38695100  0.11676682  1.0
  Sn  Sn545  1  0.38985783  0.72028433  0.11676682  1.0
  Sn  Sn546  1  0.72319117  0.05361767  0.11676682  1.0
  Sn  Sn547  1  0.72319117  0.38695100  0.11676682  1.0
  Sn  Sn548  1  0.72319117  0.72028433  0.11676682  1.0
  Sn  Sn549  1  0.22319117  0.05361767  0.04533825  1.0
  Sn  Sn550  1  0.22319117  0.38695100  0.04533825  1.0
  Sn  Sn551  1  0.22319117  0.72028433  0.04533825  1.0
  Sn  Sn552  1  0.55652450  0.05361767  0.04533825  1.0
  Sn  Sn553  1  0.55652450  0.38695100  0.04533825  1.0
  Sn  Sn554  1  0.55652450  0.72028433  0.04533825  1.0
  Sn  Sn555  1  0.88985783  0.05361767  0.04533825  1.0
  Sn  Sn556  1  0.88985783  0.38695100  0.04533825  1.0
  Sn  Sn557  1  0.88985783  0.72028433  0.04533825  1.0
  Sn  Sn558  1  0.02680883  0.11304900  0.05807354  1.0
  Sn  Sn559  1  0.02680883  0.44638233  0.05807354  1.0
  Sn  Sn560  1  0.02680883  0.77971567  0.05807354  1.0
  Sn  Sn561  1  0.36014217  0.11304900  0.05807354  1.0
  Sn  Sn562  1  0.36014217  0.44638233  0.05807354  1.0
  Sn  Sn563  1  0.36014217  0.77971567  0.05807354  1.0
  Sn  Sn564  1  0.69347550  0.11304900  0.05807354  1.0
  Sn  Sn565  1  0.69347550  0.44638233  0.05807354  1.0
  Sn  Sn566  1  0.69347550  0.77971567  0.05807354  1.0
  Sn  Sn567  1  0.19347550  0.11304900  0.12950211  1.0
  Sn  Sn568  1  0.19347550  0.44638233  0.12950211  1.0
  Sn  Sn569  1  0.19347550  0.77971567  0.12950211  1.0
  Sn  Sn570  1  0.52680883  0.11304900  0.12950211  1.0
  Sn  Sn571  1  0.52680883  0.44638233  0.12950211  1.0
  Sn  Sn572  1  0.52680883  0.77971567  0.12950211  1.0
  Sn  Sn573  1  0.86014217  0.11304900  0.12950211  1.0
  Sn  Sn574  1  0.86014217  0.44638233  0.12950211  1.0
  Sn  Sn575  1  0.86014217  0.77971567  0.12950211  1.0
  Ni  Ni576  1  0.10100583  0.13132167  0.20023968  1.0
  Ni  Ni577  1  0.10100583  0.46465500  0.20023968  1.0
  Ni  Ni578  1  0.10100583  0.79798833  0.20023968  1.0
  Ni  Ni579  1  0.43433917  0.13132167  0.20023968  1.0
  Ni  Ni580  1  0.43433917  0.46465500  0.20023968  1.0
  Ni  Ni581  1  0.43433917  0.79798833  0.20023968  1.0
  Ni  Ni582  1  0.76767250  0.13132167  0.20023968  1.0
  Ni  Ni583  1  0.76767250  0.46465500  0.20023968  1.0
  Ni  Ni584  1  0.76767250  0.79798833  0.20023968  1.0
  Ni  Ni585  1  0.26767250  0.13132167  0.27166825  1.0
  Ni  Ni586  1  0.26767250  0.46465500  0.27166825  1.0
  Ni  Ni587  1  0.26767250  0.79798833  0.27166825  1.0
  Ni  Ni588  1  0.60100583  0.13132167  0.27166825  1.0
  Ni  Ni589  1  0.60100583  0.46465500  0.27166825  1.0
  Ni  Ni590  1  0.60100583  0.79798833  0.27166825  1.0
  Ni  Ni591  1  0.93433917  0.13132167  0.27166825  1.0
  Ni  Ni592  1  0.93433917  0.46465500  0.27166825  1.0
  Ni  Ni593  1  0.93433917  0.79798833  0.27166825  1.0
  Ni  Ni594  1  0.14899417  0.03534500  0.25110182  1.0
  Ni  Ni595  1  0.14899417  0.36867833  0.25110182  1.0
  Ni  Ni596  1  0.14899417  0.70201167  0.25110182  1.0
  Ni  Ni597  1  0.48232750  0.03534500  0.25110182  1.0
  Ni  Ni598  1  0.48232750  0.36867833  0.25110182  1.0
  Ni  Ni599  1  0.48232750  0.70201167  0.25110182  1.0
  Ni  Ni600  1  0.81566083  0.03534500  0.25110182  1.0
  Ni  Ni601  1  0.81566083  0.36867833  0.25110182  1.0
  Ni  Ni602  1  0.81566083  0.70201167  0.25110182  1.0
  Ni  Ni603  1  0.31566083  0.03534500  0.17967325  1.0
  Ni  Ni604  1  0.31566083  0.36867833  0.17967325  1.0
  Ni  Ni605  1  0.31566083  0.70201167  0.17967325  1.0
  Ni  Ni606  1  0.64899417  0.03534500  0.17967325  1.0
  Ni  Ni607  1  0.64899417  0.36867833  0.17967325  1.0
  Ni  Ni608  1  0.64899417  0.70201167  0.17967325  1.0
  Ni  Ni609  1  0.98232750  0.03534500  0.17967325  1.0
  Ni  Ni610  1  0.98232750  0.36867833  0.17967325  1.0
  Ni  Ni611  1  0.98232750  0.70201167  0.17967325  1.0
  Ni  Ni612  1  0.04075650  0.08515367  0.15408054  1.0
  Ni  Ni613  1  0.04075650  0.41848700  0.15408054  1.0
  Ni  Ni614  1  0.04075650  0.75182033  0.15408054  1.0
  Ni  Ni615  1  0.37408983  0.08515367  0.15408054  1.0
  Ni  Ni616  1  0.37408983  0.41848700  0.15408054  1.0
  Ni  Ni617  1  0.37408983  0.75182033  0.15408054  1.0
  Ni  Ni618  1  0.70742317  0.08515367  0.15408054  1.0
  Ni  Ni619  1  0.70742317  0.41848700  0.15408054  1.0
  Ni  Ni620  1  0.70742317  0.75182033  0.15408054  1.0
  Ni  Ni621  1  0.20742317  0.08515367  0.22550911  1.0
  Ni  Ni622  1  0.20742317  0.41848700  0.22550911  1.0
  Ni  Ni623  1  0.20742317  0.75182033  0.22550911  1.0
  Ni  Ni624  1  0.54075650  0.08515367  0.22550911  1.0
  Ni  Ni625  1  0.54075650  0.41848700  0.22550911  1.0
  Ni  Ni626  1  0.54075650  0.75182033  0.22550911  1.0
  Ni  Ni627  1  0.87408983  0.08515367  0.22550911  1.0
  Ni  Ni628  1  0.87408983  0.41848700  0.22550911  1.0
  Ni  Ni629  1  0.87408983  0.75182033  0.22550911  1.0
  Ni  Ni630  1  0.30986750  0.21359833  0.15156082  1.0
  Ni  Ni631  1  0.30986750  0.54693167  0.15156082  1.0
  Ni  Ni632  1  0.30986750  0.88026500  0.15156082  1.0
  Ni  Ni633  1  0.64320083  0.21359833  0.15156082  1.0
  Ni  Ni634  1  0.64320083  0.54693167  0.15156082  1.0
  Ni  Ni635  1  0.64320083  0.88026500  0.15156082  1.0
  Ni  Ni636  1  0.97653417  0.21359833  0.15156082  1.0
  Ni  Ni637  1  0.97653417  0.54693167  0.15156082  1.0
  Ni  Ni638  1  0.97653417  0.88026500  0.15156082  1.0
  Ni  Ni639  1  0.14320083  0.21359833  0.22298939  1.0
  Ni  Ni640  1  0.14320083  0.54693167  0.22298939  1.0
  Ni  Ni641  1  0.14320083  0.88026500  0.22298939  1.0
  Ni  Ni642  1  0.47653417  0.21359833  0.22298939  1.0
  Ni  Ni643  1  0.47653417  0.54693167  0.22298939  1.0
  Ni  Ni644  1  0.47653417  0.88026500  0.22298939  1.0
  Ni  Ni645  1  0.80986750  0.21359833  0.22298939  1.0
  Ni  Ni646  1  0.80986750  0.54693167  0.22298939  1.0
  Ni  Ni647  1  0.80986750  0.88026500  0.22298939  1.0
  Ni  Ni648  1  0.27346583  0.28640167  0.23859011  1.0
  Ni  Ni649  1  0.27346583  0.61973500  0.23859011  1.0
  Ni  Ni650  1  0.27346583  0.95306833  0.23859011  1.0
  Ni  Ni651  1  0.60679917  0.28640167  0.23859011  1.0
  Ni  Ni652  1  0.60679917  0.61973500  0.23859011  1.0
  Ni  Ni653  1  0.60679917  0.95306833  0.23859011  1.0
  Ni  Ni654  1  0.94013250  0.28640167  0.23859011  1.0
  Ni  Ni655  1  0.94013250  0.61973500  0.23859011  1.0
  Ni  Ni656  1  0.94013250  0.95306833  0.23859011  1.0
  Ni  Ni657  1  0.10679917  0.28640167  0.16716154  1.0
  Ni  Ni658  1  0.10679917  0.61973500  0.16716154  1.0
  Ni  Ni659  1  0.10679917  0.95306833  0.16716154  1.0
  Ni  Ni660  1  0.44013250  0.28640167  0.16716154  1.0
  Ni  Ni661  1  0.44013250  0.61973500  0.16716154  1.0
  Ni  Ni662  1  0.44013250  0.95306833  0.16716154  1.0
  Ni  Ni663  1  0.77346583  0.28640167  0.16716154  1.0
  Ni  Ni664  1  0.77346583  0.61973500  0.16716154  1.0
  Ni  Ni665  1  0.77346583  0.95306833  0.16716154  1.0
  Ni  Ni666  1  0.29075650  0.25182033  0.20035568  1.0
  Ni  Ni667  1  0.29075650  0.58515367  0.20035568  1.0
  Ni  Ni668  1  0.29075650  0.91848700  0.20035568  1.0
  Ni  Ni669  1  0.62408983  0.25182033  0.20035568  1.0
  Ni  Ni670  1  0.62408983  0.58515367  0.20035568  1.0
  Ni  Ni671  1  0.62408983  0.91848700  0.20035568  1.0
  Ni  Ni672  1  0.95742317  0.25182033  0.20035568  1.0
  Ni  Ni673  1  0.95742317  0.58515367  0.20035568  1.0
  Ni  Ni674  1  0.95742317  0.91848700  0.20035568  1.0
  Ni  Ni675  1  0.12408983  0.25182033  0.27178425  1.0
  Ni  Ni676  1  0.12408983  0.58515367  0.27178425  1.0
  Ni  Ni677  1  0.12408983  0.91848700  0.27178425  1.0
  Ni  Ni678  1  0.45742317  0.25182033  0.27178425  1.0
  Ni  Ni679  1  0.45742317  0.58515367  0.27178425  1.0
  Ni  Ni680  1  0.45742317  0.91848700  0.27178425  1.0
  Ni  Ni681  1  0.79075650  0.25182033  0.27178425  1.0
  Ni  Ni682  1  0.79075650  0.58515367  0.27178425  1.0
  Ni  Ni683  1  0.79075650  0.91848700  0.27178425  1.0
  Ni  Ni684  1  0.08333333  0.16666667  0.24825661  1.0
  Ni  Ni685  1  0.08333333  0.50000000  0.24825661  1.0
  Ni  Ni686  1  0.08333333  0.83333333  0.24825661  1.0
  Ni  Ni687  1  0.41666667  0.16666667  0.24825661  1.0
  Ni  Ni688  1  0.41666667  0.50000000  0.24825661  1.0
  Ni  Ni689  1  0.41666667  0.83333333  0.24825661  1.0
  Ni  Ni690  1  0.75000000  0.16666667  0.24825661  1.0
  Ni  Ni691  1  0.75000000  0.50000000  0.24825661  1.0
  Ni  Ni692  1  0.75000000  0.83333333  0.24825661  1.0
  Ni  Ni693  1  0.25000000  0.16666667  0.17682804  1.0
  Ni  Ni694  1  0.25000000  0.50000000  0.17682804  1.0
  Ni  Ni695  1  0.25000000  0.83333333  0.17682804  1.0
  Ni  Ni696  1  0.58333333  0.16666667  0.17682804  1.0
  Ni  Ni697  1  0.58333333  0.50000000  0.17682804  1.0
  Ni  Ni698  1  0.58333333  0.83333333  0.17682804  1.0
  Ni  Ni699  1  0.91666667  0.16666667  0.17682804  1.0
  Ni  Ni700  1  0.91666667  0.50000000  0.17682804  1.0
  Ni  Ni701  1  0.91666667  0.83333333  0.17682804  1.0
  Ni  Ni702  1  0.02346583  0.11973500  0.27352382  1.0
  Ni  Ni703  1  0.02346583  0.45306833  0.27352382  1.0
  Ni  Ni704  1  0.02346583  0.78640167  0.27352382  1.0
  Ni  Ni705  1  0.35679917  0.11973500  0.27352382  1.0
  Ni  Ni706  1  0.35679917  0.45306833  0.27352382  1.0
  Ni  Ni707  1  0.35679917  0.78640167  0.27352382  1.0
  Ni  Ni708  1  0.69013250  0.11973500  0.27352382  1.0
  Ni  Ni709  1  0.69013250  0.45306833  0.27352382  1.0
  Ni  Ni710  1  0.69013250  0.78640167  0.27352382  1.0
  Ni  Ni711  1  0.19013250  0.11973500  0.20209525  1.0
  Ni  Ni712  1  0.19013250  0.45306833  0.20209525  1.0
  Ni  Ni713  1  0.19013250  0.78640167  0.20209525  1.0
  Ni  Ni714  1  0.52346583  0.11973500  0.20209525  1.0
  Ni  Ni715  1  0.52346583  0.45306833  0.20209525  1.0
  Ni  Ni716  1  0.52346583  0.78640167  0.20209525  1.0
  Ni  Ni717  1  0.85679917  0.11973500  0.20209525  1.0
  Ni  Ni718  1  0.85679917  0.45306833  0.20209525  1.0
  Ni  Ni719  1  0.85679917  0.78640167  0.20209525  1.0
  Ni  Ni720  1  0.29257683  0.24817967  0.27100411  1.0
  Ni  Ni721  1  0.29257683  0.58151300  0.27100411  1.0
  Ni  Ni722  1  0.29257683  0.91484633  0.27100411  1.0
  Ni  Ni723  1  0.62591017  0.24817967  0.27100411  1.0
  Ni  Ni724  1  0.62591017  0.58151300  0.27100411  1.0
  Ni  Ni725  1  0.62591017  0.91484633  0.27100411  1.0
  Ni  Ni726  1  0.95924350  0.24817967  0.27100411  1.0
  Ni  Ni727  1  0.95924350  0.58151300  0.27100411  1.0
  Ni  Ni728  1  0.95924350  0.91484633  0.27100411  1.0
  Ni  Ni729  1  0.12591017  0.24817967  0.19957554  1.0
  Ni  Ni730  1  0.12591017  0.58151300  0.19957554  1.0
  Ni  Ni731  1  0.12591017  0.91484633  0.19957554  1.0
  Ni  Ni732  1  0.45924350  0.24817967  0.19957554  1.0
  Ni  Ni733  1  0.45924350  0.58151300  0.19957554  1.0
  Ni  Ni734  1  0.45924350  0.91484633  0.19957554  1.0
  Ni  Ni735  1  0.79257683  0.24817967  0.19957554  1.0
  Ni  Ni736  1  0.79257683  0.58151300  0.19957554  1.0
  Ni  Ni737  1  0.79257683  0.91484633  0.19957554  1.0
  Ni  Ni738  1  0.01767250  0.29798833  0.24541139  1.0
  Ni  Ni739  1  0.01767250  0.63132167  0.24541139  1.0
  Ni  Ni740  1  0.01767250  0.96465500  0.24541139  1.0
  Ni  Ni741  1  0.35100583  0.29798833  0.24541139  1.0
  Ni  Ni742  1  0.35100583  0.63132167  0.24541139  1.0
  Ni  Ni743  1  0.35100583  0.96465500  0.24541139  1.0
  Ni  Ni744  1  0.68433917  0.29798833  0.24541139  1.0
  Ni  Ni745  1  0.68433917  0.63132167  0.24541139  1.0
  Ni  Ni746  1  0.68433917  0.96465500  0.24541139  1.0
  Ni  Ni747  1  0.18433917  0.29798833  0.17398282  1.0
  Ni  Ni748  1  0.18433917  0.63132167  0.17398282  1.0
  Ni  Ni749  1  0.18433917  0.96465500  0.17398282  1.0
  Ni  Ni750  1  0.51767250  0.29798833  0.17398282  1.0
  Ni  Ni751  1  0.51767250  0.63132167  0.17398282  1.0
  Ni  Ni752  1  0.51767250  0.96465500  0.17398282  1.0
  Ni  Ni753  1  0.85100583  0.29798833  0.17398282  1.0
  Ni  Ni754  1  0.85100583  0.63132167  0.17398282  1.0
  Ni  Ni755  1  0.85100583  0.96465500  0.17398282  1.0
  Ni  Ni756  1  0.04257683  0.08151300  0.22472896  1.0
  Ni  Ni757  1  0.04257683  0.41484633  0.22472896  1.0
  Ni  Ni758  1  0.04257683  0.74817967  0.22472896  1.0
  Ni  Ni759  1  0.37591017  0.08151300  0.22472896  1.0
  Ni  Ni760  1  0.37591017  0.41484633  0.22472896  1.0
  Ni  Ni761  1  0.37591017  0.74817967  0.22472896  1.0
  Ni  Ni762  1  0.70924350  0.08151300  0.22472896  1.0
  Ni  Ni763  1  0.70924350  0.41484633  0.22472896  1.0
  Ni  Ni764  1  0.70924350  0.74817967  0.22472896  1.0
  Ni  Ni765  1  0.20924350  0.08151300  0.15330039  1.0
  Ni  Ni766  1  0.20924350  0.41484633  0.15330039  1.0
  Ni  Ni767  1  0.20924350  0.74817967  0.15330039  1.0
  Ni  Ni768  1  0.54257683  0.08151300  0.15330039  1.0
  Ni  Ni769  1  0.54257683  0.41484633  0.15330039  1.0
  Ni  Ni770  1  0.54257683  0.74817967  0.15330039  1.0
  Ni  Ni771  1  0.87591017  0.08151300  0.15330039  1.0
  Ni  Ni772  1  0.87591017  0.41484633  0.15330039  1.0
  Ni  Ni773  1  0.87591017  0.74817967  0.15330039  1.0
  Ni  Ni774  1  0.06566083  0.20201167  0.15341639  1.0
  Ni  Ni775  1  0.06566083  0.53534500  0.15341639  1.0
  Ni  Ni776  1  0.06566083  0.86867833  0.15341639  1.0
  Ni  Ni777  1  0.39899417  0.20201167  0.15341639  1.0
  Ni  Ni778  1  0.39899417  0.53534500  0.15341639  1.0
  Ni  Ni779  1  0.39899417  0.86867833  0.15341639  1.0
  Ni  Ni780  1  0.73232750  0.20201167  0.15341639  1.0
  Ni  Ni781  1  0.73232750  0.53534500  0.15341639  1.0
  Ni  Ni782  1  0.73232750  0.86867833  0.15341639  1.0
  Ni  Ni783  1  0.23232750  0.20201167  0.22484496  1.0
  Ni  Ni784  1  0.23232750  0.53534500  0.22484496  1.0
  Ni  Ni785  1  0.23232750  0.86867833  0.22484496  1.0
  Ni  Ni786  1  0.56566083  0.20201167  0.22484496  1.0
  Ni  Ni787  1  0.56566083  0.53534500  0.22484496  1.0
  Ni  Ni788  1  0.56566083  0.86867833  0.22484496  1.0
  Ni  Ni789  1  0.89899417  0.20201167  0.22484496  1.0
  Ni  Ni790  1  0.89899417  0.53534500  0.22484496  1.0
  Ni  Ni791  1  0.89899417  0.86867833  0.22484496  1.0
  Ni  Ni792  1  0.05986750  0.04693167  0.18649454  1.0
  Ni  Ni793  1  0.05986750  0.38026500  0.18649454  1.0
  Ni  Ni794  1  0.05986750  0.71359833  0.18649454  1.0
  Ni  Ni795  1  0.39320083  0.04693167  0.18649454  1.0
  Ni  Ni796  1  0.39320083  0.38026500  0.18649454  1.0
  Ni  Ni797  1  0.39320083  0.71359833  0.18649454  1.0
  Ni  Ni798  1  0.72653417  0.04693167  0.18649454  1.0
  Ni  Ni799  1  0.72653417  0.38026500  0.18649454  1.0
  Ni  Ni800  1  0.72653417  0.71359833  0.18649454  1.0
  Ni  Ni801  1  0.22653417  0.04693167  0.25792311  1.0
  Ni  Ni802  1  0.22653417  0.38026500  0.25792311  1.0
  Ni  Ni803  1  0.22653417  0.71359833  0.25792311  1.0
  Ni  Ni804  1  0.55986750  0.04693167  0.25792311  1.0
  Ni  Ni805  1  0.55986750  0.38026500  0.25792311  1.0
  Ni  Ni806  1  0.55986750  0.71359833  0.25792311  1.0
  Ni  Ni807  1  0.89320083  0.04693167  0.25792311  1.0
  Ni  Ni808  1  0.89320083  0.38026500  0.25792311  1.0
  Ni  Ni809  1  0.89320083  0.71359833  0.25792311  1.0
  Ni  Ni810  1  0.16666667  0.00000000  0.21254232  1.0
  Ni  Ni811  1  0.16666667  0.33333333  0.21254232  1.0
  Ni  Ni812  1  0.16666667  0.66666667  0.21254232  1.0
  Ni  Ni813  1  0.50000000  0.00000000  0.21254232  1.0
  Ni  Ni814  1  0.50000000  0.33333333  0.21254232  1.0
  Ni  Ni815  1  0.50000000  0.66666667  0.21254232  1.0
  Ni  Ni816  1  0.83333333  0.00000000  0.21254232  1.0
  Ni  Ni817  1  0.83333333  0.33333333  0.21254232  1.0
  Ni  Ni818  1  0.83333333  0.66666667  0.21254232  1.0
  Ni  Ni819  1  0.00000000  0.00000000  0.28397089  1.0
  Ni  Ni820  1  0.00000000  0.33333333  0.28397089  1.0
  Ni  Ni821  1  0.00000000  0.66666667  0.28397089  1.0
  Ni  Ni822  1  0.33333333  0.00000000  0.28397089  1.0
  Ni  Ni823  1  0.33333333  0.33333333  0.28397089  1.0
  Ni  Ni824  1  0.33333333  0.66666667  0.28397089  1.0
  Ni  Ni825  1  0.66666667  0.00000000  0.28397089  1.0
  Ni  Ni826  1  0.66666667  0.33333333  0.28397089  1.0
  Ni  Ni827  1  0.66666667  0.66666667  0.28397089  1.0
  Ni  Ni828  1  0.08333333  0.16666667  0.17682804  1.0
  Ni  Ni829  1  0.08333333  0.50000000  0.17682804  1.0
  Ni  Ni830  1  0.08333333  0.83333333  0.17682804  1.0
  Ni  Ni831  1  0.41666667  0.16666667  0.17682804  1.0
  Ni  Ni832  1  0.41666667  0.50000000  0.17682804  1.0
  Ni  Ni833  1  0.41666667  0.83333333  0.17682804  1.0
  Ni  Ni834  1  0.75000000  0.16666667  0.17682804  1.0
  Ni  Ni835  1  0.75000000  0.50000000  0.17682804  1.0
  Ni  Ni836  1  0.75000000  0.83333333  0.17682804  1.0
  Ni  Ni837  1  0.25000000  0.16666667  0.24825661  1.0
  Ni  Ni838  1  0.25000000  0.50000000  0.24825661  1.0
  Ni  Ni839  1  0.25000000  0.83333333  0.24825661  1.0
  Ni  Ni840  1  0.58333333  0.16666667  0.24825661  1.0
  Ni  Ni841  1  0.58333333  0.50000000  0.24825661  1.0
  Ni  Ni842  1  0.58333333  0.83333333  0.24825661  1.0
  Ni  Ni843  1  0.91666667  0.16666667  0.24825661  1.0
  Ni  Ni844  1  0.91666667  0.50000000  0.24825661  1.0
  Ni  Ni845  1  0.91666667  0.83333333  0.24825661  1.0
  Ni  Ni846  1  0.16666667  0.00000000  0.28397089  1.0
  Ni  Ni847  1  0.16666667  0.33333333  0.28397089  1.0
  Ni  Ni848  1  0.16666667  0.66666667  0.28397089  1.0
  Ni  Ni849  1  0.50000000  0.00000000  0.28397089  1.0
  Ni  Ni850  1  0.50000000  0.33333333  0.28397089  1.0
  Ni  Ni851  1  0.50000000  0.66666667  0.28397089  1.0
  Ni  Ni852  1  0.83333333  0.00000000  0.28397089  1.0
  Ni  Ni853  1  0.83333333  0.33333333  0.28397089  1.0
  Ni  Ni854  1  0.83333333  0.66666667  0.28397089  1.0
  Ni  Ni855  1  0.00000000  0.00000000  0.21254232  1.0
  Ni  Ni856  1  0.00000000  0.33333333  0.21254232  1.0
  Ni  Ni857  1  0.00000000  0.66666667  0.21254232  1.0
  Ni  Ni858  1  0.33333333  0.00000000  0.21254232  1.0
  Ni  Ni859  1  0.33333333  0.33333333  0.21254232  1.0
  Ni  Ni860  1  0.33333333  0.66666667  0.21254232  1.0
  Ni  Ni861  1  0.66666667  0.00000000  0.21254232  1.0
  Ni  Ni862  1  0.66666667  0.33333333  0.21254232  1.0
  Ni  Ni863  1  0.66666667  0.66666667  0.21254232  1.0
  Sn  Sn864  1  0.07679883  0.01306900  0.14460054  1.0
  Sn  Sn865  1  0.07679883  0.34640233  0.14460054  1.0
  Sn  Sn866  1  0.07679883  0.67973567  0.14460054  1.0
  Sn  Sn867  1  0.41013217  0.01306900  0.14460054  1.0
  Sn  Sn868  1  0.41013217  0.34640233  0.14460054  1.0
  Sn  Sn869  1  0.41013217  0.67973567  0.14460054  1.0
  Sn  Sn870  1  0.74346550  0.01306900  0.14460054  1.0
  Sn  Sn871  1  0.74346550  0.34640233  0.14460054  1.0
  Sn  Sn872  1  0.74346550  0.67973567  0.14460054  1.0
  Sn  Sn873  1  0.24346550  0.01306900  0.21602911  1.0
  Sn  Sn874  1  0.24346550  0.34640233  0.21602911  1.0
  Sn  Sn875  1  0.24346550  0.67973567  0.21602911  1.0
  Sn  Sn876  1  0.57679883  0.01306900  0.21602911  1.0
  Sn  Sn877  1  0.57679883  0.34640233  0.21602911  1.0
  Sn  Sn878  1  0.57679883  0.67973567  0.21602911  1.0
  Sn  Sn879  1  0.91013217  0.01306900  0.21602911  1.0
  Sn  Sn880  1  0.91013217  0.34640233  0.21602911  1.0
  Sn  Sn881  1  0.91013217  0.67973567  0.21602911  1.0
  Sn  Sn882  1  0.01504950  0.30323433  0.17431268  1.0
  Sn  Sn883  1  0.01504950  0.63656767  0.17431268  1.0
  Sn  Sn884  1  0.01504950  0.96990100  0.17431268  1.0
  Sn  Sn885  1  0.34838283  0.30323433  0.17431268  1.0
  Sn  Sn886  1  0.34838283  0.63656767  0.17431268  1.0
  Sn  Sn887  1  0.34838283  0.96990100  0.17431268  1.0
  Sn  Sn888  1  0.68171617  0.30323433  0.17431268  1.0
  Sn  Sn889  1  0.68171617  0.63656767  0.17431268  1.0
  Sn  Sn890  1  0.68171617  0.96990100  0.17431268  1.0
  Sn  Sn891  1  0.18171617  0.30323433  0.24574125  1.0
  Sn  Sn892  1  0.18171617  0.63656767  0.24574125  1.0
  Sn  Sn893  1  0.18171617  0.96990100  0.24574125  1.0
  Sn  Sn894  1  0.51504950  0.30323433  0.24574125  1.0
  Sn  Sn895  1  0.51504950  0.63656767  0.24574125  1.0
  Sn  Sn896  1  0.51504950  0.96990100  0.24574125  1.0
  Sn  Sn897  1  0.84838283  0.30323433  0.24574125  1.0
  Sn  Sn898  1  0.84838283  0.63656767  0.24574125  1.0
  Sn  Sn899  1  0.84838283  0.96990100  0.24574125  1.0
  Sn  Sn900  1  0.15161717  0.03009900  0.17934339  1.0
  Sn  Sn901  1  0.15161717  0.36343233  0.17934339  1.0
  Sn  Sn902  1  0.15161717  0.69676567  0.17934339  1.0
  Sn  Sn903  1  0.48495050  0.03009900  0.17934339  1.0
  Sn  Sn904  1  0.48495050  0.36343233  0.17934339  1.0
  Sn  Sn905  1  0.48495050  0.69676567  0.17934339  1.0
  Sn  Sn906  1  0.81828383  0.03009900  0.17934339  1.0
  Sn  Sn907  1  0.81828383  0.36343233  0.17934339  1.0
  Sn  Sn908  1  0.81828383  0.69676567  0.17934339  1.0
  Sn  Sn909  1  0.31828383  0.03009900  0.25077196  1.0
  Sn  Sn910  1  0.31828383  0.36343233  0.25077196  1.0
  Sn  Sn911  1  0.31828383  0.69676567  0.25077196  1.0
  Sn  Sn912  1  0.65161717  0.03009900  0.25077196  1.0
  Sn  Sn913  1  0.65161717  0.36343233  0.25077196  1.0
  Sn  Sn914  1  0.65161717  0.69676567  0.25077196  1.0
  Sn  Sn915  1  0.98495050  0.03009900  0.25077196  1.0
  Sn  Sn916  1  0.98495050  0.36343233  0.25077196  1.0
  Sn  Sn917  1  0.98495050  0.69676567  0.25077196  1.0
  Sn  Sn918  1  0.27680883  0.27971567  0.16546068  1.0
  Sn  Sn919  1  0.27680883  0.61304900  0.16546068  1.0
  Sn  Sn920  1  0.27680883  0.94638233  0.16546068  1.0
  Sn  Sn921  1  0.61014217  0.27971567  0.16546068  1.0
  Sn  Sn922  1  0.61014217  0.61304900  0.16546068  1.0
  Sn  Sn923  1  0.61014217  0.94638233  0.16546068  1.0
  Sn  Sn924  1  0.94347550  0.27971567  0.16546068  1.0
  Sn  Sn925  1  0.94347550  0.61304900  0.16546068  1.0
  Sn  Sn926  1  0.94347550  0.94638233  0.16546068  1.0
  Sn  Sn927  1  0.11014217  0.27971567  0.23688925  1.0
  Sn  Sn928  1  0.11014217  0.61304900  0.23688925  1.0
  Sn  Sn929  1  0.11014217  0.94638233  0.23688925  1.0
  Sn  Sn930  1  0.44347550  0.27971567  0.23688925  1.0
  Sn  Sn931  1  0.44347550  0.61304900  0.23688925  1.0
  Sn  Sn932  1  0.44347550  0.94638233  0.23688925  1.0
  Sn  Sn933  1  0.77680883  0.27971567  0.23688925  1.0
  Sn  Sn934  1  0.77680883  0.61304900  0.23688925  1.0
  Sn  Sn935  1  0.77680883  0.94638233  0.23688925  1.0
  Sn  Sn936  1  0.25653450  0.32026433  0.28048411  1.0
  Sn  Sn937  1  0.25653450  0.65359767  0.28048411  1.0
  Sn  Sn938  1  0.25653450  0.98693100  0.28048411  1.0
  Sn  Sn939  1  0.58986783  0.32026433  0.28048411  1.0
  Sn  Sn940  1  0.58986783  0.65359767  0.28048411  1.0
  Sn  Sn941  1  0.58986783  0.98693100  0.28048411  1.0
  Sn  Sn942  1  0.92320117  0.32026433  0.28048411  1.0
  Sn  Sn943  1  0.92320117  0.65359767  0.28048411  1.0
  Sn  Sn944  1  0.92320117  0.98693100  0.28048411  1.0
  Sn  Sn945  1  0.08986783  0.32026433  0.20905554  1.0
  Sn  Sn946  1  0.08986783  0.65359767  0.20905554  1.0
  Sn  Sn947  1  0.08986783  0.98693100  0.20905554  1.0
  Sn  Sn948  1  0.42320117  0.32026433  0.20905554  1.0
  Sn  Sn949  1  0.42320117  0.65359767  0.20905554  1.0
  Sn  Sn950  1  0.42320117  0.98693100  0.20905554  1.0
  Sn  Sn951  1  0.75653450  0.32026433  0.20905554  1.0
  Sn  Sn952  1  0.75653450  0.65359767  0.20905554  1.0
  Sn  Sn953  1  0.75653450  0.98693100  0.20905554  1.0
  Sn  Sn954  1  0.06828383  0.19676567  0.22292654  1.0
  Sn  Sn955  1  0.06828383  0.53009900  0.22292654  1.0
  Sn  Sn956  1  0.06828383  0.86343233  0.22292654  1.0
  Sn  Sn957  1  0.40161717  0.19676567  0.22292654  1.0
  Sn  Sn958  1  0.40161717  0.53009900  0.22292654  1.0
  Sn  Sn959  1  0.40161717  0.86343233  0.22292654  1.0
  Sn  Sn960  1  0.73495050  0.19676567  0.22292654  1.0
  Sn  Sn961  1  0.73495050  0.53009900  0.22292654  1.0
  Sn  Sn962  1  0.73495050  0.86343233  0.22292654  1.0
  Sn  Sn963  1  0.23495050  0.19676567  0.15149796  1.0
  Sn  Sn964  1  0.23495050  0.53009900  0.15149796  1.0
  Sn  Sn965  1  0.23495050  0.86343233  0.15149796  1.0
  Sn  Sn966  1  0.56828383  0.19676567  0.15149796  1.0
  Sn  Sn967  1  0.56828383  0.53009900  0.15149796  1.0
  Sn  Sn968  1  0.56828383  0.86343233  0.15149796  1.0
  Sn  Sn969  1  0.90161717  0.19676567  0.15149796  1.0
  Sn  Sn970  1  0.90161717  0.53009900  0.15149796  1.0
  Sn  Sn971  1  0.90161717  0.86343233  0.15149796  1.0
  Sn  Sn972  1  0.11833333  0.09666667  0.22569432  1.0
  Sn  Sn973  1  0.11833333  0.43000000  0.22569432  1.0
  Sn  Sn974  1  0.11833333  0.76333333  0.22569432  1.0
  Sn  Sn975  1  0.45166667  0.09666667  0.22569432  1.0
  Sn  Sn976  1  0.45166667  0.43000000  0.22569432  1.0
  Sn  Sn977  1  0.45166667  0.76333333  0.22569432  1.0
  Sn  Sn978  1  0.78500000  0.09666667  0.22569432  1.0
  Sn  Sn979  1  0.78500000  0.43000000  0.22569432  1.0
  Sn  Sn980  1  0.78500000  0.76333333  0.22569432  1.0
  Sn  Sn981  1  0.28500000  0.09666667  0.15426575  1.0
  Sn  Sn982  1  0.28500000  0.43000000  0.15426575  1.0
  Sn  Sn983  1  0.28500000  0.76333333  0.15426575  1.0
  Sn  Sn984  1  0.61833333  0.09666667  0.15426575  1.0
  Sn  Sn985  1  0.61833333  0.43000000  0.15426575  1.0
  Sn  Sn986  1  0.61833333  0.76333333  0.15426575  1.0
  Sn  Sn987  1  0.95166667  0.09666667  0.15426575  1.0
  Sn  Sn988  1  0.95166667  0.43000000  0.15426575  1.0
  Sn  Sn989  1  0.95166667  0.76333333  0.15426575  1.0
  Sn  Sn990  1  0.13166667  0.07000000  0.14855146  1.0
  Sn  Sn991  1  0.13166667  0.40333333  0.14855146  1.0
  Sn  Sn992  1  0.13166667  0.73666667  0.14855146  1.0
  Sn  Sn993  1  0.46500000  0.07000000  0.14855146  1.0
  Sn  Sn994  1  0.46500000  0.40333333  0.14855146  1.0
  Sn  Sn995  1  0.46500000  0.73666667  0.14855146  1.0
  Sn  Sn996  1  0.79833333  0.07000000  0.14855146  1.0
  Sn  Sn997  1  0.79833333  0.40333333  0.14855146  1.0
  Sn  Sn998  1  0.79833333  0.73666667  0.14855146  1.0
  Sn  Sn999  1  0.29833333  0.07000000  0.21998004  1.0
  Sn  Sn1000  1  0.29833333  0.40333333  0.21998004  1.0
  Sn  Sn1001  1  0.29833333  0.73666667  0.21998004  1.0
  Sn  Sn1002  1  0.63166667  0.07000000  0.21998004  1.0
  Sn  Sn1003  1  0.63166667  0.40333333  0.21998004  1.0
  Sn  Sn1004  1  0.63166667  0.73666667  0.21998004  1.0
  Sn  Sn1005  1  0.96500000  0.07000000  0.21998004  1.0
  Sn  Sn1006  1  0.96500000  0.40333333  0.21998004  1.0
  Sn  Sn1007  1  0.96500000  0.73666667  0.21998004  1.0
  Sn  Sn1008  1  0.03500000  0.26333333  0.20510461  1.0
  Sn  Sn1009  1  0.03500000  0.59666667  0.20510461  1.0
  Sn  Sn1010  1  0.03500000  0.93000000  0.20510461  1.0
  Sn  Sn1011  1  0.36833333  0.26333333  0.20510461  1.0
  Sn  Sn1012  1  0.36833333  0.59666667  0.20510461  1.0
  Sn  Sn1013  1  0.36833333  0.93000000  0.20510461  1.0
  Sn  Sn1014  1  0.70166667  0.26333333  0.20510461  1.0
  Sn  Sn1015  1  0.70166667  0.59666667  0.20510461  1.0
  Sn  Sn1016  1  0.70166667  0.93000000  0.20510461  1.0
  Sn  Sn1017  1  0.20166667  0.26333333  0.27653318  1.0
  Sn  Sn1018  1  0.20166667  0.59666667  0.27653318  1.0
  Sn  Sn1019  1  0.20166667  0.93000000  0.27653318  1.0
  Sn  Sn1020  1  0.53500000  0.26333333  0.27653318  1.0
  Sn  Sn1021  1  0.53500000  0.59666667  0.27653318  1.0
  Sn  Sn1022  1  0.53500000  0.93000000  0.27653318  1.0
  Sn  Sn1023  1  0.86833333  0.26333333  0.27653318  1.0
  Sn  Sn1024  1  0.86833333  0.59666667  0.27653318  1.0
  Sn  Sn1025  1  0.86833333  0.93000000  0.27653318  1.0
  Sn  Sn1026  1  0.32679883  0.17973567  0.17894225  1.0
  Sn  Sn1027  1  0.32679883  0.51306900  0.17894225  1.0
  Sn  Sn1028  1  0.32679883  0.84640233  0.17894225  1.0
  Sn  Sn1029  1  0.66013217  0.17973567  0.17894225  1.0
  Sn  Sn1030  1  0.66013217  0.51306900  0.17894225  1.0
  Sn  Sn1031  1  0.66013217  0.84640233  0.17894225  1.0
  Sn  Sn1032  1  0.99346550  0.17973567  0.17894225  1.0
  Sn  Sn1033  1  0.99346550  0.51306900  0.17894225  1.0
  Sn  Sn1034  1  0.99346550  0.84640233  0.17894225  1.0
  Sn  Sn1035  1  0.16013217  0.17973567  0.25037082  1.0
  Sn  Sn1036  1  0.16013217  0.51306900  0.25037082  1.0
  Sn  Sn1037  1  0.16013217  0.84640233  0.25037082  1.0
  Sn  Sn1038  1  0.49346550  0.17973567  0.25037082  1.0
  Sn  Sn1039  1  0.49346550  0.51306900  0.25037082  1.0
  Sn  Sn1040  1  0.49346550  0.84640233  0.25037082  1.0
  Sn  Sn1041  1  0.82679883  0.17973567  0.25037082  1.0
  Sn  Sn1042  1  0.82679883  0.51306900  0.25037082  1.0
  Sn  Sn1043  1  0.82679883  0.84640233  0.25037082  1.0
  Sn  Sn1044  1  0.09838283  0.13656767  0.27358668  1.0
  Sn  Sn1045  1  0.09838283  0.46990100  0.27358668  1.0
  Sn  Sn1046  1  0.09838283  0.80323433  0.27358668  1.0
  Sn  Sn1047  1  0.43171617  0.13656767  0.27358668  1.0
  Sn  Sn1048  1  0.43171617  0.46990100  0.27358668  1.0
  Sn  Sn1049  1  0.43171617  0.80323433  0.27358668  1.0
  Sn  Sn1050  1  0.76504950  0.13656767  0.27358668  1.0
  Sn  Sn1051  1  0.76504950  0.46990100  0.27358668  1.0
  Sn  Sn1052  1  0.76504950  0.80323433  0.27358668  1.0
  Sn  Sn1053  1  0.26504950  0.13656767  0.20215811  1.0
  Sn  Sn1054  1  0.26504950  0.46990100  0.20215811  1.0
  Sn  Sn1055  1  0.26504950  0.80323433  0.20215811  1.0
  Sn  Sn1056  1  0.59838283  0.13656767  0.20215811  1.0
  Sn  Sn1057  1  0.59838283  0.46990100  0.20215811  1.0
  Sn  Sn1058  1  0.59838283  0.80323433  0.20215811  1.0
  Sn  Sn1059  1  0.93171617  0.13656767  0.20215811  1.0
  Sn  Sn1060  1  0.93171617  0.46990100  0.20215811  1.0
  Sn  Sn1061  1  0.93171617  0.80323433  0.20215811  1.0
  Sn  Sn1062  1  0.00653450  0.15359767  0.24614239  1.0
  Sn  Sn1063  1  0.00653450  0.48693100  0.24614239  1.0
  Sn  Sn1064  1  0.00653450  0.82026433  0.24614239  1.0
  Sn  Sn1065  1  0.33986783  0.15359767  0.24614239  1.0
  Sn  Sn1066  1  0.33986783  0.48693100  0.24614239  1.0
  Sn  Sn1067  1  0.33986783  0.82026433  0.24614239  1.0
  Sn  Sn1068  1  0.67320117  0.15359767  0.24614239  1.0
  Sn  Sn1069  1  0.67320117  0.48693100  0.24614239  1.0
  Sn  Sn1070  1  0.67320117  0.82026433  0.24614239  1.0
  Sn  Sn1071  1  0.17320117  0.15359767  0.17471382  1.0
  Sn  Sn1072  1  0.17320117  0.48693100  0.17471382  1.0
  Sn  Sn1073  1  0.17320117  0.82026433  0.17471382  1.0
  Sn  Sn1074  1  0.50653450  0.15359767  0.17471382  1.0
  Sn  Sn1075  1  0.50653450  0.48693100  0.17471382  1.0
  Sn  Sn1076  1  0.50653450  0.82026433  0.17471382  1.0
  Sn  Sn1077  1  0.83986783  0.15359767  0.17471382  1.0
  Sn  Sn1078  1  0.83986783  0.48693100  0.17471382  1.0
  Sn  Sn1079  1  0.83986783  0.82026433  0.17471382  1.0
  Sn  Sn1080  1  0.04833333  0.23666667  0.27081889  1.0
  Sn  Sn1081  1  0.04833333  0.57000000  0.27081889  1.0
  Sn  Sn1082  1  0.04833333  0.90333333  0.27081889  1.0
  Sn  Sn1083  1  0.38166667  0.23666667  0.27081889  1.0
  Sn  Sn1084  1  0.38166667  0.57000000  0.27081889  1.0
  Sn  Sn1085  1  0.38166667  0.90333333  0.27081889  1.0
  Sn  Sn1086  1  0.71500000  0.23666667  0.27081889  1.0
  Sn  Sn1087  1  0.71500000  0.57000000  0.27081889  1.0
  Sn  Sn1088  1  0.71500000  0.90333333  0.27081889  1.0
  Sn  Sn1089  1  0.21500000  0.23666667  0.19939032  1.0
  Sn  Sn1090  1  0.21500000  0.57000000  0.19939032  1.0
  Sn  Sn1091  1  0.21500000  0.90333333  0.19939032  1.0
  Sn  Sn1092  1  0.54833333  0.23666667  0.19939032  1.0
  Sn  Sn1093  1  0.54833333  0.57000000  0.19939032  1.0
  Sn  Sn1094  1  0.54833333  0.90333333  0.19939032  1.0
  Sn  Sn1095  1  0.88166667  0.23666667  0.19939032  1.0
  Sn  Sn1096  1  0.88166667  0.57000000  0.19939032  1.0
  Sn  Sn1097  1  0.88166667  0.90333333  0.19939032  1.0
  Sn  Sn1098  1  0.30652450  0.22028433  0.22415396  1.0
  Sn  Sn1099  1  0.30652450  0.55361767  0.22415396  1.0
  Sn  Sn1100  1  0.30652450  0.88695100  0.22415396  1.0
  Sn  Sn1101  1  0.63985783  0.22028433  0.22415396  1.0
  Sn  Sn1102  1  0.63985783  0.55361767  0.22415396  1.0
  Sn  Sn1103  1  0.63985783  0.88695100  0.22415396  1.0
  Sn  Sn1104  1  0.97319117  0.22028433  0.22415396  1.0
  Sn  Sn1105  1  0.97319117  0.55361767  0.22415396  1.0
  Sn  Sn1106  1  0.97319117  0.88695100  0.22415396  1.0
  Sn  Sn1107  1  0.13985783  0.22028433  0.15272539  1.0
  Sn  Sn1108  1  0.13985783  0.55361767  0.15272539  1.0
  Sn  Sn1109  1  0.13985783  0.88695100  0.15272539  1.0
  Sn  Sn1110  1  0.47319117  0.22028433  0.15272539  1.0
  Sn  Sn1111  1  0.47319117  0.55361767  0.15272539  1.0
  Sn  Sn1112  1  0.47319117  0.88695100  0.15272539  1.0
  Sn  Sn1113  1  0.80652450  0.22028433  0.15272539  1.0
  Sn  Sn1114  1  0.80652450  0.55361767  0.15272539  1.0
  Sn  Sn1115  1  0.80652450  0.88695100  0.15272539  1.0
  Sn  Sn1116  1  0.05652450  0.05361767  0.25962396  1.0
  Sn  Sn1117  1  0.05652450  0.38695100  0.25962396  1.0
  Sn  Sn1118  1  0.05652450  0.72028433  0.25962396  1.0
  Sn  Sn1119  1  0.38985783  0.05361767  0.25962396  1.0
  Sn  Sn1120  1  0.38985783  0.38695100  0.25962396  1.0
  Sn  Sn1121  1  0.38985783  0.72028433  0.25962396  1.0
  Sn  Sn1122  1  0.72319117  0.05361767  0.25962396  1.0
  Sn  Sn1123  1  0.72319117  0.38695100  0.25962396  1.0
  Sn  Sn1124  1  0.72319117  0.72028433  0.25962396  1.0
  Sn  Sn1125  1  0.22319117  0.05361767  0.18819539  1.0
  Sn  Sn1126  1  0.22319117  0.38695100  0.18819539  1.0
  Sn  Sn1127  1  0.22319117  0.72028433  0.18819539  1.0
  Sn  Sn1128  1  0.55652450  0.05361767  0.18819539  1.0
  Sn  Sn1129  1  0.55652450  0.38695100  0.18819539  1.0
  Sn  Sn1130  1  0.55652450  0.72028433  0.18819539  1.0
  Sn  Sn1131  1  0.88985783  0.05361767  0.18819539  1.0
  Sn  Sn1132  1  0.88985783  0.38695100  0.18819539  1.0
  Sn  Sn1133  1  0.88985783  0.72028433  0.18819539  1.0
  Sn  Sn1134  1  0.02680883  0.11304900  0.20093068  1.0
  Sn  Sn1135  1  0.02680883  0.44638233  0.20093068  1.0
  Sn  Sn1136  1  0.02680883  0.77971567  0.20093068  1.0
  Sn  Sn1137  1  0.36014217  0.11304900  0.20093068  1.0
  Sn  Sn1138  1  0.36014217  0.44638233  0.20093068  1.0
  Sn  Sn1139  1  0.36014217  0.77971567  0.20093068  1.0
  Sn  Sn1140  1  0.69347550  0.11304900  0.20093068  1.0
  Sn  Sn1141  1  0.69347550  0.44638233  0.20093068  1.0
  Sn  Sn1142  1  0.69347550  0.77971567  0.20093068  1.0
  Sn  Sn1143  1  0.19347550  0.11304900  0.27235925  1.0
  Sn  Sn1144  1  0.19347550  0.44638233  0.27235925  1.0
  Sn  Sn1145  1  0.19347550  0.77971567  0.27235925  1.0
  Sn  Sn1146  1  0.52680883  0.11304900  0.27235925  1.0
  Sn  Sn1147  1  0.52680883  0.44638233  0.27235925  1.0
  Sn  Sn1148  1  0.52680883  0.77971567  0.27235925  1.0
  Sn  Sn1149  1  0.86014217  0.11304900  0.27235925  1.0
  Sn  Sn1150  1  0.86014217  0.44638233  0.27235925  1.0
  Sn  Sn1151  1  0.86014217  0.77971567  0.27235925  1.0
  Ni  Ni1152  1  0.10100583  0.13132167  0.34309682  1.0
  Ni  Ni1153  1  0.10100583  0.46465500  0.34309682  1.0
  Ni  Ni1154  1  0.10100583  0.79798833  0.34309682  1.0
  Ni  Ni1155  1  0.43433917  0.13132167  0.34309682  1.0
  Ni  Ni1156  1  0.43433917  0.46465500  0.34309682  1.0
  Ni  Ni1157  1  0.43433917  0.79798833  0.34309682  1.0
  Ni  Ni1158  1  0.76767250  0.13132167  0.34309682  1.0
  Ni  Ni1159  1  0.76767250  0.46465500  0.34309682  1.0
  Ni  Ni1160  1  0.76767250  0.79798833  0.34309682  1.0
  Ni  Ni1161  1  0.26767250  0.13132167  0.41452539  1.0
  Ni  Ni1162  1  0.26767250  0.46465500  0.41452539  1.0
  Ni  Ni1163  1  0.26767250  0.79798833  0.41452539  1.0
  Ni  Ni1164  1  0.60100583  0.13132167  0.41452539  1.0
  Ni  Ni1165  1  0.60100583  0.46465500  0.41452539  1.0
  Ni  Ni1166  1  0.60100583  0.79798833  0.41452539  1.0
  Ni  Ni1167  1  0.93433917  0.13132167  0.41452539  1.0
  Ni  Ni1168  1  0.93433917  0.46465500  0.41452539  1.0
  Ni  Ni1169  1  0.93433917  0.79798833  0.41452539  1.0
  Ni  Ni1170  1  0.14899417  0.03534500  0.39395896  1.0
  Ni  Ni1171  1  0.14899417  0.36867833  0.39395896  1.0
  Ni  Ni1172  1  0.14899417  0.70201167  0.39395896  1.0
  Ni  Ni1173  1  0.48232750  0.03534500  0.39395896  1.0
  Ni  Ni1174  1  0.48232750  0.36867833  0.39395896  1.0
  Ni  Ni1175  1  0.48232750  0.70201167  0.39395896  1.0
  Ni  Ni1176  1  0.81566083  0.03534500  0.39395896  1.0
  Ni  Ni1177  1  0.81566083  0.36867833  0.39395896  1.0
  Ni  Ni1178  1  0.81566083  0.70201167  0.39395896  1.0
  Ni  Ni1179  1  0.31566083  0.03534500  0.32253039  1.0
  Ni  Ni1180  1  0.31566083  0.36867833  0.32253039  1.0
  Ni  Ni1181  1  0.31566083  0.70201167  0.32253039  1.0
  Ni  Ni1182  1  0.64899417  0.03534500  0.32253039  1.0
  Ni  Ni1183  1  0.64899417  0.36867833  0.32253039  1.0
  Ni  Ni1184  1  0.64899417  0.70201167  0.32253039  1.0
  Ni  Ni1185  1  0.98232750  0.03534500  0.32253039  1.0
  Ni  Ni1186  1  0.98232750  0.36867833  0.32253039  1.0
  Ni  Ni1187  1  0.98232750  0.70201167  0.32253039  1.0
  Ni  Ni1188  1  0.04075650  0.08515367  0.29693768  1.0
  Ni  Ni1189  1  0.04075650  0.41848700  0.29693768  1.0
  Ni  Ni1190  1  0.04075650  0.75182033  0.29693768  1.0
  Ni  Ni1191  1  0.37408983  0.08515367  0.29693768  1.0
  Ni  Ni1192  1  0.37408983  0.41848700  0.29693768  1.0
  Ni  Ni1193  1  0.37408983  0.75182033  0.29693768  1.0
  Ni  Ni1194  1  0.70742317  0.08515367  0.29693768  1.0
  Ni  Ni1195  1  0.70742317  0.41848700  0.29693768  1.0
  Ni  Ni1196  1  0.70742317  0.75182033  0.29693768  1.0
  Ni  Ni1197  1  0.20742317  0.08515367  0.36836625  1.0
  Ni  Ni1198  1  0.20742317  0.41848700  0.36836625  1.0
  Ni  Ni1199  1  0.20742317  0.75182033  0.36836625  1.0
  Ni  Ni1200  1  0.54075650  0.08515367  0.36836625  1.0
  Ni  Ni1201  1  0.54075650  0.41848700  0.36836625  1.0
  Ni  Ni1202  1  0.54075650  0.75182033  0.36836625  1.0
  Ni  Ni1203  1  0.87408983  0.08515367  0.36836625  1.0
  Ni  Ni1204  1  0.87408983  0.41848700  0.36836625  1.0
  Ni  Ni1205  1  0.87408983  0.75182033  0.36836625  1.0
  Ni  Ni1206  1  0.30986750  0.21359833  0.29441796  1.0
  Ni  Ni1207  1  0.30986750  0.54693167  0.29441796  1.0
  Ni  Ni1208  1  0.30986750  0.88026500  0.29441796  1.0
  Ni  Ni1209  1  0.64320083  0.21359833  0.29441796  1.0
  Ni  Ni1210  1  0.64320083  0.54693167  0.29441796  1.0
  Ni  Ni1211  1  0.64320083  0.88026500  0.29441796  1.0
  Ni  Ni1212  1  0.97653417  0.21359833  0.29441796  1.0
  Ni  Ni1213  1  0.97653417  0.54693167  0.29441796  1.0
  Ni  Ni1214  1  0.97653417  0.88026500  0.29441796  1.0
  Ni  Ni1215  1  0.14320083  0.21359833  0.36584654  1.0
  Ni  Ni1216  1  0.14320083  0.54693167  0.36584654  1.0
  Ni  Ni1217  1  0.14320083  0.88026500  0.36584654  1.0
  Ni  Ni1218  1  0.47653417  0.21359833  0.36584654  1.0
  Ni  Ni1219  1  0.47653417  0.54693167  0.36584654  1.0
  Ni  Ni1220  1  0.47653417  0.88026500  0.36584654  1.0
  Ni  Ni1221  1  0.80986750  0.21359833  0.36584654  1.0
  Ni  Ni1222  1  0.80986750  0.54693167  0.36584654  1.0
  Ni  Ni1223  1  0.80986750  0.88026500  0.36584654  1.0
  Ni  Ni1224  1  0.27346583  0.28640167  0.38144725  1.0
  Ni  Ni1225  1  0.27346583  0.61973500  0.38144725  1.0
  Ni  Ni1226  1  0.27346583  0.95306833  0.38144725  1.0
  Ni  Ni1227  1  0.60679917  0.28640167  0.38144725  1.0
  Ni  Ni1228  1  0.60679917  0.61973500  0.38144725  1.0
  Ni  Ni1229  1  0.60679917  0.95306833  0.38144725  1.0
  Ni  Ni1230  1  0.94013250  0.28640167  0.38144725  1.0
  Ni  Ni1231  1  0.94013250  0.61973500  0.38144725  1.0
  Ni  Ni1232  1  0.94013250  0.95306833  0.38144725  1.0
  Ni  Ni1233  1  0.10679917  0.28640167  0.31001868  1.0
  Ni  Ni1234  1  0.10679917  0.61973500  0.31001868  1.0
  Ni  Ni1235  1  0.10679917  0.95306833  0.31001868  1.0
  Ni  Ni1236  1  0.44013250  0.28640167  0.31001868  1.0
  Ni  Ni1237  1  0.44013250  0.61973500  0.31001868  1.0
  Ni  Ni1238  1  0.44013250  0.95306833  0.31001868  1.0
  Ni  Ni1239  1  0.77346583  0.28640167  0.31001868  1.0
  Ni  Ni1240  1  0.77346583  0.61973500  0.31001868  1.0
  Ni  Ni1241  1  0.77346583  0.95306833  0.31001868  1.0
  Ni  Ni1242  1  0.29075650  0.25182033  0.34321282  1.0
  Ni  Ni1243  1  0.29075650  0.58515367  0.34321282  1.0
  Ni  Ni1244  1  0.29075650  0.91848700  0.34321282  1.0
  Ni  Ni1245  1  0.62408983  0.25182033  0.34321282  1.0
  Ni  Ni1246  1  0.62408983  0.58515367  0.34321282  1.0
  Ni  Ni1247  1  0.62408983  0.91848700  0.34321282  1.0
  Ni  Ni1248  1  0.95742317  0.25182033  0.34321282  1.0
  Ni  Ni1249  1  0.95742317  0.58515367  0.34321282  1.0
  Ni  Ni1250  1  0.95742317  0.91848700  0.34321282  1.0
  Ni  Ni1251  1  0.12408983  0.25182033  0.41464139  1.0
  Ni  Ni1252  1  0.12408983  0.58515367  0.41464139  1.0
  Ni  Ni1253  1  0.12408983  0.91848700  0.41464139  1.0
  Ni  Ni1254  1  0.45742317  0.25182033  0.41464139  1.0
  Ni  Ni1255  1  0.45742317  0.58515367  0.41464139  1.0
  Ni  Ni1256  1  0.45742317  0.91848700  0.41464139  1.0
  Ni  Ni1257  1  0.79075650  0.25182033  0.41464139  1.0
  Ni  Ni1258  1  0.79075650  0.58515367  0.41464139  1.0
  Ni  Ni1259  1  0.79075650  0.91848700  0.41464139  1.0
  Ni  Ni1260  1  0.08333333  0.16666667  0.39111375  1.0
  Ni  Ni1261  1  0.08333333  0.50000000  0.39111375  1.0
  Ni  Ni1262  1  0.08333333  0.83333333  0.39111375  1.0
  Ni  Ni1263  1  0.41666667  0.16666667  0.39111375  1.0
  Ni  Ni1264  1  0.41666667  0.50000000  0.39111375  1.0
  Ni  Ni1265  1  0.41666667  0.83333333  0.39111375  1.0
  Ni  Ni1266  1  0.75000000  0.16666667  0.39111375  1.0
  Ni  Ni1267  1  0.75000000  0.50000000  0.39111375  1.0
  Ni  Ni1268  1  0.75000000  0.83333333  0.39111375  1.0
  Ni  Ni1269  1  0.25000000  0.16666667  0.31968518  1.0
  Ni  Ni1270  1  0.25000000  0.50000000  0.31968518  1.0
  Ni  Ni1271  1  0.25000000  0.83333333  0.31968518  1.0
  Ni  Ni1272  1  0.58333333  0.16666667  0.31968518  1.0
  Ni  Ni1273  1  0.58333333  0.50000000  0.31968518  1.0
  Ni  Ni1274  1  0.58333333  0.83333333  0.31968518  1.0
  Ni  Ni1275  1  0.91666667  0.16666667  0.31968518  1.0
  Ni  Ni1276  1  0.91666667  0.50000000  0.31968518  1.0
  Ni  Ni1277  1  0.91666667  0.83333333  0.31968518  1.0
  Ni  Ni1278  1  0.02346583  0.11973500  0.41638096  1.0
  Ni  Ni1279  1  0.02346583  0.45306833  0.41638096  1.0
  Ni  Ni1280  1  0.02346583  0.78640167  0.41638096  1.0
  Ni  Ni1281  1  0.35679917  0.11973500  0.41638096  1.0
  Ni  Ni1282  1  0.35679917  0.45306833  0.41638096  1.0
  Ni  Ni1283  1  0.35679917  0.78640167  0.41638096  1.0
  Ni  Ni1284  1  0.69013250  0.11973500  0.41638096  1.0
  Ni  Ni1285  1  0.69013250  0.45306833  0.41638096  1.0
  Ni  Ni1286  1  0.69013250  0.78640167  0.41638096  1.0
  Ni  Ni1287  1  0.19013250  0.11973500  0.34495239  1.0
  Ni  Ni1288  1  0.19013250  0.45306833  0.34495239  1.0
  Ni  Ni1289  1  0.19013250  0.78640167  0.34495239  1.0
  Ni  Ni1290  1  0.52346583  0.11973500  0.34495239  1.0
  Ni  Ni1291  1  0.52346583  0.45306833  0.34495239  1.0
  Ni  Ni1292  1  0.52346583  0.78640167  0.34495239  1.0
  Ni  Ni1293  1  0.85679917  0.11973500  0.34495239  1.0
  Ni  Ni1294  1  0.85679917  0.45306833  0.34495239  1.0
  Ni  Ni1295  1  0.85679917  0.78640167  0.34495239  1.0
  Ni  Ni1296  1  0.29257683  0.24817967  0.41386125  1.0
  Ni  Ni1297  1  0.29257683  0.58151300  0.41386125  1.0
  Ni  Ni1298  1  0.29257683  0.91484633  0.41386125  1.0
  Ni  Ni1299  1  0.62591017  0.24817967  0.41386125  1.0
  Ni  Ni1300  1  0.62591017  0.58151300  0.41386125  1.0
  Ni  Ni1301  1  0.62591017  0.91484633  0.41386125  1.0
  Ni  Ni1302  1  0.95924350  0.24817967  0.41386125  1.0
  Ni  Ni1303  1  0.95924350  0.58151300  0.41386125  1.0
  Ni  Ni1304  1  0.95924350  0.91484633  0.41386125  1.0
  Ni  Ni1305  1  0.12591017  0.24817967  0.34243268  1.0
  Ni  Ni1306  1  0.12591017  0.58151300  0.34243268  1.0
  Ni  Ni1307  1  0.12591017  0.91484633  0.34243268  1.0
  Ni  Ni1308  1  0.45924350  0.24817967  0.34243268  1.0
  Ni  Ni1309  1  0.45924350  0.58151300  0.34243268  1.0
  Ni  Ni1310  1  0.45924350  0.91484633  0.34243268  1.0
  Ni  Ni1311  1  0.79257683  0.24817967  0.34243268  1.0
  Ni  Ni1312  1  0.79257683  0.58151300  0.34243268  1.0
  Ni  Ni1313  1  0.79257683  0.91484633  0.34243268  1.0
  Ni  Ni1314  1  0.01767250  0.29798833  0.38826854  1.0
  Ni  Ni1315  1  0.01767250  0.63132167  0.38826854  1.0
  Ni  Ni1316  1  0.01767250  0.96465500  0.38826854  1.0
  Ni  Ni1317  1  0.35100583  0.29798833  0.38826854  1.0
  Ni  Ni1318  1  0.35100583  0.63132167  0.38826854  1.0
  Ni  Ni1319  1  0.35100583  0.96465500  0.38826854  1.0
  Ni  Ni1320  1  0.68433917  0.29798833  0.38826854  1.0
  Ni  Ni1321  1  0.68433917  0.63132167  0.38826854  1.0
  Ni  Ni1322  1  0.68433917  0.96465500  0.38826854  1.0
  Ni  Ni1323  1  0.18433917  0.29798833  0.31683996  1.0
  Ni  Ni1324  1  0.18433917  0.63132167  0.31683996  1.0
  Ni  Ni1325  1  0.18433917  0.96465500  0.31683996  1.0
  Ni  Ni1326  1  0.51767250  0.29798833  0.31683996  1.0
  Ni  Ni1327  1  0.51767250  0.63132167  0.31683996  1.0
  Ni  Ni1328  1  0.51767250  0.96465500  0.31683996  1.0
  Ni  Ni1329  1  0.85100583  0.29798833  0.31683996  1.0
  Ni  Ni1330  1  0.85100583  0.63132167  0.31683996  1.0
  Ni  Ni1331  1  0.85100583  0.96465500  0.31683996  1.0
  Ni  Ni1332  1  0.04257683  0.08151300  0.36758611  1.0
  Ni  Ni1333  1  0.04257683  0.41484633  0.36758611  1.0
  Ni  Ni1334  1  0.04257683  0.74817967  0.36758611  1.0
  Ni  Ni1335  1  0.37591017  0.08151300  0.36758611  1.0
  Ni  Ni1336  1  0.37591017  0.41484633  0.36758611  1.0
  Ni  Ni1337  1  0.37591017  0.74817967  0.36758611  1.0
  Ni  Ni1338  1  0.70924350  0.08151300  0.36758611  1.0
  Ni  Ni1339  1  0.70924350  0.41484633  0.36758611  1.0
  Ni  Ni1340  1  0.70924350  0.74817967  0.36758611  1.0
  Ni  Ni1341  1  0.20924350  0.08151300  0.29615754  1.0
  Ni  Ni1342  1  0.20924350  0.41484633  0.29615754  1.0
  Ni  Ni1343  1  0.20924350  0.74817967  0.29615754  1.0
  Ni  Ni1344  1  0.54257683  0.08151300  0.29615754  1.0
  Ni  Ni1345  1  0.54257683  0.41484633  0.29615754  1.0
  Ni  Ni1346  1  0.54257683  0.74817967  0.29615754  1.0
  Ni  Ni1347  1  0.87591017  0.08151300  0.29615754  1.0
  Ni  Ni1348  1  0.87591017  0.41484633  0.29615754  1.0
  Ni  Ni1349  1  0.87591017  0.74817967  0.29615754  1.0
  Ni  Ni1350  1  0.06566083  0.20201167  0.29627354  1.0
  Ni  Ni1351  1  0.06566083  0.53534500  0.29627354  1.0
  Ni  Ni1352  1  0.06566083  0.86867833  0.29627354  1.0
  Ni  Ni1353  1  0.39899417  0.20201167  0.29627354  1.0
  Ni  Ni1354  1  0.39899417  0.53534500  0.29627354  1.0
  Ni  Ni1355  1  0.39899417  0.86867833  0.29627354  1.0
  Ni  Ni1356  1  0.73232750  0.20201167  0.29627354  1.0
  Ni  Ni1357  1  0.73232750  0.53534500  0.29627354  1.0
  Ni  Ni1358  1  0.73232750  0.86867833  0.29627354  1.0
  Ni  Ni1359  1  0.23232750  0.20201167  0.36770211  1.0
  Ni  Ni1360  1  0.23232750  0.53534500  0.36770211  1.0
  Ni  Ni1361  1  0.23232750  0.86867833  0.36770211  1.0
  Ni  Ni1362  1  0.56566083  0.20201167  0.36770211  1.0
  Ni  Ni1363  1  0.56566083  0.53534500  0.36770211  1.0
  Ni  Ni1364  1  0.56566083  0.86867833  0.36770211  1.0
  Ni  Ni1365  1  0.89899417  0.20201167  0.36770211  1.0
  Ni  Ni1366  1  0.89899417  0.53534500  0.36770211  1.0
  Ni  Ni1367  1  0.89899417  0.86867833  0.36770211  1.0
  Ni  Ni1368  1  0.05986750  0.04693167  0.32935168  1.0
  Ni  Ni1369  1  0.05986750  0.38026500  0.32935168  1.0
  Ni  Ni1370  1  0.05986750  0.71359833  0.32935168  1.0
  Ni  Ni1371  1  0.39320083  0.04693167  0.32935168  1.0
  Ni  Ni1372  1  0.39320083  0.38026500  0.32935168  1.0
  Ni  Ni1373  1  0.39320083  0.71359833  0.32935168  1.0
  Ni  Ni1374  1  0.72653417  0.04693167  0.32935168  1.0
  Ni  Ni1375  1  0.72653417  0.38026500  0.32935168  1.0
  Ni  Ni1376  1  0.72653417  0.71359833  0.32935168  1.0
  Ni  Ni1377  1  0.22653417  0.04693167  0.40078025  1.0
  Ni  Ni1378  1  0.22653417  0.38026500  0.40078025  1.0
  Ni  Ni1379  1  0.22653417  0.71359833  0.40078025  1.0
  Ni  Ni1380  1  0.55986750  0.04693167  0.40078025  1.0
  Ni  Ni1381  1  0.55986750  0.38026500  0.40078025  1.0
  Ni  Ni1382  1  0.55986750  0.71359833  0.40078025  1.0
  Ni  Ni1383  1  0.89320083  0.04693167  0.40078025  1.0
  Ni  Ni1384  1  0.89320083  0.38026500  0.40078025  1.0
  Ni  Ni1385  1  0.89320083  0.71359833  0.40078025  1.0
  Ni  Ni1386  1  0.16666667  0.00000000  0.35539946  1.0
  Ni  Ni1387  1  0.16666667  0.33333333  0.35539946  1.0
  Ni  Ni1388  1  0.16666667  0.66666667  0.35539946  1.0
  Ni  Ni1389  1  0.50000000  0.00000000  0.35539946  1.0
  Ni  Ni1390  1  0.50000000  0.33333333  0.35539946  1.0
  Ni  Ni1391  1  0.50000000  0.66666667  0.35539946  1.0
  Ni  Ni1392  1  0.83333333  0.00000000  0.35539946  1.0
  Ni  Ni1393  1  0.83333333  0.33333333  0.35539946  1.0
  Ni  Ni1394  1  0.83333333  0.66666667  0.35539946  1.0
  Ni  Ni1395  1  0.00000000  0.00000000  0.42682804  1.0
  Ni  Ni1396  1  0.00000000  0.33333333  0.42682804  1.0
  Ni  Ni1397  1  0.00000000  0.66666667  0.42682804  1.0
  Ni  Ni1398  1  0.33333333  0.00000000  0.42682804  1.0
  Ni  Ni1399  1  0.33333333  0.33333333  0.42682804  1.0
  Ni  Ni1400  1  0.33333333  0.66666667  0.42682804  1.0
  Ni  Ni1401  1  0.66666667  0.00000000  0.42682804  1.0
  Ni  Ni1402  1  0.66666667  0.33333333  0.42682804  1.0
  Ni  Ni1403  1  0.66666667  0.66666667  0.42682804  1.0
  Ni  Ni1404  1  0.08333333  0.16666667  0.31968518  1.0
  Ni  Ni1405  1  0.08333333  0.50000000  0.31968518  1.0
  Ni  Ni1406  1  0.08333333  0.83333333  0.31968518  1.0
  Ni  Ni1407  1  0.41666667  0.16666667  0.31968518  1.0
  Ni  Ni1408  1  0.41666667  0.50000000  0.31968518  1.0
  Ni  Ni1409  1  0.41666667  0.83333333  0.31968518  1.0
  Ni  Ni1410  1  0.75000000  0.16666667  0.31968518  1.0
  Ni  Ni1411  1  0.75000000  0.50000000  0.31968518  1.0
  Ni  Ni1412  1  0.75000000  0.83333333  0.31968518  1.0
  Ni  Ni1413  1  0.25000000  0.16666667  0.39111375  1.0
  Ni  Ni1414  1  0.25000000  0.50000000  0.39111375  1.0
  Ni  Ni1415  1  0.25000000  0.83333333  0.39111375  1.0
  Ni  Ni1416  1  0.58333333  0.16666667  0.39111375  1.0
  Ni  Ni1417  1  0.58333333  0.50000000  0.39111375  1.0
  Ni  Ni1418  1  0.58333333  0.83333333  0.39111375  1.0
  Ni  Ni1419  1  0.91666667  0.16666667  0.39111375  1.0
  Ni  Ni1420  1  0.91666667  0.50000000  0.39111375  1.0
  Ni  Ni1421  1  0.91666667  0.83333333  0.39111375  1.0
  Ni  Ni1422  1  0.16666667  0.00000000  0.42682804  1.0
  Ni  Ni1423  1  0.16666667  0.33333333  0.42682804  1.0
  Ni  Ni1424  1  0.16666667  0.66666667  0.42682804  1.0
  Ni  Ni1425  1  0.50000000  0.00000000  0.42682804  1.0
  Ni  Ni1426  1  0.50000000  0.33333333  0.42682804  1.0
  Ni  Ni1427  1  0.50000000  0.66666667  0.42682804  1.0
  Ni  Ni1428  1  0.83333333  0.00000000  0.42682804  1.0
  Ni  Ni1429  1  0.83333333  0.33333333  0.42682804  1.0
  Ni  Ni1430  1  0.83333333  0.66666667  0.42682804  1.0
  Ni  Ni1431  1  0.00000000  0.00000000  0.35539946  1.0
  Ni  Ni1432  1  0.00000000  0.33333333  0.35539946  1.0
  Ni  Ni1433  1  0.00000000  0.66666667  0.35539946  1.0
  Ni  Ni1434  1  0.33333333  0.00000000  0.35539946  1.0
  Ni  Ni1435  1  0.33333333  0.33333333  0.35539946  1.0
  Ni  Ni1436  1  0.33333333  0.66666667  0.35539946  1.0
  Ni  Ni1437  1  0.66666667  0.00000000  0.35539946  1.0
  Ni  Ni1438  1  0.66666667  0.33333333  0.35539946  1.0
  Ni  Ni1439  1  0.66666667  0.66666667  0.35539946  1.0
  Sn  Sn1440  1  0.07679883  0.01306900  0.28745768  1.0
  Sn  Sn1441  1  0.07679883  0.34640233  0.28745768  1.0
  Sn  Sn1442  1  0.07679883  0.67973567  0.28745768  1.0
  Sn  Sn1443  1  0.41013217  0.01306900  0.28745768  1.0
  Sn  Sn1444  1  0.41013217  0.34640233  0.28745768  1.0
  Sn  Sn1445  1  0.41013217  0.67973567  0.28745768  1.0
  Sn  Sn1446  1  0.74346550  0.01306900  0.28745768  1.0
  Sn  Sn1447  1  0.74346550  0.34640233  0.28745768  1.0
  Sn  Sn1448  1  0.74346550  0.67973567  0.28745768  1.0
  Sn  Sn1449  1  0.24346550  0.01306900  0.35888625  1.0
  Sn  Sn1450  1  0.24346550  0.34640233  0.35888625  1.0
  Sn  Sn1451  1  0.24346550  0.67973567  0.35888625  1.0
  Sn  Sn1452  1  0.57679883  0.01306900  0.35888625  1.0
  Sn  Sn1453  1  0.57679883  0.34640233  0.35888625  1.0
  Sn  Sn1454  1  0.57679883  0.67973567  0.35888625  1.0
  Sn  Sn1455  1  0.91013217  0.01306900  0.35888625  1.0
  Sn  Sn1456  1  0.91013217  0.34640233  0.35888625  1.0
  Sn  Sn1457  1  0.91013217  0.67973567  0.35888625  1.0
  Sn  Sn1458  1  0.01504950  0.30323433  0.31716982  1.0
  Sn  Sn1459  1  0.01504950  0.63656767  0.31716982  1.0
  Sn  Sn1460  1  0.01504950  0.96990100  0.31716982  1.0
  Sn  Sn1461  1  0.34838283  0.30323433  0.31716982  1.0
  Sn  Sn1462  1  0.34838283  0.63656767  0.31716982  1.0
  Sn  Sn1463  1  0.34838283  0.96990100  0.31716982  1.0
  Sn  Sn1464  1  0.68171617  0.30323433  0.31716982  1.0
  Sn  Sn1465  1  0.68171617  0.63656767  0.31716982  1.0
  Sn  Sn1466  1  0.68171617  0.96990100  0.31716982  1.0
  Sn  Sn1467  1  0.18171617  0.30323433  0.38859839  1.0
  Sn  Sn1468  1  0.18171617  0.63656767  0.38859839  1.0
  Sn  Sn1469  1  0.18171617  0.96990100  0.38859839  1.0
  Sn  Sn1470  1  0.51504950  0.30323433  0.38859839  1.0
  Sn  Sn1471  1  0.51504950  0.63656767  0.38859839  1.0
  Sn  Sn1472  1  0.51504950  0.96990100  0.38859839  1.0
  Sn  Sn1473  1  0.84838283  0.30323433  0.38859839  1.0
  Sn  Sn1474  1  0.84838283  0.63656767  0.38859839  1.0
  Sn  Sn1475  1  0.84838283  0.96990100  0.38859839  1.0
  Sn  Sn1476  1  0.15161717  0.03009900  0.32220054  1.0
  Sn  Sn1477  1  0.15161717  0.36343233  0.32220054  1.0
  Sn  Sn1478  1  0.15161717  0.69676567  0.32220054  1.0
  Sn  Sn1479  1  0.48495050  0.03009900  0.32220054  1.0
  Sn  Sn1480  1  0.48495050  0.36343233  0.32220054  1.0
  Sn  Sn1481  1  0.48495050  0.69676567  0.32220054  1.0
  Sn  Sn1482  1  0.81828383  0.03009900  0.32220054  1.0
  Sn  Sn1483  1  0.81828383  0.36343233  0.32220054  1.0
  Sn  Sn1484  1  0.81828383  0.69676567  0.32220054  1.0
  Sn  Sn1485  1  0.31828383  0.03009900  0.39362911  1.0
  Sn  Sn1486  1  0.31828383  0.36343233  0.39362911  1.0
  Sn  Sn1487  1  0.31828383  0.69676567  0.39362911  1.0
  Sn  Sn1488  1  0.65161717  0.03009900  0.39362911  1.0
  Sn  Sn1489  1  0.65161717  0.36343233  0.39362911  1.0
  Sn  Sn1490  1  0.65161717  0.69676567  0.39362911  1.0
  Sn  Sn1491  1  0.98495050  0.03009900  0.39362911  1.0
  Sn  Sn1492  1  0.98495050  0.36343233  0.39362911  1.0
  Sn  Sn1493  1  0.98495050  0.69676567  0.39362911  1.0
  Sn  Sn1494  1  0.27680883  0.27971567  0.30831782  1.0
  Sn  Sn1495  1  0.27680883  0.61304900  0.30831782  1.0
  Sn  Sn1496  1  0.27680883  0.94638233  0.30831782  1.0
  Sn  Sn1497  1  0.61014217  0.27971567  0.30831782  1.0
  Sn  Sn1498  1  0.61014217  0.61304900  0.30831782  1.0
  Sn  Sn1499  1  0.61014217  0.94638233  0.30831782  1.0
  Sn  Sn1500  1  0.94347550  0.27971567  0.30831782  1.0
  Sn  Sn1501  1  0.94347550  0.61304900  0.30831782  1.0
  Sn  Sn1502  1  0.94347550  0.94638233  0.30831782  1.0
  Sn  Sn1503  1  0.11014217  0.27971567  0.37974639  1.0
  Sn  Sn1504  1  0.11014217  0.61304900  0.37974639  1.0
  Sn  Sn1505  1  0.11014217  0.94638233  0.37974639  1.0
  Sn  Sn1506  1  0.44347550  0.27971567  0.37974639  1.0
  Sn  Sn1507  1  0.44347550  0.61304900  0.37974639  1.0
  Sn  Sn1508  1  0.44347550  0.94638233  0.37974639  1.0
  Sn  Sn1509  1  0.77680883  0.27971567  0.37974639  1.0
  Sn  Sn1510  1  0.77680883  0.61304900  0.37974639  1.0
  Sn  Sn1511  1  0.77680883  0.94638233  0.37974639  1.0
  Sn  Sn1512  1  0.25653450  0.32026433  0.42334125  1.0
  Sn  Sn1513  1  0.25653450  0.65359767  0.42334125  1.0
  Sn  Sn1514  1  0.25653450  0.98693100  0.42334125  1.0
  Sn  Sn1515  1  0.58986783  0.32026433  0.42334125  1.0
  Sn  Sn1516  1  0.58986783  0.65359767  0.42334125  1.0
  Sn  Sn1517  1  0.58986783  0.98693100  0.42334125  1.0
  Sn  Sn1518  1  0.92320117  0.32026433  0.42334125  1.0
  Sn  Sn1519  1  0.92320117  0.65359767  0.42334125  1.0
  Sn  Sn1520  1  0.92320117  0.98693100  0.42334125  1.0
  Sn  Sn1521  1  0.08986783  0.32026433  0.35191268  1.0
  Sn  Sn1522  1  0.08986783  0.65359767  0.35191268  1.0
  Sn  Sn1523  1  0.08986783  0.98693100  0.35191268  1.0
  Sn  Sn1524  1  0.42320117  0.32026433  0.35191268  1.0
  Sn  Sn1525  1  0.42320117  0.65359767  0.35191268  1.0
  Sn  Sn1526  1  0.42320117  0.98693100  0.35191268  1.0
  Sn  Sn1527  1  0.75653450  0.32026433  0.35191268  1.0
  Sn  Sn1528  1  0.75653450  0.65359767  0.35191268  1.0
  Sn  Sn1529  1  0.75653450  0.98693100  0.35191268  1.0
  Sn  Sn1530  1  0.06828383  0.19676567  0.36578368  1.0
  Sn  Sn1531  1  0.06828383  0.53009900  0.36578368  1.0
  Sn  Sn1532  1  0.06828383  0.86343233  0.36578368  1.0
  Sn  Sn1533  1  0.40161717  0.19676567  0.36578368  1.0
  Sn  Sn1534  1  0.40161717  0.53009900  0.36578368  1.0
  Sn  Sn1535  1  0.40161717  0.86343233  0.36578368  1.0
  Sn  Sn1536  1  0.73495050  0.19676567  0.36578368  1.0
  Sn  Sn1537  1  0.73495050  0.53009900  0.36578368  1.0
  Sn  Sn1538  1  0.73495050  0.86343233  0.36578368  1.0
  Sn  Sn1539  1  0.23495050  0.19676567  0.29435511  1.0
  Sn  Sn1540  1  0.23495050  0.53009900  0.29435511  1.0
  Sn  Sn1541  1  0.23495050  0.86343233  0.29435511  1.0
  Sn  Sn1542  1  0.56828383  0.19676567  0.29435511  1.0
  Sn  Sn1543  1  0.56828383  0.53009900  0.29435511  1.0
  Sn  Sn1544  1  0.56828383  0.86343233  0.29435511  1.0
  Sn  Sn1545  1  0.90161717  0.19676567  0.29435511  1.0
  Sn  Sn1546  1  0.90161717  0.53009900  0.29435511  1.0
  Sn  Sn1547  1  0.90161717  0.86343233  0.29435511  1.0
  Sn  Sn1548  1  0.11833333  0.09666667  0.36855146  1.0
  Sn  Sn1549  1  0.11833333  0.43000000  0.36855146  1.0
  Sn  Sn1550  1  0.11833333  0.76333333  0.36855146  1.0
  Sn  Sn1551  1  0.45166667  0.09666667  0.36855146  1.0
  Sn  Sn1552  1  0.45166667  0.43000000  0.36855146  1.0
  Sn  Sn1553  1  0.45166667  0.76333333  0.36855146  1.0
  Sn  Sn1554  1  0.78500000  0.09666667  0.36855146  1.0
  Sn  Sn1555  1  0.78500000  0.43000000  0.36855146  1.0
  Sn  Sn1556  1  0.78500000  0.76333333  0.36855146  1.0
  Sn  Sn1557  1  0.28500000  0.09666667  0.29712289  1.0
  Sn  Sn1558  1  0.28500000  0.43000000  0.29712289  1.0
  Sn  Sn1559  1  0.28500000  0.76333333  0.29712289  1.0
  Sn  Sn1560  1  0.61833333  0.09666667  0.29712289  1.0
  Sn  Sn1561  1  0.61833333  0.43000000  0.29712289  1.0
  Sn  Sn1562  1  0.61833333  0.76333333  0.29712289  1.0
  Sn  Sn1563  1  0.95166667  0.09666667  0.29712289  1.0
  Sn  Sn1564  1  0.95166667  0.43000000  0.29712289  1.0
  Sn  Sn1565  1  0.95166667  0.76333333  0.29712289  1.0
  Sn  Sn1566  1  0.13166667  0.07000000  0.29140861  1.0
  Sn  Sn1567  1  0.13166667  0.40333333  0.29140861  1.0
  Sn  Sn1568  1  0.13166667  0.73666667  0.29140861  1.0
  Sn  Sn1569  1  0.46500000  0.07000000  0.29140861  1.0
  Sn  Sn1570  1  0.46500000  0.40333333  0.29140861  1.0
  Sn  Sn1571  1  0.46500000  0.73666667  0.29140861  1.0
  Sn  Sn1572  1  0.79833333  0.07000000  0.29140861  1.0
  Sn  Sn1573  1  0.79833333  0.40333333  0.29140861  1.0
  Sn  Sn1574  1  0.79833333  0.73666667  0.29140861  1.0
  Sn  Sn1575  1  0.29833333  0.07000000  0.36283718  1.0
  Sn  Sn1576  1  0.29833333  0.40333333  0.36283718  1.0
  Sn  Sn1577  1  0.29833333  0.73666667  0.36283718  1.0
  Sn  Sn1578  1  0.63166667  0.07000000  0.36283718  1.0
  Sn  Sn1579  1  0.63166667  0.40333333  0.36283718  1.0
  Sn  Sn1580  1  0.63166667  0.73666667  0.36283718  1.0
  Sn  Sn1581  1  0.96500000  0.07000000  0.36283718  1.0
  Sn  Sn1582  1  0.96500000  0.40333333  0.36283718  1.0
  Sn  Sn1583  1  0.96500000  0.73666667  0.36283718  1.0
  Sn  Sn1584  1  0.03500000  0.26333333  0.34796175  1.0
  Sn  Sn1585  1  0.03500000  0.59666667  0.34796175  1.0
  Sn  Sn1586  1  0.03500000  0.93000000  0.34796175  1.0
  Sn  Sn1587  1  0.36833333  0.26333333  0.34796175  1.0
  Sn  Sn1588  1  0.36833333  0.59666667  0.34796175  1.0
  Sn  Sn1589  1  0.36833333  0.93000000  0.34796175  1.0
  Sn  Sn1590  1  0.70166667  0.26333333  0.34796175  1.0
  Sn  Sn1591  1  0.70166667  0.59666667  0.34796175  1.0
  Sn  Sn1592  1  0.70166667  0.93000000  0.34796175  1.0
  Sn  Sn1593  1  0.20166667  0.26333333  0.41939032  1.0
  Sn  Sn1594  1  0.20166667  0.59666667  0.41939032  1.0
  Sn  Sn1595  1  0.20166667  0.93000000  0.41939032  1.0
  Sn  Sn1596  1  0.53500000  0.26333333  0.41939032  1.0
  Sn  Sn1597  1  0.53500000  0.59666667  0.41939032  1.0
  Sn  Sn1598  1  0.53500000  0.93000000  0.41939032  1.0
  Sn  Sn1599  1  0.86833333  0.26333333  0.41939032  1.0
  Sn  Sn1600  1  0.86833333  0.59666667  0.41939032  1.0
  Sn  Sn1601  1  0.86833333  0.93000000  0.41939032  1.0
  Sn  Sn1602  1  0.32679883  0.17973567  0.32179939  1.0
  Sn  Sn1603  1  0.32679883  0.51306900  0.32179939  1.0
  Sn  Sn1604  1  0.32679883  0.84640233  0.32179939  1.0
  Sn  Sn1605  1  0.66013217  0.17973567  0.32179939  1.0
  Sn  Sn1606  1  0.66013217  0.51306900  0.32179939  1.0
  Sn  Sn1607  1  0.66013217  0.84640233  0.32179939  1.0
  Sn  Sn1608  1  0.99346550  0.17973567  0.32179939  1.0
  Sn  Sn1609  1  0.99346550  0.51306900  0.32179939  1.0
  Sn  Sn1610  1  0.99346550  0.84640233  0.32179939  1.0
  Sn  Sn1611  1  0.16013217  0.17973567  0.39322796  1.0
  Sn  Sn1612  1  0.16013217  0.51306900  0.39322796  1.0
  Sn  Sn1613  1  0.16013217  0.84640233  0.39322796  1.0
  Sn  Sn1614  1  0.49346550  0.17973567  0.39322796  1.0
  Sn  Sn1615  1  0.49346550  0.51306900  0.39322796  1.0
  Sn  Sn1616  1  0.49346550  0.84640233  0.39322796  1.0
  Sn  Sn1617  1  0.82679883  0.17973567  0.39322796  1.0
  Sn  Sn1618  1  0.82679883  0.51306900  0.39322796  1.0
  Sn  Sn1619  1  0.82679883  0.84640233  0.39322796  1.0
  Sn  Sn1620  1  0.09838283  0.13656767  0.41644382  1.0
  Sn  Sn1621  1  0.09838283  0.46990100  0.41644382  1.0
  Sn  Sn1622  1  0.09838283  0.80323433  0.41644382  1.0
  Sn  Sn1623  1  0.43171617  0.13656767  0.41644382  1.0
  Sn  Sn1624  1  0.43171617  0.46990100  0.41644382  1.0
  Sn  Sn1625  1  0.43171617  0.80323433  0.41644382  1.0
  Sn  Sn1626  1  0.76504950  0.13656767  0.41644382  1.0
  Sn  Sn1627  1  0.76504950  0.46990100  0.41644382  1.0
  Sn  Sn1628  1  0.76504950  0.80323433  0.41644382  1.0
  Sn  Sn1629  1  0.26504950  0.13656767  0.34501525  1.0
  Sn  Sn1630  1  0.26504950  0.46990100  0.34501525  1.0
  Sn  Sn1631  1  0.26504950  0.80323433  0.34501525  1.0
  Sn  Sn1632  1  0.59838283  0.13656767  0.34501525  1.0
  Sn  Sn1633  1  0.59838283  0.46990100  0.34501525  1.0
  Sn  Sn1634  1  0.59838283  0.80323433  0.34501525  1.0
  Sn  Sn1635  1  0.93171617  0.13656767  0.34501525  1.0
  Sn  Sn1636  1  0.93171617  0.46990100  0.34501525  1.0
  Sn  Sn1637  1  0.93171617  0.80323433  0.34501525  1.0
  Sn  Sn1638  1  0.00653450  0.15359767  0.38899954  1.0
  Sn  Sn1639  1  0.00653450  0.48693100  0.38899954  1.0
  Sn  Sn1640  1  0.00653450  0.82026433  0.38899954  1.0
  Sn  Sn1641  1  0.33986783  0.15359767  0.38899954  1.0
  Sn  Sn1642  1  0.33986783  0.48693100  0.38899954  1.0
  Sn  Sn1643  1  0.33986783  0.82026433  0.38899954  1.0
  Sn  Sn1644  1  0.67320117  0.15359767  0.38899954  1.0
  Sn  Sn1645  1  0.67320117  0.48693100  0.38899954  1.0
  Sn  Sn1646  1  0.67320117  0.82026433  0.38899954  1.0
  Sn  Sn1647  1  0.17320117  0.15359767  0.31757096  1.0
  Sn  Sn1648  1  0.17320117  0.48693100  0.31757096  1.0
  Sn  Sn1649  1  0.17320117  0.82026433  0.31757096  1.0
  Sn  Sn1650  1  0.50653450  0.15359767  0.31757096  1.0
  Sn  Sn1651  1  0.50653450  0.48693100  0.31757096  1.0
  Sn  Sn1652  1  0.50653450  0.82026433  0.31757096  1.0
  Sn  Sn1653  1  0.83986783  0.15359767  0.31757096  1.0
  Sn  Sn1654  1  0.83986783  0.48693100  0.31757096  1.0
  Sn  Sn1655  1  0.83986783  0.82026433  0.31757096  1.0
  Sn  Sn1656  1  0.04833333  0.23666667  0.41367604  1.0
  Sn  Sn1657  1  0.04833333  0.57000000  0.41367604  1.0
  Sn  Sn1658  1  0.04833333  0.90333333  0.41367604  1.0
  Sn  Sn1659  1  0.38166667  0.23666667  0.41367604  1.0
  Sn  Sn1660  1  0.38166667  0.57000000  0.41367604  1.0
  Sn  Sn1661  1  0.38166667  0.90333333  0.41367604  1.0
  Sn  Sn1662  1  0.71500000  0.23666667  0.41367604  1.0
  Sn  Sn1663  1  0.71500000  0.57000000  0.41367604  1.0
  Sn  Sn1664  1  0.71500000  0.90333333  0.41367604  1.0
  Sn  Sn1665  1  0.21500000  0.23666667  0.34224746  1.0
  Sn  Sn1666  1  0.21500000  0.57000000  0.34224746  1.0
  Sn  Sn1667  1  0.21500000  0.90333333  0.34224746  1.0
  Sn  Sn1668  1  0.54833333  0.23666667  0.34224746  1.0
  Sn  Sn1669  1  0.54833333  0.57000000  0.34224746  1.0
  Sn  Sn1670  1  0.54833333  0.90333333  0.34224746  1.0
  Sn  Sn1671  1  0.88166667  0.23666667  0.34224746  1.0
  Sn  Sn1672  1  0.88166667  0.57000000  0.34224746  1.0
  Sn  Sn1673  1  0.88166667  0.90333333  0.34224746  1.0
  Sn  Sn1674  1  0.30652450  0.22028433  0.36701111  1.0
  Sn  Sn1675  1  0.30652450  0.55361767  0.36701111  1.0
  Sn  Sn1676  1  0.30652450  0.88695100  0.36701111  1.0
  Sn  Sn1677  1  0.63985783  0.22028433  0.36701111  1.0
  Sn  Sn1678  1  0.63985783  0.55361767  0.36701111  1.0
  Sn  Sn1679  1  0.63985783  0.88695100  0.36701111  1.0
  Sn  Sn1680  1  0.97319117  0.22028433  0.36701111  1.0
  Sn  Sn1681  1  0.97319117  0.55361767  0.36701111  1.0
  Sn  Sn1682  1  0.97319117  0.88695100  0.36701111  1.0
  Sn  Sn1683  1  0.13985783  0.22028433  0.29558254  1.0
  Sn  Sn1684  1  0.13985783  0.55361767  0.29558254  1.0
  Sn  Sn1685  1  0.13985783  0.88695100  0.29558254  1.0
  Sn  Sn1686  1  0.47319117  0.22028433  0.29558254  1.0
  Sn  Sn1687  1  0.47319117  0.55361767  0.29558254  1.0
  Sn  Sn1688  1  0.47319117  0.88695100  0.29558254  1.0
  Sn  Sn1689  1  0.80652450  0.22028433  0.29558254  1.0
  Sn  Sn1690  1  0.80652450  0.55361767  0.29558254  1.0
  Sn  Sn1691  1  0.80652450  0.88695100  0.29558254  1.0
  Sn  Sn1692  1  0.05652450  0.05361767  0.40248111  1.0
  Sn  Sn1693  1  0.05652450  0.38695100  0.40248111  1.0
  Sn  Sn1694  1  0.05652450  0.72028433  0.40248111  1.0
  Sn  Sn1695  1  0.38985783  0.05361767  0.40248111  1.0
  Sn  Sn1696  1  0.38985783  0.38695100  0.40248111  1.0
  Sn  Sn1697  1  0.38985783  0.72028433  0.40248111  1.0
  Sn  Sn1698  1  0.72319117  0.05361767  0.40248111  1.0
  Sn  Sn1699  1  0.72319117  0.38695100  0.40248111  1.0
  Sn  Sn1700  1  0.72319117  0.72028433  0.40248111  1.0
  Sn  Sn1701  1  0.22319117  0.05361767  0.33105254  1.0
  Sn  Sn1702  1  0.22319117  0.38695100  0.33105254  1.0
  Sn  Sn1703  1  0.22319117  0.72028433  0.33105254  1.0
  Sn  Sn1704  1  0.55652450  0.05361767  0.33105254  1.0
  Sn  Sn1705  1  0.55652450  0.38695100  0.33105254  1.0
  Sn  Sn1706  1  0.55652450  0.72028433  0.33105254  1.0
  Sn  Sn1707  1  0.88985783  0.05361767  0.33105254  1.0
  Sn  Sn1708  1  0.88985783  0.38695100  0.33105254  1.0
  Sn  Sn1709  1  0.88985783  0.72028433  0.33105254  1.0
  Sn  Sn1710  1  0.02680883  0.11304900  0.34378782  1.0
  Sn  Sn1711  1  0.02680883  0.44638233  0.34378782  1.0
  Sn  Sn1712  1  0.02680883  0.77971567  0.34378782  1.0
  Sn  Sn1713  1  0.36014217  0.11304900  0.34378782  1.0
  Sn  Sn1714  1  0.36014217  0.44638233  0.34378782  1.0
  Sn  Sn1715  1  0.36014217  0.77971567  0.34378782  1.0
  Sn  Sn1716  1  0.69347550  0.11304900  0.34378782  1.0
  Sn  Sn1717  1  0.69347550  0.44638233  0.34378782  1.0
  Sn  Sn1718  1  0.69347550  0.77971567  0.34378782  1.0
  Sn  Sn1719  1  0.19347550  0.11304900  0.41521639  1.0
  Sn  Sn1720  1  0.19347550  0.44638233  0.41521639  1.0
  Sn  Sn1721  1  0.19347550  0.77971567  0.41521639  1.0
  Sn  Sn1722  1  0.52680883  0.11304900  0.41521639  1.0
  Sn  Sn1723  1  0.52680883  0.44638233  0.41521639  1.0
  Sn  Sn1724  1  0.52680883  0.77971567  0.41521639  1.0
  Sn  Sn1725  1  0.86014217  0.11304900  0.41521639  1.0
  Sn  Sn1726  1  0.86014217  0.44638233  0.41521639  1.0
  Sn  Sn1727  1  0.86014217  0.77971567  0.41521639  1.0
